=
 OpenBabel11032420213D

 32 33  0  0  1  0  0  0  0  0999 V2000
  190.2940  176.8670  144.6320 C   0  0  0  0  0  2  0  0  0  0  0  0
  191.2130  176.7070  147.5390 C   0  0  0  0  0  3  0  0  0  0  0  0
  187.6850  177.8170  146.8190 C   0  0  0  0  0  3  0  0  0  0  0  0
  187.9430  177.0870  144.6970 N   0  0  0  0  0  0  0  0  0  0  0  0
  189.1520  177.0770  145.2940 C   0  0  0  0  0  0  0  0  0  0  0  0
  187.0690  177.5770  145.6010 C   0  0  0  0  0  0  0  0  0  0  0  0
  191.6370  177.2240  145.1820 C   0  0  0  0  0  2  0  0  0  0  0  0
  191.9280  176.5960  146.4620 N   0  0  0  0  0  0  0  0  0  0  0  0
  189.8850  177.3470  147.6220 C   0  0  0  0  0  2  0  0  0  0  0  0
  189.0110  177.4740  146.6180 C   0  0  0  0  0  0  0  0  0  0  0  0
  187.6410  176.7950  143.2970 C   0  0  0  0  0  2  0  0  0  0  0  0
  188.2470  177.8430  142.3640 C   0  0  2  0  0  3  0  0  0  0  0  0
  186.0740  178.0130  141.9700 C   0  0  0  0  0  1  0  0  0  0  0  0
  187.2490  178.7640  142.0340 O   0  0  0  0  0  0  0  0  0  0  0  0
  190.0750  176.6680  141.3440 O   0  0  0  0  0  1  0  0  0  0  0  0
  188.8020  177.1860  141.0960 C   0  0  2  0  0  3  0  0  0  0  0  0
  188.8870  178.1840  139.9470 C   0  0  0  0  0  2  0  0  0  0  0  0
  187.9790  177.7630  138.8040 C   0  0  0  0  0  2  0  0  0  0  0  0
  187.0430  178.7630  138.5410 O   0  0  0  0  0  0  0  0  0  0  0  0
  185.9160  178.0780  138.0860 C   0  0  0  0  0  2  0  0  0  0  0  0
  184.6810  178.6640  138.6920 C   0  0  0  0  0  0  0  0  0  0  0  0
  184.7190  179.7760  139.1900 O   0  0  0  0  0  0  0  0  0  0  0  0
  183.3870  177.9100  138.6650 C   0  0  2  0  0  3  0  0  0  0  0  0
  182.4080  178.6600  138.0140 O   0  0  0  0  0  1  0  0  0  0  0  0
  182.9320  177.5870  140.0760 C   0  0  0  0  0  1  0  0  0  0  0  0
  185.6090  177.7650  145.3420 C   0  0  0  0  0  2  0  0  0  0  0  0
  185.2580  179.2350  145.4400 C   0  0  0  0  0  2  0  0  0  0  0  0
  184.2700  179.6030  144.3540 C   0  0  0  0  0  2  0  0  0  0  0  0
  182.9710  178.8560  144.5970 C   0  0  0  0  0  2  0  0  0  0  0  0
  181.9930  179.0960  143.4610 C   0  0  0  0  0  2  0  0  0  0  0  0
  179.8340  178.3040  142.5470 C   0  0  0  0  0  1  0  0  0  0  0  0
  180.6260  178.5370  143.8150 C   0  0  0  0  0  2  0  0  0  0  0  0
  1  7  1  0  0  0  0
  1  5  1  0  0  0  0
  2  9  1  0  0  0  0
  4  5  1  0  0  0  0
  4  6  1  0  0  0  0
  5 10  2  0  0  0  0
  6  3  2  0  0  0  0
  7  8  1  0  0  0  0
  8  2  2  0  0  0  0
 10  3  1  0  0  0  0
 10  9  1  0  0  0  0
 11  4  1  0  0  0  0
 12 11  1  1  0  0  0
 13 14  1  0  0  0  0
 14 12  1  0  0  0  0
 16 15  1  1  0  0  0
 16 12  1  0  0  0  0
 17 16  1  0  0  0  0
 18 17  1  0  0  0  0
 19 18  1  0  0  0  0
 20 19  1  0  0  0  0
 20 21  1  0  0  0  0
 21 22  2  0  0  0  0
 23 21  1  0  0  0  0
 23 25  1  1  0  0  0
 24 23  1  0  0  0  0
 26 27  1  0  0  0  0
 26  6  1  0  0  0  0
 28 29  1  0  0  0  0
 28 27  1  0  0  0  0
 30 32  1  0  0  0  0
 30 29  1  0  0  0  0
 31 32  1  0  0  0  0
M  END
>  <MODEL>
1

>  <REMARK>
 VINA RESULT:      -7.3      0.000      0.000
  Name = 
  16 active torsions:
  status: ('A' for Active; 'I' for Inactive)
    1  A    between atoms: C_1  and  C_22
    2  A    between atoms: C_1  and  C_24
    3  A    between atoms: C_2  and  C_7
    4  A    between atoms: C_2  and  C_25
    5  A    between atoms: C_6  and  C_9
    6  A    between atoms: C_6  and  C_32
    7  A    between atoms: C_9  and  O_12
    8  A    between atoms: N_10  and  C_20
    9  A    between atoms: O_12  and  C_25
   10  A    between atoms: C_14  and  C_17
   11  A    between atoms: C_14  and  C_19
   12  A    between atoms: C_16  and  O_18
   13  A    between atoms: C_16  and  C_20
   14  A    between atoms: C_16  and  C_32
   15  A    between atoms: C_17  and  C_21
   16  A    between atoms: C_21  and  C_24
                            x       y       z     vdW  Elec       q    Type
                         _______ _______ _______ _____ _____    ______ ____

>  <TORSDO>
F 16

$$$$
=
 OpenBabel11032420213D

 32 33  0  0  1  0  0  0  0  0999 V2000
  186.8190  178.8490  141.5500 C   0  0  0  0  0  2  0  0  0  0  0  0
  185.3090  178.8640  144.2040 C   0  0  0  0  0  3  0  0  0  0  0  0
  188.1610  176.4400  143.7610 C   0  0  0  0  0  3  0  0  0  0  0  0
  188.7820  177.5870  141.9170 N   0  0  0  0  0  0  0  0  0  0  0  0
  187.5650  178.0290  142.2960 C   0  0  0  0  0  0  0  0  0  0  0  0
  189.1180  176.5980  142.7720 C   0  0  0  0  0  0  0  0  0  0  0  0
  185.3520  179.0400  141.7600 C   0  0  0  0  0  2  0  0  0  0  0  0
  185.0090  179.4830  143.1030 N   0  0  0  0  0  0  0  0  0  0  0  0
  186.2010  177.6920  144.3100 C   0  0  0  0  0  2  0  0  0  0  0  0
  187.1830  177.3740  143.4600 C   0  0  0  0  0  0  0  0  0  0  0  0
  189.5320  177.9660  140.7210 C   0  0  0  0  0  2  0  0  0  0  0  0
  189.0670  177.1780  139.4970 C   0  0  2  0  0  3  0  0  0  0  0  0
  191.1840  176.6510  139.1100 C   0  0  0  0  0  1  0  0  0  0  0  0
  189.9240  176.0870  139.3270 O   0  0  0  0  0  0  0  0  0  0  0  0
  188.9610  179.4050  138.6080 O   0  0  0  0  0  1  0  0  0  0  0  0
  189.0790  178.0610  138.2460 C   0  0  2  0  0  3  0  0  0  0  0  0
  187.9380  177.7000  137.3020 C   0  0  0  0  0  2  0  0  0  0  0  0
  186.6440  177.5070  138.0740 C   0  0  0  0  0  2  0  0  0  0  0  0
  185.8910  178.6810  138.0500 O   0  0  0  0  0  0  0  0  0  0  0  0
  184.5860  178.2670  138.3150 C   0  0  0  0  0  2  0  0  0  0  0  0
  183.7490  179.4380  138.7210 C   0  0  0  0  0  0  0  0  0  0  0  0
  184.2720  180.5260  138.8950 O   0  0  0  0  0  0  0  0  0  0  0  0
  182.2670  179.2960  138.8850 C   0  0  2  0  0  3  0  0  0  0  0  0
  181.6350  180.5070  138.6050 O   0  0  0  0  0  1  0  0  0  0  0  0
  181.9300  178.8550  140.2970 C   0  0  0  0  0  1  0  0  0  0  0  0
  190.3940  175.8250  142.7020 C   0  0  0  0  0  2  0  0  0  0  0  0
  191.5030  176.6070  143.3750 C   0  0  0  0  0  2  0  0  0  0  0  0
  191.6490  176.1590  144.8130 C   0  0  0  0  0  2  0  0  0  0  0  0
  191.1810  177.2770  145.7280 C   0  0  0  0  0  2  0  0  0  0  0  0
  190.1290  176.7720  146.6980 C   0  0  0  0  0  2  0  0  0  0  0  0
  188.2920  177.4390  148.2170 C   0  0  0  0  0  1  0  0  0  0  0  0
  189.1840  177.8960  147.0840 C   0  0  0  0  0  2  0  0  0  0  0  0
  1  7  1  0  0  0  0
  1  5  1  0  0  0  0
  2  9  1  0  0  0  0
  4  5  1  0  0  0  0
  4  6  1  0  0  0  0
  5 10  2  0  0  0  0
  6  3  2  0  0  0  0
  7  8  1  0  0  0  0
  8  2  2  0  0  0  0
 10  3  1  0  0  0  0
 10  9  1  0  0  0  0
 11  4  1  0  0  0  0
 12 11  1  1  0  0  0
 13 14  1  0  0  0  0
 14 12  1  0  0  0  0
 16 15  1  1  0  0  0
 16 12  1  0  0  0  0
 17 18  1  0  0  0  0
 17 16  1  0  0  0  0
 19 18  1  0  0  0  0
 19 20  1  0  0  0  0
 20 21  1  0  0  0  0
 21 23  1  0  0  0  0
 21 22  2  0  0  0  0
 23 25  1  1  0  0  0
 24 23  1  0  0  0  0
 26  6  1  0  0  0  0
 26 27  1  0  0  0  0
 27 28  1  0  0  0  0
 28 29  1  0  0  0  0
 29 30  1  0  0  0  0
 30 32  1  0  0  0  0
 32 31  1  0  0  0  0
M  END
>  <MODEL>
2

>  <REMARK>
 VINA RESULT:      -7.3      2.067      5.317
  Name = 
  16 active torsions:
  status: ('A' for Active; 'I' for Inactive)
    1  A    between atoms: C_1  and  C_22
    2  A    between atoms: C_1  and  C_24
    3  A    between atoms: C_2  and  C_7
    4  A    between atoms: C_2  and  C_25
    5  A    between atoms: C_6  and  C_9
    6  A    between atoms: C_6  and  C_32
    7  A    between atoms: C_9  and  O_12
    8  A    between atoms: N_10  and  C_20
    9  A    between atoms: O_12  and  C_25
   10  A    between atoms: C_14  and  C_17
   11  A    between atoms: C_14  and  C_19
   12  A    between atoms: C_16  and  O_18
   13  A    between atoms: C_16  and  C_20
   14  A    between atoms: C_16  and  C_32
   15  A    between atoms: C_17  and  C_21
   16  A    between atoms: C_21  and  C_24
                            x       y       z     vdW  Elec       q    Type
                         _______ _______ _______ _____ _____    ______ ____

>  <TORSDO>
F 16

$$$$
=
 OpenBabel11032420213D

 32 33  0  0  1  0  0  0  0  0999 V2000
  186.1010  178.6990  141.3310 C   0  0  0  0  0  2  0  0  0  0  0  0
  183.9960  178.9440  143.5280 C   0  0  0  0  0  3  0  0  0  0  0  0
  187.2660  177.2560  144.3400 C   0  0  0  0  0  3  0  0  0  0  0  0
  188.1070  178.0720  142.4090 N   0  0  0  0  0  0  0  0  0  0  0  0
  186.7750  178.2770  142.4050 C   0  0  0  0  0  0  0  0  0  0  0  0
  188.3950  177.4150  143.5520 C   0  0  0  0  0  0  0  0  0  0  0  0
  184.6200  178.5680  141.1880 C   0  0  0  0  0  2  0  0  0  0  0  0
  183.8730  179.2050  142.2620 N   0  0  0  0  0  0  0  0  0  0  0  0
  185.0340  178.0820  144.1260 C   0  0  0  0  0  2  0  0  0  0  0  0
  186.2400  177.8300  143.6060 C   0  0  0  0  0  0  0  0  0  0  0  0
  189.0510  178.3420  141.3250 C   0  0  0  0  0  2  0  0  0  0  0  0
  189.1210  177.1740  140.3420 C   0  0  2  0  0  3  0  0  0  0  0  0
  191.3310  177.3080  140.4140 C   0  0  0  0  0  1  0  0  0  0  0  0
  190.2680  176.4280  140.6290 O   0  0  0  0  0  0  0  0  0  0  0  0
  188.5690  178.9420  138.8140 O   0  0  0  0  0  1  0  0  0  0  0  0
  189.1680  177.6820  138.8970 C   0  0  2  0  0  3  0  0  0  0  0  0
  188.4490  176.7290  137.9510 C   0  0  0  0  0  2  0  0  0  0  0  0
  189.1200  176.7200  136.5870 C   0  0  0  0  0  2  0  0  0  0  0  0
  190.4700  177.0470  136.7150 O   0  0  0  0  0  0  0  0  0  0  0  0
  191.1480  175.9240  136.2410 C   0  0  0  0  0  2  0  0  0  0  0  0
  191.8530  175.2380  137.3680 C   0  0  0  0  0  0  0  0  0  0  0  0
  191.2380  174.4720  138.0910 O   0  0  0  0  0  0  0  0  0  0  0  0
  193.3160  175.4580  137.6000 C   0  0  2  0  0  3  0  0  0  0  0  0
  193.6220  176.8130  137.4820 O   0  0  0  0  0  1  0  0  0  0  0  0
  194.1360  174.6580  136.6050 C   0  0  0  0  0  1  0  0  0  0  0  0
  189.7690  176.9830  143.9500 C   0  0  0  0  0  2  0  0  0  0  0  0
  190.2370  177.7960  145.1390 C   0  0  0  0  0  2  0  0  0  0  0  0
  190.9140  176.8930  146.1460 C   0  0  0  0  0  2  0  0  0  0  0  0
  190.3540  177.1870  147.5270 C   0  0  0  0  0  2  0  0  0  0  0  0
  188.9020  176.7550  147.6200 C   0  0  0  0  0  2  0  0  0  0  0  0
  187.0760  178.4260  147.6650 C   0  0  0  0  0  1  0  0  0  0  0  0
  188.1210  177.7170  148.4990 C   0  0  0  0  0  2  0  0  0  0  0  0
  1  5  1  0  0  0  0
  2  9  1  0  0  0  0
  4  6  1  0  0  0  0
  5  4  1  0  0  0  0
  5 10  2  0  0  0  0
  6 26  1  0  0  0  0
  6  3  2  0  0  0  0
  7  1  1  0  0  0  0
  7  8  1  0  0  0  0
  8  2  2  0  0  0  0
 10  9  1  0  0  0  0
 10  3  1  0  0  0  0
 11  4  1  0  0  0  0
 12 14  1  0  0  0  0
 12 11  1  1  0  0  0
 13 14  1  0  0  0  0
 16 15  1  1  0  0  0
 16 12  1  0  0  0  0
 17 16  1  0  0  0  0
 18 19  1  0  0  0  0
 18 17  1  0  0  0  0
 20 19  1  0  0  0  0
 20 21  1  0  0  0  0
 21 23  1  0  0  0  0
 21 22  2  0  0  0  0
 23 25  1  6  0  0  0
 24 23  1  0  0  0  0
 26 27  1  0  0  0  0
 27 28  1  0  0  0  0
 28 29  1  0  0  0  0
 29 30  1  0  0  0  0
 30 32  1  0  0  0  0
 31 32  1  0  0  0  0
M  END
>  <MODEL>
3

>  <REMARK>
 VINA RESULT:      -7.2      2.893      6.636
  Name = 
  16 active torsions:
  status: ('A' for Active; 'I' for Inactive)
    1  A    between atoms: C_1  and  C_22
    2  A    between atoms: C_1  and  C_24
    3  A    between atoms: C_2  and  C_7
    4  A    between atoms: C_2  and  C_25
    5  A    between atoms: C_6  and  C_9
    6  A    between atoms: C_6  and  C_32
    7  A    between atoms: C_9  and  O_12
    8  A    between atoms: N_10  and  C_20
    9  A    between atoms: O_12  and  C_25
   10  A    between atoms: C_14  and  C_17
   11  A    between atoms: C_14  and  C_19
   12  A    between atoms: C_16  and  O_18
   13  A    between atoms: C_16  and  C_20
   14  A    between atoms: C_16  and  C_32
   15  A    between atoms: C_17  and  C_21
   16  A    between atoms: C_21  and  C_24
                            x       y       z     vdW  Elec       q    Type
                         _______ _______ _______ _____ _____    ______ ____

>  <TORSDO>
F 16

$$$$
=
 OpenBabel11032420213D

 32 33  0  0  1  0  0  0  0  0999 V2000
  190.3320  176.9790  144.5650 C   0  0  0  0  0  2  0  0  0  0  0  0
  191.0440  176.7790  147.5270 C   0  0  0  0  0  3  0  0  0  0  0  0
  187.5270  177.7440  146.5760 C   0  0  0  0  0  3  0  0  0  0  0  0
  187.9740  177.0880  144.4610 N   0  0  0  0  0  0  0  0  0  0  0  0
  189.1360  177.1170  145.1450 C   0  0  0  0  0  0  0  0  0  0  0  0
  187.0140  177.5110  145.3100 C   0  0  0  0  0  0  0  0  0  0  0  0
  191.6120  177.3820  145.2200 C   0  0  0  0  0  2  0  0  0  0  0  0
  191.8400  176.7320  146.5020 N   0  0  0  0  0  0  0  0  0  0  0  0
  189.6840  177.3540  147.5270 C   0  0  0  0  0  2  0  0  0  0  0  0
  188.8800  177.4690  146.4640 C   0  0  0  0  0  0  0  0  0  0  0  0
  187.7890  176.8210  143.0360 C   0  0  0  0  0  2  0  0  0  0  0  0
  187.6410  178.1170  142.2400 C   0  0  2  0  0  3  0  0  0  0  0  0
  185.7920  179.2620  141.8200 C   0  0  0  0  0  1  0  0  0  0  0  0
  186.4400  178.0600  141.5280 O   0  0  0  0  0  0  0  0  0  0  0  0
  188.3650  178.8130  140.0590 O   0  0  0  0  0  1  0  0  0  0  0  0
  188.8190  178.3010  141.2780 C   0  0  2  0  0  3  0  0  0  0  0  0
  189.5390  176.9830  141.0240 C   0  0  0  0  0  2  0  0  0  0  0  0
  191.0400  177.2010  140.9340 C   0  0  0  0  0  2  0  0  0  0  0  0
  191.4230  177.3580  139.6020 O   0  0  0  0  0  0  0  0  0  0  0  0
  190.8600  176.2640  138.9440 C   0  0  0  0  0  2  0  0  0  0  0  0
  190.7570  176.5450  137.4790 C   0  0  0  0  0  0  0  0  0  0  0  0
  191.7180  176.3430  136.7550 O   0  0  0  0  0  0  0  0  0  0  0  0
  189.4760  177.0420  136.8850 C   0  0  2  0  0  3  0  0  0  0  0  0
  189.3810  178.4240  137.0360 O   0  0  0  0  0  1  0  0  0  0  0  0
  188.2880  176.3710  137.5490 C   0  0  0  0  0  1  0  0  0  0  0  0
  185.5700  177.6380  144.9480 C   0  0  0  0  0  2  0  0  0  0  0  0
  184.9510  178.7880  145.7160 C   0  0  0  0  0  2  0  0  0  0  0  0
  184.0610  179.5990  144.7990 C   0  0  0  0  0  2  0  0  0  0  0  0
  182.7420  178.8690  144.6180 C   0  0  0  0  0  2  0  0  0  0  0  0
  182.2950  178.9190  143.1680 C   0  0  0  0  0  2  0  0  0  0  0  0
  180.0180  178.3170  143.9260 C   0  0  0  0  0  1  0  0  0  0  0  0
  180.8230  179.2810  143.0830 C   0  0  0  0  0  2  0  0  0  0  0  0
  1  5  1  0  0  0  0
  1  7  1  0  0  0  0
  4  5  1  0  0  0  0
  4  6  1  0  0  0  0
  5 10  2  0  0  0  0
  6  3  2  0  0  0  0
  7  8  1  0  0  0  0
  8  2  2  0  0  0  0
  9  2  1  0  0  0  0
 10  3  1  0  0  0  0
 10  9  1  0  0  0  0
 11  4  1  0  0  0  0
 12 11  1  6  0  0  0
 14 13  1  0  0  0  0
 14 12  1  0  0  0  0
 16 15  1  6  0  0  0
 16 12  1  0  0  0  0
 17 16  1  0  0  0  0
 18 17  1  0  0  0  0
 19 18  1  0  0  0  0
 20 19  1  0  0  0  0
 21 20  1  0  0  0  0
 22 21  2  0  0  0  0
 23 24  1  0  0  0  0
 23 21  1  0  0  0  0
 23 25  1  1  0  0  0
 26  6  1  0  0  0  0
 26 27  1  0  0  0  0
 28 27  1  0  0  0  0
 29 28  1  0  0  0  0
 30 29  1  0  0  0  0
 32 30  1  0  0  0  0
 32 31  1  0  0  0  0
M  END
>  <MODEL>
4

>  <REMARK>
 VINA RESULT:      -7.2      1.877      3.179
  Name = 
  16 active torsions:
  status: ('A' for Active; 'I' for Inactive)
    1  A    between atoms: C_1  and  C_22
    2  A    between atoms: C_1  and  C_24
    3  A    between atoms: C_2  and  C_7
    4  A    between atoms: C_2  and  C_25
    5  A    between atoms: C_6  and  C_9
    6  A    between atoms: C_6  and  C_32
    7  A    between atoms: C_9  and  O_12
    8  A    between atoms: N_10  and  C_20
    9  A    between atoms: O_12  and  C_25
   10  A    between atoms: C_14  and  C_17
   11  A    between atoms: C_14  and  C_19
   12  A    between atoms: C_16  and  O_18
   13  A    between atoms: C_16  and  C_20
   14  A    between atoms: C_16  and  C_32
   15  A    between atoms: C_17  and  C_21
   16  A    between atoms: C_21  and  C_24
                            x       y       z     vdW  Elec       q    Type
                         _______ _______ _______ _____ _____    ______ ____

>  <TORSDO>
F 16

$$$$
=
 OpenBabel11032420213D

 32 33  0  0  1  0  0  0  0  0999 V2000
  186.7670  178.7850  141.4540 C   0  0  0  0  0  2  0  0  0  0  0  0
  185.1420  178.9290  144.0350 C   0  0  0  0  0  3  0  0  0  0  0  0
  187.9970  176.4780  143.8320 C   0  0  0  0  0  3  0  0  0  0  0  0
  188.7050  177.5350  141.9660 N   0  0  0  0  0  0  0  0  0  0  0  0
  187.4750  177.9990  142.2700 C   0  0  0  0  0  0  0  0  0  0  0  0
  188.9980  176.5860  142.8800 C   0  0  0  0  0  0  0  0  0  0  0  0
  185.2930  178.9900  141.5900 C   0  0  0  0  0  2  0  0  0  0  0  0
  184.8930  179.4960  142.8940 N   0  0  0  0  0  0  0  0  0  0  0  0
  186.0220  177.7600  144.2340 C   0  0  0  0  0  2  0  0  0  0  0  0
  187.0390  177.4000  143.4440 C   0  0  0  0  0  0  0  0  0  0  0  0
  189.5090  177.8550  140.7880 C   0  0  0  0  0  2  0  0  0  0  0  0
  189.1890  176.9200  139.6220 C   0  0  2  0  0  3  0  0  0  0  0  0
  191.4020  177.0040  139.5820 C   0  0  0  0  0  1  0  0  0  0  0  0
  190.3220  176.1460  139.3580 O   0  0  0  0  0  0  0  0  0  0  0  0
  188.8520  179.0890  138.6490 O   0  0  0  0  0  1  0  0  0  0  0  0
  188.7910  177.7190  138.3780 C   0  0  2  0  0  3  0  0  0  0  0  0
  187.3810  177.3670  137.9200 C   0  0  0  0  0  2  0  0  0  0  0  0
  187.3370  177.1860  136.4120 C   0  0  0  0  0  2  0  0  0  0  0  0
  186.1830  176.4910  136.0460 O   0  0  0  0  0  0  0  0  0  0  0  0
  186.3750  175.2040  136.5480 C   0  0  0  0  0  2  0  0  0  0  0  0
  185.0540  174.5570  136.8170 C   0  0  0  0  0  0  0  0  0  0  0  0
  184.0450  174.9970  136.2920 O   0  0  0  0  0  0  0  0  0  0  0  0
  184.9600  173.3510  137.7000 C   0  0  2  0  0  3  0  0  0  0  0  0
  186.2340  172.8500  137.9650 O   0  0  0  0  0  1  0  0  0  0  0  0
  184.1120  172.2780  137.0440 C   0  0  0  0  0  1  0  0  0  0  0  0
  190.2720  175.8060  142.9020 C   0  0  0  0  0  2  0  0  0  0  0  0
  191.3650  176.6340  143.5460 C   0  0  0  0  0  2  0  0  0  0  0  0
  191.5420  176.2190  144.9910 C   0  0  0  0  0  2  0  0  0  0  0  0
  190.9540  177.2930  145.8880 C   0  0  0  0  0  2  0  0  0  0  0  0
  190.2430  176.6710  147.0750 C   0  0  0  0  0  2  0  0  0  0  0  0
  187.9920  177.6490  147.3940 C   0  0  0  0  0  1  0  0  0  0  0  0
  189.4410  177.7240  147.8210 C   0  0  0  0  0  2  0  0  0  0  0  0
  1  7  1  0  0  0  0
  1  5  1  0  0  0  0
  2  9  1  0  0  0  0
  4  5  1  0  0  0  0
  4  6  1  0  0  0  0
  5 10  2  0  0  0  0
  6 26  1  0  0  0  0
  6  3  2  0  0  0  0
  7  8  1  0  0  0  0
  8  2  2  0  0  0  0
 10  3  1  0  0  0  0
 10  9  1  0  0  0  0
 11  4  1  0  0  0  0
 12 11  1  1  0  0  0
 14 13  1  0  0  0  0
 14 12  1  0  0  0  0
 16 15  1  1  0  0  0
 16 12  1  0  0  0  0
 17 16  1  0  0  0  0
 18 17  1  0  0  0  0
 19 18  1  0  0  0  0
 19 20  1  0  0  0  0
 20 21  1  0  0  0  0
 21 23  1  0  0  0  0
 22 21  2  0  0  0  0
 23 25  1  6  0  0  0
 23 24  1  0  0  0  0
 26 27  1  0  0  0  0
 27 28  1  0  0  0  0
 28 29  1  0  0  0  0
 29 30  1  0  0  0  0
 30 32  1  0  0  0  0
 31 32  1  0  0  0  0
M  END
>  <MODEL>
5

>  <REMARK>
 VINA RESULT:      -7.1      2.644      5.800
  Name = 
  16 active torsions:
  status: ('A' for Active; 'I' for Inactive)
    1  A    between atoms: C_1  and  C_22
    2  A    between atoms: C_1  and  C_24
    3  A    between atoms: C_2  and  C_7
    4  A    between atoms: C_2  and  C_25
    5  A    between atoms: C_6  and  C_9
    6  A    between atoms: C_6  and  C_32
    7  A    between atoms: C_9  and  O_12
    8  A    between atoms: N_10  and  C_20
    9  A    between atoms: O_12  and  C_25
   10  A    between atoms: C_14  and  C_17
   11  A    between atoms: C_14  and  C_19
   12  A    between atoms: C_16  and  O_18
   13  A    between atoms: C_16  and  C_20
   14  A    between atoms: C_16  and  C_32
   15  A    between atoms: C_17  and  C_21
   16  A    between atoms: C_21  and  C_24
                            x       y       z     vdW  Elec       q    Type
                         _______ _______ _______ _____ _____    ______ ____

>  <TORSDO>
F 16

$$$$
=
 OpenBabel11032420213D

 32 33  0  0  1  0  0  0  0  0999 V2000
  190.5540  178.5110  143.0420 C   0  0  0  0  0  2  0  0  0  0  0  0
  190.7770  176.7640  145.5360 C   0  0  0  0  0  3  0  0  0  0  0  0
  187.3590  177.4270  144.0940 C   0  0  0  0  0  3  0  0  0  0  0  0
  188.3560  178.2190  142.2290 N   0  0  0  0  0  0  0  0  0  0  0  0
  189.3030  178.0610  143.1750 C   0  0  0  0  0  0  0  0  0  0  0  0
  187.1790  177.8820  142.7980 C   0  0  0  0  0  0  0  0  0  0  0  0
  191.4890  178.6880  144.1950 C   0  0  0  0  0  2  0  0  0  0  0  0
  191.7030  177.4700  144.9620 N   0  0  0  0  0  0  0  0  0  0  0  0
  189.3230  176.9660  145.3730 C   0  0  0  0  0  2  0  0  0  0  0  0
  188.7220  177.5250  144.3170 C   0  0  0  0  0  0  0  0  0  0  0  0
  188.5190  178.8020  140.8980 C   0  0  0  0  0  2  0  0  0  0  0  0
  188.9210  177.7450  139.8700 C   0  0  2  0  0  3  0  0  0  0  0  0
  190.6870  176.4140  139.7470 C   0  0  0  0  0  1  0  0  0  0  0  0
  190.3130  177.7600  139.7490 O   0  0  0  0  0  0  0  0  0  0  0  0
  188.7490  179.2330  137.9940 O   0  0  0  0  0  1  0  0  0  0  0  0
  188.2680  178.0290  138.5140 C   0  0  2  0  0  3  0  0  0  0  0  0
  186.7510  178.1120  138.6360 C   0  0  0  0  0  2  0  0  0  0  0  0
  186.0850  177.6800  137.3410 C   0  0  0  0  0  2  0  0  0  0  0  0
  184.7160  177.9440  137.3940 O   0  0  0  0  0  0  0  0  0  0  0  0
  184.4420  178.1000  138.7520 C   0  0  0  0  0  2  0  0  0  0  0  0
  183.5160  179.2560  138.9590 C   0  0  0  0  0  0  0  0  0  0  0  0
  183.9610  180.3910  138.9950 O   0  0  0  0  0  0  0  0  0  0  0  0
  182.0400  179.0370  139.0910 C   0  0  2  0  0  3  0  0  0  0  0  0
  181.5730  179.6150  140.2700 O   0  0  0  0  0  1  0  0  0  0  0  0
  181.7210  177.5540  139.0850 C   0  0  0  0  0  1  0  0  0  0  0  0
  185.8630  177.9240  142.0920 C   0  0  0  0  0  2  0  0  0  0  0  0
  185.0370  179.0780  142.6220 C   0  0  0  0  0  2  0  0  0  0  0  0
  183.6550  178.5900  143.0030 C   0  0  0  0  0  2  0  0  0  0  0  0
  183.3420  179.0500  144.4150 C   0  0  0  0  0  2  0  0  0  0  0  0
  184.6200  179.3390  145.1820 C   0  0  0  0  0  2  0  0  0  0  0  0
  185.9960  178.7420  147.1500 C   0  0  0  0  0  1  0  0  0  0  0  0
  184.7450  178.4020  146.3700 C   0  0  0  0  0  2  0  0  0  0  0  0
  1  5  1  0  0  0  0
  1  7  1  0  0  0  0
  3 10  1  0  0  0  0
  4  6  1  0  0  0  0
  4  5  1  0  0  0  0
  5 10  2  0  0  0  0
  6  3  2  0  0  0  0
  7  8  1  0  0  0  0
  8  2  2  0  0  0  0
  9  2  1  0  0  0  0
 10  9  1  0  0  0  0
 11  4  1  0  0  0  0
 12 11  1  1  0  0  0
 13 14  1  0  0  0  0
 14 12  1  0  0  0  0
 16 15  1  1  0  0  0
 16 17  1  0  0  0  0
 16 12  1  0  0  0  0
 18 19  1  0  0  0  0
 18 17  1  0  0  0  0
 19 20  1  0  0  0  0
 20 21  1  0  0  0  0
 21 22  2  0  0  0  0
 21 23  1  0  0  0  0
 23 25  1  1  0  0  0
 23 24  1  0  0  0  0
 26 27  1  0  0  0  0
 26  6  1  0  0  0  0
 27 28  1  0  0  0  0
 28 29  1  0  0  0  0
 29 30  1  0  0  0  0
 30 32  1  0  0  0  0
 32 31  1  0  0  0  0
M  END
>  <MODEL>
6

>  <REMARK>
 VINA RESULT:      -7.1      1.764      3.043
  Name = 
  16 active torsions:
  status: ('A' for Active; 'I' for Inactive)
    1  A    between atoms: C_1  and  C_22
    2  A    between atoms: C_1  and  C_24
    3  A    between atoms: C_2  and  C_7
    4  A    between atoms: C_2  and  C_25
    5  A    between atoms: C_6  and  C_9
    6  A    between atoms: C_6  and  C_32
    7  A    between atoms: C_9  and  O_12
    8  A    between atoms: N_10  and  C_20
    9  A    between atoms: O_12  and  C_25
   10  A    between atoms: C_14  and  C_17
   11  A    between atoms: C_14  and  C_19
   12  A    between atoms: C_16  and  O_18
   13  A    between atoms: C_16  and  C_20
   14  A    between atoms: C_16  and  C_32
   15  A    between atoms: C_17  and  C_21
   16  A    between atoms: C_21  and  C_24
                            x       y       z     vdW  Elec       q    Type
                         _______ _______ _______ _____ _____    ______ ____

>  <TORSDO>
F 16

$$$$
=
 OpenBabel11032420213D

 32 33  0  0  1  0  0  0  0  0999 V2000
  190.9250  178.2070  143.3040 C   0  0  0  0  0  2  0  0  0  0  0  0
  190.7050  176.8440  146.0270 C   0  0  0  0  0  3  0  0  0  0  0  0
  187.5370  177.6800  144.1650 C   0  0  0  0  0  3  0  0  0  0  0  0
  188.7830  178.0570  142.3190 N   0  0  0  0  0  0  0  0  0  0  0  0
  189.6190  177.9330  143.3700 C   0  0  0  0  0  0  0  0  0  0  0  0
  187.5290  177.9520  142.8060 C   0  0  0  0  0  0  0  0  0  0  0  0
  191.7740  178.4440  144.5100 C   0  0  0  0  0  2  0  0  0  0  0  0
  191.7610  177.3400  145.4580 N   0  0  0  0  0  0  0  0  0  0  0  0
  189.3100  177.1890  145.6900 C   0  0  0  0  0  2  0  0  0  0  0  0
  188.8780  177.6490  144.5100 C   0  0  0  0  0  0  0  0  0  0  0  0
  189.1320  178.4090  140.9440 C   0  0  0  0  0  2  0  0  0  0  0  0
  189.0290  177.2000  140.0140 C   0  0  2  0  0  3  0  0  0  0  0  0
  191.2270  177.1370  139.7490 C   0  0  0  0  0  1  0  0  0  0  0  0
  190.1480  176.3890  140.2240 O   0  0  0  0  0  0  0  0  0  0  0  0
  188.8870  179.0370  138.4760 O   0  0  0  0  0  1  0  0  0  0  0  0
  188.9640  177.6440  138.5500 C   0  0  2  0  0  3  0  0  0  0  0  0
  187.7560  177.0430  137.8410 C   0  0  0  0  0  2  0  0  0  0  0  0
  186.5520  177.9610  137.9610 C   0  0  0  0  0  2  0  0  0  0  0  0
  185.5730  177.5920  137.0380 O   0  0  0  0  0  0  0  0  0  0  0  0
  185.8090  176.2390  136.8000 C   0  0  0  0  0  2  0  0  0  0  0  0
  184.5110  175.5160  136.6230 C   0  0  0  0  0  0  0  0  0  0  0  0
  183.9550  175.5260  135.5380 O   0  0  0  0  0  0  0  0  0  0  0  0
  183.9020  174.7530  137.7590 C   0  0  2  0  0  3  0  0  0  0  0  0
  183.1740  173.6690  137.2720 O   0  0  0  0  0  1  0  0  0  0  0  0
  182.9970  175.6530  138.5780 C   0  0  0  0  0  1  0  0  0  0  0  0
  186.2930  178.0420  141.9710 C   0  0  0  0  0  2  0  0  0  0  0  0
  185.3230  179.0220  142.5990 C   0  0  0  0  0  2  0  0  0  0  0  0
  183.9980  178.3380  142.8610 C   0  0  0  0  0  2  0  0  0  0  0  0
  183.4340  178.8440  144.1760 C   0  0  0  0  0  2  0  0  0  0  0  0
  184.5470  179.3360  145.0840 C   0  0  0  0  0  2  0  0  0  0  0  0
  185.8990  178.8340  147.0940 C   0  0  0  0  0  1  0  0  0  0  0  0
  184.6880  178.4210  146.2880 C   0  0  0  0  0  2  0  0  0  0  0  0
  1  5  1  0  0  0  0
  1  7  1  0  0  0  0
  3 10  1  0  0  0  0
  4  6  1  0  0  0  0
  4  5  1  0  0  0  0
  5 10  2  0  0  0  0
  6  3  2  0  0  0  0
  7  8  1  0  0  0  0
  8  2  2  0  0  0  0
  9  2  1  0  0  0  0
 10  9  1  0  0  0  0
 11  4  1  0  0  0  0
 12 14  1  0  0  0  0
 12 11  1  1  0  0  0
 13 14  1  0  0  0  0
 16 15  1  1  0  0  0
 16 12  1  0  0  0  0
 17 18  1  0  0  0  0
 17 16  1  0  0  0  0
 19 18  1  0  0  0  0
 20 19  1  0  0  0  0
 21 20  1  0  0  0  0
 21 23  1  0  0  0  0
 22 21  2  0  0  0  0
 23 25  1  6  0  0  0
 24 23  1  0  0  0  0
 26 27  1  0  0  0  0
 26  6  1  0  0  0  0
 27 28  1  0  0  0  0
 28 29  1  0  0  0  0
 29 30  1  0  0  0  0
 30 32  1  0  0  0  0
 32 31  1  0  0  0  0
M  END
>  <MODEL>
7

>  <REMARK>
 VINA RESULT:      -6.8      2.044      3.346
  Name = 
  16 active torsions:
  status: ('A' for Active; 'I' for Inactive)
    1  A    between atoms: C_1  and  C_22
    2  A    between atoms: C_1  and  C_24
    3  A    between atoms: C_2  and  C_7
    4  A    between atoms: C_2  and  C_25
    5  A    between atoms: C_6  and  C_9
    6  A    between atoms: C_6  and  C_32
    7  A    between atoms: C_9  and  O_12
    8  A    between atoms: N_10  and  C_20
    9  A    between atoms: O_12  and  C_25
   10  A    between atoms: C_14  and  C_17
   11  A    between atoms: C_14  and  C_19
   12  A    between atoms: C_16  and  O_18
   13  A    between atoms: C_16  and  C_20
   14  A    between atoms: C_16  and  C_32
   15  A    between atoms: C_17  and  C_21
   16  A    between atoms: C_21  and  C_24
                            x       y       z     vdW  Elec       q    Type
                         _______ _______ _______ _____ _____    ______ ____

>  <TORSDO>
F 16

$$$$
=
 OpenBabel11032420213D

 32 33  0  0  1  0  0  0  0  0999 V2000
  181.6930  177.8780  140.9430 C   0  0  0  0  0  2  0  0  0  0  0  0
  179.3270  179.5210  141.9540 C   0  0  0  0  0  3  0  0  0  0  0  0
  182.4520  179.3740  144.0550 C   0  0  0  0  0  3  0  0  0  0  0  0
  183.5400  178.4920  142.2830 N   0  0  0  0  0  0  0  0  0  0  0  0
  182.2200  178.4960  142.0050 C   0  0  0  0  0  0  0  0  0  0  0  0
  183.6740  178.9770  143.5350 C   0  0  0  0  0  0  0  0  0  0  0  0
  180.2410  177.5470  140.8250 C   0  0  0  0  0  2  0  0  0  0  0  0
  179.3690  178.7060  140.9450 N   0  0  0  0  0  0  0  0  0  0  0  0
  180.2730  179.5270  143.0870 C   0  0  0  0  0  2  0  0  0  0  0  0
  181.5330  179.0810  143.0600 C   0  0  0  0  0  0  0  0  0  0  0  0
  184.6160  177.9220  141.4740 C   0  0  0  0  0  2  0  0  0  0  0  0
  185.4780  179.0140  140.8420 C   0  0  2  0  0  3  0  0  0  0  0  0
  184.1990  179.7650  139.1970 C   0  0  0  0  0  1  0  0  0  0  0  0
  185.3090  178.9580  139.4550 O   0  0  0  0  0  0  0  0  0  0  0  0
  187.7090  178.6250  140.0440 O   0  0  0  0  0  1  0  0  0  0  0  0
  186.9540  178.8190  141.2030 C   0  0  2  0  0  3  0  0  0  0  0  0
  187.1450  177.6210  142.1260 C   0  0  0  0  0  2  0  0  0  0  0  0
  188.4850  177.7020  142.8380 C   0  0  0  0  0  2  0  0  0  0  0  0
  189.0740  176.4380  142.8970 O   0  0  0  0  0  0  0  0  0  0  0  0
  190.4380  176.6790  142.7290 C   0  0  0  0  0  2  0  0  0  0  0  0
  191.1840  176.2730  143.9590 C   0  0  0  0  0  0  0  0  0  0  0  0
  191.8120  175.2270  143.9700 O   0  0  0  0  0  0  0  0  0  0  0  0
  191.1960  177.1540  145.1700 C   0  0  2  0  0  3  0  0  0  0  0  0
  191.9990  178.2710  144.9430 O   0  0  0  0  0  1  0  0  0  0  0  0
  191.7090  176.3900  146.3770 C   0  0  0  0  0  1  0  0  0  0  0  0
  184.9820  179.1350  144.2400 C   0  0  0  0  0  2  0  0  0  0  0  0
  185.2000  177.9660  145.1770 C   0  0  0  0  0  2  0  0  0  0  0  0
  184.9400  178.3950  146.6050 C   0  0  0  0  0  2  0  0  0  0  0  0
  186.2650  178.7180  147.2720 C   0  0  0  0  0  2  0  0  0  0  0  0
  187.4130  178.0510  146.5370 C   0  0  0  0  0  2  0  0  0  0  0  0
  188.3010  177.8840  148.8400 C   0  0  0  0  0  1  0  0  0  0  0  0
  188.2280  177.1990  147.4940 C   0  0  0  0  0  2  0  0  0  0  0  0
  1  5  1  0  0  0  0
  2  9  1  0  0  0  0
  4  6  1  0  0  0  0
  5  4  1  0  0  0  0
  5 10  2  0  0  0  0
  6  3  2  0  0  0  0
  6 26  1  0  0  0  0
  7  1  1  0  0  0  0
  7  8  1  0  0  0  0
  8  2  2  0  0  0  0
 10  9  1  0  0  0  0
 10  3  1  0  0  0  0
 11  4  1  0  0  0  0
 12 16  1  0  0  0  0
 12 11  1  1  0  0  0
 13 14  1  0  0  0  0
 14 12  1  0  0  0  0
 16 15  1  6  0  0  0
 16 17  1  0  0  0  0
 17 18  1  0  0  0  0
 18 19  1  0  0  0  0
 20 19  1  0  0  0  0
 20 21  1  0  0  0  0
 21 22  2  0  0  0  0
 21 23  1  0  0  0  0
 23 25  1  1  0  0  0
 24 23  1  0  0  0  0
 26 27  1  0  0  0  0
 27 28  1  0  0  0  0
 28 29  1  0  0  0  0
 30 29  1  0  0  0  0
 30 32  1  0  0  0  0
 32 31  1  0  0  0  0
M  END
>  <MODEL>
8

>  <REMARK>
 VINA RESULT:      -6.7      2.500      7.692
  Name = 
  16 active torsions:
  status: ('A' for Active; 'I' for Inactive)
    1  A    between atoms: C_1  and  C_22
    2  A    between atoms: C_1  and  C_24
    3  A    between atoms: C_2  and  C_7
    4  A    between atoms: C_2  and  C_25
    5  A    between atoms: C_6  and  C_9
    6  A    between atoms: C_6  and  C_32
    7  A    between atoms: C_9  and  O_12
    8  A    between atoms: N_10  and  C_20
    9  A    between atoms: O_12  and  C_25
   10  A    between atoms: C_14  and  C_17
   11  A    between atoms: C_14  and  C_19
   12  A    between atoms: C_16  and  O_18
   13  A    between atoms: C_16  and  C_20
   14  A    between atoms: C_16  and  C_32
   15  A    between atoms: C_17  and  C_21
   16  A    between atoms: C_21  and  C_24
                            x       y       z     vdW  Elec       q    Type
                         _______ _______ _______ _____ _____    ______ ____

>  <TORSDO>
F 16

$$$$
=
 OpenBabel11032420213D

 32 33  0  0  1  0  0  0  0  0999 V2000
  189.0380  177.1280  145.6290 C   0  0  0  0  0  2  0  0  0  0  0  0
  187.9300  177.5560  148.4420 C   0  0  0  0  0  3  0  0  0  0  0  0
  185.8570  178.6620  145.4950 C   0  0  0  0  0  3  0  0  0  0  0  0
  187.2300  177.4770  144.1500 N   0  0  0  0  0  0  0  0  0  0  0  0
  187.7910  177.5350  145.3750 C   0  0  0  0  0  0  0  0  0  0  0  0
  186.0890  178.1960  144.2120 C   0  0  0  0  0  0  0  0  0  0  0  0
  189.7970  177.5260  146.8540 C   0  0  0  0  0  2  0  0  0  0  0  0
  189.1220  177.1770  148.0950 N   0  0  0  0  0  0  0  0  0  0  0  0
  186.9720  178.2650  147.5710 C   0  0  0  0  0  2  0  0  0  0  0  0
  186.9400  178.2160  146.2350 C   0  0  0  0  0  0  0  0  0  0  0  0
  187.8070  176.9040  142.9350 C   0  0  0  0  0  2  0  0  0  0  0  0
  189.0580  177.6640  142.4980 C   0  0  2  0  0  3  0  0  0  0  0  0
  187.9270  178.2060  140.6720 C   0  0  0  0  0  1  0  0  0  0  0  0
  188.6590  178.7590  141.7260 O   0  0  0  0  0  0  0  0  0  0  0  0
  190.3280  175.6280  142.4390 O   0  0  0  0  0  1  0  0  0  0  0  0
  189.9910  176.7570  141.6890 C   0  0  2  0  0  3  0  0  0  0  0  0
  191.2670  177.4880  141.2910 C   0  0  0  0  0  2  0  0  0  0  0  0
  191.6250  177.1920  139.8440 C   0  0  0  0  0  2  0  0  0  0  0  0
  190.7650  176.2240  139.3250 O   0  0  0  0  0  0  0  0  0  0  0  0
  190.7310  176.4830  137.9550 C   0  0  0  0  0  2  0  0  0  0  0  0
  189.4430  177.1490  137.5900 C   0  0  0  0  0  0  0  0  0  0  0  0
  189.4350  178.3310  137.2930 O   0  0  0  0  0  0  0  0  0  0  0  0
  188.1640  176.3700  137.5560 C   0  0  2  0  0  3  0  0  0  0  0  0
  188.3830  175.1150  136.9890 O   0  0  0  0  0  1  0  0  0  0  0  0
  187.1100  177.1160  136.7600 C   0  0  0  0  0  1  0  0  0  0  0  0
  185.1600  178.3980  143.0590 C   0  0  0  0  0  2  0  0  0  0  0  0
  183.7710  178.7140  143.5720 C   0  0  0  0  0  2  0  0  0  0  0  0
  182.7710  178.6280  142.4390 C   0  0  0  0  0  2  0  0  0  0  0  0
  183.4690  178.0800  141.2070 C   0  0  0  0  0  2  0  0  0  0  0  0
  182.4610  177.4860  140.2400 C   0  0  0  0  0  2  0  0  0  0  0  0
  183.5670  178.4330  138.2390 C   0  0  0  0  0  1  0  0  0  0  0  0
  183.1310  177.1540  138.9180 C   0  0  0  0  0  2  0  0  0  0  0  0
  1  7  1  0  0  0  0
  3 10  1  0  0  0  0
  4  6  1  0  0  0  0
  4  5  1  0  0  0  0
  5  1  1  0  0  0  0
  5 10  2  0  0  0  0
  6  3  2  0  0  0  0
  7  8  1  0  0  0  0
  8  2  2  0  0  0  0
  9  2  1  0  0  0  0
 10  9  1  0  0  0  0
 11  4  1  0  0  0  0
 12 11  1  6  0  0  0
 13 14  1  0  0  0  0
 14 12  1  0  0  0  0
 16 15  1  1  0  0  0
 16 12  1  0  0  0  0
 17 16  1  0  0  0  0
 18 17  1  0  0  0  0
 19 18  1  0  0  0  0
 20 19  1  0  0  0  0
 21 20  1  0  0  0  0
 22 21  2  0  0  0  0
 23 25  1  6  0  0  0
 23 21  1  0  0  0  0
 24 23  1  0  0  0  0
 26 27  1  0  0  0  0
 26  6  1  0  0  0  0
 28 27  1  0  0  0  0
 29 28  1  0  0  0  0
 30 29  1  0  0  0  0
 31 32  1  0  0  0  0
 32 30  1  0  0  0  0
M  END
>  <MODEL>
9

>  <REMARK>
 VINA RESULT:      -6.7      2.162      3.569
  Name = 
  16 active torsions:
  status: ('A' for Active; 'I' for Inactive)
    1  A    between atoms: C_1  and  C_22
    2  A    between atoms: C_1  and  C_24
    3  A    between atoms: C_2  and  C_7
    4  A    between atoms: C_2  and  C_25
    5  A    between atoms: C_6  and  C_9
    6  A    between atoms: C_6  and  C_32
    7  A    between atoms: C_9  and  O_12
    8  A    between atoms: N_10  and  C_20
    9  A    between atoms: O_12  and  C_25
   10  A    between atoms: C_14  and  C_17
   11  A    between atoms: C_14  and  C_19
   12  A    between atoms: C_16  and  O_18
   13  A    between atoms: C_16  and  C_20
   14  A    between atoms: C_16  and  C_32
   15  A    between atoms: C_17  and  C_21
   16  A    between atoms: C_21  and  C_24
                            x       y       z     vdW  Elec       q    Type
                         _______ _______ _______ _____ _____    ______ ____

>  <TORSDO>
F 16

$$$$
