=
 OpenBabel11032420373D

 27 29  0  0  1  0  0  0  0  0999 V2000
  187.2430  177.0050  143.7960 C   0  0  1  0  0  3  0  0  0  0  0  0
  190.5990  176.7660  144.5100 O   0  0  0  0  0  0  0  0  0  0  0  0
  186.3740  177.3260  144.8990 C   0  0  2  0  0  3  0  0  0  0  0  0
  186.1060  178.0000  143.5510 C   0  0  0  0  0  0  0  0  0  0  0  0
  186.9260  178.3590  145.8880 C   0  0  2  0  0  3  0  0  0  0  0  0
  189.1170  177.3040  146.2860 C   0  0  0  0  0  0  0  0  0  0  0  0
  188.5780  177.7510  143.7700 C   0  0  0  0  0  2  0  0  0  0  0  0
  189.4860  177.2480  144.8470 C   0  0  0  0  0  0  0  0  0  0  0  0
  187.9820  177.7800  146.7160 N   0  0  0  0  0  0  0  0  0  0  0  0
  185.4170  178.8280  142.7760 C   0  0  0  0  0  3  0  0  0  0  0  0
  190.0720  176.7660  147.2950 C   0  0  0  0  0  1  0  0  0  0  0  0
  184.5230  178.3350  146.6480 N   0  0  0  0  0  1  0  0  0  0  0  0
  185.8300  178.8870  146.7540 C   0  0  0  0  0  0  0  0  0  0  0  0
  186.0570  179.8040  147.5860 O   0  0  0  0  0  0  0  0  0  0  0  0
  184.9310  179.5690  140.5730 O   0  0  0  0  0  0  0  0  0  0  0  0
  185.7590  179.0440  141.3670 C   0  0  0  0  0  0  0  0  0  0  0  0
  187.0840  178.6410  140.8920 C   0  0  0  0  0  3  0  0  0  0  0  0
  187.3660  178.6370  139.6290 N   0  0  0  0  0  0  0  0  0  0  0  0
  188.6820  178.2370  139.1590 C   0  0  0  0  0  3  0  0  0  0  0  0
  191.6870  174.3970  138.0370 O   0  0  0  0  0  1  0  0  0  0  0  0
  191.1830  175.3190  137.3420 C   0  0  0  0  0  0  0  0  0  0  0  0
  190.5070  176.5470  139.4270 C   0  0  0  0  0  2  0  0  0  0  0  0
  190.5110  176.4170  137.9710 N   0  0  0  0  0  0  0  0  0  0  0  0
  189.1250  176.9810  139.9050 C   0  0  0  0  0  2  0  0  0  0  0  0
  190.0240  177.5340  137.1660 C   0  0  0  0  0  2  0  0  0  0  0  0
  191.2780  175.2570  135.9560 O   0  0  0  0  0  0  0  0  0  0  0  0
  188.6440  177.9630  137.6550 C   0  0  0  0  0  2  0  0  0  0  0  0
  1  7  1  1  0  0  0
  1  3  1  0  0  0  0
  2  8  2  0  0  0  0
  3  4  1  6  0  0  0
  3  5  1  0  0  0  0
  4  1  1  0  0  0  0
  5  9  1  0  0  0  0
  5 13  1  1  0  0  0
  6  9  2  0  0  0  0
  6 11  1  0  0  0  0
  7  8  1  0  0  0  0
  8  6  1  0  0  0  0
 10  4  2  0  0  0  0
 12 13  1  0  0  0  0
 13 14  2  0  0  0  0
 15 16  2  0  0  0  0
 16 10  1  0  0  0  0
 17 16  1  0  0  0  0
 18 17  2  0  0  0  0
 19 18  1  0  0  0  0
 19 24  1  0  0  0  0
 21 23  1  0  0  0  0
 21 20  1  0  0  0  0
 22 24  1  0  0  0  0
 23 22  1  0  0  0  0
 25 27  1  0  0  0  0
 25 23  1  0  0  0  0
 26 21  2  0  0  0  0
 27 19  1  0  0  0  0
M  END
>  <MODEL>
1

>  <REMARK>
 VINA RESULT:      -9.4      0.000      0.000
  Name = 
  4 active torsions:
  status: ('A' for Active; 'I' for Inactive)
    1  A    between atoms: C_4  and  C_11
    2  A    between atoms: C_5  and  N_27
    3  A    between atoms: C_14  and  C_20
    4  A    between atoms: C_14  and  C_24
                            x       y       z     vdW  Elec       q    Type
                         _______ _______ _______ _____ _____    ______ ____

>  <TORSDO>
F 4

$$$$
=
 OpenBabel11032420373D

 27 29  0  0  1  0  0  0  0  0999 V2000
  187.1450  177.1650  143.0400 C   0  0  1  0  0  3  0  0  0  0  0  0
  187.6230  178.5610  139.9330 O   0  0  0  0  0  0  0  0  0  0  0  0
  188.2980  176.5590  143.6560 C   0  0  2  0  0  3  0  0  0  0  0  0
  187.3650  177.3930  144.5370 C   0  0  0  0  0  0  0  0  0  0  0  0
  189.6180  177.3110  143.4530 C   0  0  2  0  0  3  0  0  0  0  0  0
  189.4910  177.5570  141.0040 C   0  0  0  0  0  0  0  0  0  0  0  0
  187.4080  178.4710  142.2890 C   0  0  0  0  0  2  0  0  0  0  0  0
  188.1540  178.2090  141.0190 C   0  0  0  0  0  0  0  0  0  0  0  0
  190.1040  177.1570  142.0820 N   0  0  0  0  0  0  0  0  0  0  0  0
  187.0260  177.9190  145.7080 C   0  0  0  0  0  3  0  0  0  0  0  0
  190.1590  177.3170  139.6940 C   0  0  0  0  0  1  0  0  0  0  0  0
  191.6230  175.8800  143.9860 N   0  0  0  0  0  1  0  0  0  0  0  0
  190.6480  176.8220  144.4170 C   0  0  0  0  0  0  0  0  0  0  0  0
  190.6700  177.2480  145.6020 O   0  0  0  0  0  0  0  0  0  0  0  0
  185.6050  179.3550  146.9570 O   0  0  0  0  0  0  0  0  0  0  0  0
  185.8320  178.7550  145.8700 C   0  0  0  0  0  0  0  0  0  0  0  0
  184.9020  178.8860  144.7470 C   0  0  0  0  0  3  0  0  0  0  0  0
  183.6590  179.1880  144.9420 N   0  0  0  0  0  0  0  0  0  0  0  0
  182.7380  179.3170  143.8250 C   0  0  0  0  0  3  0  0  0  0  0  0
  180.7320  177.0690  139.8310 O   0  0  0  0  0  0  0  0  0  0  0  0
  180.2410  177.4810  140.9160 C   0  0  0  0  0  0  0  0  0  0  0  0
  182.3630  178.7270  141.4240 C   0  0  0  0  0  2  0  0  0  0  0  0
  181.0260  178.2790  141.8100 N   0  0  0  0  0  0  0  0  0  0  0  0
  183.3160  178.6000  142.6080 C   0  0  0  0  0  2  0  0  0  0  0  0
  180.4180  178.8430  143.0120 C   0  0  0  0  0  2  0  0  0  0  0  0
  178.9310  177.1490  141.2400 O   0  0  0  0  0  1  0  0  0  0  0  0
  181.3800  178.7140  144.1890 C   0  0  0  0  0  2  0  0  0  0  0  0
  1  7  1  6  0  0  0
  1  3  1  0  0  0  0
  1  4  1  0  0  0  0
  2  8  2  0  0  0  0
  3  4  1  1  0  0  0
  4 10  2  0  0  0  0
  5  3  1  0  0  0  0
  5 13  1  1  0  0  0
  6  8  1  0  0  0  0
  6  9  2  0  0  0  0
  8  7  1  0  0  0  0
  9  5  1  0  0  0  0
 10 16  1  0  0  0  0
 11  6  1  0  0  0  0
 12 13  1  0  0  0  0
 13 14  2  0  0  0  0
 16 15  2  0  0  0  0
 17 18  2  0  0  0  0
 17 16  1  0  0  0  0
 19 27  1  0  0  0  0
 19 18  1  0  0  0  0
 20 21  2  0  0  0  0
 21 26  1  0  0  0  0
 21 23  1  0  0  0  0
 22 23  1  0  0  0  0
 22 24  1  0  0  0  0
 23 25  1  0  0  0  0
 24 19  1  0  0  0  0
 25 27  1  0  0  0  0
M  END
>  <MODEL>
2

>  <REMARK>
 VINA RESULT:      -9.1      3.183      7.240
  Name = 
  4 active torsions:
  status: ('A' for Active; 'I' for Inactive)
    1  A    between atoms: C_4  and  C_11
    2  A    between atoms: C_5  and  N_27
    3  A    between atoms: C_14  and  C_20
    4  A    between atoms: C_14  and  C_24
                            x       y       z     vdW  Elec       q    Type
                         _______ _______ _______ _____ _____    ______ ____

>  <TORSDO>
F 4

$$$$
=
 OpenBabel11032420373D

 27 29  0  0  1  0  0  0  0  0999 V2000
  188.8290  178.2570  144.3620 C   0  0  1  0  0  3  0  0  0  0  0  0
  185.6690  177.8820  143.0550 O   0  0  0  0  0  0  0  0  0  0  0  0
  188.9170  178.4230  145.7900 C   0  0  2  0  0  3  0  0  0  0  0  0
  189.9470  177.5220  145.1050 C   0  0  0  0  0  0  0  0  0  0  0  0
  187.9490  177.5620  146.6100 C   0  0  2  0  0  3  0  0  0  0  0  0
  185.8800  178.1480  145.4070 C   0  0  0  0  0  0  0  0  0  0  0  0
  187.7940  177.2400  143.8790 C   0  0  0  0  0  2  0  0  0  0  0  0
  186.4070  177.7660  144.0700 C   0  0  0  0  0  0  0  0  0  0  0  0
  186.5810  178.0650  146.5020 N   0  0  0  0  0  0  0  0  0  0  0  0
  190.9980  176.7120  145.1410 C   0  0  0  0  0  3  0  0  0  0  0  0
  184.4920  178.6800  145.5070 C   0  0  0  0  0  1  0  0  0  0  0  0
  189.4960  178.2870  148.4620 N   0  0  0  0  0  1  0  0  0  0  0  0
  188.3700  177.5270  148.0420 C   0  0  0  0  0  0  0  0  0  0  0  0
  187.7260  176.8450  148.8820 O   0  0  0  0  0  0  0  0  0  0  0  0
  192.0650  174.9390  143.9760 O   0  0  0  0  0  0  0  0  0  0  0  0
  191.5430  176.0870  143.9310 C   0  0  0  0  0  0  0  0  0  0  0  0
  191.4720  176.8180  142.6650 C   0  0  0  0  0  3  0  0  0  0  0  0
  190.5980  176.5060  141.7640 N   0  0  0  0  0  0  0  0  0  0  0  0
  190.5280  177.2340  140.5080 C   0  0  0  0  0  3  0  0  0  0  0  0
  189.1710  177.0640  135.6950 O   0  0  0  0  0  0  0  0  0  0  0  0
  188.7640  177.7460  136.6740 C   0  0  0  0  0  0  0  0  0  0  0  0
  190.7560  177.0270  138.0250 C   0  0  0  0  0  2  0  0  0  0  0  0
  189.4810  177.7310  137.9140 N   0  0  0  0  0  0  0  0  0  0  0  0
  190.8220  176.2790  139.3540 C   0  0  0  0  0  2  0  0  0  0  0  0
  189.0660  178.6060  139.0080 C   0  0  0  0  0  2  0  0  0  0  0  0
  187.6090  178.5070  136.5410 O   0  0  0  0  0  1  0  0  0  0  0  0
  189.1400  177.8510  140.3310 C   0  0  0  0  0  2  0  0  0  0  0  0
  1  7  1  1  0  0  0
  1  4  1  0  0  0  0
  1  3  1  0  0  0  0
  2  8  2  0  0  0  0
  3  4  1  1  0  0  0
  3  5  1  0  0  0  0
  4 10  2  0  0  0  0
  5 13  1  1  0  0  0
  6 11  1  0  0  0  0
  6  9  2  0  0  0  0
  7  8  1  0  0  0  0
  8  6  1  0  0  0  0
  9  5  1  0  0  0  0
 13 12  1  0  0  0  0
 13 14  2  0  0  0  0
 16 15  2  0  0  0  0
 16 10  1  0  0  0  0
 17 16  1  0  0  0  0
 18 17  2  0  0  0  0
 19 18  1  0  0  0  0
 20 21  2  0  0  0  0
 21 23  1  0  0  0  0
 22 24  1  0  0  0  0
 23 22  1  0  0  0  0
 23 25  1  0  0  0  0
 24 19  1  0  0  0  0
 25 27  1  0  0  0  0
 26 21  1  0  0  0  0
 27 19  1  0  0  0  0
M  END
>  <MODEL>
3

>  <REMARK>
 VINA RESULT:      -8.7      2.128      4.204
  Name = 
  4 active torsions:
  status: ('A' for Active; 'I' for Inactive)
    1  A    between atoms: C_4  and  C_11
    2  A    between atoms: C_5  and  N_27
    3  A    between atoms: C_14  and  C_20
    4  A    between atoms: C_14  and  C_24
                            x       y       z     vdW  Elec       q    Type
                         _______ _______ _______ _____ _____    ______ ____

>  <TORSDO>
F 4

$$$$
=
 OpenBabel11032420373D

 27 29  0  0  1  0  0  0  0  0999 V2000
  189.4520  178.2460  144.8400 C   0  0  1  0  0  3  0  0  0  0  0  0
  186.5040  178.1720  146.6110 O   0  0  0  0  0  0  0  0  0  0  0  0
  190.6400  177.8530  145.5540 C   0  0  2  0  0  3  0  0  0  0  0  0
  190.4720  177.3660  144.1120 C   0  0  0  0  0  0  0  0  0  0  0  0
  190.4640  176.6730  146.5170 C   0  0  2  0  0  3  0  0  0  0  0  0
  188.4960  177.5240  147.7320 C   0  0  0  0  0  0  0  0  0  0  0  0
  188.1990  177.4210  145.1390 C   0  0  0  0  0  2  0  0  0  0  0  0
  187.6780  177.7280  146.5070 C   0  0  0  0  0  0  0  0  0  0  0  0
  189.7200  177.0770  147.7090 N   0  0  0  0  0  0  0  0  0  0  0  0
  190.8920  176.6850  143.0530 C   0  0  0  0  0  3  0  0  0  0  0  0
  187.9070  177.8720  149.0560 C   0  0  0  0  0  1  0  0  0  0  0  0
  192.4350  176.5950  148.0850 N   0  0  0  0  0  1  0  0  0  0  0  0
  191.7940  176.1190  146.9080 C   0  0  0  0  0  0  0  0  0  0  0  0
  192.3450  175.2250  146.2140 O   0  0  0  0  0  0  0  0  0  0  0  0
  190.5610  176.0050  140.8020 O   0  0  0  0  0  0  0  0  0  0  0  0
  190.1160  176.6190  141.8110 C   0  0  0  0  0  0  0  0  0  0  0  0
  188.8090  177.2770  141.7580 C   0  0  0  0  0  3  0  0  0  0  0  0
  188.5630  178.1990  140.8840 N   0  0  0  0  0  0  0  0  0  0  0  0
  187.2640  178.8500  140.8320 C   0  0  0  0  0  3  0  0  0  0  0  0
  182.3670  178.2590  139.9910 O   0  0  0  0  0  0  0  0  0  0  0  0
  183.0260  178.5720  141.0190 C   0  0  0  0  0  0  0  0  0  0  0  0
  185.0800  178.9300  139.6160 C   0  0  0  0  0  2  0  0  0  0  0  0
  184.4250  178.8670  140.9220 N   0  0  0  0  0  0  0  0  0  0  0  0
  186.4460  178.2560  139.6880 C   0  0  0  0  0  2  0  0  0  0  0  0
  185.1580  179.3320  142.0960 C   0  0  0  0  0  2  0  0  0  0  0  0
  182.3840  178.6210  142.2520 O   0  0  0  0  0  1  0  0  0  0  0  0
  186.5240  178.6560  142.1560 C   0  0  0  0  0  2  0  0  0  0  0  0
  1  7  1  1  0  0  0
  1  3  1  0  0  0  0
  3  4  1  6  0  0  0
  3  5  1  0  0  0  0
  4  1  1  0  0  0  0
  5 13  1  1  0  0  0
  5  9  1  0  0  0  0
  6 11  1  0  0  0  0
  7  8  1  0  0  0  0
  8  2  2  0  0  0  0
  8  6  1  0  0  0  0
  9  6  2  0  0  0  0
 10  4  2  0  0  0  0
 13 12  1  0  0  0  0
 14 13  2  0  0  0  0
 15 16  2  0  0  0  0
 16 10  1  0  0  0  0
 17 16  1  0  0  0  0
 18 17  2  0  0  0  0
 19 18  1  0  0  0  0
 19 27  1  0  0  0  0
 20 21  2  0  0  0  0
 21 26  1  0  0  0  0
 22 24  1  0  0  0  0
 22 23  1  0  0  0  0
 23 21  1  0  0  0  0
 23 25  1  0  0  0  0
 24 19  1  0  0  0  0
 25 27  1  0  0  0  0
M  END
>  <MODEL>
4

>  <REMARK>
 VINA RESULT:      -8.5      2.713      5.772
  Name = 
  4 active torsions:
  status: ('A' for Active; 'I' for Inactive)
    1  A    between atoms: C_4  and  C_11
    2  A    between atoms: C_5  and  N_27
    3  A    between atoms: C_14  and  C_20
    4  A    between atoms: C_14  and  C_24
                            x       y       z     vdW  Elec       q    Type
                         _______ _______ _______ _____ _____    ______ ____

>  <TORSDO>
F 4

$$$$
=
 OpenBabel11032420373D

 27 29  0  0  1  0  0  0  0  0999 V2000
  187.9190  176.8500  143.3990 C   0  0  1  0  0  3  0  0  0  0  0  0
  188.0780  177.5900  140.0440 O   0  0  0  0  0  0  0  0  0  0  0  0
  189.1770  176.7560  144.0960 C   0  0  2  0  0  3  0  0  0  0  0  0
  188.0140  177.4620  144.7990 C   0  0  0  0  0  0  0  0  0  0  0  0
  190.2300  177.7920  143.6850 C   0  0  2  0  0  3  0  0  0  0  0  0
  190.1190  177.4340  141.2500 C   0  0  0  0  0  0  0  0  0  0  0  0
  187.8200  177.9730  142.3650 C   0  0  0  0  0  2  0  0  0  0  0  0
  188.6520  177.6600  141.1630 C   0  0  0  0  0  0  0  0  0  0  0  0
  190.7850  177.4810  142.3690 N   0  0  0  0  0  0  0  0  0  0  0  0
  187.4980  178.1160  145.8320 C   0  0  0  0  0  3  0  0  0  0  0  0
  190.8710  177.1100  140.0050 C   0  0  0  0  0  1  0  0  0  0  0  0
  191.4680  176.7910  145.6390 N   0  0  0  0  0  1  0  0  0  0  0  0
  191.3240  177.8500  144.7000 C   0  0  0  0  0  0  0  0  0  0  0  0
  192.1280  178.8190  144.7200 O   0  0  0  0  0  0  0  0  0  0  0  0
  185.6860  179.3330  146.7680 O   0  0  0  0  0  0  0  0  0  0  0  0
  186.1090  178.5860  145.8420 C   0  0  0  0  0  0  0  0  0  0  0  0
  185.2160  178.1760  144.7580 C   0  0  0  0  0  3  0  0  0  0  0  0
  184.2590  178.9480  144.3540 N   0  0  0  0  0  0  0  0  0  0  0  0
  183.3740  178.5390  143.2760 C   0  0  0  0  0  3  0  0  0  0  0  0
  180.1140  180.0540  139.7960 O   0  0  0  0  0  1  0  0  0  0  0  0
  181.2490  179.5110  139.7250 C   0  0  0  0  0  0  0  0  0  0  0  0
  181.1700  178.9820  142.1800 C   0  0  0  0  0  2  0  0  0  0  0  0
  181.8810  178.9960  140.9030 N   0  0  0  0  0  0  0  0  0  0  0  0
  182.1140  179.3990  143.3040 C   0  0  0  0  0  2  0  0  0  0  0  0
  183.1450  178.2730  140.7970 C   0  0  0  0  0  2  0  0  0  0  0  0
  181.8860  179.4230  138.4920 O   0  0  0  0  0  0  0  0  0  0  0  0
  184.0790  178.6940  141.9280 C   0  0  0  0  0  2  0  0  0  0  0  0
  1  7  1  6  0  0  0
  1  3  1  0  0  0  0
  1  4  1  0  0  0  0
  2  8  2  0  0  0  0
  3  4  1  1  0  0  0
  4 10  2  0  0  0  0
  5  3  1  0  0  0  0
  5 13  1  1  0  0  0
  6  9  2  0  0  0  0
  8  6  1  0  0  0  0
  8  7  1  0  0  0  0
  9  5  1  0  0  0  0
 10 16  1  0  0  0  0
 11  6  1  0  0  0  0
 13 14  2  0  0  0  0
 13 12  1  0  0  0  0
 16 15  2  0  0  0  0
 17 16  1  0  0  0  0
 18 17  2  0  0  0  0
 19 24  1  0  0  0  0
 19 18  1  0  0  0  0
 21 20  1  0  0  0  0
 21 23  1  0  0  0  0
 22 24  1  0  0  0  0
 23 22  1  0  0  0  0
 25 23  1  0  0  0  0
 25 27  1  0  0  0  0
 26 21  2  0  0  0  0
 27 19  1  0  0  0  0
M  END
>  <MODEL>
5

>  <REMARK>
 VINA RESULT:      -8.4      2.858      6.792
  Name = 
  4 active torsions:
  status: ('A' for Active; 'I' for Inactive)
    1  A    between atoms: C_4  and  C_11
    2  A    between atoms: C_5  and  N_27
    3  A    between atoms: C_14  and  C_20
    4  A    between atoms: C_14  and  C_24
                            x       y       z     vdW  Elec       q    Type
                         _______ _______ _______ _____ _____    ______ ____

>  <TORSDO>
F 4

$$$$
=
 OpenBabel11032420373D

 27 29  0  0  1  0  0  0  0  0999 V2000
  187.2770  177.0140  143.6190 C   0  0  1  0  0  3  0  0  0  0  0  0
  189.3230  177.9020  141.0000 O   0  0  0  0  0  0  0  0  0  0  0  0
  187.9240  176.7530  144.8790 C   0  0  2  0  0  3  0  0  0  0  0  0
  186.6130  177.5420  144.8930 C   0  0  0  0  0  0  0  0  0  0  0  0
  189.0880  177.6900  145.2230 C   0  0  2  0  0  3  0  0  0  0  0  0
  190.3320  177.4690  143.1070 C   0  0  0  0  0  0  0  0  0  0  0  0
  187.8390  178.1930  142.8210 C   0  0  0  0  0  2  0  0  0  0  0  0
  189.1790  177.8540  142.2500 C   0  0  0  0  0  0  0  0  0  0  0  0
  190.2630  177.3880  144.4060 N   0  0  0  0  0  0  0  0  0  0  0  0
  185.6490  178.1940  145.5310 C   0  0  0  0  0  3  0  0  0  0  0  0
  191.6290  177.1300  142.4580 C   0  0  0  0  0  1  0  0  0  0  0  0
  190.5170  176.7530  147.0760 N   0  0  0  0  0  1  0  0  0  0  0  0
  189.4320  177.5800  146.6720 C   0  0  0  0  0  0  0  0  0  0  0  0
  188.7810  178.2240  147.5360 O   0  0  0  0  0  0  0  0  0  0  0  0
  183.5500  179.3030  145.4590 O   0  0  0  0  0  0  0  0  0  0  0  0
  184.5210  178.8080  144.8230 C   0  0  0  0  0  0  0  0  0  0  0  0
  184.5390  178.8400  143.3590 C   0  0  0  0  0  3  0  0  0  0  0  0
  183.4610  178.6290  142.6750 N   0  0  0  0  0  0  0  0  0  0  0  0
  183.4800  178.6630  141.2230 C   0  0  0  0  0  3  0  0  0  0  0  0
  186.1030  177.6140  137.0930 O   0  0  0  0  0  1  0  0  0  0  0  0
  185.0190  177.1650  137.5530 C   0  0  0  0  0  0  0  0  0  0  0  0
  184.9290  179.0440  139.2190 C   0  0  0  0  0  2  0  0  0  0  0  0
  184.3900  177.7990  138.6740 N   0  0  0  0  0  0  0  0  0  0  0  0
  184.8890  179.0020  140.7440 C   0  0  0  0  0  2  0  0  0  0  0  0
  183.0830  177.3410  139.1340 C   0  0  0  0  0  2  0  0  0  0  0  0
  184.4430  176.0430  136.9690 O   0  0  0  0  0  0  0  0  0  0  0  0
  183.0520  177.3070  140.6580 C   0  0  0  0  0  2  0  0  0  0  0  0
  1  7  1  6  0  0  0
  1  3  1  0  0  0  0
  1  4  1  0  0  0  0
  2  8  2  0  0  0  0
  3  4  1  1  0  0  0
  3  5  1  0  0  0  0
  4 10  2  0  0  0  0
  5 13  1  1  0  0  0
  6  9  2  0  0  0  0
  8  7  1  0  0  0  0
  8  6  1  0  0  0  0
  9  5  1  0  0  0  0
 11  6  1  0  0  0  0
 13 12  1  0  0  0  0
 13 14  2  0  0  0  0
 16 15  2  0  0  0  0
 16 10  1  0  0  0  0
 17 16  1  0  0  0  0
 18 17  2  0  0  0  0
 19 18  1  0  0  0  0
 20 21  1  0  0  0  0
 21 23  1  0  0  0  0
 22 24  1  0  0  0  0
 23 25  1  0  0  0  0
 23 22  1  0  0  0  0
 24 19  1  0  0  0  0
 25 27  1  0  0  0  0
 26 21  2  0  0  0  0
 27 19  1  0  0  0  0
M  END
>  <MODEL>
6

>  <REMARK>
 VINA RESULT:      -8.3      3.275      4.664
  Name = 
  4 active torsions:
  status: ('A' for Active; 'I' for Inactive)
    1  A    between atoms: C_4  and  C_11
    2  A    between atoms: C_5  and  N_27
    3  A    between atoms: C_14  and  C_20
    4  A    between atoms: C_14  and  C_24
                            x       y       z     vdW  Elec       q    Type
                         _______ _______ _______ _____ _____    ______ ____

>  <TORSDO>
F 4

$$$$
=
 OpenBabel11032420373D

 27 29  0  0  1  0  0  0  0  0999 V2000
  189.6180  178.3480  144.6400 C   0  0  1  0  0  3  0  0  0  0  0  0
  186.6420  178.3480  146.3650 O   0  0  0  0  0  0  0  0  0  0  0  0
  190.7730  177.8670  145.3530 C   0  0  2  0  0  3  0  0  0  0  0  0
  190.6040  177.4490  143.8900 C   0  0  0  0  0  0  0  0  0  0  0  0
  190.5230  176.6580  146.2630 C   0  0  2  0  0  3  0  0  0  0  0  0
  188.5810  177.5550  147.4860 C   0  0  0  0  0  0  0  0  0  0  0  0
  188.3210  177.5750  144.8870 C   0  0  0  0  0  2  0  0  0  0  0  0
  187.7940  177.8510  146.2590 C   0  0  0  0  0  0  0  0  0  0  0  0
  189.7810  177.0480  147.4610 N   0  0  0  0  0  0  0  0  0  0  0  0
  191.0060  176.7920  142.8090 C   0  0  0  0  0  3  0  0  0  0  0  0
  187.9890  177.8760  148.8140 C   0  0  0  0  0  1  0  0  0  0  0  0
  192.4330  176.3740  147.8820 N   0  0  0  0  0  1  0  0  0  0  0  0
  191.8180  176.0220  146.6490 C   0  0  0  0  0  0  0  0  0  0  0  0
  192.3610  175.1680  145.9000 O   0  0  0  0  0  0  0  0  0  0  0  0
  188.9870  176.8650  141.5620 O   0  0  0  0  0  0  0  0  0  0  0  0
  190.2480  176.8160  141.5550 C   0  0  0  0  0  0  0  0  0  0  0  0
  190.9780  176.7830  140.2860 C   0  0  0  0  0  3  0  0  0  0  0  0
  190.6070  176.0030  139.3240 N   0  0  0  0  0  0  0  0  0  0  0  0
  191.3320  175.9720  138.0650 C   0  0  0  0  0  3  0  0  0  0  0  0
  195.6870  174.9520  135.8220 O   0  0  0  0  0  1  0  0  0  0  0  0
  194.5390  174.4390  135.7320 C   0  0  0  0  0  0  0  0  0  0  0  0
  193.5560  176.3780  136.9930 C   0  0  0  0  0  2  0  0  0  0  0  0
  193.4130  175.0710  136.3540 N   0  0  0  0  0  0  0  0  0  0  0  0
  192.7780  176.4010  138.3050 C   0  0  0  0  0  2  0  0  0  0  0  0
  192.0710  174.5300  136.1560 C   0  0  0  0  0  2  0  0  0  0  0  0
  194.3770  173.2500  135.0310 O   0  0  0  0  0  0  0  0  0  0  0  0
  191.3000  174.5630  137.4720 C   0  0  0  0  0  2  0  0  0  0  0  0
  1  7  1  1  0  0  0
  1  3  1  0  0  0  0
  3  4  1  6  0  0  0
  3  5  1  0  0  0  0
  4  1  1  0  0  0  0
  5 13  1  1  0  0  0
  5  9  1  0  0  0  0
  6 11  1  0  0  0  0
  7  8  1  0  0  0  0
  8  2  2  0  0  0  0
  8  6  1  0  0  0  0
  9  6  2  0  0  0  0
 10  4  2  0  0  0  0
 13 12  1  0  0  0  0
 14 13  2  0  0  0  0
 16 15  2  0  0  0  0
 16 10  1  0  0  0  0
 17 16  1  0  0  0  0
 18 17  2  0  0  0  0
 19 24  1  0  0  0  0
 19 18  1  0  0  0  0
 21 20  1  0  0  0  0
 21 23  1  0  0  0  0
 22 24  1  0  0  0  0
 23 22  1  0  0  0  0
 25 23  1  0  0  0  0
 25 27  1  0  0  0  0
 26 21  2  0  0  0  0
 27 19  1  0  0  0  0
M  END
>  <MODEL>
7

>  <REMARK>
 VINA RESULT:      -8.3      2.901      4.495
  Name = 
  4 active torsions:
  status: ('A' for Active; 'I' for Inactive)
    1  A    between atoms: C_4  and  C_11
    2  A    between atoms: C_5  and  N_27
    3  A    between atoms: C_14  and  C_20
    4  A    between atoms: C_14  and  C_24
                            x       y       z     vdW  Elec       q    Type
                         _______ _______ _______ _____ _____    ______ ____

>  <TORSDO>
F 4

$$$$
=
 OpenBabel11032420373D

 27 29  0  0  1  0  0  0  0  0999 V2000
  187.3320  176.9170  143.8330 C   0  0  1  0  0  3  0  0  0  0  0  0
  190.7350  176.9760  143.3320 O   0  0  0  0  0  0  0  0  0  0  0  0
  186.8800  177.0680  145.1920 C   0  0  2  0  0  3  0  0  0  0  0  0
  186.1120  177.8040  144.0910 C   0  0  0  0  0  0  0  0  0  0  0  0
  187.6660  178.0820  146.0330 C   0  0  2  0  0  3  0  0  0  0  0  0
  189.9290  177.2330  145.5520 C   0  0  0  0  0  0  0  0  0  0  0  0
  188.5170  177.7970  143.4290 C   0  0  0  0  0  2  0  0  0  0  0  0
  189.7770  177.3160  144.0750 C   0  0  0  0  0  0  0  0  0  0  0  0
  188.9830  177.5590  146.3880 N   0  0  0  0  0  0  0  0  0  0  0  0
  185.1380  178.6090  143.6850 C   0  0  0  0  0  3  0  0  0  0  0  0
  191.2120  176.7270  146.1150 C   0  0  0  0  0  1  0  0  0  0  0  0
  185.6340  179.0610  147.1560 N   0  0  0  0  0  1  0  0  0  0  0  0
  186.9040  178.4330  147.2680 C   0  0  0  0  0  0  0  0  0  0  0  0
  187.3710  178.1610  148.4060 O   0  0  0  0  0  0  0  0  0  0  0  0
  185.7280  179.7690  141.6990 O   0  0  0  0  0  0  0  0  0  0  0  0
  184.9510  178.9570  142.2730 C   0  0  0  0  0  0  0  0  0  0  0  0
  183.8450  178.3440  141.5340 C   0  0  0  0  0  3  0  0  0  0  0  0
  183.7040  178.5400  140.2630 N   0  0  0  0  0  0  0  0  0  0  0  0
  182.6060  177.9310  139.5320 C   0  0  0  0  0  3  0  0  0  0  0  0
  180.4600  173.6420  138.1020 O   0  0  0  0  0  0  0  0  0  0  0  0
  180.0810  174.5780  138.8570 C   0  0  0  0  0  0  0  0  0  0  0  0
  181.9680  176.0230  138.0440 C   0  0  0  0  0  2  0  0  0  0  0  0
  180.8280  175.7980  138.9310 N   0  0  0  0  0  0  0  0  0  0  0  0
  183.1080  176.6770  138.8200 C   0  0  0  0  0  2  0  0  0  0  0  0
  180.3250  176.9170  139.7230 C   0  0  0  0  0  2  0  0  0  0  0  0
  178.9330  174.4120  139.6230 O   0  0  0  0  0  1  0  0  0  0  0  0
  181.4720  177.5650  140.4910 C   0  0  0  0  0  2  0  0  0  0  0  0
  1  7  1  1  0  0  0
  1  4  1  0  0  0  0
  1  3  1  0  0  0  0
  2  8  2  0  0  0  0
  3  4  1  6  0  0  0
  3  5  1  0  0  0  0
  5  9  1  0  0  0  0
  5 13  1  1  0  0  0
  6 11  1  0  0  0  0
  6  9  2  0  0  0  0
  7  8  1  0  0  0  0
  8  6  1  0  0  0  0
 10  4  2  0  0  0  0
 12 13  1  0  0  0  0
 13 14  2  0  0  0  0
 15 16  2  0  0  0  0
 16 10  1  0  0  0  0
 17 16  1  0  0  0  0
 18 17  2  0  0  0  0
 19 18  1  0  0  0  0
 19 27  1  0  0  0  0
 20 21  2  0  0  0  0
 21 23  1  0  0  0  0
 21 26  1  0  0  0  0
 22 24  1  0  0  0  0
 22 23  1  0  0  0  0
 23 25  1  0  0  0  0
 24 19  1  0  0  0  0
 25 27  1  0  0  0  0
M  END
>  <MODEL>
8

>  <REMARK>
 VINA RESULT:      -7.9      3.845      5.681
  Name = 
  4 active torsions:
  status: ('A' for Active; 'I' for Inactive)
    1  A    between atoms: C_4  and  C_11
    2  A    between atoms: C_5  and  N_27
    3  A    between atoms: C_14  and  C_20
    4  A    between atoms: C_14  and  C_24
                            x       y       z     vdW  Elec       q    Type
                         _______ _______ _______ _____ _____    ______ ____

>  <TORSDO>
F 4

$$$$
=
 OpenBabel11032420373D

 27 29  0  0  1  0  0  0  0  0999 V2000
  188.0970  178.3970  138.0540 C   0  0  1  0  0  3  0  0  0  0  0  0
  190.8090  177.7520  140.0700 O   0  0  0  0  0  0  0  0  0  0  0  0
  187.8070  177.4200  137.0370 C   0  0  2  0  0  3  0  0  0  0  0  0
  186.6330  178.0280  137.8090 C   0  0  0  0  0  0  0  0  0  0  0  0
  187.9960  175.9580  137.4610 C   0  0  2  0  0  3  0  0  0  0  0  0
  190.2720  176.1690  138.3810 C   0  0  0  0  0  0  0  0  0  0  0  0
  188.5380  177.8320  139.4060 C   0  0  0  0  0  2  0  0  0  0  0  0
  189.9210  177.2700  139.3180 C   0  0  0  0  0  0  0  0  0  0  0  0
  189.4150  175.6230  137.5660 N   0  0  0  0  0  0  0  0  0  0  0  0
  185.3350  178.1330  138.0680 C   0  0  0  0  0  3  0  0  0  0  0  0
  191.6780  175.6780  138.3440 C   0  0  0  0  0  1  0  0  0  0  0  0
  188.0690  174.5080  135.4030 N   0  0  0  0  0  1  0  0  0  0  0  0
  187.3250  175.0440  136.4900 C   0  0  0  0  0  0  0  0  0  0  0  0
  186.1140  174.7330  136.6340 O   0  0  0  0  0  0  0  0  0  0  0  0
  184.5080  180.2280  138.8200 O   0  0  0  0  0  0  0  0  0  0  0  0
  184.8170  179.0370  139.1000 C   0  0  0  0  0  0  0  0  0  0  0  0
  184.6630  178.5350  140.4660 C   0  0  0  0  0  3  0  0  0  0  0  0
  185.4690  178.9070  141.4070 N   0  0  0  0  0  0  0  0  0  0  0  0
  185.3120  178.4080  142.7630 C   0  0  0  0  0  3  0  0  0  0  0  0
  187.3850  178.0380  147.3030 O   0  0  0  0  0  0  0  0  0  0  0  0
  186.3540  178.6250  146.8800 C   0  0  0  0  0  0  0  0  0  0  0  0
  186.5170  177.3830  144.7020 C   0  0  0  0  0  2  0  0  0  0  0  0
  185.8830  178.3940  145.5470 N   0  0  0  0  0  0  0  0  0  0  0  0
  186.6610  177.9140  143.2790 C   0  0  0  0  0  2  0  0  0  0  0  0
  184.6290  178.9930  145.1000 C   0  0  0  0  0  2  0  0  0  0  0  0
  185.6810  179.5070  147.7170 O   0  0  0  0  0  1  0  0  0  0  0  0
  184.7830  179.5160  143.6750 C   0  0  0  0  0  2  0  0  0  0  0  0
  1  7  1  1  0  0  0
  3  5  1  0  0  0  0
  3  4  1  1  0  0  0
  3  1  1  0  0  0  0
  4  1  1  0  0  0  0
  4 10  2  0  0  0  0
  5 13  1  6  0  0  0
  5  9  1  0  0  0  0
  6  8  1  0  0  0  0
  8  7  1  0  0  0  0
  8  2  2  0  0  0  0
  9  6  2  0  0  0  0
 10 16  1  0  0  0  0
 11  6  1  0  0  0  0
 12 13  1  0  0  0  0
 13 14  2  0  0  0  0
 15 16  2  0  0  0  0
 16 17  1  0  0  0  0
 17 18  2  0  0  0  0
 18 19  1  0  0  0  0
 19 24  1  0  0  0  0
 19 27  1  0  0  0  0
 21 20  2  0  0  0  0
 21 26  1  0  0  0  0
 22 23  1  0  0  0  0
 23 21  1  0  0  0  0
 24 22  1  0  0  0  0
 25 23  1  0  0  0  0
 27 25  1  0  0  0  0
M  END
>  <MODEL>
9

>  <REMARK>
 VINA RESULT:      -7.8      2.273      8.018
  Name = 
  4 active torsions:
  status: ('A' for Active; 'I' for Inactive)
    1  A    between atoms: C_4  and  C_11
    2  A    between atoms: C_5  and  N_27
    3  A    between atoms: C_14  and  C_20
    4  A    between atoms: C_14  and  C_24
                            x       y       z     vdW  Elec       q    Type
                         _______ _______ _______ _____ _____    ______ ____

>  <TORSDO>
F 4

$$$$
