=
 OpenBabel11042410043D

 69 76  0  0  1  0  0  0  0  0999 V2000
  187.2510  174.8930  137.0610 C   0  0  0  0  0  3  0  0  0  0  0  0
  192.0060  173.4430  136.5990 C   0  0  0  0  0  0  0  0  0  0  0  0
  186.3220  175.8560  137.1090 C   0  0  0  0  0  0  0  0  0  0  0  0
  191.4930  175.4720  137.8600 N   0  0  0  0  0  0  0  0  0  0  0  0
  191.0660  174.3390  137.0770 C   0  0  0  0  0  0  0  0  0  0  0  0
  193.3420  173.5910  137.1040 C   0  0  1  0  0  3  0  0  0  0  0  0
  189.5870  174.1550  137.0290 C   0  0  0  0  0  0  0  0  0  0  0  0
  188.7020  175.1810  137.0880 C   0  0  0  0  0  0  0  0  0  0  0  0
  186.7220  177.3100  137.1530 C   0  0  0  0  0  2  0  0  0  0  0  0
  189.5860  172.8740  134.5940 C   0  0  0  0  0  2  0  0  0  0  0  0
  190.8150  172.1520  134.8500 N   0  0  0  0  0  0  0  0  0  0  0  0
  189.1240  176.6280  137.0480 C   0  0  0  0  0  2  0  0  0  0  0  0
  193.7070  174.7100  137.9320 N   0  0  0  0  0  0  0  0  0  0  0  0
  188.1060  177.5020  137.7750 C   0  0  0  0  0  2  0  0  0  0  0  0
  191.8160  172.3370  135.6690 C   0  0  0  0  0  0  0  0  0  0  0  0
  192.8230  171.4400  135.5090 N   0  0  0  0  0  2  0  0  0  0  0  0
  188.5750  172.4660  135.6420 C   0  0  0  0  0  2  0  0  0  0  0  0
  192.7050  175.6720  138.2520 C   0  0  0  0  0  0  0  0  0  0  0  0
  194.0320  171.5740  136.0890 C   0  0  0  0  0  3  0  0  0  0  0  0
  189.0940  172.8600  136.8970 O   0  0  0  0  0  0  0  0  0  0  0  0
  194.2880  172.6510  136.8480 N   0  0  0  0  0  0  0  0  0  0  0  0
  183.8940  176.4630  137.3140 N   0  0  0  0  0  2  0  0  0  0  0  0
  184.5640  174.3160  136.7090 O   0  0  0  0  0  0  0  0  0  0  0  0
  184.8990  175.4900  137.0240 C   0  0  0  0  0  0  0  0  0  0  0  0
  182.5350  176.1180  137.3930 N   0  0  0  0  0  2  0  0  0  0  0  0
  181.5080  177.0620  137.0760 C   0  0  0  0  0  0  0  0  0  0  0  0
  179.7410  179.3820  136.8900 C   0  0  0  0  0  3  0  0  0  0  0  0
  180.8050  179.2120  136.0980 C   0  0  0  0  0  3  0  0  0  0  0  0
  179.8320  176.7660  137.6830 S   0  0  0  0  0  0  0  0  0  0  0  0
  181.7850  178.1350  136.3260 C   0  0  0  0  0  3  0  0  0  0  0  0
  179.5050  178.5220  138.0970 C   0  0  1  0  0  3  0  0  0  0  0  0
  180.3650  179.0040  139.2610 C   0  0  0  0  0  2  0  0  0  0  0  0
  180.0480  178.2330  140.5350 C   0  0  0  0  0  2  0  0  0  0  0  0
  181.3140  177.9620  141.3400 C   0  0  1  0  0  3  0  0  0  0  0  0
  183.8590  177.7770  141.1900 C   0  0  1  0  0  3  0  0  0  0  0  0
  184.5020  180.0840  139.7640 O   0  0  0  0  0  0  0  0  0  0  0  0
  185.0150  179.0370  140.7160 S   0  0  0  0  0  0  0  0  0  0  0  0
  182.5890  178.5560  143.3880 C   0  0  0  0  0  2  0  0  0  0  0  0
  183.9090  178.2220  142.6740 C   0  0  2  0  0  3  0  0  0  0  0  0
  186.3840  178.5250  140.3720 O   0  0  0  0  0  0  0  0  0  0  0  0
  181.6680  180.2660  141.9730 O   0  0  0  0  0  1  0  0  0  0  0  0
  182.5420  178.0320  140.4420 C   0  0  0  0  0  2  0  0  0  0  0  0
  184.7960  179.4390  142.4250 C   0  0  0  0  0  2  0  0  0  0  0  0
  181.4500  178.9740  142.4690 C   0  0  1  0  0  3  0  0  0  0  0  0
  195.0980  174.9040  138.3590 C   0  0  0  0  0  2  0  0  0  0  0  0
  196.1040  174.5250  137.2670 C   0  0  1  0  0  3  0  0  0  0  0  0
  198.4530  174.5020  136.9400 C   0  0  0  0  0  2  0  0  0  0  0  0
  196.4200  175.6250  136.4560 O   0  0  0  0  0  0  0  0  0  0  0  0
  197.6950  175.3490  135.9390 C   0  0  0  0  0  2  0  0  0  0  0  0
  197.3840  173.9520  137.8360 C   0  0  0  0  0  2  0  0  0  0  0  0
  193.0350  176.9330  138.9880 C   0  0  0  0  0  2  0  0  0  0  0  0
  191.7640  177.6160  139.4610 C   0  0  0  0  0  2  0  0  0  0  0  0
  191.6280  177.4350  140.8970 N   0  0  0  0  0  2  0  0  0  0  0  0
  190.2060  177.5050  141.2010 C   0  0  1  0  0  3  0  0  0  0  0  0
  189.5380  176.1870  140.8380 C   0  0  0  0  0  1  0  0  0  0  0  0
  190.0060  177.8840  142.6430 C   0  0  0  0  0  0  0  0  0  0  0  0
  190.3620  178.9910  143.0140 O   0  0  0  0  0  0  0  0  0  0  0  0
  189.4560  176.9070  143.6480 C   0  0  0  0  0  2  0  0  0  0  0  0
  189.4110  177.4630  145.0730 C   0  0  1  0  0  3  0  0  0  0  0  0
  188.0350  178.0340  145.3970 C   0  0  0  0  0  2  0  0  0  0  0  0
  187.4020  177.3150  146.5800 C   0  0  0  0  0  2  0  0  0  0  0  0
  186.2420  179.2050  147.7090 O   0  0  0  0  0  0  0  0  0  0  0  0
  187.2510  178.2500  147.7270 C   0  0  0  0  0  0  0  0  0  0  0  0
  188.0340  178.1830  148.7110 O   0  0  0  0  0  1  0  0  0  0  0  0
  189.7520  176.4700  146.0010 O   0  0  0  0  0  0  0  0  0  0  0  0
  191.6180  177.1190  147.9550 O   0  0  0  0  0  1  0  0  0  0  0  0
  192.0090  177.9220  145.3460 O   0  0  0  0  0  0  0  0  0  0  0  0
  191.4060  176.6850  146.3310 P   0  0  0  0  0  0  0  0  0  0  0  0
  192.1690  175.4090  146.0390 O   0  0  0  0  0  1  0  0  0  0  0  0
  1  8  1  0  0  0  0
  1  3  2  0  0  0  0
  2  5  2  0  0  0  0
  3  9  1  0  0  0  0
  4 18  2  0  0  0  0
  5  4  1  0  0  0  0
  6  2  1  1  0  0  0
  6 13  1  0  0  0  0
  7  5  1  0  0  0  0
  7  8  2  0  0  0  0
  9 14  1  0  0  0  0
 10 11  1  0  0  0  0
 10 17  1  0  0  0  0
 11 15  2  0  0  0  0
 12  8  1  0  0  0  0
 12 14  1  0  0  0  0
 13 18  1  0  0  0  0
 13 45  1  0  0  0  0
 15  2  1  0  0  0  0
 16 15  1  0  0  0  0
 16 19  1  0  0  0  0
 17 20  1  0  0  0  0
 18 51  1  0  0  0  0
 19 21  2  0  0  0  0
 20  7  1  0  0  0  0
 21  6  1  0  0  0  0
 22 25  1  0  0  0  0
 23 24  2  0  0  0  0
 24  3  1  0  0  0  0
 24 22  1  0  0  0  0
 26 25  1  0  0  0  0
 26 29  1  0  0  0  0
 27 31  1  0  0  0  0
 28 30  1  0  0  0  0
 28 27  2  0  0  0  0
 29 31  1  0  0  0  0
 30 26  2  0  0  0  0
 31 32  1  1  0  0  0
 32 33  1  0  0  0  0
 34 33  1  6  0  0  0
 34 44  1  0  0  0  0
 35 42  1  6  0  0  0
 35 39  1  0  0  0  0
 36 37  2  0  0  0  0
 37 35  1  0  0  0  0
 37 43  1  0  0  0  0
 39 43  1  6  0  0  0
 39 38  1  0  0  0  0
 40 37  2  0  0  0  0
 42 34  1  0  0  0  0
 44 41  1  6  0  0  0
 44 38  1  0  0  0  0
 46 50  1  0  0  0  0
 46 45  1  1  0  0  0
 47 50  1  0  0  0  0
 48 46  1  0  0  0  0
 49 48  1  0  0  0  0
 49 47  1  0  0  0  0
 51 52  1  0  0  0  0
 52 53  1  0  0  0  0
 53 54  1  0  0  0  0
 54 55  1  1  0  0  0
 54 56  1  0  0  0  0
 56 57  2  0  0  0  0
 56 58  1  0  0  0  0
 59 58  1  6  0  0  0
 59 60  1  0  0  0  0
 59 65  1  0  0  0  0
 60 61  1  0  0  0  0
 61 63  1  0  0  0  0
 62 63  2  0  0  0  0
 63 64  1  0  0  0  0
 65 68  1  0  0  0  0
 67 68  2  0  0  0  0
 68 66  1  0  0  0  0
 69 68  1  0  0  0  0
M  END
>  <MODEL>
1

>  <REMARK>
 VINA RESULT:      -7.0      0.000      0.000
  Name = 
  20 active torsions:
  status: ('A' for Active; 'I' for Inactive)
    1  A    between atoms: N_2  and  C_38
    2  A    between atoms: N_2  and  C_66
    3  A    between atoms: C_3  and  C_43
    4  A    between atoms: C_4  and  N_20
    5  A    between atoms: C_6  and  C_63
    6  A    between atoms: C_14  and  C_60
    7  A    between atoms: C_19  and  C_43
    8  A    between atoms: C_19  and  C_67
    9  A    between atoms: N_20  and  N_39
   10  A    between atoms: C_22  and  C_48
   11  A    between atoms: C_22  and  C_64
   12  A    between atoms: C_31  and  C_38
   13  A    between atoms: C_31  and  C_65
   14  A    between atoms: N_33  and  C_60
   15  A    between atoms: C_42  and  C_57
   16  A    between atoms: C_42  and  C_66
   17  A    between atoms: O_45  and  P_52
   18  A    between atoms: O_45  and  C_55
   19  A    between atoms: C_55  and  C_64
   20  A    between atoms: C_55  and  C_65
                            x       y       z     vdW  Elec       q    Type
                         _______ _______ _______ _____ _____    ______ ____

>  <TORSDO>
F 20

$$$$
=
 OpenBabel11042410043D

 69 76  0  0  1  0  0  0  0  0999 V2000
  185.9680  173.9600  137.2510 C   0  0  0  0  0  3  0  0  0  0  0  0
  190.4450  172.4090  135.6780 C   0  0  0  0  0  0  0  0  0  0  0  0
  185.0520  174.9240  137.4030 C   0  0  0  0  0  0  0  0  0  0  0  0
  190.2300  174.6330  136.6660 N   0  0  0  0  0  0  0  0  0  0  0  0
  189.6460  173.3840  136.2490 C   0  0  0  0  0  0  0  0  0  0  0  0
  191.8620  172.6320  135.7380 C   0  0  1  0  0  3  0  0  0  0  0  0
  188.2250  173.2070  136.6670 C   0  0  0  0  0  0  0  0  0  0  0  0
  187.3510  174.2350  136.8040 C   0  0  0  0  0  0  0  0  0  0  0  0
  185.3840  176.3600  137.0780 C   0  0  0  0  0  2  0  0  0  0  0  0
  187.5760  171.5150  134.5950 C   0  0  0  0  0  2  0  0  0  0  0  0
  188.8570  170.8390  134.6020 N   0  0  0  0  0  0  0  0  0  0  0  0
  187.6800  175.6490  136.3950 C   0  0  0  0  0  2  0  0  0  0  0  0
  192.4020  173.8770  136.2190 N   0  0  0  0  0  0  0  0  0  0  0  0
  186.8790  176.6460  137.2260 C   0  0  0  0  0  2  0  0  0  0  0  0
  190.0420  171.1580  135.0480 C   0  0  0  0  0  0  0  0  0  0  0  0
  190.9980  170.2380  134.7580 N   0  0  0  0  0  2  0  0  0  0  0  0
  186.9290  171.3090  135.9470 C   0  0  0  0  0  2  0  0  0  0  0  0
  191.4940  174.8890  136.6470 C   0  0  0  0  0  0  0  0  0  0  0  0
  192.3160  170.4610  134.9280 C   0  0  0  0  0  3  0  0  0  0  0  0
  187.7710  171.9140  136.9090 O   0  0  0  0  0  0  0  0  0  0  0  0
  192.7340  171.6540  135.3830 N   0  0  0  0  0  0  0  0  0  0  0  0
  182.9390  173.6190  137.0240 N   0  0  0  0  0  2  0  0  0  0  0  0
  183.1550  175.0920  138.8160 O   0  0  0  0  0  0  0  0  0  0  0  0
  183.6810  174.5610  137.8010 C   0  0  0  0  0  0  0  0  0  0  0  0
  181.5830  173.3610  137.2790 N   0  0  0  0  0  2  0  0  0  0  0  0
  180.5610  174.2690  136.8570 C   0  0  0  0  0  0  0  0  0  0  0  0
  178.9320  176.6020  136.1900 C   0  0  0  0  0  3  0  0  0  0  0  0
  179.7490  176.0100  135.3130 C   0  0  0  0  0  3  0  0  0  0  0  0
  179.0810  174.4540  137.8770 S   0  0  0  0  0  0  0  0  0  0  0  0
  180.6960  174.9540  135.7150 C   0  0  0  0  0  3  0  0  0  0  0  0
  178.9650  176.2700  137.6530 C   0  0  1  0  0  3  0  0  0  0  0  0
  180.1170  177.0040  138.3330 C   0  0  0  0  0  2  0  0  0  0  0  0
  179.7170  177.4910  139.7190 C   0  0  0  0  0  2  0  0  0  0  0  0
  180.9140  177.4990  140.6620 C   0  0  1  0  0  3  0  0  0  0  0  0
  183.4560  177.7440  140.7740 C   0  0  1  0  0  3  0  0  0  0  0  0
  183.8660  180.0180  139.2170 O   0  0  0  0  0  0  0  0  0  0  0  0
  184.4360  179.1460  140.3030 S   0  0  0  0  0  0  0  0  0  0  0  0
  181.8430  178.4500  142.7620 C   0  0  0  0  0  2  0  0  0  0  0  0
  183.2700  178.2970  142.2100 C   0  0  2  0  0  3  0  0  0  0  0  0
  185.8990  178.8530  140.1390 O   0  0  0  0  0  0  0  0  0  0  0  0
  180.8150  179.8690  141.1180 O   0  0  0  0  0  1  0  0  0  0  0  0
  182.2050  177.7150  139.8840 C   0  0  0  0  0  2  0  0  0  0  0  0
  183.9680  179.6270  141.9400 C   0  0  0  0  0  2  0  0  0  0  0  0
  180.7580  178.5990  141.7040 C   0  0  1  0  0  3  0  0  0  0  0  0
  193.8470  174.1310  136.1810 C   0  0  0  0  0  2  0  0  0  0  0  0
  194.5800  173.5190  137.3810 C   0  0  1  0  0  3  0  0  0  0  0  0
  196.1930  174.1600  138.9980 C   0  0  0  0  0  2  0  0  0  0  0  0
  195.8000  172.9440  136.9990 O   0  0  0  0  0  0  0  0  0  0  0  0
  196.5990  172.9720  138.1520 C   0  0  0  0  0  2  0  0  0  0  0  0
  194.8360  174.5310  138.4760 C   0  0  0  0  0  2  0  0  0  0  0  0
  191.9680  176.2570  137.0270 C   0  0  0  0  0  2  0  0  0  0  0  0
  192.0760  176.3780  138.5360 C   0  0  0  0  0  2  0  0  0  0  0  0
  190.7440  176.3430  139.1180 N   0  0  0  0  0  2  0  0  0  0  0  0
  190.5820  177.5710  139.8820 C   0  0  1  0  0  3  0  0  0  0  0  0
  189.3400  178.3110  139.4080 C   0  0  0  0  0  1  0  0  0  0  0  0
  190.5500  177.2600  141.3540 C   0  0  0  0  0  0  0  0  0  0  0  0
  190.6280  176.0950  141.7090 O   0  0  0  0  0  0  0  0  0  0  0  0
  190.3470  178.3380  142.3850 C   0  0  0  0  0  2  0  0  0  0  0  0
  190.0090  177.7910  143.7750 C   0  0  1  0  0  3  0  0  0  0  0  0
  191.2330  177.8050  144.6830 C   0  0  0  0  0  2  0  0  0  0  0  0
  191.4700  176.4390  145.3120 C   0  0  0  0  0  2  0  0  0  0  0  0
  192.2730  176.7760  147.6420 O   0  0  0  0  0  1  0  0  0  0  0  0
  191.2220  176.4990  146.7780 C   0  0  0  0  0  0  0  0  0  0  0  0
  190.0680  176.2950  147.2370 O   0  0  0  0  0  0  0  0  0  0  0  0
  188.9690  178.5300  144.3550 O   0  0  0  0  0  0  0  0  0  0  0  0
  186.3300  178.0020  143.6600 O   0  0  0  0  0  0  0  0  0  0  0  0
  187.2560  177.3540  146.1760 O   0  0  0  0  0  1  0  0  0  0  0  0
  187.6700  177.4480  144.5380 P   0  0  0  0  0  0  0  0  0  0  0  0
  188.0650  176.0680  144.0520 O   0  0  0  0  0  1  0  0  0  0  0  0
  1  3  2  0  0  0  0
  2  6  1  0  0  0  0
  2  5  2  0  0  0  0
  3 24  1  0  0  0  0
  5  4  1  0  0  0  0
  5  7  1  0  0  0  0
  6 21  1  1  0  0  0
  6 13  1  0  0  0  0
  7  8  2  0  0  0  0
  7 20  1  0  0  0  0
  8  1  1  0  0  0  0
  9 14  1  0  0  0  0
  9  3  1  0  0  0  0
 10 11  1  0  0  0  0
 10 17  1  0  0  0  0
 11 15  2  0  0  0  0
 12  8  1  0  0  0  0
 12 14  1  0  0  0  0
 13 18  1  0  0  0  0
 15  2  1  0  0  0  0
 16 19  1  0  0  0  0
 16 15  1  0  0  0  0
 17 20  1  0  0  0  0
 18  4  2  0  0  0  0
 18 51  1  0  0  0  0
 19 21  2  0  0  0  0
 22 25  1  0  0  0  0
 22 24  1  0  0  0  0
 24 23  2  0  0  0  0
 26 25  1  0  0  0  0
 26 29  1  0  0  0  0
 27 31  1  0  0  0  0
 28 30  1  0  0  0  0
 28 27  2  0  0  0  0
 30 26  2  0  0  0  0
 31 29  1  0  0  0  0
 31 32  1  6  0  0  0
 32 33  1  0  0  0  0
 34 33  1  6  0  0  0
 34 44  1  0  0  0  0
 35 42  1  6  0  0  0
 35 39  1  0  0  0  0
 36 37  2  0  0  0  0
 37 35  1  0  0  0  0
 37 43  1  0  0  0  0
 39 43  1  6  0  0  0
 39 38  1  0  0  0  0
 40 37  2  0  0  0  0
 42 34  1  0  0  0  0
 44 41  1  6  0  0  0
 44 38  1  0  0  0  0
 45 13  1  0  0  0  0
 46 45  1  6  0  0  0
 46 50  1  0  0  0  0
 48 46  1  0  0  0  0
 48 49  1  0  0  0  0
 49 47  1  0  0  0  0
 50 47  1  0  0  0  0
 51 52  1  0  0  0  0
 52 53  1  0  0  0  0
 53 54  1  0  0  0  0
 54 55  1  6  0  0  0
 54 56  1  0  0  0  0
 56 57  2  0  0  0  0
 56 58  1  0  0  0  0
 59 58  1  6  0  0  0
 59 65  1  0  0  0  0
 59 60  1  0  0  0  0
 60 61  1  0  0  0  0
 61 63  1  0  0  0  0
 63 64  2  0  0  0  0
 63 62  1  0  0  0  0
 65 68  1  0  0  0  0
 66 68  2  0  0  0  0
 68 67  1  0  0  0  0
 69 68  1  0  0  0  0
M  END
>  <MODEL>
2

>  <REMARK>
 VINA RESULT:      -6.7      1.926      2.657
  Name = 
  20 active torsions:
  status: ('A' for Active; 'I' for Inactive)
    1  A    between atoms: N_2  and  C_38
    2  A    between atoms: N_2  and  C_66
    3  A    between atoms: C_3  and  C_43
    4  A    between atoms: C_4  and  N_20
    5  A    between atoms: C_6  and  C_63
    6  A    between atoms: C_14  and  C_60
    7  A    between atoms: C_19  and  C_43
    8  A    between atoms: C_19  and  C_67
    9  A    between atoms: N_20  and  N_39
   10  A    between atoms: C_22  and  C_48
   11  A    between atoms: C_22  and  C_64
   12  A    between atoms: C_31  and  C_38
   13  A    between atoms: C_31  and  C_65
   14  A    between atoms: N_33  and  C_60
   15  A    between atoms: C_42  and  C_57
   16  A    between atoms: C_42  and  C_66
   17  A    between atoms: O_45  and  P_52
   18  A    between atoms: O_45  and  C_55
   19  A    between atoms: C_55  and  C_64
   20  A    between atoms: C_55  and  C_65
                            x       y       z     vdW  Elec       q    Type
                         _______ _______ _______ _____ _____    ______ ____

>  <TORSDO>
F 20

$$$$
=
 OpenBabel11042410043D

 69 76  0  0  1  0  0  0  0  0999 V2000
  186.2530  174.4380  137.1000 C   0  0  0  0  0  3  0  0  0  0  0  0
  191.0230  173.2190  136.2720 C   0  0  0  0  0  0  0  0  0  0  0  0
  185.2730  175.3480  137.1590 C   0  0  0  0  0  0  0  0  0  0  0  0
  190.5060  175.3290  137.3900 N   0  0  0  0  0  0  0  0  0  0  0  0
  190.0790  174.1040  136.7640 C   0  0  0  0  0  0  0  0  0  0  0  0
  192.3900  173.4900  136.6180 C   0  0  1  0  0  3  0  0  0  0  0  0
  188.6180  173.8330  136.8890 C   0  0  0  0  0  0  0  0  0  0  0  0
  187.6780  174.8090  136.9470 C   0  0  0  0  0  0  0  0  0  0  0  0
  185.5780  176.8190  137.0270 C   0  0  0  0  0  2  0  0  0  0  0  0
  188.4580  172.3230  134.5940 C   0  0  0  0  0  2  0  0  0  0  0  0
  189.7510  171.6990  134.7830 N   0  0  0  0  0  0  0  0  0  0  0  0
  187.9970  176.2660  136.7320 C   0  0  0  0  0  2  0  0  0  0  0  0
  192.7620  174.7030  137.2970 N   0  0  0  0  0  0  0  0  0  0  0  0
  187.0020  177.1470  137.4800 C   0  0  0  0  0  2  0  0  0  0  0  0
  190.8140  172.0190  135.4720 C   0  0  0  0  0  0  0  0  0  0  0  0
  191.8570  171.1690  135.2890 N   0  0  0  0  0  2  0  0  0  0  0  0
  187.5860  171.9630  135.7760 C   0  0  0  0  0  2  0  0  0  0  0  0
  191.7360  175.6340  137.6330 C   0  0  0  0  0  0  0  0  0  0  0  0
  193.1070  171.4260  135.7230 C   0  0  0  0  0  3  0  0  0  0  0  0
  188.2000  172.5050  136.9280 O   0  0  0  0  0  0  0  0  0  0  0  0
  193.3660  172.5840  136.3500 N   0  0  0  0  0  0  0  0  0  0  0  0
  183.1650  174.5080  136.0790 N   0  0  0  0  0  2  0  0  0  0  0  0
  183.2970  174.8650  138.3780 O   0  0  0  0  0  0  0  0  0  0  0  0
  183.8740  174.8960  137.2580 C   0  0  0  0  0  0  0  0  0  0  0  0
  181.7920  174.2180  136.1090 N   0  0  0  0  0  2  0  0  0  0  0  0
  180.8120  175.2600  136.1480 C   0  0  0  0  0  0  0  0  0  0  0  0
  179.2840  177.7070  136.6170 C   0  0  0  0  0  3  0  0  0  0  0  0
  180.0930  177.5440  135.5650 C   0  0  0  0  0  3  0  0  0  0  0  0
  179.3240  175.0230  137.1440 S   0  0  0  0  0  0  0  0  0  0  0  0
  180.9920  176.3830  135.4410 C   0  0  0  0  0  3  0  0  0  0  0  0
  179.2810  176.7460  137.7700 C   0  0  1  0  0  3  0  0  0  0  0  0
  180.4480  177.0430  138.7060 C   0  0  0  0  0  2  0  0  0  0  0  0
  180.9300  178.4790  138.5460 C   0  0  0  0  0  2  0  0  0  0  0  0
  181.3660  179.0630  139.8840 C   0  0  1  0  0  3  0  0  0  0  0  0
  180.5930  179.5780  142.2650 C   0  0  1  0  0  3  0  0  0  0  0  0
  179.3840  177.1740  142.9910 O   0  0  0  0  0  0  0  0  0  0  0  0
  180.0350  178.4330  143.4990 S   0  0  0  0  0  0  0  0  0  0  0  0
  183.1140  179.0200  141.6490 C   0  0  0  0  0  2  0  0  0  0  0  0
  182.0690  179.4090  142.7070 C   0  0  2  0  0  3  0  0  0  0  0  0
  179.3090  179.0660  144.6510 O   0  0  0  0  0  0  0  0  0  0  0  0
  182.2060  176.9780  140.7680 O   0  0  0  0  0  1  0  0  0  0  0  0
  180.2210  179.0130  140.8860 C   0  0  0  0  0  2  0  0  0  0  0  0
  181.7850  178.3060  143.7220 C   0  0  0  0  0  2  0  0  0  0  0  0
  182.5580  178.2910  140.4340 C   0  0  1  0  0  3  0  0  0  0  0  0
  194.1730  175.0150  137.5560 C   0  0  0  0  0  2  0  0  0  0  0  0
  194.9760  175.2040  136.2650 C   0  0  1  0  0  3  0  0  0  0  0  0
  197.1970  175.7220  135.6090 C   0  0  0  0  0  2  0  0  0  0  0  0
  194.9850  176.5470  135.8570 O   0  0  0  0  0  0  0  0  0  0  0  0
  196.1540  176.6930  135.0950 C   0  0  0  0  0  2  0  0  0  0  0  0
  196.4050  174.7230  136.3990 C   0  0  0  0  0  2  0  0  0  0  0  0
  192.0530  176.9770  138.2120 C   0  0  0  0  0  2  0  0  0  0  0  0
  192.0390  176.9140  139.7290 C   0  0  0  0  0  2  0  0  0  0  0  0
  190.7090  176.5420  140.1820 N   0  0  0  0  0  2  0  0  0  0  0  0
  190.1280  177.7220  140.8070 C   0  0  1  0  0  3  0  0  0  0  0  0
  189.0410  178.2950  139.9100 C   0  0  0  0  0  1  0  0  0  0  0  0
  189.6290  177.3800  142.1840 C   0  0  0  0  0  0  0  0  0  0  0  0
  188.9960  176.3480  142.3400 O   0  0  0  0  0  0  0  0  0  0  0  0
  189.8230  178.3140  143.3490 C   0  0  0  0  0  2  0  0  0  0  0  0
  189.1830  177.8080  144.6450 C   0  0  1  0  0  3  0  0  0  0  0  0
  190.2360  177.5650  145.7200 C   0  0  0  0  0  2  0  0  0  0  0  0
  191.5590  177.1250  145.1080 C   0  0  0  0  0  2  0  0  0  0  0  0
  192.2360  174.7850  144.6030 O   0  0  0  0  0  0  0  0  0  0  0  0
  191.8930  175.7440  145.5480 C   0  0  0  0  0  0  0  0  0  0  0  0
  191.8630  175.4390  146.7690 O   0  0  0  0  0  1  0  0  0  0  0  0
  188.2230  178.7170  145.1080 O   0  0  0  0  0  0  0  0  0  0  0  0
  186.3910  177.6830  146.9250 O   0  0  0  0  0  1  0  0  0  0  0  0
  187.0040  176.2850  144.6280 O   0  0  0  0  0  1  0  0  0  0  0  0
  186.7830  177.8300  145.2820 P   0  0  0  0  0  0  0  0  0  0  0  0
  185.6510  178.5170  144.5460 O   0  0  0  0  0  0  0  0  0  0  0  0
  1  3  2  0  0  0  0
  2  5  2  0  0  0  0
  3 24  1  0  0  0  0
  4 18  2  0  0  0  0
  5  7  1  0  0  0  0
  5  4  1  0  0  0  0
  6  2  1  1  0  0  0
  6 13  1  0  0  0  0
  7 20  1  0  0  0  0
  7  8  2  0  0  0  0
  8  1  1  0  0  0  0
  9  3  1  0  0  0  0
  9 14  1  0  0  0  0
 10 11  1  0  0  0  0
 10 17  1  0  0  0  0
 11 15  2  0  0  0  0
 12  8  1  0  0  0  0
 12 14  1  0  0  0  0
 13 45  1  0  0  0  0
 13 18  1  0  0  0  0
 15  2  1  0  0  0  0
 16 15  1  0  0  0  0
 16 19  1  0  0  0  0
 17 20  1  0  0  0  0
 18 51  1  0  0  0  0
 19 21  2  0  0  0  0
 21  6  1  0  0  0  0
 22 25  1  0  0  0  0
 22 24  1  0  0  0  0
 24 23  2  0  0  0  0
 25 26  1  0  0  0  0
 26 29  1  0  0  0  0
 27 31  1  0  0  0  0
 28 27  2  0  0  0  0
 29 31  1  0  0  0  0
 30 28  1  0  0  0  0
 30 26  2  0  0  0  0
 31 32  1  1  0  0  0
 33 32  1  0  0  0  0
 34 33  1  6  0  0  0
 34 44  1  0  0  0  0
 34 42  1  0  0  0  0
 35 42  1  6  0  0  0
 35 39  1  0  0  0  0
 35 37  1  0  0  0  0
 36 37  2  0  0  0  0
 37 43  1  0  0  0  0
 37 40  2  0  0  0  0
 39 38  1  6  0  0  0
 39 43  1  0  0  0  0
 44 41  1  1  0  0  0
 44 38  1  0  0  0  0
 46 50  1  0  0  0  0
 46 45  1  1  0  0  0
 47 50  1  0  0  0  0
 48 46  1  0  0  0  0
 49 47  1  0  0  0  0
 49 48  1  0  0  0  0
 51 52  1  0  0  0  0
 52 53  1  0  0  0  0
 53 54  1  0  0  0  0
 54 55  1  6  0  0  0
 54 56  1  0  0  0  0
 56 57  2  0  0  0  0
 56 58  1  0  0  0  0
 59 58  1  6  0  0  0
 59 65  1  0  0  0  0
 59 60  1  0  0  0  0
 61 63  1  0  0  0  0
 61 60  1  0  0  0  0
 62 63  2  0  0  0  0
 63 64  1  0  0  0  0
 65 68  1  0  0  0  0
 67 68  1  0  0  0  0
 68 66  1  0  0  0  0
 69 68  2  0  0  0  0
M  END
>  <MODEL>
3

>  <REMARK>
 VINA RESULT:      -5.7      1.926      2.999
  Name = 
  20 active torsions:
  status: ('A' for Active; 'I' for Inactive)
    1  A    between atoms: N_2  and  C_38
    2  A    between atoms: N_2  and  C_66
    3  A    between atoms: C_3  and  C_43
    4  A    between atoms: C_4  and  N_20
    5  A    between atoms: C_6  and  C_63
    6  A    between atoms: C_14  and  C_60
    7  A    between atoms: C_19  and  C_43
    8  A    between atoms: C_19  and  C_67
    9  A    between atoms: N_20  and  N_39
   10  A    between atoms: C_22  and  C_48
   11  A    between atoms: C_22  and  C_64
   12  A    between atoms: C_31  and  C_38
   13  A    between atoms: C_31  and  C_65
   14  A    between atoms: N_33  and  C_60
   15  A    between atoms: C_42  and  C_57
   16  A    between atoms: C_42  and  C_66
   17  A    between atoms: O_45  and  P_52
   18  A    between atoms: O_45  and  C_55
   19  A    between atoms: C_55  and  C_64
   20  A    between atoms: C_55  and  C_65
                            x       y       z     vdW  Elec       q    Type
                         _______ _______ _______ _____ _____    ______ ____

>  <TORSDO>
F 20

$$$$
=
 OpenBabel11042410043D

 69 76  0  0  1  0  0  0  0  0999 V2000
  185.7750  176.4200  137.6520 C   0  0  0  0  0  3  0  0  0  0  0  0
  189.9250  174.0200  136.2590 C   0  0  0  0  0  0  0  0  0  0  0  0
  185.1250  177.5490  137.9590 C   0  0  0  0  0  0  0  0  0  0  0  0
  190.0960  175.9040  137.8050 N   0  0  0  0  0  0  0  0  0  0  0  0
  189.3050  175.0240  136.9820 C   0  0  0  0  0  0  0  0  0  0  0  0
  191.3110  173.7870  136.5520 C   0  0  1  0  0  3  0  0  0  0  0  0
  187.8340  175.1870  137.1560 C   0  0  0  0  0  0  0  0  0  0  0  0
  187.2430  176.3660  137.4730 C   0  0  0  0  0  0  0  0  0  0  0  0
  185.8710  178.8530  138.0990 C   0  0  0  0  0  2  0  0  0  0  0  0
  187.1960  174.3120  134.6260 C   0  0  0  0  0  2  0  0  0  0  0  0
  188.2330  173.3020  134.5950 N   0  0  0  0  0  0  0  0  0  0  0  0
  187.9970  177.6710  137.5260 C   0  0  0  0  0  2  0  0  0  0  0  0
  192.0460  174.6610  137.4280 N   0  0  0  0  0  0  0  0  0  0  0  0
  187.3300  178.6340  138.5030 C   0  0  0  0  0  2  0  0  0  0  0  0
  189.3480  173.1350  135.2550 C   0  0  0  0  0  0  0  0  0  0  0  0
  190.0740  172.0670  134.8340 N   0  0  0  0  0  2  0  0  0  0  0  0
  186.2640  173.9930  135.7740 C   0  0  0  0  0  2  0  0  0  0  0  0
  191.3620  175.7660  138.0130 C   0  0  0  0  0  0  0  0  0  0  0  0
  191.3450  171.8380  135.2180 C   0  0  0  0  0  3  0  0  0  0  0  0
  187.0250  174.0710  136.9630 O   0  0  0  0  0  0  0  0  0  0  0  0
  191.9560  172.7060  136.0410 N   0  0  0  0  0  0  0  0  0  0  0  0
  182.8820  178.5580  137.4460 N   0  0  0  0  0  2  0  0  0  0  0  0
  183.0820  176.6180  138.7200 O   0  0  0  0  0  0  0  0  0  0  0  0
  183.6570  177.5300  138.0680 C   0  0  0  0  0  0  0  0  0  0  0  0
  181.4980  178.6630  137.6520 N   0  0  0  0  0  2  0  0  0  0  0  0
  180.9320  178.5860  138.9640 C   0  0  0  0  0  0  0  0  0  0  0  0
  180.0930  177.8150  141.6550 C   0  0  0  0  0  3  0  0  0  0  0  0
  181.2080  178.5110  141.4120 C   0  0  0  0  0  3  0  0  0  0  0  0
  179.1540  178.3150  139.1350 S   0  0  0  0  0  0  0  0  0  0  0  0
  181.7100  178.7320  140.0440 C   0  0  0  0  0  3  0  0  0  0  0  0
  179.3090  177.1640  140.5530 C   0  0  1  0  0  3  0  0  0  0  0  0
  179.9640  175.8460  140.1510 C   0  0  0  0  0  2  0  0  0  0  0  0
  178.9310  174.8510  139.6400 C   0  0  0  0  0  2  0  0  0  0  0  0
  179.0850  174.6230  138.1410 C   0  0  1  0  0  3  0  0  0  0  0  0
  180.6460  174.9700  136.1470 C   0  0  1  0  0  3  0  0  0  0  0  0
  183.0730  174.0660  137.1760 O   0  0  0  0  0  0  0  0  0  0  0  0
  182.2830  174.3230  135.9210 S   0  0  0  0  0  0  0  0  0  0  0  0
  178.9360  172.9470  136.3130 C   0  0  0  0  0  2  0  0  0  0  0  0
  180.0080  173.7070  135.5160 C   0  0  2  0  0  3  0  0  0  0  0  0
  183.0720  174.9970  134.8360 O   0  0  0  0  0  0  0  0  0  0  0  0
  180.0910  172.4370  138.3570 O   0  0  0  0  0  1  0  0  0  0  0  0
  180.4170  175.1750  137.6520 C   0  0  0  0  0  2  0  0  0  0  0  0
  181.3210  172.9430  135.3730 C   0  0  0  0  0  2  0  0  0  0  0  0
  179.0020  173.1360  137.8220 C   0  0  1  0  0  3  0  0  0  0  0  0
  193.4860  174.4710  137.6410 C   0  0  0  0  0  2  0  0  0  0  0  0
  194.3290  175.5280  136.9190 C   0  0  1  0  0  3  0  0  0  0  0  0
  194.7680  176.2440  134.7000 C   0  0  0  0  0  2  0  0  0  0  0  0
  195.5890  175.0250  136.5640 O   0  0  0  0  0  0  0  0  0  0  0  0
  195.9970  175.7940  135.4640 C   0  0  0  0  0  2  0  0  0  0  0  0
  193.6460  176.0600  135.6780 C   0  0  0  0  0  2  0  0  0  0  0  0
  192.0850  176.7970  138.8210 C   0  0  0  0  0  2  0  0  0  0  0  0
  191.7260  176.6640  140.2910 C   0  0  0  0  0  2  0  0  0  0  0  0
  190.8410  177.7530  140.6700 N   0  0  0  0  0  2  0  0  0  0  0  0
  189.8400  177.1940  141.5670 C   0  0  1  0  0  3  0  0  0  0  0  0
  190.4470  176.0510  142.3650 C   0  0  0  0  0  1  0  0  0  0  0  0
  189.2700  178.2790  142.4400 C   0  0  0  0  0  0  0  0  0  0  0  0
  188.4710  179.0640  141.9550 O   0  0  0  0  0  0  0  0  0  0  0  0
  189.7190  178.4640  143.8650 C   0  0  0  0  0  2  0  0  0  0  0  0
  188.8000  177.7860  144.8840 C   0  0  1  0  0  3  0  0  0  0  0  0
  187.4520  177.4380  144.2620 C   0  0  0  0  0  2  0  0  0  0  0  0
  186.3050  177.7680  145.2070 C   0  0  0  0  0  2  0  0  0  0  0  0
  185.0890  178.1760  143.0760 O   0  0  0  0  0  0  0  0  0  0  0  0
  185.1720  178.3640  144.4500 C   0  0  0  0  0  0  0  0  0  0  0  0
  184.2930  179.0390  145.0460 O   0  0  0  0  0  1  0  0  0  0  0  0
  189.4040  176.6330  145.4020 O   0  0  0  0  0  0  0  0  0  0  0  0
  189.0010  178.2310  147.6400 O   0  0  0  0  0  1  0  0  0  0  0  0
  191.5600  177.7190  146.7460 O   0  0  0  0  0  0  0  0  0  0  0  0
  190.0090  177.0670  146.9300 P   0  0  0  0  0  0  0  0  0  0  0  0
  190.0920  175.8480  147.8270 O   0  0  0  0  0  1  0  0  0  0  0  0
  1  3  2  0  0  0  0
  2  6  1  0  0  0  0
  2  5  2  0  0  0  0
  3 24  1  0  0  0  0
  3  9  1  0  0  0  0
  4 18  2  0  0  0  0
  5  7  1  0  0  0  0
  5  4  1  0  0  0  0
  6 21  1  1  0  0  0
  6 13  1  0  0  0  0
  7  8  2  0  0  0  0
  8 12  1  0  0  0  0
  8  1  1  0  0  0  0
  9 14  1  0  0  0  0
 10 17  1  0  0  0  0
 11 10  1  0  0  0  0
 11 15  2  0  0  0  0
 12 14  1  0  0  0  0
 13 45  1  0  0  0  0
 13 18  1  0  0  0  0
 15  2  1  0  0  0  0
 16 19  1  0  0  0  0
 16 15  1  0  0  0  0
 17 20  1  0  0  0  0
 18 51  1  0  0  0  0
 19 21  2  0  0  0  0
 20  7  1  0  0  0  0
 22 25  1  0  0  0  0
 22 24  1  0  0  0  0
 24 23  2  0  0  0  0
 25 26  1  0  0  0  0
 26 29  1  0  0  0  0
 26 30  2  0  0  0  0
 28 27  2  0  0  0  0
 29 31  1  0  0  0  0
 30 28  1  0  0  0  0
 31 32  1  6  0  0  0
 31 27  1  0  0  0  0
 33 32  1  0  0  0  0
 34 33  1  1  0  0  0
 35 42  1  1  0  0  0
 37 35  1  0  0  0  0
 37 36  2  0  0  0  0
 38 44  1  0  0  0  0
 39 43  1  1  0  0  0
 39 35  1  0  0  0  0
 39 38  1  0  0  0  0
 40 37  2  0  0  0  0
 42 34  1  0  0  0  0
 43 37  1  0  0  0  0
 44 34  1  0  0  0  0
 44 41  1  6  0  0  0
 46 45  1  6  0  0  0
 47 49  1  0  0  0  0
 47 50  1  0  0  0  0
 48 46  1  0  0  0  0
 49 48  1  0  0  0  0
 50 46  1  0  0  0  0
 51 52  1  0  0  0  0
 52 53  1  0  0  0  0
 53 54  1  0  0  0  0
 54 55  1  1  0  0  0
 54 56  1  0  0  0  0
 56 58  1  0  0  0  0
 57 56  2  0  0  0  0
 59 58  1  6  0  0  0
 59 65  1  0  0  0  0
 60 59  1  0  0  0  0
 60 61  1  0  0  0  0
 62 63  2  0  0  0  0
 63 64  1  0  0  0  0
 63 61  1  0  0  0  0
 65 68  1  0  0  0  0
 67 68  2  0  0  0  0
 68 66  1  0  0  0  0
 68 69  1  0  0  0  0
M  END
>  <MODEL>
4

>  <REMARK>
 VINA RESULT:      -5.6      2.239      3.957
  Name = 
  20 active torsions:
  status: ('A' for Active; 'I' for Inactive)
    1  A    between atoms: N_2  and  C_38
    2  A    between atoms: N_2  and  C_66
    3  A    between atoms: C_3  and  C_43
    4  A    between atoms: C_4  and  N_20
    5  A    between atoms: C_6  and  C_63
    6  A    between atoms: C_14  and  C_60
    7  A    between atoms: C_19  and  C_43
    8  A    between atoms: C_19  and  C_67
    9  A    between atoms: N_20  and  N_39
   10  A    between atoms: C_22  and  C_48
   11  A    between atoms: C_22  and  C_64
   12  A    between atoms: C_31  and  C_38
   13  A    between atoms: C_31  and  C_65
   14  A    between atoms: N_33  and  C_60
   15  A    between atoms: C_42  and  C_57
   16  A    between atoms: C_42  and  C_66
   17  A    between atoms: O_45  and  P_52
   18  A    between atoms: O_45  and  C_55
   19  A    between atoms: C_55  and  C_64
   20  A    between atoms: C_55  and  C_65
                            x       y       z     vdW  Elec       q    Type
                         _______ _______ _______ _____ _____    ______ ____

>  <TORSDO>
F 20

$$$$
=
 OpenBabel11042410043D

 69 76  0  0  1  0  0  0  0  0999 V2000
  189.8520  177.2080  141.4320 C   0  0  0  0  0  3  0  0  0  0  0  0
  186.4830  178.2270  144.9730 C   0  0  0  0  0  0  0  0  0  0  0  0
  190.3930  177.4440  140.2310 C   0  0  0  0  0  0  0  0  0  0  0  0
  185.8210  178.3440  142.6250 N   0  0  0  0  0  0  0  0  0  0  0  0
  186.8190  178.1050  143.6360 C   0  0  0  0  0  0  0  0  0  0  0  0
  185.0870  178.3780  145.2680 C   0  0  0  0  0  0  0  0  0  0  0  0
  188.0990  177.5500  143.1090 C   0  0  0  0  0  0  0  0  0  0  0  0
  188.5850  177.8310  141.8750 C   0  0  0  0  0  0  0  0  0  0  0  0
  189.7430  178.4090  139.2700 C   0  0  0  0  0  2  0  0  0  0  0  0
  189.6540  178.5750  145.1350 C   0  0  0  0  0  2  0  0  0  0  0  0
  188.6550  178.3550  146.1610 N   0  0  0  0  0  0  0  0  0  0  0  0
  187.9630  178.8600  140.9650 C   0  0  0  0  0  2  0  0  0  0  0  0
  184.1170  178.5560  144.2190 N   0  0  0  0  0  0  0  0  0  0  0  0
  188.2350  178.5160  139.5040 C   0  0  0  0  0  2  0  0  0  0  0  0
  187.3600  178.1890  146.1370 C   0  0  0  0  0  0  0  0  0  0  0  0
  186.8000  178.0990  147.3710 N   0  0  0  0  0  0  0  0  0  0  0  0
  190.0130  177.2330  144.5350 C   0  0  0  0  0  2  0  0  0  0  0  0
  184.5740  178.5690  142.8690 C   0  0  0  0  0  0  0  0  0  0  0  0
  185.4710  178.1460  147.5860 C   0  0  0  0  0  3  0  0  0  0  0  0
  188.8410  176.7150  143.9400 O   0  0  0  0  0  0  0  0  0  0  0  0
  184.6370  178.3130  146.5470 N   0  0  0  0  0  0  0  0  0  0  0  0
  191.7250  175.7000  139.0080 N   0  0  0  0  0  2  0  0  0  0  0  0
  192.7540  177.2790  140.3780 O   0  0  0  0  0  0  0  0  0  0  0  0
  191.6850  176.8260  139.8870 C   0  0  0  0  0  0  0  0  0  0  0  0
  192.9130  174.9900  138.7750 N   0  0  0  0  0  2  0  0  0  0  0  0
  193.2880  174.5790  137.4570 C   0  0  0  0  0  0  0  0  0  0  0  0
  193.4450  174.0150  134.5940 C   0  0  0  0  0  3  0  0  0  0  0  0
  193.9280  175.1340  135.1430 C   0  0  0  0  0  3  0  0  0  0  0  0
  193.2480  172.8200  137.0460 S   0  0  0  0  0  0  0  0  0  0  0  0
  193.6790  175.4850  136.5530 C   0  0  0  0  0  3  0  0  0  0  0  0
  192.5690  173.0690  135.3630 C   0  0  1  0  0  3  0  0  0  0  0  0
  191.1350  173.5920  135.3960 C   0  0  0  0  0  2  0  0  0  0  0  0
  190.2770  172.7820  136.3590 C   0  0  0  0  0  2  0  0  0  0  0  0
  189.0400  173.5660  136.7810 C   0  0  1  0  0  3  0  0  0  0  0  0
  188.0730  175.9170  137.0450 C   0  0  1  0  0  3  0  0  0  0  0  0
  188.7470  177.0750  134.6020 O   0  0  0  0  0  0  0  0  0  0  0  0
  187.8150  177.1360  135.7820 S   0  0  0  0  0  0  0  0  0  0  0  0
  186.5810  173.7890  136.5060 C   0  0  0  0  0  2  0  0  0  0  0  0
  186.6750  175.2950  136.7970 C   0  0  2  0  0  3  0  0  0  0  0  0
  187.5840  178.5260  136.3000 O   0  0  0  0  0  0  0  0  0  0  0  0
  188.0160  173.5520  134.5940 O   0  0  0  0  0  1  0  0  0  0  0  0
  189.2850  175.0630  136.6440 C   0  0  0  0  0  2  0  0  0  0  0  0
  186.3430  176.1740  135.5940 C   0  0  0  0  0  2  0  0  0  0  0  0
  187.8440  173.1650  135.9280 C   0  0  1  0  0  3  0  0  0  0  0  0
  182.7070  178.8090  144.5360 C   0  0  0  0  0  2  0  0  0  0  0  0
  181.8230  178.8480  143.2850 C   0  0  1  0  0  3  0  0  0  0  0  0
  179.6450  179.5560  142.6640 C   0  0  0  0  0  2  0  0  0  0  0  0
  181.0270  177.6970  143.1820 O   0  0  0  0  0  0  0  0  0  0  0  0
  179.9140  178.0850  142.4210 C   0  0  0  0  0  2  0  0  0  0  0  0
  180.9270  180.0680  143.2490 C   0  0  0  0  0  2  0  0  0  0  0  0
  183.6540  178.8870  141.7320 C   0  0  0  0  0  2  0  0  0  0  0  0
  184.4300  178.9580  140.4290 C   0  0  0  0  0  2  0  0  0  0  0  0
  183.5610  179.4670  139.3800 N   0  0  0  0  0  2  0  0  0  0  0  0
  183.4570  178.4240  138.3710 C   0  0  1  0  0  3  0  0  0  0  0  0
  184.8290  177.8150  138.1180 C   0  0  0  0  0  1  0  0  0  0  0  0
  182.4340  177.4040  138.7900 C   0  0  0  0  0  0  0  0  0  0  0  0
  182.8120  176.2850  139.0970 O   0  0  0  0  0  0  0  0  0  0  0  0
  180.9590  177.7070  138.7640 C   0  0  0  0  0  2  0  0  0  0  0  0
  180.3370  177.5720  137.3710 C   0  0  1  0  0  3  0  0  0  0  0  0
  179.8150  178.9130  136.8700 C   0  0  0  0  0  2  0  0  0  0  0  0
  180.9000  179.9800  136.9100 C   0  0  0  0  0  2  0  0  0  0  0  0
  180.8660  182.4600  137.1020 O   0  0  0  0  0  0  0  0  0  0  0  0
  180.3680  181.2310  137.5150 C   0  0  0  0  0  0  0  0  0  0  0  0
  179.4740  181.1810  138.3990 O   0  0  0  0  0  1  0  0  0  0  0  0
  181.2690  177.0480  136.4650 O   0  0  0  0  0  0  0  0  0  0  0  0
  181.8020  174.6690  135.1300 O   0  0  0  0  0  1  0  0  0  0  0  0
  179.3730  175.9330  134.7930 O   0  0  0  0  0  0  0  0  0  0  0  0
  180.6040  175.5880  135.9020 P   0  0  0  0  0  0  0  0  0  0  0  0
  180.0190  174.7980  137.0550 O   0  0  0  0  0  1  0  0  0  0  0  0
  1  8  1  0  0  0  0
  2  6  1  0  0  0  0
  2 15  1  0  0  0  0
  3  1  2  0  0  0  0
  4 18  2  0  0  0  0
  4  5  1  0  0  0  0
  5  2  2  0  0  0  0
  6 21  2  0  0  0  0
  7  5  1  0  0  0  0
  7 20  1  0  0  0  0
  8  7  2  0  0  0  0
  9 14  1  0  0  0  0
  9  3  1  0  0  0  0
 10 11  1  0  0  0  0
 12  8  1  0  0  0  0
 13 45  1  0  0  0  0
 13  6  1  0  0  0  0
 14 12  1  0  0  0  0
 15 11  2  0  0  0  0
 15 16  1  0  0  0  0
 16 19  2  0  0  0  0
 17 10  1  0  0  0  0
 18 13  1  0  0  0  0
 20 17  1  0  0  0  0
 21 19  1  0  0  0  0
 22 24  1  0  0  0  0
 24  3  1  0  0  0  0
 24 23  2  0  0  0  0
 25 22  1  0  0  0  0
 26 25  1  0  0  0  0
 27 28  2  0  0  0  0
 27 31  1  0  0  0  0
 28 30  1  0  0  0  0
 29 26  1  0  0  0  0
 30 26  2  0  0  0  0
 31 32  1  1  0  0  0
 31 29  1  0  0  0  0
 32 33  1  0  0  0  0
 34 33  1  6  0  0  0
 35 42  1  6  0  0  0
 36 37  2  0  0  0  0
 37 40  2  0  0  0  0
 37 35  1  0  0  0  0
 38 39  1  0  0  0  0
 39 43  1  6  0  0  0
 39 35  1  0  0  0  0
 42 34  1  0  0  0  0
 43 37  1  0  0  0  0
 44 41  1  6  0  0  0
 44 38  1  0  0  0  0
 44 34  1  0  0  0  0
 46 45  1  1  0  0  0
 47 50  1  0  0  0  0
 48 46  1  0  0  0  0
 49 47  1  0  0  0  0
 49 48  1  0  0  0  0
 50 46  1  0  0  0  0
 51 18  1  0  0  0  0
 52 51  1  0  0  0  0
 53 52  1  0  0  0  0
 54 55  1  1  0  0  0
 54 56  1  0  0  0  0
 54 53  1  0  0  0  0
 56 57  2  0  0  0  0
 58 56  1  0  0  0  0
 59 60  1  6  0  0  0
 59 58  1  0  0  0  0
 60 61  1  0  0  0  0
 61 63  1  0  0  0  0
 62 63  2  0  0  0  0
 63 64  1  0  0  0  0
 65 59  1  0  0  0  0
 66 68  1  0  0  0  0
 67 68  2  0  0  0  0
 68 65  1  0  0  0  0
 68 69  1  0  0  0  0
M  END
>  <MODEL>
5

>  <REMARK>
 VINA RESULT:      -5.3      3.812     11.551
  Name = 
  20 active torsions:
  status: ('A' for Active; 'I' for Inactive)
    1  A    between atoms: N_2  and  C_38
    2  A    between atoms: N_2  and  C_66
    3  A    between atoms: C_3  and  C_43
    4  A    between atoms: C_4  and  N_20
    5  A    between atoms: C_6  and  C_63
    6  A    between atoms: C_14  and  C_60
    7  A    between atoms: C_19  and  C_43
    8  A    between atoms: C_19  and  C_67
    9  A    between atoms: N_20  and  N_39
   10  A    between atoms: C_22  and  C_48
   11  A    between atoms: C_22  and  C_64
   12  A    between atoms: C_31  and  C_38
   13  A    between atoms: C_31  and  C_65
   14  A    between atoms: N_33  and  C_60
   15  A    between atoms: C_42  and  C_57
   16  A    between atoms: C_42  and  C_66
   17  A    between atoms: O_45  and  P_52
   18  A    between atoms: O_45  and  C_55
   19  A    between atoms: C_55  and  C_64
   20  A    between atoms: C_55  and  C_65
                            x       y       z     vdW  Elec       q    Type
                         _______ _______ _______ _____ _____    ______ ____

>  <TORSDO>
F 20

$$$$
=
 OpenBabel11042410043D

 69 76  0  0  1  0  0  0  0  0999 V2000
  185.9280  175.4390  137.1730 C   0  0  0  0  0  3  0  0  0  0  0  0
  190.7380  174.2220  136.6240 C   0  0  0  0  0  0  0  0  0  0  0  0
  184.9580  176.3570  137.2690 C   0  0  0  0  0  0  0  0  0  0  0  0
  190.1450  176.1680  137.9760 N   0  0  0  0  0  0  0  0  0  0  0  0
  189.7630  175.0530  137.1460 C   0  0  0  0  0  0  0  0  0  0  0  0
  192.0690  174.4050  137.1290 C   0  0  1  0  0  3  0  0  0  0  0  0
  188.2930  174.8060  137.0970 C   0  0  0  0  0  0  0  0  0  0  0  0
  187.3650  175.7890  137.2060 C   0  0  0  0  0  0  0  0  0  0  0  0
  185.2940  177.8240  137.3750 C   0  0  0  0  0  2  0  0  0  0  0  0
  188.3320  173.6360  134.6070 C   0  0  0  0  0  2  0  0  0  0  0  0
  189.5930  172.9580  134.8250 N   0  0  0  0  0  0  0  0  0  0  0  0
  187.7220  177.2540  137.2280 C   0  0  0  0  0  2  0  0  0  0  0  0
  192.3910  175.5020  138.0040 N   0  0  0  0  0  0  0  0  0  0  0  0
  186.6720  178.0480  137.9980 C   0  0  0  0  0  2  0  0  0  0  0  0
  190.5900  173.1510  135.6460 C   0  0  0  0  0  0  0  0  0  0  0  0
  191.6340  172.3070  135.4420 N   0  0  0  0  0  2  0  0  0  0  0  0
  187.3470  173.1380  135.6410 C   0  0  0  0  0  2  0  0  0  0  0  0
  191.3500  176.4040  138.3710 C   0  0  0  0  0  0  0  0  0  0  0  0
  192.8400  172.4680  136.0210 C   0  0  0  0  0  3  0  0  0  0  0  0
  187.8560  173.4980  136.9100 O   0  0  0  0  0  0  0  0  0  0  0  0
  193.0540  173.5210  136.8270 N   0  0  0  0  0  0  0  0  0  0  0  0
  182.6640  176.5990  136.2730 N   0  0  0  0  0  2  0  0  0  0  0  0
  183.1220  174.9920  137.8970 O   0  0  0  0  0  0  0  0  0  0  0  0
  183.5510  175.9320  137.1740 C   0  0  0  0  0  0  0  0  0  0  0  0
  181.2870  176.3290  136.2610 N   0  0  0  0  0  2  0  0  0  0  0  0
  180.4090  176.9000  137.2370 C   0  0  0  0  0  0  0  0  0  0  0  0
  179.1820  178.4140  139.4140 C   0  0  0  0  0  3  0  0  0  0  0  0
  179.1940  178.8410  138.1470 C   0  0  0  0  0  3  0  0  0  0  0  0
  179.8830  175.8870  138.6370 S   0  0  0  0  0  0  0  0  0  0  0  0
  179.9730  178.1580  137.0990 C   0  0  0  0  0  3  0  0  0  0  0  0
  180.0060  177.2440  139.8640 C   0  0  1  0  0  3  0  0  0  0  0  0
  181.4510  177.6770  140.0940 C   0  0  0  0  0  2  0  0  0  0  0  0
  181.5190  179.0810  140.6790 C   0  0  0  0  0  2  0  0  0  0  0  0
  182.9220  179.3980  141.1810 C   0  0  1  0  0  3  0  0  0  0  0  0
  184.2990  179.9280  143.2670 C   0  0  1  0  0  3  0  0  0  0  0  0
  183.4350  177.9460  145.0250 O   0  0  0  0  0  0  0  0  0  0  0  0
  184.5460  178.9080  144.6970 S   0  0  0  0  0  0  0  0  0  0  0  0
  185.3040  178.6930  141.1440 C   0  0  0  0  0  2  0  0  0  0  0  0
  185.5130  179.2910  142.5440 C   0  0  2  0  0  3  0  0  0  0  0  0
  185.0890  179.6350  145.8930 O   0  0  0  0  0  0  0  0  0  0  0  0
  183.5540  177.0930  141.5320 O   0  0  0  0  0  1  0  0  0  0  0  0
  182.9120  179.6130  142.6890 C   0  0  0  0  0  2  0  0  0  0  0  0
  185.7840  178.2450  143.6220 C   0  0  0  0  0  2  0  0  0  0  0  0
  183.8760  178.2640  140.8340 C   0  0  1  0  0  3  0  0  0  0  0  0
  193.7750  175.7370  138.4330 C   0  0  0  0  0  2  0  0  0  0  0  0
  194.7600  174.7470  137.8020 C   0  0  1  0  0  3  0  0  0  0  0  0
  197.0110  174.0520  138.0800 C   0  0  0  0  0  2  0  0  0  0  0  0
  195.5080  175.3480  136.7790 O   0  0  0  0  0  0  0  0  0  0  0  0
  196.6970  174.6070  136.7060 C   0  0  0  0  0  2  0  0  0  0  0  0
  195.7090  174.1510  138.8180 C   0  0  0  0  0  2  0  0  0  0  0  0
  191.6290  177.6440  139.1610 C   0  0  0  0  0  2  0  0  0  0  0  0
  191.9250  177.2930  140.6080 C   0  0  0  0  0  2  0  0  0  0  0  0
  190.7350  176.7210  141.2170 N   0  0  0  0  0  2  0  0  0  0  0  0
  189.9280  177.8330  141.6990 C   0  0  1  0  0  3  0  0  0  0  0  0
  188.5250  177.7370  141.1200 C   0  0  0  0  0  1  0  0  0  0  0  0
  189.9390  177.8610  143.2030 C   0  0  0  0  0  0  0  0  0  0  0  0
  190.5400  178.7600  143.7690 O   0  0  0  0  0  0  0  0  0  0  0  0
  189.2970  176.7710  144.0190 C   0  0  0  0  0  2  0  0  0  0  0  0
  189.5430  176.9140  145.5230 C   0  0  1  0  0  3  0  0  0  0  0  0
  191.0340  176.9550  145.8360 C   0  0  0  0  0  2  0  0  0  0  0  0
  191.4610  175.7440  146.6540 C   0  0  0  0  0  2  0  0  0  0  0  0
  192.1000  177.1790  148.5830 O   0  0  0  0  0  1  0  0  0  0  0  0
  192.4290  176.1530  147.7070 C   0  0  0  0  0  0  0  0  0  0  0  0
  193.5440  175.5770  147.8050 O   0  0  0  0  0  0  0  0  0  0  0  0
  188.9150  178.0660  146.0170 O   0  0  0  0  0  0  0  0  0  0  0  0
  187.4520  178.8120  148.2590 O   0  0  0  0  0  1  0  0  0  0  0  0
  188.5610  176.2910  148.1040 O   0  0  0  0  0  1  0  0  0  0  0  0
  187.8320  177.5330  147.2140 P   0  0  0  0  0  0  0  0  0  0  0  0
  186.5650  177.0000  146.5760 O   0  0  0  0  0  0  0  0  0  0  0  0
  1  8  1  0  0  0  0
  1  3  2  0  0  0  0
  2  5  2  0  0  0  0
  3  9  1  0  0  0  0
  4 18  2  0  0  0  0
  5  4  1  0  0  0  0
  6  2  1  1  0  0  0
  6 13  1  0  0  0  0
  7  5  1  0  0  0  0
  7  8  2  0  0  0  0
  8 12  1  0  0  0  0
  9 14  1  0  0  0  0
 10 11  1  0  0  0  0
 10 17  1  0  0  0  0
 11 15  2  0  0  0  0
 12 14  1  0  0  0  0
 13 18  1  0  0  0  0
 13 45  1  0  0  0  0
 15  2  1  0  0  0  0
 16 15  1  0  0  0  0
 16 19  1  0  0  0  0
 17 20  1  0  0  0  0
 18 51  1  0  0  0  0
 19 21  2  0  0  0  0
 20  7  1  0  0  0  0
 21  6  1  0  0  0  0
 22 24  1  0  0  0  0
 24  3  1  0  0  0  0
 24 23  2  0  0  0  0
 25 22  1  0  0  0  0
 25 26  1  0  0  0  0
 26 29  1  0  0  0  0
 27 31  1  0  0  0  0
 28 27  2  0  0  0  0
 29 31  1  0  0  0  0
 30 26  2  0  0  0  0
 30 28  1  0  0  0  0
 31 32  1  6  0  0  0
 32 33  1  0  0  0  0
 34 33  1  1  0  0  0
 34 42  1  0  0  0  0
 35 42  1  6  0  0  0
 35 37  1  0  0  0  0
 37 36  2  0  0  0  0
 37 40  2  0  0  0  0
 39 38  1  6  0  0  0
 39 35  1  0  0  0  0
 39 43  1  0  0  0  0
 43 37  1  0  0  0  0
 44 38  1  0  0  0  0
 44 34  1  0  0  0  0
 44 41  1  1  0  0  0
 46 45  1  1  0  0  0
 46 50  1  0  0  0  0
 47 50  1  0  0  0  0
 48 46  1  0  0  0  0
 49 48  1  0  0  0  0
 49 47  1  0  0  0  0
 51 52  1  0  0  0  0
 52 53  1  0  0  0  0
 53 54  1  0  0  0  0
 54 55  1  1  0  0  0
 54 56  1  0  0  0  0
 56 57  2  0  0  0  0
 56 58  1  0  0  0  0
 59 58  1  6  0  0  0
 59 60  1  0  0  0  0
 59 65  1  0  0  0  0
 60 61  1  0  0  0  0
 61 63  1  0  0  0  0
 63 64  2  0  0  0  0
 63 62  1  0  0  0  0
 65 68  1  0  0  0  0
 68 67  1  0  0  0  0
 68 66  1  0  0  0  0
 69 68  2  0  0  0  0
M  END
>  <MODEL>
6

>  <REMARK>
 VINA RESULT:      -5.2      1.659      2.681
  Name = 
  20 active torsions:
  status: ('A' for Active; 'I' for Inactive)
    1  A    between atoms: N_2  and  C_38
    2  A    between atoms: N_2  and  C_66
    3  A    between atoms: C_3  and  C_43
    4  A    between atoms: C_4  and  N_20
    5  A    between atoms: C_6  and  C_63
    6  A    between atoms: C_14  and  C_60
    7  A    between atoms: C_19  and  C_43
    8  A    between atoms: C_19  and  C_67
    9  A    between atoms: N_20  and  N_39
   10  A    between atoms: C_22  and  C_48
   11  A    between atoms: C_22  and  C_64
   12  A    between atoms: C_31  and  C_38
   13  A    between atoms: C_31  and  C_65
   14  A    between atoms: N_33  and  C_60
   15  A    between atoms: C_42  and  C_57
   16  A    between atoms: C_42  and  C_66
   17  A    between atoms: O_45  and  P_52
   18  A    between atoms: O_45  and  C_55
   19  A    between atoms: C_55  and  C_64
   20  A    between atoms: C_55  and  C_65
                            x       y       z     vdW  Elec       q    Type
                         _______ _______ _______ _____ _____    ______ ____

>  <TORSDO>
F 20

$$$$
=
 OpenBabel11042410043D

 69 76  0  0  1  0  0  0  0  0999 V2000
  184.6070  177.6100  138.9440 C   0  0  0  0  0  3  0  0  0  0  0  0
  189.0950  176.9050  136.8740 C   0  0  0  0  0  0  0  0  0  0  0  0
  183.7990  178.2640  139.7880 C   0  0  0  0  0  0  0  0  0  0  0  0
  188.9490  177.4760  139.2440 N   0  0  0  0  0  0  0  0  0  0  0  0
  188.3180  177.2110  137.9770 C   0  0  0  0  0  0  0  0  0  0  0  0
  190.4870  176.6610  137.1230 C   0  0  1  0  0  3  0  0  0  0  0  0
  186.8320  177.1090  138.0470 C   0  0  0  0  0  0  0  0  0  0  0  0
  186.0740  177.8010  138.9350 C   0  0  0  0  0  0  0  0  0  0  0  0
  184.3550  179.2750  140.7590 C   0  0  0  0  0  2  0  0  0  0  0  0
  186.4160  177.8920  135.4420 C   0  0  0  0  0  2  0  0  0  0  0  0
  187.5810  177.1990  134.9320 N   0  0  0  0  0  0  0  0  0  0  0  0
  186.6420  178.8660  139.8390 C   0  0  0  0  0  2  0  0  0  0  0  0
  191.0630  176.8850  138.4240 N   0  0  0  0  0  0  0  0  0  0  0  0
  185.8130  178.9810  141.1140 C   0  0  0  0  0  2  0  0  0  0  0  0
  188.6820  176.7630  135.4830 C   0  0  0  0  0  0  0  0  0  0  0  0
  189.5620  176.2340  134.5940 N   0  0  0  0  0  2  0  0  0  0  0  0
  185.4920  176.8660  136.0600 C   0  0  0  0  0  2  0  0  0  0  0  0
  190.2130  177.3490  139.4700 C   0  0  0  0  0  0  0  0  0  0  0  0
  190.8370  175.9280  134.9060 C   0  0  0  0  0  3  0  0  0  0  0  0
  186.1900  176.2730  137.1370 O   0  0  0  0  0  0  0  0  0  0  0  0
  191.2920  176.1690  136.1460 N   0  0  0  0  0  0  0  0  0  0  0  0
  181.8070  177.1870  138.7000 N   0  0  0  0  0  2  0  0  0  0  0  0
  181.5680  178.6610  140.4880 O   0  0  0  0  0  0  0  0  0  0  0  0
  182.3430  178.0580  139.6970 C   0  0  0  0  0  0  0  0  0  0  0  0
  180.4240  177.0810  138.4810 N   0  0  0  0  0  2  0  0  0  0  0  0
  179.8470  175.8940  137.9300 C   0  0  0  0  0  0  0  0  0  0  0  0
  179.2840  173.1970  136.9540 C   0  0  0  0  0  3  0  0  0  0  0  0
  179.0260  173.5870  138.2070 C   0  0  0  0  0  3  0  0  0  0  0  0
  179.5980  175.7900  136.1440 S   0  0  0  0  0  0  0  0  0  0  0  0
  179.4820  174.8860  138.7320 C   0  0  0  0  0  3  0  0  0  0  0  0
  180.1070  174.0340  136.0180 C   0  0  1  0  0  3  0  0  0  0  0  0
  181.5920  173.8460  136.3130 C   0  0  0  0  0  2  0  0  0  0  0  0
  182.4300  174.0280  135.0550 C   0  0  0  0  0  2  0  0  0  0  0  0
  183.3960  172.8640  134.8670 C   0  0  1  0  0  3  0  0  0  0  0  0
  185.8650  172.2420  134.6470 C   0  0  1  0  0  3  0  0  0  0  0  0
  186.9870  173.6540  136.7710 O   0  0  0  0  0  0  0  0  0  0  0  0
  187.1590  172.4880  135.8350 S   0  0  0  0  0  0  0  0  0  0  0  0
  184.0460  170.6080  135.6810 C   0  0  0  0  0  2  0  0  0  0  0  0
  185.5010  170.8650  135.2570 C   0  0  2  0  0  3  0  0  0  0  0  0
  188.5470  172.3600  135.2770 O   0  0  0  0  0  0  0  0  0  0  0  0
  183.6440  172.4040  137.2250 O   0  0  0  0  0  1  0  0  0  0  0  0
  184.8330  173.3650  134.8250 C   0  0  0  0  0  2  0  0  0  0  0  0
  186.4700  170.9720  136.4310 C   0  0  0  0  0  2  0  0  0  0  0  0
  183.2390  171.8590  136.0000 C   0  0  1  0  0  3  0  0  0  0  0  0
  192.5060  176.7290  138.6420 C   0  0  0  0  0  2  0  0  0  0  0  0
  193.1700  175.8620  137.5660 C   0  0  1  0  0  3  0  0  0  0  0  0
  194.6680  174.0280  137.4300 C   0  0  0  0  0  2  0  0  0  0  0  0
  194.4200  176.3760  137.1920 O   0  0  0  0  0  0  0  0  0  0  0  0
  195.1440  175.2740  136.7130 C   0  0  0  0  0  2  0  0  0  0  0  0
  193.3420  174.4260  138.0080 C   0  0  0  0  0  2  0  0  0  0  0  0
  190.7580  177.7380  140.8090 C   0  0  0  0  0  2  0  0  0  0  0  0
  190.8960  176.5150  141.6980 C   0  0  0  0  0  2  0  0  0  0  0  0
  189.7520  176.4380  142.5910 N   0  0  0  0  0  2  0  0  0  0  0  0
  190.2720  176.4380  143.9500 C   0  0  1  0  0  3  0  0  0  0  0  0
  191.4710  175.5060  144.0400 C   0  0  0  0  0  1  0  0  0  0  0  0
  190.5930  177.8450  144.3770 C   0  0  0  0  0  0  0  0  0  0  0  0
  191.5810  178.3890  143.9130 O   0  0  0  0  0  0  0  0  0  0  0  0
  189.7720  178.5610  145.4170 C   0  0  0  0  0  2  0  0  0  0  0  0
  188.7370  177.6620  146.0980 C   0  0  1  0  0  3  0  0  0  0  0  0
  189.4120  176.5980  146.9550 C   0  0  0  0  0  2  0  0  0  0  0  0
  190.2770  177.2270  148.0380 C   0  0  0  0  0  2  0  0  0  0  0  0
  191.8700  175.4700  147.2880 O   0  0  0  0  0  0  0  0  0  0  0  0
  191.6380  176.6270  148.0220 C   0  0  0  0  0  0  0  0  0  0  0  0
  192.5770  177.1570  148.6710 O   0  0  0  0  0  1  0  0  0  0  0  0
  187.8590  178.4250  146.8790 O   0  0  0  0  0  0  0  0  0  0  0  0
  186.0200  179.3530  145.0120 O   0  0  0  0  0  0  0  0  0  0  0  0
  185.1530  178.3540  147.4320 O   0  0  0  0  0  1  0  0  0  0  0  0
  186.3130  178.1910  146.2100 P   0  0  0  0  0  0  0  0  0  0  0  0
  186.2040  176.8030  145.6130 O   0  0  0  0  0  1  0  0  0  0  0  0
  1  3  2  0  0  0  0
  2  6  1  0  0  0  0
  2  5  2  0  0  0  0
  3  9  1  0  0  0  0
  4 18  2  0  0  0  0
  5  7  1  0  0  0  0
  5  4  1  0  0  0  0
  6 21  1  1  0  0  0
  6 13  1  0  0  0  0
  7  8  2  0  0  0  0
  8  1  1  0  0  0  0
  8 12  1  0  0  0  0
  9 14  1  0  0  0  0
 10 17  1  0  0  0  0
 11 10  1  0  0  0  0
 11 15  2  0  0  0  0
 12 14  1  0  0  0  0
 13 45  1  0  0  0  0
 13 18  1  0  0  0  0
 15  2  1  0  0  0  0
 16 19  1  0  0  0  0
 16 15  1  0  0  0  0
 17 20  1  0  0  0  0
 18 51  1  0  0  0  0
 19 21  2  0  0  0  0
 20  7  1  0  0  0  0
 22 24  1  0  0  0  0
 24  3  1  0  0  0  0
 24 23  2  0  0  0  0
 25 22  1  0  0  0  0
 26 25  1  0  0  0  0
 26 30  2  0  0  0  0
 27 28  2  0  0  0  0
 28 30  1  0  0  0  0
 29 26  1  0  0  0  0
 31 29  1  0  0  0  0
 31 32  1  1  0  0  0
 31 27  1  0  0  0  0
 33 32  1  0  0  0  0
 34 33  1  1  0  0  0
 34 44  1  0  0  0  0
 35 42  1  1  0  0  0
 35 39  1  0  0  0  0
 35 37  1  0  0  0  0
 37 43  1  0  0  0  0
 37 36  2  0  0  0  0
 38 44  1  0  0  0  0
 39 38  1  1  0  0  0
 39 43  1  0  0  0  0
 40 37  2  0  0  0  0
 42 34  1  0  0  0  0
 44 41  1  1  0  0  0
 46 50  1  0  0  0  0
 46 45  1  1  0  0  0
 47 50  1  0  0  0  0
 48 46  1  0  0  0  0
 49 48  1  0  0  0  0
 49 47  1  0  0  0  0
 51 52  1  0  0  0  0
 52 53  1  0  0  0  0
 53 54  1  0  0  0  0
 54 55  1  6  0  0  0
 54 56  1  0  0  0  0
 56 58  1  0  0  0  0
 57 56  2  0  0  0  0
 59 58  1  1  0  0  0
 59 65  1  0  0  0  0
 59 60  1  0  0  0  0
 60 61  1  0  0  0  0
 62 63  2  0  0  0  0
 63 61  1  0  0  0  0
 63 64  1  0  0  0  0
 66 68  2  0  0  0  0
 68 65  1  0  0  0  0
 68 67  1  0  0  0  0
 69 68  1  0  0  0  0
M  END
>  <MODEL>
7

>  <REMARK>
 VINA RESULT:      -4.7      2.714      5.509
  Name = 
  20 active torsions:
  status: ('A' for Active; 'I' for Inactive)
    1  A    between atoms: N_2  and  C_38
    2  A    between atoms: N_2  and  C_66
    3  A    between atoms: C_3  and  C_43
    4  A    between atoms: C_4  and  N_20
    5  A    between atoms: C_6  and  C_63
    6  A    between atoms: C_14  and  C_60
    7  A    between atoms: C_19  and  C_43
    8  A    between atoms: C_19  and  C_67
    9  A    between atoms: N_20  and  N_39
   10  A    between atoms: C_22  and  C_48
   11  A    between atoms: C_22  and  C_64
   12  A    between atoms: C_31  and  C_38
   13  A    between atoms: C_31  and  C_65
   14  A    between atoms: N_33  and  C_60
   15  A    between atoms: C_42  and  C_57
   16  A    between atoms: C_42  and  C_66
   17  A    between atoms: O_45  and  P_52
   18  A    between atoms: O_45  and  C_55
   19  A    between atoms: C_55  and  C_64
   20  A    between atoms: C_55  and  C_65
                            x       y       z     vdW  Elec       q    Type
                         _______ _______ _______ _____ _____    ______ ____

>  <TORSDO>
F 20

$$$$
=
 OpenBabel11042410043D

 69 76  0  0  1  0  0  0  0  0999 V2000
  191.3780  177.0080  141.1190 C   0  0  0  0  0  3  0  0  0  0  0  0
  188.6120  177.6380  145.2270 C   0  0  0  0  0  0  0  0  0  0  0  0
  191.6200  177.2490  139.8250 C   0  0  0  0  0  0  0  0  0  0  0  0
  187.5040  177.4440  143.0580 N   0  0  0  0  0  0  0  0  0  0  0  0
  188.7040  177.4790  143.8550 C   0  0  0  0  0  0  0  0  0  0  0  0
  187.2960  177.5430  145.7920 C   0  0  0  0  0  0  0  0  0  0  0  0
  189.9450  177.1390  143.1020 C   0  0  0  0  0  0  0  0  0  0  0  0
  190.1190  177.4110  141.7840 C   0  0  0  0  0  0  0  0  0  0  0  0
  190.6170  177.9950  138.9790 C   0  0  0  0  0  2  0  0  0  0  0  0
  191.6190  178.5940  144.7300 C   0  0  0  0  0  2  0  0  0  0  0  0
  190.8990  178.2690  145.9440 N   0  0  0  0  0  0  0  0  0  0  0  0
  189.1400  178.2290  140.9810 C   0  0  0  0  0  2  0  0  0  0  0  0
  186.1280  177.4510  144.9550 N   0  0  0  0  0  0  0  0  0  0  0  0
  189.1920  177.8310  139.5100 C   0  0  0  0  0  2  0  0  0  0  0  0
  189.6840  177.8580  146.1900 C   0  0  0  0  0  0  0  0  0  0  0  0
  189.4000  177.7590  147.5140 N   0  0  0  0  0  0  0  0  0  0  0  0
  192.1200  177.3040  144.1220 C   0  0  0  0  0  2  0  0  0  0  0  0
  186.3070  177.4470  143.5410 C   0  0  0  0  0  0  0  0  0  0  0  0
  188.1550  177.5690  147.9920 C   0  0  0  0  0  3  0  0  0  0  0  0
  190.9850  176.5270  143.7960 O   0  0  0  0  0  0  0  0  0  0  0  0
  187.1210  177.4930  147.1380 N   0  0  0  0  0  0  0  0  0  0  0  0
  193.0260  175.6800  138.4560 N   0  0  0  0  0  0  0  0  0  0  0  0
  193.9430  177.5670  139.4690 O   0  0  0  0  0  0  0  0  0  0  0  0
  192.9200  176.8630  139.2500 C   0  0  0  0  0  0  0  0  0  0  0  0
  194.2690  175.1960  138.0180 N   0  0  0  0  0  0  0  0  0  0  0  0
  194.3620  174.2130  136.9830 C   0  0  0  0  0  0  0  0  0  0  0  0
  193.9300  172.4500  134.6930 C   0  0  0  0  0  3  0  0  0  0  0  0
  194.5500  173.6300  134.5960 C   0  0  0  0  0  3  0  0  0  0  0  0
  194.1810  172.4680  137.4160 S   0  0  0  0  0  0  0  0  0  0  0  0
  194.5960  174.5840  135.7180 C   0  0  0  0  0  3  0  0  0  0  0  0
  193.1900  172.0420  135.9330 C   0  0  1  0  0  3  0  0  0  0  0  0
  191.8110  172.6940  135.9610 C   0  0  0  0  0  2  0  0  0  0  0  0
  191.6040  173.5950  134.7510 C   0  0  0  0  0  2  0  0  0  0  0  0
  190.1360  173.9770  134.5980 C   0  0  1  0  0  3  0  0  0  0  0  0
  187.7420  173.1060  134.8000 C   0  0  1  0  0  3  0  0  0  0  0  0
  187.8110  171.8590  137.2920 O   0  0  0  0  0  0  0  0  0  0  0  0
  186.9260  172.4920  136.2510 S   0  0  0  0  0  0  0  0  0  0  0  0
  188.3960  175.6490  135.1900 C   0  0  0  0  0  2  0  0  0  0  0  0
  187.3130  174.5610  135.1150 C   0  0  2  0  0  3  0  0  0  0  0  0
  185.6680  171.7200  135.9760 O   0  0  0  0  0  0  0  0  0  0  0  0
  189.8800  174.7720  136.8640 O   0  0  0  0  0  1  0  0  0  0  0  0
  189.2400  172.7900  134.9250 C   0  0  0  0  0  2  0  0  0  0  0  0
  186.6830  174.2310  136.4660 C   0  0  0  0  0  2  0  0  0  0  0  0
  189.7940  175.1420  135.5160 C   0  0  1  0  0  3  0  0  0  0  0  0
  184.7830  177.4550  145.5420 C   0  0  0  0  0  2  0  0  0  0  0  0
  184.0740  178.8030  145.3700 C   0  0  1  0  0  3  0  0  0  0  0  0
  182.5760  179.8470  143.8560 C   0  0  0  0  0  2  0  0  0  0  0  0
  184.8290  179.6840  144.5820 O   0  0  0  0  0  0  0  0  0  0  0  0
  183.8970  180.5700  144.0210 C   0  0  0  0  0  2  0  0  0  0  0  0
  182.6970  178.6570  144.7600 C   0  0  0  0  0  2  0  0  0  0  0  0
  185.1420  177.4940  142.6030 C   0  0  0  0  0  2  0  0  0  0  0  0
  185.4240  178.4520  141.4600 C   0  0  0  0  0  2  0  0  0  0  0  0
  184.1650  178.9380  140.9190 N   0  0  0  0  0  2  0  0  0  0  0  0
  184.3400  179.0610  139.4790 C   0  0  1  0  0  3  0  0  0  0  0  0
  185.6080  178.3370  139.0530 C   0  0  0  0  0  1  0  0  0  0  0  0
  183.1140  178.5580  138.7680 C   0  0  0  0  0  0  0  0  0  0  0  0
  182.2720  179.3650  138.4080 O   0  0  0  0  0  0  0  0  0  0  0  0
  182.8660  177.0870  138.5620 C   0  0  0  0  0  2  0  0  0  0  0  0
  181.3800  176.7180  138.5510 C   0  0  1  0  0  3  0  0  0  0  0  0
  181.0410  175.8430  137.3500 C   0  0  0  0  0  2  0  0  0  0  0  0
  182.2850  175.1730  136.7830 C   0  0  0  0  0  2  0  0  0  0  0  0
  182.6940  172.7210  136.6960 O   0  0  0  0  0  1  0  0  0  0  0  0
  181.9500  173.8160  136.2750 C   0  0  0  0  0  0  0  0  0  0  0  0
  181.0010  173.6550  135.4630 O   0  0  0  0  0  0  0  0  0  0  0  0
  181.0260  176.0660  139.7390 O   0  0  0  0  0  0  0  0  0  0  0  0
  179.3660  178.2850  139.5370 O   0  0  0  0  0  0  0  0  0  0  0  0
  181.0110  177.9810  141.7300 O   0  0  0  0  0  1  0  0  0  0  0  0
  180.0520  177.1600  140.6020 P   0  0  0  0  0  0  0  0  0  0  0  0
  178.9550  176.4180  141.3390 O   0  0  0  0  0  1  0  0  0  0  0  0
  1  8  1  0  0  0  0
  2  6  1  0  0  0  0
  2 15  1  0  0  0  0
  3  1  2  0  0  0  0
  4 18  2  0  0  0  0
  4  5  1  0  0  0  0
  5  2  2  0  0  0  0
  6 21  2  0  0  0  0
  7 20  1  0  0  0  0
  7  5  1  0  0  0  0
  8  7  2  0  0  0  0
  9 14  1  0  0  0  0
  9  3  1  0  0  0  0
 10 11  1  0  0  0  0
 11 15  2  0  0  0  0
 12  8  1  0  0  0  0
 13 45  1  0  0  0  0
 13  6  1  0  0  0  0
 14 12  1  0  0  0  0
 15 16  1  0  0  0  0
 16 19  2  0  0  0  0
 17 10  1  0  0  0  0
 18 13  1  0  0  0  0
 20 17  1  0  0  0  0
 21 19  1  0  0  0  0
 22 24  1  0  0  0  0
 24 23  2  0  0  0  0
 24  3  1  0  0  0  0
 25 22  2  0  0  0  0
 26 29  1  0  0  0  0
 26 25  1  0  0  0  0
 27 31  1  0  0  0  0
 28 27  2  0  0  0  0
 28 30  1  0  0  0  0
 30 26  2  0  0  0  0
 31 32  1  1  0  0  0
 31 29  1  0  0  0  0
 33 32  1  0  0  0  0
 34 33  1  1  0  0  0
 34 42  1  0  0  0  0
 34 44  1  0  0  0  0
 35 42  1  1  0  0  0
 35 39  1  0  0  0  0
 35 37  1  0  0  0  0
 37 43  1  0  0  0  0
 37 36  2  0  0  0  0
 38 44  1  0  0  0  0
 39 38  1  1  0  0  0
 39 43  1  0  0  0  0
 40 37  2  0  0  0  0
 44 41  1  1  0  0  0
 46 45  1  6  0  0  0
 47 49  1  0  0  0  0
 47 50  1  0  0  0  0
 48 46  1  0  0  0  0
 49 48  1  0  0  0  0
 50 46  1  0  0  0  0
 51 18  1  0  0  0  0
 52 51  1  0  0  0  0
 53 52  1  0  0  0  0
 54 55  1  6  0  0  0
 54 53  1  0  0  0  0
 56 54  1  0  0  0  0
 57 56  2  0  0  0  0
 58 56  1  0  0  0  0
 59 60  1  6  0  0  0
 59 58  1  0  0  0  0
 59 65  1  0  0  0  0
 61 60  1  0  0  0  0
 63 62  1  0  0  0  0
 63 61  1  0  0  0  0
 64 63  2  0  0  0  0
 65 68  1  0  0  0  0
 66 68  2  0  0  0  0
 68 69  1  0  0  0  0
 68 67  1  0  0  0  0
M  END
>  <MODEL>
8

>  <REMARK>
 VINA RESULT:      -4.7      3.556     11.284
  Name = 
  20 active torsions:
  status: ('A' for Active; 'I' for Inactive)
    1  A    between atoms: N_2  and  C_38
    2  A    between atoms: N_2  and  C_66
    3  A    between atoms: C_3  and  C_43
    4  A    between atoms: C_4  and  N_20
    5  A    between atoms: C_6  and  C_63
    6  A    between atoms: C_14  and  C_60
    7  A    between atoms: C_19  and  C_43
    8  A    between atoms: C_19  and  C_67
    9  A    between atoms: N_20  and  N_39
   10  A    between atoms: C_22  and  C_48
   11  A    between atoms: C_22  and  C_64
   12  A    between atoms: C_31  and  C_38
   13  A    between atoms: C_31  and  C_65
   14  A    between atoms: N_33  and  C_60
   15  A    between atoms: C_42  and  C_57
   16  A    between atoms: C_42  and  C_66
   17  A    between atoms: O_45  and  P_52
   18  A    between atoms: O_45  and  C_55
   19  A    between atoms: C_55  and  C_64
   20  A    between atoms: C_55  and  C_65
                            x       y       z     vdW  Elec       q    Type
                         _______ _______ _______ _____ _____    ______ ____

>  <TORSDO>
F 20

$$$$
=
 OpenBabel11042410043D

 69 76  0  0  1  0  0  0  0  0999 V2000
  184.7990  179.1040  142.0550 C   0  0  0  0  0  3  0  0  0  0  0  0
  187.5960  178.1760  146.0850 C   0  0  0  0  0  0  0  0  0  0  0  0
  184.4640  178.8560  140.7830 C   0  0  0  0  0  0  0  0  0  0  0  0
  188.6260  178.0940  143.8710 N   0  0  0  0  0  0  0  0  0  0  0  0
  187.4730  178.2950  144.7120 C   0  0  0  0  0  0  0  0  0  0  0  0
  188.9330  178.0690  146.5980 C   0  0  0  0  0  0  0  0  0  0  0  0
  186.2750  178.8100  143.9890 C   0  0  0  0  0  0  0  0  0  0  0  0
  186.0000  178.5200  142.6930 C   0  0  0  0  0  0  0  0  0  0  0  0
  185.2900  177.9190  139.9370 C   0  0  0  0  0  2  0  0  0  0  0  0
  184.4530  177.7230  145.7420 C   0  0  0  0  0  2  0  0  0  0  0  0
  185.2690  177.9700  146.9130 N   0  0  0  0  0  0  0  0  0  0  0  0
  186.7930  177.5170  141.8930 C   0  0  0  0  0  2  0  0  0  0  0  0
  190.0620  177.9290  145.7150 N   0  0  0  0  0  0  0  0  0  0  0  0
  186.7440  177.8610  140.4070 C   0  0  0  0  0  2  0  0  0  0  0  0
  186.5450  178.1780  147.0950 C   0  0  0  0  0  0  0  0  0  0  0  0
  186.8990  178.2800  148.4020 N   0  0  0  0  0  0  0  0  0  0  0  0
  184.1490  179.0550  145.0930 C   0  0  0  0  0  2  0  0  0  0  0  0
  189.8250  177.9090  144.3100 C   0  0  0  0  0  0  0  0  0  0  0  0
  188.1780  178.2750  148.8260 C   0  0  0  0  0  3  0  0  0  0  0  0
  185.3830  179.6160  144.6920 O   0  0  0  0  0  0  0  0  0  0  0  0
  189.1720  178.1420  147.9320 N   0  0  0  0  0  0  0  0  0  0  0  0
  183.2350  180.0730  138.9610 N   0  0  0  0  0  2  0  0  0  0  0  0
  182.1530  179.3780  140.9040 O   0  0  0  0  0  0  0  0  0  0  0  0
  183.2230  179.4330  140.2390 C   0  0  0  0  0  0  0  0  0  0  0  0
  182.1150  180.7670  138.4750 N   0  0  0  0  0  2  0  0  0  0  0  0
  181.1600  180.1310  137.6200 C   0  0  0  0  0  0  0  0  0  0  0  0
  179.3070  178.2980  136.2990 C   0  0  0  0  0  3  0  0  0  0  0  0
  178.9310  179.1420  137.2650 C   0  0  0  0  0  3  0  0  0  0  0  0
  181.6670  179.6360  135.9580 S   0  0  0  0  0  0  0  0  0  0  0  0
  179.9070  179.9250  138.0430 C   0  0  0  0  0  3  0  0  0  0  0  0
  180.7520  178.0480  135.9830 C   0  0  1  0  0  3  0  0  0  0  0  0
  181.3460  177.0620  136.9850 C   0  0  0  0  0  2  0  0  0  0  0  0
  181.1980  175.6270  136.4990 C   0  0  0  0  0  2  0  0  0  0  0  0
  182.4710  175.1460  135.8140 C   0  0  1  0  0  3  0  0  0  0  0  0
  184.6720  175.9150  134.7680 C   0  0  1  0  0  3  0  0  0  0  0  0
  185.6270  177.6720  136.7080 O   0  0  0  0  0  0  0  0  0  0  0  0
  186.0040  176.7850  135.5520 S   0  0  0  0  0  0  0  0  0  0  0  0
  184.3740  173.5540  135.9430 C   0  0  0  0  0  2  0  0  0  0  0  0
  185.2650  174.5420  135.1740 C   0  0  2  0  0  3  0  0  0  0  0  0
  186.9810  177.4130  134.6010 O   0  0  0  0  0  0  0  0  0  0  0  0
  183.7200  174.8470  137.8590 O   0  0  0  0  0  1  0  0  0  0  0  0
  183.3620  176.3270  135.4550 C   0  0  0  0  0  2  0  0  0  0  0  0
  186.4000  175.1240  136.0130 C   0  0  0  0  0  2  0  0  0  0  0  0
  183.2320  174.1910  136.7230 C   0  0  1  0  0  3  0  0  0  0  0  0
  191.4120  177.7210  146.2530 C   0  0  0  0  0  2  0  0  0  0  0  0
  191.5030  176.4730  147.1390 C   0  0  1  0  0  3  0  0  0  0  0  0
  193.0280  175.4740  148.6550 C   0  0  0  0  0  2  0  0  0  0  0  0
  192.1190  175.4090  146.4650 O   0  0  0  0  0  0  0  0  0  0  0  0
  192.6650  174.6000  147.4720 C   0  0  0  0  0  2  0  0  0  0  0  0
  192.2500  176.7350  148.4280 C   0  0  0  0  0  2  0  0  0  0  0  0
  190.9240  177.6280  143.3340 C   0  0  0  0  0  2  0  0  0  0  0  0
  190.3850  177.6420  141.9140 C   0  0  0  0  0  2  0  0  0  0  0  0
  191.4660  177.9540  140.9930 N   0  0  0  0  0  2  0  0  0  0  0  0
  191.5120  176.8790  140.0130 C   0  0  1  0  0  3  0  0  0  0  0  0
  190.3440  177.0150  139.0470 C   0  0  0  0  0  1  0  0  0  0  0  0
  192.8460  176.8740  139.3180 C   0  0  0  0  0  0  0  0  0  0  0  0
  193.8210  177.2980  139.9170 O   0  0  0  0  0  0  0  0  0  0  0  0
  192.9900  176.4340  137.8850 C   0  0  0  0  0  2  0  0  0  0  0  0
  193.8110  175.1510  137.7240 C   0  0  1  0  0  3  0  0  0  0  0  0
  193.0160  174.0790  136.9880 C   0  0  0  0  0  2  0  0  0  0  0  0
  192.0740  174.6950  135.9630 C   0  0  0  0  0  2  0  0  0  0  0  0
  189.8760  173.9460  135.0700 O   0  0  0  0  0  0  0  0  0  0  0  0
  190.6910  174.1890  136.1690 C   0  0  0  0  0  0  0  0  0  0  0  0
  190.2530  173.9850  137.3310 O   0  0  0  0  0  1  0  0  0  0  0  0
  195.0080  175.4150  137.0470 O   0  0  0  0  0  0  0  0  0  0  0  0
  197.6250  175.3310  137.9790 O   0  0  0  0  0  1  0  0  0  0  0  0
  196.4970  173.1000  136.8140 O   0  0  0  0  0  0  0  0  0  0  0  0
  196.1910  174.4470  137.7920 P   0  0  0  0  0  0  0  0  0  0  0  0
  195.7040  173.9710  139.1450 O   0  0  0  0  0  1  0  0  0  0  0  0
  1  8  1  0  0  0  0
  2  6  1  0  0  0  0
  2 15  1  0  0  0  0
  3  1  2  0  0  0  0
  4 18  2  0  0  0  0
  4  5  1  0  0  0  0
  5  2  2  0  0  0  0
  6 21  2  0  0  0  0
  7 20  1  0  0  0  0
  7  5  1  0  0  0  0
  8  7  2  0  0  0  0
  9 14  1  0  0  0  0
  9  3  1  0  0  0  0
 10 11  1  0  0  0  0
 11 15  2  0  0  0  0
 12  8  1  0  0  0  0
 13 45  1  0  0  0  0
 13  6  1  0  0  0  0
 14 12  1  0  0  0  0
 15 16  1  0  0  0  0
 16 19  2  0  0  0  0
 17 10  1  0  0  0  0
 18 13  1  0  0  0  0
 20 17  1  0  0  0  0
 21 19  1  0  0  0  0
 22 24  1  0  0  0  0
 24  3  1  0  0  0  0
 24 23  2  0  0  0  0
 25 22  1  0  0  0  0
 26 30  2  0  0  0  0
 26 25  1  0  0  0  0
 27 28  2  0  0  0  0
 28 30  1  0  0  0  0
 29 31  1  0  0  0  0
 29 26  1  0  0  0  0
 31 27  1  0  0  0  0
 31 32  1  1  0  0  0
 33 32  1  0  0  0  0
 34 33  1  1  0  0  0
 34 44  1  0  0  0  0
 35 39  1  0  0  0  0
 35 42  1  1  0  0  0
 35 37  1  0  0  0  0
 37 43  1  0  0  0  0
 37 36  2  0  0  0  0
 38 44  1  0  0  0  0
 39 38  1  1  0  0  0
 39 43  1  0  0  0  0
 40 37  2  0  0  0  0
 42 34  1  0  0  0  0
 44 41  1  1  0  0  0
 46 45  1  6  0  0  0
 46 50  1  0  0  0  0
 48 46  1  0  0  0  0
 48 49  1  0  0  0  0
 49 47  1  0  0  0  0
 50 47  1  0  0  0  0
 51 18  1  0  0  0  0
 52 51  1  0  0  0  0
 53 52  1  0  0  0  0
 54 55  1  6  0  0  0
 54 53  1  0  0  0  0
 56 57  2  0  0  0  0
 56 54  1  0  0  0  0
 58 56  1  0  0  0  0
 59 60  1  6  0  0  0
 59 58  1  0  0  0  0
 61 63  1  0  0  0  0
 61 60  1  0  0  0  0
 62 63  2  0  0  0  0
 63 64  1  0  0  0  0
 65 59  1  0  0  0  0
 65 68  1  0  0  0  0
 67 68  2  0  0  0  0
 68 66  1  0  0  0  0
 68 69  1  0  0  0  0
M  END
>  <MODEL>
9

>  <REMARK>
 VINA RESULT:      -4.4      3.283      8.789
  Name = 
  20 active torsions:
  status: ('A' for Active; 'I' for Inactive)
    1  A    between atoms: N_2  and  C_38
    2  A    between atoms: N_2  and  C_66
    3  A    between atoms: C_3  and  C_43
    4  A    between atoms: C_4  and  N_20
    5  A    between atoms: C_6  and  C_63
    6  A    between atoms: C_14  and  C_60
    7  A    between atoms: C_19  and  C_43
    8  A    between atoms: C_19  and  C_67
    9  A    between atoms: N_20  and  N_39
   10  A    between atoms: C_22  and  C_48
   11  A    between atoms: C_22  and  C_64
   12  A    between atoms: C_31  and  C_38
   13  A    between atoms: C_31  and  C_65
   14  A    between atoms: N_33  and  C_60
   15  A    between atoms: C_42  and  C_57
   16  A    between atoms: C_42  and  C_66
   17  A    between atoms: O_45  and  P_52
   18  A    between atoms: O_45  and  C_55
   19  A    between atoms: C_55  and  C_64
   20  A    between atoms: C_55  and  C_65
                            x       y       z     vdW  Elec       q    Type
                         _______ _______ _______ _____ _____    ______ ____

>  <TORSDO>
F 20

$$$$
