=
 OpenBabel11042410443D

 38 40  0  0  1  0  0  0  0  0999 V2000
  191.4610  177.2430  142.3920 C   0  0  0  0  0  0  0  0  0  0  0  0
  189.1510  177.3680  144.2830 C   0  0  2  0  0  3  0  0  0  0  0  0
  189.7470  176.1960  141.2990 C   0  0  0  0  0  2  0  0  0  0  0  0
  188.6360  176.8120  141.7080 C   0  0  1  0  0  3  0  0  0  0  0  0
  191.4470  177.5810  140.0530 O   0  0  0  0  0  0  0  0  0  0  0  0
  190.9800  176.9650  141.2190 C   0  0  0  0  0  0  0  0  0  0  0  0
  188.0440  176.2430  143.3110 S   0  0  0  0  0  0  0  0  0  0  0  0
  188.9960  178.8640  140.1920 C   0  0  0  0  0  2  0  0  0  0  0  0
  190.5560  176.7900  144.5530 C   0  0  0  0  0  2  0  0  0  0  0  0
  188.2560  178.1280  141.2260 N   0  0  0  0  0  0  0  0  0  0  0  0
  191.6120  177.4040  143.6710 C   0  0  0  0  0  3  0  0  0  0  0  0
  189.2490  177.9990  138.9600 C   0  0  0  0  0  2  0  0  0  0  0  0
  190.7230  177.5850  138.8150 C   0  0  2  0  0  3  0  0  0  0  0  0
  189.2950  177.8820  146.7220 C   0  0  0  0  0  3  0  0  0  0  0  0
  187.3350  178.4440  148.0260 C   0  0  0  0  0  3  0  0  0  0  0  0
  188.5050  177.7580  145.5750 C   0  0  0  0  0  0  0  0  0  0  0  0
  185.0720  178.5340  146.9720 C   0  0  0  0  0  1  0  0  0  0  0  0
  186.5370  178.3080  146.8860 C   0  0  0  0  0  0  0  0  0  0  0  0
  189.5620  178.3700  149.1560 C   0  0  0  0  0  1  0  0  0  0  0  0
  187.1190  177.9630  145.6630 C   0  0  0  0  0  3  0  0  0  0  0  0
  188.7130  178.2300  147.9430 C   0  0  0  0  0  0  0  0  0  0  0  0
  191.9650  174.6420  137.0100 O   0  0  0  0  0  0  0  0  0  0  0  0
  191.9860  175.7790  137.5490 C   0  0  0  0  0  0  0  0  0  0  0  0
  190.8020  176.2790  138.1750 N   0  0  0  0  0  2  0  0  0  0  0  0
  193.2350  176.5970  137.4760 C   0  0  0  0  0  2  0  0  0  0  0  0
  194.7510  175.1440  138.6080 O   0  0  0  0  0  0  0  0  0  0  0  0
  194.4370  175.7190  137.5330 C   0  0  0  0  0  0  0  0  0  0  0  0
  195.2260  175.5190  136.3660 N   0  0  0  0  0  1  0  0  0  0  0  0
  186.9710  178.6930  141.6180 C   0  0  0  0  0  2  0  0  0  0  0  0
  185.9150  178.4160  140.5630 C   0  0  0  0  0  2  0  0  0  0  0  0
  185.0940  179.5960  140.3610 N   0  0  0  0  0  2  0  0  0  0  0  0
  184.0070  179.2050  139.4810 C   0  0  0  0  0  2  0  0  0  0  0  0
  182.9760  178.4020  140.2590 C   0  0  0  0  0  2  0  0  0  0  0  0
  181.8520  179.2480  140.6320 N   0  0  0  0  0  2  0  0  0  0  0  0
  181.1210  178.5630  141.6880 C   0  0  0  0  0  2  0  0  0  0  0  0
  181.1360  179.3980  142.9540 C   0  0  0  0  0  2  0  0  0  0  0  0
  182.0310  178.7550  143.9970 C   0  0  0  0  0  2  0  0  0  0  0  0
  183.4560  179.2250  143.7960 C   0  0  0  0  0  1  0  0  0  0  0  0
  1 11  2  0  0  0  0
  2  9  1  0  0  0  0
  2 16  1  1  0  0  0
  4  3  1  1  0  0  0
  4  7  1  0  0  0  0
  5  6  1  0  0  0  0
  6  3  1  0  0  0  0
  6  1  2  0  0  0  0
  7  2  1  0  0  0  0
  8 10  1  0  0  0  0
 10 29  1  0  0  0  0
 10  4  1  0  0  0  0
 11  9  1  0  0  0  0
 12  8  1  0  0  0  0
 13 24  1  1  0  0  0
 13 12  1  0  0  0  0
 13  5  1  0  0  0  0
 14 21  1  0  0  0  0
 16 20  1  0  0  0  0
 16 14  2  0  0  0  0
 18 17  1  0  0  0  0
 18 15  1  0  0  0  0
 20 18  2  0  0  0  0
 21 15  2  0  0  0  0
 21 19  1  0  0  0  0
 22 23  2  0  0  0  0
 23 24  1  0  0  0  0
 25 27  1  0  0  0  0
 25 23  1  0  0  0  0
 27 26  2  0  0  0  0
 28 27  1  0  0  0  0
 30 29  1  0  0  0  0
 31 30  1  0  0  0  0
 32 33  1  0  0  0  0
 32 31  1  0  0  0  0
 33 34  1  0  0  0  0
 34 35  1  0  0  0  0
 35 36  1  0  0  0  0
 36 37  1  0  0  0  0
 38 37  1  0  0  0  0
M  END
>  <MODEL>
1

>  <REMARK>
 VINA RESULT:      -7.5      0.000      0.000
  Name = 
  13 active torsions:
  status: ('A' for Active; 'I' for Inactive)
    1  A    between atoms: N_2  and  C_3
    2  A    between atoms: N_2  and  C_15
    3  A    between atoms: C_3  and  C_8
    4  A    between atoms: C_5  and  C_9
    5  A    between atoms: C_8  and  N_33
    6  A    between atoms: C_15  and  C_30
    7  A    between atoms: C_16  and  C_27
    8  A    between atoms: C_19  and  C_27
    9  A    between atoms: C_20  and  C_30
   10  A    between atoms: N_24  and  C_29
   11  A    between atoms: C_29  and  C_37
   12  A    between atoms: C_31  and  N_38
   13  A    between atoms: N_33  and  C_37
                            x       y       z     vdW  Elec       q    Type
                         _______ _______ _______ _____ _____    ______ ____

>  <TORSDO>
F 13

$$$$
=
 OpenBabel11042410443D

 38 40  0  0  1  0  0  0  0  0999 V2000
  191.5280  177.2620  142.3610 C   0  0  0  0  0  0  0  0  0  0  0  0
  189.2060  177.3440  144.2400 C   0  0  2  0  0  3  0  0  0  0  0  0
  189.8480  176.1620  141.2690 C   0  0  0  0  0  2  0  0  0  0  0  0
  188.7200  176.7520  141.6670 C   0  0  1  0  0  3  0  0  0  0  0  0
  191.5180  177.5780  140.0200 O   0  0  0  0  0  0  0  0  0  0  0  0
  191.0610  176.9610  141.1890 C   0  0  0  0  0  0  0  0  0  0  0  0
  188.1340  176.1820  143.2720 S   0  0  0  0  0  0  0  0  0  0  0  0
  189.0350  178.7990  140.1350 C   0  0  0  0  0  2  0  0  0  0  0  0
  190.6240  176.8050  144.5220 C   0  0  0  0  0  2  0  0  0  0  0  0
  188.3080  178.0530  141.1710 N   0  0  0  0  0  0  0  0  0  0  0  0
  191.6680  177.4380  143.6400 C   0  0  0  0  0  3  0  0  0  0  0  0
  189.3160  177.9290  138.9110 C   0  0  0  0  0  2  0  0  0  0  0  0
  190.8010  177.5530  138.7780 C   0  0  2  0  0  3  0  0  0  0  0  0
  187.1710  177.9940  145.5310 C   0  0  0  0  0  3  0  0  0  0  0  0
  187.2660  178.4940  147.8970 C   0  0  0  0  0  3  0  0  0  0  0  0
  188.5430  177.7280  145.5250 C   0  0  0  0  0  0  0  0  0  0  0  0
  189.4240  178.3760  149.1510 C   0  0  0  0  0  1  0  0  0  0  0  0
  188.6410  178.2440  147.8950 C   0  0  0  0  0  0  0  0  0  0  0  0
  185.0690  178.6400  146.7150 C   0  0  0  0  0  1  0  0  0  0  0  0
  189.2800  177.8640  146.7110 C   0  0  0  0  0  3  0  0  0  0  0  0
  186.5310  178.3700  146.7150 C   0  0  0  0  0  0  0  0  0  0  0  0
  192.1260  174.6300  137.0000 O   0  0  0  0  0  0  0  0  0  0  0  0
  192.1150  175.7720  137.5280 C   0  0  0  0  0  0  0  0  0  0  0  0
  190.9170  176.2440  138.1500 N   0  0  0  0  0  2  0  0  0  0  0  0
  193.3400  176.6250  137.4470 C   0  0  0  0  0  2  0  0  0  0  0  0
  195.3030  175.7250  136.4340 O   0  0  0  0  0  0  0  0  0  0  0  0
  194.1670  176.2390  136.2690 C   0  0  0  0  0  0  0  0  0  0  0  0
  193.6630  176.4400  134.9530 N   0  0  0  0  0  1  0  0  0  0  0  0
  187.0070  178.5880  141.5520 C   0  0  0  0  0  2  0  0  0  0  0  0
  186.0350  178.5210  140.3880 C   0  0  0  0  0  2  0  0  0  0  0  0
  184.9980  179.5240  140.5500 N   0  0  0  0  0  2  0  0  0  0  0  0
  184.1160  179.4050  139.4020 C   0  0  0  0  0  2  0  0  0  0  0  0
  182.8600  178.6400  139.7920 C   0  0  0  0  0  2  0  0  0  0  0  0
  181.6770  179.4540  139.5540 N   0  0  0  0  0  2  0  0  0  0  0  0
  180.9750  179.5850  140.8220 C   0  0  0  0  0  2  0  0  0  0  0  0
  181.4300  178.5010  141.7790 C   0  0  0  0  0  2  0  0  0  0  0  0
  181.4930  179.0420  143.1950 C   0  0  0  0  0  2  0  0  0  0  0  0
  182.9270  179.0230  143.6790 C   0  0  0  0  0  1  0  0  0  0  0  0
  1 11  2  0  0  0  0
  2  9  1  0  0  0  0
  2 16  1  1  0  0  0
  4  3  1  1  0  0  0
  4  7  1  0  0  0  0
  5  6  1  0  0  0  0
  6  3  1  0  0  0  0
  6  1  2  0  0  0  0
  7  2  1  0  0  0  0
  8 10  1  0  0  0  0
 10 29  1  0  0  0  0
 10  4  1  0  0  0  0
 11  9  1  0  0  0  0
 12  8  1  0  0  0  0
 13 24  1  1  0  0  0
 13 12  1  0  0  0  0
 13  5  1  0  0  0  0
 14 21  1  0  0  0  0
 16 14  2  0  0  0  0
 16 20  1  0  0  0  0
 18 15  1  0  0  0  0
 18 17  1  0  0  0  0
 20 18  2  0  0  0  0
 21 19  1  0  0  0  0
 21 15  2  0  0  0  0
 22 23  2  0  0  0  0
 23 24  1  0  0  0  0
 25 23  1  0  0  0  0
 27 26  2  0  0  0  0
 27 25  1  0  0  0  0
 28 27  1  0  0  0  0
 30 31  1  0  0  0  0
 30 29  1  0  0  0  0
 32 33  1  0  0  0  0
 32 31  1  0  0  0  0
 34 33  1  0  0  0  0
 34 35  1  0  0  0  0
 35 36  1  0  0  0  0
 36 37  1  0  0  0  0
 37 38  1  0  0  0  0
M  END
>  <MODEL>
2

>  <REMARK>
 VINA RESULT:      -7.4      0.674      1.567
  Name = 
  13 active torsions:
  status: ('A' for Active; 'I' for Inactive)
    1  A    between atoms: N_2  and  C_3
    2  A    between atoms: N_2  and  C_15
    3  A    between atoms: C_3  and  C_8
    4  A    between atoms: C_5  and  C_9
    5  A    between atoms: C_8  and  N_33
    6  A    between atoms: C_15  and  C_30
    7  A    between atoms: C_16  and  C_27
    8  A    between atoms: C_19  and  C_27
    9  A    between atoms: C_20  and  C_30
   10  A    between atoms: N_24  and  C_29
   11  A    between atoms: C_29  and  C_37
   12  A    between atoms: C_31  and  N_38
   13  A    between atoms: N_33  and  C_37
                            x       y       z     vdW  Elec       q    Type
                         _______ _______ _______ _____ _____    ______ ____

>  <TORSDO>
F 13

$$$$
=
 OpenBabel11042410443D

 38 40  0  0  1  0  0  0  0  0999 V2000
  191.5090  177.2850  142.3540 C   0  0  0  0  0  0  0  0  0  0  0  0
  189.2240  177.3470  144.2780 C   0  0  2  0  0  3  0  0  0  0  0  0
  189.8130  176.1800  141.2910 C   0  0  0  0  0  2  0  0  0  0  0  0
  188.6900  176.7630  141.7130 C   0  0  1  0  0  3  0  0  0  0  0  0
  191.4510  177.6100  140.0150 O   0  0  0  0  0  0  0  0  0  0  0  0
  191.0210  176.9860  141.1890 C   0  0  0  0  0  0  0  0  0  0  0  0
  188.1390  176.1840  143.3270 S   0  0  0  0  0  0  0  0  0  0  0  0
  188.9640  178.8180  140.1830 C   0  0  0  0  0  2  0  0  0  0  0  0
  190.6500  176.8140  144.5300 C   0  0  0  0  0  2  0  0  0  0  0  0
  188.2620  178.0640  141.2300 N   0  0  0  0  0  0  0  0  0  0  0  0
  191.6730  177.4570  143.6300 C   0  0  0  0  0  3  0  0  0  0  0  0
  189.2260  177.9540  138.9510 C   0  0  0  0  0  2  0  0  0  0  0  0
  190.7100  177.5860  138.7860 C   0  0  2  0  0  3  0  0  0  0  0  0
  187.2100  177.9740  145.6130 C   0  0  0  0  0  3  0  0  0  0  0  0
  187.3500  178.4730  147.9770 C   0  0  0  0  0  3  0  0  0  0  0  0
  188.5850  177.7230  145.5770 C   0  0  0  0  0  0  0  0  0  0  0  0
  189.5350  178.3760  149.1840 C   0  0  0  0  0  1  0  0  0  0  0  0
  188.7280  178.2380  147.9460 C   0  0  0  0  0  0  0  0  0  0  0  0
  185.1270  178.5970  146.8430 C   0  0  0  0  0  1  0  0  0  0  0  0
  189.3450  177.8660  146.7480 C   0  0  0  0  0  3  0  0  0  0  0  0
  186.5920  178.3420  146.8110 C   0  0  0  0  0  0  0  0  0  0  0  0
  192.0300  174.6560  137.0170 O   0  0  0  0  0  0  0  0  0  0  0  0
  192.0250  175.7940  137.5530 C   0  0  0  0  0  0  0  0  0  0  0  0
  190.8200  176.2810  138.1510 N   0  0  0  0  0  2  0  0  0  0  0  0
  193.2640  176.6290  137.5070 C   0  0  0  0  0  2  0  0  0  0  0  0
  195.2210  175.5700  136.6450 O   0  0  0  0  0  0  0  0  0  0  0  0
  194.1510  176.1840  136.3940 C   0  0  0  0  0  0  0  0  0  0  0  0
  193.7790  176.4410  135.0450 N   0  0  0  0  0  1  0  0  0  0  0  0
  186.9660  178.5900  141.6390 C   0  0  0  0  0  2  0  0  0  0  0  0
  185.9880  178.5770  140.4780 C   0  0  0  0  0  2  0  0  0  0  0  0
  184.8110  179.3580  140.8120 N   0  0  0  0  0  2  0  0  0  0  0  0
  183.9240  179.2930  139.6640 C   0  0  0  0  0  2  0  0  0  0  0  0
  184.6650  178.7070  138.4710 C   0  0  0  0  0  2  0  0  0  0  0  0
  183.8150  177.7640  137.7600 N   0  0  0  0  0  2  0  0  0  0  0  0
  184.6140  176.5790  137.4850 C   0  0  0  0  0  2  0  0  0  0  0  0
  185.8950  176.9710  136.7760 C   0  0  0  0  0  2  0  0  0  0  0  0
  186.8330  175.7820  136.6880 C   0  0  0  0  0  2  0  0  0  0  0  0
  188.0370  176.1510  135.8470 C   0  0  0  0  0  1  0  0  0  0  0  0
  1 11  2  0  0  0  0
  2  9  1  0  0  0  0
  2 16  1  1  0  0  0
  4  3  1  1  0  0  0
  4  7  1  0  0  0  0
  5  6  1  0  0  0  0
  6  3  1  0  0  0  0
  6  1  2  0  0  0  0
  7  2  1  0  0  0  0
  8 10  1  0  0  0  0
 10 29  1  0  0  0  0
 10  4  1  0  0  0  0
 11  9  1  0  0  0  0
 12  8  1  0  0  0  0
 13 24  1  1  0  0  0
 13 12  1  0  0  0  0
 13  5  1  0  0  0  0
 14 21  1  0  0  0  0
 16 14  2  0  0  0  0
 16 20  1  0  0  0  0
 18 15  1  0  0  0  0
 18 17  1  0  0  0  0
 20 18  2  0  0  0  0
 21 19  1  0  0  0  0
 21 15  2  0  0  0  0
 22 23  2  0  0  0  0
 23 24  1  0  0  0  0
 25 23  1  0  0  0  0
 27 26  2  0  0  0  0
 27 25  1  0  0  0  0
 28 27  1  0  0  0  0
 30 31  1  0  0  0  0
 30 29  1  0  0  0  0
 32 31  1  0  0  0  0
 33 32  1  0  0  0  0
 34 33  1  0  0  0  0
 35 34  1  0  0  0  0
 36 35  1  0  0  0  0
 37 36  1  0  0  0  0
 38 37  1  0  0  0  0
M  END
>  <MODEL>
3

>  <REMARK>
 VINA RESULT:      -7.1      1.480      3.180
  Name = 
  13 active torsions:
  status: ('A' for Active; 'I' for Inactive)
    1  A    between atoms: N_2  and  C_3
    2  A    between atoms: N_2  and  C_15
    3  A    between atoms: C_3  and  C_8
    4  A    between atoms: C_5  and  C_9
    5  A    between atoms: C_8  and  N_33
    6  A    between atoms: C_15  and  C_30
    7  A    between atoms: C_16  and  C_27
    8  A    between atoms: C_19  and  C_27
    9  A    between atoms: C_20  and  C_30
   10  A    between atoms: N_24  and  C_29
   11  A    between atoms: C_29  and  C_37
   12  A    between atoms: C_31  and  N_38
   13  A    between atoms: N_33  and  C_37
                            x       y       z     vdW  Elec       q    Type
                         _______ _______ _______ _____ _____    ______ ____

>  <TORSDO>
F 13

$$$$
=
 OpenBabel11042410443D

 38 40  0  0  1  0  0  0  0  0999 V2000
  188.9790  175.0290  136.9820 C   0  0  0  0  0  0  0  0  0  0  0  0
  186.7300  176.9870  137.1730 C   0  0  2  0  0  3  0  0  0  0  0  0
  189.9820  177.0830  136.9560 C   0  0  0  0  0  2  0  0  0  0  0  0
  189.2090  177.8660  137.7110 C   0  0  1  0  0  3  0  0  0  0  0  0
  191.0720  175.1050  138.0760 O   0  0  0  0  0  0  0  0  0  0  0  0
  190.0690  175.6670  137.2810 C   0  0  0  0  0  0  0  0  0  0  0  0
  187.7580  178.4940  136.8480 S   0  0  0  0  0  0  0  0  0  0  0  0
  190.1030  176.9180  139.9330 C   0  0  0  0  0  2  0  0  0  0  0  0
  186.9120  175.8640  136.1300 C   0  0  0  0  0  2  0  0  0  0  0  0
  189.2070  177.7880  139.1600 N   0  0  0  0  0  0  0  0  0  0  0  0
  187.7620  174.7310  136.6450 C   0  0  0  0  0  3  0  0  0  0  0  0
  191.5580  177.0870  139.5020 C   0  0  0  0  0  2  0  0  0  0  0  0
  192.0950  175.8740  138.7250 C   0  0  2  0  0  3  0  0  0  0  0  0
  184.3890  176.8860  136.3120 C   0  0  0  0  0  3  0  0  0  0  0  0
  182.5700  178.0320  137.4250 C   0  0  0  0  0  3  0  0  0  0  0  0
  185.2830  177.3470  137.2840 C   0  0  0  0  0  0  0  0  0  0  0  0
  182.9690  179.3700  139.4970 C   0  0  0  0  0  1  0  0  0  0  0  0
  183.4610  178.5090  138.3910 C   0  0  0  0  0  0  0  0  0  0  0  0
  182.0890  176.7190  135.3540 C   0  0  0  0  0  1  0  0  0  0  0  0
  184.8150  178.1700  138.3200 C   0  0  0  0  0  3  0  0  0  0  0  0
  183.0340  177.2220  136.3850 C   0  0  0  0  0  0  0  0  0  0  0  0
  194.9000  175.9170  136.3610 O   0  0  0  0  0  0  0  0  0  0  0  0
  194.0710  175.4500  137.1840 C   0  0  0  0  0  0  0  0  0  0  0  0
  193.0890  176.3170  137.7570 N   0  0  0  0  0  2  0  0  0  0  0  0
  194.1670  174.0110  137.5790 C   0  0  0  0  0  2  0  0  0  0  0  0
  195.7000  172.6790  138.8310 O   0  0  0  0  0  0  0  0  0  0  0  0
  195.2270  173.8240  138.6100 C   0  0  0  0  0  0  0  0  0  0  0  0
  195.7140  174.9450  139.3370 N   0  0  0  0  0  1  0  0  0  0  0  0
  188.4300  178.7520  139.9290 C   0  0  0  0  0  2  0  0  0  0  0  0
  187.8620  178.1110  141.1820 C   0  0  0  0  0  2  0  0  0  0  0  0
  186.5380  178.6420  141.4550 N   0  0  0  0  0  2  0  0  0  0  0  0
  186.2170  178.2850  142.8250 C   0  0  0  0  0  2  0  0  0  0  0  0
  187.2800  177.3480  143.3790 C   0  0  0  0  0  2  0  0  0  0  0  0
  186.9680  176.9830  144.7530 N   0  0  0  0  0  2  0  0  0  0  0  0
  187.7060  177.8870  145.6220 C   0  0  0  0  0  2  0  0  0  0  0  0
  189.1090  177.3570  145.8490 C   0  0  0  0  0  2  0  0  0  0  0  0
  189.2910  176.9550  147.3010 C   0  0  0  0  0  2  0  0  0  0  0  0
  188.3160  177.7280  148.1630 C   0  0  0  0  0  1  0  0  0  0  0  0
  1  6  2  0  0  0  0
  2 16  1  6  0  0  0
  3  6  1  0  0  0  0
  4  3  1  6  0  0  0
  4 10  1  0  0  0  0
  5 13  1  0  0  0  0
  6  5  1  0  0  0  0
  7  2  1  0  0  0  0
  7  4  1  0  0  0  0
  9 11  1  0  0  0  0
  9  2  1  0  0  0  0
 10 29  1  0  0  0  0
 10  8  1  0  0  0  0
 11  1  2  0  0  0  0
 12  8  1  0  0  0  0
 13 24  1  6  0  0  0
 13 12  1  0  0  0  0
 14 21  2  0  0  0  0
 14 16  1  0  0  0  0
 15 18  2  0  0  0  0
 16 20  2  0  0  0  0
 18 17  1  0  0  0  0
 19 21  1  0  0  0  0
 20 18  1  0  0  0  0
 21 15  1  0  0  0  0
 22 23  2  0  0  0  0
 23 25  1  0  0  0  0
 23 24  1  0  0  0  0
 25 27  1  0  0  0  0
 27 26  2  0  0  0  0
 27 28  1  0  0  0  0
 29 30  1  0  0  0  0
 30 31  1  0  0  0  0
 31 32  1  0  0  0  0
 32 33  1  0  0  0  0
 33 34  1  0  0  0  0
 34 35  1  0  0  0  0
 35 36  1  0  0  0  0
 36 37  1  0  0  0  0
 37 38  1  0  0  0  0
M  END
>  <MODEL>
4

>  <REMARK>
 VINA RESULT:      -6.9      2.675      6.802
  Name = 
  13 active torsions:
  status: ('A' for Active; 'I' for Inactive)
    1  A    between atoms: N_2  and  C_3
    2  A    between atoms: N_2  and  C_15
    3  A    between atoms: C_3  and  C_8
    4  A    between atoms: C_5  and  C_9
    5  A    between atoms: C_8  and  N_33
    6  A    between atoms: C_15  and  C_30
    7  A    between atoms: C_16  and  C_27
    8  A    between atoms: C_19  and  C_27
    9  A    between atoms: C_20  and  C_30
   10  A    between atoms: N_24  and  C_29
   11  A    between atoms: C_29  and  C_37
   12  A    between atoms: C_31  and  N_38
   13  A    between atoms: N_33  and  C_37
                            x       y       z     vdW  Elec       q    Type
                         _______ _______ _______ _____ _____    ______ ____

>  <TORSDO>
F 13

$$$$
=
 OpenBabel11042410443D

 38 40  0  0  1  0  0  0  0  0999 V2000
  188.9770  175.0130  136.8730 C   0  0  0  0  0  0  0  0  0  0  0  0
  186.7690  177.0110  137.1270 C   0  0  2  0  0  3  0  0  0  0  0  0
  190.0220  177.0460  136.9050 C   0  0  0  0  0  2  0  0  0  0  0  0
  189.2660  177.8220  137.6840 C   0  0  1  0  0  3  0  0  0  0  0  0
  191.0720  175.0140  137.9650 O   0  0  0  0  0  0  0  0  0  0  0  0
  190.0800  175.6200  137.1880 C   0  0  0  0  0  0  0  0  0  0  0  0
  187.8270  178.5050  136.8430 S   0  0  0  0  0  0  0  0  0  0  0  0
  190.1440  176.7910  139.8760 C   0  0  0  0  0  2  0  0  0  0  0  0
  186.9260  175.9150  136.0520 C   0  0  0  0  0  2  0  0  0  0  0  0
  189.2650  177.7020  139.1310 N   0  0  0  0  0  0  0  0  0  0  0  0
  187.7520  174.7500  136.5310 C   0  0  0  0  0  3  0  0  0  0  0  0
  191.6020  176.9430  139.4470 C   0  0  0  0  0  2  0  0  0  0  0  0
  192.1120  175.7420  138.6330 C   0  0  2  0  0  3  0  0  0  0  0  0
  184.9200  178.1550  138.3540 C   0  0  0  0  0  3  0  0  0  0  0  0
  182.6370  178.1110  137.5510 C   0  0  0  0  0  3  0  0  0  0  0  0
  185.3300  177.3980  137.2510 C   0  0  0  0  0  0  0  0  0  0  0  0
  182.0370  176.9110  135.4440 C   0  0  0  0  0  1  0  0  0  0  0  0
  183.0370  177.3430  136.4540 C   0  0  0  0  0  0  0  0  0  0  0  0
  183.1540  179.3300  139.6700 C   0  0  0  0  0  1  0  0  0  0  0  0
  184.3800  176.9840  136.3050 C   0  0  0  0  0  3  0  0  0  0  0  0
  183.5790  178.5160  138.5010 C   0  0  0  0  0  0  0  0  0  0  0  0
  195.0110  175.8370  136.3860 O   0  0  0  0  0  0  0  0  0  0  0  0
  194.1820  175.3650  137.2070 C   0  0  0  0  0  0  0  0  0  0  0  0
  193.1130  176.1920  137.6760 N   0  0  0  0  0  2  0  0  0  0  0  0
  194.3650  173.9690  137.7080 C   0  0  0  0  0  2  0  0  0  0  0  0
  196.2940  172.9200  138.6400 O   0  0  0  0  0  0  0  0  0  0  0  0
  195.5100  173.9040  138.6600 C   0  0  0  0  0  0  0  0  0  0  0  0
  195.7250  174.9640  139.5840 N   0  0  0  0  0  1  0  0  0  0  0  0
  188.5100  178.6590  139.9300 C   0  0  0  0  0  2  0  0  0  0  0  0
  188.0000  178.0140  141.2060 C   0  0  0  0  0  2  0  0  0  0  0  0
  186.7640  178.6520  141.6240 N   0  0  0  0  0  2  0  0  0  0  0  0
  186.3840  178.0420  142.8860 C   0  0  0  0  0  2  0  0  0  0  0  0
  187.6000  177.3980  143.5360 C   0  0  0  0  0  2  0  0  0  0  0  0
  187.5200  177.5120  144.9850 N   0  0  0  0  0  2  0  0  0  0  0  0
  188.8510  177.2610  145.5160 C   0  0  0  0  0  2  0  0  0  0  0  0
  189.8690  178.1180  144.7890 C   0  0  0  0  0  2  0  0  0  0  0  0
  191.1680  177.3550  144.6100 C   0  0  0  0  0  2  0  0  0  0  0  0
  191.5830  176.7500  145.9350 C   0  0  0  0  0  1  0  0  0  0  0  0
  1  6  2  0  0  0  0
  2 16  1  6  0  0  0
  3  6  1  0  0  0  0
  4  3  1  6  0  0  0
  4 10  1  0  0  0  0
  5 13  1  0  0  0  0
  6  5  1  0  0  0  0
  7  2  1  0  0  0  0
  7  4  1  0  0  0  0
  9 11  1  0  0  0  0
  9  2  1  0  0  0  0
 10  8  1  0  0  0  0
 10 29  1  0  0  0  0
 11  1  2  0  0  0  0
 12  8  1  0  0  0  0
 13 24  1  6  0  0  0
 13 12  1  0  0  0  0
 14 21  1  0  0  0  0
 15 21  2  0  0  0  0
 16 14  2  0  0  0  0
 17 18  1  0  0  0  0
 18 15  1  0  0  0  0
 20 18  2  0  0  0  0
 20 16  1  0  0  0  0
 21 19  1  0  0  0  0
 22 23  2  0  0  0  0
 23 24  1  0  0  0  0
 23 25  1  0  0  0  0
 25 27  1  0  0  0  0
 26 27  2  0  0  0  0
 27 28  1  0  0  0  0
 29 30  1  0  0  0  0
 30 31  1  0  0  0  0
 31 32  1  0  0  0  0
 32 33  1  0  0  0  0
 33 34  1  0  0  0  0
 34 35  1  0  0  0  0
 36 35  1  0  0  0  0
 37 36  1  0  0  0  0
 37 38  1  0  0  0  0
M  END
>  <MODEL>
5

>  <REMARK>
 VINA RESULT:      -6.8      2.675      6.887
  Name = 
  13 active torsions:
  status: ('A' for Active; 'I' for Inactive)
    1  A    between atoms: N_2  and  C_3
    2  A    between atoms: N_2  and  C_15
    3  A    between atoms: C_3  and  C_8
    4  A    between atoms: C_5  and  C_9
    5  A    between atoms: C_8  and  N_33
    6  A    between atoms: C_15  and  C_30
    7  A    between atoms: C_16  and  C_27
    8  A    between atoms: C_19  and  C_27
    9  A    between atoms: C_20  and  C_30
   10  A    between atoms: N_24  and  C_29
   11  A    between atoms: C_29  and  C_37
   12  A    between atoms: C_31  and  N_38
   13  A    between atoms: N_33  and  C_37
                            x       y       z     vdW  Elec       q    Type
                         _______ _______ _______ _____ _____    ______ ____

>  <TORSDO>
F 13

$$$$
=
 OpenBabel11042410443D

 38 40  0  0  1  0  0  0  0  0999 V2000
  191.3610  177.4730  142.1910 C   0  0  0  0  0  0  0  0  0  0  0  0
  189.1680  177.3750  144.2190 C   0  0  2  0  0  3  0  0  0  0  0  0
  189.6730  176.3140  141.1770 C   0  0  0  0  0  2  0  0  0  0  0  0
  188.5440  176.8310  141.6650 C   0  0  1  0  0  3  0  0  0  0  0  0
  191.1790  177.8540  139.8670 O   0  0  0  0  0  0  0  0  0  0  0  0
  190.8340  177.1800  141.0430 C   0  0  0  0  0  0  0  0  0  0  0  0
  188.0970  176.1850  143.2870 S   0  0  0  0  0  0  0  0  0  0  0  0
  188.6480  178.9340  140.1820 C   0  0  0  0  0  2  0  0  0  0  0  0
  190.6280  176.9070  144.3900 C   0  0  0  0  0  2  0  0  0  0  0  0
  188.0320  178.1210  141.2390 N   0  0  0  0  0  0  0  0  0  0  0  0
  191.5770  177.6210  143.4630 C   0  0  0  0  0  3  0  0  0  0  0  0
  188.8930  178.1160  138.9150 C   0  0  0  0  0  2  0  0  0  0  0  0
  190.3830  177.8250  138.6740 C   0  0  2  0  0  3  0  0  0  0  0  0
  187.1940  177.8880  145.6570 C   0  0  0  0  0  3  0  0  0  0  0  0
  187.4190  178.3160  148.0290 C   0  0  0  0  0  3  0  0  0  0  0  0
  188.5740  177.6870  145.5550 C   0  0  0  0  0  0  0  0  0  0  0  0
  189.6560  178.2570  149.1390 C   0  0  0  0  0  1  0  0  0  0  0  0
  188.8010  178.1300  147.9320 C   0  0  0  0  0  0  0  0  0  0  0  0
  185.1470  178.3980  146.9940 C   0  0  0  0  0  1  0  0  0  0  0  0
  189.3790  177.8190  146.6970 C   0  0  0  0  0  3  0  0  0  0  0  0
  186.6160  178.1960  146.8920 C   0  0  0  0  0  0  0  0  0  0  0  0
  190.4140  175.2080  136.1020 O   0  0  0  0  0  0  0  0  0  0  0  0
  190.2750  176.3540  136.6030 C   0  0  0  0  0  0  0  0  0  0  0  0
  190.5250  176.5420  137.9990 N   0  0  0  0  0  2  0  0  0  0  0  0
  189.8050  177.4780  135.7370 C   0  0  0  0  0  2  0  0  0  0  0  0
  187.5130  178.1370  135.8060 O   0  0  0  0  0  0  0  0  0  0  0  0
  188.3640  177.3050  135.3970 C   0  0  0  0  0  0  0  0  0  0  0  0
  187.9520  176.2040  134.5960 N   0  0  0  0  0  1  0  0  0  0  0  0
  186.7330  178.5730  141.7200 C   0  0  0  0  0  2  0  0  0  0  0  0
  185.7970  178.8580  140.5590 C   0  0  0  0  0  2  0  0  0  0  0  0
  184.4350  178.5110  140.9240 N   0  0  0  0  0  2  0  0  0  0  0  0
  183.5610  179.3830  140.1590 C   0  0  0  0  0  2  0  0  0  0  0  0
  182.1470  178.8210  140.1510 C   0  0  0  0  0  2  0  0  0  0  0  0
  181.9280  177.9850  141.3230 N   0  0  0  0  0  2  0  0  0  0  0  0
  180.8290  178.5710  142.0760 C   0  0  0  0  0  2  0  0  0  0  0  0
  181.3730  179.4010  143.2230 C   0  0  0  0  0  2  0  0  0  0  0  0
  182.4500  178.6320  143.9650 C   0  0  0  0  0  2  0  0  0  0  0  0
  183.6790  179.5050  144.1160 C   0  0  0  0  0  1  0  0  0  0  0  0
  1 11  2  0  0  0  0
  2  9  1  0  0  0  0
  2 16  1  1  0  0  0
  4  3  1  1  0  0  0
  4  7  1  0  0  0  0
  5  6  1  0  0  0  0
  6  3  1  0  0  0  0
  6  1  2  0  0  0  0
  7  2  1  0  0  0  0
  8 10  1  0  0  0  0
 10  4  1  0  0  0  0
 10 29  1  0  0  0  0
 11  9  1  0  0  0  0
 12  8  1  0  0  0  0
 13 24  1  1  0  0  0
 13 12  1  0  0  0  0
 13  5  1  0  0  0  0
 14 21  1  0  0  0  0
 16 14  2  0  0  0  0
 16 20  1  0  0  0  0
 18 15  1  0  0  0  0
 18 17  1  0  0  0  0
 20 18  2  0  0  0  0
 21 19  1  0  0  0  0
 21 15  2  0  0  0  0
 22 23  2  0  0  0  0
 23 24  1  0  0  0  0
 25 23  1  0  0  0  0
 27 25  1  0  0  0  0
 27 26  2  0  0  0  0
 28 27  1  0  0  0  0
 30 31  1  0  0  0  0
 30 29  1  0  0  0  0
 32 31  1  0  0  0  0
 33 32  1  0  0  0  0
 33 34  1  0  0  0  0
 34 35  1  0  0  0  0
 35 36  1  0  0  0  0
 36 37  1  0  0  0  0
 37 38  1  0  0  0  0
M  END
>  <MODEL>
6

>  <REMARK>
 VINA RESULT:      -6.8      1.577      2.687
  Name = 
  13 active torsions:
  status: ('A' for Active; 'I' for Inactive)
    1  A    between atoms: N_2  and  C_3
    2  A    between atoms: N_2  and  C_15
    3  A    between atoms: C_3  and  C_8
    4  A    between atoms: C_5  and  C_9
    5  A    between atoms: C_8  and  N_33
    6  A    between atoms: C_15  and  C_30
    7  A    between atoms: C_16  and  C_27
    8  A    between atoms: C_19  and  C_27
    9  A    between atoms: C_20  and  C_30
   10  A    between atoms: N_24  and  C_29
   11  A    between atoms: C_29  and  C_37
   12  A    between atoms: C_31  and  N_38
   13  A    between atoms: N_33  and  C_37
                            x       y       z     vdW  Elec       q    Type
                         _______ _______ _______ _____ _____    ______ ____

>  <TORSDO>
F 13

$$$$
=
 OpenBabel11042410443D

 38 40  0  0  1  0  0  0  0  0999 V2000
  189.3240  177.3260  135.3170 C   0  0  0  0  0  0  0  0  0  0  0  0
  191.6930  175.8830  136.4270 C   0  0  2  0  0  3  0  0  0  0  0  0
  188.5020  176.0980  137.0610 C   0  0  0  0  0  2  0  0  0  0  0  0
  189.4920  176.0430  137.9540 C   0  0  1  0  0  3  0  0  0  0  0  0
  187.5710  178.3740  136.5040 O   0  0  0  0  0  0  0  0  0  0  0  0
  188.3910  177.2780  136.2170 C   0  0  0  0  0  0  0  0  0  0  0  0
  190.7340  174.7940  137.5790 S   0  0  0  0  0  0  0  0  0  0  0  0
  189.0940  178.4380  138.8170 C   0  0  0  0  0  2  0  0  0  0  0  0
  191.1800  175.8670  134.9710 C   0  0  0  0  0  2  0  0  0  0  0  0
  189.8390  177.1730  138.7980 N   0  0  0  0  0  0  0  0  0  0  0  0
  190.3980  177.1060  134.6210 C   0  0  0  0  0  3  0  0  0  0  0  0
  187.5940  178.2030  138.9880 C   0  0  0  0  0  2  0  0  0  0  0  0
  186.7960  178.4910  137.7060 C   0  0  2  0  0  3  0  0  0  0  0  0
  193.6220  174.6780  137.4560 C   0  0  0  0  0  3  0  0  0  0  0  0
  195.8700  174.8840  136.5810 C   0  0  0  0  0  3  0  0  0  0  0  0
  193.1470  175.5330  136.4570 C   0  0  0  0  0  0  0  0  0  0  0  0
  196.3500  176.3220  134.5950 C   0  0  0  0  0  1  0  0  0  0  0  0
  195.4040  175.7510  135.5880 C   0  0  0  0  0  0  0  0  0  0  0  0
  195.4740  173.4290  138.5730 C   0  0  0  0  0  1  0  0  0  0  0  0
  194.0470  176.0780  135.5270 C   0  0  0  0  0  3  0  0  0  0  0  0
  194.9780  174.3480  137.5150 C   0  0  0  0  0  0  0  0  0  0  0  0
  183.4290  177.1110  138.1750 O   0  0  0  0  0  0  0  0  0  0  0  0
  184.3810  177.9290  138.2650 C   0  0  0  0  0  0  0  0  0  0  0  0
  185.6340  177.6170  137.6490 N   0  0  0  0  0  2  0  0  0  0  0  0
  184.1930  179.1830  139.0560 C   0  0  0  0  0  2  0  0  0  0  0  0
  183.3510  178.2070  141.0630 O   0  0  0  0  0  0  0  0  0  0  0  0
  184.2540  178.8920  140.5170 C   0  0  0  0  0  0  0  0  0  0  0  0
  185.3430  179.3790  141.2920 N   0  0  0  0  0  1  0  0  0  0  0  0
  190.8490  177.0080  139.8370 C   0  0  0  0  0  2  0  0  0  0  0  0
  190.2370  177.1800  141.2160 C   0  0  0  0  0  2  0  0  0  0  0  0
  191.2700  177.5230  142.1770 N   0  0  0  0  0  2  0  0  0  0  0  0
  191.1450  176.5870  143.2800 C   0  0  0  0  0  2  0  0  0  0  0  0
  191.0600  177.3460  144.5950 C   0  0  0  0  0  2  0  0  0  0  0  0
  189.7320  177.9160  144.7660 N   0  0  0  0  0  2  0  0  0  0  0  0
  188.7700  176.8340  144.6180 C   0  0  0  0  0  2  0  0  0  0  0  0
  187.3620  177.3950  144.5790 C   0  0  0  0  0  2  0  0  0  0  0  0
  186.8340  177.5880  145.9890 C   0  0  0  0  0  2  0  0  0  0  0  0
  185.7290  178.6240  145.9740 C   0  0  0  0  0  1  0  0  0  0  0  0
  1  6  2  0  0  0  0
  2 16  1  6  0  0  0
  2  7  1  0  0  0  0
  4  3  1  6  0  0  0
  4 10  1  0  0  0  0
  5 13  1  0  0  0  0
  6  5  1  0  0  0  0
  6  3  1  0  0  0  0
  7  4  1  0  0  0  0
  8 12  1  0  0  0  0
  9  2  1  0  0  0  0
 10  8  1  0  0  0  0
 10 29  1  0  0  0  0
 11  9  1  0  0  0  0
 11  1  2  0  0  0  0
 13 24  1  6  0  0  0
 13 12  1  0  0  0  0
 14 21  1  0  0  0  0
 15 21  2  0  0  0  0
 16 14  2  0  0  0  0
 17 18  1  0  0  0  0
 18 15  1  0  0  0  0
 20 18  2  0  0  0  0
 20 16  1  0  0  0  0
 21 19  1  0  0  0  0
 22 23  2  0  0  0  0
 23 25  1  0  0  0  0
 24 23  1  0  0  0  0
 25 27  1  0  0  0  0
 27 26  2  0  0  0  0
 27 28  1  0  0  0  0
 29 30  1  0  0  0  0
 30 31  1  0  0  0  0
 31 32  1  0  0  0  0
 32 33  1  0  0  0  0
 33 34  1  0  0  0  0
 35 34  1  0  0  0  0
 36 35  1  0  0  0  0
 36 37  1  0  0  0  0
 38 37  1  0  0  0  0
M  END
>  <MODEL>
7

>  <REMARK>
 VINA RESULT:      -6.6      3.093      8.953
  Name = 
  13 active torsions:
  status: ('A' for Active; 'I' for Inactive)
    1  A    between atoms: N_2  and  C_3
    2  A    between atoms: N_2  and  C_15
    3  A    between atoms: C_3  and  C_8
    4  A    between atoms: C_5  and  C_9
    5  A    between atoms: C_8  and  N_33
    6  A    between atoms: C_15  and  C_30
    7  A    between atoms: C_16  and  C_27
    8  A    between atoms: C_19  and  C_27
    9  A    between atoms: C_20  and  C_30
   10  A    between atoms: N_24  and  C_29
   11  A    between atoms: C_29  and  C_37
   12  A    between atoms: C_31  and  N_38
   13  A    between atoms: N_33  and  C_37
                            x       y       z     vdW  Elec       q    Type
                         _______ _______ _______ _____ _____    ______ ____

>  <TORSDO>
F 13

$$$$
=
 OpenBabel11042410443D

 38 40  0  0  1  0  0  0  0  0999 V2000
  191.5090  177.1920  142.3890 C   0  0  0  0  0  0  0  0  0  0  0  0
  189.1680  177.3530  144.2390 C   0  0  2  0  0  3  0  0  0  0  0  0
  189.8080  176.1420  141.2790 C   0  0  0  0  0  2  0  0  0  0  0  0
  188.6940  176.7700  141.6610 C   0  0  1  0  0  3  0  0  0  0  0  0
  191.5380  177.5010  140.0470 O   0  0  0  0  0  0  0  0  0  0  0  0
  191.0470  176.9020  141.2120 C   0  0  0  0  0  0  0  0  0  0  0  0
  188.0710  176.2240  143.2610 S   0  0  0  0  0  0  0  0  0  0  0  0
  189.0940  178.8010  140.1280 C   0  0  0  0  0  2  0  0  0  0  0  0
  190.5640  176.7700  144.5390 C   0  0  0  0  0  2  0  0  0  0  0  0
  188.3310  178.0820  141.1570 N   0  0  0  0  0  0  0  0  0  0  0  0
  191.6390  177.3660  143.6690 C   0  0  0  0  0  3  0  0  0  0  0  0
  189.3620  177.9200  138.9110 C   0  0  0  0  0  2  0  0  0  0  0  0
  190.8360  177.4950  138.7960 C   0  0  2  0  0  3  0  0  0  0  0  0
  189.2710  177.8850  146.6760 C   0  0  0  0  0  3  0  0  0  0  0  0
  187.2940  178.4850  147.9360 C   0  0  0  0  0  3  0  0  0  0  0  0
  188.5020  177.7630  145.5140 C   0  0  0  0  0  0  0  0  0  0  0  0
  185.0530  178.5990  146.8370 C   0  0  0  0  0  1  0  0  0  0  0  0
  186.5170  178.3510  146.7820 C   0  0  0  0  0  0  0  0  0  0  0  0
  189.4970  178.3890  149.1110 C   0  0  0  0  0  1  0  0  0  0  0  0
  187.1180  177.9880  145.5730 C   0  0  0  0  0  3  0  0  0  0  0  0
  188.6710  178.2510  147.8830 C   0  0  0  0  0  0  0  0  0  0  0  0
  192.0410  174.5780  136.9250 O   0  0  0  0  0  0  0  0  0  0  0  0
  192.0580  175.7260  137.4400 C   0  0  0  0  0  0  0  0  0  0  0  0
  190.9170  176.1810  138.1730 N   0  0  0  0  0  2  0  0  0  0  0  0
  193.2490  176.6030  137.2280 C   0  0  0  0  0  2  0  0  0  0  0  0
  195.2680  175.6830  136.3510 O   0  0  0  0  0  0  0  0  0  0  0  0
  194.5060  175.8110  137.3440 C   0  0  0  0  0  0  0  0  0  0  0  0
  194.8520  175.2080  138.5860 N   0  0  0  0  0  1  0  0  0  0  0  0
  187.0430  178.6600  141.5210 C   0  0  0  0  0  2  0  0  0  0  0  0
  186.0960  178.6550  140.3340 C   0  0  0  0  0  2  0  0  0  0  0  0
  184.9550  179.5110  140.6070 N   0  0  0  0  0  2  0  0  0  0  0  0
  183.7690  178.7600  140.2360 C   0  0  0  0  0  2  0  0  0  0  0  0
  183.9100  178.2410  138.8130 C   0  0  0  0  0  2  0  0  0  0  0  0
  183.3810  176.8890  138.7120 N   0  0  0  0  0  2  0  0  0  0  0  0
  182.8170  176.7390  137.3790 C   0  0  0  0  0  2  0  0  0  0  0  0
  181.9270  175.5120  137.3290 C   0  0  0  0  0  2  0  0  0  0  0  0
  180.5190  175.8990  136.9200 C   0  0  0  0  0  2  0  0  0  0  0  0
  179.9980  174.9050  135.9030 C   0  0  0  0  0  1  0  0  0  0  0  0
  1 11  2  0  0  0  0
  2  9  1  0  0  0  0
  2 16  1  1  0  0  0
  4  3  1  1  0  0  0
  4  7  1  0  0  0  0
  5  6  1  0  0  0  0
  6  3  1  0  0  0  0
  6  1  2  0  0  0  0
  7  2  1  0  0  0  0
  8 10  1  0  0  0  0
 10 29  1  0  0  0  0
 10  4  1  0  0  0  0
 11  9  1  0  0  0  0
 12  8  1  0  0  0  0
 13 24  1  1  0  0  0
 13 12  1  0  0  0  0
 13  5  1  0  0  0  0
 14 21  1  0  0  0  0
 16 20  1  0  0  0  0
 16 14  2  0  0  0  0
 18 17  1  0  0  0  0
 18 15  1  0  0  0  0
 20 18  2  0  0  0  0
 21 15  2  0  0  0  0
 21 19  1  0  0  0  0
 22 23  2  0  0  0  0
 23 24  1  0  0  0  0
 25 27  1  0  0  0  0
 25 23  1  0  0  0  0
 26 27  2  0  0  0  0
 27 28  1  0  0  0  0
 30 31  1  0  0  0  0
 30 29  1  0  0  0  0
 32 31  1  0  0  0  0
 33 32  1  0  0  0  0
 34 33  1  0  0  0  0
 35 34  1  0  0  0  0
 36 35  1  0  0  0  0
 37 36  1  0  0  0  0
 38 37  1  0  0  0  0
M  END
>  <MODEL>
8

>  <REMARK>
 VINA RESULT:      -6.4      1.761      2.577
  Name = 
  13 active torsions:
  status: ('A' for Active; 'I' for Inactive)
    1  A    between atoms: N_2  and  C_3
    2  A    between atoms: N_2  and  C_15
    3  A    between atoms: C_3  and  C_8
    4  A    between atoms: C_5  and  C_9
    5  A    between atoms: C_8  and  N_33
    6  A    between atoms: C_15  and  C_30
    7  A    between atoms: C_16  and  C_27
    8  A    between atoms: C_19  and  C_27
    9  A    between atoms: C_20  and  C_30
   10  A    between atoms: N_24  and  C_29
   11  A    between atoms: C_29  and  C_37
   12  A    between atoms: C_31  and  N_38
   13  A    between atoms: N_33  and  C_37
                            x       y       z     vdW  Elec       q    Type
                         _______ _______ _______ _____ _____    ______ ____

>  <TORSDO>
F 13

$$$$
=
 OpenBabel11042410443D

 38 40  0  0  1  0  0  0  0  0999 V2000
  188.5270  175.2320  136.9380 C   0  0  0  0  0  0  0  0  0  0  0  0
  186.1940  177.0760  137.2210 C   0  0  2  0  0  3  0  0  0  0  0  0
  189.4450  177.3150  137.1520 C   0  0  0  0  0  2  0  0  0  0  0  0
  188.6120  177.9900  137.9460 C   0  0  1  0  0  3  0  0  0  0  0  0
  190.5710  175.2780  138.1220 O   0  0  0  0  0  0  0  0  0  0  0  0
  189.5770  175.8780  137.3430 C   0  0  0  0  0  0  0  0  0  0  0  0
  187.1710  178.6460  137.0870 S   0  0  0  0  0  0  0  0  0  0  0  0
  189.4580  176.8630  140.1020 C   0  0  0  0  0  2  0  0  0  0  0  0
  186.4620  176.0680  136.0840 C   0  0  0  0  0  2  0  0  0  0  0  0
  188.5570  177.7710  139.3800 N   0  0  0  0  0  0  0  0  0  0  0  0
  187.3370  174.9230  136.5220 C   0  0  0  0  0  3  0  0  0  0  0  0
  190.9210  177.1280  139.7510 C   0  0  0  0  0  2  0  0  0  0  0  0
  191.5360  176.0180  138.8840 C   0  0  2  0  0  3  0  0  0  0  0  0
  184.2140  177.9390  138.4740 C   0  0  0  0  0  3  0  0  0  0  0  0
  181.9870  177.9000  137.5260 C   0  0  0  0  0  3  0  0  0  0  0  0
  184.7300  177.3710  137.3050 C   0  0  0  0  0  0  0  0  0  0  0  0
  181.5810  176.9900  135.2350 C   0  0  0  0  0  1  0  0  0  0  0  0
  182.4940  177.3190  136.3600 C   0  0  0  0  0  0  0  0  0  0  0  0
  182.3090  178.8230  139.8250 C   0  0  0  0  0  1  0  0  0  0  0  0
  183.8620  177.0520  136.2490 C   0  0  0  0  0  3  0  0  0  0  0  0
  182.8480  178.2090  138.5830 C   0  0  0  0  0  0  0  0  0  0  0  0
  194.5280  176.4420  136.8040 O   0  0  0  0  0  0  0  0  0  0  0  0
  193.6970  175.8680  137.5550 C   0  0  0  0  0  0  0  0  0  0  0  0
  192.5470  176.5890  138.0060 N   0  0  0  0  0  2  0  0  0  0  0  0
  193.9590  174.4640  137.9950 C   0  0  0  0  0  2  0  0  0  0  0  0
  195.4380  175.1870  139.7210 O   0  0  0  0  0  0  0  0  0  0  0  0
  195.2300  174.3900  138.7700 C   0  0  0  0  0  0  0  0  0  0  0  0
  196.2050  173.4070  138.4420 N   0  0  0  0  0  1  0  0  0  0  0  0
  187.7130  178.6260  140.2050 C   0  0  0  0  0  2  0  0  0  0  0  0
  187.9600  178.3670  141.6800 C   0  0  0  0  0  2  0  0  0  0  0  0
  186.7690  177.8050  142.2920 N   0  0  0  0  0  2  0  0  0  0  0  0
  185.7890  178.8750  142.3600 C   0  0  0  0  0  2  0  0  0  0  0  0
  184.5840  178.4210  143.1700 C   0  0  0  0  0  2  0  0  0  0  0  0
  184.9990  177.9830  144.4940 N   0  0  0  0  0  2  0  0  0  0  0  0
  185.2770  179.1760  145.2800 C   0  0  0  0  0  2  0  0  0  0  0  0
  186.2180  178.8350  146.4210 C   0  0  0  0  0  2  0  0  0  0  0  0
  186.9060  177.5090  146.1570 C   0  0  0  0  0  2  0  0  0  0  0  0
  188.2950  177.7620  145.6120 C   0  0  0  0  0  1  0  0  0  0  0  0
  1  6  2  0  0  0  0
  2 16  1  6  0  0  0
  3  6  1  0  0  0  0
  4  3  1  6  0  0  0
  4 10  1  0  0  0  0
  5 13  1  0  0  0  0
  6  5  1  0  0  0  0
  7  2  1  0  0  0  0
  7  4  1  0  0  0  0
  9 11  1  0  0  0  0
  9  2  1  0  0  0  0
 10  8  1  0  0  0  0
 10 29  1  0  0  0  0
 11  1  2  0  0  0  0
 12  8  1  0  0  0  0
 13 24  1  6  0  0  0
 13 12  1  0  0  0  0
 14 21  1  0  0  0  0
 15 21  2  0  0  0  0
 16 14  2  0  0  0  0
 17 18  1  0  0  0  0
 18 15  1  0  0  0  0
 20 18  2  0  0  0  0
 20 16  1  0  0  0  0
 21 19  1  0  0  0  0
 22 23  2  0  0  0  0
 23 25  1  0  0  0  0
 23 24  1  0  0  0  0
 25 27  1  0  0  0  0
 27 26  2  0  0  0  0
 28 27  1  0  0  0  0
 29 30  1  0  0  0  0
 30 31  1  0  0  0  0
 31 32  1  0  0  0  0
 32 33  1  0  0  0  0
 33 34  1  0  0  0  0
 34 35  1  0  0  0  0
 35 36  1  0  0  0  0
 37 36  1  0  0  0  0
 38 37  1  0  0  0  0
M  END
>  <MODEL>
9

>  <REMARK>
 VINA RESULT:      -6.3      2.699      6.443
  Name = 
  13 active torsions:
  status: ('A' for Active; 'I' for Inactive)
    1  A    between atoms: N_2  and  C_3
    2  A    between atoms: N_2  and  C_15
    3  A    between atoms: C_3  and  C_8
    4  A    between atoms: C_5  and  C_9
    5  A    between atoms: C_8  and  N_33
    6  A    between atoms: C_15  and  C_30
    7  A    between atoms: C_16  and  C_27
    8  A    between atoms: C_19  and  C_27
    9  A    between atoms: C_20  and  C_30
   10  A    between atoms: N_24  and  C_29
   11  A    between atoms: C_29  and  C_37
   12  A    between atoms: C_31  and  N_38
   13  A    between atoms: N_33  and  C_37
                            x       y       z     vdW  Elec       q    Type
                         _______ _______ _______ _____ _____    ______ ____

>  <TORSDO>
F 13

$$$$
