=
 OpenBabel11032420083D

 28 30  0  0  0  0  0  0  0  0999 V2000
  189.3570  178.2480  138.3020 C   0  0  0  0  0  2  0  0  0  0  0  0
  188.6150  178.2160  139.6040 C   0  0  0  0  0  0  0  0  0  0  0  0
  190.5990  177.2670  140.7810 C   0  0  0  0  0  0  0  0  0  0  0  0
  189.7280  176.9040  137.8830 N   0  0  0  0  0  0  0  0  0  0  0  0
  191.1490  176.4990  139.8310 C   0  0  0  0  0  3  0  0  0  0  0  0
  190.5510  176.1260  138.5300 C   0  0  0  0  0  0  0  0  0  0  0  0
  189.2200  177.8020  140.7150 C   0  0  0  0  0  3  0  0  0  0  0  0
  190.9470  174.8730  137.9630 N   0  0  0  0  0  0  0  0  0  0  0  0
  191.6890  174.7800  136.9070 C   0  0  0  0  0  3  0  0  0  0  0  0
  192.0460  173.4880  136.3940 C   0  0  0  0  0  0  0  0  0  0  0  0
  192.3330  172.4470  135.9790 N   0  0  0  0  0  0  0  0  0  0  0  0
  191.3640  177.4340  142.0530 C   0  0  0  0  0  2  0  0  0  0  0  0
  190.4950  177.1870  143.2390 C   0  0  0  0  0  0  0  0  0  0  0  0
  188.7130  177.3760  145.7080 C   0  0  0  0  0  0  0  0  0  0  0  0
  186.4410  177.2790  145.1090 C   0  0  0  0  0  3  0  0  0  0  0  0
  187.8020  177.1130  144.6070 C   0  0  0  0  0  0  0  0  0  0  0  0
  186.4530  177.5540  146.3780 N   0  0  0  0  0  0  0  0  0  0  0  0
  190.7790  177.8080  144.3890 C   0  0  0  0  0  3  0  0  0  0  0  0
  189.9960  177.7400  145.6390 C   0  0  0  0  0  3  0  0  0  0  0  0
  189.4450  176.1230  143.1230 C   0  0  0  0  0  2  0  0  0  0  0  0
  187.8090  177.5900  146.8280 C   0  0  0  0  0  0  0  0  0  0  0  0
  188.2400  178.1600  148.3000 S   0  0  0  0  0  0  0  0  0  0  0  0
  188.1050  176.5950  143.4580 N   0  0  0  0  0  0  0  0  0  0  0  0
  187.2900  178.6630  139.6890 O   0  0  0  0  0  0  0  0  0  0  0  0
  186.5540  178.6750  140.9070 C   0  0  0  0  0  2  0  0  0  0  0  0
  185.1030  179.0490  140.6400 C   0  0  0  0  0  2  0  0  0  0  0  0
  184.2270  180.4390  139.0870 O   0  0  0  0  0  1  0  0  0  0  0  0
  184.8970  179.2660  139.2150 N   0  0  0  0  0  2  0  0  0  0  0  0
  1  2  1  0  0  0  0
  2 24  1  0  0  0  0
  2  7  2  0  0  0  0
  3 12  1  0  0  0  0
  4  1  1  0  0  0  0
  4  6  2  0  0  0  0
  5  3  2  0  0  0  0
  6  5  1  0  0  0  0
  7  3  1  0  0  0  0
  8  6  1  0  0  0  0
  9  8  2  0  0  0  0
 10  9  1  0  0  0  0
 11 10  3  0  0  0  0
 12 13  1  0  0  0  0
 13 18  2  0  0  0  0
 14 21  1  0  0  0  0
 15 17  2  0  0  0  0
 16 15  1  0  0  0  0
 16 14  1  0  0  0  0
 17 21  1  0  0  0  0
 18 19  1  0  0  0  0
 19 14  2  0  0  0  0
 20 13  1  0  0  0  0
 20 23  1  0  0  0  0
 21 22  2  0  0  0  0
 23 16  2  0  0  0  0
 24 25  1  0  0  0  0
 26 25  1  0  0  0  0
 27 28  1  0  0  0  0
 28 26  1  0  0  0  0
M  END
>  <MODEL>
1

>  <REMARK>
 VINA RESULT:      -8.1      0.000      0.000
  Name = 
  8 active torsions:
  status: ('A' for Active; 'I' for Inactive)
    1  A    between atoms: C_1  and  C_3
    2  A    between atoms: C_3  and  C_11
    3  A    between atoms: C_7  and  O_9
    4  A    between atoms: C_8  and  O_9
    5  A    between atoms: C_8  and  C_22
    6  A    between atoms: N_15  and  C_19
    7  A    between atoms: C_16  and  C_20
    8  A    between atoms: C_22  and  N_25
                            x       y       z     vdW  Elec       q    Type
                         _______ _______ _______ _____ _____    ______ ____

>  <TORSDO>
F 8

$$$$
=
 OpenBabel11032420083D

 28 30  0  0  0  0  0  0  0  0999 V2000
  190.2090  175.7750  142.9430 C   0  0  0  0  0  2  0  0  0  0  0  0
  190.3860  176.5410  144.2190 C   0  0  0  0  0  0  0  0  0  0  0  0
  188.0330  177.3640  144.1220 C   0  0  0  0  0  0  0  0  0  0  0  0
  189.9230  176.6740  141.8330 N   0  0  0  0  0  0  0  0  0  0  0  0
  187.8330  177.4910  142.8040 C   0  0  0  0  0  3  0  0  0  0  0  0
  188.8550  177.4170  141.7370 C   0  0  0  0  0  0  0  0  0  0  0  0
  189.3670  177.2180  144.7460 C   0  0  0  0  0  3  0  0  0  0  0  0
  188.6120  178.1680  140.5430 N   0  0  0  0  0  0  0  0  0  0  0  0
  189.3140  178.0250  139.4650 C   0  0  0  0  0  3  0  0  0  0  0  0
  189.0120  178.8140  138.3050 C   0  0  0  0  0  0  0  0  0  0  0  0
  188.7680  179.4510  137.3700 N   0  0  0  0  0  0  0  0  0  0  0  0
  186.8520  177.5620  145.0150 C   0  0  0  0  0  2  0  0  0  0  0  0
  185.7090  178.1630  144.2680 C   0  0  0  0  0  0  0  0  0  0  0  0
  183.2230  178.7250  142.5910 C   0  0  0  0  0  0  0  0  0  0  0  0
  181.3280  178.9700  143.9610 C   0  0  0  0  0  3  0  0  0  0  0  0
  182.7830  178.8560  143.9700 C   0  0  0  0  0  0  0  0  0  0  0  0
  180.8770  178.9730  142.7430 N   0  0  0  0  0  0  0  0  0  0  0  0
  185.4840  177.7710  143.0090 C   0  0  0  0  0  3  0  0  0  0  0  0
  184.3670  178.2010  142.1440 C   0  0  0  0  0  3  0  0  0  0  0  0
  184.9730  179.2980  144.9140 C   0  0  0  0  0  2  0  0  0  0  0  0
  181.9830  178.8680  141.8430 C   0  0  0  0  0  0  0  0  0  0  0  0
  181.7990  178.5770  140.2440 S   0  0  0  0  0  0  0  0  0  0  0  0
  183.5330  179.0760  145.0040 N   0  0  0  0  0  0  0  0  0  0  0  0
  191.6060  176.5220  144.9070 O   0  0  0  0  0  0  0  0  0  0  0  0
  191.7160  176.8130  146.2960 C   0  0  0  0  0  2  0  0  0  0  0  0
  192.1740  175.5770  147.0560 C   0  0  0  0  0  2  0  0  0  0  0  0
  192.4490  177.1680  148.6400 O   0  0  0  0  0  1  0  0  0  0  0  0
  192.9370  175.9690  148.2330 N   0  0  0  0  0  2  0  0  0  0  0  0
  1  2  1  0  0  0  0
  2  7  2  0  0  0  0
  2 24  1  0  0  0  0
  3  7  1  0  0  0  0
  3 12  1  0  0  0  0
  4  1  1  0  0  0  0
  5  3  2  0  0  0  0
  6  4  2  0  0  0  0
  6  5  1  0  0  0  0
  8  6  1  0  0  0  0
  9  8  2  0  0  0  0
 10  9  1  0  0  0  0
 11 10  3  0  0  0  0
 13 20  1  0  0  0  0
 13 12  1  0  0  0  0
 14 16  1  0  0  0  0
 15 16  1  0  0  0  0
 16 23  2  0  0  0  0
 17 15  2  0  0  0  0
 18 13  2  0  0  0  0
 19 14  2  0  0  0  0
 19 18  1  0  0  0  0
 20 23  1  0  0  0  0
 21 14  1  0  0  0  0
 21 17  1  0  0  0  0
 22 21  2  0  0  0  0
 24 25  1  0  0  0  0
 25 26  1  0  0  0  0
 26 28  1  0  0  0  0
 28 27  1  0  0  0  0
M  END
>  <MODEL>
2

>  <REMARK>
 VINA RESULT:      -8.0      4.165      6.907
  Name = 
  8 active torsions:
  status: ('A' for Active; 'I' for Inactive)
    1  A    between atoms: C_1  and  C_3
    2  A    between atoms: C_3  and  C_11
    3  A    between atoms: C_7  and  O_9
    4  A    between atoms: C_8  and  O_9
    5  A    between atoms: C_8  and  C_22
    6  A    between atoms: N_15  and  C_19
    7  A    between atoms: C_16  and  C_20
    8  A    between atoms: C_22  and  N_25
                            x       y       z     vdW  Elec       q    Type
                         _______ _______ _______ _____ _____    ______ ____

>  <TORSDO>
F 8

$$$$
=
 OpenBabel11032420083D

 28 30  0  0  0  0  0  0  0  0999 V2000
  189.1730  177.8400  147.5180 C   0  0  0  0  0  2  0  0  0  0  0  0
  190.1140  176.9120  146.8120 C   0  0  0  0  0  0  0  0  0  0  0  0
  189.6610  178.0210  144.6230 C   0  0  0  0  0  0  0  0  0  0  0  0
  187.8140  177.6770  147.0230 N   0  0  0  0  0  0  0  0  0  0  0  0
  188.3730  178.3670  144.7450 C   0  0  0  0  0  3  0  0  0  0  0  0
  187.4320  177.9410  145.8040 C   0  0  0  0  0  0  0  0  0  0  0  0
  190.3420  177.0470  145.5060 C   0  0  0  0  0  3  0  0  0  0  0  0
  186.0450  177.8670  145.4570 N   0  0  0  0  0  0  0  0  0  0  0  0
  185.3190  178.9140  145.2300 C   0  0  0  0  0  3  0  0  0  0  0  0
  183.9330  178.7640  144.8870 C   0  0  0  0  0  0  0  0  0  0  0  0
  182.8160  178.6410  144.6120 N   0  0  0  0  0  0  0  0  0  0  0  0
  190.3900  178.5120  143.4160 C   0  0  0  0  0  2  0  0  0  0  0  0
  189.7820  177.9740  142.1650 C   0  0  0  0  0  0  0  0  0  0  0  0
  188.5550  177.5420  139.4050 C   0  0  0  0  0  0  0  0  0  0  0  0
  190.1980  176.9040  137.8500 C   0  0  0  0  0  3  0  0  0  0  0  0
  189.9400  177.1250  139.2690 C   0  0  0  0  0  0  0  0  0  0  0  0
  189.1170  177.0910  137.1540 N   0  0  0  0  0  0  0  0  0  0  0  0
  188.6940  178.5730  141.6670 C   0  0  0  0  0  3  0  0  0  0  0  0
  188.0010  178.2260  140.4100 C   0  0  0  0  0  3  0  0  0  0  0  0
  190.3250  176.6870  141.6240 C   0  0  0  0  0  2  0  0  0  0  0  0
  188.0550  177.4450  138.0420 C   0  0  0  0  0  0  0  0  0  0  0  0
  186.6120  178.0120  137.5170 S   0  0  0  0  0  0  0  0  0  0  0  0
  190.7400  176.7770  140.2270 N   0  0  0  0  0  0  0  0  0  0  0  0
  190.8080  175.9180  147.5140 O   0  0  0  0  0  0  0  0  0  0  0  0
  192.1690  175.5920  147.2520 C   0  0  0  0  0  2  0  0  0  0  0  0
  192.9840  175.6720  148.5350 C   0  0  0  0  0  2  0  0  0  0  0  0
  194.0380  177.1910  149.8360 O   0  0  0  0  0  1  0  0  0  0  0  0
  192.9220  177.0190  149.0840 N   0  0  0  0  0  2  0  0  0  0  0  0
  2 24  1  0  0  0  0
  2  1  1  0  0  0  0
  3  5  2  0  0  0  0
  3  7  1  0  0  0  0
  4  1  1  0  0  0  0
  5  6  1  0  0  0  0
  6  4  2  0  0  0  0
  7  2  2  0  0  0  0
  8  6  1  0  0  0  0
  9  8  2  0  0  0  0
 10  9  1  0  0  0  0
 11 10  3  0  0  0  0
 12  3  1  0  0  0  0
 13 12  1  0  0  0  0
 14 19  2  0  0  0  0
 15 16  1  0  0  0  0
 16 14  1  0  0  0  0
 16 23  2  0  0  0  0
 17 15  2  0  0  0  0
 17 21  1  0  0  0  0
 18 13  2  0  0  0  0
 19 18  1  0  0  0  0
 20 13  1  0  0  0  0
 21 14  1  0  0  0  0
 22 21  2  0  0  0  0
 23 20  1  0  0  0  0
 25 24  1  0  0  0  0
 25 26  1  0  0  0  0
 26 28  1  0  0  0  0
 28 27  1  0  0  0  0
M  END
>  <MODEL>
3

>  <REMARK>
 VINA RESULT:      -7.9      4.217      8.749
  Name = 
  8 active torsions:
  status: ('A' for Active; 'I' for Inactive)
    1  A    between atoms: C_1  and  C_3
    2  A    between atoms: C_3  and  C_11
    3  A    between atoms: C_7  and  O_9
    4  A    between atoms: C_8  and  O_9
    5  A    between atoms: C_8  and  C_22
    6  A    between atoms: N_15  and  C_19
    7  A    between atoms: C_16  and  C_20
    8  A    between atoms: C_22  and  N_25
                            x       y       z     vdW  Elec       q    Type
                         _______ _______ _______ _____ _____    ______ ____

>  <TORSDO>
F 8

$$$$
=
 OpenBabel11032420083D

 28 30  0  0  0  0  0  0  0  0999 V2000
  183.7800  179.2240  139.8170 C   0  0  0  0  0  2  0  0  0  0  0  0
  183.0290  178.3340  140.7610 C   0  0  0  0  0  0  0  0  0  0  0  0
  184.4560  179.0590  142.6740 C   0  0  0  0  0  0  0  0  0  0  0  0
  185.1760  178.8210  139.7230 N   0  0  0  0  0  0  0  0  0  0  0  0
  185.6420  179.2510  142.0830 C   0  0  0  0  0  3  0  0  0  0  0  0
  186.0270  178.8600  140.7100 C   0  0  0  0  0  0  0  0  0  0  0  0
  183.3360  178.3130  142.0560 C   0  0  0  0  0  3  0  0  0  0  0  0
  187.4080  178.5620  140.4760 N   0  0  0  0  0  0  0  0  0  0  0  0
  188.1040  177.7960  141.2530 C   0  0  0  0  0  3  0  0  0  0  0  0
  189.4860  177.5420  140.9550 C   0  0  0  0  0  0  0  0  0  0  0  0
  190.5990  177.3360  140.7150 N   0  0  0  0  0  0  0  0  0  0  0  0
  184.3310  179.4670  144.1060 C   0  0  0  0  0  2  0  0  0  0  0  0
  185.2950  178.7190  144.9640 C   0  0  0  0  0  0  0  0  0  0  0  0
  187.7290  177.6400  146.4540 C   0  0  0  0  0  0  0  0  0  0  0  0
  187.8690  178.5690  148.6090 C   0  0  0  0  0  3  0  0  0  0  0  0
  187.0140  178.4410  147.4320 C   0  0  0  0  0  0  0  0  0  0  0  0
  188.9680  177.8950  148.4500 N   0  0  0  0  0  0  0  0  0  0  0  0
  186.4430  178.2940  144.4250 C   0  0  0  0  0  3  0  0  0  0  0  0
  187.5400  177.6040  145.1320 C   0  0  0  0  0  3  0  0  0  0  0  0
  184.8500  178.3380  146.3430 C   0  0  0  0  0  2  0  0  0  0  0  0
  188.9390  177.2630  147.1690 C   0  0  0  0  0  0  0  0  0  0  0  0
  190.2510  176.5470  146.5030 S   0  0  0  0  0  0  0  0  0  0  0  0
  185.7650  178.7840  147.3890 N   0  0  0  0  0  0  0  0  0  0  0  0
  181.9620  177.5450  140.3120 O   0  0  0  0  0  0  0  0  0  0  0  0
  180.8010  178.0920  139.6940 C   0  0  0  0  0  2  0  0  0  0  0  0
  179.7670  178.4560  140.7500 C   0  0  0  0  0  2  0  0  0  0  0  0
  179.3030  177.9210  142.8970 O   0  0  0  0  0  1  0  0  0  0  0  0
  179.6190  177.3640  141.7010 N   0  0  0  0  0  2  0  0  0  0  0  0
  1  2  1  0  0  0  0
  2  7  2  0  0  0  0
  3 12  1  0  0  0  0
  4  1  1  0  0  0  0
  4  6  2  0  0  0  0
  5  3  2  0  0  0  0
  6  5  1  0  0  0  0
  7  3  1  0  0  0  0
  8  6  1  0  0  0  0
  8  9  2  0  0  0  0
 10  9  1  0  0  0  0
 11 10  3  0  0  0  0
 12 13  1  0  0  0  0
 13 20  1  0  0  0  0
 14 21  1  0  0  0  0
 14 16  1  0  0  0  0
 16 15  1  0  0  0  0
 17 15  2  0  0  0  0
 18 13  2  0  0  0  0
 18 19  1  0  0  0  0
 19 14  2  0  0  0  0
 20 23  1  0  0  0  0
 21 17  1  0  0  0  0
 22 21  2  0  0  0  0
 23 16  2  0  0  0  0
 24  2  1  0  0  0  0
 25 24  1  0  0  0  0
 25 26  1  0  0  0  0
 26 28  1  0  0  0  0
 28 27  1  0  0  0  0
M  END
>  <MODEL>
4

>  <REMARK>
 VINA RESULT:      -7.5      3.163      5.419
  Name = 
  8 active torsions:
  status: ('A' for Active; 'I' for Inactive)
    1  A    between atoms: C_1  and  C_3
    2  A    between atoms: C_3  and  C_11
    3  A    between atoms: C_7  and  O_9
    4  A    between atoms: C_8  and  O_9
    5  A    between atoms: C_8  and  C_22
    6  A    between atoms: N_15  and  C_19
    7  A    between atoms: C_16  and  C_20
    8  A    between atoms: C_22  and  N_25
                            x       y       z     vdW  Elec       q    Type
                         _______ _______ _______ _____ _____    ______ ____

>  <TORSDO>
F 8

$$$$
=
 OpenBabel11032420083D

 28 30  0  0  0  0  0  0  0  0999 V2000
  187.7250  176.6590  143.1680 C   0  0  0  0  0  2  0  0  0  0  0  0
  187.6770  177.9040  142.3370 C   0  0  0  0  0  0  0  0  0  0  0  0
  189.9980  177.5140  141.5090 C   0  0  0  0  0  0  0  0  0  0  0  0
  188.7600  176.7540  144.1880 N   0  0  0  0  0  0  0  0  0  0  0  0
  190.5830  176.9450  142.5700 C   0  0  0  0  0  3  0  0  0  0  0  0
  190.0370  176.8460  143.9420 C   0  0  0  0  0  0  0  0  0  0  0  0
  188.7090  178.2420  141.5660 C   0  0  0  0  0  3  0  0  0  0  0  0
  190.9780  176.8050  145.0200 N   0  0  0  0  0  0  0  0  0  0  0  0
  190.6390  176.5430  146.2410 C   0  0  0  0  0  3  0  0  0  0  0  0
  191.6390  176.5200  147.2720 C   0  0  0  0  0  0  0  0  0  0  0  0
  192.4440  176.5030  148.1020 N   0  0  0  0  0  0  0  0  0  0  0  0
  190.7850  177.5680  140.2400 C   0  0  0  0  0  2  0  0  0  0  0  0
  189.9050  177.3600  139.0540 C   0  0  0  0  0  0  0  0  0  0  0  0
  187.8490  176.4130  137.0090 C   0  0  0  0  0  0  0  0  0  0  0  0
  185.8680  177.6680  137.1720 C   0  0  0  0  0  3  0  0  0  0  0  0
  187.2540  177.5870  137.6230 C   0  0  0  0  0  0  0  0  0  0  0  0
  185.6050  176.7140  136.3300 N   0  0  0  0  0  0  0  0  0  0  0  0
  189.7870  176.1290  138.5450 C   0  0  0  0  0  3  0  0  0  0  0  0
  188.9150  175.7230  137.4250 C   0  0  0  0  0  3  0  0  0  0  0  0
  189.3310  178.5760  138.3920 C   0  0  0  0  0  2  0  0  0  0  0  0
  186.7830  175.9260  136.1470 C   0  0  0  0  0  0  0  0  0  0  0  0
  186.7730  174.4860  135.3690 S   0  0  0  0  0  0  0  0  0  0  0  0
  187.8780  178.5290  138.2580 N   0  0  0  0  0  0  0  0  0  0  0  0
  186.5320  178.7120  142.3150 O   0  0  0  0  0  0  0  0  0  0  0  0
  185.2110  178.1850  142.3840 C   0  0  0  0  0  2  0  0  0  0  0  0
  184.3650  178.7420  141.2490 C   0  0  0  0  0  2  0  0  0  0  0  0
  184.4020  180.0430  139.3990 O   0  0  0  0  0  1  0  0  0  0  0  0
  185.2180  179.3730  140.2520 N   0  0  0  0  0  2  0  0  0  0  0  0
  1  4  1  0  0  0  0
  2  1  1  0  0  0  0
  3  7  1  0  0  0  0
  3  5  2  0  0  0  0
  5  6  1  0  0  0  0
  6  4  2  0  0  0  0
  6  8  1  0  0  0  0
  7  2  2  0  0  0  0
  8  9  2  0  0  0  0
  9 10  1  0  0  0  0
 10 11  3  0  0  0  0
 12  3  1  0  0  0  0
 13 12  1  0  0  0  0
 14 19  2  0  0  0  0
 14 16  1  0  0  0  0
 15 16  1  0  0  0  0
 16 23  2  0  0  0  0
 17 15  2  0  0  0  0
 18 13  2  0  0  0  0
 19 18  1  0  0  0  0
 20 13  1  0  0  0  0
 21 17  1  0  0  0  0
 21 14  1  0  0  0  0
 22 21  2  0  0  0  0
 23 20  1  0  0  0  0
 24  2  1  0  0  0  0
 24 25  1  0  0  0  0
 26 25  1  0  0  0  0
 27 28  1  0  0  0  0
 28 26  1  0  0  0  0
M  END
>  <MODEL>
5

>  <REMARK>
 VINA RESULT:      -7.4      3.579      6.952
  Name = 
  8 active torsions:
  status: ('A' for Active; 'I' for Inactive)
    1  A    between atoms: C_1  and  C_3
    2  A    between atoms: C_3  and  C_11
    3  A    between atoms: C_7  and  O_9
    4  A    between atoms: C_8  and  O_9
    5  A    between atoms: C_8  and  C_22
    6  A    between atoms: N_15  and  C_19
    7  A    between atoms: C_16  and  C_20
    8  A    between atoms: C_22  and  N_25
                            x       y       z     vdW  Elec       q    Type
                         _______ _______ _______ _____ _____    ______ ____

>  <TORSDO>
F 8

$$$$
=
 OpenBabel11032420083D

 28 30  0  0  0  0  0  0  0  0999 V2000
  190.2090  176.3480  138.2680 C   0  0  0  0  0  2  0  0  0  0  0  0
  191.4170  176.7140  139.0760 C   0  0  0  0  0  0  0  0  0  0  0  0
  190.1130  176.5770  141.1990 C   0  0  0  0  0  0  0  0  0  0  0  0
  189.1660  177.3540  138.4080 N   0  0  0  0  0  0  0  0  0  0  0  0
  188.9030  176.9990  140.8120 C   0  0  0  0  0  3  0  0  0  0  0  0
  188.5490  177.6320  139.5230 C   0  0  0  0  0  0  0  0  0  0  0  0
  191.3480  176.7710  140.4050 C   0  0  0  0  0  3  0  0  0  0  0  0
  187.4490  178.5490  139.5220 N   0  0  0  0  0  0  0  0  0  0  0  0
  186.2850  178.2520  139.0410 C   0  0  0  0  0  3  0  0  0  0  0  0
  185.2290  179.2240  139.0750 C   0  0  0  0  0  0  0  0  0  0  0  0
  184.3770  180.0070  139.1030 N   0  0  0  0  0  0  0  0  0  0  0  0
  190.2410  176.0450  142.5880 C   0  0  0  0  0  2  0  0  0  0  0  0
  189.4300  176.8490  143.5480 C   0  0  0  0  0  0  0  0  0  0  0  0
  187.4770  177.8780  145.6540 C   0  0  0  0  0  0  0  0  0  0  0  0
  188.5120  178.0110  147.7600 C   0  0  0  0  0  3  0  0  0  0  0  0
  188.7560  177.7930  146.3380 C   0  0  0  0  0  0  0  0  0  0  0  0
  187.2570  178.2630  147.9760 N   0  0  0  0  0  0  0  0  0  0  0  0
  188.1010  176.7060  143.5480 C   0  0  0  0  0  3  0  0  0  0  0  0
  187.1490  177.3610  144.4670 C   0  0  0  0  0  3  0  0  0  0  0  0
  190.1390  177.9010  144.3480 C   0  0  0  0  0  2  0  0  0  0  0  0
  186.5630  178.2410  146.7260 C   0  0  0  0  0  0  0  0  0  0  0  0
  184.9300  178.2530  146.6180 S   0  0  0  0  0  0  0  0  0  0  0  0
  189.9290  177.7710  145.7860 N   0  0  0  0  0  0  0  0  0  0  0  0
  192.6500  176.9570  138.4580 O   0  0  0  0  0  0  0  0  0  0  0  0
  192.9860  176.4450  137.1720 C   0  0  0  0  0  2  0  0  0  0  0  0
  193.7650  175.1450  137.3120 C   0  0  0  0  0  2  0  0  0  0  0  0
  195.9590  175.1070  137.8550 O   0  0  0  0  0  1  0  0  0  0  0  0
  194.7260  175.2530  138.4010 N   0  0  0  0  0  2  0  0  0  0  0  0
  1  4  1  0  0  0  0
  1  2  1  0  0  0  0
  2  7  2  0  0  0  0
  3 12  1  0  0  0  0
  4  6  2  0  0  0  0
  5  3  2  0  0  0  0
  6  5  1  0  0  0  0
  7  3  1  0  0  0  0
  8  6  1  0  0  0  0
  9 10  1  0  0  0  0
  9  8  2  0  0  0  0
 10 11  3  0  0  0  0
 12 13  1  0  0  0  0
 13 20  1  0  0  0  0
 14 16  1  0  0  0  0
 14 21  1  0  0  0  0
 15 17  2  0  0  0  0
 16 15  1  0  0  0  0
 18 13  2  0  0  0  0
 18 19  1  0  0  0  0
 19 14  2  0  0  0  0
 20 23  1  0  0  0  0
 21 17  1  0  0  0  0
 22 21  2  0  0  0  0
 23 16  2  0  0  0  0
 24  2  1  0  0  0  0
 25 26  1  0  0  0  0
 25 24  1  0  0  0  0
 26 28  1  0  0  0  0
 27 28  1  0  0  0  0
M  END
>  <MODEL>
6

>  <REMARK>
 VINA RESULT:      -7.3      2.724      5.601
  Name = 
  8 active torsions:
  status: ('A' for Active; 'I' for Inactive)
    1  A    between atoms: C_1  and  C_3
    2  A    between atoms: C_3  and  C_11
    3  A    between atoms: C_7  and  O_9
    4  A    between atoms: C_8  and  O_9
    5  A    between atoms: C_8  and  C_22
    6  A    between atoms: N_15  and  C_19
    7  A    between atoms: C_16  and  C_20
    8  A    between atoms: C_22  and  N_25
                            x       y       z     vdW  Elec       q    Type
                         _______ _______ _______ _____ _____    ______ ____

>  <TORSDO>
F 8

$$$$
=
 OpenBabel11032420083D

 28 30  0  0  0  0  0  0  0  0999 V2000
  184.2730  179.1920  139.6340 C   0  0  0  0  0  2  0  0  0  0  0  0
  183.4570  178.2310  140.4430 C   0  0  0  0  0  0  0  0  0  0  0  0
  184.6600  178.8720  142.5320 C   0  0  0  0  0  0  0  0  0  0  0  0
  185.6830  178.8280  139.6610 N   0  0  0  0  0  0  0  0  0  0  0  0
  185.8940  179.1270  142.0780 C   0  0  0  0  0  3  0  0  0  0  0  0
  186.4280  178.8280  140.7320 C   0  0  0  0  0  0  0  0  0  0  0  0
  183.6310  178.1390  141.7600 C   0  0  0  0  0  3  0  0  0  0  0  0
  187.8330  178.5770  140.6250 N   0  0  0  0  0  0  0  0  0  0  0  0
  188.3430  177.7970  139.7270 C   0  0  0  0  0  3  0  0  0  0  0  0
  189.7630  177.5920  139.6800 C   0  0  0  0  0  0  0  0  0  0  0  0
  190.9080  177.4270  139.6440 N   0  0  0  0  0  0  0  0  0  0  0  0
  184.3780  179.1900  143.9640 C   0  0  0  0  0  2  0  0  0  0  0  0
  185.3510  178.5090  144.8670 C   0  0  0  0  0  0  0  0  0  0  0  0
  187.7990  177.5540  146.4160 C   0  0  0  0  0  0  0  0  0  0  0  0
  187.9420  178.6300  148.5010 C   0  0  0  0  0  3  0  0  0  0  0  0
  187.0830  178.4150  147.3410 C   0  0  0  0  0  0  0  0  0  0  0  0
  189.0450  177.9550  148.3840 N   0  0  0  0  0  0  0  0  0  0  0  0
  186.5000  178.0560  144.3530 C   0  0  0  0  0  3  0  0  0  0  0  0
  187.6050  177.4250  145.1010 C   0  0  0  0  0  3  0  0  0  0  0  0
  184.9150  178.2220  146.2710 C   0  0  0  0  0  2  0  0  0  0  0  0
  189.0150  177.2350  147.1500 C   0  0  0  0  0  0  0  0  0  0  0  0
  190.3290  176.4840  146.5290 S   0  0  0  0  0  0  0  0  0  0  0  0
  185.8310  178.7450  147.2790 N   0  0  0  0  0  0  0  0  0  0  0  0
  182.4640  177.4450  139.8420 O   0  0  0  0  0  0  0  0  0  0  0  0
  182.6690  176.0830  139.4800 C   0  0  0  0  0  2  0  0  0  0  0  0
  183.2930  175.9970  138.0940 C   0  0  0  0  0  2  0  0  0  0  0  0
  182.6170  174.0050  137.2640 O   0  0  0  0  0  1  0  0  0  0  0  0
  183.6930  174.6260  137.8110 N   0  0  0  0  0  2  0  0  0  0  0  0
  1  4  1  0  0  0  0
  1  2  1  0  0  0  0
  2  7  2  0  0  0  0
  3 12  1  0  0  0  0
  4  6  2  0  0  0  0
  5  3  2  0  0  0  0
  6  5  1  0  0  0  0
  7  3  1  0  0  0  0
  8  6  1  0  0  0  0
  9  8  2  0  0  0  0
 10  9  1  0  0  0  0
 11 10  3  0  0  0  0
 12 13  1  0  0  0  0
 13 20  1  0  0  0  0
 14 21  1  0  0  0  0
 14 16  1  0  0  0  0
 16 15  1  0  0  0  0
 17 15  2  0  0  0  0
 18 13  2  0  0  0  0
 18 19  1  0  0  0  0
 19 14  2  0  0  0  0
 20 23  1  0  0  0  0
 21 17  1  0  0  0  0
 22 21  2  0  0  0  0
 23 16  2  0  0  0  0
 24  2  1  0  0  0  0
 25 24  1  0  0  0  0
 26 25  1  0  0  0  0
 27 28  1  0  0  0  0
 28 26  1  0  0  0  0
M  END
>  <MODEL>
7

>  <REMARK>
 VINA RESULT:      -7.2      2.876      5.045
  Name = 
  8 active torsions:
  status: ('A' for Active; 'I' for Inactive)
    1  A    between atoms: C_1  and  C_3
    2  A    between atoms: C_3  and  C_11
    3  A    between atoms: C_7  and  O_9
    4  A    between atoms: C_8  and  O_9
    5  A    between atoms: C_8  and  C_22
    6  A    between atoms: N_15  and  C_19
    7  A    between atoms: C_16  and  C_20
    8  A    between atoms: C_22  and  N_25
                            x       y       z     vdW  Elec       q    Type
                         _______ _______ _______ _____ _____    ______ ____

>  <TORSDO>
F 8

$$$$
=
 OpenBabel11032420083D

 28 30  0  0  0  0  0  0  0  0999 V2000
  187.7190  176.6450  143.2610 C   0  0  0  0  0  2  0  0  0  0  0  0
  187.6780  177.8810  142.4140 C   0  0  0  0  0  0  0  0  0  0  0  0
  189.9880  177.4560  141.5730 C   0  0  0  0  0  0  0  0  0  0  0  0
  188.7630  176.7430  144.2720 N   0  0  0  0  0  0  0  0  0  0  0  0
  190.5750  176.8940  142.6370 C   0  0  0  0  0  3  0  0  0  0  0  0
  190.0400  176.8180  144.0140 C   0  0  0  0  0  0  0  0  0  0  0  0
  188.7080  178.1980  141.6320 C   0  0  0  0  0  3  0  0  0  0  0  0
  190.9890  176.7810  145.0850 N   0  0  0  0  0  0  0  0  0  0  0  0
  190.6750  176.4380  146.2930 C   0  0  0  0  0  3  0  0  0  0  0  0
  191.6810  176.4240  147.3170 C   0  0  0  0  0  0  0  0  0  0  0  0
  192.4930  176.4130  148.1420 N   0  0  0  0  0  0  0  0  0  0  0  0
  190.7650  177.4850  140.2980 C   0  0  0  0  0  2  0  0  0  0  0  0
  189.8620  177.3690  139.1160 C   0  0  0  0  0  0  0  0  0  0  0  0
  187.7550  176.5920  137.0520 C   0  0  0  0  0  0  0  0  0  0  0  0
  185.8010  177.8700  137.3290 C   0  0  0  0  0  3  0  0  0  0  0  0
  187.1930  177.7350  137.7500 C   0  0  0  0  0  0  0  0  0  0  0  0
  185.5060  176.9760  136.4340 N   0  0  0  0  0  0  0  0  0  0  0  0
  189.7130  176.1750  138.5320 C   0  0  0  0  0  3  0  0  0  0  0  0
  188.8140  175.8580  137.4040 C   0  0  0  0  0  3  0  0  0  0  0  0
  189.3010  178.6350  138.5430 C   0  0  0  0  0  2  0  0  0  0  0  0
  186.6660  176.1800  136.1790 C   0  0  0  0  0  0  0  0  0  0  0  0
  186.6160  174.7940  135.3110 S   0  0  0  0  0  0  0  0  0  0  0  0
  187.8450  178.6230  138.4330 N   0  0  0  0  0  0  0  0  0  0  0  0
  186.5420  178.7000  142.3920 O   0  0  0  0  0  0  0  0  0  0  0  0
  185.2580  178.2550  142.8160 C   0  0  0  0  0  2  0  0  0  0  0  0
  184.6370  179.2710  143.7640 C   0  0  0  0  0  2  0  0  0  0  0  0
  183.8070  178.9980  145.8500 O   0  0  0  0  0  1  0  0  0  0  0  0
  183.5930  178.6400  144.5590 N   0  0  0  0  0  2  0  0  0  0  0  0
  1  4  1  0  0  0  0
  2  1  1  0  0  0  0
  3  7  1  0  0  0  0
  3  5  2  0  0  0  0
  5  6  1  0  0  0  0
  6  4  2  0  0  0  0
  6  8  1  0  0  0  0
  7  2  2  0  0  0  0
  8  9  2  0  0  0  0
  9 10  1  0  0  0  0
 10 11  3  0  0  0  0
 12  3  1  0  0  0  0
 13 12  1  0  0  0  0
 14 19  2  0  0  0  0
 14 16  1  0  0  0  0
 15 16  1  0  0  0  0
 16 23  2  0  0  0  0
 17 15  2  0  0  0  0
 18 13  2  0  0  0  0
 19 18  1  0  0  0  0
 20 13  1  0  0  0  0
 21 17  1  0  0  0  0
 21 14  1  0  0  0  0
 22 21  2  0  0  0  0
 23 20  1  0  0  0  0
 24  2  1  0  0  0  0
 24 25  1  0  0  0  0
 25 26  1  0  0  0  0
 26 28  1  0  0  0  0
 28 27  1  0  0  0  0
M  END
>  <MODEL>
8

>  <REMARK>
 VINA RESULT:      -7.1      3.812      7.160
  Name = 
  8 active torsions:
  status: ('A' for Active; 'I' for Inactive)
    1  A    between atoms: C_1  and  C_3
    2  A    between atoms: C_3  and  C_11
    3  A    between atoms: C_7  and  O_9
    4  A    between atoms: C_8  and  O_9
    5  A    between atoms: C_8  and  C_22
    6  A    between atoms: N_15  and  C_19
    7  A    between atoms: C_16  and  C_20
    8  A    between atoms: C_22  and  N_25
                            x       y       z     vdW  Elec       q    Type
                         _______ _______ _______ _____ _____    ______ ____

>  <TORSDO>
F 8

$$$$
=
 OpenBabel11032420083D

 28 30  0  0  0  0  0  0  0  0999 V2000
  190.1630  176.0080  138.4160 C   0  0  0  0  0  2  0  0  0  0  0  0
  191.5050  176.6550  138.5820 C   0  0  0  0  0  0  0  0  0  0  0  0
  191.0060  177.2180  140.9610 C   0  0  0  0  0  0  0  0  0  0  0  0
  189.0920  176.9770  138.6010 N   0  0  0  0  0  0  0  0  0  0  0  0
  189.6890  177.4560  140.9230 C   0  0  0  0  0  3  0  0  0  0  0  0
  188.8440  177.6030  139.7180 C   0  0  0  0  0  0  0  0  0  0  0  0
  191.8700  177.1590  139.7590 C   0  0  0  0  0  3  0  0  0  0  0  0
  187.6870  178.4400  139.8260 N   0  0  0  0  0  0  0  0  0  0  0  0
  186.5530  178.1490  139.2750 C   0  0  0  0  0  3  0  0  0  0  0  0
  185.4350  179.0370  139.4270 C   0  0  0  0  0  0  0  0  0  0  0  0
  184.5350  179.7540  139.5480 N   0  0  0  0  0  0  0  0  0  0  0  0
  191.6590  177.1940  142.3040 C   0  0  0  0  0  2  0  0  0  0  0  0
  190.6500  177.0150  143.3880 C   0  0  0  0  0  0  0  0  0  0  0  0
  188.6270  177.3420  145.6480 C   0  0  0  0  0  0  0  0  0  0  0  0
  186.4330  177.3980  144.8050 C   0  0  0  0  0  3  0  0  0  0  0  0
  187.8260  177.1350  144.4540 C   0  0  0  0  0  0  0  0  0  0  0  0
  186.3260  177.6800  146.0680 N   0  0  0  0  0  0  0  0  0  0  0  0
  190.8500  177.6220  144.5630 C   0  0  0  0  0  3  0  0  0  0  0  0
  189.9330  177.6160  145.7190 C   0  0  0  0  0  3  0  0  0  0  0  0
  189.5490  176.0250  143.1570 C   0  0  0  0  0  2  0  0  0  0  0  0
  187.6240  177.6250  146.6630 C   0  0  0  0  0  0  0  0  0  0  0  0
  187.9300  178.1740  148.1740 S   0  0  0  0  0  0  0  0  0  0  0  0
  188.2160  176.5900  143.3450 N   0  0  0  0  0  0  0  0  0  0  0  0
  192.4180  176.7020  137.5210 O   0  0  0  0  0  0  0  0  0  0  0  0
  192.3130  175.8670  136.3720 C   0  0  0  0  0  2  0  0  0  0  0  0
  193.5640  175.9940  135.5150 C   0  0  0  0  0  2  0  0  0  0  0  0
  195.1170  177.6250  135.7190 O   0  0  0  0  0  1  0  0  0  0  0  0
  194.6710  176.4920  136.3180 N   0  0  0  0  0  2  0  0  0  0  0  0
  1  2  1  0  0  0  0
  1  4  1  0  0  0  0
  2  7  2  0  0  0  0
  3 12  1  0  0  0  0
  4  6  2  0  0  0  0
  5  3  2  0  0  0  0
  6  8  1  0  0  0  0
  6  5  1  0  0  0  0
  7  3  1  0  0  0  0
  9 10  1  0  0  0  0
  9  8  2  0  0  0  0
 10 11  3  0  0  0  0
 12 13  1  0  0  0  0
 13 18  2  0  0  0  0
 14 19  2  0  0  0  0
 14 21  1  0  0  0  0
 15 17  2  0  0  0  0
 16 15  1  0  0  0  0
 16 14  1  0  0  0  0
 17 21  1  0  0  0  0
 18 19  1  0  0  0  0
 20 23  1  0  0  0  0
 20 13  1  0  0  0  0
 21 22  2  0  0  0  0
 23 16  2  0  0  0  0
 24  2  1  0  0  0  0
 25 24  1  0  0  0  0
 26 28  1  0  0  0  0
 26 25  1  0  0  0  0
 27 28  1  0  0  0  0
M  END
>  <MODEL>
9

>  <REMARK>
 VINA RESULT:      -7.1      2.448      5.253
  Name = 
  8 active torsions:
  status: ('A' for Active; 'I' for Inactive)
    1  A    between atoms: C_1  and  C_3
    2  A    between atoms: C_3  and  C_11
    3  A    between atoms: C_7  and  O_9
    4  A    between atoms: C_8  and  O_9
    5  A    between atoms: C_8  and  C_22
    6  A    between atoms: N_15  and  C_19
    7  A    between atoms: C_16  and  C_20
    8  A    between atoms: C_22  and  N_25
                            x       y       z     vdW  Elec       q    Type
                         _______ _______ _______ _____ _____    ______ ____

>  <TORSDO>
F 8

$$$$
