=
 OpenBabel11032419143D

 30 33  0  0  1  0  0  0  0  0999 V2000
  189.3050  177.9900  148.5110 N   0  0  0  0  0  0  0  0  0  0  0  0
  185.6410  178.9460  146.1750 C   0  0  0  0  0  3  0  0  0  0  0  0
  186.7910  178.1670  146.1230 C   0  0  0  0  0  0  0  0  0  0  0  0
  191.0850  176.7720  147.2300 C   0  0  0  0  0  1  0  0  0  0  0  0
  189.6800  177.1900  147.4860 C   0  0  2  0  0  3  0  0  0  0  0  0
  188.6560  176.9740  146.6480 N   0  0  0  0  0  0  0  0  0  0  0  0
  186.6760  177.9440  143.7170 C   0  0  0  0  0  0  0  0  0  0  0  0
  187.6720  177.7010  147.1660 C   0  0  0  0  0  0  0  0  0  0  0  0
  185.5230  178.7830  143.7290 C   0  0  0  0  0  0  0  0  0  0  0  0
  188.0420  178.3450  148.2900 N   0  0  0  0  0  0  0  0  0  0  0  0
  187.3130  177.6900  144.9350 C   0  0  0  0  0  0  0  0  0  0  0  0
  188.5770  176.9050  145.1920 C   0  0  0  0  0  3  0  0  0  0  0  0
  185.0090  179.2490  144.9590 C   0  0  0  0  0  3  0  0  0  0  0  0
  187.1820  177.3440  142.5570 O   0  0  0  0  0  0  0  0  0  0  0  0
  187.8420  178.5760  140.5700 C   0  0  0  0  0  2  0  0  0  0  0  0
  189.2750  176.7140  141.5500 C   0  0  0  0  0  2  0  0  0  0  0  0
  190.3910  177.1940  140.6150 C   0  0  0  0  0  2  0  0  0  0  0  0
  188.3050  177.8540  141.8440 C   0  0  2  0  0  3  0  0  0  0  0  0
  189.9050  177.8960  139.4040 N   0  0  0  0  0  0  0  0  0  0  0  0
  188.4400  177.9570  139.3060 C   0  0  0  0  0  2  0  0  0  0  0  0
  190.4120  177.2450  138.1890 C   0  0  2  0  0  3  0  0  0  0  0  0
  189.3620  176.7830  137.3760 O   0  0  0  0  0  0  0  0  0  0  0  0
  189.7630  177.0630  136.0640 C   0  0  0  0  0  1  0  0  0  0  0  0
  191.3530  176.0990  138.5570 C   0  0  0  0  0  2  0  0  0  0  0  0
  192.7480  176.3680  138.0210 C   0  0  0  0  0  2  0  0  0  0  0  0
  193.5260  176.9560  139.0200 O   0  0  0  0  0  1  0  0  0  0  0  0
  184.8820  179.2050  142.5610 O   0  0  0  0  0  0  0  0  0  0  0  0
  183.9280  178.3960  141.8870 C   0  0  0  0  0  2  0  0  0  0  0  0
  184.2380  178.3670  140.4020 C   0  0  0  0  0  2  0  0  0  0  0  0
  184.5560  179.6500  139.9610 O   0  0  0  0  0  1  0  0  0  0  0  0
  3  2  1  0  0  0  0
  3  8  2  0  0  0  0
  5  4  1  6  0  0  0
  5  1  1  0  0  0  0
  6  8  1  0  0  0  0
  6  5  1  0  0  0  0
  7  9  2  0  0  0  0
  7 11  1  0  0  0  0
  8 10  1  0  0  0  0
  9 13  1  0  0  0  0
 10  1  2  0  0  0  0
 11 12  2  0  0  0  0
 11  3  1  0  0  0  0
 12  6  1  0  0  0  0
 13  2  2  0  0  0  0
 14  7  1  0  0  0  0
 15 18  1  0  0  0  0
 16 18  1  0  0  0  0
 17 16  1  0  0  0  0
 18 14  1  6  0  0  0
 19 17  1  0  0  0  0
 20 19  1  0  0  0  0
 20 15  1  0  0  0  0
 21 24  1  1  0  0  0
 21 19  1  0  0  0  0
 22 21  1  0  0  0  0
 23 22  1  0  0  0  0
 25 24  1  0  0  0  0
 25 26  1  0  0  0  0
 27  9  1  0  0  0  0
 28 27  1  0  0  0  0
 29 28  1  0  0  0  0
 30 29  1  0  0  0  0
M  END
>  <MODEL>
1

>  <REMARK>
 VINA RESULT:      -8.3      0.000      0.000
  Name = 
  9 active torsions:
  status: ('A' for Active; 'I' for Inactive)
    1  A    between atoms: C_1  and  C_6
    2  A    between atoms: C_1  and  O_9
    3  A    between atoms: C_1  and  N_19
    4  A    between atoms: C_5  and  C_6
    5  A    between atoms: C_7  and  C_29
    6  A    between atoms: O_16  and  C_17
    7  A    between atoms: O_16  and  C_20
    8  A    between atoms: C_23  and  O_27
    9  A    between atoms: O_27  and  C_29
                            x       y       z     vdW  Elec       q    Type
                         _______ _______ _______ _____ _____    ______ ____

>  <TORSDO>
F 9

$$$$
=
 OpenBabel11032419143D

 30 33  0  0  1  0  0  0  0  0999 V2000
  183.5360  178.9750  145.8290 N   0  0  0  0  0  0  0  0  0  0  0  0
  187.8260  178.1940  146.7140 C   0  0  0  0  0  3  0  0  0  0  0  0
  186.9390  178.3110  145.6500 C   0  0  0  0  0  0  0  0  0  0  0  0
  182.8300  178.4440  143.4800 C   0  0  0  0  0  1  0  0  0  0  0  0
  183.8340  178.8000  144.5200 C   0  0  2  0  0  3  0  0  0  0  0  0
  185.1600  178.8160  144.3260 N   0  0  0  0  0  0  0  0  0  0  0  0
  188.3800  177.0670  144.1570 C   0  0  0  0  0  0  0  0  0  0  0  0
  185.6530  178.9560  145.5510 C   0  0  0  0  0  0  0  0  0  0  0  0
  189.2880  176.8840  145.2420 C   0  0  0  0  0  0  0  0  0  0  0  0
  184.6890  179.0380  146.4890 N   0  0  0  0  0  0  0  0  0  0  0  0
  187.1890  177.7530  144.4100 C   0  0  0  0  0  0  0  0  0  0  0  0
  186.0360  178.0190  143.4710 C   0  0  0  0  0  3  0  0  0  0  0  0
  189.0090  177.4720  146.4950 C   0  0  0  0  0  3  0  0  0  0  0  0
  188.6340  176.6200  142.8540 O   0  0  0  0  0  0  0  0  0  0  0  0
  188.4810  177.7830  140.7270 C   0  0  0  0  0  2  0  0  0  0  0  0
  190.5940  176.5680  141.4590 C   0  0  0  0  0  2  0  0  0  0  0  0
  191.3020  177.2690  140.2960 C   0  0  0  0  0  2  0  0  0  0  0  0
  189.3780  177.3760  141.9040 C   0  0  2  0  0  3  0  0  0  0  0  0
  190.4000  177.6570  139.1850 N   0  0  0  0  0  0  0  0  0  0  0  0
  189.0030  177.2520  139.3910 C   0  0  0  0  0  2  0  0  0  0  0  0
  190.8580  177.0720  137.9170 C   0  0  2  0  0  3  0  0  0  0  0  0
  189.8050  176.4410  137.2320 O   0  0  0  0  0  0  0  0  0  0  0  0
  190.0790  176.6430  135.8730 C   0  0  0  0  0  1  0  0  0  0  0  0
  192.0000  176.0910  138.1700 C   0  0  0  0  0  2  0  0  0  0  0  0
  193.2430  176.5190  137.4100 C   0  0  0  0  0  2  0  0  0  0  0  0
  194.3180  175.7090  137.7800 O   0  0  0  0  0  1  0  0  0  0  0  0
  190.4460  176.1090  145.1360 O   0  0  0  0  0  0  0  0  0  0  0  0
  191.6960  176.5410  145.6590 C   0  0  0  0  0  2  0  0  0  0  0  0
  192.1050  175.6470  146.8140 C   0  0  0  0  0  2  0  0  0  0  0  0
  192.3660  176.4240  147.9420 O   0  0  0  0  0  1  0  0  0  0  0  0
  1 10  2  0  0  0  0
  3  2  1  0  0  0  0
  5  4  1  1  0  0  0
  5  1  1  0  0  0  0
  6  5  1  0  0  0  0
  6  8  1  0  0  0  0
  7 11  1  0  0  0  0
  7  9  2  0  0  0  0
  8  3  2  0  0  0  0
  8 10  1  0  0  0  0
  9 13  1  0  0  0  0
 11  3  1  0  0  0  0
 12  6  1  0  0  0  0
 12 11  2  0  0  0  0
 13  2  2  0  0  0  0
 14  7  1  0  0  0  0
 15 18  1  0  0  0  0
 16 18  1  0  0  0  0
 17 16  1  0  0  0  0
 18 14  1  1  0  0  0
 19 20  1  0  0  0  0
 19 17  1  0  0  0  0
 20 15  1  0  0  0  0
 21 24  1  1  0  0  0
 21 19  1  0  0  0  0
 22 21  1  0  0  0  0
 23 22  1  0  0  0  0
 25 26  1  0  0  0  0
 25 24  1  0  0  0  0
 27  9  1  0  0  0  0
 27 28  1  0  0  0  0
 28 29  1  0  0  0  0
 29 30  1  0  0  0  0
M  END
>  <MODEL>
2

>  <REMARK>
 VINA RESULT:      -7.9      2.364      4.705
  Name = 
  9 active torsions:
  status: ('A' for Active; 'I' for Inactive)
    1  A    between atoms: C_1  and  C_6
    2  A    between atoms: C_1  and  O_9
    3  A    between atoms: C_1  and  N_19
    4  A    between atoms: C_5  and  C_6
    5  A    between atoms: C_7  and  C_29
    6  A    between atoms: O_16  and  C_17
    7  A    between atoms: O_16  and  C_20
    8  A    between atoms: C_23  and  O_27
    9  A    between atoms: O_27  and  C_29
                            x       y       z     vdW  Elec       q    Type
                         _______ _______ _______ _____ _____    ______ ____

>  <TORSDO>
F 9

$$$$
=
 OpenBabel11032419143D

 30 33  0  0  1  0  0  0  0  0999 V2000
  189.0950  178.1200  148.5920 N   0  0  0  0  0  0  0  0  0  0  0  0
  185.5250  179.0260  146.0960 C   0  0  0  0  0  3  0  0  0  0  0  0
  186.6700  178.2370  146.1110 C   0  0  0  0  0  0  0  0  0  0  0  0
  190.9100  176.8480  147.4160 C   0  0  0  0  0  1  0  0  0  0  0  0
  189.4990  177.2840  147.6070 C   0  0  2  0  0  3  0  0  0  0  0  0
  188.5040  177.0490  146.7400 N   0  0  0  0  0  0  0  0  0  0  0  0
  186.6390  177.9380  143.7100 C   0  0  0  0  0  0  0  0  0  0  0  0
  187.5090  177.7990  147.1980 C   0  0  0  0  0  0  0  0  0  0  0  0
  185.4930  178.7860  143.6540 C   0  0  0  0  0  0  0  0  0  0  0  0
  187.8430  178.4760  148.3150 N   0  0  0  0  0  0  0  0  0  0  0  0
  187.2300  177.7190  144.9570 C   0  0  0  0  0  0  0  0  0  0  0  0
  188.4780  176.9330  145.2850 C   0  0  0  0  0  3  0  0  0  0  0  0
  184.9390  179.2940  144.8490 C   0  0  0  0  0  3  0  0  0  0  0  0
  187.1820  177.2980  142.5880 O   0  0  0  0  0  0  0  0  0  0  0  0
  187.9780  178.3150  140.5310 C   0  0  0  0  0  2  0  0  0  0  0  0
  189.3710  176.6350  141.8410 C   0  0  0  0  0  2  0  0  0  0  0  0
  190.5500  177.0430  140.9520 C   0  0  0  0  0  2  0  0  0  0  0  0
  188.3470  177.7640  141.9160 C   0  0  2  0  0  3  0  0  0  0  0  0
  190.1520  177.5820  139.6290 N   0  0  0  0  0  0  0  0  0  0  0  0
  188.7000  177.5760  139.4040 C   0  0  0  0  0  2  0  0  0  0  0  0
  190.7810  176.8120  138.5470 C   0  0  2  0  0  3  0  0  0  0  0  0
  192.1780  176.9640  138.5530 O   0  0  0  0  0  0  0  0  0  0  0  0
  192.6770  175.7960  137.9640 C   0  0  0  0  0  1  0  0  0  0  0  0
  190.2000  177.2260  137.1970 C   0  0  0  0  0  2  0  0  0  0  0  0
  189.5770  176.0290  136.5000 C   0  0  0  0  0  2  0  0  0  0  0  0
  188.4810  176.4480  135.7430 O   0  0  0  0  0  1  0  0  0  0  0  0
  184.8980  179.1750  142.4510 O   0  0  0  0  0  0  0  0  0  0  0  0
  183.9880  178.3370  141.7500 C   0  0  0  0  0  2  0  0  0  0  0  0
  184.2160  178.4680  140.2570 C   0  0  0  0  0  2  0  0  0  0  0  0
  184.7470  179.7250  139.9690 O   0  0  0  0  0  1  0  0  0  0  0  0
  2  3  1  0  0  0  0
  3  8  2  0  0  0  0
  5  4  1  6  0  0  0
  5  1  1  0  0  0  0
  6  8  1  0  0  0  0
  6  5  1  0  0  0  0
  7 11  1  0  0  0  0
  8 10  1  0  0  0  0
  9  7  2  0  0  0  0
  9 13  1  0  0  0  0
 10  1  2  0  0  0  0
 11 12  2  0  0  0  0
 11  3  1  0  0  0  0
 12  6  1  0  0  0  0
 13  2  2  0  0  0  0
 14  7  1  0  0  0  0
 15 18  1  0  0  0  0
 16 18  1  0  0  0  0
 17 16  1  0  0  0  0
 18 14  1  6  0  0  0
 19 17  1  0  0  0  0
 20 19  1  0  0  0  0
 20 15  1  0  0  0  0
 21 24  1  6  0  0  0
 21 22  1  0  0  0  0
 21 19  1  0  0  0  0
 23 22  1  0  0  0  0
 25 24  1  0  0  0  0
 26 25  1  0  0  0  0
 27  9  1  0  0  0  0
 28 27  1  0  0  0  0
 29 28  1  0  0  0  0
 30 29  1  0  0  0  0
M  END
>  <MODEL>
3

>  <REMARK>
 VINA RESULT:      -7.9      0.579      1.615
  Name = 
  9 active torsions:
  status: ('A' for Active; 'I' for Inactive)
    1  A    between atoms: C_1  and  C_6
    2  A    between atoms: C_1  and  O_9
    3  A    between atoms: C_1  and  N_19
    4  A    between atoms: C_5  and  C_6
    5  A    between atoms: C_7  and  C_29
    6  A    between atoms: O_16  and  C_17
    7  A    between atoms: O_16  and  C_20
    8  A    between atoms: C_23  and  O_27
    9  A    between atoms: O_27  and  C_29
                            x       y       z     vdW  Elec       q    Type
                         _______ _______ _______ _____ _____    ______ ____

>  <TORSDO>
F 9

$$$$
=
 OpenBabel11032419143D

 30 33  0  0  1  0  0  0  0  0999 V2000
  190.4620  177.6030  148.0550 N   0  0  0  0  0  0  0  0  0  0  0  0
  186.2070  178.6360  147.2630 C   0  0  0  0  0  3  0  0  0  0  0  0
  187.2730  177.9260  146.7220 C   0  0  0  0  0  0  0  0  0  0  0  0
  191.6940  176.6300  146.0970 C   0  0  0  0  0  1  0  0  0  0  0  0
  190.4620  176.9450  146.8720 C   0  0  2  0  0  3  0  0  0  0  0  0
  189.2120  176.7770  146.4180 N   0  0  0  0  0  0  0  0  0  0  0  0
  186.3290  177.9760  144.4940 C   0  0  0  0  0  0  0  0  0  0  0  0
  188.4650  177.3890  147.3290 C   0  0  0  0  0  0  0  0  0  0  0  0
  185.2470  178.7500  145.0080 C   0  0  0  0  0  0  0  0  0  0  0  0
  189.1990  177.9160  148.3290 N   0  0  0  0  0  0  0  0  0  0  0  0
  187.3520  177.6160  145.3760 C   0  0  0  0  0  0  0  0  0  0  0  0
  188.6320  176.8710  145.0810 C   0  0  0  0  0  3  0  0  0  0  0  0
  185.1890  179.0450  146.3880 C   0  0  0  0  0  3  0  0  0  0  0  0
  186.4040  177.5400  143.1650 O   0  0  0  0  0  0  0  0  0  0  0  0
  185.8880  178.8160  141.1640 C   0  0  0  0  0  2  0  0  0  0  0  0
  188.0510  177.4980  141.4120 C   0  0  0  0  0  2  0  0  0  0  0  0
  188.5480  178.2360  140.1650 C   0  0  0  0  0  2  0  0  0  0  0  0
  186.9800  178.3200  142.1230 C   0  0  2  0  0  3  0  0  0  0  0  0
  187.4640  178.7110  139.2710 N   0  0  0  0  0  0  0  0  0  0  0  0
  186.1180  178.3390  139.7300 C   0  0  0  0  0  2  0  0  0  0  0  0
  187.6420  178.1780  137.9130 C   0  0  2  0  0  3  0  0  0  0  0  0
  188.2980  179.1010  137.0810 O   0  0  0  0  0  0  0  0  0  0  0  0
  189.3180  178.3720  136.4560 C   0  0  0  0  0  1  0  0  0  0  0  0
  186.2920  177.7810  137.3200 C   0  0  0  0  0  2  0  0  0  0  0  0
  186.3300  176.3420  136.8360 C   0  0  0  0  0  2  0  0  0  0  0  0
  187.4110  175.6810  137.4210 O   0  0  0  0  0  1  0  0  0  0  0  0
  184.2360  179.2710  144.1950 O   0  0  0  0  0  0  0  0  0  0  0  0
  182.9000  178.7870  144.2440 C   0  0  0  0  0  2  0  0  0  0  0  0
  182.2350  178.9800  142.8950 C   0  0  0  0  0  2  0  0  0  0  0  0
  181.1840  179.8890  143.0120 O   0  0  0  0  0  1  0  0  0  0  0  0
  1 10  2  0  0  0  0
  3  2  1  0  0  0  0
  3  8  2  0  0  0  0
  5  4  1  6  0  0  0
  5  1  1  0  0  0  0
  6  5  1  0  0  0  0
  6  8  1  0  0  0  0
  7  9  2  0  0  0  0
  7 11  1  0  0  0  0
  8 10  1  0  0  0  0
  9 13  1  0  0  0  0
 11  3  1  0  0  0  0
 12 11  2  0  0  0  0
 12  6  1  0  0  0  0
 13  2  2  0  0  0  0
 14  7  1  0  0  0  0
 15 18  1  0  0  0  0
 16 18  1  0  0  0  0
 17 16  1  0  0  0  0
 18 14  1  1  0  0  0
 19 20  1  0  0  0  0
 19 17  1  0  0  0  0
 20 15  1  0  0  0  0
 21 24  1  6  0  0  0
 21 19  1  0  0  0  0
 22 21  1  0  0  0  0
 23 22  1  0  0  0  0
 25 24  1  0  0  0  0
 25 26  1  0  0  0  0
 27 28  1  0  0  0  0
 27  9  1  0  0  0  0
 29 30  1  0  0  0  0
 29 28  1  0  0  0  0
M  END
>  <MODEL>
4

>  <REMARK>
 VINA RESULT:      -7.7      2.109      2.666
  Name = 
  9 active torsions:
  status: ('A' for Active; 'I' for Inactive)
    1  A    between atoms: C_1  and  C_6
    2  A    between atoms: C_1  and  O_9
    3  A    between atoms: C_1  and  N_19
    4  A    between atoms: C_5  and  C_6
    5  A    between atoms: C_7  and  C_29
    6  A    between atoms: O_16  and  C_17
    7  A    between atoms: O_16  and  C_20
    8  A    between atoms: C_23  and  O_27
    9  A    between atoms: O_27  and  C_29
                            x       y       z     vdW  Elec       q    Type
                         _______ _______ _______ _____ _____    ______ ____

>  <TORSDO>
F 9

$$$$
=
 OpenBabel11032419143D

 30 33  0  0  1  0  0  0  0  0999 V2000
  183.9360  178.8540  146.4700 N   0  0  0  0  0  0  0  0  0  0  0  0
  188.2670  177.8430  146.3510 C   0  0  0  0  0  3  0  0  0  0  0  0
  187.1950  178.1360  145.5150 C   0  0  0  0  0  0  0  0  0  0  0  0
  182.7520  178.6880  144.2640 C   0  0  0  0  0  1  0  0  0  0  0  0
  183.9600  178.8630  145.1170 C   0  0  2  0  0  3  0  0  0  0  0  0
  185.2210  178.8730  144.6610 N   0  0  0  0  0  0  0  0  0  0  0  0
  188.2440  177.0850  143.6040 C   0  0  0  0  0  0  0  0  0  0  0  0
  185.9530  178.8220  145.7680 C   0  0  0  0  0  0  0  0  0  0  0  0
  189.3370  176.7240  144.4470 C   0  0  0  0  0  0  0  0  0  0  0  0
  185.1980  178.7920  146.8840 N   0  0  0  0  0  0  0  0  0  0  0  0
  187.1650  177.7580  144.1850 C   0  0  0  0  0  0  0  0  0  0  0  0
  185.8660  178.1870  143.5450 C   0  0  0  0  0  3  0  0  0  0  0  0
  189.3430  177.1310  145.7990 C   0  0  0  0  0  3  0  0  0  0  0  0
  188.2110  176.8250  142.2280 O   0  0  0  0  0  0  0  0  0  0  0  0
  187.5060  178.3760  140.4960 C   0  0  0  0  0  2  0  0  0  0  0  0
  189.6620  177.0350  140.3200 C   0  0  0  0  0  2  0  0  0  0  0  0
  190.0350  177.9430  139.1450 C   0  0  0  0  0  2  0  0  0  0  0  0
  188.6850  177.7460  141.2520 C   0  0  2  0  0  3  0  0  0  0  0  0
  188.8700  178.5410  138.4490 N   0  0  0  0  0  0  0  0  0  0  0  0
  187.5750  178.1090  138.9920 C   0  0  0  0  0  2  0  0  0  0  0  0
  188.8940  178.2090  137.0190 C   0  0  2  0  0  3  0  0  0  0  0  0
  187.6510  177.7160  136.5840 O   0  0  0  0  0  0  0  0  0  0  0  0
  187.3670  178.4230  135.4090 C   0  0  0  0  0  1  0  0  0  0  0  0
  190.0040  177.2010  136.7290 C   0  0  0  0  0  2  0  0  0  0  0  0
  189.4110  175.8570  136.3440 C   0  0  0  0  0  2  0  0  0  0  0  0
  189.4710  174.9900  137.4360 O   0  0  0  0  0  1  0  0  0  0  0  0
  190.4070  175.9430  144.0030 O   0  0  0  0  0  0  0  0  0  0  0  0
  191.5590  176.5120  143.3940 C   0  0  0  0  0  2  0  0  0  0  0  0
  191.8370  177.8760  143.9960 C   0  0  0  0  0  2  0  0  0  0  0  0
  191.2510  178.8680  143.2100 O   0  0  0  0  0  1  0  0  0  0  0  0
  1 10  2  0  0  0  0
  3  8  2  0  0  0  0
  3  2  1  0  0  0  0
  5  4  1  6  0  0  0
  5  1  1  0  0  0  0
  6  5  1  0  0  0  0
  6  8  1  0  0  0  0
  7 11  1  0  0  0  0
  7  9  2  0  0  0  0
  8 10  1  0  0  0  0
  9 13  1  0  0  0  0
 11  3  1  0  0  0  0
 12 11  2  0  0  0  0
 12  6  1  0  0  0  0
 13  2  2  0  0  0  0
 14  7  1  0  0  0  0
 15 18  1  0  0  0  0
 16 18  1  0  0  0  0
 17 16  1  0  0  0  0
 18 14  1  1  0  0  0
 19 20  1  0  0  0  0
 19 17  1  0  0  0  0
 20 15  1  0  0  0  0
 21 24  1  1  0  0  0
 21 19  1  0  0  0  0
 22 21  1  0  0  0  0
 23 22  1  0  0  0  0
 25 24  1  0  0  0  0
 25 26  1  0  0  0  0
 27  9  1  0  0  0  0
 28 29  1  0  0  0  0
 28 27  1  0  0  0  0
 30 29  1  0  0  0  0
M  END
>  <MODEL>
5

>  <REMARK>
 VINA RESULT:      -7.2      2.376      4.338
  Name = 
  9 active torsions:
  status: ('A' for Active; 'I' for Inactive)
    1  A    between atoms: C_1  and  C_6
    2  A    between atoms: C_1  and  O_9
    3  A    between atoms: C_1  and  N_19
    4  A    between atoms: C_5  and  C_6
    5  A    between atoms: C_7  and  C_29
    6  A    between atoms: O_16  and  C_17
    7  A    between atoms: O_16  and  C_20
    8  A    between atoms: C_23  and  O_27
    9  A    between atoms: O_27  and  C_29
                            x       y       z     vdW  Elec       q    Type
                         _______ _______ _______ _____ _____    ______ ____

>  <TORSDO>
F 9

$$$$
=
 OpenBabel11032419143D

 30 33  0  0  1  0  0  0  0  0999 V2000
  188.8350  177.3770  147.5170 N   0  0  0  0  0  0  0  0  0  0  0  0
  185.7620  177.9540  144.3520 C   0  0  0  0  0  3  0  0  0  0  0  0
  187.1020  177.6250  144.5190 C   0  0  0  0  0  0  0  0  0  0  0  0
  191.2000  177.2830  146.6870 C   0  0  0  0  0  1  0  0  0  0  0  0
  189.7270  177.1420  146.5270 C   0  0  2  0  0  3  0  0  0  0  0  0
  189.1020  176.9410  145.3580 N   0  0  0  0  0  0  0  0  0  0  0  0
  187.6610  178.2450  142.2480 C   0  0  0  0  0  0  0  0  0  0  0  0
  187.8190  177.1080  145.6580 C   0  0  0  0  0  0  0  0  0  0  0  0
  186.3030  178.6390  142.0590 C   0  0  0  0  0  0  0  0  0  0  0  0
  187.6260  177.3910  146.9610 N   0  0  0  0  0  0  0  0  0  0  0  0
  188.0360  177.7790  143.5110 C   0  0  0  0  0  0  0  0  0  0  0  0
  189.4070  177.3710  143.9960 C   0  0  0  0  0  3  0  0  0  0  0  0
  185.3700  178.4630  143.1040 C   0  0  0  0  0  3  0  0  0  0  0  0
  188.6230  178.2750  141.2300 O   0  0  0  0  0  0  0  0  0  0  0  0
  190.4810  176.7660  140.8210 C   0  0  0  0  0  2  0  0  0  0  0  0
  188.7890  177.3540  139.0130 C   0  0  0  0  0  2  0  0  0  0  0  0
  189.3910  176.2090  138.1930 C   0  0  0  0  0  2  0  0  0  0  0  0
  189.0210  177.1180  140.5030 C   0  0  2  0  0  3  0  0  0  0  0  0
  190.7970  175.8910  138.5380 N   0  0  0  0  0  0  0  0  0  0  0  0
  191.3620  176.7690  139.5710 C   0  0  0  0  0  2  0  0  0  0  0  0
  191.6550  175.9810  137.3490 C   0  0  2  0  0  3  0  0  0  0  0  0
  190.9200  176.3580  136.2110 O   0  0  0  0  0  0  0  0  0  0  0  0
  191.3100  175.4620  135.2090 C   0  0  0  0  0  1  0  0  0  0  0  0
  192.3730  174.6540  137.1120 C   0  0  0  0  0  2  0  0  0  0  0  0
  193.8140  174.7410  137.5820 C   0  0  0  0  0  2  0  0  0  0  0  0
  194.2670  176.0560  137.4590 O   0  0  0  0  0  1  0  0  0  0  0  0
  185.8450  179.2350  140.8800 O   0  0  0  0  0  0  0  0  0  0  0  0
  184.5130  179.0640  140.4130 C   0  0  0  0  0  2  0  0  0  0  0  0
  184.5020  179.0250  138.8970 C   0  0  0  0  0  2  0  0  0  0  0  0
  185.8020  178.8570  138.4190 O   0  0  0  0  0  1  0  0  0  0  0  0
  2  3  1  0  0  0  0
  3  8  2  0  0  0  0
  5  4  1  6  0  0  0
  5  1  1  0  0  0  0
  6  8  1  0  0  0  0
  6  5  1  0  0  0  0
  7 11  1  0  0  0  0
  8 10  1  0  0  0  0
  9  7  2  0  0  0  0
  9 13  1  0  0  0  0
 10  1  2  0  0  0  0
 11 12  2  0  0  0  0
 11  3  1  0  0  0  0
 12  6  1  0  0  0  0
 13  2  2  0  0  0  0
 14  7  1  0  0  0  0
 16 18  1  0  0  0  0
 17 19  1  0  0  0  0
 17 16  1  0  0  0  0
 18 15  1  0  0  0  0
 18 14  1  1  0  0  0
 19 20  1  0  0  0  0
 20 15  1  0  0  0  0
 21 24  1  6  0  0  0
 21 19  1  0  0  0  0
 22 21  1  0  0  0  0
 23 22  1  0  0  0  0
 24 25  1  0  0  0  0
 26 25  1  0  0  0  0
 27  9  1  0  0  0  0
 28 27  1  0  0  0  0
 29 28  1  0  0  0  0
 30 29  1  0  0  0  0
M  END
>  <MODEL>
6

>  <REMARK>
 VINA RESULT:      -7.1      1.485      2.019
  Name = 
  9 active torsions:
  status: ('A' for Active; 'I' for Inactive)
    1  A    between atoms: C_1  and  C_6
    2  A    between atoms: C_1  and  O_9
    3  A    between atoms: C_1  and  N_19
    4  A    between atoms: C_5  and  C_6
    5  A    between atoms: C_7  and  C_29
    6  A    between atoms: O_16  and  C_17
    7  A    between atoms: O_16  and  C_20
    8  A    between atoms: C_23  and  O_27
    9  A    between atoms: O_27  and  C_29
                            x       y       z     vdW  Elec       q    Type
                         _______ _______ _______ _____ _____    ______ ____

>  <TORSDO>
F 9

$$$$
=
 OpenBabel11032419143D

 30 33  0  0  1  0  0  0  0  0999 V2000
  179.6120  179.3630  140.7230 N   0  0  0  0  0  0  0  0  0  0  0  0
  183.3330  178.1760  138.5930 C   0  0  0  0  0  3  0  0  0  0  0  0
  182.8370  178.4020  139.8710 C   0  0  0  0  0  0  0  0  0  0  0  0
  179.9310  179.9990  143.1290 C   0  0  0  0  0  1  0  0  0  0  0  0
  180.3190  179.2970  141.8750 C   0  0  2  0  0  3  0  0  0  0  0  0
  181.4890  178.6700  141.6830 N   0  0  0  0  0  0  0  0  0  0  0  0
  185.0460  178.7580  140.7940 C   0  0  0  0  0  0  0  0  0  0  0  0
  181.4890  178.4030  140.3820 C   0  0  0  0  0  0  0  0  0  0  0  0
  185.5830  178.5820  139.4840 C   0  0  0  0  0  0  0  0  0  0  0  0
  180.3670  178.8280  139.7680 N   0  0  0  0  0  0  0  0  0  0  0  0
  183.6570  178.7030  140.9440 C   0  0  0  0  0  0  0  0  0  0  0  0
  182.8340  178.9260  142.1900 C   0  0  0  0  0  3  0  0  0  0  0  0
  184.7210  178.2680  138.4100 C   0  0  0  0  0  3  0  0  0  0  0  0
  185.8370  178.9550  141.9330 O   0  0  0  0  0  0  0  0  0  0  0  0
  185.8180  178.0950  144.2050 C   0  0  0  0  0  2  0  0  0  0  0  0
  187.8080  177.7760  142.6500 C   0  0  0  0  0  2  0  0  0  0  0  0
  188.3430  176.7700  143.6740 C   0  0  0  0  0  2  0  0  0  0  0  0
  186.2900  177.8870  142.7580 C   0  0  2  0  0  3  0  0  0  0  0  0
  187.8540  176.9970  145.0560 N   0  0  0  0  0  0  0  0  0  0  0  0
  186.9870  178.1750  145.1880 C   0  0  0  0  0  2  0  0  0  0  0  0
  188.9820  177.1600  145.9830 C   0  0  2  0  0  3  0  0  0  0  0  0
  188.6860  178.0890  146.9950 O   0  0  0  0  0  0  0  0  0  0  0  0
  188.5380  177.3280  148.1610 C   0  0  0  0  0  1  0  0  0  0  0  0
  190.2380  177.5760  145.2200 C   0  0  0  0  0  2  0  0  0  0  0  0
  191.4040  176.6770  145.5920 C   0  0  0  0  0  2  0  0  0  0  0  0
  191.8660  177.0130  146.8660 O   0  0  0  0  0  1  0  0  0  0  0  0
  186.9410  178.7400  139.1960 O   0  0  0  0  0  0  0  0  0  0  0  0
  187.6660  177.7960  138.4180 C   0  0  0  0  0  2  0  0  0  0  0  0
  188.2130  178.4680  137.1740 C   0  0  0  0  0  2  0  0  0  0  0  0
  188.9730  179.5800  137.5340 O   0  0  0  0  0  1  0  0  0  0  0  0
  1  5  1  0  0  0  0
  2  3  1  0  0  0  0
  3  8  2  0  0  0  0
  3 11  1  0  0  0  0
  5  4  1  6  0  0  0
  6  5  1  0  0  0  0
  6 12  1  0  0  0  0
  7 11  1  0  0  0  0
  7 14  1  0  0  0  0
  8  6  1  0  0  0  0
  9  7  2  0  0  0  0
 10  8  1  0  0  0  0
 10  1  2  0  0  0  0
 11 12  2  0  0  0  0
 13  2  2  0  0  0  0
 13  9  1  0  0  0  0
 15 20  1  0  0  0  0
 16 18  1  0  0  0  0
 16 17  1  0  0  0  0
 17 19  1  0  0  0  0
 18 14  1  6  0  0  0
 18 15  1  0  0  0  0
 19 20  1  0  0  0  0
 19 21  1  0  0  0  0
 21 24  1  6  0  0  0
 21 22  1  0  0  0  0
 22 23  1  0  0  0  0
 24 25  1  0  0  0  0
 25 26  1  0  0  0  0
 27  9  1  0  0  0  0
 28 27  1  0  0  0  0
 29 30  1  0  0  0  0
 29 28  1  0  0  0  0
M  END
>  <MODEL>
7

>  <REMARK>
 VINA RESULT:      -7.0      3.828      7.495
  Name = 
  9 active torsions:
  status: ('A' for Active; 'I' for Inactive)
    1  A    between atoms: C_1  and  C_6
    2  A    between atoms: C_1  and  O_9
    3  A    between atoms: C_1  and  N_19
    4  A    between atoms: C_5  and  C_6
    5  A    between atoms: C_7  and  C_29
    6  A    between atoms: O_16  and  C_17
    7  A    between atoms: O_16  and  C_20
    8  A    between atoms: C_23  and  O_27
    9  A    between atoms: O_27  and  C_29
                            x       y       z     vdW  Elec       q    Type
                         _______ _______ _______ _____ _____    ______ ____

>  <TORSDO>
F 9

$$$$
=
 OpenBabel11032419143D

 30 33  0  0  1  0  0  0  0  0999 V2000
  188.6440  175.8430  136.3660 N   0  0  0  0  0  0  0  0  0  0  0  0
  185.6340  178.2530  138.5870 C   0  0  0  0  0  3  0  0  0  0  0  0
  186.9930  177.9590  138.5680 C   0  0  0  0  0  0  0  0  0  0  0  0
  190.8640  175.6120  137.5110 C   0  0  0  0  0  1  0  0  0  0  0  0
  189.5690  176.2960  137.2440 C   0  0  2  0  0  3  0  0  0  0  0  0
  189.0900  177.3260  137.9550 N   0  0  0  0  0  0  0  0  0  0  0  0
  187.2900  178.6230  140.8760 C   0  0  0  0  0  0  0  0  0  0  0  0
  187.8420  177.4520  137.5190 C   0  0  0  0  0  0  0  0  0  0  0  0
  185.8900  178.8850  140.9440 C   0  0  0  0  0  0  0  0  0  0  0  0
  187.5360  176.5520  136.5630 N   0  0  0  0  0  0  0  0  0  0  0  0
  187.8030  178.1180  139.6780 C   0  0  0  0  0  0  0  0  0  0  0  0
  189.2170  177.6900  139.3630 C   0  0  0  0  0  3  0  0  0  0  0  0
  185.0890  178.7210  139.7920 C   0  0  0  0  0  3  0  0  0  0  0  0
  188.1750  178.8700  141.9340 O   0  0  0  0  0  0  0  0  0  0  0  0
  187.6830  177.2230  143.6510 C   0  0  0  0  0  2  0  0  0  0  0  0
  189.9400  178.3910  143.4970 C   0  0  0  0  0  2  0  0  0  0  0  0
  190.4510  177.3570  144.5050 C   0  0  0  0  0  2  0  0  0  0  0  0
  188.7470  177.8340  142.7260 C   0  0  2  0  0  3  0  0  0  0  0  0
  189.3930  176.7810  145.3700 N   0  0  0  0  0  0  0  0  0  0  0  0
  188.0600  177.3490  145.1270 C   0  0  0  0  0  2  0  0  0  0  0  0
  189.7190  176.9820  146.7890 C   0  0  2  0  0  3  0  0  0  0  0  0
  189.0990  178.1360  147.3010 O   0  0  0  0  0  0  0  0  0  0  0  0
  188.9680  177.9030  148.6750 C   0  0  0  0  0  1  0  0  0  0  0  0
  191.2320  177.0540  146.9790 C   0  0  0  0  0  2  0  0  0  0  0  0
  191.7820  175.6940  147.3700 C   0  0  0  0  0  2  0  0  0  0  0  0
  192.8080  175.8550  148.3020 O   0  0  0  0  0  1  0  0  0  0  0  0
  185.2490  179.2710  142.1250 O   0  0  0  0  0  0  0  0  0  0  0  0
  184.5720  178.3400  142.9590 C   0  0  0  0  0  2  0  0  0  0  0  0
  183.4410  179.0350  143.6910 C   0  0  0  0  0  2  0  0  0  0  0  0
  183.7640  179.1680  145.0410 O   0  0  0  0  0  1  0  0  0  0  0  0
  1 10  2  0  0  0  0
  1  5  1  0  0  0  0
  2 13  2  0  0  0  0
  3  2  1  0  0  0  0
  3 11  1  0  0  0  0
  5  4  1  1  0  0  0
  5  6  1  0  0  0  0
  6 12  1  0  0  0  0
  7  9  2  0  0  0  0
  7 14  1  0  0  0  0
  8  6  1  0  0  0  0
  8  3  2  0  0  0  0
  9 27  1  0  0  0  0
 10  8  1  0  0  0  0
 11  7  1  0  0  0  0
 12 11  2  0  0  0  0
 13  9  1  0  0  0  0
 15 20  1  0  0  0  0
 16 17  1  0  0  0  0
 17 19  1  0  0  0  0
 18 14  1  1  0  0  0
 18 16  1  0  0  0  0
 18 15  1  0  0  0  0
 19 21  1  0  0  0  0
 20 19  1  0  0  0  0
 21 24  1  6  0  0  0
 21 22  1  0  0  0  0
 22 23  1  0  0  0  0
 24 25  1  0  0  0  0
 25 26  1  0  0  0  0
 27 28  1  0  0  0  0
 28 29  1  0  0  0  0
 29 30  1  0  0  0  0
M  END
>  <MODEL>
8

>  <REMARK>
 VINA RESULT:      -7.0      2.487      7.349
  Name = 
  9 active torsions:
  status: ('A' for Active; 'I' for Inactive)
    1  A    between atoms: C_1  and  C_6
    2  A    between atoms: C_1  and  O_9
    3  A    between atoms: C_1  and  N_19
    4  A    between atoms: C_5  and  C_6
    5  A    between atoms: C_7  and  C_29
    6  A    between atoms: O_16  and  C_17
    7  A    between atoms: O_16  and  C_20
    8  A    between atoms: C_23  and  O_27
    9  A    between atoms: O_27  and  C_29
                            x       y       z     vdW  Elec       q    Type
                         _______ _______ _______ _____ _____    ______ ____

>  <TORSDO>
F 9

$$$$
=
 OpenBabel11032419143D

 30 33  0  0  1  0  0  0  0  0999 V2000
  182.0820  178.7260  143.4400 N   0  0  0  0  0  0  0  0  0  0  0  0
  184.9030  178.3240  146.8570 C   0  0  0  0  0  3  0  0  0  0  0  0
  184.8770  178.5960  145.4940 C   0  0  0  0  0  0  0  0  0  0  0  0
  183.1620  178.7380  141.1760 C   0  0  0  0  0  1  0  0  0  0  0  0
  183.1590  178.9410  142.6510 C   0  0  2  0  0  3  0  0  0  0  0  0
  184.2520  179.1850  143.3890 N   0  0  0  0  0  0  0  0  0  0  0  0
  187.2030  177.9910  145.2100 C   0  0  0  0  0  0  0  0  0  0  0  0
  183.8170  179.0650  144.6380 C   0  0  0  0  0  0  0  0  0  0  0  0
  187.2480  177.6540  146.5950 C   0  0  0  0  0  0  0  0  0  0  0  0
  182.5040  178.7690  144.7010 N   0  0  0  0  0  0  0  0  0  0  0  0
  185.9830  178.4210  144.6810 C   0  0  0  0  0  0  0  0  0  0  0  0
  185.6440  178.7660  143.2500 C   0  0  0  0  0  3  0  0  0  0  0  0
  186.1060  177.8510  147.4020 C   0  0  0  0  0  3  0  0  0  0  0  0
  188.3190  177.9390  144.3650 O   0  0  0  0  0  0  0  0  0  0  0  0
  189.2140  176.0270  143.1630 C   0  0  0  0  0  2  0  0  0  0  0  0
  188.7300  178.2460  142.0140 C   0  0  0  0  0  2  0  0  0  0  0  0
  188.9240  177.5070  140.6860 C   0  0  0  0  0  2  0  0  0  0  0  0
  188.3120  177.2690  143.1090 C   0  0  2  0  0  3  0  0  0  0  0  0
  189.7900  176.3070  140.7830 N   0  0  0  0  0  0  0  0  0  0  0  0
  190.3370  176.0820  142.1280 C   0  0  0  0  0  2  0  0  0  0  0  0
  190.9170  176.4060  139.8460 C   0  0  2  0  0  3  0  0  0  0  0  0
  191.6640  177.5770  140.0620 O   0  0  0  0  0  0  0  0  0  0  0  0
  193.0020  177.1910  139.9190 C   0  0  0  0  0  1  0  0  0  0  0  0
  190.4150  176.3450  138.4050 C   0  0  0  0  0  2  0  0  0  0  0  0
  191.1060  175.2230  137.6510 C   0  0  0  0  0  2  0  0  0  0  0  0
  190.2930  174.0880  137.6550 O   0  0  0  0  0  1  0  0  0  0  0  0
  188.3780  177.0970  147.2010 O   0  0  0  0  0  0  0  0  0  0  0  0
  189.6660  177.6880  147.0910 C   0  0  0  0  0  2  0  0  0  0  0  0
  190.7170  176.6040  146.9500 C   0  0  0  0  0  2  0  0  0  0  0  0
  191.8950  177.1520  146.4430 O   0  0  0  0  0  1  0  0  0  0  0  0
  1 10  2  0  0  0  0
  2 13  2  0  0  0  0
  3  2  1  0  0  0  0
  5  4  1  1  0  0  0
  5  6  1  0  0  0  0
  5  1  1  0  0  0  0
  6  8  1  0  0  0  0
  7  9  2  0  0  0  0
  8 10  1  0  0  0  0
  8  3  2  0  0  0  0
  9 27  1  0  0  0  0
  9 13  1  0  0  0  0
 11  7  1  0  0  0  0
 11  3  1  0  0  0  0
 12  6  1  0  0  0  0
 12 11  2  0  0  0  0
 14  7  1  0  0  0  0
 16 18  1  0  0  0  0
 17 19  1  0  0  0  0
 17 16  1  0  0  0  0
 18 15  1  0  0  0  0
 18 14  1  1  0  0  0
 19 20  1  0  0  0  0
 20 15  1  0  0  0  0
 21 24  1  6  0  0  0
 21 22  1  0  0  0  0
 21 19  1  0  0  0  0
 23 22  1  0  0  0  0
 25 26  1  0  0  0  0
 25 24  1  0  0  0  0
 28 27  1  0  0  0  0
 29 28  1  0  0  0  0
 30 29  1  0  0  0  0
M  END
>  <MODEL>
9

>  <REMARK>
 VINA RESULT:      -6.9      2.867      5.176
  Name = 
  9 active torsions:
  status: ('A' for Active; 'I' for Inactive)
    1  A    between atoms: C_1  and  C_6
    2  A    between atoms: C_1  and  O_9
    3  A    between atoms: C_1  and  N_19
    4  A    between atoms: C_5  and  C_6
    5  A    between atoms: C_7  and  C_29
    6  A    between atoms: O_16  and  C_17
    7  A    between atoms: O_16  and  C_20
    8  A    between atoms: C_23  and  O_27
    9  A    between atoms: O_27  and  C_29
                            x       y       z     vdW  Elec       q    Type
                         _______ _______ _______ _____ _____    ______ ____

>  <TORSDO>
F 9

$$$$
