=
 OpenBabel11042412023D

 28 30  0  0  1  0  0  0  0  0999 V2000
  186.6500  177.1800  144.5590 C   0  0  2  0  0  3  0  0  0  0  0  0
  186.5480  177.4060  146.0770 C   0  0  0  0  0  2  0  0  0  0  0  0
  190.1060  177.9120  143.0810 C   0  0  2  0  0  3  0  0  0  0  0  0
  189.8320  177.6480  145.5610 C   0  0  2  0  0  3  0  0  0  0  0  0
  191.1290  176.7820  143.1780 C   0  0  0  0  0  2  0  0  0  0  0  0
  191.6810  176.7540  144.6020 C   0  0  0  0  0  2  0  0  0  0  0  0
  188.9250  177.5690  146.7930 C   0  0  0  0  0  2  0  0  0  0  0  0
  188.0190  176.7690  143.9960 C   0  0  0  0  0  2  0  0  0  0  0  0
  187.6180  178.3340  146.6430 C   0  0  0  0  0  2  0  0  0  0  0  0
  189.0840  177.8450  144.2240 C   0  0  2  0  0  3  0  0  0  0  0  0
  190.6420  176.4950  145.5120 O   0  0  0  0  0  0  0  0  0  0  0  0
  189.4790  177.8970  141.8330 O   0  0  0  0  0  0  0  0  0  0  0  0
  189.9820  176.7600  141.1970 C   0  0  0  0  0  2  0  0  0  0  0  0
  190.2870  175.5530  137.9800 C   0  0  0  0  0  2  0  0  0  0  0  0
  188.8810  176.9580  138.9840 C   0  0  2  0  0  3  0  0  0  0  0  0
  191.0430  176.0450  139.1270 N   0  0  0  0  0  0  0  0  0  0  0  0
  190.1890  177.0480  139.7210 C   0  0  2  0  0  3  0  0  0  0  0  0
  189.1610  176.3620  137.7500 O   0  0  0  0  0  0  0  0  0  0  0  0
  192.2130  176.7380  138.6100 C   0  0  0  0  0  2  0  0  0  0  0  0
  193.1150  177.1500  139.7580 C   0  0  0  0  0  1  0  0  0  0  0  0
  188.2620  178.3130  138.7910 C   0  0  0  0  0  0  0  0  0  0  0  0
  188.9550  179.2590  138.2390 N   0  0  0  0  0  2  0  0  0  0  0  0
  186.9220  178.5230  139.1310 O   0  0  0  0  0  0  0  0  0  0  0  0
  185.8510  178.1440  138.2770 C   0  0  0  0  0  1  0  0  0  0  0  0
  185.9420  178.1800  143.7520 N   0  0  0  0  0  2  0  0  0  0  0  0
  184.8340  178.7650  144.4970 C   0  0  0  0  0  2  0  0  0  0  0  0
  183.3760  178.8990  143.4250 S   0  0  0  0  0  0  0  0  0  0  0  0
  184.2680  178.2790  141.9720 C   0  0  0  0  0  1  0  0  0  0  0  0
  1 25  1  6  0  0  0
  1  2  1  0  0  0  0
  2  9  1  0  0  0  0
  3 12  1  6  0  0  0
  3  5  1  0  0  0  0
  3 10  1  0  0  0  0
  4  7  1  1  0  0  0
  5  6  1  0  0  0  0
  6 11  1  0  0  0  0
  8  1  1  0  0  0  0
  9  7  1  0  0  0  0
 10  8  1  6  0  0  0
 10  4  1  0  0  0  0
 11  4  1  0  0  0  0
 13 12  1  0  0  0  0
 14 16  1  0  0  0  0
 15 21  1  6  0  0  0
 15 17  1  0  0  0  0
 16 17  1  0  0  0  0
 17 13  1  1  0  0  0
 18 14  1  0  0  0  0
 18 15  1  0  0  0  0
 19 16  1  0  0  0  0
 19 20  1  0  0  0  0
 21 23  1  0  0  0  0
 22 21  2  0  0  0  0
 24 23  1  0  0  0  0
 25 26  1  0  0  0  0
 27 26  1  0  0  0  0
 28 27  1  0  0  0  0
M  END
>  <MODEL>
1

>  <REMARK>
 VINA RESULT:      -7.3      0.000      0.000
  Name = 
  9 active torsions:
  status: ('A' for Active; 'I' for Inactive)
    1  A    between atoms: C_2  and  N_20
    2  A    between atoms: C_4  and  C_7
    3  A    between atoms: O_5  and  C_8
    4  A    between atoms: O_5  and  C_21
    5  A    between atoms: C_6  and  N_22
    6  A    between atoms: C_7  and  O_16
    7  A    between atoms: S_9  and  C_12
    8  A    between atoms: C_12  and  N_20
    9  A    between atoms: C_21  and  C_25
                            x       y       z     vdW  Elec       q    Type
                         _______ _______ _______ _____ _____    ______ ____

>  <TORSDO>
F 9

$$$$
=
 OpenBabel11042412023D

 28 30  0  0  1  0  0  0  0  0999 V2000
  186.6780  177.1910  144.6390 C   0  0  2  0  0  3  0  0  0  0  0  0
  187.1820  177.3780  146.0800 C   0  0  0  0  0  2  0  0  0  0  0  0
  189.3380  177.7700  141.9450 C   0  0  2  0  0  3  0  0  0  0  0  0
  190.0230  177.4490  144.3380 C   0  0  2  0  0  3  0  0  0  0  0  0
  190.2460  176.5820  141.6350 C   0  0  0  0  0  2  0  0  0  0  0  0
  191.3010  176.4810  142.7350 C   0  0  0  0  0  2  0  0  0  0  0  0
  189.6570  177.3860  145.8250 C   0  0  0  0  0  2  0  0  0  0  0  0
  187.6960  176.7200  143.5890 C   0  0  0  0  0  2  0  0  0  0  0  0
  188.4440  178.2270  146.1950 C   0  0  0  0  0  2  0  0  0  0  0  0
  188.8320  177.7270  143.3940 C   0  0  2  0  0  3  0  0  0  0  0  0
  190.6770  176.2540  143.9740 O   0  0  0  0  0  0  0  0  0  0  0  0
  188.2800  177.8260  141.0360 O   0  0  0  0  0  0  0  0  0  0  0  0
  188.8500  178.3130  139.8580 C   0  0  0  0  0  2  0  0  0  0  0  0
  187.7000  178.5980  136.6180 C   0  0  0  0  0  2  0  0  0  0  0  0
  189.2100  177.3060  137.6210 C   0  0  2  0  0  3  0  0  0  0  0  0
  187.2830  178.5930  138.0170 N   0  0  0  0  0  0  0  0  0  0  0  0
  188.1820  177.6620  138.6600 C   0  0  2  0  0  3  0  0  0  0  0  0
  188.6270  177.5700  136.3780 O   0  0  0  0  0  0  0  0  0  0  0  0
  185.9540  178.0040  138.0710 C   0  0  0  0  0  2  0  0  0  0  0  0
  185.1380  178.6760  139.1580 C   0  0  0  0  0  1  0  0  0  0  0  0
  189.6170  175.8640  137.7200 C   0  0  0  0  0  0  0  0  0  0  0  0
  188.9070  174.9570  137.1270 N   0  0  0  0  0  2  0  0  0  0  0  0
  190.8000  175.5160  138.3810 O   0  0  0  0  0  0  0  0  0  0  0  0
  191.9660  176.3260  138.3320 C   0  0  0  0  0  1  0  0  0  0  0  0
  185.7790  178.2520  144.1730 N   0  0  0  0  0  2  0  0  0  0  0  0
  184.8270  178.6260  145.2120 C   0  0  0  0  0  2  0  0  0  0  0  0
  183.2110  178.9810  144.4650 S   0  0  0  0  0  0  0  0  0  0  0  0
  183.8300  178.7370  142.7770 C   0  0  0  0  0  1  0  0  0  0  0  0
  1 25  1  6  0  0  0
  1  2  1  0  0  0  0
  2  9  1  0  0  0  0
  3 12  1  6  0  0  0
  3 10  1  0  0  0  0
  4  7  1  1  0  0  0
  5  3  1  0  0  0  0
  5  6  1  0  0  0  0
  6 11  1  0  0  0  0
  7  9  1  0  0  0  0
  8  1  1  0  0  0  0
 10  8  1  6  0  0  0
 10  4  1  0  0  0  0
 11  4  1  0  0  0  0
 13 12  1  0  0  0  0
 14 16  1  0  0  0  0
 15 21  1  6  0  0  0
 15 17  1  0  0  0  0
 16 19  1  0  0  0  0
 16 17  1  0  0  0  0
 17 13  1  1  0  0  0
 18 14  1  0  0  0  0
 18 15  1  0  0  0  0
 19 20  1  0  0  0  0
 21 23  1  0  0  0  0
 22 21  2  0  0  0  0
 24 23  1  0  0  0  0
 25 26  1  0  0  0  0
 27 26  1  0  0  0  0
 28 27  1  0  0  0  0
M  END
>  <MODEL>
2

>  <REMARK>
 VINA RESULT:      -7.3      1.326      3.159
  Name = 
  9 active torsions:
  status: ('A' for Active; 'I' for Inactive)
    1  A    between atoms: C_2  and  N_20
    2  A    between atoms: C_4  and  C_7
    3  A    between atoms: O_5  and  C_8
    4  A    between atoms: O_5  and  C_21
    5  A    between atoms: C_6  and  N_22
    6  A    between atoms: C_7  and  O_16
    7  A    between atoms: S_9  and  C_12
    8  A    between atoms: C_12  and  N_20
    9  A    between atoms: C_21  and  C_25
                            x       y       z     vdW  Elec       q    Type
                         _______ _______ _______ _____ _____    ______ ____

>  <TORSDO>
F 9

$$$$
=
 OpenBabel11042412023D

 28 30  0  0  1  0  0  0  0  0999 V2000
  189.4900  177.9380  146.7970 C   0  0  2  0  0  3  0  0  0  0  0  0
  189.1490  178.1900  148.2750 C   0  0  0  0  0  2  0  0  0  0  0  0
  186.4510  177.2700  144.5640 C   0  0  2  0  0  3  0  0  0  0  0  0
  186.1380  178.2610  146.8480 C   0  0  2  0  0  3  0  0  0  0  0  0
  185.7200  178.5040  144.0420 C   0  0  0  0  0  2  0  0  0  0  0  0
  184.8450  179.0570  145.1650 C   0  0  0  0  0  2  0  0  0  0  0  0
  186.6950  178.5960  148.2360 C   0  0  0  0  0  2  0  0  0  0  0  0
  188.4390  178.3380  145.7510 C   0  0  0  0  0  2  0  0  0  0  0  0
  187.7890  177.6470  148.7030 C   0  0  0  0  0  2  0  0  0  0  0  0
  187.1370  177.5500  145.9090 C   0  0  2  0  0  3  0  0  0  0  0  0
  185.6490  179.4410  146.2520 O   0  0  0  0  0  0  0  0  0  0  0  0
  187.3620  176.8030  143.6140 O   0  0  0  0  0  0  0  0  0  0  0  0
  187.1400  177.5990  142.4890 C   0  0  0  0  0  2  0  0  0  0  0  0
  190.2910  176.5620  141.5420 C   0  0  0  0  0  2  0  0  0  0  0  0
  188.5150  177.3350  140.4430 C   0  0  2  0  0  3  0  0  0  0  0  0
  189.5570  177.3190  142.5510 N   0  0  0  0  0  0  0  0  0  0  0  0
  188.4650  177.9270  141.8240 C   0  0  2  0  0  3  0  0  0  0  0  0
  189.8230  176.8770  140.2540 O   0  0  0  0  0  0  0  0  0  0  0  0
  190.4230  178.4000  142.9960 C   0  0  0  0  0  2  0  0  0  0  0  0
  191.8520  177.9030  143.1010 C   0  0  0  0  0  1  0  0  0  0  0  0
  188.1530  178.3480  139.3950 C   0  0  0  0  0  0  0  0  0  0  0  0
  189.0920  178.9920  138.7760 N   0  0  0  0  0  2  0  0  0  0  0  0
  186.8130  178.5330  139.0360 O   0  0  0  0  0  0  0  0  0  0  0  0
  186.2890  178.0840  137.7940 C   0  0  0  0  0  1  0  0  0  0  0  0
  190.1360  176.6460  146.5390 N   0  0  0  0  0  2  0  0  0  0  0  0
  191.5740  176.8050  146.3610 C   0  0  0  0  0  2  0  0  0  0  0  0
  192.4230  175.2670  146.8160 S   0  0  0  0  0  0  0  0  0  0  0  0
  192.8300  175.8710  148.4780 C   0  0  0  0  0  1  0  0  0  0  0  0
  1 25  1  1  0  0  0
  1  2  1  0  0  0  0
  2  9  1  0  0  0  0
  3 12  1  6  0  0  0
  3 10  1  0  0  0  0
  4  7  1  1  0  0  0
  5  3  1  0  0  0  0
  5  6  1  0  0  0  0
  6 11  1  0  0  0  0
  7  9  1  0  0  0  0
  8  1  1  0  0  0  0
 10  8  1  6  0  0  0
 10  4  1  0  0  0  0
 11  4  1  0  0  0  0
 13 12  1  0  0  0  0
 14 16  1  0  0  0  0
 15 21  1  6  0  0  0
 15 17  1  0  0  0  0
 16 19  1  0  0  0  0
 17 13  1  1  0  0  0
 17 16  1  0  0  0  0
 18 15  1  0  0  0  0
 18 14  1  0  0  0  0
 19 20  1  0  0  0  0
 22 21  2  0  0  0  0
 23 21  1  0  0  0  0
 24 23  1  0  0  0  0
 26 25  1  0  0  0  0
 26 27  1  0  0  0  0
 27 28  1  0  0  0  0
M  END
>  <MODEL>
3

>  <REMARK>
 VINA RESULT:      -7.3      2.967      4.692
  Name = 
  9 active torsions:
  status: ('A' for Active; 'I' for Inactive)
    1  A    between atoms: C_2  and  N_20
    2  A    between atoms: C_4  and  C_7
    3  A    between atoms: O_5  and  C_8
    4  A    between atoms: O_5  and  C_21
    5  A    between atoms: C_6  and  N_22
    6  A    between atoms: C_7  and  O_16
    7  A    between atoms: S_9  and  C_12
    8  A    between atoms: C_12  and  N_20
    9  A    between atoms: C_21  and  C_25
                            x       y       z     vdW  Elec       q    Type
                         _______ _______ _______ _____ _____    ______ ____

>  <TORSDO>
F 9

$$$$
=
 OpenBabel11042412023D

 28 30  0  0  1  0  0  0  0  0999 V2000
  184.1410  179.4100  145.0620 C   0  0  2  0  0  3  0  0  0  0  0  0
  182.6430  179.3690  144.7200 C   0  0  0  0  0  2  0  0  0  0  0  0
  186.4130  177.8400  142.4090 C   0  0  2  0  0  3  0  0  0  0  0  0
  184.0350  178.4100  141.8470 C   0  0  2  0  0  3  0  0  0  0  0  0
  186.7960  178.7410  141.2370 C   0  0  0  0  0  2  0  0  0  0  0  0
  185.6150  178.8030  140.2710 C   0  0  0  0  0  2  0  0  0  0  0  0
  182.6230  178.8000  142.2980 C   0  0  0  0  0  2  0  0  0  0  0  0
  185.1320  179.4730  143.8900 C   0  0  0  0  0  2  0  0  0  0  0  0
  182.2660  178.3060  143.6930 C   0  0  0  0  0  2  0  0  0  0  0  0
  185.0500  178.2320  142.9970 C   0  0  2  0  0  3  0  0  0  0  0  0
  184.4990  179.3620  140.9170 O   0  0  0  0  0  0  0  0  0  0  0  0
  187.4130  177.8530  143.3830 O   0  0  0  0  0  0  0  0  0  0  0  0
  188.2400  176.7770  143.0570 C   0  0  0  0  0  2  0  0  0  0  0  0
  191.3570  176.1730  144.4080 C   0  0  0  0  0  2  0  0  0  0  0  0
  190.5650  176.3150  142.3310 C   0  0  2  0  0  3  0  0  0  0  0  0
  190.1530  176.9880  144.5460 N   0  0  0  0  0  0  0  0  0  0  0  0
  189.6950  177.1900  143.1900 C   0  0  2  0  0  3  0  0  0  0  0  0
  191.7380  176.0850  143.0580 O   0  0  0  0  0  0  0  0  0  0  0  0
  190.5670  178.2880  145.0510 C   0  0  0  0  0  2  0  0  0  0  0  0
  190.8200  179.2320  143.8910 C   0  0  0  0  0  1  0  0  0  0  0  0
  190.8770  176.9690  141.0150 C   0  0  0  0  0  0  0  0  0  0  0  0
  192.0130  177.5710  140.8540 N   0  0  0  0  0  2  0  0  0  0  0  0
  189.9780  176.8560  139.9490 O   0  0  0  0  0  0  0  0  0  0  0  0
  189.6130  177.9660  139.1410 C   0  0  0  0  0  1  0  0  0  0  0  0
  184.5390  178.4980  146.1390 N   0  0  0  0  0  2  0  0  0  0  0  0
  185.7450  178.9720  146.8090 C   0  0  0  0  0  2  0  0  0  0  0  0
  187.0440  177.7100  146.6970 S   0  0  0  0  0  0  0  0  0  0  0  0
  187.8250  178.2390  148.2470 C   0  0  0  0  0  1  0  0  0  0  0  0
  1 25  1  6  0  0  0
  2  1  1  0  0  0  0
  3 10  1  0  0  0  0
  3 12  1  1  0  0  0
  4  7  1  1  0  0  0
  4 10  1  0  0  0  0
  5  3  1  0  0  0  0
  6 11  1  0  0  0  0
  6  5  1  0  0  0  0
  7  9  1  0  0  0  0
  8  1  1  0  0  0  0
  9  2  1  0  0  0  0
 10  8  1  6  0  0  0
 11  4  1  0  0  0  0
 13 12  1  0  0  0  0
 14 16  1  0  0  0  0
 15 21  1  6  0  0  0
 15 18  1  0  0  0  0
 15 17  1  0  0  0  0
 16 19  1  0  0  0  0
 17 13  1  1  0  0  0
 17 16  1  0  0  0  0
 18 14  1  0  0  0  0
 20 19  1  0  0  0  0
 22 21  2  0  0  0  0
 23 21  1  0  0  0  0
 24 23  1  0  0  0  0
 25 26  1  0  0  0  0
 27 26  1  0  0  0  0
 27 28  1  0  0  0  0
M  END
>  <MODEL>
4

>  <REMARK>
 VINA RESULT:      -6.9      2.246      5.189
  Name = 
  9 active torsions:
  status: ('A' for Active; 'I' for Inactive)
    1  A    between atoms: C_2  and  N_20
    2  A    between atoms: C_4  and  C_7
    3  A    between atoms: O_5  and  C_8
    4  A    between atoms: O_5  and  C_21
    5  A    between atoms: C_6  and  N_22
    6  A    between atoms: C_7  and  O_16
    7  A    between atoms: S_9  and  C_12
    8  A    between atoms: C_12  and  N_20
    9  A    between atoms: C_21  and  C_25
                            x       y       z     vdW  Elec       q    Type
                         _______ _______ _______ _____ _____    ______ ____

>  <TORSDO>
F 9

$$$$
=
 OpenBabel11042412023D

 28 30  0  0  1  0  0  0  0  0999 V2000
  188.4800  178.2810  139.5990 C   0  0  2  0  0  3  0  0  0  0  0  0
  189.7550  178.0320  138.7750 C   0  0  0  0  0  2  0  0  0  0  0  0
  188.5280  176.7230  143.0960 C   0  0  2  0  0  3  0  0  0  0  0  0
  190.6610  176.9540  141.7960 C   0  0  2  0  0  3  0  0  0  0  0  0
  189.2240  177.5380  144.1830 C   0  0  0  0  0  2  0  0  0  0  0  0
  190.7330  177.3650  144.0240 C   0  0  0  0  0  2  0  0  0  0  0  0
  191.3840  177.2210  140.4710 C   0  0  0  0  0  2  0  0  0  0  0  0
  188.6260  178.3390  141.1270 C   0  0  0  0  0  2  0  0  0  0  0  0
  190.5760  176.8340  139.2420 C   0  0  0  0  0  2  0  0  0  0  0  0
  189.1200  177.0130  141.7100 C   0  0  2  0  0  3  0  0  0  0  0  0
  191.1390  177.8540  142.7700 O   0  0  0  0  0  0  0  0  0  0  0  0
  187.1500  176.9510  143.1210 O   0  0  0  0  0  0  0  0  0  0  0  0
  186.8190  176.9720  144.4770 C   0  0  0  0  0  2  0  0  0  0  0  0
  183.7520  178.5010  144.8820 C   0  0  0  0  0  2  0  0  0  0  0  0
  185.5160  178.1840  146.2040 C   0  0  2  0  0  3  0  0  0  0  0  0
  184.8610  178.3180  143.9500 N   0  0  0  0  0  0  0  0  0  0  0  0
  186.0320  178.2320  144.7920 C   0  0  2  0  0  3  0  0  0  0  0  0
  184.2360  178.7470  146.1780 O   0  0  0  0  0  0  0  0  0  0  0  0
  184.9840  179.5450  143.1790 C   0  0  0  0  0  2  0  0  0  0  0  0
  185.1460  179.2130  141.7080 C   0  0  0  0  0  1  0  0  0  0  0  0
  186.4100  178.9420  147.1440 C   0  0  0  0  0  0  0  0  0  0  0  0
  185.9760  180.0280  147.7010 N   0  0  0  0  0  2  0  0  0  0  0  0
  187.6690  178.4300  147.4750 O   0  0  0  0  0  0  0  0  0  0  0  0
  187.9060  177.7090  148.6760 C   0  0  0  0  0  1  0  0  0  0  0  0
  187.3060  177.5360  139.1330 N   0  0  0  0  0  2  0  0  0  0  0  0
  186.8540  178.0270  137.8370 C   0  0  0  0  0  2  0  0  0  0  0  0
  185.9980  176.7010  136.9420 S   0  0  0  0  0  0  0  0  0  0  0  0
  187.4980  175.6870  136.8170 C   0  0  0  0  0  1  0  0  0  0  0  0
  1 25  1  1  0  0  0
  1  8  1  0  0  0  0
  2  9  1  0  0  0  0
  2  1  1  0  0  0  0
  3 12  1  6  0  0  0
  3  5  1  0  0  0  0
  4  7  1  6  0  0  0
  4 11  1  0  0  0  0
  6  5  1  0  0  0  0
  9  7  1  0  0  0  0
 10  8  1  1  0  0  0
 10  4  1  0  0  0  0
 10  3  1  0  0  0  0
 11  6  1  0  0  0  0
 12 13  1  0  0  0  0
 14 18  1  0  0  0  0
 15 21  1  1  0  0  0
 16 17  1  0  0  0  0
 16 14  1  0  0  0  0
 17 13  1  6  0  0  0
 17 15  1  0  0  0  0
 18 15  1  0  0  0  0
 19 16  1  0  0  0  0
 20 19  1  0  0  0  0
 21 23  1  0  0  0  0
 21 22  2  0  0  0  0
 23 24  1  0  0  0  0
 26 25  1  0  0  0  0
 27 26  1  0  0  0  0
 28 27  1  0  0  0  0
M  END
>  <MODEL>
5

>  <REMARK>
 VINA RESULT:      -6.8      2.630      6.922
  Name = 
  9 active torsions:
  status: ('A' for Active; 'I' for Inactive)
    1  A    between atoms: C_2  and  N_20
    2  A    between atoms: C_4  and  C_7
    3  A    between atoms: O_5  and  C_8
    4  A    between atoms: O_5  and  C_21
    5  A    between atoms: C_6  and  N_22
    6  A    between atoms: C_7  and  O_16
    7  A    between atoms: S_9  and  C_12
    8  A    between atoms: C_12  and  N_20
    9  A    between atoms: C_21  and  C_25
                            x       y       z     vdW  Elec       q    Type
                         _______ _______ _______ _____ _____    ______ ____

>  <TORSDO>
F 9

$$$$
=
 OpenBabel11042412023D

 28 30  0  0  1  0  0  0  0  0999 V2000
  186.9540  178.4760  146.4290 C   0  0  2  0  0  3  0  0  0  0  0  0
  185.6740  178.6720  147.2590 C   0  0  0  0  0  2  0  0  0  0  0  0
  186.3330  177.6310  142.7460 C   0  0  2  0  0  3  0  0  0  0  0  0
  184.4710  178.5500  144.1530 C   0  0  2  0  0  3  0  0  0  0  0  0
  186.0800  178.8190  141.8200 C   0  0  0  0  0  2  0  0  0  0  0  0
  184.6380  179.2830  142.0150 C   0  0  0  0  0  2  0  0  0  0  0  0
  183.8980  178.8970  145.5320 C   0  0  0  0  0  2  0  0  0  0  0  0
  186.8850  178.8190  144.9330 C   0  0  0  0  0  2  0  0  0  0  0  0
  184.4330  178.0230  146.6570 C   0  0  0  0  0  2  0  0  0  0  0  0
  185.8870  177.9330  144.1830 C   0  0  2  0  0  3  0  0  0  0  0  0
  184.4480  179.7030  143.3430 O   0  0  0  0  0  0  0  0  0  0  0  0
  187.6760  177.2520  142.6970 O   0  0  0  0  0  0  0  0  0  0  0  0
  188.2860  178.2070  141.8810 C   0  0  0  0  0  2  0  0  0  0  0  0
  190.9480  176.1530  142.6520 C   0  0  0  0  0  2  0  0  0  0  0  0
  189.8450  176.6270  140.7760 C   0  0  2  0  0  3  0  0  0  0  0  0
  190.3610  177.4640  142.9120 N   0  0  0  0  0  0  0  0  0  0  0  0
  189.7420  177.8390  141.6610 C   0  0  2  0  0  3  0  0  0  0  0  0
  190.8990  175.8570  141.2790 O   0  0  0  0  0  0  0  0  0  0  0  0
  191.4570  178.3930  143.1370 C   0  0  0  0  0  2  0  0  0  0  0  0
  191.0190  179.4810  144.0980 C   0  0  0  0  0  1  0  0  0  0  0  0
  190.1020  177.0090  139.3470 C   0  0  0  0  0  0  0  0  0  0  0  0
  191.2820  176.8350  138.8410 N   0  0  0  0  0  2  0  0  0  0  0  0
  189.0510  177.4720  138.5480 O   0  0  0  0  0  0  0  0  0  0  0  0
  189.0430  178.7740  137.9810 C   0  0  0  0  0  1  0  0  0  0  0  0
  187.6850  177.2410  146.7310 N   0  0  0  0  0  2  0  0  0  0  0  0
  189.0340  177.2820  146.1800 C   0  0  0  0  0  2  0  0  0  0  0  0
  190.2460  176.9990  147.5000 S   0  0  0  0  0  0  0  0  0  0  0  0
  191.5620  176.5620  146.3300 C   0  0  0  0  0  1  0  0  0  0  0  0
  1 25  1  6  0  0  0
  1  2  1  0  0  0  0
  3 12  1  1  0  0  0
  3 10  1  0  0  0  0
  4 10  1  0  0  0  0
  4  7  1  1  0  0  0
  5  6  1  0  0  0  0
  5  3  1  0  0  0  0
  6 11  1  0  0  0  0
  7  9  1  0  0  0  0
  8  1  1  0  0  0  0
  9  2  1  0  0  0  0
 10  8  1  6  0  0  0
 11  4  1  0  0  0  0
 13 12  1  0  0  0  0
 14 16  1  0  0  0  0
 15 21  1  6  0  0  0
 15 18  1  0  0  0  0
 15 17  1  0  0  0  0
 16 19  1  0  0  0  0
 17 13  1  1  0  0  0
 17 16  1  0  0  0  0
 18 14  1  0  0  0  0
 19 20  1  0  0  0  0
 22 21  2  0  0  0  0
 23 21  1  0  0  0  0
 24 23  1  0  0  0  0
 26 25  1  0  0  0  0
 26 27  1  0  0  0  0
 28 27  1  0  0  0  0
M  END
>  <MODEL>
6

>  <REMARK>
 VINA RESULT:      -6.4      2.527      4.614
  Name = 
  9 active torsions:
  status: ('A' for Active; 'I' for Inactive)
    1  A    between atoms: C_2  and  N_20
    2  A    between atoms: C_4  and  C_7
    3  A    between atoms: O_5  and  C_8
    4  A    between atoms: O_5  and  C_21
    5  A    between atoms: C_6  and  N_22
    6  A    between atoms: C_7  and  O_16
    7  A    between atoms: S_9  and  C_12
    8  A    between atoms: C_12  and  N_20
    9  A    between atoms: C_21  and  C_25
                            x       y       z     vdW  Elec       q    Type
                         _______ _______ _______ _____ _____    ______ ____

>  <TORSDO>
F 9

$$$$
=
 OpenBabel11042412023D

 28 30  0  0  1  0  0  0  0  0999 V2000
  188.6780  177.9560  145.5380 C   0  0  2  0  0  3  0  0  0  0  0  0
  187.8060  177.8770  146.8030 C   0  0  0  0  0  2  0  0  0  0  0  0
  186.7180  177.7720  142.2530 C   0  0  2  0  0  3  0  0  0  0  0  0
  185.5180  178.2390  144.4070 C   0  0  2  0  0  3  0  0  0  0  0  0
  186.1200  179.0860  141.7560 C   0  0  0  0  0  2  0  0  0  0  0  0
  184.8550  179.3750  142.5610 C   0  0  0  0  0  2  0  0  0  0  0  0
  185.5060  178.2670  145.9390 C   0  0  0  0  0  2  0  0  0  0  0  0
  188.0440  178.5680  144.2800 C   0  0  0  0  0  2  0  0  0  0  0  0
  186.4360  177.2460  146.5790 C   0  0  0  0  0  2  0  0  0  0  0  0
  186.8460  177.7560  143.7830 C   0  0  2  0  0  3  0  0  0  0  0  0
  185.1770  179.5180  143.9210 O   0  0  0  0  0  0  0  0  0  0  0  0
  187.9460  177.5300  141.6360 O   0  0  0  0  0  0  0  0  0  0  0  0
  188.0310  178.4890  140.6250 C   0  0  0  0  0  2  0  0  0  0  0  0
  188.4890  178.7650  137.2170 C   0  0  0  0  0  2  0  0  0  0  0  0
  189.7740  178.0920  138.9060 C   0  0  2  0  0  3  0  0  0  0  0  0
  187.5340  178.3660  138.2460 N   0  0  0  0  0  0  0  0  0  0  0  0
  188.3500  177.8140  139.3030 C   0  0  2  0  0  3  0  0  0  0  0  0
  189.7710  178.2760  137.5200 O   0  0  0  0  0  0  0  0  0  0  0  0
  186.7460  177.2710  137.7030 C   0  0  0  0  0  2  0  0  0  0  0  0
  186.6100  177.4310  136.2010 C   0  0  0  0  0  1  0  0  0  0  0  0
  190.6840  176.9610  139.2890 C   0  0  0  0  0  0  0  0  0  0  0  0
  191.5600  177.1350  140.2280 N   0  0  0  0  0  2  0  0  0  0  0  0
  190.5290  175.7060  138.6900 O   0  0  0  0  0  0  0  0  0  0  0  0
  191.5690  175.0810  137.9530 C   0  0  0  0  0  1  0  0  0  0  0  0
  189.4820  176.7560  145.2850 N   0  0  0  0  0  2  0  0  0  0  0  0
  190.8960  177.0890  145.1580 C   0  0  0  0  0  2  0  0  0  0  0  0
  191.6800  175.9880  143.9490 S   0  0  0  0  0  0  0  0  0  0  0  0
  190.1110  175.6330  143.1100 C   0  0  0  0  0  1  0  0  0  0  0  0
  1 25  1  6  0  0  0
  1  2  1  0  0  0  0
  3 12  1  6  0  0  0
  3 10  1  0  0  0  0
  4  7  1  1  0  0  0
  5  3  1  0  0  0  0
  5  6  1  0  0  0  0
  6 11  1  0  0  0  0
  7  9  1  0  0  0  0
  8  1  1  0  0  0  0
  9  2  1  0  0  0  0
 10  8  1  6  0  0  0
 10  4  1  0  0  0  0
 11  4  1  0  0  0  0
 13 12  1  0  0  0  0
 14 18  1  0  0  0  0
 14 16  1  0  0  0  0
 15 21  1  6  0  0  0
 15 17  1  0  0  0  0
 16 17  1  0  0  0  0
 17 13  1  1  0  0  0
 18 15  1  0  0  0  0
 19 16  1  0  0  0  0
 20 19  1  0  0  0  0
 21 22  2  0  0  0  0
 23 21  1  0  0  0  0
 24 23  1  0  0  0  0
 26 25  1  0  0  0  0
 27 26  1  0  0  0  0
 28 27  1  0  0  0  0
M  END
>  <MODEL>
7

>  <REMARK>
 VINA RESULT:      -6.4      2.507      4.622
  Name = 
  9 active torsions:
  status: ('A' for Active; 'I' for Inactive)
    1  A    between atoms: C_2  and  N_20
    2  A    between atoms: C_4  and  C_7
    3  A    between atoms: O_5  and  C_8
    4  A    between atoms: O_5  and  C_21
    5  A    between atoms: C_6  and  N_22
    6  A    between atoms: C_7  and  O_16
    7  A    between atoms: S_9  and  C_12
    8  A    between atoms: C_12  and  N_20
    9  A    between atoms: C_21  and  C_25
                            x       y       z     vdW  Elec       q    Type
                         _______ _______ _______ _____ _____    ______ ____

>  <TORSDO>
F 9

$$$$
=
 OpenBabel11042412023D

 28 30  0  0  1  0  0  0  0  0999 V2000
  185.2710  177.9650  144.7280 C   0  0  2  0  0  3  0  0  0  0  0  0
  185.4330  178.2210  146.2360 C   0  0  0  0  0  2  0  0  0  0  0  0
  188.5660  177.8770  142.7770 C   0  0  2  0  0  3  0  0  0  0  0  0
  188.5840  177.7040  145.2800 C   0  0  2  0  0  3  0  0  0  0  0  0
  189.3120  176.5450  142.7840 C   0  0  0  0  0  2  0  0  0  0  0  0
  190.0350  176.4040  144.1220 C   0  0  0  0  0  2  0  0  0  0  0  0
  187.8610  177.8440  146.6240 C   0  0  0  0  0  2  0  0  0  0  0  0
  186.4220  177.2480  144.0060 C   0  0  0  0  0  2  0  0  0  0  0  0
  186.7520  178.8860  146.6190 C   0  0  0  0  0  2  0  0  0  0  0  0
  187.7220  178.0550  144.0470 C   0  0  2  0  0  3  0  0  0  0  0  0
  189.0990  176.3960  145.1700 O   0  0  0  0  0  0  0  0  0  0  0  0
  187.7860  177.9940  141.6250 O   0  0  0  0  0  0  0  0  0  0  0  0
  188.6190  178.6150  140.6940 C   0  0  0  0  0  2  0  0  0  0  0  0
  188.5650  178.7750  137.2480 C   0  0  0  0  0  2  0  0  0  0  0  0
  189.8990  177.7930  138.7360 C   0  0  2  0  0  3  0  0  0  0  0  0
  187.7230  178.6290  138.4310 N   0  0  0  0  0  0  0  0  0  0  0  0
  188.5360  177.8850  139.3650 C   0  0  2  0  0  3  0  0  0  0  0  0
  189.7150  177.9750  137.3610 O   0  0  0  0  0  0  0  0  0  0  0  0
  186.6070  177.7720  138.0650 C   0  0  0  0  0  2  0  0  0  0  0  0
  185.3290  178.5870  138.0110 C   0  0  0  0  0  1  0  0  0  0  0  0
  190.5460  176.4660  139.0120 C   0  0  0  0  0  0  0  0  0  0  0  0
  190.2410  175.4410  138.2800 N   0  0  0  0  0  2  0  0  0  0  0  0
  191.5300  176.3620  140.0010 O   0  0  0  0  0  0  0  0  0  0  0  0
  192.1150  177.5010  140.6160 C   0  0  0  0  0  1  0  0  0  0  0  0
  184.7020  179.0930  143.9830 N   0  0  0  0  0  2  0  0  0  0  0  0
  183.4800  178.7000  143.2910 C   0  0  0  0  0  2  0  0  0  0  0  0
  183.8210  178.4780  141.5220 S   0  0  0  0  0  0  0  0  0  0  0  0
  182.0720  178.6390  141.0670 C   0  0  0  0  0  1  0  0  0  0  0  0
  1 25  1  6  0  0  0
  1  2  1  0  0  0  0
  2  9  1  0  0  0  0
  3 12  1  6  0  0  0
  3  5  1  0  0  0  0
  3 10  1  0  0  0  0
  4  7  1  1  0  0  0
  5  6  1  0  0  0  0
  6 11  1  0  0  0  0
  8  1  1  0  0  0  0
  9  7  1  0  0  0  0
 10  8  1  6  0  0  0
 10  4  1  0  0  0  0
 11  4  1  0  0  0  0
 13 12  1  0  0  0  0
 14 18  1  0  0  0  0
 14 16  1  0  0  0  0
 15 21  1  6  0  0  0
 15 17  1  0  0  0  0
 16 17  1  0  0  0  0
 17 13  1  1  0  0  0
 18 15  1  0  0  0  0
 19 16  1  0  0  0  0
 20 19  1  0  0  0  0
 21 23  1  0  0  0  0
 22 21  2  0  0  0  0
 23 24  1  0  0  0  0
 26 25  1  0  0  0  0
 27 26  1  0  0  0  0
 28 27  1  0  0  0  0
M  END
>  <MODEL>
8

>  <REMARK>
 VINA RESULT:      -6.4      1.518      3.187
  Name = 
  9 active torsions:
  status: ('A' for Active; 'I' for Inactive)
    1  A    between atoms: C_2  and  N_20
    2  A    between atoms: C_4  and  C_7
    3  A    between atoms: O_5  and  C_8
    4  A    between atoms: O_5  and  C_21
    5  A    between atoms: C_6  and  N_22
    6  A    between atoms: C_7  and  O_16
    7  A    between atoms: S_9  and  C_12
    8  A    between atoms: C_12  and  N_20
    9  A    between atoms: C_21  and  C_25
                            x       y       z     vdW  Elec       q    Type
                         _______ _______ _______ _____ _____    ______ ____

>  <TORSDO>
F 9

$$$$
=
 OpenBabel11042412023D

 28 30  0  0  1  0  0  0  0  0999 V2000
  188.5640  177.0280  144.7440 C   0  0  2  0  0  3  0  0  0  0  0  0
  189.9410  177.0350  145.4290 C   0  0  0  0  0  2  0  0  0  0  0  0
  188.5840  178.3250  141.1410 C   0  0  2  0  0  3  0  0  0  0  0  0
  190.7400  177.7030  142.2620 C   0  0  2  0  0  3  0  0  0  0  0  0
  188.9710  177.3120  140.0660 C   0  0  0  0  0  2  0  0  0  0  0  0
  190.4900  177.1540  140.0780 C   0  0  0  0  0  2  0  0  0  0  0  0
  191.5220  177.3610  143.5360 C   0  0  0  0  0  2  0  0  0  0  0  0
  188.5350  176.8480  143.2180 C   0  0  0  0  0  2  0  0  0  0  0  0
  190.9470  177.9910  144.7970 C   0  0  0  0  0  2  0  0  0  0  0  0
  189.2400  177.9940  142.4880 C   0  0  2  0  0  3  0  0  0  0  0  0
  190.9090  176.6630  141.3260 O   0  0  0  0  0  0  0  0  0  0  0  0
  187.1950  178.4090  141.2550 O   0  0  0  0  0  0  0  0  0  0  0  0
  186.7520  178.7430  139.9740 C   0  0  0  0  0  2  0  0  0  0  0  0
  183.4410  179.6290  139.5860 C   0  0  0  0  0  2  0  0  0  0  0  0
  184.8880  178.4570  138.3650 C   0  0  2  0  0  3  0  0  0  0  0  0
  184.4290  179.1700  140.5580 N   0  0  0  0  0  0  0  0  0  0  0  0
  185.3080  178.3080  139.8020 C   0  0  2  0  0  3  0  0  0  0  0  0
  183.5660  178.9130  138.3840 O   0  0  0  0  0  0  0  0  0  0  0  0
  183.7330  178.3280  141.5180 C   0  0  0  0  0  2  0  0  0  0  0  0
  182.2670  178.7150  141.5730 C   0  0  0  0  0  1  0  0  0  0  0  0
  184.9890  177.1540  137.6240 C   0  0  0  0  0  0  0  0  0  0  0  0
  184.0870  176.2420  137.8080 N   0  0  0  0  0  2  0  0  0  0  0  0
  186.0050  176.9650  136.6810 O   0  0  0  0  0  0  0  0  0  0  0  0
  186.9150  177.9960  136.3250 C   0  0  0  0  0  1  0  0  0  0  0  0
  187.6330  178.0420  145.2490 N   0  0  0  0  0  2  0  0  0  0  0  0
  186.9620  177.5820  146.4590 C   0  0  0  0  0  2  0  0  0  0  0  0
  185.4710  178.5730  146.7490 S   0  0  0  0  0  0  0  0  0  0  0  0
  185.1100  178.7260  144.9770 C   0  0  0  0  0  1  0  0  0  0  0  0
  1 25  1  6  0  0  0
  1  2  1  0  0  0  0
  3 12  1  1  0  0  0
  3 10  1  0  0  0  0
  4 10  1  0  0  0  0
  4  7  1  1  0  0  0
  5  6  1  0  0  0  0
  5  3  1  0  0  0  0
  6 11  1  0  0  0  0
  7  9  1  0  0  0  0
  8  1  1  0  0  0  0
  9  2  1  0  0  0  0
 10  8  1  6  0  0  0
 11  4  1  0  0  0  0
 13 12  1  0  0  0  0
 14 16  1  0  0  0  0
 15 21  1  6  0  0  0
 15 18  1  0  0  0  0
 15 17  1  0  0  0  0
 16 19  1  0  0  0  0
 17 13  1  6  0  0  0
 17 16  1  0  0  0  0
 18 14  1  0  0  0  0
 19 20  1  0  0  0  0
 21 22  2  0  0  0  0
 23 21  1  0  0  0  0
 24 23  1  0  0  0  0
 25 26  1  0  0  0  0
 26 27  1  0  0  0  0
 28 27  1  0  0  0  0
M  END
>  <MODEL>
9

>  <REMARK>
 VINA RESULT:      -6.3      2.505      4.843
  Name = 
  9 active torsions:
  status: ('A' for Active; 'I' for Inactive)
    1  A    between atoms: C_2  and  N_20
    2  A    between atoms: C_4  and  C_7
    3  A    between atoms: O_5  and  C_8
    4  A    between atoms: O_5  and  C_21
    5  A    between atoms: C_6  and  N_22
    6  A    between atoms: C_7  and  O_16
    7  A    between atoms: S_9  and  C_12
    8  A    between atoms: C_12  and  N_20
    9  A    between atoms: C_21  and  C_25
                            x       y       z     vdW  Elec       q    Type
                         _______ _______ _______ _____ _____    ______ ____

>  <TORSDO>
F 9

$$$$
