=
 OpenBabel11032420373D

 27 31  0  0  1  0  0  0  0  0999 V2000
  184.9160  179.3260  143.1440 C   0  0  1  0  0  3  0  0  0  0  0  0
  188.9430  174.9600  142.8700 O   0  0  0  0  0  1  0  0  0  0  0  0
  187.9780  177.6440  143.7710 C   0  0  0  0  0  0  0  0  0  0  0  0
  187.2160  177.5740  146.4740 C   0  0  0  0  0  3  0  0  0  0  0  0
  186.2440  177.7000  145.4890 C   0  0  0  0  0  0  0  0  0  0  0  0
  183.5440  179.2580  142.8910 O   0  0  0  0  0  1  0  0  0  0  0  0
  190.0340  175.7830  142.5730 C   0  0  2  0  0  3  0  0  0  0  0  0
  191.3500  177.8490  145.6160 C   0  0  0  0  0  2  0  0  0  0  0  0
  189.5510  177.4950  147.2800 C   0  0  0  0  0  2  0  0  0  0  0  0
  190.9410  177.0560  146.8450 C   0  0  0  0  0  2  0  0  0  0  0  0
  190.4420  177.4890  144.4360 C   0  0  1  0  0  3  0  0  0  0  0  0
  192.1830  176.0960  143.5380 O   0  0  0  0  0  1  0  0  0  0  0  0
  184.9550  178.6270  140.7950 O   0  0  0  0  0  1  0  0  0  0  0  0
  188.2000  179.1170  141.8310 C   0  0  0  0  0  3  0  0  0  0  0  0
  190.8200  176.1230  143.8400 C   0  0  2  0  0  3  0  0  0  0  0  0
  188.3220  177.7020  142.2930 C   0  0  1  0  0  3  0  0  0  0  0  0
  184.5640  177.7420  146.0110 Cl  0  0  0  0  0  0  0  0  0  0  0  0
  189.6120  177.0310  141.7870 C   0  0  2  0  0  3  0  0  0  0  0  0
  185.5110  177.9130  143.0900 C   0  0  2  0  0  3  0  0  0  0  0  0
  188.9670  177.5640  144.7890 C   0  0  0  0  0  0  0  0  0  0  0  0
  186.9920  179.6750  141.7130 C   0  0  0  0  0  3  0  0  0  0  0  0
  188.5650  177.5050  146.1440 C   0  0  0  0  0  0  0  0  0  0  0  0
  186.6110  177.7830  144.1320 C   0  0  0  0  0  0  0  0  0  0  0  0
  185.7190  178.8990  141.9330 C   0  0  2  0  0  0  0  0  0  0  0  0
  190.5240  176.0250  139.6830 O   0  0  0  0  0  0  0  0  0  0  0  0
  189.5030  176.7100  140.3330 C   0  0  0  0  0  0  0  0  0  0  0  0
  188.4840  177.0700  139.6880 O   0  0  0  0  0  1  0  0  0  0  0  0
  1  6  1  6  0  0  0
  3 23  2  0  0  0  0
  3 20  1  0  0  0  0
  5 17  1  0  0  0  0
  5  4  2  0  0  0  0
  7  2  1  1  0  0  0
  7 15  1  0  0  0  0
  8 10  1  0  0  0  0
 10  9  1  0  0  0  0
 11 20  1  0  0  0  0
 11  8  1  1  0  0  0
 15 12  1  6  0  0  0
 15 11  1  0  0  0  0
 16 14  1  1  0  0  0
 16  3  1  0  0  0  0
 18 26  1  6  0  0  0
 18 16  1  0  0  0  0
 18  7  1  0  0  0  0
 19  1  1  0  0  0  0
 19 23  1  1  0  0  0
 20 22  2  0  0  0  0
 21 14  2  0  0  0  0
 21 24  1  0  0  0  0
 22  4  1  0  0  0  0
 22  9  1  0  0  0  0
 23  5  1  0  0  0  0
 24 13  1  6  0  0  0
 24 19  1  0  0  0  0
 24  1  1  0  0  0  0
 25 26  2  0  0  0  0
 27 26  1  0  0  0  0
M  END
>  <MODEL>
1

>  <REMARK>
 VINA RESULT:      -7.9      0.000      0.000
  Name = 
  1 active torsions:
  status: ('A' for Active; 'I' for Inactive)
    1  A    between atoms: C_18  and  C_23
                            x       y       z     vdW  Elec       q    Type
                         _______ _______ _______ _____ _____    ______ ____

>  <TORSDO>
F 1

$$$$
=
 OpenBabel11032420373D

 27 31  0  0  1  0  0  0  0  0999 V2000
  190.4520  176.2190  145.6070 C   0  0  1  0  0  3  0  0  0  0  0  0
  187.9320  180.3280  142.1260 O   0  0  0  0  0  1  0  0  0  0  0  0
  187.8560  177.8880  143.8550 C   0  0  0  0  0  0  0  0  0  0  0  0
  186.7410  178.4790  146.3640 C   0  0  0  0  0  3  0  0  0  0  0  0
  188.0990  178.2050  146.2630 C   0  0  0  0  0  0  0  0  0  0  0  0
  191.6740  176.2830  146.2820 O   0  0  0  0  0  1  0  0  0  0  0  0
  187.2050  179.4300  141.3400 C   0  0  2  0  0  3  0  0  0  0  0  0
  184.0770  177.9170  143.1250 C   0  0  0  0  0  2  0  0  0  0  0  0
  184.4430  178.6290  145.4690 C   0  0  0  0  0  2  0  0  0  0  0  0
  183.6890  178.9350  144.1840 C   0  0  0  0  0  2  0  0  0  0  0  0
  185.5540  178.0830  142.7590 C   0  0  1  0  0  3  0  0  0  0  0  0
  184.9120  179.2300  140.7460 O   0  0  0  0  0  1  0  0  0  0  0  0
  191.9710  176.4720  143.7010 O   0  0  0  0  0  1  0  0  0  0  0  0
  188.7750  176.0770  142.4910 C   0  0  0  0  0  3  0  0  0  0  0  0
  185.7680  179.3030  141.8470 C   0  0  2  0  0  3  0  0  0  0  0  0
  188.5200  177.5470  142.5320 C   0  0  1  0  0  3  0  0  0  0  0  0
  189.0580  178.3140  147.7340 Cl  0  0  0  0  0  0  0  0  0  0  0  0
  187.9100  178.0720  141.2190 C   0  0  2  0  0  3  0  0  0  0  0  0
  190.1600  177.5780  144.9590 C   0  0  2  0  0  3  0  0  0  0  0  0
  186.4590  178.1220  143.9770 C   0  0  0  0  0  0  0  0  0  0  0  0
  189.7260  175.5460  143.2630 C   0  0  0  0  0  3  0  0  0  0  0  0
  185.9180  178.4420  145.2450 C   0  0  0  0  0  0  0  0  0  0  0  0
  188.6670  177.8610  145.0200 C   0  0  0  0  0  0  0  0  0  0  0  0
  190.6400  176.3900  144.1150 C   0  0  2  0  0  0  0  0  0  0  0  0
  190.1940  177.5490  140.3350 O   0  0  0  0  0  1  0  0  0  0  0  0
  188.9420  178.1240  140.1420 C   0  0  0  0  0  0  0  0  0  0  0  0
  188.6820  178.7000  139.0540 O   0  0  0  0  0  0  0  0  0  0  0  0
  1  6  1  1  0  0  0
  3 20  2  0  0  0  0
  3 23  1  0  0  0  0
  5  4  1  0  0  0  0
  5 17  1  0  0  0  0
  7 15  1  0  0  0  0
  7  2  1  1  0  0  0
  8 10  1  0  0  0  0
 10  9  1  0  0  0  0
 11  8  1  1  0  0  0
 11 20  1  0  0  0  0
 14 21  2  0  0  0  0
 15 12  1  6  0  0  0
 15 11  1  0  0  0  0
 16 14  1  6  0  0  0
 16  3  1  0  0  0  0
 18 26  1  6  0  0  0
 18  7  1  0  0  0  0
 18 16  1  0  0  0  0
 19 23  1  6  0  0  0
 19  1  1  0  0  0  0
 20 22  1  0  0  0  0
 21 24  1  0  0  0  0
 22  9  1  0  0  0  0
 22  4  2  0  0  0  0
 23  5  2  0  0  0  0
 24 13  1  6  0  0  0
 24 19  1  0  0  0  0
 24  1  1  0  0  0  0
 26 25  1  0  0  0  0
 27 26  2  0  0  0  0
M  END
>  <MODEL>
2

>  <REMARK>
 VINA RESULT:      -7.1      1.645      5.086
  Name = 
  1 active torsions:
  status: ('A' for Active; 'I' for Inactive)
    1  A    between atoms: C_18  and  C_23
                            x       y       z     vdW  Elec       q    Type
                         _______ _______ _______ _____ _____    ______ ____

>  <TORSDO>
F 1

$$$$
=
 OpenBabel11032420373D

 27 31  0  0  1  0  0  0  0  0999 V2000
  188.2730  177.1280  146.6410 C   0  0  1  0  0  3  0  0  0  0  0  0
  187.0420  180.3180  141.7770 O   0  0  0  0  0  1  0  0  0  0  0  0
  186.4520  178.1780  143.7810 C   0  0  0  0  0  0  0  0  0  0  0  0
  184.4310  178.9990  145.5510 C   0  0  0  0  0  3  0  0  0  0  0  0
  185.7390  178.8840  146.0070 C   0  0  0  0  0  0  0  0  0  0  0  0
  189.1390  177.4450  147.6900 O   0  0  0  0  0  1  0  0  0  0  0  0
  186.7230  179.2280  140.9620 C   0  0  2  0  0  3  0  0  0  0  0  0
  183.2420  177.6280  141.7290 C   0  0  0  0  0  2  0  0  0  0  0  0
  182.6440  178.7270  143.8670 C   0  0  0  0  0  2  0  0  0  0  0  0
  182.4220  178.7380  142.3620 C   0  0  0  0  0  2  0  0  0  0  0  0
  184.7350  177.9170  141.9040 C   0  0  1  0  0  3  0  0  0  0  0  0
  184.8460  178.6580  139.6190 O   0  0  0  0  0  1  0  0  0  0  0  0
  190.3880  177.2760  145.4110 O   0  0  0  0  0  1  0  0  0  0  0  0
  187.9240  176.3080  143.2120 C   0  0  0  0  0  3  0  0  0  0  0  0
  185.2100  179.0020  140.9230 C   0  0  2  0  0  3  0  0  0  0  0  0
  187.5890  177.7250  142.8820 C   0  0  1  0  0  3  0  0  0  0  0  0
  186.0560  179.3320  147.6790 Cl  0  0  0  0  0  0  0  0  0  0  0  0
  187.4970  177.9650  141.3640 C   0  0  2  0  0  3  0  0  0  0  0  0
  188.1740  178.3260  145.6890 C   0  0  2  0  0  3  0  0  0  0  0  0
  185.1030  178.2530  143.3380 C   0  0  0  0  0  0  0  0  0  0  0  0
  188.5380  176.0230  144.3640 C   0  0  0  0  0  3  0  0  0  0  0  0
  184.1010  178.6910  144.2360 C   0  0  0  0  0  0  0  0  0  0  0  0
  186.7570  178.4280  145.1460 C   0  0  0  0  0  0  0  0  0  0  0  0
  189.0060  177.0920  145.3160 C   0  0  2  0  0  0  0  0  0  0  0  0
  189.9930  177.8780  141.5460 O   0  0  0  0  0  1  0  0  0  0  0  0
  188.8580  177.9810  140.7490 C   0  0  0  0  0  0  0  0  0  0  0  0
  188.9780  178.0960  139.5020 O   0  0  0  0  0  0  0  0  0  0  0  0
  1  6  1  1  0  0  0
  3 23  1  0  0  0  0
  4  5  1  0  0  0  0
  5 17  1  0  0  0  0
  7 18  1  0  0  0  0
  7  2  1  1  0  0  0
  8 10  1  0  0  0  0
  9 22  1  0  0  0  0
 10  9  1  0  0  0  0
 11  8  1  1  0  0  0
 11 20  1  0  0  0  0
 14 21  2  0  0  0  0
 15 12  1  6  0  0  0
 15  7  1  0  0  0  0
 15 11  1  0  0  0  0
 16 14  1  6  0  0  0
 16  3  1  0  0  0  0
 18 26  1  1  0  0  0
 18 16  1  0  0  0  0
 19 23  1  6  0  0  0
 19  1  1  0  0  0  0
 20  3  2  0  0  0  0
 20 22  1  0  0  0  0
 21 24  1  0  0  0  0
 22  4  2  0  0  0  0
 23  5  2  0  0  0  0
 24 13  1  1  0  0  0
 24 19  1  0  0  0  0
 24  1  1  0  0  0  0
 26 25  1  0  0  0  0
 27 26  2  0  0  0  0
M  END
>  <MODEL>
3

>  <REMARK>
 VINA RESULT:      -6.8      1.999      5.284
  Name = 
  1 active torsions:
  status: ('A' for Active; 'I' for Inactive)
    1  A    between atoms: C_18  and  C_23
                            x       y       z     vdW  Elec       q    Type
                         _______ _______ _______ _____ _____    ______ ____

>  <TORSDO>
F 1

$$$$
=
 OpenBabel11032420373D

 27 31  0  0  1  0  0  0  0  0999 V2000
  191.8640  174.5900  136.2680 C   0  0  1  0  0  3  0  0  0  0  0  0
  188.8500  179.3360  138.2010 O   0  0  0  0  0  1  0  0  0  0  0  0
  190.2060  176.6990  138.5920 C   0  0  0  0  0  0  0  0  0  0  0  0
  192.6990  177.0350  139.8420 C   0  0  0  0  0  3  0  0  0  0  0  0
  192.6460  176.6620  138.5050 C   0  0  0  0  0  0  0  0  0  0  0  0
  192.6160  174.4570  135.0980 O   0  0  0  0  0  1  0  0  0  0  0  0
  187.9000  178.6200  138.9340 C   0  0  2  0  0  3  0  0  0  0  0  0
  189.2520  177.1510  142.2930 C   0  0  0  0  0  2  0  0  0  0  0  0
  191.6910  177.5030  142.0490 C   0  0  0  0  0  2  0  0  0  0  0  0
  190.4170  178.0440  142.6800 C   0  0  0  0  0  2  0  0  0  0  0  0
  189.0060  177.2380  140.7840 C   0  0  1  0  0  3  0  0  0  0  0  0
  187.1400  178.7000  141.1850 O   0  0  0  0  0  1  0  0  0  0  0  0
  190.1120  174.9700  134.5960 O   0  0  0  0  0  1  0  0  0  0  0  0
  188.6590  175.0190  137.7140 C   0  0  0  0  0  3  0  0  0  0  0  0
  188.2930  178.5490  140.4110 C   0  0  2  0  0  3  0  0  0  0  0  0
  188.8930  176.4870  137.8590 C   0  0  1  0  0  3  0  0  0  0  0  0
  194.1750  176.4860  137.6520 Cl  0  0  0  0  0  0  0  0  0  0  0  0
  187.6320  177.2360  138.3280 C   0  0  2  0  0  3  0  0  0  0  0  0
  191.3980  176.0450  136.4060 C   0  0  2  0  0  3  0  0  0  0  0  0
  190.2720  177.0330  139.9720 C   0  0  0  0  0  0  0  0  0  0  0  0
  189.4060  174.3080  136.8660 C   0  0  0  0  0  3  0  0  0  0  0  0
  191.5360  177.2220  140.5800 C   0  0  0  0  0  0  0  0  0  0  0  0
  191.4050  176.4440  137.8740 C   0  0  0  0  0  0  0  0  0  0  0  0
  190.4250  174.9460  135.9570 C   0  0  2  0  0  0  0  0  0  0  0  0
  187.0630  177.5930  135.9160 O   0  0  0  0  0  0  0  0  0  0  0  0
  186.6400  177.3460  137.2170 C   0  0  0  0  0  0  0  0  0  0  0  0
  185.4120  177.2230  137.4620 O   0  0  0  0  0  1  0  0  0  0  0  0
  1  6  1  6  0  0  0
  1 19  1  0  0  0  0
  3 20  1  0  0  0  0
  4 22  1  0  0  0  0
  5  4  2  0  0  0  0
  7  2  1  6  0  0  0
  7 15  1  0  0  0  0
  8 10  1  0  0  0  0
  9 10  1  0  0  0  0
 11  8  1  1  0  0  0
 15 11  1  0  0  0  0
 15 12  1  1  0  0  0
 16 14  1  1  0  0  0
 16 18  1  0  0  0  0
 16  3  1  0  0  0  0
 17  5  1  0  0  0  0
 18 26  1  6  0  0  0
 18  7  1  0  0  0  0
 19 23  1  1  0  0  0
 20 22  2  0  0  0  0
 20 11  1  0  0  0  0
 21 14  2  0  0  0  0
 22  9  1  0  0  0  0
 23  5  1  0  0  0  0
 23  3  2  0  0  0  0
 24 13  1  6  0  0  0
 24  1  1  0  0  0  0
 24 19  1  0  0  0  0
 24 21  1  0  0  0  0
 25 26  2  0  0  0  0
 26 27  1  0  0  0  0
M  END
>  <MODEL>
4

>  <REMARK>
 VINA RESULT:      -6.3      4.119      7.228
  Name = 
  1 active torsions:
  status: ('A' for Active; 'I' for Inactive)
    1  A    between atoms: C_18  and  C_23
                            x       y       z     vdW  Elec       q    Type
                         _______ _______ _______ _____ _____    ______ ____

>  <TORSDO>
F 1

$$$$
=
 OpenBabel11032420373D

 27 31  0  0  1  0  0  0  0  0999 V2000
  184.8870  177.8800  143.3840 C   0  0  1  0  0  3  0  0  0  0  0  0
  190.5330  179.6740  142.8840 O   0  0  0  0  0  1  0  0  0  0  0  0
  188.2420  177.8670  142.2260 C   0  0  0  0  0  0  0  0  0  0  0  0
  187.2110  178.4520  139.6790 C   0  0  0  0  0  3  0  0  0  0  0  0
  186.4680  178.7670  140.8100 C   0  0  0  0  0  0  0  0  0  0  0  0
  183.7850  178.6010  143.8510 O   0  0  0  0  0  1  0  0  0  0  0  0
  191.1050  178.4060  143.0260 C   0  0  2  0  0  3  0  0  0  0  0  0
  190.7430  176.1300  139.8710 C   0  0  0  0  0  2  0  0  0  0  0  0
  189.1230  177.4160  138.5070 C   0  0  0  0  0  2  0  0  0  0  0  0
  190.5960  177.0880  138.7020 C   0  0  0  0  0  2  0  0  0  0  0  0
  190.3240  176.8250  141.1700 C   0  0  1  0  0  3  0  0  0  0  0  0
  192.6410  177.1280  141.7390 O   0  0  0  0  0  1  0  0  0  0  0  0
  185.6260  178.3390  145.6750 O   0  0  0  0  0  1  0  0  0  0  0  0
  188.0000  176.3720  144.1470 C   0  0  0  0  0  3  0  0  0  0  0  0
  191.4150  177.7930  141.6590 C   0  0  2  0  0  3  0  0  0  0  0  0
  188.7330  177.5660  143.6310 C   0  0  1  0  0  3  0  0  0  0  0  0
  184.9300  179.5860  140.5660 Cl  0  0  0  0  0  0  0  0  0  0  0  0
  190.2460  177.4860  143.9050 C   0  0  2  0  0  3  0  0  0  0  0  0
  186.1020  178.8120  143.3010 C   0  0  2  0  0  3  0  0  0  0  0  0
  188.9720  177.5060  141.0610 C   0  0  0  0  0  0  0  0  0  0  0  0
  186.7090  176.4760  144.4720 C   0  0  0  0  0  3  0  0  0  0  0  0
  188.4490  177.8290  139.7860 C   0  0  0  0  0  0  0  0  0  0  0  0
  186.9480  178.4390  142.0930 C   0  0  0  0  0  0  0  0  0  0  0  0
  185.9700  177.7890  144.4380 C   0  0  2  0  0  0  0  0  0  0  0  0
  189.5510  178.2530  146.1850 O   0  0  0  0  0  1  0  0  0  0  0  0
  190.5350  177.7390  145.3480 C   0  0  0  0  0  0  0  0  0  0  0  0
  191.6810  177.4930  145.8080 O   0  0  0  0  0  0  0  0  0  0  0  0
  1  6  1  1  0  0  0
  1 24  1  0  0  0  0
  3 16  1  0  0  0  0
  4 22  2  0  0  0  0
  4  5  1  0  0  0  0
  5 23  2  0  0  0  0
  7  2  1  6  0  0  0
  7 18  1  0  0  0  0
  9 10  1  0  0  0  0
  9 22  1  0  0  0  0
 10  8  1  0  0  0  0
 11  8  1  6  0  0  0
 11 15  1  0  0  0  0
 14 21  2  0  0  0  0
 15 12  1  1  0  0  0
 15  7  1  0  0  0  0
 16 18  1  0  0  0  0
 16 14  1  6  0  0  0
 17  5  1  0  0  0  0
 18 26  1  1  0  0  0
 19 23  1  6  0  0  0
 19  1  1  0  0  0  0
 19 24  1  0  0  0  0
 20 11  1  0  0  0  0
 20  3  2  0  0  0  0
 22 20  1  0  0  0  0
 23  3  1  0  0  0  0
 24 21  1  0  0  0  0
 24 13  1  1  0  0  0
 26 27  2  0  0  0  0
 26 25  1  0  0  0  0
M  END
>  <MODEL>
5

>  <REMARK>
 VINA RESULT:      -6.3      2.261      4.711
  Name = 
  1 active torsions:
  status: ('A' for Active; 'I' for Inactive)
    1  A    between atoms: C_18  and  C_23
                            x       y       z     vdW  Elec       q    Type
                         _______ _______ _______ _____ _____    ______ ____

>  <TORSDO>
F 1

$$$$
=
 OpenBabel11032420373D

 27 31  0  0  1  0  0  0  0  0999 V2000
  184.2170  178.3690  144.0690 C   0  0  1  0  0  3  0  0  0  0  0  0
  189.9860  179.4890  144.9660 O   0  0  0  0  0  1  0  0  0  0  0  0
  187.7230  177.8450  143.9070 C   0  0  0  0  0  0  0  0  0  0  0  0
  187.4910  178.1420  141.1240 C   0  0  0  0  0  3  0  0  0  0  0  0
  186.5270  178.6960  141.9560 C   0  0  0  0  0  0  0  0  0  0  0  0
  183.1410  179.2590  144.1210 O   0  0  0  0  0  1  0  0  0  0  0  0
  190.3190  178.2050  145.4090 C   0  0  2  0  0  3  0  0  0  0  0  0
  190.4920  175.5310  142.5670 C   0  0  0  0  0  2  0  0  0  0  0  0
  189.4830  176.7540  140.6630 C   0  0  0  0  0  2  0  0  0  0  0  0
  190.7930  176.3120  141.3000 C   0  0  0  0  0  2  0  0  0  0  0  0
  189.8460  176.4510  143.6060 C   0  0  1  0  0  3  0  0  0  0  0  0
  191.9490  176.6010  144.7610 O   0  0  0  0  0  1  0  0  0  0  0  0
  184.3810  179.0890  146.4050 O   0  0  0  0  0  1  0  0  0  0  0  0
  186.7790  176.6860  145.8440 C   0  0  0  0  0  3  0  0  0  0  0  0
  190.8910  177.3660  144.2650 C   0  0  2  0  0  3  0  0  0  0  0  0
  187.7800  177.7090  145.4190 C   0  0  1  0  0  3  0  0  0  0  0  0
  185.2370  179.6200  141.1970 Cl  0  0  0  0  0  0  0  0  0  0  0  0
  189.1410  177.5190  146.1130 C   0  0  2  0  0  3  0  0  0  0  0  0
  185.5280  179.1500  144.2220 C   0  0  2  0  0  3  0  0  0  0  0  0
  188.6780  177.2410  143.0430 C   0  0  0  0  0  0  0  0  0  0  0  0
  185.4750  176.9670  145.7800 C   0  0  0  0  0  3  0  0  0  0  0  0
  188.5590  177.4200  141.6450 C   0  0  0  0  0  0  0  0  0  0  0  0
  186.6020  178.5170  143.3520 C   0  0  0  0  0  0  0  0  0  0  0  0
  184.9600  178.3280  145.3870 C   0  0  2  0  0  0  0  0  0  0  0  0
  187.9340  178.5890  148.0280 O   0  0  0  0  0  0  0  0  0  0  0  0
  189.0710  177.9550  147.5390 C   0  0  0  0  0  0  0  0  0  0  0  0
  190.0510  177.7540  148.3030 O   0  0  0  0  0  1  0  0  0  0  0  0
  1  6  1  1  0  0  0
  1 19  1  0  0  0  0
  1 24  1  0  0  0  0
  3 16  1  0  0  0  0
  4 22  2  0  0  0  0
  4  5  1  0  0  0  0
  5 23  2  0  0  0  0
  7  2  1  6  0  0  0
  7 18  1  0  0  0  0
  9 10  1  0  0  0  0
  9 22  1  0  0  0  0
 10  8  1  0  0  0  0
 11  8  1  6  0  0  0
 11 15  1  0  0  0  0
 15 12  1  1  0  0  0
 15  7  1  0  0  0  0
 16 14  1  6  0  0  0
 16 18  1  0  0  0  0
 17  5  1  0  0  0  0
 18 26  1  1  0  0  0
 19 23  1  6  0  0  0
 19 24  1  0  0  0  0
 20 11  1  0  0  0  0
 20  3  2  0  0  0  0
 21 14  2  0  0  0  0
 22 20  1  0  0  0  0
 23  3  1  0  0  0  0
 24 21  1  0  0  0  0
 24 13  1  1  0  0  0
 26 25  2  0  0  0  0
 26 27  1  0  0  0  0
M  END
>  <MODEL>
6

>  <REMARK>
 VINA RESULT:      -6.2      2.387      4.619
  Name = 
  1 active torsions:
  status: ('A' for Active; 'I' for Inactive)
    1  A    between atoms: C_18  and  C_23
                            x       y       z     vdW  Elec       q    Type
                         _______ _______ _______ _____ _____    ______ ____

>  <TORSDO>
F 1

$$$$
=
 OpenBabel11032420373D

 27 31  0  0  1  0  0  0  0  0999 V2000
  191.4100  177.9600  141.1480 C   0  0  1  0  0  3  0  0  0  0  0  0
  187.0000  175.8010  144.5000 O   0  0  0  0  0  1  0  0  0  0  0  0
  188.2940  177.9310  142.8470 C   0  0  0  0  0  0  0  0  0  0  0  0
  187.0810  178.1060  140.3190 C   0  0  0  0  0  3  0  0  0  0  0  0
  188.3670  177.5930  140.4290 C   0  0  0  0  0  0  0  0  0  0  0  0
  192.4110  177.2580  140.4730 O   0  0  0  0  0  1  0  0  0  0  0  0
  186.8650  176.9310  145.3130 C   0  0  2  0  0  3  0  0  0  0  0  0
  185.0960  179.9470  143.5710 C   0  0  0  0  0  2  0  0  0  0  0  0
  185.0560  179.2090  141.2070 C   0  0  0  0  0  2  0  0  0  0  0  0
  184.2350  179.3310  142.4810 C   0  0  0  0  0  2  0  0  0  0  0  0
  186.2380  178.9950  143.9340 C   0  0  1  0  0  3  0  0  0  0  0  0
  185.0400  178.3320  145.9100 O   0  0  0  0  0  1  0  0  0  0  0  0
  192.5130  176.8730  143.0470 O   0  0  0  0  0  1  0  0  0  0  0  0
  190.0270  178.9150  144.2660 C   0  0  0  0  0  3  0  0  0  0  0  0
  185.7370  177.8320  144.8080 C   0  0  2  0  0  3  0  0  0  0  0  0
  189.0130  177.8220  144.1800 C   0  0  1  0  0  3  0  0  0  0  0  0
  189.1380  177.0160  138.9570 Cl  0  0  0  0  0  0  0  0  0  0  0  0
  188.1930  177.6820  145.4750 C   0  0  2  0  0  3  0  0  0  0  0  0
  190.4140  176.9640  141.7540 C   0  0  2  0  0  3  0  0  0  0  0  0
  186.9970  178.4990  142.7160 C   0  0  0  0  0  0  0  0  0  0  0  0
  191.1270  178.8610  143.5110 C   0  0  0  0  0  3  0  0  0  0  0  0
  186.3910  178.5570  141.4380 C   0  0  0  0  0  0  0  0  0  0  0  0
  189.0090  177.5410  141.6830 C   0  0  0  0  0  0  0  0  0  0  0  0
  191.4480  177.6780  142.6350 C   0  0  2  0  0  0  0  0  0  0  0  0
  190.3260  176.6650  146.3050 O   0  0  0  0  0  0  0  0  0  0  0  0
  189.0120  177.0490  146.5520 C   0  0  0  0  0  0  0  0  0  0  0  0
  188.5070  176.8540  147.6880 O   0  0  0  0  0  1  0  0  0  0  0  0
  1  6  1  6  0  0  0
  1 19  1  0  0  0  0
  1 24  1  0  0  0  0
  3 16  1  0  0  0  0
  4  5  2  0  0  0  0
  4 22  1  0  0  0  0
  5 23  1  0  0  0  0
  7  2  1  6  0  0  0
  7 18  1  0  0  0  0
  9 22  1  0  0  0  0
  9 10  1  0  0  0  0
 10  8  1  0  0  0  0
 11  8  1  6  0  0  0
 11 15  1  0  0  0  0
 15  7  1  0  0  0  0
 15 12  1  1  0  0  0
 16 14  1  1  0  0  0
 16 18  1  0  0  0  0
 17  5  1  0  0  0  0
 18 26  1  1  0  0  0
 19 23  1  1  0  0  0
 19 24  1  0  0  0  0
 20  3  1  0  0  0  0
 20 11  1  0  0  0  0
 21 14  2  0  0  0  0
 22 20  2  0  0  0  0
 23  3  2  0  0  0  0
 24 13  1  1  0  0  0
 24 21  1  0  0  0  0
 25 26  2  0  0  0  0
 26 27  1  0  0  0  0
M  END
>  <MODEL>
7

>  <REMARK>
 VINA RESULT:      -6.0      2.541      5.978
  Name = 
  1 active torsions:
  status: ('A' for Active; 'I' for Inactive)
    1  A    between atoms: C_18  and  C_23
                            x       y       z     vdW  Elec       q    Type
                         _______ _______ _______ _____ _____    ______ ____

>  <TORSDO>
F 1

$$$$
=
 OpenBabel11032420373D

 27 31  0  0  1  0  0  0  0  0999 V2000
  190.2130  178.0970  141.7280 C   0  0  1  0  0  3  0  0  0  0  0  0
  188.7920  175.4770  146.8720 O   0  0  0  0  0  1  0  0  0  0  0  0
  188.7520  177.7640  144.9450 C   0  0  0  0  0  0  0  0  0  0  0  0
  186.2560  177.9510  143.6700 C   0  0  0  0  0  3  0  0  0  0  0  0
  187.3670  177.5320  142.9480 C   0  0  0  0  0  0  0  0  0  0  0  0
  190.6300  177.4990  140.5360 O   0  0  0  0  0  1  0  0  0  0  0  0
  189.1330  176.5590  147.6890 C   0  0  2  0  0  3  0  0  0  0  0  0
  186.5670  179.5030  147.5940 C   0  0  0  0  0  2  0  0  0  0  0  0
  185.1370  178.8610  145.6760 C   0  0  0  0  0  2  0  0  0  0  0  0
  185.2460  178.8700  147.1940 C   0  0  0  0  0  2  0  0  0  0  0  0
  187.7300  178.6250  147.1260 C   0  0  1  0  0  3  0  0  0  0  0  0
  187.9890  177.7940  149.3670 O   0  0  0  0  0  1  0  0  0  0  0  0
  192.2750  177.0180  142.4970 O   0  0  0  0  0  1  0  0  0  0  0  0
  190.9540  178.8170  145.1160 C   0  0  0  0  0  3  0  0  0  0  0  0
  187.8980  177.3940  148.0320 C   0  0  2  0  0  3  0  0  0  0  0  0
  190.1330  177.6550  145.5690 C   0  0  1  0  0  3  0  0  0  0  0  0
  187.1150  177.0750  141.2680 Cl  0  0  0  0  0  0  0  0  0  0  0  0
  190.2640  177.4010  147.0820 C   0  0  2  0  0  3  0  0  0  0  0  0
  189.8190  177.0040  142.7300 C   0  0  2  0  0  3  0  0  0  0  0  0
  187.6190  178.2380  145.6620 C   0  0  0  0  0  0  0  0  0  0  0  0
  191.3790  178.8760  143.8510 C   0  0  0  0  0  3  0  0  0  0  0  0
  186.3640  178.3030  145.0110 C   0  0  0  0  0  0  0  0  0  0  0  0
  188.6350  177.4770  143.5590 C   0  0  0  0  0  0  0  0  0  0  0  0
  191.1490  177.7570  142.8680 C   0  0  2  0  0  0  0  0  0  0  0  0
  192.1200  175.7950  146.5850 O   0  0  0  0  0  0  0  0  0  0  0  0
  191.5880  176.7880  147.4000 C   0  0  0  0  0  0  0  0  0  0  0  0
  192.2220  177.1660  148.4200 O   0  0  0  0  0  1  0  0  0  0  0  0
  1  6  1  6  0  0  0
  1 19  1  0  0  0  0
  1 24  1  0  0  0  0
  3 16  1  0  0  0  0
  3 20  1  0  0  0  0
  4 22  1  0  0  0  0
  5 23  1  0  0  0  0
  5  4  2  0  0  0  0
  7  2  1  6  0  0  0
  7 15  1  0  0  0  0
  9 10  1  0  0  0  0
 10  8  1  0  0  0  0
 11  8  1  1  0  0  0
 11 15  1  0  0  0  0
 15 12  1  1  0  0  0
 16 14  1  1  0  0  0
 16 18  1  0  0  0  0
 17  5  1  0  0  0  0
 18 26  1  6  0  0  0
 18  7  1  0  0  0  0
 19 24  1  0  0  0  0
 19 23  1  1  0  0  0
 20 11  1  0  0  0  0
 21 14  2  0  0  0  0
 22 20  2  0  0  0  0
 22  9  1  0  0  0  0
 23  3  2  0  0  0  0
 24 13  1  6  0  0  0
 24 21  1  0  0  0  0
 25 26  2  0  0  0  0
 26 27  1  0  0  0  0
M  END
>  <MODEL>
8

>  <REMARK>
 VINA RESULT:      -5.9      2.618      5.356
  Name = 
  1 active torsions:
  status: ('A' for Active; 'I' for Inactive)
    1  A    between atoms: C_18  and  C_23
                            x       y       z     vdW  Elec       q    Type
                         _______ _______ _______ _____ _____    ______ ____

>  <TORSDO>
F 1

$$$$
=
 OpenBabel11032420373D

 27 31  0  0  1  0  0  0  0  0999 V2000
  186.8410  176.8950  137.9100 C   0  0  1  0  0  3  0  0  0  0  0  0
  182.5990  181.0030  138.6000 O   0  0  0  0  0  1  0  0  0  0  0  0
  183.9740  178.4450  139.3150 C   0  0  0  0  0  0  0  0  0  0  0  0
  185.4710  178.7430  141.6730 C   0  0  0  0  0  3  0  0  0  0  0  0
  186.1270  178.6030  140.4560 C   0  0  0  0  0  0  0  0  0  0  0  0
  188.0750  177.0210  137.2670 O   0  0  0  0  0  1  0  0  0  0  0  0
  181.5320  180.1030  138.6730 C   0  0  2  0  0  3  0  0  0  0  0  0
  181.2960  178.1810  142.0660 C   0  0  0  0  0  2  0  0  0  0  0  0
  183.4660  178.7480  143.1170 C   0  0  0  0  0  2  0  0  0  0  0  0
  181.9810  179.0780  143.0830 C   0  0  0  0  0  2  0  0  0  0  0  0
  181.7990  178.5090  140.6580 C   0  0  1  0  0  3  0  0  0  0  0  0
  179.7770  179.7390  140.2350 O   0  0  0  0  0  1  0  0  0  0  0  0
  186.0810  177.4280  135.6420 O   0  0  0  0  0  1  0  0  0  0  0  0
  183.3140  176.8320  137.5980 C   0  0  0  0  0  3  0  0  0  0  0  0
  181.1680  179.8080  140.1290 C   0  0  2  0  0  3  0  0  0  0  0  0
  183.2270  178.2660  138.0050 C   0  0  1  0  0  3  0  0  0  0  0  0
  187.8840  178.6900  140.4690 Cl  0  0  0  0  0  0  0  0  0  0  0  0
  181.8010  178.8290  137.8620 C   0  0  2  0  0  3  0  0  0  0  0  0
  186.1560  178.2660  137.9610 C   0  0  2  0  0  3  0  0  0  0  0  0
  183.3150  178.5400  140.5710 C   0  0  0  0  0  0  0  0  0  0  0  0
  184.4750  176.3350  137.1630 C   0  0  0  0  0  3  0  0  0  0  0  0
  184.0830  178.7140  141.7460 C   0  0  0  0  0  0  0  0  0  0  0  0
  185.3930  178.4060  139.2690 C   0  0  0  0  0  0  0  0  0  0  0  0
  185.6970  177.1930  136.9640 C   0  0  2  0  0  0  0  0  0  0  0  0
  181.9180  178.1750  135.4470 O   0  0  0  0  0  0  0  0  0  0  0  0
  181.4650  179.0550  136.4250 C   0  0  0  0  0  0  0  0  0  0  0  0
  180.7740  180.0540  136.0940 O   0  0  0  0  0  1  0  0  0  0  0  0
  1  6  1  6  0  0  0
  1 19  1  0  0  0  0
  3 20  1  0  0  0  0
  4 22  1  0  0  0  0
  5 17  1  0  0  0  0
  5  4  2  0  0  0  0
  7  2  1  1  0  0  0
  7 15  1  0  0  0  0
  8 10  1  0  0  0  0
 10  9  1  0  0  0  0
 11  8  1  1  0  0  0
 15 12  1  6  0  0  0
 15 11  1  0  0  0  0
 16 14  1  1  0  0  0
 16  3  1  0  0  0  0
 18 26  1  6  0  0  0
 18 16  1  0  0  0  0
 18  7  1  0  0  0  0
 19 23  1  1  0  0  0
 20 11  1  0  0  0  0
 20 22  2  0  0  0  0
 21 14  2  0  0  0  0
 22  9  1  0  0  0  0
 23  3  2  0  0  0  0
 23  5  1  0  0  0  0
 24 13  1  6  0  0  0
 24 21  1  0  0  0  0
 24  1  1  0  0  0  0
 24 19  1  0  0  0  0
 25 26  2  0  0  0  0
 27 26  1  0  0  0  0
M  END
>  <MODEL>
9

>  <REMARK>
 VINA RESULT:      -5.9      4.803      8.070
  Name = 
  1 active torsions:
  status: ('A' for Active; 'I' for Inactive)
    1  A    between atoms: C_18  and  C_23
                            x       y       z     vdW  Elec       q    Type
                         _______ _______ _______ _____ _____    ______ ____

>  <TORSDO>
F 1

$$$$
