=
 OpenBabel11042412233D

 44 48  0  0  1  0  0  0  0  0999 V2000
  187.4590  178.9320  141.8630 C   0  0  0  0  0  1  0  0  0  0  0  0
  188.5740  177.9420  142.1700 C   0  0  1  0  0  3  0  0  0  0  0  0
  188.0310  176.8380  143.0340 C   0  0  0  0  0  0  0  0  0  0  0  0
  188.4590  175.6980  142.9270 O   0  0  0  0  0  0  0  0  0  0  0  0
  186.9380  177.1290  144.0120 C   0  0  0  0  0  2  0  0  0  0  0  0
  186.7680  178.1890  146.3330 C   0  0  0  0  0  0  0  0  0  0  0  0
  189.3750  177.2710  146.9010 C   0  0  0  0  0  0  0  0  0  0  0  0
  187.3480  178.3990  147.5930 C   0  0  0  0  0  3  0  0  0  0  0  0
  187.5100  177.4910  145.3470 C   0  0  0  0  0  0  0  0  0  0  0  0
  188.8020  177.0400  145.6420 C   0  0  0  0  0  3  0  0  0  0  0  0
  188.6390  177.9470  147.8730 C   0  0  0  0  0  3  0  0  0  0  0  0
  191.6420  176.5570  146.2130 C   0  0  0  0  0  1  0  0  0  0  0  0
  190.6660  176.8350  147.2100 O   0  0  0  0  0  0  0  0  0  0  0  0
  185.4020  178.7120  146.0990 C   0  0  0  0  0  0  0  0  0  0  0  0
  184.4480  178.2760  146.8010 O   0  0  0  0  0  0  0  0  0  0  0  0
  184.3780  179.7140  144.1050 C   0  0  0  0  0  3  0  0  0  0  0  0
  185.1780  179.7530  145.1310 N   0  0  0  0  0  0  0  0  0  0  0  0
  183.5710  178.5180  143.7130 C   0  0  0  0  0  2  0  0  0  0  0  0
  182.5870  178.8970  142.6220 C   0  0  0  0  0  2  0  0  0  0  0  0
  180.6200  180.2280  142.7720 O   0  0  0  0  0  0  0  0  0  0  0  0
  180.7570  178.4940  144.2640 O   0  0  0  0  0  1  0  0  0  0  0  0
  181.2750  179.2530  143.2240 C   0  0  0  0  0  0  0  0  0  0  0  0
  189.2080  177.3990  140.8800 C   0  0  2  0  0  3  0  0  0  0  0  0
  191.4810  177.0550  139.8790 O   0  0  0  0  0  0  0  0  0  0  0  0
  190.6990  177.3250  140.9960 C   0  0  0  0  0  0  0  0  0  0  0  0
  191.2510  177.5220  142.1100 O   0  0  0  0  0  1  0  0  0  0  0  0
  188.8430  178.2670  139.6800 C   0  0  0  0  0  2  0  0  0  0  0  0
  188.2090  177.4240  138.5900 C   0  0  0  0  0  2  0  0  0  0  0  0
  186.7100  178.2850  136.8040 C   0  0  2  0  0  3  0  0  0  0  0  0
  187.6470  177.2680  136.3290 C   0  0  0  0  0  2  0  0  0  0  0  0
  188.0900  178.2130  137.3650 N   0  0  0  0  0  0  0  0  0  0  0  0
  184.4090  177.2550  136.9700 C   0  0  1  0  0  3  0  0  0  0  0  0
  185.6010  177.7170  137.7080 C   0  0  1  0  0  0  0  0  0  0  0  0
  183.7160  178.0650  139.1990 C   0  0  0  0  0  2  0  0  0  0  0  0
  185.2980  176.3480  137.5960 O   0  0  0  0  0  0  0  0  0  0  0  0
  185.1800  178.3970  138.9950 C   0  0  0  0  0  2  0  0  0  0  0  0
  183.1910  177.5440  137.8600 C   0  0  2  0  0  0  0  0  0  0  0  0
  182.4570  176.2280  138.1000 C   0  0  0  0  0  1  0  0  0  0  0  0
  181.1360  177.8670  136.5140 C   0  0  0  0  0  2  0  0  0  0  0  0
  179.5710  178.9260  137.9960 O   0  0  0  0  0  0  0  0  0  0  0  0
  179.9430  177.6860  137.4580 C   0  0  0  0  0  2  0  0  0  0  0  0
  182.2820  178.5090  137.1900 N   0  0  0  0  0  0  0  0  0  0  0  0
  180.6080  179.2990  138.8620 C   0  0  0  0  0  2  0  0  0  0  0  0
  181.8640  179.6360  138.0510 C   0  0  0  0  0  2  0  0  0  0  0  0
  2  1  1  6  0  0  0
  2  3  1  0  0  0  0
  3  5  1  0  0  0  0
  4  3  2  0  0  0  0
  5  9  1  0  0  0  0
  6  8  1  0  0  0  0
  7 13  1  0  0  0  0
  7 11  1  0  0  0  0
  8 11  2  0  0  0  0
  9 10  1  0  0  0  0
  9  6  2  0  0  0  0
 10  7  2  0  0  0  0
 12 13  1  0  0  0  0
 14  6  1  0  0  0  0
 14 15  2  0  0  0  0
 16 17  2  0  0  0  0
 17 14  1  0  0  0  0
 18 16  1  0  0  0  0
 19 22  1  0  0  0  0
 19 18  1  0  0  0  0
 20 22  2  0  0  0  0
 22 21  1  0  0  0  0
 23 27  1  6  0  0  0
 23 25  1  0  0  0  0
 23  2  1  0  0  0  0
 24 25  2  0  0  0  0
 25 26  1  0  0  0  0
 28 27  1  0  0  0  0
 29 30  1  6  0  0  0
 29 31  1  0  0  0  0
 29 33  1  0  0  0  0
 30 31  1  0  0  0  0
 31 28  1  0  0  0  0
 32 35  1  1  0  0  0
 32 33  1  0  0  0  0
 32 37  1  0  0  0  0
 33 36  1  1  0  0  0
 35 33  1  0  0  0  0
 36 34  1  0  0  0  0
 37 38  1  1  0  0  0
 37 34  1  0  0  0  0
 39 42  1  0  0  0  0
 39 41  1  0  0  0  0
 40 43  1  0  0  0  0
 41 40  1  0  0  0  0
 42 37  1  0  0  0  0
 42 44  1  0  0  0  0
 44 43  1  0  0  0  0
M  END
>  <MODEL>
1

>  <REMARK>
 VINA RESULT:      -8.0      0.000      0.000
  Name = 
  16 active torsions:
  status: ('A' for Active; 'I' for Inactive)
    1  A    between atoms: C_1  and  C_21
    2  A    between atoms: C_4  and  C_37
    3  A    between atoms: C_4  and  C_43
    4  A    between atoms: C_6  and  C_27
    5  A    between atoms: C_7  and  C_9
    6  A    between atoms: C_8  and  O_33
    7  A    between atoms: N_17  and  C_34
    8  A    between atoms: C_19  and  C_43
    9  A    between atoms: C_21  and  N_23
   10  A    between atoms: C_24  and  C_28
   11  A    between atoms: C_24  and  C_43
   12  A    between atoms: C_25  and  C_38
   13  A    between atoms: C_27  and  C_36
   14  A    between atoms: C_28  and  C_38
   15  A    between atoms: N_31  and  C_37
   16  A    between atoms: C_36  and  C_40
                            x       y       z     vdW  Elec       q    Type
                         _______ _______ _______ _____ _____    ______ ____

>  <TORSDO>
F 16

$$$$
=
 OpenBabel11042412233D

 44 48  0  0  1  0  0  0  0  0999 V2000
  187.6840  178.5010  141.4140 C   0  0  0  0  0  1  0  0  0  0  0  0
  188.8020  177.7920  142.1660 C   0  0  1  0  0  3  0  0  0  0  0  0
  188.2000  176.8040  143.1270 C   0  0  0  0  0  0  0  0  0  0  0  0
  188.5800  175.6420  143.1420 O   0  0  0  0  0  0  0  0  0  0  0  0
  187.1090  177.2370  144.0520 C   0  0  0  0  0  2  0  0  0  0  0  0
  186.8960  178.1460  146.4330 C   0  0  0  0  0  0  0  0  0  0  0  0
  189.4900  177.1830  146.9910 C   0  0  0  0  0  0  0  0  0  0  0  0
  187.4530  178.2720  147.7150 C   0  0  0  0  0  3  0  0  0  0  0  0
  187.6560  177.5100  145.4190 C   0  0  0  0  0  0  0  0  0  0  0  0
  188.9410  177.0360  145.7090 C   0  0  0  0  0  3  0  0  0  0  0  0
  188.7370  177.7980  147.9910 C   0  0  0  0  0  3  0  0  0  0  0  0
  191.7400  176.4250  146.2960 C   0  0  0  0  0  1  0  0  0  0  0  0
  190.7740  176.7240  147.2960 O   0  0  0  0  0  0  0  0  0  0  0  0
  185.5360  178.6870  146.2070 C   0  0  0  0  0  0  0  0  0  0  0  0
  184.5750  178.2410  146.8920 O   0  0  0  0  0  0  0  0  0  0  0  0
  184.5510  179.7440  144.2210 C   0  0  0  0  0  3  0  0  0  0  0  0
  185.3270  179.7570  145.2670 N   0  0  0  0  0  0  0  0  0  0  0  0
  183.7650  178.5550  143.7730 C   0  0  0  0  0  2  0  0  0  0  0  0
  184.0460  178.2760  142.3090 C   0  0  0  0  0  2  0  0  0  0  0  0
  181.7160  178.6730  142.0340 O   0  0  0  0  0  1  0  0  0  0  0  0
  182.9820  178.8560  140.1320 O   0  0  0  0  0  0  0  0  0  0  0  0
  182.8480  178.6010  141.4900 C   0  0  0  0  0  0  0  0  0  0  0  0
  189.7870  177.1200  141.1990 C   0  0  2  0  0  3  0  0  0  0  0  0
  192.1760  177.7310  140.7400 O   0  0  0  0  0  0  0  0  0  0  0  0
  191.2040  177.3150  141.6430 C   0  0  0  0  0  0  0  0  0  0  0  0
  191.5170  177.1130  142.8450 O   0  0  0  0  0  1  0  0  0  0  0  0
  189.6290  177.6680  139.7840 C   0  0  0  0  0  2  0  0  0  0  0  0
  189.7680  176.5520  138.7650 C   0  0  0  0  0  2  0  0  0  0  0  0
  190.5030  176.2980  136.4050 C   0  0  2  0  0  3  0  0  0  0  0  0
  191.4420  175.7200  137.3660 C   0  0  0  0  0  2  0  0  0  0  0  0
  190.7190  176.9490  137.7290 N   0  0  0  0  0  0  0  0  0  0  0  0
  188.3470  175.9210  135.1430 C   0  0  1  0  0  3  0  0  0  0  0  0
  189.1970  175.4940  136.2710 C   0  0  1  0  0  0  0  0  0  0  0  0
  186.9080  175.0680  136.9610 C   0  0  0  0  0  2  0  0  0  0  0  0
  189.0370  174.6830  135.1330 O   0  0  0  0  0  0  0  0  0  0  0  0
  188.3320  175.1520  137.4680 C   0  0  0  0  0  2  0  0  0  0  0  0
  186.8880  175.7410  135.5870 C   0  0  2  0  0  0  0  0  0  0  0  0
  186.2020  174.8080  134.5940 C   0  0  0  0  0  1  0  0  0  0  0  0
  185.3030  177.2300  136.7740 C   0  0  0  0  0  2  0  0  0  0  0  0
  186.6430  179.0380  137.6130 O   0  0  0  0  0  0  0  0  0  0  0  0
  186.0490  177.8210  137.9750 C   0  0  0  0  0  2  0  0  0  0  0  0
  186.1910  177.0520  135.6060 N   0  0  0  0  0  0  0  0  0  0  0  0
  187.6780  178.7140  136.7230 C   0  0  0  0  0  2  0  0  0  0  0  0
  187.0870  178.2110  135.4030 C   0  0  0  0  0  2  0  0  0  0  0  0
  2  1  1  6  0  0  0
  2  3  1  0  0  0  0
  3  4  2  0  0  0  0
  3  5  1  0  0  0  0
  5  9  1  0  0  0  0
  6  8  1  0  0  0  0
  7 13  1  0  0  0  0
  7 11  1  0  0  0  0
  8 11  2  0  0  0  0
  9 10  1  0  0  0  0
  9  6  2  0  0  0  0
 10  7  2  0  0  0  0
 12 13  1  0  0  0  0
 14  6  1  0  0  0  0
 14 15  2  0  0  0  0
 16 17  2  0  0  0  0
 17 14  1  0  0  0  0
 18 16  1  0  0  0  0
 19 18  1  0  0  0  0
 21 22  2  0  0  0  0
 22 20  1  0  0  0  0
 22 19  1  0  0  0  0
 23 27  1  6  0  0  0
 23 25  1  0  0  0  0
 23  2  1  0  0  0  0
 24 25  2  0  0  0  0
 25 26  1  0  0  0  0
 28 27  1  0  0  0  0
 29 30  1  1  0  0  0
 29 31  1  0  0  0  0
 30 31  1  0  0  0  0
 31 28  1  0  0  0  0
 32 35  1  6  0  0  0
 32 37  1  0  0  0  0
 32 33  1  0  0  0  0
 33 29  1  0  0  0  0
 33 36  1  1  0  0  0
 34 36  1  0  0  0  0
 35 33  1  0  0  0  0
 37 38  1  6  0  0  0
 37 42  1  0  0  0  0
 37 34  1  0  0  0  0
 39 41  1  0  0  0  0
 40 41  1  0  0  0  0
 42 39  1  0  0  0  0
 43 40  1  0  0  0  0
 44 42  1  0  0  0  0
 44 43  1  0  0  0  0
M  END
>  <MODEL>
2

>  <REMARK>
 VINA RESULT:      -7.8      2.015      3.256
  Name = 
  16 active torsions:
  status: ('A' for Active; 'I' for Inactive)
    1  A    between atoms: C_1  and  C_21
    2  A    between atoms: C_4  and  C_37
    3  A    between atoms: C_4  and  C_43
    4  A    between atoms: C_6  and  C_27
    5  A    between atoms: C_7  and  C_9
    6  A    between atoms: C_8  and  O_33
    7  A    between atoms: N_17  and  C_34
    8  A    between atoms: C_19  and  C_43
    9  A    between atoms: C_21  and  N_23
   10  A    between atoms: C_24  and  C_28
   11  A    between atoms: C_24  and  C_43
   12  A    between atoms: C_25  and  C_38
   13  A    between atoms: C_27  and  C_36
   14  A    between atoms: C_28  and  C_38
   15  A    between atoms: N_31  and  C_37
   16  A    between atoms: C_36  and  C_40
                            x       y       z     vdW  Elec       q    Type
                         _______ _______ _______ _____ _____    ______ ____

>  <TORSDO>
F 16

$$$$
=
 OpenBabel11042412233D

 44 48  0  0  1  0  0  0  0  0999 V2000
  187.4740  178.7250  141.5900 C   0  0  0  0  0  1  0  0  0  0  0  0
  188.6400  177.9900  142.2380 C   0  0  1  0  0  3  0  0  0  0  0  0
  188.1060  176.8780  143.0980 C   0  0  0  0  0  0  0  0  0  0  0  0
  188.5390  175.7410  142.9810 O   0  0  0  0  0  0  0  0  0  0  0  0
  187.0170  177.1580  144.0830 C   0  0  0  0  0  2  0  0  0  0  0  0
  186.8440  178.1820  146.4200 C   0  0  0  0  0  0  0  0  0  0  0  0
  189.4820  177.3280  146.9460 C   0  0  0  0  0  0  0  0  0  0  0  0
  187.4340  178.3920  147.6760 C   0  0  0  0  0  3  0  0  0  0  0  0
  187.5940  177.5180  145.4160 C   0  0  0  0  0  0  0  0  0  0  0  0
  188.9010  177.0980  145.6910 C   0  0  0  0  0  3  0  0  0  0  0  0
  188.7390  177.9710  147.9360 C   0  0  0  0  0  3  0  0  0  0  0  0
  191.6850  176.4540  146.2360 C   0  0  0  0  0  1  0  0  0  0  0  0
  190.7880  176.9230  147.2350 O   0  0  0  0  0  0  0  0  0  0  0  0
  185.4620  178.6710  146.2070 C   0  0  0  0  0  0  0  0  0  0  0  0
  184.5180  178.1460  146.8600 O   0  0  0  0  0  0  0  0  0  0  0  0
  184.4320  179.7860  144.2780 C   0  0  0  0  0  3  0  0  0  0  0  0
  185.2110  179.7770  145.3210 N   0  0  0  0  0  0  0  0  0  0  0  0
  183.6880  178.5920  143.7730 C   0  0  0  0  0  2  0  0  0  0  0  0
  183.9560  178.4090  142.2910 C   0  0  0  0  0  2  0  0  0  0  0  0
  182.7350  178.6190  140.2590 O   0  0  0  0  0  0  0  0  0  0  0  0
  181.5130  178.8870  142.1800 O   0  0  0  0  0  1  0  0  0  0  0  0
  182.7100  178.6520  141.5170 C   0  0  0  0  0  0  0  0  0  0  0  0
  189.6280  177.4710  141.1820 C   0  0  2  0  0  3  0  0  0  0  0  0
  192.1030  177.2990  140.8090 O   0  0  0  0  0  0  0  0  0  0  0  0
  191.0420  177.5680  141.6680 C   0  0  0  0  0  0  0  0  0  0  0  0
  191.2740  177.9080  142.8570 O   0  0  0  0  0  1  0  0  0  0  0  0
  189.4950  178.2480  139.8760 C   0  0  0  0  0  2  0  0  0  0  0  0
  189.3060  177.2950  138.7110 C   0  0  0  0  0  2  0  0  0  0  0  0
  187.5360  176.0450  137.4940 C   0  0  2  0  0  3  0  0  0  0  0  0
  187.2050  177.4540  137.7040 C   0  0  0  0  0  2  0  0  0  0  0  0
  187.9560  176.7370  138.7460 N   0  0  0  0  0  0  0  0  0  0  0  0
  189.5530  174.7050  136.7720 C   0  0  1  0  0  3  0  0  0  0  0  0
  188.6520  175.8300  136.4540 C   0  0  1  0  0  0  0  0  0  0  0  0
  190.8190  176.4310  135.5380 C   0  0  0  0  0  2  0  0  0  0  0  0
  188.6280  174.6430  135.7000 O   0  0  0  0  0  0  0  0  0  0  0  0
  189.4480  176.9810  135.8730 C   0  0  0  0  0  2  0  0  0  0  0  0
  190.9530  175.0980  136.2760 C   0  0  2  0  0  0  0  0  0  0  0  0
  191.4220  174.0340  135.2880 C   0  0  0  0  0  1  0  0  0  0  0  0
  192.8150  174.0160  137.5000 C   0  0  0  0  0  2  0  0  0  0  0  0
  194.7310  175.4050  137.0920 O   0  0  0  0  0  0  0  0  0  0  0  0
  194.0870  174.2320  136.6740 C   0  0  0  0  0  2  0  0  0  0  0  0
  191.9000  175.1730  137.4180 N   0  0  0  0  0  0  0  0  0  0  0  0
  193.9050  176.4650  136.6900 C   0  0  0  0  0  2  0  0  0  0  0  0
  192.6170  176.4610  137.5190 C   0  0  0  0  0  2  0  0  0  0  0  0
  2  1  1  6  0  0  0
  2  3  1  0  0  0  0
  3  5  1  0  0  0  0
  4  3  2  0  0  0  0
  5  9  1  0  0  0  0
  6  8  1  0  0  0  0
  7 13  1  0  0  0  0
  7 11  1  0  0  0  0
  8 11  2  0  0  0  0
  9 10  1  0  0  0  0
  9  6  2  0  0  0  0
 10  7  2  0  0  0  0
 12 13  1  0  0  0  0
 14  6  1  0  0  0  0
 14 15  2  0  0  0  0
 16 17  2  0  0  0  0
 17 14  1  0  0  0  0
 18 16  1  0  0  0  0
 19 18  1  0  0  0  0
 20 22  2  0  0  0  0
 22 21  1  0  0  0  0
 22 19  1  0  0  0  0
 23 27  1  6  0  0  0
 23 25  1  0  0  0  0
 23  2  1  0  0  0  0
 24 25  2  0  0  0  0
 25 26  1  0  0  0  0
 28 31  1  0  0  0  0
 28 27  1  0  0  0  0
 29 30  1  6  0  0  0
 29 31  1  0  0  0  0
 30 31  1  0  0  0  0
 32 35  1  6  0  0  0
 33 36  1  6  0  0  0
 33 32  1  0  0  0  0
 33 29  1  0  0  0  0
 34 36  1  0  0  0  0
 34 37  1  0  0  0  0
 35 33  1  0  0  0  0
 37 38  1  6  0  0  0
 37 32  1  0  0  0  0
 37 42  1  0  0  0  0
 41 40  1  0  0  0  0
 41 39  1  0  0  0  0
 42 39  1  0  0  0  0
 42 44  1  0  0  0  0
 43 40  1  0  0  0  0
 43 44  1  0  0  0  0
M  END
>  <MODEL>
3

>  <REMARK>
 VINA RESULT:      -7.7      2.519      5.628
  Name = 
  16 active torsions:
  status: ('A' for Active; 'I' for Inactive)
    1  A    between atoms: C_1  and  C_21
    2  A    between atoms: C_4  and  C_37
    3  A    between atoms: C_4  and  C_43
    4  A    between atoms: C_6  and  C_27
    5  A    between atoms: C_7  and  C_9
    6  A    between atoms: C_8  and  O_33
    7  A    between atoms: N_17  and  C_34
    8  A    between atoms: C_19  and  C_43
    9  A    between atoms: C_21  and  N_23
   10  A    between atoms: C_24  and  C_28
   11  A    between atoms: C_24  and  C_43
   12  A    between atoms: C_25  and  C_38
   13  A    between atoms: C_27  and  C_36
   14  A    between atoms: C_28  and  C_38
   15  A    between atoms: N_31  and  C_37
   16  A    between atoms: C_36  and  C_40
                            x       y       z     vdW  Elec       q    Type
                         _______ _______ _______ _____ _____    ______ ____

>  <TORSDO>
F 16

$$$$
=
 OpenBabel11042412233D

 44 48  0  0  1  0  0  0  0  0999 V2000
  191.1100  177.8690  142.1580 C   0  0  0  0  0  1  0  0  0  0  0  0
  190.1680  176.7020  141.8970 C   0  0  1  0  0  3  0  0  0  0  0  0
  189.0150  176.7730  142.8600 C   0  0  0  0  0  0  0  0  0  0  0  0
  188.2850  175.8070  143.0260 O   0  0  0  0  0  0  0  0  0  0  0  0
  188.7420  178.0430  143.5990 C   0  0  0  0  0  2  0  0  0  0  0  0
  187.6140  177.9010  145.8900 C   0  0  0  0  0  0  0  0  0  0  0  0
  190.0750  177.0850  147.0070 C   0  0  0  0  0  0  0  0  0  0  0  0
  187.7150  177.5670  147.2490 C   0  0  0  0  0  3  0  0  0  0  0  0
  188.7730  177.8080  145.0770 C   0  0  0  0  0  0  0  0  0  0  0  0
  189.9870  177.4010  145.6440 C   0  0  0  0  0  3  0  0  0  0  0  0
  188.9320  177.1660  147.8020 C   0  0  0  0  0  3  0  0  0  0  0  0
  192.1480  175.7350  146.9850 C   0  0  0  0  0  1  0  0  0  0  0  0
  191.2790  176.6860  147.5900 O   0  0  0  0  0  0  0  0  0  0  0  0
  186.2960  178.3350  145.3740 C   0  0  0  0  0  0  0  0  0  0  0  0
  185.8430  179.4620  145.7170 O   0  0  0  0  0  0  0  0  0  0  0  0
  185.2060  177.8340  143.2310 C   0  0  0  0  0  3  0  0  0  0  0  0
  185.5750  177.5130  144.4380 N   0  0  0  0  0  0  0  0  0  0  0  0
  185.4260  179.1780  142.6150 C   0  0  0  0  0  2  0  0  0  0  0  0
  185.7060  179.0220  141.1320 C   0  0  0  0  0  2  0  0  0  0  0  0
  183.4310  178.5180  140.6550 O   0  0  0  0  0  1  0  0  0  0  0  0
  184.3880  180.1200  139.3240 O   0  0  0  0  0  0  0  0  0  0  0  0
  184.4490  179.1930  140.3570 C   0  0  0  0  0  0  0  0  0  0  0  0
  189.6930  176.6840  140.4370 C   0  0  2  0  0  3  0  0  0  0  0  0
  190.9140  175.2460  138.7840 O   0  0  0  0  0  0  0  0  0  0  0  0
  190.8320  176.4370  139.4970 C   0  0  0  0  0  0  0  0  0  0  0  0
  191.7170  177.3190  139.3400 O   0  0  0  0  0  1  0  0  0  0  0  0
  189.0140  177.9980  140.0640 C   0  0  0  0  0  2  0  0  0  0  0  0
  188.0710  177.7920  138.8920 C   0  0  0  0  0  2  0  0  0  0  0  0
  187.8660  178.6950  136.5860 C   0  0  2  0  0  3  0  0  0  0  0  0
  189.2250  178.7800  137.1190 C   0  0  0  0  0  2  0  0  0  0  0  0
  188.0900  178.9750  138.0340 N   0  0  0  0  0  0  0  0  0  0  0  0
  185.9920  177.1220  135.9570 C   0  0  1  0  0  3  0  0  0  0  0  0
  187.4310  177.2560  136.2530 C   0  0  1  0  0  0  0  0  0  0  0  0
  186.8060  175.0250  136.9780 C   0  0  0  0  0  2  0  0  0  0  0  0
  186.9770  176.9920  134.9480 O   0  0  0  0  0  0  0  0  0  0  0  0
  187.9070  176.0620  137.0540 C   0  0  0  0  0  2  0  0  0  0  0  0
  185.5520  175.7480  136.4850 C   0  0  2  0  0  0  0  0  0  0  0  0
  184.9570  174.9610  135.3210 C   0  0  0  0  0  1  0  0  0  0  0  0
  183.6760  177.1010  137.3730 C   0  0  0  0  0  2  0  0  0  0  0  0
  181.7190  175.7440  137.0690 O   0  0  0  0  0  0  0  0  0  0  0  0
  182.4490  176.7990  136.5060 C   0  0  0  0  0  2  0  0  0  0  0  0
  184.5320  175.9100  137.5530 N   0  0  0  0  0  0  0  0  0  0  0  0
  182.5100  174.5970  136.9110 C   0  0  0  0  0  2  0  0  0  0  0  0
  183.7420  174.6890  137.8180 C   0  0  0  0  0  2  0  0  0  0  0  0
  2  1  1  6  0  0  0
  2  3  1  0  0  0  0
  3  4  2  0  0  0  0
  3  5  1  0  0  0  0
  5  9  1  0  0  0  0
  6  8  1  0  0  0  0
  7 13  1  0  0  0  0
  7 11  1  0  0  0  0
  8 11  2  0  0  0  0
  9 10  1  0  0  0  0
  9  6  2  0  0  0  0
 10  7  2  0  0  0  0
 12 13  1  0  0  0  0
 14 15  2  0  0  0  0
 14  6  1  0  0  0  0
 16 17  2  0  0  0  0
 17 14  1  0  0  0  0
 18 16  1  0  0  0  0
 19 18  1  0  0  0  0
 21 22  2  0  0  0  0
 22 20  1  0  0  0  0
 22 19  1  0  0  0  0
 23 27  1  6  0  0  0
 23  2  1  0  0  0  0
 24 25  2  0  0  0  0
 25 23  1  0  0  0  0
 26 25  1  0  0  0  0
 28 27  1  0  0  0  0
 29 30  1  6  0  0  0
 29 31  1  0  0  0  0
 30 31  1  0  0  0  0
 31 28  1  0  0  0  0
 32 35  1  6  0  0  0
 32 33  1  0  0  0  0
 32 37  1  0  0  0  0
 33 29  1  0  0  0  0
 33 36  1  1  0  0  0
 34 36  1  0  0  0  0
 35 33  1  0  0  0  0
 37 38  1  6  0  0  0
 37 34  1  0  0  0  0
 37 42  1  0  0  0  0
 39 42  1  0  0  0  0
 41 40  1  0  0  0  0
 41 39  1  0  0  0  0
 42 44  1  0  0  0  0
 43 40  1  0  0  0  0
 43 44  1  0  0  0  0
M  END
>  <MODEL>
4

>  <REMARK>
 VINA RESULT:      -7.5      2.124      2.830
  Name = 
  16 active torsions:
  status: ('A' for Active; 'I' for Inactive)
    1  A    between atoms: C_1  and  C_21
    2  A    between atoms: C_4  and  C_37
    3  A    between atoms: C_4  and  C_43
    4  A    between atoms: C_6  and  C_27
    5  A    between atoms: C_7  and  C_9
    6  A    between atoms: C_8  and  O_33
    7  A    between atoms: N_17  and  C_34
    8  A    between atoms: C_19  and  C_43
    9  A    between atoms: C_21  and  N_23
   10  A    between atoms: C_24  and  C_28
   11  A    between atoms: C_24  and  C_43
   12  A    between atoms: C_25  and  C_38
   13  A    between atoms: C_27  and  C_36
   14  A    between atoms: C_28  and  C_38
   15  A    between atoms: N_31  and  C_37
   16  A    between atoms: C_36  and  C_40
                            x       y       z     vdW  Elec       q    Type
                         _______ _______ _______ _____ _____    ______ ____

>  <TORSDO>
F 16

$$$$
=
 OpenBabel11042412233D

 44 48  0  0  1  0  0  0  0  0999 V2000
  187.9500  178.1930  140.9540 C   0  0  0  0  0  1  0  0  0  0  0  0
  188.9730  177.8200  142.0180 C   0  0  1  0  0  3  0  0  0  0  0  0
  188.2660  177.1900  143.1860 C   0  0  0  0  0  0  0  0  0  0  0  0
  187.7400  176.0930  143.0730 O   0  0  0  0  0  0  0  0  0  0  0  0
  188.1790  177.9230  144.4860 C   0  0  0  0  0  2  0  0  0  0  0  0
  186.3420  178.2040  146.2420 C   0  0  0  0  0  0  0  0  0  0  0  0
  184.4640  178.5570  144.1650 C   0  0  0  0  0  0  0  0  0  0  0  0
  184.9960  178.4830  146.5250 C   0  0  0  0  0  3  0  0  0  0  0  0
  186.7500  178.1150  144.8870 C   0  0  0  0  0  0  0  0  0  0  0  0
  185.8080  178.2930  143.8660 C   0  0  0  0  0  3  0  0  0  0  0  0
  184.0670  178.6560  145.4980 C   0  0  0  0  0  3  0  0  0  0  0  0
  182.1550  179.0630  143.4360 C   0  0  0  0  0  1  0  0  0  0  0  0
  183.5100  178.7300  143.1590 O   0  0  0  0  0  0  0  0  0  0  0  0
  187.2700  178.0140  147.3810 C   0  0  0  0  0  0  0  0  0  0  0  0
  187.4530  178.9650  148.1890 O   0  0  0  0  0  0  0  0  0  0  0  0
  189.1750  176.4850  147.6260 C   0  0  0  0  0  3  0  0  0  0  0  0
  187.8980  176.7380  147.6010 N   0  0  0  0  0  0  0  0  0  0  0  0
  190.2390  177.5020  147.3630 C   0  0  0  0  0  2  0  0  0  0  0  0
  191.1890  176.9870  146.2980 C   0  0  0  0  0  2  0  0  0  0  0  0
  192.4140  174.9490  146.2230 O   0  0  0  0  0  0  0  0  0  0  0  0
  192.6500  176.1750  148.1460 O   0  0  0  0  0  1  0  0  0  0  0  0
  192.1070  175.9750  146.8840 C   0  0  0  0  0  0  0  0  0  0  0  0
  190.0630  176.9010  141.4470 C   0  0  2  0  0  3  0  0  0  0  0  0
  192.0730  177.5600  142.7950 O   0  0  0  0  0  0  0  0  0  0  0  0
  191.1160  176.6050  142.4700 C   0  0  0  0  0  0  0  0  0  0  0  0
  191.1290  175.4880  143.0500 O   0  0  0  0  0  1  0  0  0  0  0  0
  190.7210  177.5250  140.2200 C   0  0  0  0  0  2  0  0  0  0  0  0
  191.2230  176.4440  139.2810 C   0  0  0  0  0  2  0  0  0  0  0  0
  192.7350  176.3230  137.3130 C   0  0  2  0  0  3  0  0  0  0  0  0
  193.2610  175.6260  138.4870 C   0  0  0  0  0  2  0  0  0  0  0  0
  192.4880  176.8630  138.6810 N   0  0  0  0  0  0  0  0  0  0  0  0
  190.6080  176.5090  135.9620 C   0  0  1  0  0  3  0  0  0  0  0  0
  191.5390  175.6030  136.6620 C   0  0  1  0  0  0  0  0  0  0  0  0
  189.3460  174.5780  136.8460 C   0  0  0  0  0  2  0  0  0  0  0  0
  191.4500  175.6130  135.2580 O   0  0  0  0  0  0  0  0  0  0  0  0
  190.7620  174.5170  137.3780 C   0  0  0  0  0  2  0  0  0  0  0  0
  189.1980  175.9260  136.1370 C   0  0  2  0  0  0  0  0  0  0  0  0
  188.6080  175.6880  134.7510 C   0  0  0  0  0  1  0  0  0  0  0  0
  187.9500  178.0660  136.1080 C   0  0  0  0  0  2  0  0  0  0  0  0
  185.6310  177.4460  136.1730 O   0  0  0  0  0  0  0  0  0  0  0  0
  186.6650  177.8300  135.3080 C   0  0  0  0  0  2  0  0  0  0  0  0
  188.3390  176.8750  136.8910 N   0  0  0  0  0  0  0  0  0  0  0  0
  185.9640  176.1610  136.6270 C   0  0  0  0  0  2  0  0  0  0  0  0
  187.1810  176.2390  137.5540 C   0  0  0  0  0  2  0  0  0  0  0  0
  2  1  1  6  0  0  0
  2  3  1  0  0  0  0
  3  5  1  0  0  0  0
  4  3  2  0  0  0  0
  5  9  1  0  0  0  0
  6  8  1  0  0  0  0
  6 14  1  0  0  0  0
  7 11  1  0  0  0  0
  9  6  2  0  0  0  0
 10  7  2  0  0  0  0
 10  9  1  0  0  0  0
 11  8  2  0  0  0  0
 13 12  1  0  0  0  0
 13  7  1  0  0  0  0
 14 17  1  0  0  0  0
 14 15  2  0  0  0  0
 17 16  2  0  0  0  0
 18 16  1  0  0  0  0
 19 22  1  0  0  0  0
 19 18  1  0  0  0  0
 20 22  2  0  0  0  0
 22 21  1  0  0  0  0
 23 27  1  6  0  0  0
 23  2  1  0  0  0  0
 23 25  1  0  0  0  0
 25 24  2  0  0  0  0
 25 26  1  0  0  0  0
 28 27  1  0  0  0  0
 29 30  1  1  0  0  0
 29 31  1  0  0  0  0
 30 31  1  0  0  0  0
 31 28  1  0  0  0  0
 32 35  1  6  0  0  0
 32 37  1  0  0  0  0
 32 33  1  0  0  0  0
 33 29  1  0  0  0  0
 33 36  1  1  0  0  0
 34 36  1  0  0  0  0
 35 33  1  0  0  0  0
 37 38  1  6  0  0  0
 37 34  1  0  0  0  0
 37 42  1  0  0  0  0
 39 42  1  0  0  0  0
 40 43  1  0  0  0  0
 41 39  1  0  0  0  0
 41 40  1  0  0  0  0
 42 44  1  0  0  0  0
 43 44  1  0  0  0  0
M  END
>  <MODEL>
5

>  <REMARK>
 VINA RESULT:      -7.3      2.864      6.199
  Name = 
  16 active torsions:
  status: ('A' for Active; 'I' for Inactive)
    1  A    between atoms: C_1  and  C_21
    2  A    between atoms: C_4  and  C_37
    3  A    between atoms: C_4  and  C_43
    4  A    between atoms: C_6  and  C_27
    5  A    between atoms: C_7  and  C_9
    6  A    between atoms: C_8  and  O_33
    7  A    between atoms: N_17  and  C_34
    8  A    between atoms: C_19  and  C_43
    9  A    between atoms: C_21  and  N_23
   10  A    between atoms: C_24  and  C_28
   11  A    between atoms: C_24  and  C_43
   12  A    between atoms: C_25  and  C_38
   13  A    between atoms: C_27  and  C_36
   14  A    between atoms: C_28  and  C_38
   15  A    between atoms: N_31  and  C_37
   16  A    between atoms: C_36  and  C_40
                            x       y       z     vdW  Elec       q    Type
                         _______ _______ _______ _____ _____    ______ ____

>  <TORSDO>
F 16

$$$$
=
 OpenBabel11042412233D

 44 48  0  0  1  0  0  0  0  0999 V2000
  191.4670  177.4920  141.6060 C   0  0  0  0  0  1  0  0  0  0  0  0
  190.1170  176.7900  141.5290 C   0  0  1  0  0  3  0  0  0  0  0  0
  189.1580  177.4590  142.4740 C   0  0  0  0  0  0  0  0  0  0  0  0
  189.4280  178.5450  142.9670 O   0  0  0  0  0  0  0  0  0  0  0  0
  187.8770  176.7800  142.8370 C   0  0  0  0  0  2  0  0  0  0  0  0
  186.1050  178.3140  143.8580 C   0  0  0  0  0  0  0  0  0  0  0  0
  187.1170  177.7110  146.4220 C   0  0  0  0  0  0  0  0  0  0  0  0
  185.5010  178.8350  145.0120 C   0  0  0  0  0  3  0  0  0  0  0  0
  187.2300  177.4640  144.0000 C   0  0  0  0  0  0  0  0  0  0  0  0
  187.7210  177.1720  145.2790 C   0  0  0  0  0  3  0  0  0  0  0  0
  186.0030  178.5390  146.2810 C   0  0  0  0  0  3  0  0  0  0  0  0
  188.5930  178.2340  148.3380 C   0  0  0  0  0  1  0  0  0  0  0  0
  187.5980  177.4380  147.7050 O   0  0  0  0  0  0  0  0  0  0  0  0
  185.5310  178.6840  142.5430 C   0  0  0  0  0  0  0  0  0  0  0  0
  186.0240  179.6580  141.9100 O   0  0  0  0  0  0  0  0  0  0  0  0
  183.1940  178.1360  142.0280 C   0  0  0  0  0  3  0  0  0  0  0  0
  184.4730  177.8990  141.9650 N   0  0  0  0  0  0  0  0  0  0  0  0
  182.5860  179.2710  142.7870 C   0  0  0  0  0  2  0  0  0  0  0  0
  181.7760  178.7340  143.9520 C   0  0  0  0  0  2  0  0  0  0  0  0
  179.6890  179.8240  143.6070 O   0  0  0  0  0  1  0  0  0  0  0  0
  179.6900  177.5580  143.2630 O   0  0  0  0  0  0  0  0  0  0  0  0
  180.3290  178.7410  143.6100 C   0  0  0  0  0  0  0  0  0  0  0  0
  189.5810  176.7710  140.0900 C   0  0  2  0  0  3  0  0  0  0  0  0
  191.3990  177.4640  138.5080 O   0  0  0  0  0  0  0  0  0  0  0  0
  190.6650  176.4470  139.1090 C   0  0  0  0  0  0  0  0  0  0  0  0
  190.9250  175.2470  138.8350 O   0  0  0  0  0  1  0  0  0  0  0  0
  188.9550  178.1120  139.7170 C   0  0  0  0  0  2  0  0  0  0  0  0
  187.8600  177.9170  138.6860 C   0  0  0  0  0  2  0  0  0  0  0  0
  187.5380  178.6030  136.3190 C   0  0  2  0  0  3  0  0  0  0  0  0
  188.9400  178.6120  136.7370 C   0  0  0  0  0  2  0  0  0  0  0  0
  187.9070  179.0020  137.7090 N   0  0  0  0  0  0  0  0  0  0  0  0
  185.4810  177.1460  136.1550 C   0  0  1  0  0  3  0  0  0  0  0  0
  186.9560  177.1850  136.1740 C   0  0  1  0  0  0  0  0  0  0  0  0
  186.3320  175.0550  137.1580 C   0  0  0  0  0  2  0  0  0  0  0  0
  186.2500  176.8820  134.9950 O   0  0  0  0  0  0  0  0  0  0  0  0
  187.4930  176.0060  136.9590 C   0  0  0  0  0  2  0  0  0  0  0  0
  185.0570  175.8440  136.8510 C   0  0  2  0  0  0  0  0  0  0  0  0
  184.2060  175.0390  135.8730 C   0  0  0  0  0  1  0  0  0  0  0  0
  183.8970  177.5710  138.1950 C   0  0  0  0  0  2  0  0  0  0  0  0
  181.5590  177.0590  137.9980 O   0  0  0  0  0  0  0  0  0  0  0  0
  182.5730  177.8820  137.4880 C   0  0  0  0  0  2  0  0  0  0  0  0
  184.2670  176.1460  138.0710 N   0  0  0  0  0  0  0  0  0  0  0  0
  181.8560  175.7610  137.5600 C   0  0  0  0  0  2  0  0  0  0  0  0
  183.1110  175.2480  138.2750 C   0  0  0  0  0  2  0  0  0  0  0  0
  2  1  1  6  0  0  0
  2  3  1  0  0  0  0
  3  5  1  0  0  0  0
  3  4  2  0  0  0  0
  5  9  1  0  0  0  0
  6  9  2  0  0  0  0
  6  8  1  0  0  0  0
  7 13  1  0  0  0  0
  8 11  2  0  0  0  0
  9 10  1  0  0  0  0
 10  7  2  0  0  0  0
 11  7  1  0  0  0  0
 13 12  1  0  0  0  0
 14  6  1  0  0  0  0
 15 14  2  0  0  0  0
 16 18  1  0  0  0  0
 17 16  2  0  0  0  0
 17 14  1  0  0  0  0
 18 19  1  0  0  0  0
 20 22  1  0  0  0  0
 21 22  2  0  0  0  0
 22 19  1  0  0  0  0
 23 27  1  6  0  0  0
 23  2  1  0  0  0  0
 24 25  2  0  0  0  0
 25 23  1  0  0  0  0
 26 25  1  0  0  0  0
 28 27  1  0  0  0  0
 29 30  1  6  0  0  0
 29 31  1  0  0  0  0
 30 31  1  0  0  0  0
 31 28  1  0  0  0  0
 32 35  1  6  0  0  0
 32 33  1  0  0  0  0
 32 37  1  0  0  0  0
 33 29  1  0  0  0  0
 33 36  1  1  0  0  0
 35 33  1  0  0  0  0
 36 34  1  0  0  0  0
 37 38  1  6  0  0  0
 37 34  1  0  0  0  0
 37 42  1  0  0  0  0
 41 40  1  0  0  0  0
 41 39  1  0  0  0  0
 42 39  1  0  0  0  0
 42 44  1  0  0  0  0
 43 40  1  0  0  0  0
 43 44  1  0  0  0  0
M  END
>  <MODEL>
6

>  <REMARK>
 VINA RESULT:      -7.0      1.877      2.778
  Name = 
  16 active torsions:
  status: ('A' for Active; 'I' for Inactive)
    1  A    between atoms: C_1  and  C_21
    2  A    between atoms: C_4  and  C_37
    3  A    between atoms: C_4  and  C_43
    4  A    between atoms: C_6  and  C_27
    5  A    between atoms: C_7  and  C_9
    6  A    between atoms: C_8  and  O_33
    7  A    between atoms: N_17  and  C_34
    8  A    between atoms: C_19  and  C_43
    9  A    between atoms: C_21  and  N_23
   10  A    between atoms: C_24  and  C_28
   11  A    between atoms: C_24  and  C_43
   12  A    between atoms: C_25  and  C_38
   13  A    between atoms: C_27  and  C_36
   14  A    between atoms: C_28  and  C_38
   15  A    between atoms: N_31  and  C_37
   16  A    between atoms: C_36  and  C_40
                            x       y       z     vdW  Elec       q    Type
                         _______ _______ _______ _____ _____    ______ ____

>  <TORSDO>
F 16

$$$$
=
 OpenBabel11042412233D

 44 48  0  0  1  0  0  0  0  0999 V2000
  189.9900  179.0860  142.8810 C   0  0  0  0  0  1  0  0  0  0  0  0
  189.4750  177.7220  143.3190 C   0  0  1  0  0  3  0  0  0  0  0  0
  187.9730  177.7550  143.3720 C   0  0  0  0  0  0  0  0  0  0  0  0
  187.3350  178.3550  142.5190 O   0  0  0  0  0  0  0  0  0  0  0  0
  187.2540  177.0730  144.4910 C   0  0  0  0  0  2  0  0  0  0  0  0
  187.0240  178.1850  146.7820 C   0  0  0  0  0  0  0  0  0  0  0  0
  189.6860  177.4490  147.3630 C   0  0  0  0  0  0  0  0  0  0  0  0
  187.5940  178.4670  148.0330 C   0  0  0  0  0  3  0  0  0  0  0  0
  187.8060  177.5080  145.8130 C   0  0  0  0  0  0  0  0  0  0  0  0
  189.1250  177.1470  146.1140 C   0  0  0  0  0  3  0  0  0  0  0  0
  188.9110  178.1050  148.3200 C   0  0  0  0  0  3  0  0  0  0  0  0
  191.5560  175.8290  147.3750 C   0  0  0  0  0  1  0  0  0  0  0  0
  191.0020  177.1040  147.6790 O   0  0  0  0  0  0  0  0  0  0  0  0
  185.6270  178.6140  146.5400 C   0  0  0  0  0  0  0  0  0  0  0  0
  184.6880  178.0080  147.1240 O   0  0  0  0  0  0  0  0  0  0  0  0
  184.7310  179.7560  144.5590 C   0  0  0  0  0  3  0  0  0  0  0  0
  185.3520  179.7530  145.7040 N   0  0  0  0  0  0  0  0  0  0  0  0
  184.2340  178.5270  143.8690 C   0  0  0  0  0  2  0  0  0  0  0  0
  183.3010  178.9150  142.7380 C   0  0  0  0  0  2  0  0  0  0  0  0
  183.6600  177.5030  140.8560 O   0  0  0  0  0  1  0  0  0  0  0  0
  184.7830  179.5020  140.8230 O   0  0  0  0  0  0  0  0  0  0  0  0
  183.9270  178.5910  141.4290 C   0  0  0  0  0  0  0  0  0  0  0  0
  189.9900  176.6080  142.3950 C   0  0  2  0  0  3  0  0  0  0  0  0
  192.0350  176.0870  143.7510 O   0  0  0  0  0  1  0  0  0  0  0  0
  190.8660  175.6470  143.1370 C   0  0  0  0  0  0  0  0  0  0  0  0
  190.5390  174.4350  143.2190 O   0  0  0  0  0  0  0  0  0  0  0  0
  190.7690  177.1870  141.2170 C   0  0  0  0  0  2  0  0  0  0  0  0
  190.0830  176.8430  139.9090 C   0  0  0  0  0  2  0  0  0  0  0  0
  188.1830  177.5310  138.4630 C   0  0  2  0  0  3  0  0  0  0  0  0
  189.0540  178.6450  138.8380 C   0  0  0  0  0  2  0  0  0  0  0  0
  188.8180  177.5670  139.8120 N   0  0  0  0  0  0  0  0  0  0  0  0
  187.8780  175.9800  136.4920 C   0  0  1  0  0  3  0  0  0  0  0  0
  188.8310  176.5640  137.4550 C   0  0  1  0  0  0  0  0  0  0  0  0
  189.6970  174.3620  136.9100 C   0  0  0  0  0  2  0  0  0  0  0  0
  188.8440  176.9380  136.0990 O   0  0  0  0  0  0  0  0  0  0  0  0
  189.8450  175.5190  137.8750 C   0  0  0  0  0  2  0  0  0  0  0  0
  188.3580  174.5510  136.1950 C   0  0  2  0  0  0  0  0  0  0  0  0
  188.5830  174.4300  134.6910 C   0  0  0  0  0  1  0  0  0  0  0  0
  186.1750  173.4800  135.7190 C   0  0  0  0  0  2  0  0  0  0  0  0
  186.6990  171.2100  135.1390 O   0  0  0  0  0  0  0  0  0  0  0  0
  186.4030  172.4660  134.5940 C   0  0  0  0  0  2  0  0  0  0  0  0
  187.3360  173.5650  136.6300 N   0  0  0  0  0  0  0  0  0  0  0  0
  187.9690  171.3290  135.7230 C   0  0  0  0  0  2  0  0  0  0  0  0
  187.8880  172.2340  136.9570 C   0  0  0  0  0  2  0  0  0  0  0  0
  2  1  1  6  0  0  0
  2  3  1  0  0  0  0
  3  5  1  0  0  0  0
  4  3  2  0  0  0  0
  5  9  1  0  0  0  0
  6  8  1  0  0  0  0
  7 13  1  0  0  0  0
  7 11  1  0  0  0  0
  8 11  2  0  0  0  0
  9 10  1  0  0  0  0
  9  6  2  0  0  0  0
 10  7  2  0  0  0  0
 12 13  1  0  0  0  0
 14  6  1  0  0  0  0
 14 15  2  0  0  0  0
 16 17  2  0  0  0  0
 17 14  1  0  0  0  0
 18 16  1  0  0  0  0
 19 18  1  0  0  0  0
 20 22  1  0  0  0  0
 21 22  2  0  0  0  0
 22 19  1  0  0  0  0
 23 27  1  6  0  0  0
 23 25  1  0  0  0  0
 23  2  1  0  0  0  0
 25 26  2  0  0  0  0
 25 24  1  0  0  0  0
 28 27  1  0  0  0  0
 29 30  1  6  0  0  0
 29 31  1  0  0  0  0
 30 31  1  0  0  0  0
 31 28  1  0  0  0  0
 32 35  1  6  0  0  0
 32 33  1  0  0  0  0
 33 36  1  1  0  0  0
 33 29  1  0  0  0  0
 34 36  1  0  0  0  0
 35 33  1  0  0  0  0
 37 38  1  6  0  0  0
 37 32  1  0  0  0  0
 37 42  1  0  0  0  0
 37 34  1  0  0  0  0
 39 42  1  0  0  0  0
 40 43  1  0  0  0  0
 41 40  1  0  0  0  0
 41 39  1  0  0  0  0
 42 44  1  0  0  0  0
 43 44  1  0  0  0  0
M  END
>  <MODEL>
7

>  <REMARK>
 VINA RESULT:      -6.9      2.871      4.494
  Name = 
  16 active torsions:
  status: ('A' for Active; 'I' for Inactive)
    1  A    between atoms: C_1  and  C_21
    2  A    between atoms: C_4  and  C_37
    3  A    between atoms: C_4  and  C_43
    4  A    between atoms: C_6  and  C_27
    5  A    between atoms: C_7  and  C_9
    6  A    between atoms: C_8  and  O_33
    7  A    between atoms: N_17  and  C_34
    8  A    between atoms: C_19  and  C_43
    9  A    between atoms: C_21  and  N_23
   10  A    between atoms: C_24  and  C_28
   11  A    between atoms: C_24  and  C_43
   12  A    between atoms: C_25  and  C_38
   13  A    between atoms: C_27  and  C_36
   14  A    between atoms: C_28  and  C_38
   15  A    between atoms: N_31  and  C_37
   16  A    between atoms: C_36  and  C_40
                            x       y       z     vdW  Elec       q    Type
                         _______ _______ _______ _____ _____    ______ ____

>  <TORSDO>
F 16

$$$$
=
 OpenBabel11042412233D

 44 48  0  0  1  0  0  0  0  0999 V2000
  182.5520  176.0120  139.5700 C   0  0  0  0  0  1  0  0  0  0  0  0
  183.3530  177.1300  138.9170 C   0  0  1  0  0  3  0  0  0  0  0  0
  183.1440  177.0830  137.4290 C   0  0  0  0  0  0  0  0  0  0  0  0
  182.0190  176.9780  136.9630 O   0  0  0  0  0  0  0  0  0  0  0  0
  184.3230  177.1370  136.5110 C   0  0  0  0  0  2  0  0  0  0  0  0
  186.6000  175.9950  136.7290 C   0  0  0  0  0  0  0  0  0  0  0  0
  185.2830  173.5380  137.1710 C   0  0  0  0  0  0  0  0  0  0  0  0
  187.3260  174.8250  137.0020 C   0  0  0  0  0  3  0  0  0  0  0  0
  185.1850  175.9260  136.6920 C   0  0  0  0  0  0  0  0  0  0  0  0
  184.5440  174.7020  136.9140 C   0  0  0  0  0  3  0  0  0  0  0  0
  186.6750  173.6100  137.2190 C   0  0  0  0  0  3  0  0  0  0  0  0
  183.9300  171.6270  136.3720 C   0  0  0  0  0  1  0  0  0  0  0  0
  184.6600  172.3070  137.3870 O   0  0  0  0  0  0  0  0  0  0  0  0
  187.3570  177.2460  136.4920 C   0  0  0  0  0  0  0  0  0  0  0  0
  187.5520  177.6300  135.3060 O   0  0  0  0  0  0  0  0  0  0  0  0
  188.9660  178.0100  138.1820 C   0  0  0  0  0  3  0  0  0  0  0  0
  187.8010  178.0480  137.6010 N   0  0  0  0  0  0  0  0  0  0  0  0
  190.0550  177.0520  137.8200 C   0  0  0  0  0  2  0  0  0  0  0  0
  190.5830  176.3770  139.0720 C   0  0  0  0  0  2  0  0  0  0  0  0
  192.8970  176.7540  138.6680 O   0  0  0  0  0  0  0  0  0  0  0  0
  192.0620  177.6910  140.5860 O   0  0  0  0  0  1  0  0  0  0  0  0
  191.9120  176.9380  139.4290 C   0  0  0  0  0  0  0  0  0  0  0  0
  182.9790  178.4990  139.5040 C   0  0  2  0  0  3  0  0  0  0  0  0
  183.6520  180.8490  138.9390 O   0  0  0  0  0  0  0  0  0  0  0  0
  184.0180  179.5300  139.1840 C   0  0  0  0  0  0  0  0  0  0  0  0
  185.2330  179.2040  139.1490 O   0  0  0  0  0  1  0  0  0  0  0  0
  182.8050  178.4200  141.0180 C   0  0  0  0  0  2  0  0  0  0  0  0
  184.1500  178.2470  141.6970 C   0  0  0  0  0  2  0  0  0  0  0  0
  185.5040  179.0280  143.6290 C   0  0  2  0  0  3  0  0  0  0  0  0
  184.3230  178.2630  144.0250 C   0  0  0  0  0  2  0  0  0  0  0  0
  184.2380  179.1420  142.8490 N   0  0  0  0  0  0  0  0  0  0  0  0
  187.4820  177.4900  143.9560 C   0  0  1  0  0  3  0  0  0  0  0  0
  186.6020  178.1640  142.9810 C   0  0  1  0  0  0  0  0  0  0  0  0
  188.7690  177.9730  141.9030 C   0  0  0  0  0  2  0  0  0  0  0  0
  186.5420  176.7720  143.1760 O   0  0  0  0  0  0  0  0  0  0  0  0
  187.4150  178.6440  141.7960 C   0  0  0  0  0  2  0  0  0  0  0  0
  188.8840  177.4340  143.3300 C   0  0  2  0  0  0  0  0  0  0  0  0
  189.3170  175.9720  143.2690 C   0  0  0  0  0  1  0  0  0  0  0  0
  189.4870  178.2560  145.5880 C   0  0  0  0  0  2  0  0  0  0  0  0
  191.4560  177.0260  146.2030 O   0  0  0  0  0  0  0  0  0  0  0  0
  190.0640  177.0680  146.3640 C   0  0  0  0  0  2  0  0  0  0  0  0
  189.8460  178.2070  144.1550 N   0  0  0  0  0  0  0  0  0  0  0  0
  191.6800  176.6720  144.8650 C   0  0  0  0  0  2  0  0  0  0  0  0
  191.2590  177.8240  143.9460 C   0  0  0  0  0  2  0  0  0  0  0  0
  2 23  1  0  0  0  0
  2  1  1  1  0  0  0
  3  2  1  0  0  0  0
  4  3  2  0  0  0  0
  5  9  1  0  0  0  0
  5  3  1  0  0  0  0
  6  8  1  0  0  0  0
  7 11  1  0  0  0  0
  7 13  1  0  0  0  0
  8 11  2  0  0  0  0
  9  6  2  0  0  0  0
  9 10  1  0  0  0  0
 10  7  2  0  0  0  0
 12 13  1  0  0  0  0
 14  6  1  0  0  0  0
 14 17  1  0  0  0  0
 15 14  2  0  0  0  0
 17 16  2  0  0  0  0
 18 16  1  0  0  0  0
 18 19  1  0  0  0  0
 19 22  1  0  0  0  0
 20 22  2  0  0  0  0
 22 21  1  0  0  0  0
 23 27  1  1  0  0  0
 24 25  2  0  0  0  0
 25 23  1  0  0  0  0
 26 25  1  0  0  0  0
 27 28  1  0  0  0  0
 28 31  1  0  0  0  0
 29 30  1  1  0  0  0
 31 29  1  0  0  0  0
 31 30  1  0  0  0  0
 32 35  1  6  0  0  0
 33 36  1  6  0  0  0
 33 35  1  0  0  0  0
 33 29  1  0  0  0  0
 33 32  1  0  0  0  0
 34 37  1  0  0  0  0
 36 34  1  0  0  0  0
 37 38  1  6  0  0  0
 37 32  1  0  0  0  0
 37 42  1  0  0  0  0
 39 41  1  0  0  0  0
 40 41  1  0  0  0  0
 42 39  1  0  0  0  0
 43 40  1  0  0  0  0
 44 42  1  0  0  0  0
 44 43  1  0  0  0  0
M  END
>  <MODEL>
8

>  <REMARK>
 VINA RESULT:      -6.8      2.367      9.477
  Name = 
  16 active torsions:
  status: ('A' for Active; 'I' for Inactive)
    1  A    between atoms: C_1  and  C_21
    2  A    between atoms: C_4  and  C_37
    3  A    between atoms: C_4  and  C_43
    4  A    between atoms: C_6  and  C_27
    5  A    between atoms: C_7  and  C_9
    6  A    between atoms: C_8  and  O_33
    7  A    between atoms: N_17  and  C_34
    8  A    between atoms: C_19  and  C_43
    9  A    between atoms: C_21  and  N_23
   10  A    between atoms: C_24  and  C_28
   11  A    between atoms: C_24  and  C_43
   12  A    between atoms: C_25  and  C_38
   13  A    between atoms: C_27  and  C_36
   14  A    between atoms: C_28  and  C_38
   15  A    between atoms: N_31  and  C_37
   16  A    between atoms: C_36  and  C_40
                            x       y       z     vdW  Elec       q    Type
                         _______ _______ _______ _____ _____    ______ ____

>  <TORSDO>
F 16

$$$$
=
 OpenBabel11042412233D

 44 48  0  0  1  0  0  0  0  0999 V2000
  185.7340  178.4780  142.1070 C   0  0  0  0  0  1  0  0  0  0  0  0
  185.4150  178.0870  143.5440 C   0  0  1  0  0  3  0  0  0  0  0  0
  186.5920  177.3570  144.1290 C   0  0  0  0  0  0  0  0  0  0  0  0
  186.4270  176.5000  144.9850 O   0  0  0  0  0  0  0  0  0  0  0  0
  187.9770  177.7000  143.6830 C   0  0  0  0  0  2  0  0  0  0  0  0
  190.2340  176.8630  144.5450 C   0  0  0  0  0  0  0  0  0  0  0  0
  189.5280  177.7410  147.1320 C   0  0  0  0  0  0  0  0  0  0  0  0
  191.1330  176.7490  145.6160 C   0  0  0  0  0  3  0  0  0  0  0  0
  188.9620  177.4420  144.7800 C   0  0  0  0  0  0  0  0  0  0  0  0
  188.6240  177.8750  146.0690 C   0  0  0  0  0  3  0  0  0  0  0  0
  190.7830  177.1810  146.8960 C   0  0  0  0  0  3  0  0  0  0  0  0
  187.9500  177.8770  149.0330 C   0  0  0  0  0  1  0  0  0  0  0  0
  189.2050  178.1590  148.4260 O   0  0  0  0  0  0  0  0  0  0  0  0
  190.6650  176.3680  143.2170 C   0  0  0  0  0  0  0  0  0  0  0  0
  190.3040  175.2180  142.8440 O   0  0  0  0  0  0  0  0  0  0  0  0
  191.2060  177.4340  141.0720 C   0  0  0  0  0  3  0  0  0  0  0  0
  191.4250  177.2160  142.3370 N   0  0  0  0  0  0  0  0  0  0  0  0
  190.1240  176.7720  140.2800 C   0  0  0  0  0  2  0  0  0  0  0  0
  188.9620  177.7300  140.0970 C   0  0  0  0  0  2  0  0  0  0  0  0
  188.5170  177.2300  137.8140 O   0  0  0  0  0  0  0  0  0  0  0  0
  189.0310  179.4180  138.2650 O   0  0  0  0  0  1  0  0  0  0  0  0
  188.8330  178.1020  138.6630 C   0  0  0  0  0  0  0  0  0  0  0  0
  185.0300  179.3140  144.3830 C   0  0  2  0  0  3  0  0  0  0  0  0
  184.1170  178.1520  146.4090 O   0  0  0  0  0  0  0  0  0  0  0  0
  185.0620  179.0040  145.8470 C   0  0  0  0  0  0  0  0  0  0  0  0
  185.9580  179.5050  146.5750 O   0  0  0  0  0  1  0  0  0  0  0  0
  183.6390  179.8200  144.0110 C   0  0  0  0  0  2  0  0  0  0  0  0
  183.0470  178.9730  142.9000 C   0  0  0  0  0  2  0  0  0  0  0  0
  180.7770  178.4560  142.0330 C   0  0  2  0  0  3  0  0  0  0  0  0
  180.8580  179.7570  142.6960 C   0  0  0  0  0  2  0  0  0  0  0  0
  181.6610  178.6420  143.2200 N   0  0  0  0  0  0  0  0  0  0  0  0
  180.6260  178.7420  139.5270 C   0  0  1  0  0  3  0  0  0  0  0  0
  181.4980  178.4190  140.6730 C   0  0  1  0  0  0  0  0  0  0  0  0
  182.3770  177.1620  138.7910 C   0  0  0  0  0  2  0  0  0  0  0  0
  181.6380  179.6290  139.9690 O   0  0  0  0  0  0  0  0  0  0  0  0
  182.4560  177.3060  140.2960 C   0  0  0  0  0  2  0  0  0  0  0  0
  181.1100  177.8920  138.3420 C   0  0  2  0  0  0  0  0  0  0  0  0
  181.4670  178.8360  137.1970 C   0  0  0  0  0  1  0  0  0  0  0  0
  180.5550  175.7010  137.3290 C   0  0  0  0  0  2  0  0  0  0  0  0
  179.6030  174.4040  139.1130 O   0  0  0  0  0  0  0  0  0  0  0  0
  180.7900  174.6330  138.4020 C   0  0  0  0  0  2  0  0  0  0  0  0
  180.0400  176.9600  137.9070 N   0  0  0  0  0  0  0  0  0  0  0  0
  179.3720  175.5650  139.8640 C   0  0  0  0  0  2  0  0  0  0  0  0
  179.0000  176.7210  138.9300 C   0  0  0  0  0  2  0  0  0  0  0  0
  2  1  1  6  0  0  0
  2  3  1  0  0  0  0
  2 23  1  0  0  0  0
  3  4  2  0  0  0  0
  5  3  1  0  0  0  0
  5  9  1  0  0  0  0
  6  9  2  0  0  0  0
  6  8  1  0  0  0  0
  7 13  1  0  0  0  0
  8 11  2  0  0  0  0
  9 10  1  0  0  0  0
 10  7  2  0  0  0  0
 11  7  1  0  0  0  0
 13 12  1  0  0  0  0
 14  6  1  0  0  0  0
 15 14  2  0  0  0  0
 16 17  2  0  0  0  0
 17 14  1  0  0  0  0
 18 16  1  0  0  0  0
 19 18  1  0  0  0  0
 20 22  2  0  0  0  0
 21 22  1  0  0  0  0
 22 19  1  0  0  0  0
 23 27  1  6  0  0  0
 23 25  1  0  0  0  0
 25 24  2  0  0  0  0
 25 26  1  0  0  0  0
 28 31  1  0  0  0  0
 28 27  1  0  0  0  0
 29 30  1  6  0  0  0
 29 31  1  0  0  0  0
 30 31  1  0  0  0  0
 32 35  1  6  0  0  0
 32 33  1  0  0  0  0
 33 36  1  6  0  0  0
 33 29  1  0  0  0  0
 34 36  1  0  0  0  0
 35 33  1  0  0  0  0
 37 38  1  6  0  0  0
 37 34  1  0  0  0  0
 37 32  1  0  0  0  0
 39 42  1  0  0  0  0
 39 41  1  0  0  0  0
 40 43  1  0  0  0  0
 41 40  1  0  0  0  0
 42 37  1  0  0  0  0
 42 44  1  0  0  0  0
 44 43  1  0  0  0  0
M  END
>  <MODEL>
9

>  <REMARK>
 VINA RESULT:      -6.7      2.216      5.763
  Name = 
  16 active torsions:
  status: ('A' for Active; 'I' for Inactive)
    1  A    between atoms: C_1  and  C_21
    2  A    between atoms: C_4  and  C_37
    3  A    between atoms: C_4  and  C_43
    4  A    between atoms: C_6  and  C_27
    5  A    between atoms: C_7  and  C_9
    6  A    between atoms: C_8  and  O_33
    7  A    between atoms: N_17  and  C_34
    8  A    between atoms: C_19  and  C_43
    9  A    between atoms: C_21  and  N_23
   10  A    between atoms: C_24  and  C_28
   11  A    between atoms: C_24  and  C_43
   12  A    between atoms: C_25  and  C_38
   13  A    between atoms: C_27  and  C_36
   14  A    between atoms: C_28  and  C_38
   15  A    between atoms: N_31  and  C_37
   16  A    between atoms: C_36  and  C_40
                            x       y       z     vdW  Elec       q    Type
                         _______ _______ _______ _____ _____    ______ ____

>  <TORSDO>
F 16

$$$$
