=
 OpenBabel11032420173D

 64 70  0  0  1  0  0  0  0  0999 V2000
  189.8440  177.1630  144.5520 C   0  0  1  0  0  3  0  0  0  0  0  0
  190.7260  179.3840  144.3510 O   0  0  0  0  0  0  0  0  0  0  0  0
  190.0840  178.5540  145.0480 C   0  0  0  0  0  0  0  0  0  0  0  0
  189.5630  178.9420  146.2740 O   0  0  0  0  0  1  0  0  0  0  0  0
  190.9540  176.1980  144.9660 C   0  0  0  0  0  2  0  0  0  0  0  0
  191.6640  175.5880  143.7650 C   0  0  0  0  0  2  0  0  0  0  0  0
  190.1330  176.1950  141.8980 N   0  0  0  0  0  0  0  0  0  0  0  0
  192.1230  177.2550  141.9680 N   0  0  0  0  0  2  0  0  0  0  0  0
  191.3110  176.3410  142.5320 C   0  0  0  0  0  0  0  0  0  0  0  0
  191.4360  177.7120  140.9050 C   0  0  0  0  0  3  0  0  0  0  0  0
  190.2220  177.0550  140.8680 C   0  0  0  0  0  0  0  0  0  0  0  0
  189.1340  177.2510  139.8870 C   0  0  0  0  0  0  0  0  0  0  0  0
  188.1380  178.2320  140.1120 N   0  0  0  0  0  2  0  0  0  0  0  0
  187.8050  176.9730  137.9270 C   0  0  2  0  0  3  0  0  0  0  0  0
  186.8900  178.2460  138.8680 S   0  0  0  0  0  0  0  0  0  0  0  0
  188.9730  176.5540  138.7670 C   0  0  0  0  0  0  0  0  0  0  0  0
  189.8360  175.4740  138.3940 N   0  0  0  0  0  2  0  0  0  0  0  0
  195.5640  174.1990  137.3040 C   0  0  0  0  0  2  0  0  0  0  0  0
  196.0050  173.1170  138.2950 C   0  0  0  0  0  2  0  0  0  0  0  0
  192.8280  176.3640  137.9560 C   0  0  0  0  0  2  0  0  0  0  0  0
  194.8180  171.5000  136.9920 C   0  0  0  0  0  2  0  0  0  0  0  0
  192.1650  174.0360  135.7590 C   0  0  0  0  0  2  0  0  0  0  0  0
  194.1160  174.3800  137.3140 N   0  0  1  0  0  0  0  0  0  0  0  0
  190.5820  175.4480  137.1440 C   0  0  1  0  0  3  0  0  0  0  0  0
  193.4960  172.0880  136.5200 C   0  0  0  0  0  2  0  0  0  0  0  0
  191.5820  176.6080  137.1140 C   0  0  0  0  0  2  0  0  0  0  0  0
  191.2180  174.0690  136.9500 C   0  0  0  0  0  2  0  0  0  0  0  0
  195.0920  171.9750  138.3440 N   0  0  0  0  0  2  0  0  0  0  0  0
  193.9370  175.8100  137.0740 C   0  0  0  0  0  2  0  0  0  0  0  0
  193.5710  173.5880  136.1870 C   0  0  1  0  0  3  0  0  0  0  0  0
  188.2840  177.5530  136.6830 N   0  0  0  0  0  2  0  0  0  0  0  0
  187.1430  177.6560  135.7910 C   0  0  0  0  0  2  0  0  0  0  0  0
  186.3970  176.0260  135.5800 P   0  0  0  0  0  2  0  0  0  0  0  0
  187.2030  174.8070  135.9670 O   0  0  0  0  0  1  0  0  0  0  0  0
  184.9090  175.7180  134.5940 C   0  0  0  0  0 15  0  0  0  0  0  0
  187.4290  177.0550  134.6230 O   0  0  0  0  0  0  0  0  0  0  0  0
  188.5410  176.6700  144.9810 N   0  0  0  0  0  2  0  0  0  0  0  0
  185.8030  178.1340  142.8660 N   0  0  0  0  0  2  0  0  0  0  0  0
  186.6370  177.8920  144.0000 C   0  0  0  0  0  0  0  0  0  0  0  0
  186.4780  178.5510  145.0640 O   0  0  0  0  0  0  0  0  0  0  0  0
  187.6490  176.8890  143.9220 N   0  0  0  0  0  2  0  0  0  0  0  0
  184.6980  179.0820  142.8850 C   0  0  0  0  0  2  0  0  0  0  0  0
  183.4800  178.4240  143.3770 N   0  0  0  0  0  2  0  0  0  0  0  0
  182.3100  178.9830  142.8060 N   0  0  0  0  0  0  0  0  0  0  0  0
  181.1270  178.5490  143.5420 C   0  0  0  0  0  1  0  0  0  0  0  0
  182.1900  178.5710  141.4100 C   0  0  0  0  0  2  0  0  0  0  0  0
  180.7810  178.8370  140.9080 C   0  0  0  0  0  2  0  0  0  0  0  0
  180.9990  176.4970  140.4060 O   0  0  0  0  0  0  0  0  0  0  0  0
  180.3860  175.4170  138.3610 C   0  0  0  0  0  2  0  0  0  0  0  0
  179.8480  176.7300  137.7830 C   0  0  1  0  0  3  0  0  0  0  0  0
  181.6140  178.3270  138.1770 O   0  0  0  0  0  0  0  0  0  0  0  0
  180.3160  177.9490  138.5940 C   0  0  2  0  0  3  0  0  0  0  0  0
  181.5490  178.9650  136.9500 N   0  0  2  0  0  0  0  0  0  0  0  0
  180.2650  175.4220  139.8820 C   0  0  0  0  0  2  0  0  0  0  0  0
  179.4310  179.1640  135.7650 C   0  0  0  0  0  2  0  0  0  0  0  0
  180.2630  177.6550  140.1000 C   0  0  2  0  0  3  0  0  0  0  0  0
  181.0640  180.3490  137.0570 C   0  0  1  0  0  3  0  0  0  0  0  0
  180.3350  176.8540  136.3410 C   0  0  2  0  0  3  0  0  0  0  0  0
  180.6770  178.3020  135.9540 C   0  0  2  0  0  3  0  0  0  0  0  0
  179.4010  176.3030  135.4600 O   0  0  0  0  0  1  0  0  0  0  0  0
  179.5990  180.3540  136.6830 C   0  0  0  0  0  2  0  0  0  0  0  0
  181.3100  181.0020  138.4130 C   0  0  1  0  0  3  0  0  0  0  0  0
  181.5000  182.4480  138.2280 N   0  0  0  0  0  2  0  0  0  0  0  0
  180.2210  181.9210  138.7250 C   0  0  0  0  0  2  0  0  0  0  0  0
  1  5  1  1  0  0  0
  1 37  1  0  0  0  0
  1  3  1  0  0  0  0
  2  3  2  0  0  0  0
  3  4  1  0  0  0  0
  6  5  1  0  0  0  0
  7  9  2  0  0  0  0
  8  9  1  0  0  0  0
  9  6  1  0  0  0  0
 10  8  1  0  0  0  0
 11 10  2  0  0  0  0
 11  7  1  0  0  0  0
 12 13  1  0  0  0  0
 12 11  1  0  0  0  0
 14 31  1  6  0  0  0
 14 16  1  0  0  0  0
 14 15  1  0  0  0  0
 15 13  1  0  0  0  0
 16 12  2  0  0  0  0
 17 16  1  0  0  0  0
 18 23  1  0  0  0  0
 18 19  1  0  0  0  0
 19 28  1  0  0  0  0
 21 28  1  0  0  0  0
 22 27  1  0  0  0  0
 23 29  1  6  0  0  0
 24 17  1  1  0  0  0
 25 21  1  0  0  0  0
 26 24  1  0  0  0  0
 26 20  1  0  0  0  0
 27 24  1  0  0  0  0
 29 20  1  0  0  0  0
 30 22  1  1  0  0  0
 30 25  1  0  0  0  0
 30 23  1  0  0  0  0
 32 31  1  0  0  0  0
 33 34  1  0  0  0  0
 36 33  1  0  0  0  0
 36 32  1  0  0  0  0
 38 42  1  0  0  0  0
 38 39  1  0  0  0  0
 39 40  2  0  0  0  0
 41 39  1  0  0  0  0
 41 37  1  0  0  0  0
 42 43  1  0  0  0  0
 44 43  1  0  0  0  0
 44 45  1  0  0  0  0
 46 44  1  0  0  0  0
 47 46  1  0  0  0  0
 49 54  1  0  0  0  0
 50 49  1  1  0  0  0
 50 52  1  0  0  0  0
 52 51  1  6  0  0  0
 52 56  1  0  0  0  0
 53 57  1  0  0  0  0
 53 51  1  1  0  0  0
 54 48  1  0  0  0  0
 55 61  1  0  0  0  0
 56 48  1  0  0  0  0
 56 47  1  1  0  0  0
 57 61  1  1  0  0  0
 57 62  1  0  0  0  0
 58 60  1  6  0  0  0
 58 50  1  0  0  0  0
 59 55  1  1  0  0  0
 59 58  1  0  0  0  0
 59 53  1  0  0  0  0
 62 64  1  1  0  0  0
 63 62  1  0  0  0  0
 63 64  1  0  0  0  0
M  END
>  <MODEL>
1

>  <REMARK>
 VINA RESULT:      -6.5      0.000      0.000
  Name = 
  18 active torsions:
  status: ('A' for Active; 'I' for Inactive)
    1  A    between atoms: C_1  and  C_41
    2  A    between atoms: C_1  and  C_47
    3  A    between atoms: C_2  and  C_53
    4  A    between atoms: C_5  and  C_64
    5  A    between atoms: C_8  and  N_28
    6  A    between atoms: C_9  and  N_23
    7  A    between atoms: C_9  and  N_42
    8  A    between atoms: C_22  and  C_39
    9  A    between atoms: C_22  and  N_40
   10  A    between atoms: C_22  and  C_47
   11  A    between atoms: N_28  and  C_38
   12  A    between atoms: C_29  and  N_33
   13  A    between atoms: N_33  and  C_61
   14  A    between atoms: N_34  and  N_40
   15  A    between atoms: N_42  and  N_44
   16  A    between atoms: C_43  and  N_44
   17  A    between atoms: C_43  and  C_60
   18  A    between atoms: C_51  and  C_60
                            x       y       z     vdW  Elec       q    Type
                         _______ _______ _______ _____ _____    ______ ____

>  <TORSDO>
F 18

$$$$
=
 OpenBabel11032420173D

 64 70  0  0  1  0  0  0  0  0999 V2000
  191.7690  177.5720  144.0890 C   0  0  1  0  0  3  0  0  0  0  0  0
  191.0210  175.5250  145.0890 O   0  0  0  0  0  0  0  0  0  0  0  0
  191.5900  176.6370  145.2430 C   0  0  0  0  0  0  0  0  0  0  0  0
  192.0890  176.9880  146.4910 O   0  0  0  0  0  1  0  0  0  0  0  0
  191.5230  176.8890  142.7450 C   0  0  0  0  0  2  0  0  0  0  0  0
  191.7120  177.8420  141.5730 C   0  0  0  0  0  2  0  0  0  0  0  0
  192.2790  176.9510  139.3190 N   0  0  0  0  0  0  0  0  0  0  0  0
  190.1620  176.6390  140.0340 N   0  0  0  0  0  2  0  0  0  0  0  0
  191.3790  177.1520  140.2980 C   0  0  0  0  0  0  0  0  0  0  0  0
  190.2820  176.0900  138.8100 C   0  0  0  0  0  3  0  0  0  0  0  0
  191.5800  176.2890  138.3800 C   0  0  0  0  0  0  0  0  0  0  0  0
  192.1720  175.8380  137.1040 C   0  0  0  0  0  0  0  0  0  0  0  0
  193.3240  176.4780  136.5860 N   0  0  0  0  0  2  0  0  0  0  0  0
  192.5080  174.5730  135.1110 C   0  0  2  0  0  3  0  0  0  0  0  0
  193.8180  175.8440  135.0170 S   0  0  0  0  0  0  0  0  0  0  0  0
  191.7020  174.8560  136.3420 C   0  0  0  0  0  0  0  0  0  0  0  0
  190.5080  174.1310  136.6580 N   0  0  0  0  0  2  0  0  0  0  0  0
  184.5750  173.5610  136.9890 C   0  0  0  0  0  2  0  0  0  0  0  0
  184.0490  174.6410  137.9400 C   0  0  0  0  0  2  0  0  0  0  0  0
  187.9230  172.3880  137.1240 C   0  0  0  0  0  2  0  0  0  0  0  0
  184.3560  176.2580  136.2060 C   0  0  0  0  0  2  0  0  0  0  0  0
  187.3270  174.3710  134.5940 C   0  0  0  0  0  2  0  0  0  0  0  0
  185.9720  173.7900  136.6360 N   0  0  1  0  0  0  0  0  0  0  0  0
  189.5350  173.7240  135.6540 C   0  0  1  0  0  3  0  0  0  0  0  0
  185.6570  175.9810  135.4670 C   0  0  0  0  0  2  0  0  0  0  0  0
  188.9660  172.3470  136.0140 C   0  0  0  0  0  2  0  0  0  0  0  0
  188.4750  174.8160  135.4890 C   0  0  0  0  0  2  0  0  0  0  0  0
  184.5470  175.9790  137.6240 N   0  0  0  0  0  2  0  0  0  0  0  0
  186.5310  172.4460  136.5120 C   0  0  0  0  0  2  0  0  0  0  0  0
  185.9820  174.4840  135.3270 C   0  0  1  0  0  3  0  0  0  0  0  0
  193.1240  173.2610  135.2240 N   0  0  0  0  0  2  0  0  0  0  0  0
  193.9160  173.2630  136.4410 C   0  0  0  0  0  2  0  0  0  0  0  0
  195.3930  172.2540  136.1990 P   0  0  0  0  0  2  0  0  0  0  0  0
  195.4220  171.2840  135.0380 O   0  0  0  0  0  1  0  0  0  0  0  0
  196.6850  172.0390  137.4500 C   0  0  0  0  0 15  0  0  0  0  0  0
  193.8650  172.0490  137.0140 O   0  0  0  0  0  0  0  0  0  0  0  0
  190.9280  178.7530  144.2340 N   0  0  0  0  0  2  0  0  0  0  0  0
  187.8790  177.4890  146.0270 N   0  0  0  0  0  2  0  0  0  0  0  0
  188.7610  177.8240  144.9550 C   0  0  0  0  0  0  0  0  0  0  0  0
  188.4490  177.5570  143.7620 O   0  0  0  0  0  0  0  0  0  0  0  0
  189.9970  178.4760  145.2450 N   0  0  0  0  0  2  0  0  0  0  0  0
  186.5660  176.8970  145.8160 C   0  0  0  0  0  2  0  0  0  0  0  0
  185.8680  177.5950  144.7290 N   0  0  0  0  0  2  0  0  0  0  0  0
  185.1410  178.7160  145.2010 N   0  0  0  0  0  0  0  0  0  0  0  0
  185.2250  178.8000  146.6560 C   0  0  0  0  0  1  0  0  0  0  0  0
  183.7410  178.6080  144.8010 C   0  0  0  0  0  2  0  0  0  0  0  0
  183.4550  179.5570  143.6500 C   0  0  0  0  0  2  0  0  0  0  0  0
  184.7890  179.6970  141.6560 O   0  0  0  0  0  0  0  0  0  0  0  0
  184.2590  178.7600  139.5190 C   0  0  0  0  0  2  0  0  0  0  0  0
  182.9750  178.1300  140.0700 C   0  0  1  0  0  3  0  0  0  0  0  0
  181.8790  179.9310  141.2430 O   0  0  0  0  0  0  0  0  0  0  0  0
  182.5860  178.7210  141.4350 C   0  0  2  0  0  3  0  0  0  0  0  0
  180.5910  179.6630  140.8100 N   0  0  2  0  0  0  0  0  0  0  0  0
  185.3000  178.8900  140.6270 C   0  0  0  0  0  2  0  0  0  0  0  0
  179.8880  177.3790  140.3450 C   0  0  0  0  0  2  0  0  0  0  0  0
  183.8260  178.9170  142.3190 C   0  0  2  0  0  3  0  0  0  0  0  0
  179.7140  179.1980  141.8950 C   0  0  1  0  0  3  0  0  0  0  0  0
  181.8520  178.3720  139.0640 C   0  0  2  0  0  3  0  0  0  0  0  0
  180.4980  178.6410  139.7420 C   0  0  2  0  0  3  0  0  0  0  0  0
  181.7630  177.3080  138.1640 O   0  0  0  0  0  1  0  0  0  0  0  0
  179.6260  177.6910  141.8020 C   0  0  0  0  0  2  0  0  0  0  0  0
  180.1310  179.6610  143.2870 C   0  0  1  0  0  3  0  0  0  0  0  0
  178.9340  180.0550  144.0440 N   0  0  0  0  0  2  0  0  0  0  0  0
  179.5810  178.7600  144.2930 C   0  0  0  0  0  2  0  0  0  0  0  0
  1  5  1  6  0  0  0
  1 37  1  0  0  0  0
  1  3  1  0  0  0  0
  2  3  2  0  0  0  0
  3  4  1  0  0  0  0
  6  5  1  0  0  0  0
  7  9  2  0  0  0  0
  8  9  1  0  0  0  0
  9  6  1  0  0  0  0
 10  8  1  0  0  0  0
 11 10  2  0  0  0  0
 11  7  1  0  0  0  0
 12 11  1  0  0  0  0
 13 12  1  0  0  0  0
 14 31  1  1  0  0  0
 14 16  1  0  0  0  0
 15 14  1  0  0  0  0
 15 13  1  0  0  0  0
 16 17  1  0  0  0  0
 16 12  2  0  0  0  0
 18 19  1  0  0  0  0
 21 28  1  0  0  0  0
 22 27  1  0  0  0  0
 23 29  1  6  0  0  0
 23 18  1  0  0  0  0
 24 26  1  0  0  0  0
 24 17  1  1  0  0  0
 25 21  1  0  0  0  0
 26 20  1  0  0  0  0
 27 24  1  0  0  0  0
 28 19  1  0  0  0  0
 29 20  1  0  0  0  0
 30 22  1  1  0  0  0
 30 25  1  0  0  0  0
 30 23  1  0  0  0  0
 31 32  1  0  0  0  0
 32 36  1  0  0  0  0
 33 36  1  0  0  0  0
 34 33  1  0  0  0  0
 37 41  1  0  0  0  0
 39 41  1  0  0  0  0
 39 38  1  0  0  0  0
 40 39  2  0  0  0  0
 42 38  1  0  0  0  0
 43 44  1  0  0  0  0
 43 42  1  0  0  0  0
 44 45  1  0  0  0  0
 46 44  1  0  0  0  0
 47 46  1  0  0  0  0
 48 56  1  0  0  0  0
 49 54  1  0  0  0  0
 50 49  1  6  0  0  0
 50 52  1  0  0  0  0
 52 51  1  6  0  0  0
 52 56  1  0  0  0  0
 53 51  1  1  0  0  0
 53 57  1  0  0  0  0
 54 48  1  0  0  0  0
 55 61  1  0  0  0  0
 56 47  1  1  0  0  0
 57 61  1  1  0  0  0
 57 62  1  0  0  0  0
 58 60  1  6  0  0  0
 58 59  1  0  0  0  0
 58 50  1  0  0  0  0
 59 55  1  1  0  0  0
 59 53  1  0  0  0  0
 62 63  1  0  0  0  0
 62 64  1  1  0  0  0
 63 64  1  0  0  0  0
M  END
>  <MODEL>
2

>  <REMARK>
 VINA RESULT:      -6.2      3.145      5.937
  Name = 
  18 active torsions:
  status: ('A' for Active; 'I' for Inactive)
    1  A    between atoms: C_1  and  C_41
    2  A    between atoms: C_1  and  C_47
    3  A    between atoms: C_2  and  C_53
    4  A    between atoms: C_5  and  C_64
    5  A    between atoms: C_8  and  N_28
    6  A    between atoms: C_9  and  N_23
    7  A    between atoms: C_9  and  N_42
    8  A    between atoms: C_22  and  C_39
    9  A    between atoms: C_22  and  N_40
   10  A    between atoms: C_22  and  C_47
   11  A    between atoms: N_28  and  C_38
   12  A    between atoms: C_29  and  N_33
   13  A    between atoms: N_33  and  C_61
   14  A    between atoms: N_34  and  N_40
   15  A    between atoms: N_42  and  N_44
   16  A    between atoms: C_43  and  N_44
   17  A    between atoms: C_43  and  C_60
   18  A    between atoms: C_51  and  C_60
                            x       y       z     vdW  Elec       q    Type
                         _______ _______ _______ _____ _____    ______ ____

>  <TORSDO>
F 18

$$$$
=
 OpenBabel11032420173D

 64 70  0  0  1  0  0  0  0  0999 V2000
  191.5880  176.1020  143.1950 C   0  0  1  0  0  3  0  0  0  0  0  0
  191.4390  173.7690  143.7300 O   0  0  0  0  0  0  0  0  0  0  0  0
  191.7970  174.9220  144.0900 C   0  0  0  0  0  0  0  0  0  0  0  0
  192.4240  175.0960  145.3160 O   0  0  0  0  0  1  0  0  0  0  0  0
  190.7300  175.7630  141.9770 C   0  0  0  0  0  2  0  0  0  0  0  0
  189.9800  176.9770  141.4460 C   0  0  0  0  0  2  0  0  0  0  0  0
  191.1910  176.4710  139.3300 N   0  0  0  0  0  0  0  0  0  0  0  0
  189.4100  177.8470  139.1800 N   0  0  0  0  0  2  0  0  0  0  0  0
  190.2010  177.1090  139.9810 C   0  0  0  0  0  0  0  0  0  0  0  0
  189.9270  177.6860  137.9480 C   0  0  0  0  0  3  0  0  0  0  0  0
  191.0190  176.8460  138.0510 C   0  0  0  0  0  0  0  0  0  0  0  0
  191.8830  176.3730  136.9500 C   0  0  0  0  0  0  0  0  0  0  0  0
  193.2920  176.4300  137.0740 N   0  0  0  0  0  2  0  0  0  0  0  0
  192.5380  175.4490  134.8510 C   0  0  2  0  0  3  0  0  0  0  0  0
  194.1350  175.8980  135.6200 S   0  0  0  0  0  0  0  0  0  0  0  0
  191.4550  175.8930  135.7870 C   0  0  0  0  0  0  0  0  0  0  0  0
  190.0670  175.8170  135.4420 N   0  0  0  0  0  2  0  0  0  0  0  0
  184.8280  173.8600  137.5280 C   0  0  0  0  0  2  0  0  0  0  0  0
  183.8850  175.0630  137.6420 C   0  0  0  0  0  2  0  0  0  0  0  0
  188.3600  174.2120  137.5510 C   0  0  0  0  0  2  0  0  0  0  0  0
  183.5940  175.0080  135.2700 C   0  0  0  0  0  2  0  0  0  0  0  0
  187.1240  173.5680  134.5940 C   0  0  0  0  0  2  0  0  0  0  0  0
  186.0340  174.1920  136.7770 N   0  0  1  0  0  0  0  0  0  0  0  0
  189.3690  174.5570  135.2260 C   0  0  1  0  0  3  0  0  0  0  0  0
  184.9250  174.7130  134.5930 C   0  0  0  0  0  2  0  0  0  0  0  0
  189.3740  173.7350  136.5190 C   0  0  0  0  0  2  0  0  0  0  0  0
  187.9720  174.8310  134.6630 C   0  0  0  0  0  2  0  0  0  0  0  0
  183.8290  175.8680  136.4230 N   0  0  0  0  0  2  0  0  0  0  0  0
  187.0800  173.4000  137.4200 C   0  0  0  0  0  2  0  0  0  0  0  0
  185.8170  173.7390  135.3830 C   0  0  1  0  0  3  0  0  0  0  0  0
  192.4770  174.0060  134.6850 N   0  0  0  0  0  2  0  0  0  0  0  0
  193.4610  173.4300  135.5840 C   0  0  0  0  0  2  0  0  0  0  0  0
  193.3250  171.6310  135.5500 P   0  0  0  0  0  2  0  0  0  0  0  0
  192.0660  171.0120  134.9840 O   0  0  0  0  0  1  0  0  0  0  0  0
  194.4110  170.5190  136.4800 C   0  0  0  0  0 15  0  0  0  0  0  0
  192.8400  172.8940  136.6490 O   0  0  0  0  0  0  0  0  0  0  0  0
  191.0230  177.2260  143.9310 N   0  0  0  0  0  2  0  0  0  0  0  0
  187.5580  177.3530  145.3760 N   0  0  0  0  0  2  0  0  0  0  0  0
  188.9250  177.6930  145.1390 C   0  0  0  0  0  0  0  0  0  0  0  0
  189.4450  178.6900  145.7100 O   0  0  0  0  0  0  0  0  0  0  0  0
  189.7020  176.8870  144.2550 N   0  0  0  0  0  2  0  0  0  0  0  0
  186.7160  178.0720  146.3210 C   0  0  0  0  0  2  0  0  0  0  0  0
  185.8330  179.0000  145.6020 N   0  0  0  0  0  2  0  0  0  0  0  0
  184.5260  179.0170  146.1500 N   0  0  0  0  0  0  0  0  0  0  0  0
  184.4580  178.1610  147.3310 C   0  0  0  0  0  1  0  0  0  0  0  0
  183.5620  178.5500  145.1570 C   0  0  0  0  0  2  0  0  0  0  0  0
  183.3960  179.5910  144.0640 C   0  0  0  0  0  2  0  0  0  0  0  0
  181.2660  178.4800  144.0240 O   0  0  0  0  0  0  0  0  0  0  0  0
  179.9470  177.9980  142.0860 C   0  0  0  0  0  2  0  0  0  0  0  0
  180.9560  178.7060  141.1750 C   0  0  1  0  0  3  0  0  0  0  0  0
  183.0920  177.7820  141.8160 O   0  0  0  0  0  0  0  0  0  0  0  0
  182.2970  178.9500  141.8860 C   0  0  2  0  0  3  0  0  0  0  0  0
  183.6100  177.6380  140.5400 N   0  0  2  0  0  0  0  0  0  0  0  0
  179.9780  178.6120  143.4830 C   0  0  0  0  0  2  0  0  0  0  0  0
  182.9900  179.1880  138.7660 C   0  0  0  0  0  2  0  0  0  0  0  0
  182.0720  179.4030  143.3360 C   0  0  2  0  0  3  0  0  0  0  0  0
  184.7350  178.5480  140.2790 C   0  0  1  0  0  3  0  0  0  0  0  0
  181.1800  177.8350  139.9400 C   0  0  2  0  0  3  0  0  0  0  0  0
  182.6360  177.8690  139.4480 C   0  0  2  0  0  3  0  0  0  0  0  0
  180.2940  178.1950  138.9220 O   0  0  0  0  0  1  0  0  0  0  0  0
  184.2030  179.7260  139.4930 C   0  0  0  0  0  2  0  0  0  0  0  0
  185.4930  178.9900  141.5270 C   0  0  1  0  0  3  0  0  0  0  0  0
  186.3240  177.8770  142.0080 N   0  0  0  0  0  2  0  0  0  0  0  0
  186.9270  178.9890  141.2610 C   0  0  0  0  0  2  0  0  0  0  0  0
  1  5  1  6  0  0  0
  1 37  1  0  0  0  0
  1  3  1  0  0  0  0
  2  3  2  0  0  0  0
  3  4  1  0  0  0  0
  6  5  1  0  0  0  0
  7  9  2  0  0  0  0
  8  9  1  0  0  0  0
  9  6  1  0  0  0  0
 10 11  2  0  0  0  0
 10  8  1  0  0  0  0
 11  7  1  0  0  0  0
 12 13  1  0  0  0  0
 12 11  1  0  0  0  0
 14 31  1  1  0  0  0
 14 15  1  0  0  0  0
 14 16  1  0  0  0  0
 15 13  1  0  0  0  0
 16 12  2  0  0  0  0
 17 16  1  0  0  0  0
 18 19  1  0  0  0  0
 21 28  1  0  0  0  0
 22 27  1  0  0  0  0
 22 30  1  0  0  0  0
 23 29  1  1  0  0  0
 23 18  1  0  0  0  0
 24 17  1  1  0  0  0
 24 26  1  0  0  0  0
 25 21  1  0  0  0  0
 26 20  1  0  0  0  0
 27 24  1  0  0  0  0
 28 19  1  0  0  0  0
 29 20  1  0  0  0  0
 30 25  1  6  0  0  0
 30 23  1  0  0  0  0
 31 32  1  0  0  0  0
 32 36  1  0  0  0  0
 33 36  1  0  0  0  0
 34 33  1  0  0  0  0
 37 41  1  0  0  0  0
 38 42  1  0  0  0  0
 39 38  1  0  0  0  0
 39 40  2  0  0  0  0
 41 39  1  0  0  0  0
 43 44  1  0  0  0  0
 43 42  1  0  0  0  0
 44 45  1  0  0  0  0
 46 44  1  0  0  0  0
 47 46  1  0  0  0  0
 49 54  1  0  0  0  0
 50 52  1  0  0  0  0
 50 49  1  1  0  0  0
 52 51  1  1  0  0  0
 52 56  1  0  0  0  0
 53 51  1  1  0  0  0
 54 48  1  0  0  0  0
 55 61  1  0  0  0  0
 56 48  1  0  0  0  0
 56 47  1  1  0  0  0
 57 61  1  1  0  0  0
 57 53  1  0  0  0  0
 57 62  1  0  0  0  0
 58 60  1  6  0  0  0
 58 50  1  0  0  0  0
 59 55  1  1  0  0  0
 59 58  1  0  0  0  0
 59 53  1  0  0  0  0
 62 64  1  6  0  0  0
 62 63  1  0  0  0  0
 64 63  1  0  0  0  0
M  END
>  <MODEL>
3

>  <REMARK>
 VINA RESULT:      -6.2      3.034      5.820
  Name = 
  18 active torsions:
  status: ('A' for Active; 'I' for Inactive)
    1  A    between atoms: C_1  and  C_41
    2  A    between atoms: C_1  and  C_47
    3  A    between atoms: C_2  and  C_53
    4  A    between atoms: C_5  and  C_64
    5  A    between atoms: C_8  and  N_28
    6  A    between atoms: C_9  and  N_23
    7  A    between atoms: C_9  and  N_42
    8  A    between atoms: C_22  and  C_39
    9  A    between atoms: C_22  and  N_40
   10  A    between atoms: C_22  and  C_47
   11  A    between atoms: N_28  and  C_38
   12  A    between atoms: C_29  and  N_33
   13  A    between atoms: N_33  and  C_61
   14  A    between atoms: N_34  and  N_40
   15  A    between atoms: N_42  and  N_44
   16  A    between atoms: C_43  and  N_44
   17  A    between atoms: C_43  and  C_60
   18  A    between atoms: C_51  and  C_60
                            x       y       z     vdW  Elec       q    Type
                         _______ _______ _______ _____ _____    ______ ____

>  <TORSDO>
F 18

$$$$
=
 OpenBabel11032420173D

 64 70  0  0  1  0  0  0  0  0999 V2000
  191.9240  177.4300  144.7400 C   0  0  1  0  0  3  0  0  0  0  0  0
  191.8230  175.2110  145.6430 O   0  0  0  0  0  0  0  0  0  0  0  0
  191.8270  176.4510  145.8660 C   0  0  0  0  0  0  0  0  0  0  0  0
  191.7780  176.9150  147.1730 O   0  0  0  0  0  1  0  0  0  0  0  0
  191.7080  176.7740  143.3770 C   0  0  0  0  0  2  0  0  0  0  0  0
  191.2740  177.7760  142.3180 C   0  0  0  0  0  2  0  0  0  0  0  0
  190.6160  176.6200  140.2130 N   0  0  0  0  0  0  0  0  0  0  0  0
  192.7490  177.3410  140.3550 N   0  0  0  0  0  2  0  0  0  0  0  0
  191.5510  177.2330  140.9610 C   0  0  0  0  0  0  0  0  0  0  0  0
  192.5780  176.7530  139.1560 C   0  0  0  0  0  3  0  0  0  0  0  0
  191.2720  176.3120  139.0810 C   0  0  0  0  0  0  0  0  0  0  0  0
  190.6290  175.6270  137.9400 C   0  0  0  0  0  0  0  0  0  0  0  0
  189.4250  174.9070  138.1260 N   0  0  0  0  0  2  0  0  0  0  0  0
  190.2380  174.8590  135.7170 C   0  0  2  0  0  3  0  0  0  0  0  0
  188.8710  174.0960  136.6620 S   0  0  0  0  0  0  0  0  0  0  0  0
  191.0980  175.5970  136.6970 C   0  0  0  0  0  0  0  0  0  0  0  0
  192.3380  176.2070  136.3200 N   0  0  0  0  0  2  0  0  0  0  0  0
  198.1630  174.9200  136.1220 C   0  0  0  0  0  2  0  0  0  0  0  0
  198.5700  174.3610  137.4890 C   0  0  0  0  0  2  0  0  0  0  0  0
  195.3230  177.0070  135.6990 C   0  0  0  0  0  2  0  0  0  0  0  0
  197.5240  172.2910  136.9080 C   0  0  0  0  0  2  0  0  0  0  0  0
  194.8800  173.9540  134.6190 C   0  0  0  0  0  2  0  0  0  0  0  0
  196.7120  175.0090  135.9880 N   0  0  1  0  0  0  0  0  0  0  0  0
  193.1660  175.7160  135.2270 C   0  0  1  0  0  3  0  0  0  0  0  0
  196.2180  172.5610  136.1740 C   0  0  0  0  0  2  0  0  0  0  0  0
  194.1290  176.8180  134.7720 C   0  0  0  0  0  2  0  0  0  0  0  0
  193.8550  174.4160  135.6460 C   0  0  0  0  0  2  0  0  0  0  0  0
  197.6930  173.2890  137.9570 N   0  0  0  0  0  2  0  0  0  0  0  0
  196.5050  176.2050  135.1750 C   0  0  0  0  0  2  0  0  0  0  0  0
  196.2680  173.7980  135.2590 C   0  0  1  0  0  3  0  0  0  0  0  0
  189.6850  175.7960  134.7520 N   0  0  0  0  0  2  0  0  0  0  0  0
  189.4350  177.0400  135.4580 C   0  0  0  0  0  2  0  0  0  0  0  0
  187.6570  177.3380  135.5380 P   0  0  0  0  0  2  0  0  0  0  0  0
  186.7530  176.5720  134.5990 O   0  0  0  0  0  1  0  0  0  0  0  0
  186.9080  178.7520  136.3890 C   0  0  0  0  0 15  0  0  0  0  0  0
  188.9820  177.9650  134.5950 O   0  0  0  0  0  0  0  0  0  0  0  0
  191.0040  178.5440  144.9310 N   0  0  0  0  0  2  0  0  0  0  0  0
  187.6740  177.2980  146.1430 N   0  0  0  0  0  2  0  0  0  0  0  0
  188.6660  177.8340  145.2680 C   0  0  0  0  0  0  0  0  0  0  0  0
  188.3880  178.0890  144.0640 O   0  0  0  0  0  0  0  0  0  0  0  0
  189.9770  178.0920  145.7710 N   0  0  0  0  0  2  0  0  0  0  0  0
  186.2930  177.0790  145.7360 C   0  0  0  0  0  2  0  0  0  0  0  0
  186.0160  177.8070  144.4900 N   0  0  0  0  0  2  0  0  0  0  0  0
  184.9790  178.7580  144.6530 N   0  0  0  0  0  0  0  0  0  0  0  0
  184.6230  178.8860  146.0630 C   0  0  0  0  0  1  0  0  0  0  0  0
  183.8030  178.3500  143.8910 C   0  0  0  0  0  2  0  0  0  0  0  0
  183.5600  179.3230  142.7490 C   0  0  0  0  0  2  0  0  0  0  0  0
  184.6910  179.4880  140.6350 O   0  0  0  0  0  0  0  0  0  0  0  0
  184.0380  178.4400  138.5850 C   0  0  0  0  0  2  0  0  0  0  0  0
  182.8610  177.7390  139.2730 C   0  0  1  0  0  3  0  0  0  0  0  0
  181.7450  179.4970  140.4920 O   0  0  0  0  0  0  0  0  0  0  0  0
  182.5560  178.3490  140.6510 C   0  0  2  0  0  3  0  0  0  0  0  0
  180.4470  179.1220  140.1910 N   0  0  2  0  0  0  0  0  0  0  0  0
  185.1630  178.6840  139.5860 C   0  0  0  0  0  2  0  0  0  0  0  0
  179.8780  176.7770  139.8590 C   0  0  0  0  0  2  0  0  0  0  0  0
  183.8540  178.6650  141.4080 C   0  0  2  0  0  3  0  0  0  0  0  0
  179.7110  178.6320  141.3660 C   0  0  1  0  0  3  0  0  0  0  0  0
  181.6350  177.8640  138.3710 C   0  0  2  0  0  3  0  0  0  0  0  0
  180.3340  178.0580  139.1660 C   0  0  2  0  0  3  0  0  0  0  0  0
  181.5440  176.7650  137.5140 O   0  0  0  0  0  1  0  0  0  0  0  0
  179.7280  177.1210  141.3250 C   0  0  0  0  0  2  0  0  0  0  0  0
  180.2180  179.1740  142.6990 C   0  0  1  0  0  3  0  0  0  0  0  0
  179.3440  180.2700  143.1400 N   0  0  0  0  0  2  0  0  0  0  0  0
  179.2250  178.9340  143.7400 C   0  0  0  0  0  2  0  0  0  0  0  0
  1  5  1  6  0  0  0
  1 37  1  0  0  0  0
  1  3  1  0  0  0  0
  2  3  2  0  0  0  0
  3  4  1  0  0  0  0
  6  5  1  0  0  0  0
  7  9  2  0  0  0  0
  8  9  1  0  0  0  0
  9  6  1  0  0  0  0
 10  8  1  0  0  0  0
 11 10  2  0  0  0  0
 11  7  1  0  0  0  0
 12 13  1  0  0  0  0
 12 11  1  0  0  0  0
 14 31  1  6  0  0  0
 14 15  1  0  0  0  0
 14 16  1  0  0  0  0
 15 13  1  0  0  0  0
 16 12  2  0  0  0  0
 17 16  1  0  0  0  0
 18 19  1  0  0  0  0
 19 28  1  0  0  0  0
 21 28  1  0  0  0  0
 22 27  1  0  0  0  0
 23 29  1  6  0  0  0
 23 18  1  0  0  0  0
 24 27  1  0  0  0  0
 24 17  1  1  0  0  0
 25 21  1  0  0  0  0
 26 24  1  0  0  0  0
 26 20  1  0  0  0  0
 29 20  1  0  0  0  0
 30 22  1  1  0  0  0
 30 23  1  0  0  0  0
 30 25  1  0  0  0  0
 31 32  1  0  0  0  0
 34 33  1  0  0  0  0
 36 32  1  0  0  0  0
 36 33  1  0  0  0  0
 37 41  1  0  0  0  0
 39 41  1  0  0  0  0
 39 38  1  0  0  0  0
 40 39  2  0  0  0  0
 42 38  1  0  0  0  0
 43 44  1  0  0  0  0
 43 42  1  0  0  0  0
 44 45  1  0  0  0  0
 46 44  1  0  0  0  0
 47 46  1  0  0  0  0
 48 56  1  0  0  0  0
 49 54  1  0  0  0  0
 50 49  1  6  0  0  0
 50 52  1  0  0  0  0
 52 51  1  6  0  0  0
 52 56  1  0  0  0  0
 53 51  1  1  0  0  0
 53 57  1  0  0  0  0
 54 48  1  0  0  0  0
 55 61  1  0  0  0  0
 56 47  1  1  0  0  0
 57 61  1  1  0  0  0
 57 62  1  0  0  0  0
 58 60  1  1  0  0  0
 58 59  1  0  0  0  0
 58 50  1  0  0  0  0
 59 55  1  1  0  0  0
 59 53  1  0  0  0  0
 62 63  1  0  0  0  0
 62 64  1  1  0  0  0
 63 64  1  0  0  0  0
M  END
>  <MODEL>
4

>  <REMARK>
 VINA RESULT:      -5.9      2.302      3.475
  Name = 
  18 active torsions:
  status: ('A' for Active; 'I' for Inactive)
    1  A    between atoms: C_1  and  C_41
    2  A    between atoms: C_1  and  C_47
    3  A    between atoms: C_2  and  C_53
    4  A    between atoms: C_5  and  C_64
    5  A    between atoms: C_8  and  N_28
    6  A    between atoms: C_9  and  N_23
    7  A    between atoms: C_9  and  N_42
    8  A    between atoms: C_22  and  C_39
    9  A    between atoms: C_22  and  N_40
   10  A    between atoms: C_22  and  C_47
   11  A    between atoms: N_28  and  C_38
   12  A    between atoms: C_29  and  N_33
   13  A    between atoms: N_33  and  C_61
   14  A    between atoms: N_34  and  N_40
   15  A    between atoms: N_42  and  N_44
   16  A    between atoms: C_43  and  N_44
   17  A    between atoms: C_43  and  C_60
   18  A    between atoms: C_51  and  C_60
                            x       y       z     vdW  Elec       q    Type
                         _______ _______ _______ _____ _____    ______ ____

>  <TORSDO>
F 18

$$$$
=
 OpenBabel11032420173D

 64 70  0  0  1  0  0  0  0  0999 V2000
  181.3040  178.4180  142.0380 C   0  0  1  0  0  3  0  0  0  0  0  0
  179.1740  179.5100  142.1740 O   0  0  0  0  0  0  0  0  0  0  0  0
  179.8860  178.5240  142.5010 C   0  0  0  0  0  0  0  0  0  0  0  0
  179.3390  177.5060  143.2700 O   0  0  0  0  0  1  0  0  0  0  0  0
  181.4330  177.6410  140.7300 C   0  0  0  0  0  2  0  0  0  0  0  0
  181.7590  178.5470  139.5510 C   0  0  0  0  0  2  0  0  0  0  0  0
  182.3090  176.4290  138.3640 N   0  0  0  0  0  0  0  0  0  0  0  0
  181.8050  178.2150  137.0800 N   0  0  0  0  0  2  0  0  0  0  0  0
  181.9700  177.7310  138.3260 C   0  0  0  0  0  0  0  0  0  0  0  0
  182.0660  177.1700  136.2720 C   0  0  0  0  0  3  0  0  0  0  0  0
  182.3770  176.0840  137.0660 C   0  0  0  0  0  0  0  0  0  0  0  0
  182.7100  174.7180  136.6130 C   0  0  0  0  0  0  0  0  0  0  0  0
  181.6810  173.8100  136.2650 N   0  0  0  0  0  0  0  0  0  0  0  0
  184.0050  172.8140  135.9950 C   0  0  2  0  0  3  0  0  0  0  0  0
  182.2860  172.2120  135.8340 S   0  0  0  0  0  0  0  0  0  0  0  0
  183.9380  174.2180  136.5110 C   0  0  2  0  0  3  0  0  0  0  0  0
  185.1090  174.9560  136.8810 N   0  0  0  0  0  2  0  0  0  0  0  0
  190.3700  177.7460  137.2770 C   0  0  0  0  0  2  0  0  0  0  0  0
  191.3860  176.7590  137.8640 C   0  0  0  0  0  2  0  0  0  0  0  0
  186.8760  177.4000  137.7970 C   0  0  0  0  0  2  0  0  0  0  0  0
  191.4930  175.6710  135.7380 C   0  0  0  0  0  2  0  0  0  0  0  0
  187.8460  176.5600  134.7900 C   0  0  0  0  0  2  0  0  0  0  0  0
  189.1310  177.0780  136.8930 N   0  0  1  0  0  0  0  0  0  0  0  0
  185.7160  175.9660  136.0250 C   0  0  1  0  0  3  0  0  0  0  0  0
  190.1000  175.5860  135.1310 C   0  0  0  0  0  2  0  0  0  0  0  0
  185.7620  177.3080  136.7620 C   0  0  0  0  0  2  0  0  0  0  0  0
  187.0790  175.4740  135.5330 C   0  0  0  0  0  2  0  0  0  0  0  0
  191.3950  175.4680  137.1790 N   0  0  0  0  0  2  0  0  0  0  0  0
  188.0940  178.0670  137.1740 C   0  0  0  0  0  2  0  0  0  0  0  0
  189.2160  176.8070  135.4390 C   0  0  1  0  0  3  0  0  0  0  0  0
  184.6370  172.8070  134.6850 N   0  0  0  0  0  2  0  0  0  0  0  0
  186.0460  172.5240  134.8910 C   0  0  0  0  0  2  0  0  0  0  0  0
  186.3510  170.7650  134.6220 P   0  0  0  0  0  2  0  0  0  0  0  0
  185.1730  169.8180  134.6330 O   0  0  0  0  0  1  0  0  0  0  0  0
  187.9910  170.0000  134.7160 C   0  0  0  0  0 15  0  0  0  0  0  0
  186.2020  171.8040  136.0150 O   0  0  0  0  0  0  0  0  0  0  0  0
  181.9190  179.7350  141.9230 N   0  0  0  0  0  2  0  0  0  0  0  0
  184.4850  178.9960  144.5660 N   0  0  0  0  0  2  0  0  0  0  0  0
  183.2140  179.0930  143.9200 C   0  0  0  0  0  0  0  0  0  0  0  0
  182.1730  178.6660  144.4900 O   0  0  0  0  0  0  0  0  0  0  0  0
  183.1310  179.6890  142.6260 N   0  0  0  0  0  2  0  0  0  0  0  0
  184.6490  178.4760  145.9150 C   0  0  0  0  0  2  0  0  0  0  0  0
  185.9170  178.9520  146.4860 N   0  0  0  0  0  2  0  0  0  0  0  0
  186.3900  178.0940  147.5090 N   0  0  0  0  0  0  0  0  0  0  0  0
  187.2710  178.8240  148.4170 C   0  0  0  0  0  1  0  0  0  0  0  0
  187.1190  176.9730  146.9240 C   0  0  0  0  0  2  0  0  0  0  0  0
  187.6920  177.3730  145.5750 C   0  0  0  0  0  2  0  0  0  0  0  0
  189.9510  177.4580  146.3890 O   0  0  0  0  0  0  0  0  0  0  0  0
  191.9370  177.0240  145.1260 C   0  0  0  0  0  2  0  0  0  0  0  0
  191.1160  176.6750  143.8800 C   0  0  1  0  0  3  0  0  0  0  0  0
  189.5550  178.5030  143.6600 O   0  0  0  0  0  0  0  0  0  0  0  0
  189.6550  177.1360  144.0090 C   0  0  2  0  0  3  0  0  0  0  0  0
  189.6500  178.6490  142.2860 N   0  0  2  0  0  0  0  0  0  0  0  0
  191.1390  176.7110  146.3880 C   0  0  0  0  0  2  0  0  0  0  0  0
  190.0900  176.7230  140.8610 C   0  0  0  0  0  2  0  0  0  0  0  0
  189.1200  176.8660  145.4230 C   0  0  2  0  0  3  0  0  0  0  0  0
  188.4110  178.2700  141.5900 C   0  0  1  0  0  3  0  0  0  0  0  0
  191.7640  177.3510  142.6740 C   0  0  2  0  0  3  0  0  0  0  0  0
  190.7320  177.8590  141.6540 C   0  0  2  0  0  3  0  0  0  0  0  0
  192.6900  176.4950  142.0730 O   0  0  0  0  0  1  0  0  0  0  0  0
  188.5960  176.8700  141.0480 C   0  0  0  0  0  2  0  0  0  0  0  0
  187.1480  178.3940  142.4350 C   0  0  1  0  0  3  0  0  0  0  0  0
  186.3550  179.5360  141.9580 N   0  0  0  0  0  2  0  0  0  0  0  0
  185.9720  178.1620  141.6050 C   0  0  0  0  0  2  0  0  0  0  0  0
  1  5  1  6  0  0  0
  1  3  1  0  0  0  0
  2  3  2  0  0  0  0
  3  4  1  0  0  0  0
  6  5  1  0  0  0  0
  8  9  1  0  0  0  0
  9  7  2  0  0  0  0
  9  6  1  0  0  0  0
 10 11  2  0  0  0  0
 10  8  1  0  0  0  0
 11  7  1  0  0  0  0
 12 11  1  0  0  0  0
 13 12  2  0  0  0  0
 14 31  1  6  0  0  0
 14 16  1  0  0  0  0
 15 14  1  0  0  0  0
 15 13  1  0  0  0  0
 16 12  1  0  0  0  0
 16 17  1  1  0  0  0
 18 19  1  0  0  0  0
 21 28  1  0  0  0  0
 22 27  1  0  0  0  0
 23 29  1  6  0  0  0
 23 18  1  0  0  0  0
 24 26  1  0  0  0  0
 24 17  1  1  0  0  0
 25 30  1  0  0  0  0
 25 21  1  0  0  0  0
 26 20  1  0  0  0  0
 27 24  1  0  0  0  0
 28 19  1  0  0  0  0
 29 20  1  0  0  0  0
 30 22  1  1  0  0  0
 30 23  1  0  0  0  0
 31 32  1  0  0  0  0
 32 36  1  0  0  0  0
 33 34  1  0  0  0  0
 33 36  1  0  0  0  0
 37  1  1  0  0  0  0
 37 41  1  0  0  0  0
 38 42  1  0  0  0  0
 39 40  2  0  0  0  0
 39 38  1  0  0  0  0
 41 39  1  0  0  0  0
 42 43  1  0  0  0  0
 43 44  1  0  0  0  0
 44 45  1  0  0  0  0
 46 44  1  0  0  0  0
 47 46  1  0  0  0  0
 49 54  1  0  0  0  0
 50 52  1  0  0  0  0
 50 49  1  1  0  0  0
 52 51  1  1  0  0  0
 52 56  1  0  0  0  0
 53 51  1  1  0  0  0
 54 48  1  0  0  0  0
 55 61  1  0  0  0  0
 56 47  1  6  0  0  0
 56 48  1  0  0  0  0
 57 61  1  1  0  0  0
 57 53  1  0  0  0  0
 57 62  1  0  0  0  0
 58 60  1  6  0  0  0
 58 50  1  0  0  0  0
 59 55  1  1  0  0  0
 59 53  1  0  0  0  0
 59 58  1  0  0  0  0
 62 64  1  6  0  0  0
 63 62  1  0  0  0  0
 64 63  1  0  0  0  0
M  END
>  <MODEL>
5

>  <REMARK>
 VINA RESULT:      -5.3      3.083      8.406
  Name = 
  18 active torsions:
  status: ('A' for Active; 'I' for Inactive)
    1  A    between atoms: C_1  and  C_41
    2  A    between atoms: C_1  and  C_47
    3  A    between atoms: C_2  and  C_53
    4  A    between atoms: C_5  and  C_64
    5  A    between atoms: C_8  and  N_28
    6  A    between atoms: C_9  and  N_23
    7  A    between atoms: C_9  and  N_42
    8  A    between atoms: C_22  and  C_39
    9  A    between atoms: C_22  and  N_40
   10  A    between atoms: C_22  and  C_47
   11  A    between atoms: N_28  and  C_38
   12  A    between atoms: C_29  and  N_33
   13  A    between atoms: N_33  and  C_61
   14  A    between atoms: N_34  and  N_40
   15  A    between atoms: N_42  and  N_44
   16  A    between atoms: C_43  and  N_44
   17  A    between atoms: C_43  and  C_60
   18  A    between atoms: C_51  and  C_60
                            x       y       z     vdW  Elec       q    Type
                         _______ _______ _______ _____ _____    ______ ____

>  <TORSDO>
F 18

$$$$
=
 OpenBabel11032420173D

 64 70  0  0  1  0  0  0  0  0999 V2000
  190.2410  177.6410  144.0270 C   0  0  1  0  0  3  0  0  0  0  0  0
  192.5430  178.2560  144.2930 O   0  0  0  0  0  0  0  0  0  0  0  0
  191.3410  178.6290  144.2510 C   0  0  0  0  0  0  0  0  0  0  0  0
  191.0340  179.9770  144.3770 O   0  0  0  0  0  1  0  0  0  0  0  0
  190.4160  176.8600  142.7250 C   0  0  0  0  0  2  0  0  0  0  0  0
  190.2040  177.7350  141.4980 C   0  0  0  0  0  2  0  0  0  0  0  0
  189.5710  176.2050  139.6390 N   0  0  0  0  0  0  0  0  0  0  0  0
  191.6940  176.9680  139.6510 N   0  0  0  0  0  2  0  0  0  0  0  0
  190.4950  176.9570  140.2640 C   0  0  0  0  0  0  0  0  0  0  0  0
  191.5360  176.1680  138.5800 C   0  0  0  0  0  3  0  0  0  0  0  0
  190.2360  175.7030  138.5840 C   0  0  0  0  0  0  0  0  0  0  0  0
  189.6070  174.8130  137.5860 C   0  0  0  0  0  0  0  0  0  0  0  0
  188.6500  173.8510  137.9910 N   0  0  0  0  0  2  0  0  0  0  0  0
  189.0740  173.8240  135.4830 C   0  0  2  0  0  3  0  0  0  0  0  0
  188.0880  172.8360  136.6640 S   0  0  0  0  0  0  0  0  0  0  0  0
  189.8740  174.8050  136.2840 C   0  0  0  0  0  0  0  0  0  0  0  0
  190.8620  175.6550  135.6890 N   0  0  0  0  0  2  0  0  0  0  0  0
  196.5220  174.3130  137.0290 C   0  0  0  0  0  2  0  0  0  0  0  0
  196.5500  173.7550  138.4560 C   0  0  0  0  0  2  0  0  0  0  0  0
  193.9130  176.4250  135.8740 C   0  0  0  0  0  2  0  0  0  0  0  0
  195.6730  171.6930  137.6210 C   0  0  0  0  0  2  0  0  0  0  0  0
  193.7400  173.3730  134.7170 C   0  0  0  0  0  2  0  0  0  0  0  0
  195.1580  174.4150  136.5190 N   0  0  1  0  0  0  0  0  0  0  0  0
  191.9430  175.1530  134.8530 C   0  0  1  0  0  3  0  0  0  0  0  0
  194.6090  171.9730  136.5690 C   0  0  0  0  0  2  0  0  0  0  0  0
  193.0020  176.2440  134.6670 C   0  0  0  0  0  2  0  0  0  0  0  0
  192.4860  173.8470  135.4390 C   0  0  0  0  0  2  0  0  0  0  0  0
  195.5700  172.6920  138.6780 N   0  0  0  0  0  2  0  0  0  0  0  0
  195.1830  175.6110  135.6800 C   0  0  0  0  0  2  0  0  0  0  0  0
  194.9090  173.2060  135.7000 C   0  0  1  0  0  3  0  0  0  0  0  0
  188.1750  174.5410  134.5940 N   0  0  0  0  0  2  0  0  0  0  0  0
  186.8360  174.0400  134.8440 C   0  0  0  0  0  2  0  0  0  0  0  0
  185.6620  175.4100  134.7880 P   0  0  0  0  0  2  0  0  0  0  0  0
  186.1930  176.8220  134.9000 O   0  0  0  0  0  1  0  0  0  0  0  0
  183.8720  175.2140  134.9860 C   0  0  0  0  0 15  0  0  0  0  0  0
  186.4130  174.4660  136.0460 O   0  0  0  0  0  0  0  0  0  0  0  0
  190.1100  176.7350  145.1620 N   0  0  0  0  0  2  0  0  0  0  0  0
  186.5900  177.3800  146.3050 N   0  0  0  0  0  2  0  0  0  0  0  0
  188.0000  177.5440  146.1500 C   0  0  0  0  0  0  0  0  0  0  0  0
  188.5910  178.5280  146.6720 O   0  0  0  0  0  0  0  0  0  0  0  0
  188.7390  176.5750  145.4060 N   0  0  0  0  0  2  0  0  0  0  0  0
  185.7730  178.2750  147.1120 C   0  0  0  0  0  2  0  0  0  0  0  0
  184.4120  178.3460  146.5620 N   0  0  0  0  0  2  0  0  0  0  0  0
  184.4170  178.6250  145.1730 N   0  0  0  0  0  0  0  0  0  0  0  0
  185.2130  179.8170  144.8970 C   0  0  0  0  0  1  0  0  0  0  0  0
  183.0510  178.8350  144.7020 C   0  0  0  0  0  2  0  0  0  0  0  0
  183.0050  178.7460  143.1860 C   0  0  0  0  0  2  0  0  0  0  0  0
  180.6710  178.2160  143.4000 O   0  0  0  0  0  0  0  0  0  0  0  0
  179.0200  178.3330  141.6720 C   0  0  0  0  0  2  0  0  0  0  0  0
  180.0470  178.8780  140.6740 C   0  0  1  0  0  3  0  0  0  0  0  0
  181.9260  177.3770  140.8670 O   0  0  0  0  0  0  0  0  0  0  0  0
  181.4880  178.6870  141.1720 C   0  0  2  0  0  3  0  0  0  0  0  0
  182.2080  177.2750  139.5150 N   0  0  2  0  0  0  0  0  0  0  0  0
  179.4030  178.7330  143.0940 C   0  0  0  0  0  2  0  0  0  0  0  0
  181.7870  179.1460  138.0140 C   0  0  0  0  0  2  0  0  0  0  0  0
  181.5920  178.9900  142.6730 C   0  0  2  0  0  3  0  0  0  0  0  0
  183.4880  177.9020  139.1530 C   0  0  1  0  0  3  0  0  0  0  0  0
  179.8590  178.1470  139.3460 C   0  0  2  0  0  3  0  0  0  0  0  0
  181.1900  177.8800  138.6240 C   0  0  2  0  0  3  0  0  0  0  0  0
  178.9710  178.8440  138.5250 O   0  0  0  0  0  1  0  0  0  0  0  0
  183.1860  179.2670  138.5760 C   0  0  0  0  0  2  0  0  0  0  0  0
  184.4990  177.9750  140.2930 C   0  0  1  0  0  3  0  0  0  0  0  0
  185.8470  178.1490  139.7340 N   0  0  0  0  0  2  0  0  0  0  0  0
  185.1270  179.2920  140.3140 C   0  0  0  0  0  2  0  0  0  0  0  0
  1  5  1  6  0  0  0
  1  3  1  0  0  0  0
  1 37  1  0  0  0  0
  3  2  2  0  0  0  0
  3  4  1  0  0  0  0
  6  5  1  0  0  0  0
  7  9  2  0  0  0  0
  8  9  1  0  0  0  0
  9  6  1  0  0  0  0
 10 11  2  0  0  0  0
 10  8  1  0  0  0  0
 11  7  1  0  0  0  0
 12 13  1  0  0  0  0
 12 11  1  0  0  0  0
 14 31  1  6  0  0  0
 14 16  1  0  0  0  0
 14 15  1  0  0  0  0
 15 13  1  0  0  0  0
 16 12  2  0  0  0  0
 17 16  1  0  0  0  0
 18 19  1  0  0  0  0
 19 28  1  0  0  0  0
 21 28  1  0  0  0  0
 22 27  1  0  0  0  0
 23 29  1  6  0  0  0
 23 18  1  0  0  0  0
 24 27  1  0  0  0  0
 24 17  1  1  0  0  0
 25 21  1  0  0  0  0
 26 24  1  0  0  0  0
 26 20  1  0  0  0  0
 29 20  1  0  0  0  0
 30 22  1  6  0  0  0
 30 23  1  0  0  0  0
 30 25  1  0  0  0  0
 31 32  1  0  0  0  0
 32 36  1  0  0  0  0
 33 34  1  0  0  0  0
 33 36  1  0  0  0  0
 37 41  1  0  0  0  0
 38 42  1  0  0  0  0
 39 38  1  0  0  0  0
 39 40  2  0  0  0  0
 41 39  1  0  0  0  0
 43 42  1  0  0  0  0
 44 43  1  0  0  0  0
 45 44  1  0  0  0  0
 46 44  1  0  0  0  0
 47 46  1  0  0  0  0
 49 54  1  0  0  0  0
 50 52  1  0  0  0  0
 50 49  1  1  0  0  0
 52 51  1  1  0  0  0
 52 56  1  0  0  0  0
 53 51  1  1  0  0  0
 54 48  1  0  0  0  0
 55 61  1  0  0  0  0
 56 47  1  1  0  0  0
 56 48  1  0  0  0  0
 57 61  1  1  0  0  0
 57 53  1  0  0  0  0
 57 62  1  0  0  0  0
 58 60  1  6  0  0  0
 58 50  1  0  0  0  0
 59 55  1  1  0  0  0
 59 58  1  0  0  0  0
 59 53  1  0  0  0  0
 62 64  1  1  0  0  0
 63 62  1  0  0  0  0
 63 64  1  0  0  0  0
M  END
>  <MODEL>
6

>  <REMARK>
 VINA RESULT:      -5.0      2.198      3.198
  Name = 
  18 active torsions:
  status: ('A' for Active; 'I' for Inactive)
    1  A    between atoms: C_1  and  C_41
    2  A    between atoms: C_1  and  C_47
    3  A    between atoms: C_2  and  C_53
    4  A    between atoms: C_5  and  C_64
    5  A    between atoms: C_8  and  N_28
    6  A    between atoms: C_9  and  N_23
    7  A    between atoms: C_9  and  N_42
    8  A    between atoms: C_22  and  C_39
    9  A    between atoms: C_22  and  N_40
   10  A    between atoms: C_22  and  C_47
   11  A    between atoms: N_28  and  C_38
   12  A    between atoms: C_29  and  N_33
   13  A    between atoms: N_33  and  C_61
   14  A    between atoms: N_34  and  N_40
   15  A    between atoms: N_42  and  N_44
   16  A    between atoms: C_43  and  N_44
   17  A    between atoms: C_43  and  C_60
   18  A    between atoms: C_51  and  C_60
                            x       y       z     vdW  Elec       q    Type
                         _______ _______ _______ _____ _____    ______ ____

>  <TORSDO>
F 18

$$$$
=
 OpenBabel11032420173D

 64 70  0  0  1  0  0  0  0  0999 V2000
  188.5330  177.0790  136.8720 C   0  0  1  0  0  3  0  0  0  0  0  0
  188.1630  176.3700  134.6120 O   0  0  0  0  0  0  0  0  0  0  0  0
  188.2430  177.3280  135.4260 C   0  0  0  0  0  0  0  0  0  0  0  0
  188.0270  178.6260  134.9850 O   0  0  0  0  0  1  0  0  0  0  0  0
  187.3980  176.3340  137.5730 C   0  0  0  0  0  2  0  0  0  0  0  0
  186.1840  177.2230  137.8060 C   0  0  0  0  0  2  0  0  0  0  0  0
  183.9920  176.2430  137.1500 N   0  0  0  0  0  0  0  0  0  0  0  0
  185.1790  177.2610  135.5250 N   0  0  0  0  0  2  0  0  0  0  0  0
  185.1200  176.8980  136.8200 C   0  0  0  0  0  0  0  0  0  0  0  0
  184.0320  176.8030  134.9890 C   0  0  0  0  0  3  0  0  0  0  0  0
  183.3150  176.1780  135.9910 C   0  0  0  0  0  0  0  0  0  0  0  0
  181.9850  175.5460  135.8690 C   0  0  0  0  0  0  0  0  0  0  0  0
  181.4950  175.1520  134.6010 N   0  0  0  0  0  0  0  0  0  0  0  0
  179.8730  174.6280  136.4890 C   0  0  2  0  0  3  0  0  0  0  0  0
  179.8600  174.4980  134.6650 S   0  0  0  0  0  0  0  0  0  0  0  0
  181.1490  175.3130  136.8760 C   0  0  2  0  0  3  0  0  0  0  0  0
  181.4320  175.6990  138.2260 N   0  0  0  0  0  2  0  0  0  0  0  0
  181.5680  181.6330  138.8500 C   0  0  0  0  0  2  0  0  0  0  0  0
  182.0420  182.2380  137.5240 C   0  0  0  0  0  2  0  0  0  0  0  0
  182.3170  178.2920  139.7840 C   0  0  0  0  0  2  0  0  0  0  0  0
  179.8720  181.8250  136.6090 C   0  0  0  0  0  2  0  0  0  0  0  0
  179.2190  178.7270  138.8360 C   0  0  0  0  0  2  0  0  0  0  0  0
  181.2450  180.2170  138.7110 N   0  0  1  0  0  0  0  0  0  0  0  0
  180.5760  176.5940  138.9930 C   0  0  1  0  0  3  0  0  0  0  0  0
  179.3610  180.4720  137.0810 C   0  0  0  0  0  2  0  0  0  0  0  0
  181.3600  177.1720  140.1750 C   0  0  0  0  0  2  0  0  0  0  0  0
  179.9700  177.6500  138.0650 C   0  0  0  0  0  2  0  0  0  0  0  0
  181.3070  181.7320  136.3660 N   0  0  0  0  0  2  0  0  0  0  0  0
  181.6380  179.6370  139.9930 C   0  0  0  0  0  2  0  0  0  0  0  0
  179.7790  180.1220  138.5200 C   0  0  1  0  0  3  0  0  0  0  0  0
  179.8450  173.2930  137.0630 N   0  0  0  0  0  2  0  0  0  0  0  0
  181.1280  172.6770  136.7780 C   0  0  0  0  0  2  0  0  0  0  0  0
  180.8870  171.2630  135.6830 P   0  0  0  0  0  2  0  0  0  0  0  0
  179.4960  170.6850  135.5450 O   0  0  0  0  0  1  0  0  0  0  0  0
  182.2400  170.2490  135.0310 C   0  0  0  0  0 15  0  0  0  0  0  0
  181.1980  171.4800  137.3850 O   0  0  0  0  0  0  0  0  0  0  0  0
  189.7980  176.3760  137.0420 N   0  0  0  0  0  2  0  0  0  0  0  0
  191.7970  177.5930  139.9810 N   0  0  0  0  0  2  0  0  0  0  0  0
  190.9040  176.7910  139.2060 C   0  0  0  0  0  0  0  0  0  0  0  0
  190.3750  175.7590  139.7040 O   0  0  0  0  0  0  0  0  0  0  0  0
  190.6070  177.1730  137.8640 N   0  0  0  0  0  2  0  0  0  0  0  0
  192.0940  177.3210  141.3800 C   0  0  0  0  0  2  0  0  0  0  0  0
  191.1030  177.9790  142.2410 N   0  0  0  0  0  2  0  0  0  0  0  0
  191.2270  177.5760  143.5940 N   0  0  0  0  0  0  0  0  0  0  0  0
  191.2880  176.1210  143.6870 C   0  0  0  0  0  1  0  0  0  0  0  0
  190.0890  178.0650  144.3670 C   0  0  0  0  0  2  0  0  0  0  0  0
  188.9970  177.0090  144.4070 C   0  0  0  0  0  2  0  0  0  0  0  0
  188.3820  178.1750  142.3980 O   0  0  0  0  0  0  0  0  0  0  0  0
  186.1990  178.9690  141.8240 C   0  0  0  0  0  2  0  0  0  0  0  0
  185.6030  178.3720  143.1030 C   0  0  1  0  0  3  0  0  0  0  0  0
  187.0720  179.1310  144.8610 O   0  0  0  0  0  0  0  0  0  0  0  0
  186.6910  177.9890  144.1190 C   0  0  2  0  0  3  0  0  0  0  0  0
  186.0900  179.4430  145.7860 N   0  0  2  0  0  0  0  0  0  0  0  0
  187.4150  178.1600  141.3820 C   0  0  0  0  0  2  0  0  0  0  0  0
  184.0060  178.1840  145.8570 C   0  0  0  0  0  2  0  0  0  0  0  0
  187.8910  177.3380  143.4150 C   0  0  2  0  0  3  0  0  0  0  0  0
  186.1060  178.5480  146.9530 C   0  0  1  0  0  3  0  0  0  0  0  0
  184.6630  179.4050  143.7210 C   0  0  2  0  0  3  0  0  0  0  0  0
  184.7070  179.4010  145.2570 C   0  0  2  0  0  3  0  0  0  0  0  0
  183.3590  179.2220  143.2530 O   0  0  0  0  0  1  0  0  0  0  0  0
  185.0220  177.5120  146.7540 C   0  0  0  0  0  2  0  0  0  0  0  0
  187.4610  177.9090  147.2400 C   0  0  1  0  0  3  0  0  0  0  0  0
  188.1830  178.7280  148.2240 N   0  0  0  0  0  2  0  0  0  0  0  0
  187.5210  177.4820  148.6330 C   0  0  0  0  0  2  0  0  0  0  0  0
  1 37  1  0  0  0  0
  1  5  1  6  0  0  0
  2  3  2  0  0  0  0
  3  1  1  0  0  0  0
  4  3  1  0  0  0  0
  5  6  1  0  0  0  0
  8  9  1  0  0  0  0
  9  7  2  0  0  0  0
  9  6  1  0  0  0  0
 10  8  1  0  0  0  0
 10 11  2  0  0  0  0
 11  7  1  0  0  0  0
 12 11  1  0  0  0  0
 12 16  1  0  0  0  0
 13 15  1  0  0  0  0
 13 12  2  0  0  0  0
 14 16  1  0  0  0  0
 14 31  1  1  0  0  0
 15 14  1  0  0  0  0
 16 17  1  6  0  0  0
 19 18  1  0  0  0  0
 20 29  1  0  0  0  0
 20 26  1  0  0  0  0
 21 25  1  0  0  0  0
 23 18  1  1  0  0  0
 23 29  1  0  0  0  0
 24 17  1  6  0  0  0
 24 26  1  0  0  0  0
 27 22  1  0  0  0  0
 27 24  1  0  0  0  0
 28 21  1  0  0  0  0
 28 19  1  0  0  0  0
 30 25  1  6  0  0  0
 30 23  1  0  0  0  0
 30 22  1  0  0  0  0
 32 31  1  0  0  0  0
 32 36  1  0  0  0  0
 33 36  1  0  0  0  0
 34 33  1  0  0  0  0
 37 41  1  0  0  0  0
 38 42  1  0  0  0  0
 39 40  2  0  0  0  0
 39 38  1  0  0  0  0
 41 39  1  0  0  0  0
 42 43  1  0  0  0  0
 43 44  1  0  0  0  0
 44 45  1  0  0  0  0
 44 46  1  0  0  0  0
 46 47  1  0  0  0  0
 48 56  1  0  0  0  0
 50 49  1  6  0  0  0
 50 58  1  0  0  0  0
 50 52  1  0  0  0  0
 52 51  1  6  0  0  0
 53 51  1  6  0  0  0
 53 57  1  0  0  0  0
 54 49  1  0  0  0  0
 54 48  1  0  0  0  0
 55 61  1  0  0  0  0
 56 52  1  0  0  0  0
 56 47  1  1  0  0  0
 57 61  1  6  0  0  0
 57 62  1  0  0  0  0
 58 60  1  1  0  0  0
 58 59  1  0  0  0  0
 59 53  1  0  0  0  0
 59 55  1  6  0  0  0
 62 63  1  0  0  0  0
 62 64  1  1  0  0  0
 63 64  1  0  0  0  0
M  END
>  <MODEL>
7

>  <REMARK>
 VINA RESULT:      -5.0      3.351     10.350
  Name = 
  18 active torsions:
  status: ('A' for Active; 'I' for Inactive)
    1  A    between atoms: C_1  and  C_41
    2  A    between atoms: C_1  and  C_47
    3  A    between atoms: C_2  and  C_53
    4  A    between atoms: C_5  and  C_64
    5  A    between atoms: C_8  and  N_28
    6  A    between atoms: C_9  and  N_23
    7  A    between atoms: C_9  and  N_42
    8  A    between atoms: C_22  and  C_39
    9  A    between atoms: C_22  and  N_40
   10  A    between atoms: C_22  and  C_47
   11  A    between atoms: N_28  and  C_38
   12  A    between atoms: C_29  and  N_33
   13  A    between atoms: N_33  and  C_61
   14  A    between atoms: N_34  and  N_40
   15  A    between atoms: N_42  and  N_44
   16  A    between atoms: C_43  and  N_44
   17  A    between atoms: C_43  and  C_60
   18  A    between atoms: C_51  and  C_60
                            x       y       z     vdW  Elec       q    Type
                         _______ _______ _______ _____ _____    ______ ____

>  <TORSDO>
F 18

$$$$
=
 OpenBabel11032420173D

 64 70  0  0  1  0  0  0  0  0999 V2000
  181.8050  179.5630  140.8580 C   0  0  1  0  0  3  0  0  0  0  0  0
  179.6570  179.8540  141.8830 O   0  0  0  0  0  0  0  0  0  0  0  0
  180.7680  179.2610  141.8920 C   0  0  0  0  0  0  0  0  0  0  0  0
  181.0220  178.2900  142.8520 O   0  0  0  0  0  1  0  0  0  0  0  0
  183.2180  179.5810  141.4380 C   0  0  0  0  0  2  0  0  0  0  0  0
  183.6420  178.2150  141.9600 C   0  0  0  0  0  2  0  0  0  0  0  0
  185.5160  178.0050  143.5860 N   0  0  0  0  0  0  0  0  0  0  0  0
  183.5850  178.8730  144.3640 N   0  0  0  0  0  2  0  0  0  0  0  0
  184.2460  178.3540  143.3120 C   0  0  0  0  0  0  0  0  0  0  0  0
  184.4750  178.8440  145.3740 C   0  0  0  0  0  3  0  0  0  0  0  0
  185.6510  178.3070  144.8890 C   0  0  0  0  0  0  0  0  0  0  0  0
  186.9090  178.1020  145.6360 C   0  0  0  0  0  0  0  0  0  0  0  0
  186.9730  178.3950  147.0200 N   0  0  0  0  0  2  0  0  0  0  0  0
  189.1740  177.5160  146.0970 C   0  0  2  0  0  3  0  0  0  0  0  0
  188.5820  178.1640  147.7010 S   0  0  0  0  0  0  0  0  0  0  0  0
  188.0520  177.6690  145.1150 C   0  0  0  0  0  0  0  0  0  0  0  0
  188.2110  177.3820  143.7210 N   0  0  0  0  0  2  0  0  0  0  0  0
  190.8630  176.3120  138.4820 C   0  0  0  0  0  2  0  0  0  0  0  0
  190.0880  175.1920  137.7800 C   0  0  0  0  0  2  0  0  0  0  0  0
  190.7780  176.7560  142.0030 C   0  0  0  0  0  2  0  0  0  0  0  0
  188.3830  176.7730  137.2270 C   0  0  0  0  0  2  0  0  0  0  0  0
  189.0110  178.9610  140.3590 C   0  0  0  0  0  2  0  0  0  0  0  0
  190.1360  176.8260  139.6380 N   0  0  1  0  0  0  0  0  0  0  0  0
  188.8850  178.2830  142.7960 C   0  0  1  0  0  3  0  0  0  0  0  0
  188.1430  177.7070  138.4050 C   0  0  0  0  0  2  0  0  0  0  0  0
  190.3900  177.9950  142.8000 C   0  0  0  0  0  2  0  0  0  0  0  0
  188.2330  178.1880  141.4150 C   0  0  0  0  0  2  0  0  0  0  0  0
  188.6470  175.4310  137.7310 N   0  0  0  0  0  2  0  0  0  0  0  0
  191.1860  177.1640  140.5950 C   0  0  0  0  0  2  0  0  0  0  0  0
  189.4190  178.0450  139.1950 C   0  0  1  0  0  3  0  0  0  0  0  0
  189.5040  176.1080  146.2430 N   0  0  0  0  0  2  0  0  0  0  0  0
  190.1940  175.9600  147.5130 C   0  0  0  0  0  2  0  0  0  0  0  0
  191.9770  175.9620  147.2320 P   0  0  0  0  0  2  0  0  0  0  0  0
  192.4880  175.7150  145.8300 O   0  0  0  0  0  1  0  0  0  0  0  0
  193.2070  175.8620  148.5590 C   0  0  0  0  0 15  0  0  0  0  0  0
  190.7720  174.7480  147.5720 O   0  0  0  0  0  0  0  0  0  0  0  0
  181.7150  178.6350  139.7370 N   0  0  0  0  0  2  0  0  0  0  0  0
  180.1060  175.2430  139.8750 N   0  0  0  0  0  2  0  0  0  0  0  0
  180.8150  176.3710  139.3590 C   0  0  0  0  0  0  0  0  0  0  0  0
  181.2990  176.3450  138.1940 O   0  0  0  0  0  0  0  0  0  0  0  0
  180.9620  177.5350  140.1700 N   0  0  0  0  0  2  0  0  0  0  0  0
  179.8410  174.0470  139.0880 C   0  0  0  0  0  2  0  0  0  0  0  0
  179.1660  174.4090  137.8350 N   0  0  0  0  0  2  0  0  0  0  0  0
  179.6870  173.6950  136.7280 N   0  0  0  0  0  0  0  0  0  0  0  0
  178.9330  172.4630  136.5180 C   0  0  0  0  0  1  0  0  0  0  0  0
  181.0910  173.3690  136.9610 C   0  0  0  0  0  2  0  0  0  0  0  0
  181.9110  173.6910  135.7220 C   0  0  0  0  0  2  0  0  0  0  0  0
  182.0950  171.2970  135.8180 O   0  0  0  0  0  0  0  0  0  0  0  0
  184.0520  169.9990  135.3570 C   0  0  0  0  0  2  0  0  0  0  0  0
  184.8460  171.2570  134.9880 C   0  0  1  0  0  3  0  0  0  0  0  0
  184.4400  172.7810  136.8140 O   0  0  0  0  0  0  0  0  0  0  0  0
  184.1380  172.5400  135.4530 C   0  0  2  0  0  3  0  0  0  0  0  0
  185.7340  173.2580  136.9350 N   0  0  2  0  0  0  0  0  0  0  0  0
  182.5680  170.2090  135.0680 C   0  0  0  0  0  2  0  0  0  0  0  0
  187.1810  173.4290  134.9830 C   0  0  0  0  0  2  0  0  0  0  0  0
  182.6250  172.4480  135.2100 C   0  0  2  0  0  3  0  0  0  0  0  0
  185.8560  174.6710  136.5460 C   0  0  1  0  0  3  0  0  0  0  0  0
  186.2230  171.1630  135.6400 C   0  0  2  0  0  3  0  0  0  0  0  0
  186.7400  172.5250  136.1320 C   0  0  2  0  0  3  0  0  0  0  0  0
  187.1360  170.5600  134.7720 O   0  0  0  0  0  1  0  0  0  0  0  0
  186.4010  174.7160  135.1370 C   0  0  0  0  0  2  0  0  0  0  0  0
  184.5690  175.4780  136.6880 C   0  0  1  0  0  3  0  0  0  0  0  0
  184.4040  175.8840  138.0910 N   0  0  0  0  0  2  0  0  0  0  0  0
  184.8840  176.8440  137.0880 C   0  0  0  0  0  2  0  0  0  0  0  0
  1  5  1  1  0  0  0
  1  3  1  0  0  0  0
  2  3  2  0  0  0  0
  3  4  1  0  0  0  0
  5  6  1  0  0  0  0
  6  9  1  0  0  0  0
  7 11  1  0  0  0  0
  8 10  1  0  0  0  0
  9  7  2  0  0  0  0
  9  8  1  0  0  0  0
 11 10  2  0  0  0  0
 11 12  1  0  0  0  0
 12 13  1  0  0  0  0
 13 15  1  0  0  0  0
 14 31  1  1  0  0  0
 14 15  1  0  0  0  0
 16 12  2  0  0  0  0
 16 14  1  0  0  0  0
 17 16  1  0  0  0  0
 19 18  1  0  0  0  0
 20 26  1  0  0  0  0
 21 28  1  0  0  0  0
 21 25  1  0  0  0  0
 22 27  1  0  0  0  0
 23 18  1  6  0  0  0
 23 29  1  0  0  0  0
 24 26  1  0  0  0  0
 24 17  1  1  0  0  0
 27 24  1  0  0  0  0
 28 19  1  0  0  0  0
 29 20  1  0  0  0  0
 30 25  1  1  0  0  0
 30 23  1  0  0  0  0
 30 22  1  0  0  0  0
 31 32  1  0  0  0  0
 32 36  1  0  0  0  0
 33 36  1  0  0  0  0
 34 33  1  0  0  0  0
 37 41  1  0  0  0  0
 37  1  1  0  0  0  0
 39 38  1  0  0  0  0
 39 41  1  0  0  0  0
 40 39  2  0  0  0  0
 42 38  1  0  0  0  0
 43 42  1  0  0  0  0
 44 46  1  0  0  0  0
 44 43  1  0  0  0  0
 45 44  1  0  0  0  0
 47 46  1  0  0  0  0
 50 49  1  1  0  0  0
 50 52  1  0  0  0  0
 50 58  1  0  0  0  0
 52 51  1  1  0  0  0
 53 51  1  6  0  0  0
 54 49  1  0  0  0  0
 54 48  1  0  0  0  0
 55 61  1  0  0  0  0
 56 52  1  0  0  0  0
 56 47  1  1  0  0  0
 56 48  1  0  0  0  0
 57 61  1  6  0  0  0
 57 62  1  0  0  0  0
 57 53  1  0  0  0  0
 58 60  1  6  0  0  0
 58 59  1  0  0  0  0
 59 55  1  6  0  0  0
 59 53  1  0  0  0  0
 62 64  1  6  0  0  0
 62 63  1  0  0  0  0
 64 63  1  0  0  0  0
M  END
>  <MODEL>
8

>  <REMARK>
 VINA RESULT:      -4.9      3.662      8.311
  Name = 
  18 active torsions:
  status: ('A' for Active; 'I' for Inactive)
    1  A    between atoms: C_1  and  C_41
    2  A    between atoms: C_1  and  C_47
    3  A    between atoms: C_2  and  C_53
    4  A    between atoms: C_5  and  C_64
    5  A    between atoms: C_8  and  N_28
    6  A    between atoms: C_9  and  N_23
    7  A    between atoms: C_9  and  N_42
    8  A    between atoms: C_22  and  C_39
    9  A    between atoms: C_22  and  N_40
   10  A    between atoms: C_22  and  C_47
   11  A    between atoms: N_28  and  C_38
   12  A    between atoms: C_29  and  N_33
   13  A    between atoms: N_33  and  C_61
   14  A    between atoms: N_34  and  N_40
   15  A    between atoms: N_42  and  N_44
   16  A    between atoms: C_43  and  N_44
   17  A    between atoms: C_43  and  C_60
   18  A    between atoms: C_51  and  C_60
                            x       y       z     vdW  Elec       q    Type
                         _______ _______ _______ _____ _____    ______ ____

>  <TORSDO>
F 18

$$$$
=
 OpenBabel11032420173D

 64 70  0  0  1  0  0  0  0  0999 V2000
  188.9670  177.0360  138.2300 C   0  0  1  0  0  3  0  0  0  0  0  0
  187.9280  178.9810  139.1700 O   0  0  0  0  0  1  0  0  0  0  0  0
  188.6310  178.4940  138.2460 C   0  0  0  0  0  0  0  0  0  0  0  0
  189.1300  179.3220  137.2510 O   0  0  0  0  0  0  0  0  0  0  0  0
  187.9710  176.2190  137.4090 C   0  0  0  0  0  2  0  0  0  0  0  0
  187.5380  176.9430  136.1420 C   0  0  0  0  0  2  0  0  0  0  0  0
  185.4890  175.5510  136.3920 N   0  0  0  0  0  0  0  0  0  0  0  0
  185.4120  177.2100  134.8660 N   0  0  0  0  0  2  0  0  0  0  0  0
  186.1450  176.5600  135.7900 C   0  0  0  0  0  0  0  0  0  0  0  0
  184.2240  176.5770  134.8640 C   0  0  0  0  0  3  0  0  0  0  0  0
  184.2830  175.5610  135.7980 C   0  0  0  0  0  0  0  0  0  0  0  0
  183.2020  174.6190  136.1550 C   0  0  0  0  0  0  0  0  0  0  0  0
  183.3640  173.2300  135.9320 N   0  0  0  0  0  2  0  0  0  0  0  0
  181.1160  173.8040  136.9730 C   0  0  2  0  0  3  0  0  0  0  0  0
  181.9300  172.2920  136.3460 S   0  0  0  0  0  0  0  0  0  0  0  0
  182.0250  174.9560  136.6710 C   0  0  0  0  0  0  0  0  0  0  0  0
  181.6420  176.3160  136.9070 N   0  0  0  0  0  2  0  0  0  0  0  0
  181.9120  182.0590  138.5130 C   0  0  0  0  0  2  0  0  0  0  0  0
  181.1280  182.8760  137.4810 C   0  0  0  0  0  2  0  0  0  0  0  0
  183.2800  178.8700  137.7620 C   0  0  0  0  0  2  0  0  0  0  0  0
  179.0960  182.1130  138.4830 C   0  0  0  0  0  2  0  0  0  0  0  0
  180.6080  178.7430  139.6420 C   0  0  0  0  0  2  0  0  0  0  0  0
  181.6780  180.6270  138.3570 N   0  0  1  0  0  0  0  0  0  0  0  0
  181.6750  176.9340  138.2260 C   0  0  1  0  0  3  0  0  0  0  0  0
  179.2240  180.6440  138.8570 C   0  0  0  0  0  2  0  0  0  0  0  0
  183.0570  177.5440  138.4770 C   0  0  0  0  0  2  0  0  0  0  0  0
  180.5180  177.9270  138.3590 C   0  0  0  0  0  2  0  0  0  0  0  0
  179.7910  182.3450  137.2230 N   0  0  0  0  0  2  0  0  0  0  0  0
  182.9580  180.0180  138.7080 C   0  0  0  0  0  2  0  0  0  0  0  0
  180.6320  180.2480  139.3360 C   0  0  1  0  0  3  0  0  0  0  0  0
  180.9380  173.6890  138.4110 N   0  0  0  0  0  2  0  0  0  0  0  0
  180.2120  174.8680  138.8490 C   0  0  0  0  0  2  0  0  0  0  0  0
  179.7930  174.7010  140.5970 P   0  0  0  0  0  2  0  0  0  0  0  0
  179.8590  173.3270  141.2270 O   0  0  0  0  0  1  0  0  0  0  0  0
  178.9400  175.9780  141.5560 C   0  0  0  0  0 15  0  0  0  0  0  0
  178.9310  174.5440  139.0900 O   0  0  0  0  0  0  0  0  0  0  0  0
  190.3300  176.8160  137.7610 N   0  0  0  0  0  2  0  0  0  0  0  0
  192.0750  177.4130  141.0340 N   0  0  0  0  0  2  0  0  0  0  0  0
  191.1250  176.9100  140.0930 C   0  0  0  0  0  0  0  0  0  0  0  0
  190.2290  176.1010  140.4590 O   0  0  0  0  0  0  0  0  0  0  0  0
  191.1910  177.3410  138.7340 N   0  0  0  0  0  2  0  0  0  0  0  0
  192.0320  177.0880  142.4520 C   0  0  0  0  0  2  0  0  0  0  0  0
  190.7840  177.5880  143.0440 N   0  0  0  0  0  2  0  0  0  0  0  0
  190.1330  176.5960  143.8200 N   0  0  0  0  0  0  0  0  0  0  0  0
  190.5840  175.2650  143.4260 C   0  0  0  0  0  1  0  0  0  0  0  0
  188.6870  176.6910  143.6390 C   0  0  0  0  0  2  0  0  0  0  0  0
  188.3410  177.9530  142.8680 C   0  0  0  0  0  2  0  0  0  0  0  0
  186.6000  178.9860  141.5740 O   0  0  0  0  0  0  0  0  0  0  0  0
  184.2840  179.1280  142.1590 C   0  0  0  0  0  2  0  0  0  0  0  0
  184.5170  178.3170  143.4380 C   0  0  1  0  0  3  0  0  0  0  0  0
  186.4080  179.3860  144.4890 O   0  0  0  0  0  0  0  0  0  0  0  0
  186.0100  178.2210  143.7920 C   0  0  2  0  0  3  0  0  0  0  0  0
  185.9320  179.3470  145.7880 N   0  0  2  0  0  0  0  0  0  0  0  0
  185.3050  178.7370  141.0940 C   0  0  0  0  0  2  0  0  0  0  0  0
  184.4930  177.5270  146.5280 C   0  0  0  0  0  2  0  0  0  0  0  0
  186.8570  177.9910  142.5330 C   0  0  2  0  0  3  0  0  0  0  0  0
  186.7050  178.4380  146.6480 C   0  0  1  0  0  3  0  0  0  0  0  0
  183.7600  178.9930  144.5790 C   0  0  2  0  0  3  0  0  0  0  0  0
  184.5170  178.9250  145.9150 C   0  0  2  0  0  3  0  0  0  0  0  0
  182.4760  178.4570  144.6990 O   0  0  0  0  0  1  0  0  0  0  0  0
  185.9370  177.1400  146.7560 C   0  0  0  0  0  2  0  0  0  0  0  0
  188.1450  178.2150  146.1980 C   0  0  1  0  0  3  0  0  0  0  0  0
  189.0580  178.6330  147.2710 N   0  0  0  0  0  2  0  0  0  0  0  0
  188.7770  177.2090  147.0430 C   0  0  0  0  0  2  0  0  0  0  0  0
  1  5  1  6  0  0  0
  1  3  1  0  0  0  0
  3  2  1  0  0  0  0
  4  3  2  0  0  0  0
  6  5  1  0  0  0  0
  8  9  1  0  0  0  0
  9  6  1  0  0  0  0
  9  7  2  0  0  0  0
 10  8  1  0  0  0  0
 10 11  2  0  0  0  0
 11 12  1  0  0  0  0
 11  7  1  0  0  0  0
 12 16  2  0  0  0  0
 13 12  1  0  0  0  0
 13 15  1  0  0  0  0
 14 31  1  1  0  0  0
 15 14  1  0  0  0  0
 16 17  1  0  0  0  0
 16 14  1  0  0  0  0
 19 18  1  0  0  0  0
 20 26  1  0  0  0  0
 20 29  1  0  0  0  0
 21 25  1  0  0  0  0
 23 18  1  1  0  0  0
 23 29  1  0  0  0  0
 23 30  1  0  0  0  0
 24 17  1  6  0  0  0
 24 27  1  0  0  0  0
 24 26  1  0  0  0  0
 27 22  1  0  0  0  0
 28 19  1  0  0  0  0
 28 21  1  0  0  0  0
 30 25  1  6  0  0  0
 30 22  1  0  0  0  0
 31 32  1  0  0  0  0
 32 36  1  0  0  0  0
 33 34  1  0  0  0  0
 36 33  1  0  0  0  0
 37  1  1  0  0  0  0
 37 41  1  0  0  0  0
 38 42  1  0  0  0  0
 39 40  2  0  0  0  0
 39 38  1  0  0  0  0
 41 39  1  0  0  0  0
 42 43  1  0  0  0  0
 43 44  1  0  0  0  0
 45 44  1  0  0  0  0
 46 44  1  0  0  0  0
 47 46  1  0  0  0  0
 48 56  1  0  0  0  0
 50 49  1  6  0  0  0
 50 52  1  0  0  0  0
 50 58  1  0  0  0  0
 52 51  1  6  0  0  0
 53 51  1  6  0  0  0
 53 59  1  0  0  0  0
 53 57  1  0  0  0  0
 54 48  1  0  0  0  0
 54 49  1  0  0  0  0
 55 61  1  0  0  0  0
 56 47  1  1  0  0  0
 56 52  1  0  0  0  0
 57 61  1  6  0  0  0
 58 60  1  1  0  0  0
 58 59  1  0  0  0  0
 59 55  1  6  0  0  0
 62 57  1  0  0  0  0
 62 64  1  1  0  0  0
 62 63  1  0  0  0  0
 64 63  1  0  0  0  0
M  END
>  <MODEL>
9

>  <REMARK>
 VINA RESULT:      -4.9      3.476     10.034
  Name = 
  18 active torsions:
  status: ('A' for Active; 'I' for Inactive)
    1  A    between atoms: C_1  and  C_41
    2  A    between atoms: C_1  and  C_47
    3  A    between atoms: C_2  and  C_53
    4  A    between atoms: C_5  and  C_64
    5  A    between atoms: C_8  and  N_28
    6  A    between atoms: C_9  and  N_23
    7  A    between atoms: C_9  and  N_42
    8  A    between atoms: C_22  and  C_39
    9  A    between atoms: C_22  and  N_40
   10  A    between atoms: C_22  and  C_47
   11  A    between atoms: N_28  and  C_38
   12  A    between atoms: C_29  and  N_33
   13  A    between atoms: N_33  and  C_61
   14  A    between atoms: N_34  and  N_40
   15  A    between atoms: N_42  and  N_44
   16  A    between atoms: C_43  and  N_44
   17  A    between atoms: C_43  and  C_60
   18  A    between atoms: C_51  and  C_60
                            x       y       z     vdW  Elec       q    Type
                         _______ _______ _______ _____ _____    ______ ____

>  <TORSDO>
F 18

$$$$
