=
 OpenBabel11032419253D

 51 53  0  0  1  0  0  0  0  0999 V2000
  183.7840  178.7230  145.3840 C   0  0  0  0  0  3  0  0  0  0  0  0
  183.3490  178.5300  141.9230 C   0  0  1  0  0  3  0  0  0  0  0  0
  184.8460  178.8370  141.8710 C   0  0  0  0  0  0  0  0  0  0  0  0
  183.0950  178.9060  144.2890 C   0  0  0  0  0  0  0  0  0  0  0  0
  185.9720  178.7420  144.0990 C   0  0  0  0  0  2  0  0  0  0  0  0
  185.2440  179.0860  145.4150 C   0  0  2  0  0  3  0  0  0  0  0  0
  185.5370  179.6460  142.9420 C   0  0  0  0  0  2  0  0  0  0  0  0
  185.5700  178.2830  140.8830 C   0  0  0  0  0  3  0  0  0  0  0  0
  182.5960  179.0860  143.1010 C   0  0  0  0  0  3  0  0  0  0  0  0
  182.5980  179.8550  138.3360 C   0  0  1  0  0  3  0  0  0  0  0  0
  183.2580  179.5140  139.6490 C   0  0  0  0  0  3  0  0  0  0  0  0
  179.3210  179.6050  141.1880 O   0  0  0  0  0  0  0  0  0  0  0  0
  180.2760  179.5350  140.3750 C   0  0  0  0  0  0  0  0  0  0  0  0
  180.4070  180.5960  139.3570 C   0  0  0  0  0  3  0  0  0  0  0  0
  180.8330  177.4700  141.4230 F   0  0  0  0  0  0  0  0  0  0  0  0
  182.2720  178.6190  137.5150 C   0  0  0  0  0  1  0  0  0  0  0  0
  181.4060  180.7700  138.4650 C   0  0  0  0  0  0  0  0  0  0  0  0
  181.2160  178.3670  140.4370 C   0  0  2  0  0  3  0  0  0  0  0  0
  182.6380  178.8240  140.6260 C   0  0  0  0  0  0  0  0  0  0  0  0
  181.2870  181.8150  137.4920 N   0  0  0  0  0  2  0  0  0  0  0  0
  179.8870  185.3620  137.7170 C   0  0  0  0  0  1  0  0  0  0  0  0
  180.8400  184.2390  137.4900 C   0  0  0  0  0  0  0  0  0  0  0  0
  182.0230  184.4860  137.1230 O   0  0  0  0  0  0  0  0  0  0  0  0
  180.4010  182.8940  137.6730 N   0  0  0  0  0  2  0  0  0  0  0  0
  187.5330  178.2740  139.3320 C   0  0  1  0  0  0  0  0  0  0  0  0
  188.8680  178.9150  138.9880 C   0  0  0  0  0  1  0  0  0  0  0  0
  187.6550  177.2850  140.3280 O   0  0  0  0  0  0  0  0  0  0  0  0
  187.0490  178.5010  140.7190 C   0  0  2  0  0  3  0  0  0  0  0  0
  186.9230  177.2370  137.1150 C   0  0  0  0  0  3  0  0  0  0  0  0
  186.5750  177.8890  138.2320 C   0  0  0  0  0  3  0  0  0  0  0  0
  188.3160  176.8030  136.8020 C   0  0  0  0  0  2  0  0  0  0  0  0
  188.5010  175.4510  137.1900 O   0  0  0  0  0  0  0  0  0  0  0  0
  189.7770  174.9130  137.3810 C   0  0  0  0  0  0  0  0  0  0  0  0
  189.9360  173.6620  137.4630 O   0  0  0  0  0  0  0  0  0  0  0  0
  190.8740  175.7720  137.4910 O   0  0  0  0  0  0  0  0  0  0  0  0
  192.1960  175.2850  137.7080 C   0  0  0  0  0  2  0  0  0  0  0  0
  193.0790  176.4050  138.2280 C   0  0  0  0  0  1  0  0  0  0  0  0
  185.8870  178.3140  146.5570 C   0  0  0  0  0  2  0  0  0  0  0  0
  186.9000  177.3980  146.0490 N   0  0  0  0  0  2  0  0  0  0  0  0
  188.7210  176.1540  147.5170 O   0  0  0  0  0  0  0  0  0  0  0  0
  188.2880  177.5320  147.0800 S   0  0  0  0  0  0  0  0  0  0  0  0
  187.9320  178.3450  148.3050 O   0  0  0  0  0  0  0  0  0  0  0  0
  189.6370  178.3470  146.2060 C   0  0  0  0  0  2  0  0  0  0  0  0
  189.2450  176.6360  144.5450 O   0  0  0  0  0  1  0  0  0  0  0  0
  190.2210  177.5220  145.0380 C   0  0  2  0  0  0  0  0  0  0  0  0
  191.3870  176.7290  145.5800 C   0  0  0  0  0  0  0  0  0  0  0  0
  191.8840  176.9860  146.8610 O   0  0  0  0  0  1  0  0  0  0  0  0
  191.8770  175.7760  144.9000 O   0  0  0  0  0  0  0  0  0  0  0  0
  190.6650  178.4680  143.9120 C   0  0  0  0  0  2  0  0  0  0  0  0
  191.4340  177.3720  141.8290 C   0  0  0  0  0  1  0  0  0  0  0  0
  190.2400  177.9890  142.5350 C   0  0  0  0  0  2  0  0  0  0  0  0
  1  6  1  0  0  0  0
  2 19  1  6  0  0  0
  2  9  1  0  0  0  0
  3  2  1  0  0  0  0
  3  7  1  0  0  0  0
  4  1  2  0  0  0  0
  5  6  1  0  0  0  0
  6 38  1  1  0  0  0
  7  5  1  0  0  0  0
  8  3  2  0  0  0  0
  9  4  2  0  0  0  0
 10 16  1  1  0  0  0
 10 17  1  0  0  0  0
 10 11  1  0  0  0  0
 11 19  2  0  0  0  0
 13 18  1  0  0  0  0
 13 12  2  0  0  0  0
 14 13  1  0  0  0  0
 17 14  2  0  0  0  0
 18 19  1  0  0  0  0
 18 15  1  1  0  0  0
 20 24  1  0  0  0  0
 20 17  1  0  0  0  0
 22 24  1  0  0  0  0
 22 21  1  0  0  0  0
 23 22  2  0  0  0  0
 25 26  1  6  0  0  0
 25 27  1  0  0  0  0
 25 28  1  0  0  0  0
 27 28  1  0  0  0  0
 28  8  1  6  0  0  0
 29 30  2  0  0  0  0
 30 25  1  0  0  0  0
 31 29  1  0  0  0  0
 31 32  1  0  0  0  0
 32 33  1  0  0  0  0
 33 34  2  0  0  0  0
 33 35  1  0  0  0  0
 35 36  1  0  0  0  0
 36 37  1  0  0  0  0
 39 38  1  0  0  0  0
 39 41  1  0  0  0  0
 41 40  2  0  0  0  0
 41 42  2  0  0  0  0
 43 41  1  0  0  0  0
 45 44  1  6  0  0  0
 45 46  1  0  0  0  0
 45 43  1  0  0  0  0
 46 47  1  0  0  0  0
 48 46  2  0  0  0  0
 49 45  1  0  0  0  0
 50 51  1  0  0  0  0
 51 49  1  0  0  0  0
M  END
>  <MODEL>
1

>  <REMARK>
 VINA RESULT:      -7.8      0.000      0.000
  Name = 
  18 active torsions:
  status: ('A' for Active; 'I' for Inactive)
    1  A    between atoms: C_3  and  C_51
    2  A    between atoms: C_8  and  C_32
    3  A    between atoms: C_10  and  C_12
    4  A    between atoms: C_11  and  O_27
    5  A    between atoms: C_12  and  N_36
    6  A    between atoms: C_13  and  C_44
    7  A    between atoms: C_13  and  C_45
    8  A    between atoms: S_16  and  C_18
    9  A    between atoms: S_16  and  N_36
   10  A    between atoms: O_17  and  C_46
   11  A    between atoms: O_17  and  C_47
   12  A    between atoms: C_18  and  C_45
   13  A    between atoms: C_21  and  C_39
   14  A    between atoms: C_24  and  C_45
   15  A    between atoms: N_25  and  N_43
   16  A    between atoms: O_27  and  C_46
   17  A    between atoms: C_29  and  C_47
   18  A    between atoms: N_43  and  C_48
                            x       y       z     vdW  Elec       q    Type
                         _______ _______ _______ _____ _____    ______ ____

>  <TORSDO>
F 18

$$$$
=
 OpenBabel11032419253D

 51 53  0  0  1  0  0  0  0  0999 V2000
  183.7020  178.6920  145.2630 C   0  0  0  0  0  3  0  0  0  0  0  0
  183.3380  178.4290  141.7990 C   0  0  1  0  0  3  0  0  0  0  0  0
  184.8250  178.7860  141.7700 C   0  0  0  0  0  0  0  0  0  0  0  0
  183.0280  178.8340  144.1540 C   0  0  0  0  0  0  0  0  0  0  0  0
  185.9120  178.7640  144.0190 C   0  0  0  0  0  2  0  0  0  0  0  0
  185.1490  179.1040  145.3150 C   0  0  2  0  0  3  0  0  0  0  0  0
  185.4680  179.6350  142.8380 C   0  0  0  0  0  2  0  0  0  0  0  0
  185.5850  178.2410  140.8030 C   0  0  0  0  0  3  0  0  0  0  0  0
  182.5450  178.9780  142.9540 C   0  0  0  0  0  3  0  0  0  0  0  0
  182.5850  179.7200  138.2000 C   0  0  1  0  0  3  0  0  0  0  0  0
  183.2340  179.4210  139.5290 C   0  0  0  0  0  3  0  0  0  0  0  0
  179.2620  179.2020  140.9600 O   0  0  0  0  0  0  0  0  0  0  0  0
  180.2410  179.2100  140.1730 C   0  0  0  0  0  0  0  0  0  0  0  0
  180.3180  180.2850  139.1650 C   0  0  0  0  0  3  0  0  0  0  0  0
  180.9240  177.1850  141.2250 F   0  0  0  0  0  0  0  0  0  0  0  0
  182.3770  178.4690  137.3640 C   0  0  0  0  0  1  0  0  0  0  0  0
  181.3240  180.5410  138.3020 C   0  0  0  0  0  0  0  0  0  0  0  0
  181.2650  178.1160  140.2540 C   0  0  2  0  0  3  0  0  0  0  0  0
  182.6420  178.6790  140.4850 C   0  0  0  0  0  0  0  0  0  0  0  0
  181.1530  181.5820  137.3310 N   0  0  0  0  0  2  0  0  0  0  0  0
  180.1020  185.2550  137.3330 C   0  0  0  0  0  1  0  0  0  0  0  0
  180.2260  183.8290  136.9190 C   0  0  0  0  0  0  0  0  0  0  0  0
  179.6360  183.4250  135.8770 O   0  0  0  0  0  0  0  0  0  0  0  0
  180.9960  182.9270  137.7130 N   0  0  0  0  0  2  0  0  0  0  0  0
  187.5820  178.2440  139.2960 C   0  0  1  0  0  0  0  0  0  0  0  0
  188.9010  178.9190  138.9570 C   0  0  0  0  0  1  0  0  0  0  0  0
  187.7170  177.2990  140.3330 O   0  0  0  0  0  0  0  0  0  0  0  0
  187.0590  178.5060  140.6630 C   0  0  2  0  0  3  0  0  0  0  0  0
  186.9990  176.8970  137.2450 C   0  0  0  0  0  3  0  0  0  0  0  0
  186.6630  177.7820  138.1920 C   0  0  0  0  0  3  0  0  0  0  0  0
  188.3370  176.2430  137.1500 C   0  0  0  0  0  2  0  0  0  0  0  0
  188.1840  174.8370  137.0440 O   0  0  0  0  0  0  0  0  0  0  0  0
  187.0020  174.2630  136.5670 C   0  0  0  0  0  0  0  0  0  0  0  0
  186.9460  173.8020  135.3920 O   0  0  0  0  0  0  0  0  0  0  0  0
  185.8800  174.2130  137.3990 O   0  0  0  0  0  0  0  0  0  0  0  0
  184.6800  173.5500  137.0110 C   0  0  0  0  0  2  0  0  0  0  0  0
  183.4760  174.3230  137.5180 C   0  0  0  0  0  1  0  0  0  0  0  0
  185.7960  178.3740  146.4810 C   0  0  0  0  0  2  0  0  0  0  0  0
  186.8860  177.5270  146.0130 N   0  0  0  0  0  2  0  0  0  0  0  0
  188.3700  176.1690  147.7370 O   0  0  0  0  0  0  0  0  0  0  0  0
  188.1310  177.5660  147.2210 S   0  0  0  0  0  0  0  0  0  0  0  0
  187.6920  178.4440  148.3720 O   0  0  0  0  0  0  0  0  0  0  0  0
  189.6540  178.2290  146.5240 C   0  0  0  0  0  2  0  0  0  0  0  0
  189.1490  176.6070  144.8050 O   0  0  0  0  0  1  0  0  0  0  0  0
  190.1520  177.4800  145.2670 C   0  0  2  0  0  0  0  0  0  0  0  0
  191.3670  176.6750  145.6690 C   0  0  0  0  0  0  0  0  0  0  0  0
  191.9110  175.7320  144.7930 O   0  0  0  0  0  0  0  0  0  0  0  0
  191.9410  176.9030  146.7770 O   0  0  0  0  0  1  0  0  0  0  0  0
  190.4930  178.4930  144.1660 C   0  0  0  0  0  2  0  0  0  0  0  0
  190.9160  177.5730  141.9050 C   0  0  0  0  0  1  0  0  0  0  0  0
  189.8570  178.1500  142.8290 C   0  0  0  0  0  2  0  0  0  0  0  0
  1  6  1  0  0  0  0
  2 19  1  6  0  0  0
  2  9  1  0  0  0  0
  3  2  1  0  0  0  0
  3  7  1  0  0  0  0
  4  1  2  0  0  0  0
  5  6  1  0  0  0  0
  6 38  1  1  0  0  0
  7  5  1  0  0  0  0
  8  3  2  0  0  0  0
  9  4  2  0  0  0  0
 10 16  1  1  0  0  0
 10 17  1  0  0  0  0
 10 11  1  0  0  0  0
 11 19  2  0  0  0  0
 13 18  1  0  0  0  0
 13 12  2  0  0  0  0
 14 13  1  0  0  0  0
 17 14  2  0  0  0  0
 18 19  1  0  0  0  0
 18 15  1  1  0  0  0
 20 24  1  0  0  0  0
 20 17  1  0  0  0  0
 22 21  1  0  0  0  0
 22 24  1  0  0  0  0
 23 22  2  0  0  0  0
 25 26  1  6  0  0  0
 25 27  1  0  0  0  0
 25 28  1  0  0  0  0
 27 28  1  0  0  0  0
 28  8  1  6  0  0  0
 29 30  2  0  0  0  0
 30 25  1  0  0  0  0
 31 29  1  0  0  0  0
 32 31  1  0  0  0  0
 33 32  1  0  0  0  0
 33 35  1  0  0  0  0
 34 33  2  0  0  0  0
 36 35  1  0  0  0  0
 36 37  1  0  0  0  0
 39 38  1  0  0  0  0
 39 41  1  0  0  0  0
 41 40  2  0  0  0  0
 41 42  2  0  0  0  0
 43 41  1  0  0  0  0
 45 44  1  6  0  0  0
 45 46  1  0  0  0  0
 45 43  1  0  0  0  0
 46 48  1  0  0  0  0
 47 46  2  0  0  0  0
 49 45  1  0  0  0  0
 50 51  1  0  0  0  0
 51 49  1  0  0  0  0
M  END
>  <MODEL>
2

>  <REMARK>
 VINA RESULT:      -7.1      1.229      2.126
  Name = 
  18 active torsions:
  status: ('A' for Active; 'I' for Inactive)
    1  A    between atoms: C_3  and  C_51
    2  A    between atoms: C_8  and  C_32
    3  A    between atoms: C_10  and  C_12
    4  A    between atoms: C_11  and  O_27
    5  A    between atoms: C_12  and  N_36
    6  A    between atoms: C_13  and  C_44
    7  A    between atoms: C_13  and  C_45
    8  A    between atoms: S_16  and  C_18
    9  A    between atoms: S_16  and  N_36
   10  A    between atoms: O_17  and  C_46
   11  A    between atoms: O_17  and  C_47
   12  A    between atoms: C_18  and  C_45
   13  A    between atoms: C_21  and  C_39
   14  A    between atoms: C_24  and  C_45
   15  A    between atoms: N_25  and  N_43
   16  A    between atoms: O_27  and  C_46
   17  A    between atoms: C_29  and  C_47
   18  A    between atoms: N_43  and  C_48
                            x       y       z     vdW  Elec       q    Type
                         _______ _______ _______ _____ _____    ______ ____

>  <TORSDO>
F 18

$$$$
=
 OpenBabel11032419253D

 51 53  0  0  1  0  0  0  0  0999 V2000
  191.5130  177.2390  141.9470 C   0  0  0  0  0  3  0  0  0  0  0  0
  188.9590  177.7950  139.6300 C   0  0  1  0  0  3  0  0  0  0  0  0
  188.0460  177.7550  140.8560 C   0  0  0  0  0  0  0  0  0  0  0  0
  190.9550  177.0830  140.7770 C   0  0  0  0  0  0  0  0  0  0  0  0
  189.2770  177.7560  143.0300 C   0  0  0  0  0  2  0  0  0  0  0  0
  190.6760  177.1290  143.1940 C   0  0  2  0  0  3  0  0  0  0  0  0
  188.3850  176.9450  142.0830 C   0  0  0  0  0  2  0  0  0  0  0  0
  186.9580  178.5450  140.8570 C   0  0  0  0  0  3  0  0  0  0  0  0
  190.2180  176.9740  139.7100 C   0  0  0  0  0  3  0  0  0  0  0  0
  186.3910  176.4300  137.0360 C   0  0  1  0  0  3  0  0  0  0  0  0
  187.1590  176.7280  138.3000 C   0  0  0  0  0  3  0  0  0  0  0  0
  190.4330  177.3150  135.6900 O   0  0  0  0  0  0  0  0  0  0  0  0
  189.2540  177.1990  136.1070 C   0  0  0  0  0  0  0  0  0  0  0  0
  188.4370  176.0840  135.5920 C   0  0  0  0  0  3  0  0  0  0  0  0
  189.6400  179.2030  137.3360 F   0  0  0  0  0  0  0  0  0  0  0  0
  185.6970  177.6610  136.4780 C   0  0  0  0  0  1  0  0  0  0  0  0
  187.1970  175.7160  135.9800 C   0  0  0  0  0  0  0  0  0  0  0  0
  188.7070  178.2110  137.0710 C   0  0  2  0  0  3  0  0  0  0  0  0
  188.2250  177.5510  138.3350 C   0  0  0  0  0  0  0  0  0  0  0  0
  186.5390  174.6560  135.2740 N   0  0  0  0  0  2  0  0  0  0  0  0
  184.2340  172.2850  137.1890 C   0  0  0  0  0  1  0  0  0  0  0  0
  185.4770  172.9370  136.6870 C   0  0  0  0  0  0  0  0  0  0  0  0
  186.6040  172.5200  137.0770 O   0  0  0  0  0  0  0  0  0  0  0  0
  185.3810  174.0390  135.7850 N   0  0  0  0  0  2  0  0  0  0  0  0
  184.5940  178.9370  141.5780 C   0  0  1  0  0  0  0  0  0  0  0  0
  183.5000  178.5560  142.5620 C   0  0  0  0  0  1  0  0  0  0  0  0
  185.4640  179.9160  142.0990 O   0  0  0  0  0  0  0  0  0  0  0  0
  185.9810  178.6040  142.0000 C   0  0  2  0  0  3  0  0  0  0  0  0
  183.6390  178.2620  139.3430 C   0  0  0  0  0  3  0  0  0  0  0  0
  184.2600  179.1570  140.1240 C   0  0  0  0  0  3  0  0  0  0  0  0
  183.1910  176.9170  139.8090 C   0  0  0  0  0  2  0  0  0  0  0  0
  183.0320  176.0480  138.6990 O   0  0  0  0  0  0  0  0  0  0  0  0
  181.7760  175.5620  138.3240 C   0  0  0  0  0  0  0  0  0  0  0  0
  180.7280  176.0230  138.8580 O   0  0  0  0  0  0  0  0  0  0  0  0
  181.6920  174.5530  137.3600 O   0  0  0  0  0  0  0  0  0  0  0  0
  181.3900  174.8350  135.9960 C   0  0  0  0  0  2  0  0  0  0  0  0
  182.3180  175.9190  135.4760 C   0  0  0  0  0  1  0  0  0  0  0  0
  191.4170  177.8470  144.3120 C   0  0  0  0  0  2  0  0  0  0  0  0
  192.0680  176.8860  145.1930 N   0  0  0  0  0  2  0  0  0  0  0  0
  191.1790  178.0300  147.4100 O   0  0  0  0  0  0  0  0  0  0  0  0
  191.0950  176.7460  146.6220 S   0  0  0  0  0  0  0  0  0  0  0  0
  191.6130  175.6120  147.4780 O   0  0  0  0  0  0  0  0  0  0  0  0
  189.3810  176.4120  146.1790 C   0  0  0  0  0  2  0  0  0  0  0  0
  188.9560  178.7900  146.2460 O   0  0  0  0  0  1  0  0  0  0  0  0
  188.3980  177.5380  146.5680 C   0  0  2  0  0  0  0  0  0  0  0  0
  188.1810  177.4580  148.0610 C   0  0  0  0  0  0  0  0  0  0  0  0
  187.9700  176.2220  148.6800 O   0  0  0  0  0  0  0  0  0  0  0  0
  188.2600  178.5060  148.7710 O   0  0  0  0  0  1  0  0  0  0  0  0
  187.0790  177.3560  145.8030 C   0  0  0  0  0  2  0  0  0  0  0  0
  184.9380  178.4210  146.4510 C   0  0  0  0  0  1  0  0  0  0  0  0
  186.2580  178.6320  145.7280 C   0  0  0  0  0  2  0  0  0  0  0  0
  1  6  1  0  0  0  0
  2 19  1  6  0  0  0
  2  9  1  0  0  0  0
  2  3  1  0  0  0  0
  3  8  2  0  0  0  0
  3  7  1  0  0  0  0
  4  1  2  0  0  0  0
  5  6  1  0  0  0  0
  6 38  1  1  0  0  0
  7  5  1  0  0  0  0
  9  4  2  0  0  0  0
 10 16  1  6  0  0  0
 10 11  1  0  0  0  0
 11 19  2  0  0  0  0
 12 13  2  0  0  0  0
 13 18  1  0  0  0  0
 14 17  2  0  0  0  0
 14 13  1  0  0  0  0
 17 10  1  0  0  0  0
 18 15  1  1  0  0  0
 18 19  1  0  0  0  0
 20 24  1  0  0  0  0
 20 17  1  0  0  0  0
 22 23  2  0  0  0  0
 22 21  1  0  0  0  0
 24 22  1  0  0  0  0
 25 28  1  0  0  0  0
 25 27  1  0  0  0  0
 25 26  1  1  0  0  0
 28  8  1  6  0  0  0
 28 27  1  0  0  0  0
 29 31  1  0  0  0  0
 29 30  2  0  0  0  0
 30 25  1  0  0  0  0
 32 31  1  0  0  0  0
 33 32  1  0  0  0  0
 33 34  2  0  0  0  0
 35 33  1  0  0  0  0
 36 35  1  0  0  0  0
 37 36  1  0  0  0  0
 38 39  1  0  0  0  0
 39 41  1  0  0  0  0
 41 40  2  0  0  0  0
 41 42  2  0  0  0  0
 43 45  1  0  0  0  0
 43 41  1  0  0  0  0
 45 44  1  6  0  0  0
 45 46  1  0  0  0  0
 46 47  2  0  0  0  0
 46 48  1  0  0  0  0
 49 45  1  0  0  0  0
 51 49  1  0  0  0  0
 51 50  1  0  0  0  0
M  END
>  <MODEL>
3

>  <REMARK>
 VINA RESULT:      -6.7      3.683      7.266
  Name = 
  18 active torsions:
  status: ('A' for Active; 'I' for Inactive)
    1  A    between atoms: C_3  and  C_51
    2  A    between atoms: C_8  and  C_32
    3  A    between atoms: C_10  and  C_12
    4  A    between atoms: C_11  and  O_27
    5  A    between atoms: C_12  and  N_36
    6  A    between atoms: C_13  and  C_44
    7  A    between atoms: C_13  and  C_45
    8  A    between atoms: S_16  and  C_18
    9  A    between atoms: S_16  and  N_36
   10  A    between atoms: O_17  and  C_46
   11  A    between atoms: O_17  and  C_47
   12  A    between atoms: C_18  and  C_45
   13  A    between atoms: C_21  and  C_39
   14  A    between atoms: C_24  and  C_45
   15  A    between atoms: N_25  and  N_43
   16  A    between atoms: O_27  and  C_46
   17  A    between atoms: C_29  and  C_47
   18  A    between atoms: N_43  and  C_48
                            x       y       z     vdW  Elec       q    Type
                         _______ _______ _______ _____ _____    ______ ____

>  <TORSDO>
F 18

$$$$
=
 OpenBabel11032419253D

 51 53  0  0  1  0  0  0  0  0999 V2000
  186.8780  176.7610  136.5550 C   0  0  0  0  0  3  0  0  0  0  0  0
  190.0350  175.4580  137.2920 C   0  0  1  0  0  3  0  0  0  0  0  0
  190.1690  176.6930  138.1820 C   0  0  0  0  0  0  0  0  0  0  0  0
  187.9760  176.1290  136.2350 C   0  0  0  0  0  0  0  0  0  0  0  0
  188.0420  177.9740  138.4570 C   0  0  0  0  0  2  0  0  0  0  0  0
  186.9570  178.0300  137.3620 C   0  0  2  0  0  3  0  0  0  0  0  0
  189.4580  177.9880  137.8720 C   0  0  0  0  0  2  0  0  0  0  0  0
  190.8730  176.5750  139.3220 C   0  0  0  0  0  3  0  0  0  0  0  0
  189.1560  175.6040  136.0790 C   0  0  0  0  0  3  0  0  0  0  0  0
  192.9460  172.8860  136.9810 C   0  0  1  0  0  3  0  0  0  0  0  0
  191.6340  173.5630  137.2910 C   0  0  0  0  0  3  0  0  0  0  0  0
  193.9310  177.1120  137.2990 O   0  0  0  0  0  0  0  0  0  0  0  0
  193.5830  175.9250  137.0830 C   0  0  0  0  0  0  0  0  0  0  0  0
  194.3910  174.8410  137.6750 C   0  0  0  0  0  3  0  0  0  0  0  0
  191.8590  176.8270  135.7100 F   0  0  0  0  0  0  0  0  0  0  0  0
  193.1700  172.7170  135.4880 C   0  0  0  0  0  1  0  0  0  0  0  0
  194.1380  173.5150  137.6580 C   0  0  0  0  0  0  0  0  0  0  0  0
  192.3950  175.6490  136.2080 C   0  0  2  0  0  3  0  0  0  0  0  0
  191.3610  174.8340  136.9380 C   0  0  0  0  0  0  0  0  0  0  0  0
  195.1120  172.6190  138.2090 N   0  0  0  0  0  2  0  0  0  0  0  0
  198.4960  171.3340  136.9870 C   0  0  0  0  0  1  0  0  0  0  0  0
  197.0850  171.3410  137.4660 C   0  0  0  0  0  0  0  0  0  0  0  0
  196.4700  170.2480  137.6190 O   0  0  0  0  0  0  0  0  0  0  0  0
  196.4350  172.5840  137.7300 N   0  0  0  0  0  2  0  0  0  0  0  0
  190.7860  177.3510  141.6990 C   0  0  1  0  0  0  0  0  0  0  0  0
  191.4070  178.2560  142.7500 C   0  0  0  0  0  1  0  0  0  0  0  0
  189.8440  178.0280  140.8990 O   0  0  0  0  0  0  0  0  0  0  0  0
  191.0790  177.7110  140.2870 C   0  0  2  0  0  3  0  0  0  0  0  0
  189.3600  175.6640  142.9180 C   0  0  0  0  0  3  0  0  0  0  0  0
  190.3530  175.9530  142.0660 C   0  0  0  0  0  3  0  0  0  0  0  0
  188.5430  176.6930  143.6270 C   0  0  0  0  0  2  0  0  0  0  0  0
  189.0490  176.8950  144.9370 O   0  0  0  0  0  0  0  0  0  0  0  0
  188.2310  177.3510  145.9750 C   0  0  0  0  0  0  0  0  0  0  0  0
  188.7410  177.8820  147.0020 O   0  0  0  0  0  0  0  0  0  0  0  0
  186.8450  177.2050  145.8700 O   0  0  0  0  0  0  0  0  0  0  0  0
  185.9980  178.2850  145.4840 C   0  0  0  0  0  2  0  0  0  0  0  0
  185.6250  179.1080  146.7030 C   0  0  0  0  0  1  0  0  0  0  0  0
  185.6000  178.2460  138.0140 C   0  0  0  0  0  2  0  0  0  0  0  0
  185.6570  177.9190  139.4330 N   0  0  0  0  0  2  0  0  0  0  0  0
  184.3090  180.1980  139.3380 O   0  0  0  0  0  0  0  0  0  0  0  0
  184.6660  179.0690  140.2730 S   0  0  0  0  0  0  0  0  0  0  0  0
  185.4310  179.6320  141.4500 O   0  0  0  0  0  0  0  0  0  0  0  0
  183.1640  178.2760  140.8740 C   0  0  0  0  0  2  0  0  0  0  0  0
  182.4250  178.4110  138.5780 O   0  0  0  0  0  1  0  0  0  0  0  0
  182.2850  177.6620  139.7610 C   0  0  2  0  0  0  0  0  0  0  0  0
  180.8500  177.7270  140.2270 C   0  0  0  0  0  0  0  0  0  0  0  0
  179.8100  177.3560  139.3690 O   0  0  0  0  0  0  0  0  0  0  0  0
  180.5850  178.0530  141.4240 O   0  0  0  0  0  1  0  0  0  0  0  0
  182.7220  176.2130  139.5010 C   0  0  0  0  0  2  0  0  0  0  0  0
  183.7030  174.6710  137.8300 C   0  0  0  0  0  1  0  0  0  0  0  0
  182.7960  175.8740  138.0230 C   0  0  0  0  0  2  0  0  0  0  0  0
  1  6  1  0  0  0  0
  2 19  1  6  0  0  0
  2  3  1  0  0  0  0
  3  8  2  0  0  0  0
  4  1  2  0  0  0  0
  6 38  1  1  0  0  0
  6  5  1  0  0  0  0
  7  3  1  0  0  0  0
  7  5  1  0  0  0  0
  9  4  2  0  0  0  0
  9  2  1  0  0  0  0
 10 16  1  6  0  0  0
 10 11  1  0  0  0  0
 10 17  1  0  0  0  0
 13 12  2  0  0  0  0
 13 14  1  0  0  0  0
 17 14  2  0  0  0  0
 17 20  1  0  0  0  0
 18 15  1  1  0  0  0
 18 19  1  0  0  0  0
 18 13  1  0  0  0  0
 19 11  2  0  0  0  0
 21 22  1  0  0  0  0
 22 23  2  0  0  0  0
 22 24  1  0  0  0  0
 24 20  1  0  0  0  0
 25 30  1  0  0  0  0
 25 26  1  1  0  0  0
 27 25  1  0  0  0  0
 28  8  1  6  0  0  0
 28 27  1  0  0  0  0
 28 25  1  0  0  0  0
 29 31  1  0  0  0  0
 30 29  2  0  0  0  0
 31 32  1  0  0  0  0
 32 33  1  0  0  0  0
 33 34  2  0  0  0  0
 35 33  1  0  0  0  0
 36 35  1  0  0  0  0
 36 37  1  0  0  0  0
 38 39  1  0  0  0  0
 39 41  1  0  0  0  0
 40 41  2  0  0  0  0
 41 43  1  0  0  0  0
 41 42  2  0  0  0  0
 45 44  1  6  0  0  0
 45 46  1  0  0  0  0
 45 43  1  0  0  0  0
 46 48  1  0  0  0  0
 47 46  2  0  0  0  0
 49 45  1  0  0  0  0
 50 51  1  0  0  0  0
 51 49  1  0  0  0  0
M  END
>  <MODEL>
4

>  <REMARK>
 VINA RESULT:      -6.4      4.316     11.231
  Name = 
  18 active torsions:
  status: ('A' for Active; 'I' for Inactive)
    1  A    between atoms: C_3  and  C_51
    2  A    between atoms: C_8  and  C_32
    3  A    between atoms: C_10  and  C_12
    4  A    between atoms: C_11  and  O_27
    5  A    between atoms: C_12  and  N_36
    6  A    between atoms: C_13  and  C_44
    7  A    between atoms: C_13  and  C_45
    8  A    between atoms: S_16  and  C_18
    9  A    between atoms: S_16  and  N_36
   10  A    between atoms: O_17  and  C_46
   11  A    between atoms: O_17  and  C_47
   12  A    between atoms: C_18  and  C_45
   13  A    between atoms: C_21  and  C_39
   14  A    between atoms: C_24  and  C_45
   15  A    between atoms: N_25  and  N_43
   16  A    between atoms: O_27  and  C_46
   17  A    between atoms: C_29  and  C_47
   18  A    between atoms: N_43  and  C_48
                            x       y       z     vdW  Elec       q    Type
                         _______ _______ _______ _____ _____    ______ ____

>  <TORSDO>
F 18

$$$$
=
 OpenBabel11032419253D

 51 53  0  0  1  0  0  0  0  0999 V2000
  185.6150  178.3730  142.5310 C   0  0  0  0  0  3  0  0  0  0  0  0
  183.3230  177.2470  140.1470 C   0  0  1  0  0  3  0  0  0  0  0  0
  184.3080  177.8440  139.1410 C   0  0  0  0  0  0  0  0  0  0  0  0
  184.4010  178.1300  142.1120 C   0  0  0  0  0  0  0  0  0  0  0  0
  186.4830  178.5410  140.1520 C   0  0  0  0  0  2  0  0  0  0  0  0
  186.6030  179.0350  141.6090 C   0  0  2  0  0  3  0  0  0  0  0  0
  185.1900  179.0190  139.4830 C   0  0  0  0  0  2  0  0  0  0  0  0
  184.4430  177.2310  137.9520 C   0  0  0  0  0  3  0  0  0  0  0  0
  183.2760  177.9020  141.5010 C   0  0  0  0  0  3  0  0  0  0  0  0
  180.0340  175.5610  138.9100 C   0  0  1  0  0  3  0  0  0  0  0  0
  181.4060  175.8220  139.4810 C   0  0  0  0  0  3  0  0  0  0  0  0
  181.3920  179.1820  136.9150 O   0  0  0  0  0  0  0  0  0  0  0  0
  180.9850  178.2170  137.6080 C   0  0  0  0  0  0  0  0  0  0  0  0
  180.3090  177.0990  136.9220 C   0  0  0  0  0  3  0  0  0  0  0  0
  181.7470  179.4400  139.5050 F   0  0  0  0  0  0  0  0  0  0  0  0
  178.9310  176.1740  139.7550 C   0  0  0  0  0  1  0  0  0  0  0  0
  179.8930  175.9300  137.4540 C   0  0  0  0  0  0  0  0  0  0  0  0
  181.1600  178.2510  139.0990 C   0  0  2  0  0  3  0  0  0  0  0  0
  181.9380  177.0560  139.5800 C   0  0  0  0  0  0  0  0  0  0  0  0
  179.1630  175.0150  136.6260 N   0  0  0  0  0  2  0  0  0  0  0  0
  180.3500  171.4320  136.0370 C   0  0  0  0  0  1  0  0  0  0  0  0
  179.6620  172.6010  136.6540 C   0  0  0  0  0  0  0  0  0  0  0  0
  178.9670  172.4400  137.6960 O   0  0  0  0  0  0  0  0  0  0  0  0
  179.7800  173.8890  136.0500 N   0  0  0  0  0  2  0  0  0  0  0  0
  185.8340  176.6340  135.9590 C   0  0  1  0  0  0  0  0  0  0  0  0
  186.3690  177.0980  134.6150 C   0  0  0  0  0  1  0  0  0  0  0  0
  186.6310  177.0760  137.0340 O   0  0  0  0  0  0  0  0  0  0  0  0
  185.3780  177.7120  136.8760 C   0  0  2  0  0  3  0  0  0  0  0  0
  185.9620  174.1360  135.6330 C   0  0  0  0  0  3  0  0  0  0  0  0
  185.3460  175.2170  136.1300 C   0  0  0  0  0  3  0  0  0  0  0  0
  187.2220  174.1870  134.8360 C   0  0  0  0  0  2  0  0  0  0  0  0
  188.3370  174.3460  135.6990 O   0  0  0  0  0  0  0  0  0  0  0  0
  188.9720  173.2470  136.2860 C   0  0  0  0  0  0  0  0  0  0  0  0
  188.7140  172.0750  135.8890 O   0  0  0  0  0  0  0  0  0  0  0  0
  189.8860  173.4560  137.3220 O   0  0  0  0  0  0  0  0  0  0  0  0
  191.2120  173.9180  137.0770 C   0  0  0  0  0  2  0  0  0  0  0  0
  191.4140  175.2760  137.7250 C   0  0  0  0  0  1  0  0  0  0  0  0
  187.9990  178.7230  142.1280 C   0  0  0  0  0  2  0  0  0  0  0  0
  188.8590  178.2720  141.0420 N   0  0  0  0  0  2  0  0  0  0  0  0
  191.4030  177.9470  141.7090 O   0  0  0  0  0  0  0  0  0  0  0  0
  190.0700  177.2390  141.7310 S   0  0  0  0  0  0  0  0  0  0  0  0
  190.1770  175.9700  140.9140 O   0  0  0  0  0  0  0  0  0  0  0  0
  189.6330  176.8110  143.4260 C   0  0  0  0  0  2  0  0  0  0  0  0
  191.0350  178.7230  143.8920 O   0  0  0  0  0  1  0  0  0  0  0  0
  190.3870  177.6300  144.4980 C   0  0  2  0  0  0  0  0  0  0  0  0
  191.4200  176.7210  145.1220 C   0  0  0  0  0  0  0  0  0  0  0  0
  191.8930  175.6050  144.4260 O   0  0  0  0  0  0  0  0  0  0  0  0
  191.9150  177.0060  146.2550 O   0  0  0  0  0  1  0  0  0  0  0  0
  189.3910  178.1450  145.5460 C   0  0  0  0  0  2  0  0  0  0  0  0
  187.0120  177.6880  146.0630 C   0  0  0  0  0  1  0  0  0  0  0  0
  188.4030  177.0820  145.9950 C   0  0  0  0  0  2  0  0  0  0  0  0
  2 19  1  6  0  0  0
  2  9  1  0  0  0  0
  3  7  1  0  0  0  0
  3  2  1  0  0  0  0
  4  1  2  0  0  0  0
  5  6  1  0  0  0  0
  6 38  1  1  0  0  0
  6  1  1  0  0  0  0
  7  5  1  0  0  0  0
  8  3  2  0  0  0  0
  9  4  2  0  0  0  0
 10 11  1  0  0  0  0
 10 16  1  1  0  0  0
 11 19  2  0  0  0  0
 12 13  2  0  0  0  0
 13 18  1  0  0  0  0
 14 17  2  0  0  0  0
 14 13  1  0  0  0  0
 17 10  1  0  0  0  0
 18 15  1  6  0  0  0
 18 19  1  0  0  0  0
 20 17  1  0  0  0  0
 21 22  1  0  0  0  0
 22 23  2  0  0  0  0
 24 20  1  0  0  0  0
 24 22  1  0  0  0  0
 25 26  1  6  0  0  0
 25 30  1  0  0  0  0
 25 28  1  0  0  0  0
 25 27  1  0  0  0  0
 28 27  1  0  0  0  0
 28  8  1  1  0  0  0
 29 30  2  0  0  0  0
 31 29  1  0  0  0  0
 31 32  1  0  0  0  0
 32 33  1  0  0  0  0
 33 35  1  0  0  0  0
 34 33  2  0  0  0  0
 36 35  1  0  0  0  0
 36 37  1  0  0  0  0
 39 41  1  0  0  0  0
 39 38  1  0  0  0  0
 40 41  2  0  0  0  0
 41 43  1  0  0  0  0
 42 41  2  0  0  0  0
 43 45  1  0  0  0  0
 45 44  1  6  0  0  0
 45 46  1  0  0  0  0
 45 49  1  0  0  0  0
 46 48  1  0  0  0  0
 47 46  2  0  0  0  0
 49 51  1  0  0  0  0
 51 50  1  0  0  0  0
M  END
>  <MODEL>
5

>  <REMARK>
 VINA RESULT:      -6.2      3.323      5.048
  Name = 
  18 active torsions:
  status: ('A' for Active; 'I' for Inactive)
    1  A    between atoms: C_3  and  C_51
    2  A    between atoms: C_8  and  C_32
    3  A    between atoms: C_10  and  C_12
    4  A    between atoms: C_11  and  O_27
    5  A    between atoms: C_12  and  N_36
    6  A    between atoms: C_13  and  C_44
    7  A    between atoms: C_13  and  C_45
    8  A    between atoms: S_16  and  C_18
    9  A    between atoms: S_16  and  N_36
   10  A    between atoms: O_17  and  C_46
   11  A    between atoms: O_17  and  C_47
   12  A    between atoms: C_18  and  C_45
   13  A    between atoms: C_21  and  C_39
   14  A    between atoms: C_24  and  C_45
   15  A    between atoms: N_25  and  N_43
   16  A    between atoms: O_27  and  C_46
   17  A    between atoms: C_29  and  C_47
   18  A    between atoms: N_43  and  C_48
                            x       y       z     vdW  Elec       q    Type
                         _______ _______ _______ _____ _____    ______ ____

>  <TORSDO>
F 18

$$$$
=
 OpenBabel11032419253D

 51 53  0  0  1  0  0  0  0  0999 V2000
  191.4460  177.5830  141.1280 C   0  0  0  0  0  3  0  0  0  0  0  0
  188.9710  177.5230  138.6640 C   0  0  1  0  0  3  0  0  0  0  0  0
  188.0130  177.7330  139.8370 C   0  0  0  0  0  0  0  0  0  0  0  0
  190.9360  177.1500  140.0060 C   0  0  0  0  0  0  0  0  0  0  0  0
  189.1590  178.2610  141.9930 C   0  0  0  0  0  2  0  0  0  0  0  0
  190.5650  177.7310  142.3400 C   0  0  2  0  0  3  0  0  0  0  0  0
  188.3230  177.2310  141.2260 C   0  0  0  0  0  2  0  0  0  0  0  0
  186.9080  178.4690  139.6250 C   0  0  0  0  0  3  0  0  0  0  0  0
  190.2440  176.7810  138.9690 C   0  0  0  0  0  3  0  0  0  0  0  0
  186.6610  175.3970  136.3560 C   0  0  1  0  0  3  0  0  0  0  0  0
  187.3640  176.0020  137.5460 C   0  0  0  0  0  3  0  0  0  0  0  0
  190.5320  176.6620  134.8240 O   0  0  0  0  0  0  0  0  0  0  0  0
  189.3800  176.4360  135.2730 C   0  0  0  0  0  0  0  0  0  0  0  0
  188.7470  175.1430  134.9510 C   0  0  0  0  0  3  0  0  0  0  0  0
  189.4480  178.6420  136.1690 F   0  0  0  0  0  0  0  0  0  0  0  0
  185.7920  176.4060  135.6240 C   0  0  0  0  0  1  0  0  0  0  0  0
  187.5740  174.6570  135.4110 C   0  0  0  0  0  0  0  0  0  0  0  0
  188.6780  177.4920  136.0760 C   0  0  2  0  0  3  0  0  0  0  0  0
  188.2930  176.9720  137.4350 C   0  0  0  0  0  0  0  0  0  0  0  0
  187.0900  173.4130  134.8900 N   0  0  0  0  0  2  0  0  0  0  0  0
  184.2840  170.9670  135.7510 C   0  0  0  0  0  1  0  0  0  0  0  0
  185.6300  171.4870  135.3810 C   0  0  0  0  0  0  0  0  0  0  0  0
  186.5820  170.6800  135.1880 O   0  0  0  0  0  0  0  0  0  0  0  0
  185.8360  172.8950  135.2650 N   0  0  0  0  0  2  0  0  0  0  0  0
  184.4920  178.4470  140.2770 C   0  0  1  0  0  0  0  0  0  0  0  0
  183.4970  178.2550  141.4090 C   0  0  0  0  0  1  0  0  0  0  0  0
  185.0050  179.7590  140.2320 O   0  0  0  0  0  0  0  0  0  0  0  0
  185.8860  178.7540  140.6920 C   0  0  2  0  0  3  0  0  0  0  0  0
  183.2320  178.3230  138.0950 C   0  0  0  0  0  3  0  0  0  0  0  0
  184.2000  177.8810  138.9090 C   0  0  0  0  0  3  0  0  0  0  0  0
  182.3030  179.4400  138.4330 C   0  0  0  0  0  2  0  0  0  0  0  0
  180.9580  179.0060  138.3130 O   0  0  0  0  0  0  0  0  0  0  0  0
  180.1940  178.6700  139.4340 C   0  0  0  0  0  0  0  0  0  0  0  0
  179.9610  179.5310  140.3290 O   0  0  0  0  0  0  0  0  0  0  0  0
  179.7000  177.3680  139.5610 O   0  0  0  0  0  0  0  0  0  0  0  0
  180.0130  176.5480  140.6840 C   0  0  0  0  0  2  0  0  0  0  0  0
  179.6380  175.1070  140.3900 C   0  0  0  0  0  1  0  0  0  0  0  0
  191.2460  178.7040  143.2900 C   0  0  0  0  0  2  0  0  0  0  0  0
  191.9370  177.9830  144.3510 N   0  0  0  0  0  2  0  0  0  0  0  0
  191.3340  176.8020  146.6440 O   0  0  0  0  0  0  0  0  0  0  0  0
  190.7310  177.1980  145.3190 S   0  0  0  0  0  0  0  0  0  0  0  0
  190.2470  175.9520  144.6110 O   0  0  0  0  0  0  0  0  0  0  0  0
  189.3330  178.3010  145.5890 C   0  0  0  0  0  2  0  0  0  0  0  0
  188.5260  176.3730  146.8030 O   0  0  0  0  0  1  0  0  0  0  0  0
  188.1500  177.6480  146.3400 C   0  0  2  0  0  0  0  0  0  0  0  0
  187.0100  177.5070  145.3590 C   0  0  0  0  0  0  0  0  0  0  0  0
  185.8550  178.2820  145.5000 O   0  0  0  0  0  1  0  0  0  0  0  0
  187.1240  176.7320  144.3610 O   0  0  0  0  0  0  0  0  0  0  0  0
  187.7520  178.5270  147.5350 C   0  0  0  0  0  2  0  0  0  0  0  0
  189.7450  178.4560  149.0040 C   0  0  0  0  0  1  0  0  0  0  0  0
  188.3000  178.0130  148.8550 C   0  0  0  0  0  2  0  0  0  0  0  0
  1  6  1  0  0  0  0
  2 19  1  6  0  0  0
  2  9  1  0  0  0  0
  2  3  1  0  0  0  0
  3  7  1  0  0  0  0
  4  1  2  0  0  0  0
  5  6  1  0  0  0  0
  6 38  1  1  0  0  0
  7  5  1  0  0  0  0
  8  3  2  0  0  0  0
  9  4  2  0  0  0  0
 10 16  1  6  0  0  0
 10 11  1  0  0  0  0
 12 13  2  0  0  0  0
 13 18  1  0  0  0  0
 14 13  1  0  0  0  0
 14 17  2  0  0  0  0
 17 10  1  0  0  0  0
 18 15  1  1  0  0  0
 18 19  1  0  0  0  0
 19 11  2  0  0  0  0
 20 24  1  0  0  0  0
 20 17  1  0  0  0  0
 22 21  1  0  0  0  0
 23 22  2  0  0  0  0
 24 22  1  0  0  0  0
 25 28  1  0  0  0  0
 25 26  1  1  0  0  0
 27 25  1  0  0  0  0
 27 28  1  0  0  0  0
 28  8  1  6  0  0  0
 29 31  1  0  0  0  0
 29 30  2  0  0  0  0
 30 25  1  0  0  0  0
 32 31  1  0  0  0  0
 32 33  1  0  0  0  0
 33 35  1  0  0  0  0
 33 34  2  0  0  0  0
 35 36  1  0  0  0  0
 37 36  1  0  0  0  0
 38 39  1  0  0  0  0
 39 41  1  0  0  0  0
 41 43  1  0  0  0  0
 41 40  2  0  0  0  0
 42 41  2  0  0  0  0
 43 45  1  0  0  0  0
 45 44  1  1  0  0  0
 45 49  1  0  0  0  0
 46 47  1  0  0  0  0
 46 45  1  0  0  0  0
 48 46  2  0  0  0  0
 49 51  1  0  0  0  0
 51 50  1  0  0  0  0
M  END
>  <MODEL>
6

>  <REMARK>
 VINA RESULT:      -6.2      3.563      8.077
  Name = 
  18 active torsions:
  status: ('A' for Active; 'I' for Inactive)
    1  A    between atoms: C_3  and  C_51
    2  A    between atoms: C_8  and  C_32
    3  A    between atoms: C_10  and  C_12
    4  A    between atoms: C_11  and  O_27
    5  A    between atoms: C_12  and  N_36
    6  A    between atoms: C_13  and  C_44
    7  A    between atoms: C_13  and  C_45
    8  A    between atoms: S_16  and  C_18
    9  A    between atoms: S_16  and  N_36
   10  A    between atoms: O_17  and  C_46
   11  A    between atoms: O_17  and  C_47
   12  A    between atoms: C_18  and  C_45
   13  A    between atoms: C_21  and  C_39
   14  A    between atoms: C_24  and  C_45
   15  A    between atoms: N_25  and  N_43
   16  A    between atoms: O_27  and  C_46
   17  A    between atoms: C_29  and  C_47
   18  A    between atoms: N_43  and  C_48
                            x       y       z     vdW  Elec       q    Type
                         _______ _______ _______ _____ _____    ______ ____

>  <TORSDO>
F 18

$$$$
=
 OpenBabel11032419253D

 51 53  0  0  1  0  0  0  0  0999 V2000
  186.4080  176.9430  137.1210 C   0  0  0  0  0  3  0  0  0  0  0  0
  189.6270  175.6650  137.5840 C   0  0  1  0  0  3  0  0  0  0  0  0
  189.8060  176.8690  138.5100 C   0  0  0  0  0  0  0  0  0  0  0  0
  187.4890  176.3420  136.7010 C   0  0  0  0  0  0  0  0  0  0  0  0
  187.6860  178.1040  138.9820 C   0  0  0  0  0  2  0  0  0  0  0  0
  186.5260  178.1820  137.9680 C   0  0  2  0  0  3  0  0  0  0  0  0
  189.0570  178.1620  138.2990 C   0  0  0  0  0  2  0  0  0  0  0  0
  190.5900  176.7210  139.5910 C   0  0  0  0  0  3  0  0  0  0  0  0
  188.6620  175.8420  136.4420 C   0  0  0  0  0  3  0  0  0  0  0  0
  192.4690  173.1120  136.8150 C   0  0  1  0  0  3  0  0  0  0  0  0
  191.1770  173.7600  137.2510 C   0  0  0  0  0  3  0  0  0  0  0  0
  193.5640  177.2050  137.8080 O   0  0  0  0  0  0  0  0  0  0  0  0
  193.1830  176.0770  137.4050 C   0  0  0  0  0  0  0  0  0  0  0  0
  193.9690  174.8930  137.8000 C   0  0  0  0  0  3  0  0  0  0  0  0
  191.4690  177.2340  136.2230 F   0  0  0  0  0  0  0  0  0  0  0  0
  192.6740  173.1860  135.3120 C   0  0  0  0  0  1  0  0  0  0  0  0
  193.6830  173.5930  137.5690 C   0  0  0  0  0  0  0  0  0  0  0  0
  191.9800  175.9770  136.5130 C   0  0  2  0  0  3  0  0  0  0  0  0
  190.9330  175.0780  137.1140 C   0  0  0  0  0  0  0  0  0  0  0  0
  194.6390  172.5970  137.9530 N   0  0  0  0  0  2  0  0  0  0  0  0
  198.3570  173.0920  137.2230 C   0  0  0  0  0  1  0  0  0  0  0  0
  196.9130  172.7850  137.0190 C   0  0  0  0  0  0  0  0  0  0  0  0
  196.5040  172.4330  135.8760 O   0  0  0  0  0  0  0  0  0  0  0  0
  196.0030  172.9070  138.1110 N   0  0  0  0  0  2  0  0  0  0  0  0
  190.6370  177.4120  141.9960 C   0  0  1  0  0  0  0  0  0  0  0  0
  191.3140  178.2830  143.0410 C   0  0  0  0  0  1  0  0  0  0  0  0
  189.6500  178.1130  141.2740 O   0  0  0  0  0  0  0  0  0  0  0  0
  190.8490  177.8230  140.5830 C   0  0  2  0  0  3  0  0  0  0  0  0
  189.0580  175.6640  142.8980 C   0  0  0  0  0  3  0  0  0  0  0  0
  190.2280  176.0010  142.3380 C   0  0  0  0  0  3  0  0  0  0  0  0
  187.9960  176.6440  143.2650 C   0  0  0  0  0  2  0  0  0  0  0  0
  188.2210  177.1350  144.5770 O   0  0  0  0  0  0  0  0  0  0  0  0
  187.1890  177.6930  145.3380 C   0  0  0  0  0  0  0  0  0  0  0  0
  186.0420  177.8590  144.8320 O   0  0  0  0  0  0  0  0  0  0  0  0
  187.4400  178.0750  146.6590 O   0  0  0  0  0  0  0  0  0  0  0  0
  188.3000  177.3240  147.5110 C   0  0  0  0  0  2  0  0  0  0  0  0
  189.0180  178.2550  148.4700 C   0  0  0  0  0  1  0  0  0  0  0  0
  185.2160  178.3510  138.7220 C   0  0  0  0  0  2  0  0  0  0  0  0
  184.0880  177.9790  137.8770 N   0  0  0  0  0  2  0  0  0  0  0  0
  181.6040  177.4660  138.6410 O   0  0  0  0  0  0  0  0  0  0  0  0
  183.0250  176.9950  138.8320 S   0  0  0  0  0  0  0  0  0  0  0  0
  183.3920  177.1250  140.2930 O   0  0  0  0  0  0  0  0  0  0  0  0
  183.1670  175.2670  138.3420 C   0  0  0  0  0  2  0  0  0  0  0  0
  182.5460  176.1170  136.1670 O   0  0  0  0  0  1  0  0  0  0  0  0
  182.5590  174.9520  136.9560 C   0  0  2  0  0  0  0  0  0  0  0  0
  181.1400  174.4830  137.1780 C   0  0  0  0  0  0  0  0  0  0  0  0
  180.2490  174.3910  136.1040 O   0  0  0  0  0  0  0  0  0  0  0  0
  180.7690  174.1040  138.3310 O   0  0  0  0  0  1  0  0  0  0  0  0
  183.4000  173.8730  136.2590 C   0  0  0  0  0  2  0  0  0  0  0  0
  183.7940  171.4930  136.8170 C   0  0  0  0  0  1  0  0  0  0  0  0
  184.0740  172.9260  137.2360 C   0  0  0  0  0  2  0  0  0  0  0  0
  1  6  1  0  0  0  0
  2 19  1  6  0  0  0
  2  3  1  0  0  0  0
  3  8  2  0  0  0  0
  4  1  2  0  0  0  0
  6 38  1  1  0  0  0
  6  5  1  0  0  0  0
  7  3  1  0  0  0  0
  7  5  1  0  0  0  0
  9  4  2  0  0  0  0
  9  2  1  0  0  0  0
 10 16  1  6  0  0  0
 10 11  1  0  0  0  0
 10 17  1  0  0  0  0
 13 14  1  0  0  0  0
 13 12  2  0  0  0  0
 17 14  2  0  0  0  0
 17 20  1  0  0  0  0
 18 15  1  1  0  0  0
 18 19  1  0  0  0  0
 18 13  1  0  0  0  0
 19 11  2  0  0  0  0
 20 24  1  0  0  0  0
 22 21  1  0  0  0  0
 22 24  1  0  0  0  0
 23 22  2  0  0  0  0
 25 30  1  0  0  0  0
 25 26  1  1  0  0  0
 27 25  1  0  0  0  0
 28  8  1  6  0  0  0
 28 27  1  0  0  0  0
 28 25  1  0  0  0  0
 29 31  1  0  0  0  0
 30 29  2  0  0  0  0
 31 32  1  0  0  0  0
 32 33  1  0  0  0  0
 33 35  1  0  0  0  0
 34 33  2  0  0  0  0
 35 36  1  0  0  0  0
 36 37  1  0  0  0  0
 39 38  1  0  0  0  0
 39 41  1  0  0  0  0
 40 41  2  0  0  0  0
 41 42  2  0  0  0  0
 43 41  1  0  0  0  0
 45 44  1  6  0  0  0
 45 46  1  0  0  0  0
 45 43  1  0  0  0  0
 46 48  1  0  0  0  0
 47 46  2  0  0  0  0
 49 45  1  0  0  0  0
 49 51  1  0  0  0  0
 50 51  1  0  0  0  0
M  END
>  <MODEL>
7

>  <REMARK>
 VINA RESULT:      -6.1      4.664     11.245
  Name = 
  18 active torsions:
  status: ('A' for Active; 'I' for Inactive)
    1  A    between atoms: C_3  and  C_51
    2  A    between atoms: C_8  and  C_32
    3  A    between atoms: C_10  and  C_12
    4  A    between atoms: C_11  and  O_27
    5  A    between atoms: C_12  and  N_36
    6  A    between atoms: C_13  and  C_44
    7  A    between atoms: C_13  and  C_45
    8  A    between atoms: S_16  and  C_18
    9  A    between atoms: S_16  and  N_36
   10  A    between atoms: O_17  and  C_46
   11  A    between atoms: O_17  and  C_47
   12  A    between atoms: C_18  and  C_45
   13  A    between atoms: C_21  and  C_39
   14  A    between atoms: C_24  and  C_45
   15  A    between atoms: N_25  and  N_43
   16  A    between atoms: O_27  and  C_46
   17  A    between atoms: C_29  and  C_47
   18  A    between atoms: N_43  and  C_48
                            x       y       z     vdW  Elec       q    Type
                         _______ _______ _______ _____ _____    ______ ____

>  <TORSDO>
F 18

$$$$
=
 OpenBabel11032419253D

 51 53  0  0  1  0  0  0  0  0999 V2000
  186.7580  176.6440  136.5590 C   0  0  0  0  0  3  0  0  0  0  0  0
  189.9750  175.5320  137.3460 C   0  0  1  0  0  3  0  0  0  0  0  0
  190.0220  176.7750  138.2340 C   0  0  0  0  0  0  0  0  0  0  0  0
  187.8960  176.0770  136.2580 C   0  0  0  0  0  0  0  0  0  0  0  0
  187.8190  177.9290  138.4730 C   0  0  0  0  0  2  0  0  0  0  0  0
  186.7490  177.9170  137.3620 C   0  0  2  0  0  3  0  0  0  0  0  0
  189.2400  178.0240  137.9080 C   0  0  0  0  0  2  0  0  0  0  0  0
  190.7150  176.7030  139.3840 C   0  0  0  0  0  3  0  0  0  0  0  0
  189.1070  175.6220  136.1200 C   0  0  0  0  0  3  0  0  0  0  0  0
  192.9710  173.0790  136.9060 C   0  0  1  0  0  3  0  0  0  0  0  0
  191.6210  173.6830  137.2040 C   0  0  0  0  0  3  0  0  0  0  0  0
  193.8130  177.2320  137.8970 O   0  0  0  0  0  0  0  0  0  0  0  0
  193.5140  176.0820  137.4880 C   0  0  0  0  0  0  0  0  0  0  0  0
  194.3050  174.9380  137.9820 C   0  0  0  0  0  3  0  0  0  0  0  0
  191.8760  177.1440  136.1240 F   0  0  0  0  0  0  0  0  0  0  0  0
  193.3130  173.1300  135.4270 C   0  0  0  0  0  1  0  0  0  0  0  0
  194.0910  173.6240  137.7580 C   0  0  0  0  0  0  0  0  0  0  0  0
  192.4050  175.9150  136.4910 C   0  0  2  0  0  3  0  0  0  0  0  0
  191.3410  174.9870  137.0140 C   0  0  0  0  0  0  0  0  0  0  0  0
  195.0440  172.6750  138.2520 N   0  0  0  0  0  2  0  0  0  0  0  0
  198.7250  172.7530  137.2300 C   0  0  0  0  0  1  0  0  0  0  0  0
  197.2610  172.4730  137.1930 C   0  0  0  0  0  0  0  0  0  0  0  0
  196.7700  171.8340  136.2210 O   0  0  0  0  0  0  0  0  0  0  0  0
  196.4250  172.9470  138.2480 N   0  0  0  0  0  2  0  0  0  0  0  0
  190.7400  177.4430  141.7740 C   0  0  1  0  0  0  0  0  0  0  0  0
  191.3140  178.4260  142.7810 C   0  0  0  0  0  1  0  0  0  0  0  0
  189.6350  177.9740  141.0790 O   0  0  0  0  0  0  0  0  0  0  0  0
  190.8390  177.8510  140.3480 C   0  0  2  0  0  3  0  0  0  0  0  0
  189.8550  175.5670  143.2100 C   0  0  0  0  0  3  0  0  0  0  0  0
  190.5580  175.9940  142.1520 C   0  0  0  0  0  3  0  0  0  0  0  0
  189.1530  176.4730  144.1660 C   0  0  0  0  0  2  0  0  0  0  0  0
  187.7520  176.4130  143.9510 O   0  0  0  0  0  0  0  0  0  0  0  0
  186.9840  177.5710  143.7980 C   0  0  0  0  0  0  0  0  0  0  0  0
  186.5550  177.9060  142.6580 O   0  0  0  0  0  0  0  0  0  0  0  0
  186.7050  178.3610  144.9170 O   0  0  0  0  0  0  0  0  0  0  0  0
  186.3500  177.7910  146.1740 C   0  0  0  0  0  2  0  0  0  0  0  0
  184.9620  178.2530  146.5760 C   0  0  0  0  0  1  0  0  0  0  0  0
  185.3720  178.0540  137.9940 C   0  0  0  0  0  2  0  0  0  0  0  0
  185.4750  178.6520  139.3190 N   0  0  0  0  0  2  0  0  0  0  0  0
  183.9350  179.3030  141.3740 O   0  0  0  0  0  0  0  0  0  0  0  0
  183.8700  178.7610  139.9670 S   0  0  0  0  0  0  0  0  0  0  0  0
  183.2440  177.3850  140.0020 O   0  0  0  0  0  0  0  0  0  0  0  0
  182.8560  179.8420  138.9430 C   0  0  0  0  0  2  0  0  0  0  0  0
  181.1140  179.0450  140.4160 O   0  0  0  0  0  1  0  0  0  0  0  0
  181.3370  179.7070  139.1940 C   0  0  2  0  0  0  0  0  0  0  0  0
  180.7610  178.8820  138.0670 C   0  0  0  0  0  0  0  0  0  0  0  0
  179.3920  178.9250  137.7870 O   0  0  0  0  0  1  0  0  0  0  0  0
  181.5290  178.1990  137.3230 O   0  0  0  0  0  0  0  0  0  0  0  0
  180.6990  181.1020  139.2470 C   0  0  0  0  0  2  0  0  0  0  0  0
  180.4130  182.4860  137.2120 C   0  0  0  0  0  1  0  0  0  0  0  0
  181.3760  182.0980  138.3210 C   0  0  0  0  0  2  0  0  0  0  0  0
  1  6  1  0  0  0  0
  2 19  1  6  0  0  0
  2  3  1  0  0  0  0
  3  8  2  0  0  0  0
  4  1  2  0  0  0  0
  6 38  1  1  0  0  0
  6  5  1  0  0  0  0
  7  3  1  0  0  0  0
  7  5  1  0  0  0  0
  9  4  2  0  0  0  0
  9  2  1  0  0  0  0
 10 16  1  6  0  0  0
 10 11  1  0  0  0  0
 10 17  1  0  0  0  0
 13 12  2  0  0  0  0
 13 14  1  0  0  0  0
 17 14  2  0  0  0  0
 17 20  1  0  0  0  0
 18 15  1  1  0  0  0
 18 19  1  0  0  0  0
 18 13  1  0  0  0  0
 19 11  2  0  0  0  0
 22 21  1  0  0  0  0
 22 24  1  0  0  0  0
 23 22  2  0  0  0  0
 24 20  1  0  0  0  0
 25 30  1  0  0  0  0
 25 26  1  1  0  0  0
 27 25  1  0  0  0  0
 28  8  1  6  0  0  0
 28 27  1  0  0  0  0
 28 25  1  0  0  0  0
 29 31  1  0  0  0  0
 30 29  2  0  0  0  0
 32 31  1  0  0  0  0
 33 32  1  0  0  0  0
 33 35  1  0  0  0  0
 34 33  2  0  0  0  0
 35 36  1  0  0  0  0
 36 37  1  0  0  0  0
 38 39  1  0  0  0  0
 39 41  1  0  0  0  0
 41 42  2  0  0  0  0
 41 40  2  0  0  0  0
 43 45  1  0  0  0  0
 43 41  1  0  0  0  0
 45 49  1  0  0  0  0
 45 44  1  1  0  0  0
 46 45  1  0  0  0  0
 47 46  1  0  0  0  0
 48 46  2  0  0  0  0
 50 51  1  0  0  0  0
 51 49  1  0  0  0  0
M  END
>  <MODEL>
8

>  <REMARK>
 VINA RESULT:      -6.0      4.208     11.329
  Name = 
  18 active torsions:
  status: ('A' for Active; 'I' for Inactive)
    1  A    between atoms: C_3  and  C_51
    2  A    between atoms: C_8  and  C_32
    3  A    between atoms: C_10  and  C_12
    4  A    between atoms: C_11  and  O_27
    5  A    between atoms: C_12  and  N_36
    6  A    between atoms: C_13  and  C_44
    7  A    between atoms: C_13  and  C_45
    8  A    between atoms: S_16  and  C_18
    9  A    between atoms: S_16  and  N_36
   10  A    between atoms: O_17  and  C_46
   11  A    between atoms: O_17  and  C_47
   12  A    between atoms: C_18  and  C_45
   13  A    between atoms: C_21  and  C_39
   14  A    between atoms: C_24  and  C_45
   15  A    between atoms: N_25  and  N_43
   16  A    between atoms: O_27  and  C_46
   17  A    between atoms: C_29  and  C_47
   18  A    between atoms: N_43  and  C_48
                            x       y       z     vdW  Elec       q    Type
                         _______ _______ _______ _____ _____    ______ ____

>  <TORSDO>
F 18

$$$$
=
 OpenBabel11032419253D

 51 53  0  0  1  0  0  0  0  0999 V2000
  183.8170  178.3500  141.9310 C   0  0  0  0  0  3  0  0  0  0  0  0
  182.7110  176.7370  139.0370 C   0  0  1  0  0  3  0  0  0  0  0  0
  183.8940  177.4440  138.3740 C   0  0  0  0  0  0  0  0  0  0  0  0
  182.8810  177.8840  141.1480 C   0  0  0  0  0  0  0  0  0  0  0  0
  185.4430  178.5500  139.9930 C   0  0  0  0  0  2  0  0  0  0  0  0
  184.9640  179.1260  141.3410 C   0  0  2  0  0  3  0  0  0  0  0  0
  184.4190  178.7680  138.8730 C   0  0  0  0  0  2  0  0  0  0  0  0
  184.5300  176.8070  137.3760 C   0  0  0  0  0  3  0  0  0  0  0  0
  182.0920  177.4380  140.2150 C   0  0  0  0  0  3  0  0  0  0  0  0
  180.3330  174.4600  136.9510 C   0  0  1  0  0  3  0  0  0  0  0  0
  181.3610  174.9780  137.9270 C   0  0  0  0  0  3  0  0  0  0  0  0
  181.8590  178.1000  135.1200 O   0  0  0  0  0  0  0  0  0  0  0  0
  181.3520  177.1340  135.7430 C   0  0  0  0  0  0  0  0  0  0  0  0
  181.1160  175.8760  135.0090 C   0  0  0  0  0  3  0  0  0  0  0  0
  181.2150  178.5960  137.6190 F   0  0  0  0  0  0  0  0  0  0  0  0
  178.9310  174.9450  137.2770 C   0  0  0  0  0  1  0  0  0  0  0  0
  180.6850  174.6960  135.5040 C   0  0  0  0  0  0  0  0  0  0  0  0
  180.9690  177.3020  137.1850 C   0  0  2  0  0  3  0  0  0  0  0  0
  181.6620  176.2850  138.0520 C   0  0  0  0  0  0  0  0  0  0  0  0
  180.4250  173.6200  134.5940 N   0  0  0  0  0  2  0  0  0  0  0  0
  182.6190  170.5710  135.2940 C   0  0  0  0  0  1  0  0  0  0  0  0
  182.2150  171.9800  135.0240 C   0  0  0  0  0  0  0  0  0  0  0  0
  183.0980  172.8800  134.9460 O   0  0  0  0  0  0  0  0  0  0  0  0
  180.8330  172.3020  134.8760 N   0  0  0  0  0  2  0  0  0  0  0  0
  186.5780  176.3640  136.0080 C   0  0  1  0  0  0  0  0  0  0  0  0
  187.4770  176.8660  134.8900 C   0  0  0  0  0  1  0  0  0  0  0  0
  186.9010  176.9390  137.2530 O   0  0  0  0  0  0  0  0  0  0  0  0
  185.7080  177.3890  136.6420 C   0  0  2  0  0  3  0  0  0  0  0  0
  187.1460  173.9090  136.1310 C   0  0  0  0  0  3  0  0  0  0  0  0
  186.2410  174.8970  136.1050 C   0  0  0  0  0  3  0  0  0  0  0  0
  188.6210  174.1270  136.0650 C   0  0  0  0  0  2  0  0  0  0  0  0
  189.1360  174.3540  137.3680 O   0  0  0  0  0  0  0  0  0  0  0  0
  190.1880  175.2470  137.5930 C   0  0  0  0  0  0  0  0  0  0  0  0
  190.0070  176.4910  137.4640 O   0  0  0  0  0  0  0  0  0  0  0  0
  191.4440  174.7500  137.9530 O   0  0  0  0  0  0  0  0  0  0  0  0
  192.3740  174.2730  136.9840 C   0  0  0  0  0  2  0  0  0  0  0  0
  193.7770  174.7170  137.3520 C   0  0  0  0  0  1  0  0  0  0  0  0
  186.1120  179.0810  142.3380 C   0  0  0  0  0  2  0  0  0  0  0  0
  187.1750  178.2080  141.8560 N   0  0  0  0  0  2  0  0  0  0  0  0
  188.1960  176.0590  143.0210 O   0  0  0  0  0  0  0  0  0  0  0  0
  187.9650  177.5330  143.2450 S   0  0  0  0  0  0  0  0  0  0  0  0
  187.0860  177.7110  144.4630 O   0  0  0  0  0  0  0  0  0  0  0  0
  189.5390  178.3620  143.5310 C   0  0  0  0  0  2  0  0  0  0  0  0
  191.3430  178.4890  145.1330 O   0  0  0  0  0  1  0  0  0  0  0  0
  190.5010  177.5860  144.4580 C   0  0  2  0  0  0  0  0  0  0  0  0
  191.3390  176.6780  143.5880 C   0  0  0  0  0  0  0  0  0  0  0  0
  191.7960  175.4520  144.0780 O   0  0  0  0  0  1  0  0  0  0  0  0
  191.5740  176.9950  142.3810 O   0  0  0  0  0  0  0  0  0  0  0  0
  189.6900  176.7810  145.4830 C   0  0  0  0  0  2  0  0  0  0  0  0
  189.3990  177.7760  147.7330 C   0  0  0  0  0  1  0  0  0  0  0  0
  190.2660  176.8600  146.8870 C   0  0  0  0  0  2  0  0  0  0  0  0
  2 19  1  6  0  0  0
  2  9  1  0  0  0  0
  3  7  1  0  0  0  0
  3  2  1  0  0  0  0
  4  1  2  0  0  0  0
  5  6  1  0  0  0  0
  6  1  1  0  0  0  0
  6 38  1  1  0  0  0
  7  5  1  0  0  0  0
  8  3  2  0  0  0  0
  9  4  2  0  0  0  0
 10 16  1  1  0  0  0
 10 11  1  0  0  0  0
 11 19  2  0  0  0  0
 12 13  2  0  0  0  0
 13 18  1  0  0  0  0
 14 17  2  0  0  0  0
 14 13  1  0  0  0  0
 17 10  1  0  0  0  0
 18 15  1  1  0  0  0
 18 19  1  0  0  0  0
 20 24  1  0  0  0  0
 20 17  1  0  0  0  0
 22 21  1  0  0  0  0
 23 22  2  0  0  0  0
 24 22  1  0  0  0  0
 25 26  1  6  0  0  0
 25 30  1  0  0  0  0
 25 28  1  0  0  0  0
 25 27  1  0  0  0  0
 28 27  1  0  0  0  0
 28  8  1  1  0  0  0
 30 29  2  0  0  0  0
 31 29  1  0  0  0  0
 31 32  1  0  0  0  0
 32 33  1  0  0  0  0
 33 35  1  0  0  0  0
 34 33  2  0  0  0  0
 36 37  1  0  0  0  0
 36 35  1  0  0  0  0
 39 38  1  0  0  0  0
 39 41  1  0  0  0  0
 40 41  2  0  0  0  0
 41 43  1  0  0  0  0
 41 42  2  0  0  0  0
 43 45  1  0  0  0  0
 45 44  1  1  0  0  0
 45 49  1  0  0  0  0
 46 47  1  0  0  0  0
 46 45  1  0  0  0  0
 48 46  2  0  0  0  0
 49 51  1  0  0  0  0
 51 50  1  0  0  0  0
M  END
>  <MODEL>
9

>  <REMARK>
 VINA RESULT:      -5.9      3.545      5.348
  Name = 
  18 active torsions:
  status: ('A' for Active; 'I' for Inactive)
    1  A    between atoms: C_3  and  C_51
    2  A    between atoms: C_8  and  C_32
    3  A    between atoms: C_10  and  C_12
    4  A    between atoms: C_11  and  O_27
    5  A    between atoms: C_12  and  N_36
    6  A    between atoms: C_13  and  C_44
    7  A    between atoms: C_13  and  C_45
    8  A    between atoms: S_16  and  C_18
    9  A    between atoms: S_16  and  N_36
   10  A    between atoms: O_17  and  C_46
   11  A    between atoms: O_17  and  C_47
   12  A    between atoms: C_18  and  C_45
   13  A    between atoms: C_21  and  C_39
   14  A    between atoms: C_24  and  C_45
   15  A    between atoms: N_25  and  N_43
   16  A    between atoms: O_27  and  C_46
   17  A    between atoms: C_29  and  C_47
   18  A    between atoms: N_43  and  C_48
                            x       y       z     vdW  Elec       q    Type
                         _______ _______ _______ _____ _____    ______ ____

>  <TORSDO>
F 18

$$$$
