=
 OpenBabel11032420473D

 47 50  0  0  1  0  0  0  0  0999 V2000
  181.7730  176.6580  138.2680 C   0  0  0  0  0  3  0  0  0  0  0  0
  182.6100  178.9640  139.7670 C   0  0  2  0  0  3  0  0  0  0  0  0
  181.1960  176.8950  139.4440 C   0  0  0  0  0  0  0  0  0  0  0  0
  181.4430  178.1410  140.1320 N   0  0  0  0  0  0  0  0  0  0  0  0
  180.2660  175.8750  140.0090 C   0  0  0  0  0  1  0  0  0  0  0  0
  182.6590  177.6630  137.6530 C   0  0  0  0  0  0  0  0  0  0  0  0
  183.0040  178.7640  138.3250 C   0  0  0  0  0  3  0  0  0  0  0  0
  185.0670  178.8270  140.1950 C   0  0  0  0  0  3  0  0  0  0  0  0
  186.1600  178.6130  141.0390 C   0  0  0  0  0  3  0  0  0  0  0  0
  185.9660  178.2450  142.3810 C   0  0  0  0  0  0  0  0  0  0  0  0
  184.6550  178.0920  142.8630 C   0  0  0  0  0  3  0  0  0  0  0  0
  183.7630  178.6750  140.6780 C   0  0  0  0  0  0  0  0  0  0  0  0
  183.5620  178.3110  142.0190 C   0  0  0  0  0  3  0  0  0  0  0  0
  186.9720  177.8390  144.6420 C   0  0  0  0  0  3  0  0  0  0  0  0
  187.9710  177.4170  146.8120 C   0  0  0  0  0  3  0  0  0  0  0  0
  189.1170  177.1990  147.5890 C   0  0  0  0  0  3  0  0  0  0  0  0
  190.3880  177.1720  146.9950 C   0  0  0  0  0  0  0  0  0  0  0  0
  187.1310  178.0210  143.2620 C   0  0  0  0  0  0  0  0  0  0  0  0
  188.0940  177.6060  145.4320 C   0  0  0  0  0  0  0  0  0  0  0  0
  189.3660  177.5640  144.8270 C   0  0  0  0  0  0  0  0  0  0  0  0
  190.5090  177.3520  145.6080 C   0  0  0  0  0  3  0  0  0  0  0  0
  189.4720  177.7400  143.4810 N   0  0  0  0  0  0  0  0  0  0  0  0
  188.3890  177.9550  142.7270 N   0  0  0  0  0  0  0  0  0  0  0  0
  191.5390  176.9770  147.8270 N   0  0  0  0  0  2  0  0  0  0  0  0
  192.3360  175.7570  147.8290 C   0  0  0  0  0  2  0  0  0  0  0  0
  193.4010  175.8360  148.9050 C   0  0  0  0  0  1  0  0  0  0  0  0
  179.1160  178.0910  140.9020 C   0  0  0  0  0  1  0  0  0  0  0  0
  180.5230  178.5900  141.1840 C   0  0  2  0  0  3  0  0  0  0  0  0
  180.5190  179.9840  141.2800 O   0  0  0  0  0  0  0  0  0  0  0  0
  179.2590  180.3830  140.8320 C   0  0  0  0  0  2  0  0  0  0  0  0
  179.3940  181.6860  140.0680 C   0  0  0  0  0  2  0  0  0  0  0  0
  180.4580  181.5580  138.9990 C   0  0  0  0  0  2  0  0  0  0  0  0
  179.8210  181.6540  137.6200 C   0  0  2  0  0  3  0  0  0  0  0  0
  180.6930  180.9390  136.5880 C   0  0  0  0  0  1  0  0  0  0  0  0
  179.6730  183.0210  137.2550 O   0  0  0  0  0  0  0  0  0  0  0  0
  179.2480  183.0520  134.9770 O   0  0  0  0  0  0  0  0  0  0  0  0
  179.9160  183.4840  135.9590 C   0  0  0  0  0  0  0  0  0  0  0  0
  180.9670  184.5150  135.7240 C   0  0  0  0  0  1  0  0  0  0  0  0
  183.0840  177.5160  136.2250 C   0  0  0  0  0  2  0  0  0  0  0  0
  184.2480  176.5400  136.1000 C   0  0  0  0  0  2  0  0  0  0  0  0
  185.4830  177.2450  135.5610 C   0  0  0  0  0  2  0  0  0  0  0  0
  186.1660  178.0170  136.6760 C   0  0  0  0  0  2  0  0  0  0  0  0
  187.3310  177.3510  137.0790 O   0  0  0  0  0  0  0  0  0  0  0  0
  189.2750  178.0550  136.1350 O   0  0  0  0  0  1  0  0  0  0  0  0
  188.3160  178.3390  137.1040 C   0  0  2  0  0  3  0  0  0  0  0  0
  188.9740  178.3540  138.4730 C   0  0  0  0  0  2  0  0  0  0  0  0
  188.6070  177.2180  139.1980 O   0  0  0  0  0  1  0  0  0  0  0  0
  1  3  2  0  0  0  0
  2  4  1  0  0  0  0
  2 12  1  1  0  0  0
  3  5  1  0  0  0  0
  3  4  1  0  0  0  0
  4 28  1  0  0  0  0
  6  1  1  0  0  0  0
  6  7  2  0  0  0  0
  7  2  1  0  0  0  0
  8 12  2  0  0  0  0
  8  9  1  0  0  0  0
  9 10  2  0  0  0  0
 10 11  1  0  0  0  0
 10 18  1  0  0  0  0
 12 13  1  0  0  0  0
 13 11  2  0  0  0  0
 14 19  1  0  0  0  0
 15 16  1  0  0  0  0
 17 16  2  0  0  0  0
 17 24  1  0  0  0  0
 18 14  2  0  0  0  0
 19 15  2  0  0  0  0
 20 19  1  0  0  0  0
 20 21  2  0  0  0  0
 21 17  1  0  0  0  0
 22 20  1  0  0  0  0
 23 18  1  0  0  0  0
 23 22  2  0  0  0  0
 24 25  1  0  0  0  0
 25 26  1  0  0  0  0
 28 27  1  6  0  0  0
 28 29  1  0  0  0  0
 30 29  1  0  0  0  0
 31 30  1  0  0  0  0
 32 31  1  0  0  0  0
 33 34  1  6  0  0  0
 33 32  1  0  0  0  0
 35 33  1  0  0  0  0
 36 37  2  0  0  0  0
 37 35  1  0  0  0  0
 38 37  1  0  0  0  0
 39  6  1  0  0  0  0
 40 39  1  0  0  0  0
 41 40  1  0  0  0  0
 41 42  1  0  0  0  0
 42 43  1  0  0  0  0
 43 45  1  0  0  0  0
 45 44  1  6  0  0  0
 45 46  1  0  0  0  0
 46 47  1  0  0  0  0
M  END
>  <MODEL>
1

>  <REMARK>
 VINA RESULT:      -7.1      0.000      0.000
  Name = 
  19 active torsions:
  status: ('A' for Active; 'I' for Inactive)
    1  A    between atoms: C_1  and  C_8
    2  A    between atoms: C_1  and  C_39
    3  A    between atoms: C_4  and  C_30
    4  A    between atoms: O_5  and  C_35
    5  A    between atoms: O_5  and  C_41
    6  A    between atoms: C_6  and  N_47
    7  A    between atoms: C_8  and  O_25
    8  A    between atoms: C_9  and  O_21
    9  A    between atoms: C_9  and  C_24
   10  A    between atoms: C_11  and  C_32
   11  A    between atoms: C_15  and  C_18
   12  A    between atoms: C_17  and  N_47
   13  A    between atoms: O_21  and  C_30
   14  A    between atoms: C_22  and  C_24
   15  A    between atoms: C_22  and  C_31
   16  A    between atoms: O_25  and  C_34
   17  A    between atoms: N_28  and  C_41
   18  A    between atoms: C_31  and  C_38
   19  A    between atoms: C_35  and  C_39
                            x       y       z     vdW  Elec       q    Type
                         _______ _______ _______ _____ _____    ______ ____

>  <TORSDO>
F 19

$$$$
=
 OpenBabel11032420473D

 47 50  0  0  1  0  0  0  0  0999 V2000
  182.8860  176.6830  138.6270 C   0  0  0  0  0  3  0  0  0  0  0  0
  183.3160  178.8860  140.4240 C   0  0  2  0  0  3  0  0  0  0  0  0
  182.1000  176.7940  139.6970 C   0  0  0  0  0  0  0  0  0  0  0  0
  182.1530  177.9850  140.5110 N   0  0  0  0  0  0  0  0  0  0  0  0
  181.1470  175.6900  140.0070 C   0  0  0  0  0  1  0  0  0  0  0  0
  183.8060  177.7750  138.2580 C   0  0  0  0  0  0  0  0  0  0  0  0
  183.9650  178.8280  139.0640 C   0  0  0  0  0  3  0  0  0  0  0  0
  185.6610  178.4460  141.1650 C   0  0  0  0  0  3  0  0  0  0  0  0
  186.6130  178.2020  142.1580 C   0  0  0  0  0  3  0  0  0  0  0  0
  186.2280  178.0780  143.5030 C   0  0  0  0  0  0  0  0  0  0  0  0
  184.8680  178.2020  143.8370 C   0  0  0  0  0  3  0  0  0  0  0  0
  184.3080  178.5690  141.5000 C   0  0  0  0  0  0  0  0  0  0  0  0
  183.9160  178.4510  142.8440 C   0  0  0  0  0  3  0  0  0  0  0  0
  188.5560  177.4610  144.2020 C   0  0  0  0  0  3  0  0  0  0  0  0
  190.8080  176.8950  144.9070 C   0  0  0  0  0  3  0  0  0  0  0  0
  191.7250  176.6730  145.9440 C   0  0  0  0  0  3  0  0  0  0  0  0
  191.3330  176.7990  147.2840 C   0  0  0  0  0  0  0  0  0  0  0  0
  187.2460  177.8190  144.5430 C   0  0  0  0  0  0  0  0  0  0  0  0
  189.4890  177.2490  145.2120 C   0  0  0  0  0  0  0  0  0  0  0  0
  189.0930  177.3950  146.5580 C   0  0  0  0  0  0  0  0  0  0  0  0
  190.0120  177.1650  147.5890 C   0  0  0  0  0  3  0  0  0  0  0  0
  187.8100  177.7490  146.8420 N   0  0  0  0  0  0  0  0  0  0  0  0
  186.9200  177.9590  145.8650 N   0  0  0  0  0  0  0  0  0  0  0  0
  192.2920  176.5340  148.3160 N   0  0  0  0  0  2  0  0  0  0  0  0
  192.6020  177.4700  149.3900 C   0  0  0  0  0  2  0  0  0  0  0  0
  193.8580  177.0270  150.1160 C   0  0  0  0  0  1  0  0  0  0  0  0
  179.7560  177.6620  140.9140 C   0  0  0  0  0  1  0  0  0  0  0  0
  181.0400  178.3020  141.4150 C   0  0  2  0  0  3  0  0  0  0  0  0
  180.8660  179.6850  141.5250 O   0  0  0  0  0  0  0  0  0  0  0  0
  179.6200  179.9490  140.9560 C   0  0  0  0  0  2  0  0  0  0  0  0
  179.5880  181.3860  140.4740 C   0  0  0  0  0  2  0  0  0  0  0  0
  179.6550  181.4330  138.9620 C   0  0  0  0  0  2  0  0  0  0  0  0
  181.0850  181.6950  138.5140 C   0  0  2  0  0  3  0  0  0  0  0  0
  181.1410  182.9460  137.6380 C   0  0  0  0  0  1  0  0  0  0  0  0
  181.5690  180.5760  137.7790 O   0  0  0  0  0  0  0  0  0  0  0  0
  180.5990  180.3900  135.6830 O   0  0  0  0  0  0  0  0  0  0  0  0
  180.7900  179.9040  136.8340 C   0  0  0  0  0  0  0  0  0  0  0  0
  180.1820  178.5860  137.1730 C   0  0  0  0  0  1  0  0  0  0  0  0
  184.4790  177.7690  136.9220 C   0  0  0  0  0  2  0  0  0  0  0  0
  185.9880  177.6050  137.0710 C   0  0  0  0  0  2  0  0  0  0  0  0
  186.4470  176.2890  136.4650 C   0  0  0  0  0  2  0  0  0  0  0  0
  187.9280  176.3580  136.1380 C   0  0  0  0  0  2  0  0  0  0  0  0
  188.6870  176.1780  137.3020 O   0  0  0  0  0  0  0  0  0  0  0  0
  190.8730  176.7970  137.2540 O   0  0  0  0  0  1  0  0  0  0  0  0
  189.5630  177.2640  137.3270 C   0  0  2  0  0  3  0  0  0  0  0  0
  189.3740  178.0290  138.6260 C   0  0  0  0  0  2  0  0  0  0  0  0
  188.7750  179.2660  138.3760 O   0  0  0  0  0  1  0  0  0  0  0  0
  1  3  2  0  0  0  0
  2  4  1  0  0  0  0
  2 12  1  1  0  0  0
  3  5  1  0  0  0  0
  3  4  1  0  0  0  0
  4 28  1  0  0  0  0
  6  1  1  0  0  0  0
  6  7  2  0  0  0  0
  7  2  1  0  0  0  0
  8 12  2  0  0  0  0
  8  9  1  0  0  0  0
  9 10  2  0  0  0  0
 10 11  1  0  0  0  0
 10 18  1  0  0  0  0
 12 13  1  0  0  0  0
 13 11  2  0  0  0  0
 14 18  2  0  0  0  0
 14 19  1  0  0  0  0
 15 19  2  0  0  0  0
 15 16  1  0  0  0  0
 16 17  2  0  0  0  0
 17 21  1  0  0  0  0
 17 24  1  0  0  0  0
 18 23  1  0  0  0  0
 19 20  1  0  0  0  0
 20 22  1  0  0  0  0
 20 21  2  0  0  0  0
 23 22  2  0  0  0  0
 24 25  1  0  0  0  0
 25 26  1  0  0  0  0
 28 27  1  6  0  0  0
 28 29  1  0  0  0  0
 30 29  1  0  0  0  0
 31 30  1  0  0  0  0
 32 31  1  0  0  0  0
 33 34  1  6  0  0  0
 33 32  1  0  0  0  0
 35 33  1  0  0  0  0
 36 37  2  0  0  0  0
 37 38  1  0  0  0  0
 37 35  1  0  0  0  0
 39 40  1  0  0  0  0
 39  6  1  0  0  0  0
 41 40  1  0  0  0  0
 42 41  1  0  0  0  0
 42 43  1  0  0  0  0
 43 45  1  0  0  0  0
 45 44  1  1  0  0  0
 45 46  1  0  0  0  0
 47 46  1  0  0  0  0
M  END
>  <MODEL>
2

>  <REMARK>
 VINA RESULT:      -7.1      1.544      2.075
  Name = 
  19 active torsions:
  status: ('A' for Active; 'I' for Inactive)
    1  A    between atoms: C_1  and  C_8
    2  A    between atoms: C_1  and  C_39
    3  A    between atoms: C_4  and  C_30
    4  A    between atoms: O_5  and  C_35
    5  A    between atoms: O_5  and  C_41
    6  A    between atoms: C_6  and  N_47
    7  A    between atoms: C_8  and  O_25
    8  A    between atoms: C_9  and  O_21
    9  A    between atoms: C_9  and  C_24
   10  A    between atoms: C_11  and  C_32
   11  A    between atoms: C_15  and  C_18
   12  A    between atoms: C_17  and  N_47
   13  A    between atoms: O_21  and  C_30
   14  A    between atoms: C_22  and  C_24
   15  A    between atoms: C_22  and  C_31
   16  A    between atoms: O_25  and  C_34
   17  A    between atoms: N_28  and  C_41
   18  A    between atoms: C_31  and  C_38
   19  A    between atoms: C_35  and  C_39
                            x       y       z     vdW  Elec       q    Type
                         _______ _______ _______ _____ _____    ______ ____

>  <TORSDO>
F 19

$$$$
=
 OpenBabel11032420473D

 47 50  0  0  1  0  0  0  0  0999 V2000
  186.1930  179.5130  146.1070 C   0  0  0  0  0  3  0  0  0  0  0  0
  185.9030  177.2480  144.3600 C   0  0  2  0  0  3  0  0  0  0  0  0
  185.5190  179.6700  144.9690 C   0  0  0  0  0  0  0  0  0  0  0  0
  185.1830  178.5190  144.1640 N   0  0  0  0  0  0  0  0  0  0  0  0
  185.0890  181.0410  144.5700 C   0  0  0  0  0  1  0  0  0  0  0  0
  186.5920  178.1680  146.5610 C   0  0  0  0  0  0  0  0  0  0  0  0
  186.4060  177.1050  145.7750 C   0  0  0  0  0  3  0  0  0  0  0  0
  187.1630  178.0850  142.3720 C   0  0  0  0  0  3  0  0  0  0  0  0
  188.2340  178.0210  141.4780 C   0  0  0  0  0  3  0  0  0  0  0  0
  189.1890  176.9960  141.5770 C   0  0  0  0  0  0  0  0  0  0  0  0
  189.0520  176.0320  142.5900 C   0  0  0  0  0  3  0  0  0  0  0  0
  187.0290  177.1250  143.3810 C   0  0  0  0  0  0  0  0  0  0  0  0
  187.9820  176.0990  143.4890 C   0  0  0  0  0  3  0  0  0  0  0  0
  190.1380  176.4650  139.3170 C   0  0  0  0  0  3  0  0  0  0  0  0
  191.0780  175.9870  137.1320 C   0  0  0  0  0  3  0  0  0  0  0  0
  192.1870  175.9690  136.2760 C   0  0  0  0  0  3  0  0  0  0  0  0
  193.4420  176.4110  136.7220 C   0  0  0  0  0  0  0  0  0  0  0  0
  190.3170  176.9400  140.6230 C   0  0  0  0  0  0  0  0  0  0  0  0
  191.2210  176.4510  138.4430 C   0  0  0  0  0  0  0  0  0  0  0  0
  192.4750  176.9120  138.8940 C   0  0  0  0  0  0  0  0  0  0  0  0
  193.5820  176.8860  138.0360 C   0  0  0  0  0  3  0  0  0  0  0  0
  192.6010  177.3700  140.1690 N   0  0  0  0  0  0  0  0  0  0  0  0
  191.5530  177.3870  141.0010 N   0  0  0  0  0  0  0  0  0  0  0  0
  194.5590  176.3500  135.8260 N   0  0  0  0  0  2  0  0  0  0  0  0
  195.7110  175.4810  136.0300 C   0  0  0  0  0  2  0  0  0  0  0  0
  196.9190  176.0460  135.3060 C   0  0  0  0  0  1  0  0  0  0  0  0
  182.7540  178.5180  143.8300 C   0  0  0  0  0  1  0  0  0  0  0  0
  184.1150  178.6150  143.1610 C   0  0  2  0  0  3  0  0  0  0  0  0
  184.2420  177.6080  142.2010 O   0  0  0  0  0  0  0  0  0  0  0  0
  183.4900  178.0400  141.1080 C   0  0  0  0  0  2  0  0  0  0  0  0
  184.1620  177.5780  139.8300 C   0  0  0  0  0  2  0  0  0  0  0  0
  184.9520  178.7140  139.2140 C   0  0  0  0  0  2  0  0  0  0  0  0
  185.5770  178.2600  137.9030 C   0  0  2  0  0  3  0  0  0  0  0  0
  184.8590  177.0150  137.3820 C   0  0  0  0  0  1  0  0  0  0  0  0
  186.9550  177.9660  138.1060 O   0  0  0  0  0  0  0  0  0  0  0  0
  188.7560  179.3580  137.6700 O   0  0  0  0  0  0  0  0  0  0  0  0
  187.9600  178.4610  137.2710 C   0  0  0  0  0  0  0  0  0  0  0  0
  188.1130  177.9180  135.8910 C   0  0  0  0  0  1  0  0  0  0  0  0
  187.1000  177.9670  147.9550 C   0  0  0  0  0  2  0  0  0  0  0  0
  188.2920  177.0180  147.9690 C   0  0  0  0  0  2  0  0  0  0  0  0
  189.4740  177.6300  147.2340 C   0  0  0  0  0  2  0  0  0  0  0  0
  190.6580  176.6810  147.2760 C   0  0  0  0  0  2  0  0  0  0  0  0
  191.7050  177.1830  146.4920 O   0  0  0  0  0  0  0  0  0  0  0  0
  191.8520  175.8840  144.6330 O   0  0  0  0  0  1  0  0  0  0  0  0
  191.2710  177.0280  145.1750 C   0  0  2  0  0  3  0  0  0  0  0  0
  191.6940  178.2400  144.3630 C   0  0  0  0  0  2  0  0  0  0  0  0
  190.5790  179.0160  144.0370 O   0  0  0  0  0  1  0  0  0  0  0  0
  1  6  1  0  0  0  0
  2 12  1  6  0  0  0
  2  7  1  0  0  0  0
  3  1  2  0  0  0  0
  4  2  1  0  0  0  0
  4  3  1  0  0  0  0
  5  3  1  0  0  0  0
  6 39  1  0  0  0  0
  7  6  2  0  0  0  0
  8 12  1  0  0  0  0
  9 10  1  0  0  0  0
  9  8  2  0  0  0  0
 10 11  2  0  0  0  0
 11 13  1  0  0  0  0
 12 13  2  0  0  0  0
 14 18  1  0  0  0  0
 15 19  1  0  0  0  0
 16 17  1  0  0  0  0
 16 15  2  0  0  0  0
 17 21  2  0  0  0  0
 18 23  2  0  0  0  0
 18 10  1  0  0  0  0
 19 20  1  0  0  0  0
 19 14  2  0  0  0  0
 20 22  2  0  0  0  0
 21 20  1  0  0  0  0
 22 23  1  0  0  0  0
 24 25  1  0  0  0  0
 24 17  1  0  0  0  0
 26 25  1  0  0  0  0
 28 27  1  1  0  0  0
 28  4  1  0  0  0  0
 29 28  1  0  0  0  0
 30 29  1  0  0  0  0
 31 30  1  0  0  0  0
 32 31  1  0  0  0  0
 33 34  1  1  0  0  0
 33 35  1  0  0  0  0
 33 32  1  0  0  0  0
 37 36  2  0  0  0  0
 37 35  1  0  0  0  0
 38 37  1  0  0  0  0
 39 40  1  0  0  0  0
 41 42  1  0  0  0  0
 41 40  1  0  0  0  0
 43 42  1  0  0  0  0
 45 44  1  6  0  0  0
 45 43  1  0  0  0  0
 46 45  1  0  0  0  0
 47 46  1  0  0  0  0
M  END
>  <MODEL>
3

>  <REMARK>
 VINA RESULT:      -7.0      3.850      8.270
  Name = 
  19 active torsions:
  status: ('A' for Active; 'I' for Inactive)
    1  A    between atoms: C_1  and  C_8
    2  A    between atoms: C_1  and  C_39
    3  A    between atoms: C_4  and  C_30
    4  A    between atoms: O_5  and  C_35
    5  A    between atoms: O_5  and  C_41
    6  A    between atoms: C_6  and  N_47
    7  A    between atoms: C_8  and  O_25
    8  A    between atoms: C_9  and  O_21
    9  A    between atoms: C_9  and  C_24
   10  A    between atoms: C_11  and  C_32
   11  A    between atoms: C_15  and  C_18
   12  A    between atoms: C_17  and  N_47
   13  A    between atoms: O_21  and  C_30
   14  A    between atoms: C_22  and  C_24
   15  A    between atoms: C_22  and  C_31
   16  A    between atoms: O_25  and  C_34
   17  A    between atoms: N_28  and  C_41
   18  A    between atoms: C_31  and  C_38
   19  A    between atoms: C_35  and  C_39
                            x       y       z     vdW  Elec       q    Type
                         _______ _______ _______ _____ _____    ______ ____

>  <TORSDO>
F 19

$$$$
=
 OpenBabel11032420473D

 47 50  0  0  1  0  0  0  0  0999 V2000
  186.0990  179.4500  146.0980 C   0  0  0  0  0  3  0  0  0  0  0  0
  185.9740  177.2650  144.2330 C   0  0  2  0  0  3  0  0  0  0  0  0
  185.4590  179.6340  144.9450 C   0  0  0  0  0  0  0  0  0  0  0  0
  185.2040  178.5120  144.0720 N   0  0  0  0  0  0  0  0  0  0  0  0
  184.9810  181.0030  144.5980 C   0  0  0  0  0  1  0  0  0  0  0  0
  186.5430  178.1020  146.5000 C   0  0  0  0  0  0  0  0  0  0  0  0
  186.4330  177.0730  145.6560 C   0  0  0  0  0  3  0  0  0  0  0  0
  188.0810  176.2120  143.3990 C   0  0  0  0  0  3  0  0  0  0  0  0
  189.1480  176.1380  142.5010 C   0  0  0  0  0  3  0  0  0  0  0  0
  189.2910  177.0920  141.4790 C   0  0  0  0  0  0  0  0  0  0  0  0
  188.3430  178.1250  141.3730 C   0  0  0  0  0  3  0  0  0  0  0  0
  187.1390  177.2410  143.2910 C   0  0  0  0  0  0  0  0  0  0  0  0
  187.2720  178.1950  142.2700 C   0  0  0  0  0  3  0  0  0  0  0  0
  190.2530  176.5010  139.2400 C   0  0  0  0  0  3  0  0  0  0  0  0
  191.2060  175.9650  137.0740 C   0  0  0  0  0  3  0  0  0  0  0  0
  192.3230  175.9170  136.2280 C   0  0  0  0  0  3  0  0  0  0  0  0
  193.5780  176.3540  136.6760 C   0  0  0  0  0  0  0  0  0  0  0  0
  190.4260  177.0020  140.5360 C   0  0  0  0  0  0  0  0  0  0  0  0
  191.3440  176.4560  138.3760 C   0  0  0  0  0  0  0  0  0  0  0  0
  192.5990  176.9130  138.8270 C   0  0  0  0  0  0  0  0  0  0  0  0
  193.7130  176.8570  137.9810 C   0  0  0  0  0  3  0  0  0  0  0  0
  192.7180  177.3970  140.0940 N   0  0  0  0  0  0  0  0  0  0  0  0
  191.6640  177.4450  140.9150 N   0  0  0  0  0  0  0  0  0  0  0  0
  194.7030  176.2610  135.7910 N   0  0  0  0  0  2  0  0  0  0  0  0
  195.7300  175.2330  135.8960 C   0  0  0  0  0  2  0  0  0  0  0  0
  196.8840  175.5580  134.9670 C   0  0  0  0  0  1  0  0  0  0  0  0
  182.7870  178.5420  143.6640 C   0  0  0  0  0  1  0  0  0  0  0  0
  184.1690  178.6110  143.0360 C   0  0  2  0  0  3  0  0  0  0  0  0
  184.3090  177.5900  142.0920 O   0  0  0  0  0  0  0  0  0  0  0  0
  183.8130  178.1160  140.8990 C   0  0  0  0  0  2  0  0  0  0  0  0
  182.9900  177.0560  140.1940 C   0  0  0  0  0  2  0  0  0  0  0  0
  181.8010  177.6900  139.5030 C   0  0  0  0  0  2  0  0  0  0  0  0
  181.2210  178.7930  140.3760 C   0  0  2  0  0  3  0  0  0  0  0  0
  180.0170  178.2660  141.1560 C   0  0  0  0  0  1  0  0  0  0  0  0
  180.8190  179.8880  139.5610 O   0  0  0  0  0  0  0  0  0  0  0  0
  182.7710  180.7630  138.6690 O   0  0  0  0  0  0  0  0  0  0  0  0
  181.5900  180.3500  138.4910 C   0  0  0  0  0  0  0  0  0  0  0  0
  181.0240  180.3460  137.1120 C   0  0  0  0  0  1  0  0  0  0  0  0
  187.0100  177.8540  147.9000 C   0  0  0  0  0  2  0  0  0  0  0  0
  188.2420  176.9560  147.9130 C   0  0  0  0  0  2  0  0  0  0  0  0
  189.4030  177.6280  147.1990 C   0  0  0  0  0  2  0  0  0  0  0  0
  190.6580  176.7850  147.3430 C   0  0  0  0  0  2  0  0  0  0  0  0
  191.6840  177.3090  146.5450 O   0  0  0  0  0  0  0  0  0  0  0  0
  191.8490  175.8820  144.7840 O   0  0  0  0  0  1  0  0  0  0  0  0
  191.2730  177.0680  145.2330 C   0  0  2  0  0  3  0  0  0  0  0  0
  191.7280  178.2150  144.3480 C   0  0  0  0  0  2  0  0  0  0  0  0
  190.6580  179.0720  144.0780 O   0  0  0  0  0  1  0  0  0  0  0  0
  1  6  1  0  0  0  0
  2 12  1  6  0  0  0
  2  7  1  0  0  0  0
  3  1  2  0  0  0  0
  4  2  1  0  0  0  0
  4  3  1  0  0  0  0
  5  3  1  0  0  0  0
  6 39  1  0  0  0  0
  7  6  2  0  0  0  0
  9  8  2  0  0  0  0
 10  9  1  0  0  0  0
 11 10  2  0  0  0  0
 11 13  1  0  0  0  0
 12  8  1  0  0  0  0
 13 12  2  0  0  0  0
 14 18  1  0  0  0  0
 15 19  1  0  0  0  0
 16 17  1  0  0  0  0
 16 15  2  0  0  0  0
 17 21  2  0  0  0  0
 18 23  2  0  0  0  0
 18 10  1  0  0  0  0
 19 20  1  0  0  0  0
 19 14  2  0  0  0  0
 20 22  2  0  0  0  0
 21 20  1  0  0  0  0
 22 23  1  0  0  0  0
 24 25  1  0  0  0  0
 24 17  1  0  0  0  0
 26 25  1  0  0  0  0
 28 27  1  1  0  0  0
 28  4  1  0  0  0  0
 29 28  1  0  0  0  0
 30 29  1  0  0  0  0
 31 30  1  0  0  0  0
 32 31  1  0  0  0  0
 32 33  1  0  0  0  0
 33 34  1  6  0  0  0
 35 33  1  0  0  0  0
 37 36  2  0  0  0  0
 37 35  1  0  0  0  0
 38 37  1  0  0  0  0
 39 40  1  0  0  0  0
 41 42  1  0  0  0  0
 41 40  1  0  0  0  0
 43 42  1  0  0  0  0
 45 44  1  6  0  0  0
 45 43  1  0  0  0  0
 46 45  1  0  0  0  0
 47 46  1  0  0  0  0
M  END
>  <MODEL>
4

>  <REMARK>
 VINA RESULT:      -6.8      3.744      7.868
  Name = 
  19 active torsions:
  status: ('A' for Active; 'I' for Inactive)
    1  A    between atoms: C_1  and  C_8
    2  A    between atoms: C_1  and  C_39
    3  A    between atoms: C_4  and  C_30
    4  A    between atoms: O_5  and  C_35
    5  A    between atoms: O_5  and  C_41
    6  A    between atoms: C_6  and  N_47
    7  A    between atoms: C_8  and  O_25
    8  A    between atoms: C_9  and  O_21
    9  A    between atoms: C_9  and  C_24
   10  A    between atoms: C_11  and  C_32
   11  A    between atoms: C_15  and  C_18
   12  A    between atoms: C_17  and  N_47
   13  A    between atoms: O_21  and  C_30
   14  A    between atoms: C_22  and  C_24
   15  A    between atoms: C_22  and  C_31
   16  A    between atoms: O_25  and  C_34
   17  A    between atoms: N_28  and  C_41
   18  A    between atoms: C_31  and  C_38
   19  A    between atoms: C_35  and  C_39
                            x       y       z     vdW  Elec       q    Type
                         _______ _______ _______ _____ _____    ______ ____

>  <TORSDO>
F 19

$$$$
=
 OpenBabel11032420473D

 47 50  0  0  1  0  0  0  0  0999 V2000
  190.3040  174.4470  135.1710 C   0  0  0  0  0  3  0  0  0  0  0  0
  189.6200  177.1130  135.9990 C   0  0  2  0  0  3  0  0  0  0  0  0
  189.0160  174.7750  135.2560 C   0  0  0  0  0  0  0  0  0  0  0  0
  188.6350  176.1500  135.4740 N   0  0  0  0  0  0  0  0  0  0  0  0
  187.9890  173.7090  135.0810 C   0  0  0  0  0  1  0  0  0  0  0  0
  191.3490  175.4800  135.2870 C   0  0  0  0  0  0  0  0  0  0  0  0
  191.0280  176.7340  135.6160 C   0  0  0  0  0  3  0  0  0  0  0  0
  188.8140  178.3470  138.0160 C   0  0  0  0  0  3  0  0  0  0  0  0
  188.6350  178.4640  139.3970 C   0  0  0  0  0  3  0  0  0  0  0  0
  189.1270  177.4790  140.2690 C   0  0  0  0  0  0  0  0  0  0  0  0
  189.8060  176.3720  139.7330 C   0  0  0  0  0  3  0  0  0  0  0  0
  189.4890  177.2420  137.4850 C   0  0  0  0  0  0  0  0  0  0  0  0
  189.9810  176.2520  138.3500 C   0  0  0  0  0  3  0  0  0  0  0  0
  187.6490  177.6030  142.2910 C   0  0  0  0  0  3  0  0  0  0  0  0
  186.2470  177.6980  144.2690 C   0  0  0  0  0  3  0  0  0  0  0  0
  186.1340  177.8240  145.6600 C   0  0  0  0  0  3  0  0  0  0  0  0
  187.2770  177.9670  146.4600 C   0  0  0  0  0  0  0  0  0  0  0  0
  188.9320  177.6180  141.7270 C   0  0  0  0  0  0  0  0  0  0  0  0
  187.5120  177.7130  143.6720 C   0  0  0  0  0  0  0  0  0  0  0  0
  188.6660  177.8390  144.4720 C   0  0  0  0  0  0  0  0  0  0  0  0
  188.5470  177.9710  145.8610 C   0  0  0  0  0  3  0  0  0  0  0  0
  189.8920  177.8420  143.8800 N   0  0  0  0  0  0  0  0  0  0  0  0
  190.0170  177.7290  142.5530 N   0  0  0  0  0  0  0  0  0  0  0  0
  187.1190  178.1230  147.8770 N   0  0  0  0  0  2  0  0  0  0  0  0
  188.1430  177.7630  148.8480 C   0  0  0  0  0  2  0  0  0  0  0  0
  189.5030  178.2270  148.3620 C   0  0  0  0  0  1  0  0  0  0  0  0
  187.2830  178.0070  134.6140 C   0  0  0  0  0  1  0  0  0  0  0  0
  187.2690  176.5890  135.1600 C   0  0  2  0  0  3  0  0  0  0  0  0
  186.4530  176.5280  136.2940 O   0  0  0  0  0  0  0  0  0  0  0  0
  185.2320  177.0760  135.9020 C   0  0  0  0  0  2  0  0  0  0  0  0
  184.4040  177.3750  137.1360 C   0  0  0  0  0  2  0  0  0  0  0  0
  185.2030  178.2130  138.1130 C   0  0  0  0  0  2  0  0  0  0  0  0
  184.2710  178.8490  139.1340 C   0  0  2  0  0  3  0  0  0  0  0  0
  184.9900  179.0090  140.4730 C   0  0  0  0  0  1  0  0  0  0  0  0
  183.1190  178.0310  139.3050 O   0  0  0  0  0  0  0  0  0  0  0  0
  181.3710  178.5300  140.7430 O   0  0  0  0  0  0  0  0  0  0  0  0
  181.8540  178.5610  139.5750 C   0  0  0  0  0  0  0  0  0  0  0  0
  181.0620  179.1890  138.4800 C   0  0  0  0  0  1  0  0  0  0  0  0
  192.7650  175.1600  134.9220 C   0  0  0  0  0  2  0  0  0  0  0  0
  193.7430  175.9730  135.7630 C   0  0  0  0  0  2  0  0  0  0  0  0
  193.4970  175.7420  137.2450 C   0  0  0  0  0  2  0  0  0  0  0  0
  193.9590  174.3490  137.6370 C   0  0  0  0  0  2  0  0  0  0  0  0
  195.0290  174.4330  138.5370 O   0  0  0  0  0  0  0  0  0  0  0  0
  196.0670  172.4150  138.4040 O   0  0  0  0  0  1  0  0  0  0  0  0
  196.0640  173.7240  137.9260 C   0  0  2  0  0  3  0  0  0  0  0  0
  197.3900  174.3850  138.2630 C   0  0  0  0  0  2  0  0  0  0  0  0
  197.2980  175.0540  139.4860 O   0  0  0  0  0  1  0  0  0  0  0  0
  1  3  2  0  0  0  0
  1  6  1  0  0  0  0
  2 12  1  1  0  0  0
  3  4  1  0  0  0  0
  4  2  1  0  0  0  0
  5  3  1  0  0  0  0
  6  7  2  0  0  0  0
  7  2  1  0  0  0  0
  8  9  1  0  0  0  0
  9 10  2  0  0  0  0
 10 18  1  0  0  0  0
 11 10  1  0  0  0  0
 12  8  2  0  0  0  0
 12 13  1  0  0  0  0
 13 11  2  0  0  0  0
 14 19  1  0  0  0  0
 15 16  1  0  0  0  0
 16 17  2  0  0  0  0
 17 24  1  0  0  0  0
 18 14  2  0  0  0  0
 18 23  1  0  0  0  0
 19 15  2  0  0  0  0
 19 20  1  0  0  0  0
 20 21  2  0  0  0  0
 21 17  1  0  0  0  0
 22 20  1  0  0  0  0
 23 22  2  0  0  0  0
 24 25  1  0  0  0  0
 26 25  1  0  0  0  0
 28 27  1  1  0  0  0
 28  4  1  0  0  0  0
 28 29  1  0  0  0  0
 30 29  1  0  0  0  0
 30 31  1  0  0  0  0
 31 32  1  0  0  0  0
 32 33  1  0  0  0  0
 33 35  1  0  0  0  0
 33 34  1  1  0  0  0
 35 37  1  0  0  0  0
 37 36  2  0  0  0  0
 38 37  1  0  0  0  0
 39  6  1  0  0  0  0
 39 40  1  0  0  0  0
 40 41  1  0  0  0  0
 41 42  1  0  0  0  0
 42 43  1  0  0  0  0
 45 46  1  0  0  0  0
 45 44  1  1  0  0  0
 45 43  1  0  0  0  0
 46 47  1  0  0  0  0
M  END
>  <MODEL>
5

>  <REMARK>
 VINA RESULT:      -6.8      4.017      6.958
  Name = 
  19 active torsions:
  status: ('A' for Active; 'I' for Inactive)
    1  A    between atoms: C_1  and  C_8
    2  A    between atoms: C_1  and  C_39
    3  A    between atoms: C_4  and  C_30
    4  A    between atoms: O_5  and  C_35
    5  A    between atoms: O_5  and  C_41
    6  A    between atoms: C_6  and  N_47
    7  A    between atoms: C_8  and  O_25
    8  A    between atoms: C_9  and  O_21
    9  A    between atoms: C_9  and  C_24
   10  A    between atoms: C_11  and  C_32
   11  A    between atoms: C_15  and  C_18
   12  A    between atoms: C_17  and  N_47
   13  A    between atoms: O_21  and  C_30
   14  A    between atoms: C_22  and  C_24
   15  A    between atoms: C_22  and  C_31
   16  A    between atoms: O_25  and  C_34
   17  A    between atoms: N_28  and  C_41
   18  A    between atoms: C_31  and  C_38
   19  A    between atoms: C_35  and  C_39
                            x       y       z     vdW  Elec       q    Type
                         _______ _______ _______ _____ _____    ______ ____

>  <TORSDO>
F 19

$$$$
=
 OpenBabel11032420473D

 47 50  0  0  1  0  0  0  0  0999 V2000
  181.8150  176.2930  137.8180 C   0  0  0  0  0  3  0  0  0  0  0  0
  182.7150  178.7930  138.9170 C   0  0  2  0  0  3  0  0  0  0  0  0
  181.3130  176.6920  138.9860 C   0  0  0  0  0  0  0  0  0  0  0  0
  181.5870  178.0230  139.4730 N   0  0  0  0  0  0  0  0  0  0  0  0
  180.4390  175.7560  139.7500 C   0  0  0  0  0  1  0  0  0  0  0  0
  182.6420  177.2060  137.0080 C   0  0  0  0  0  0  0  0  0  0  0  0
  183.0150  178.3930  137.4940 C   0  0  0  0  0  3  0  0  0  0  0  0
  183.7960  178.0810  141.0540 C   0  0  0  0  0  3  0  0  0  0  0  0
  184.9220  177.8830  141.8570 C   0  0  0  0  0  3  0  0  0  0  0  0
  186.2000  178.2420  141.3980 C   0  0  0  0  0  0  0  0  0  0  0  0
  186.3320  178.8050  140.1180 C   0  0  0  0  0  3  0  0  0  0  0  0
  183.9300  178.6420  139.7790 C   0  0  0  0  0  0  0  0  0  0  0  0
  185.2050  178.9990  139.3120 C   0  0  0  0  0  3  0  0  0  0  0  0
  187.2440  177.6220  143.5930 C   0  0  0  0  0  3  0  0  0  0  0  0
  188.2830  177.0010  145.6960 C   0  0  0  0  0  3  0  0  0  0  0  0
  189.4460  176.8070  146.4530 C   0  0  0  0  0  3  0  0  0  0  0  0
  190.7120  177.0210  145.8880 C   0  0  0  0  0  0  0  0  0  0  0  0
  187.3830  178.0270  142.2600 C   0  0  0  0  0  0  0  0  0  0  0  0
  188.3840  177.4090  144.3620 C   0  0  0  0  0  0  0  0  0  0  0  0
  189.6540  177.6100  143.7820 C   0  0  0  0  0  0  0  0  0  0  0  0
  190.8120  177.4210  144.5450 C   0  0  0  0  0  3  0  0  0  0  0  0
  189.7400  177.9980  142.4800 N   0  0  0  0  0  0  0  0  0  0  0  0
  188.6400  178.1930  141.7450 N   0  0  0  0  0  0  0  0  0  0  0  0
  191.8770  176.8400  146.7030 N   0  0  0  0  0  2  0  0  0  0  0  0
  192.0970  175.6760  147.5510 C   0  0  0  0  0  2  0  0  0  0  0  0
  193.0190  176.0390  148.6990 C   0  0  0  0  0  1  0  0  0  0  0  0
  180.5760  180.1060  140.2810 C   0  0  0  0  0  1  0  0  0  0  0  0
  180.7330  178.6120  140.5120 C   0  0  2  0  0  3  0  0  0  0  0  0
  181.2660  178.3840  141.7830 O   0  0  0  0  0  0  0  0  0  0  0  0
  180.7160  179.3730  142.5990 C   0  0  0  0  0  2  0  0  0  0  0  0
  181.0570  179.0690  144.0450 C   0  0  0  0  0  2  0  0  0  0  0  0
  182.3610  178.3050  144.1270 C   0  0  0  0  0  2  0  0  0  0  0  0
  183.3930  179.1200  144.8940 C   0  0  2  0  0  3  0  0  0  0  0  0
  184.0520  180.1390  143.9650 C   0  0  0  0  0  1  0  0  0  0  0  0
  184.3840  178.2530  145.4330 O   0  0  0  0  0  0  0  0  0  0  0  0
  184.5310  177.8340  147.7070 O   0  0  0  0  0  0  0  0  0  0  0  0
  184.9560  178.4550  146.6910 C   0  0  0  0  0  0  0  0  0  0  0  0
  186.0950  179.4040  146.8460 C   0  0  0  0  0  1  0  0  0  0  0  0
  182.9730  176.8610  135.5900 C   0  0  0  0  0  2  0  0  0  0  0  0
  184.1220  175.8610  135.5250 C   0  0  0  0  0  2  0  0  0  0  0  0
  185.4510  176.5540  135.7800 C   0  0  0  0  0  2  0  0  0  0  0  0
  186.3190  175.6960  136.6820 C   0  0  0  0  0  2  0  0  0  0  0  0
  187.0040  176.5020  137.6010 O   0  0  0  0  0  0  0  0  0  0  0  0
  188.6590  175.2340  136.6960 O   0  0  0  0  0  1  0  0  0  0  0  0
  188.3260  176.5070  137.1540 C   0  0  2  0  0  3  0  0  0  0  0  0
  189.2420  176.8810  138.3070 C   0  0  0  0  0  2  0  0  0  0  0  0
  189.4270  178.2650  138.3460 O   0  0  0  0  0  1  0  0  0  0  0  0
  1  3  2  0  0  0  0
  2  4  1  0  0  0  0
  2 12  1  1  0  0  0
  3  4  1  0  0  0  0
  3  5  1  0  0  0  0
  4 28  1  0  0  0  0
  6  7  2  0  0  0  0
  6  1  1  0  0  0  0
  7  2  1  0  0  0  0
  8  9  1  0  0  0  0
 10  9  2  0  0  0  0
 10 18  1  0  0  0  0
 11 10  1  0  0  0  0
 12  8  2  0  0  0  0
 13 12  1  0  0  0  0
 13 11  2  0  0  0  0
 14 19  1  0  0  0  0
 15 16  1  0  0  0  0
 17 16  2  0  0  0  0
 17 24  1  0  0  0  0
 18 14  2  0  0  0  0
 19 15  2  0  0  0  0
 20 19  1  0  0  0  0
 20 21  2  0  0  0  0
 21 17  1  0  0  0  0
 22 20  1  0  0  0  0
 23 18  1  0  0  0  0
 23 22  2  0  0  0  0
 24 25  1  0  0  0  0
 25 26  1  0  0  0  0
 28 27  1  6  0  0  0
 28 29  1  0  0  0  0
 29 30  1  0  0  0  0
 30 31  1  0  0  0  0
 31 32  1  0  0  0  0
 32 33  1  0  0  0  0
 33 34  1  6  0  0  0
 33 35  1  0  0  0  0
 35 37  1  0  0  0  0
 37 38  1  0  0  0  0
 37 36  2  0  0  0  0
 39  6  1  0  0  0  0
 40 39  1  0  0  0  0
 40 41  1  0  0  0  0
 41 42  1  0  0  0  0
 42 43  1  0  0  0  0
 45 44  1  1  0  0  0
 45 43  1  0  0  0  0
 45 46  1  0  0  0  0
 46 47  1  0  0  0  0
M  END
>  <MODEL>
6

>  <REMARK>
 VINA RESULT:      -6.5      2.381      4.529
  Name = 
  19 active torsions:
  status: ('A' for Active; 'I' for Inactive)
    1  A    between atoms: C_1  and  C_8
    2  A    between atoms: C_1  and  C_39
    3  A    between atoms: C_4  and  C_30
    4  A    between atoms: O_5  and  C_35
    5  A    between atoms: O_5  and  C_41
    6  A    between atoms: C_6  and  N_47
    7  A    between atoms: C_8  and  O_25
    8  A    between atoms: C_9  and  O_21
    9  A    between atoms: C_9  and  C_24
   10  A    between atoms: C_11  and  C_32
   11  A    between atoms: C_15  and  C_18
   12  A    between atoms: C_17  and  N_47
   13  A    between atoms: O_21  and  C_30
   14  A    between atoms: C_22  and  C_24
   15  A    between atoms: C_22  and  C_31
   16  A    between atoms: O_25  and  C_34
   17  A    between atoms: N_28  and  C_41
   18  A    between atoms: C_31  and  C_38
   19  A    between atoms: C_35  and  C_39
                            x       y       z     vdW  Elec       q    Type
                         _______ _______ _______ _____ _____    ______ ____

>  <TORSDO>
F 19

$$$$
=
 OpenBabel11032420473D

 47 50  0  0  1  0  0  0  0  0999 V2000
  185.8670  179.7180  145.9250 C   0  0  0  0  0  3  0  0  0  0  0  0
  185.7700  177.4880  144.1130 C   0  0  2  0  0  3  0  0  0  0  0  0
  185.2630  179.8800  144.7490 C   0  0  0  0  0  0  0  0  0  0  0  0
  185.0200  178.7390  143.8980 N   0  0  0  0  0  0  0  0  0  0  0  0
  184.8130  181.2460  144.3530 C   0  0  0  0  0  1  0  0  0  0  0  0
  186.2820  178.3760  146.3740 C   0  0  0  0  0  0  0  0  0  0  0  0
  186.1840  177.3270  145.5540 C   0  0  0  0  0  3  0  0  0  0  0  0
  187.9070  176.4130  143.3940 C   0  0  0  0  0  3  0  0  0  0  0  0
  189.0000  176.3020  142.5320 C   0  0  0  0  0  3  0  0  0  0  0  0
  189.1650  177.2030  141.4660 C   0  0  0  0  0  0  0  0  0  0  0  0
  188.2130  178.2200  141.2800 C   0  0  0  0  0  3  0  0  0  0  0  0
  186.9610  177.4260  143.2070 C   0  0  0  0  0  0  0  0  0  0  0  0
  187.1160  178.3270  142.1410 C   0  0  0  0  0  3  0  0  0  0  0  0
  190.1820  176.5710  139.2630 C   0  0  0  0  0  3  0  0  0  0  0  0
  191.1900  175.9940  137.1330 C   0  0  0  0  0  3  0  0  0  0  0  0
  192.3320  175.9090  136.3250 C   0  0  0  0  0  3  0  0  0  0  0  0
  193.5840  176.3130  136.8110 C   0  0  0  0  0  0  0  0  0  0  0  0
  190.3270  177.0750  140.5620 C   0  0  0  0  0  0  0  0  0  0  0  0
  191.2990  176.4890  138.4360 C   0  0  0  0  0  0  0  0  0  0  0  0
  192.5510  176.9130  138.9260 C   0  0  0  0  0  0  0  0  0  0  0  0
  193.6900  176.8190  138.1170 C   0  0  0  0  0  3  0  0  0  0  0  0
  192.6430  177.4010  140.1930 N   0  0  0  0  0  0  0  0  0  0  0  0
  191.5640  177.4840  140.9800 N   0  0  0  0  0  0  0  0  0  0  0  0
  194.7340  176.1820  135.9640 N   0  0  0  0  0  2  0  0  0  0  0  0
  195.8140  175.2360  136.2100 C   0  0  0  0  0  2  0  0  0  0  0  0
  195.2440  173.8530  136.4590 C   0  0  0  0  0  1  0  0  0  0  0  0
  182.6240  178.6050  143.3960 C   0  0  0  0  0  1  0  0  0  0  0  0
  184.0170  178.8240  142.8290 C   0  0  2  0  0  3  0  0  0  0  0  0
  184.2730  177.8820  141.8290 O   0  0  0  0  0  0  0  0  0  0  0  0
  183.1760  177.9440  140.9710 C   0  0  0  0  0  2  0  0  0  0  0  0
  183.4570  178.9570  139.8780 C   0  0  0  0  0  2  0  0  0  0  0  0
  184.9270  178.9390  139.5130 C   0  0  0  0  0  2  0  0  0  0  0  0
  185.1790  177.8990  138.4300 C   0  0  2  0  0  3  0  0  0  0  0  0
  186.4470  178.2470  137.6530 C   0  0  0  0  0  1  0  0  0  0  0  0
  184.0690  177.8550  137.5410 O   0  0  0  0  0  0  0  0  0  0  0  0
  183.6990  177.0660  135.3930 O   0  0  0  0  0  0  0  0  0  0  0  0
  183.8850  176.8210  136.6190 C   0  0  0  0  0  0  0  0  0  0  0  0
  183.9210  175.4030  137.0770 C   0  0  0  0  0  1  0  0  0  0  0  0
  186.7040  178.1580  147.7930 C   0  0  0  0  0  2  0  0  0  0  0  0
  187.8740  177.1830  147.8700 C   0  0  0  0  0  2  0  0  0  0  0  0
  189.1080  177.8680  148.4350 C   0  0  0  0  0  2  0  0  0  0  0  0
  190.3200  177.5370  147.5830 C   0  0  0  0  0  2  0  0  0  0  0  0
  189.9370  177.3690  146.2460 O   0  0  0  0  0  0  0  0  0  0  0  0
  192.0600  176.6240  146.5670 O   0  0  0  0  0  1  0  0  0  0  0  0
  191.0640  176.8390  145.6170 C   0  0  2  0  0  3  0  0  0  0  0  0
  191.5670  177.8270  144.5770 C   0  0  0  0  0  2  0  0  0  0  0  0
  190.6050  178.8130  144.3430 O   0  0  0  0  0  1  0  0  0  0  0  0
  1  6  1  0  0  0  0
  2 12  1  6  0  0  0
  2  7  1  0  0  0  0
  3  1  2  0  0  0  0
  4  2  1  0  0  0  0
  4  3  1  0  0  0  0
  5  3  1  0  0  0  0
  6 39  1  0  0  0  0
  7  6  2  0  0  0  0
  9  8  2  0  0  0  0
 10  9  1  0  0  0  0
 11 10  2  0  0  0  0
 11 13  1  0  0  0  0
 12  8  1  0  0  0  0
 13 12  2  0  0  0  0
 14 18  1  0  0  0  0
 15 19  1  0  0  0  0
 16 17  1  0  0  0  0
 16 15  2  0  0  0  0
 17 21  2  0  0  0  0
 18 23  2  0  0  0  0
 18 10  1  0  0  0  0
 19 20  1  0  0  0  0
 19 14  2  0  0  0  0
 20 22  2  0  0  0  0
 21 20  1  0  0  0  0
 22 23  1  0  0  0  0
 24 25  1  0  0  0  0
 24 17  1  0  0  0  0
 25 26  1  0  0  0  0
 28 27  1  1  0  0  0
 28  4  1  0  0  0  0
 29 28  1  0  0  0  0
 30 29  1  0  0  0  0
 31 30  1  0  0  0  0
 32 31  1  0  0  0  0
 33 34  1  6  0  0  0
 33 32  1  0  0  0  0
 35 33  1  0  0  0  0
 36 37  2  0  0  0  0
 37 38  1  0  0  0  0
 37 35  1  0  0  0  0
 39 40  1  0  0  0  0
 40 41  1  0  0  0  0
 42 41  1  0  0  0  0
 43 42  1  0  0  0  0
 45 43  1  0  0  0  0
 45 44  1  1  0  0  0
 46 45  1  0  0  0  0
 47 46  1  0  0  0  0
M  END
>  <MODEL>
7

>  <REMARK>
 VINA RESULT:      -6.5      3.742      8.061
  Name = 
  19 active torsions:
  status: ('A' for Active; 'I' for Inactive)
    1  A    between atoms: C_1  and  C_8
    2  A    between atoms: C_1  and  C_39
    3  A    between atoms: C_4  and  C_30
    4  A    between atoms: O_5  and  C_35
    5  A    between atoms: O_5  and  C_41
    6  A    between atoms: C_6  and  N_47
    7  A    between atoms: C_8  and  O_25
    8  A    between atoms: C_9  and  O_21
    9  A    between atoms: C_9  and  C_24
   10  A    between atoms: C_11  and  C_32
   11  A    between atoms: C_15  and  C_18
   12  A    between atoms: C_17  and  N_47
   13  A    between atoms: O_21  and  C_30
   14  A    between atoms: C_22  and  C_24
   15  A    between atoms: C_22  and  C_31
   16  A    between atoms: O_25  and  C_34
   17  A    between atoms: N_28  and  C_41
   18  A    between atoms: C_31  and  C_38
   19  A    between atoms: C_35  and  C_39
                            x       y       z     vdW  Elec       q    Type
                         _______ _______ _______ _____ _____    ______ ____

>  <TORSDO>
F 19

$$$$
=
 OpenBabel11032420473D

 47 50  0  0  1  0  0  0  0  0999 V2000
  182.1770  176.4300  138.2010 C   0  0  0  0  0  3  0  0  0  0  0  0
  182.8550  178.8620  139.5760 C   0  0  2  0  0  3  0  0  0  0  0  0
  181.5900  176.6850  139.3680 C   0  0  0  0  0  0  0  0  0  0  0  0
  181.7520  177.9780  139.9910 N   0  0  0  0  0  0  0  0  0  0  0  0
  180.7390  175.6310  139.9910 C   0  0  0  0  0  1  0  0  0  0  0  0
  182.9860  177.4640  137.5280 C   0  0  0  0  0  0  0  0  0  0  0  0
  183.2550  178.6190  138.1420 C   0  0  0  0  0  3  0  0  0  0  0  0
  183.8110  178.3750  141.8320 C   0  0  0  0  0  3  0  0  0  0  0  0
  184.8920  178.1700  142.6930 C   0  0  0  0  0  3  0  0  0  0  0  0
  186.2110  178.2880  142.2260 C   0  0  0  0  0  0  0  0  0  0  0  0
  186.4300  178.6170  140.8770 C   0  0  0  0  0  3  0  0  0  0  0  0
  184.0310  178.7020  140.4900 C   0  0  0  0  0  0  0  0  0  0  0  0
  185.3470  178.8170  140.0140 C   0  0  0  0  0  3  0  0  0  0  0  0
  187.1330  177.7960  144.5050 C   0  0  0  0  0  3  0  0  0  0  0  0
  188.0540  177.2950  146.6930 C   0  0  0  0  0  3  0  0  0  0  0  0
  189.1740  177.0890  147.5100 C   0  0  0  0  0  3  0  0  0  0  0  0
  190.4700  177.1610  146.9780 C   0  0  0  0  0  0  0  0  0  0  0  0
  187.3450  178.0690  143.1480 C   0  0  0  0  0  0  0  0  0  0  0  0
  188.2290  177.5740  145.3340 C   0  0  0  0  0  0  0  0  0  0  0  0
  189.5280  177.6320  144.7890 C   0  0  0  0  0  0  0  0  0  0  0  0
  190.6440  177.4310  145.6110 C   0  0  0  0  0  3  0  0  0  0  0  0
  189.6860  177.8940  143.4630 N   0  0  0  0  0  0  0  0  0  0  0  0
  188.6270  178.1000  142.6710 N   0  0  0  0  0  0  0  0  0  0  0  0
  191.5910  176.9740  147.8520 N   0  0  0  0  0  2  0  0  0  0  0  0
  192.4120  175.7700  147.8650 C   0  0  0  0  0  2  0  0  0  0  0  0
  192.3580  175.0920  146.5100 C   0  0  0  0  0  1  0  0  0  0  0  0
  179.5360  177.5840  140.9640 C   0  0  0  0  0  1  0  0  0  0  0  0
  180.8080  178.4130  141.0280 C   0  0  2  0  0  3  0  0  0  0  0  0
  180.4960  179.7680  140.8800 O   0  0  0  0  0  0  0  0  0  0  0  0
  179.4840  179.8130  139.9200 C   0  0  0  0  0  2  0  0  0  0  0  0
  179.0620  181.2540  139.7130 C   0  0  0  0  0  2  0  0  0  0  0  0
  180.0940  181.9880  138.8830 C   0  0  0  0  0  2  0  0  0  0  0  0
  179.7500  181.8710  137.4050 C   0  0  2  0  0  3  0  0  0  0  0  0
  180.8090  181.0380  136.6830 C   0  0  0  0  0  1  0  0  0  0  0  0
  179.6840  183.1680  136.8240 O   0  0  0  0  0  0  0  0  0  0  0  0
  181.7750  184.1500  137.0040 O   0  0  0  0  0  0  0  0  0  0  0  0
  180.5300  184.2100  137.2130 C   0  0  0  0  0  0  0  0  0  0  0  0
  179.9630  185.4200  137.8720 C   0  0  0  0  0  1  0  0  0  0  0  0
  183.4130  177.2750  136.1060 C   0  0  0  0  0  2  0  0  0  0  0  0
  183.0790  175.8700  135.6180 C   0  0  0  0  0  2  0  0  0  0  0  0
  184.2980  175.2200  134.9820 C   0  0  0  0  0  2  0  0  0  0  0  0
  184.4410  173.7920  135.4770 C   0  0  0  0  0  2  0  0  0  0  0  0
  183.1790  173.2500  135.7540 O   0  0  0  0  0  0  0  0  0  0  0  0
  184.5220  173.0390  137.5760 O   0  0  0  0  0  1  0  0  0  0  0  0
  183.3240  172.6280  136.9950 C   0  0  2  0  0  3  0  0  0  0  0  0
  183.3500  171.1220  136.8000 C   0  0  0  0  0  2  0  0  0  0  0  0
  182.2950  170.7230  135.9760 O   0  0  0  0  0  1  0  0  0  0  0  0
  1  3  2  0  0  0  0
  2  4  1  0  0  0  0
  2 12  1  1  0  0  0
  3  4  1  0  0  0  0
  3  5  1  0  0  0  0
  4 28  1  0  0  0  0
  6  7  2  0  0  0  0
  6  1  1  0  0  0  0
  7  2  1  0  0  0  0
  8  9  1  0  0  0  0
 10  9  2  0  0  0  0
 10 18  1  0  0  0  0
 11 10  1  0  0  0  0
 12  8  2  0  0  0  0
 13 12  1  0  0  0  0
 13 11  2  0  0  0  0
 14 19  1  0  0  0  0
 15 16  1  0  0  0  0
 17 16  2  0  0  0  0
 17 24  1  0  0  0  0
 18 14  2  0  0  0  0
 19 15  2  0  0  0  0
 20 19  1  0  0  0  0
 20 21  2  0  0  0  0
 21 17  1  0  0  0  0
 22 20  1  0  0  0  0
 23 18  1  0  0  0  0
 23 22  2  0  0  0  0
 24 25  1  0  0  0  0
 26 25  1  0  0  0  0
 28 27  1  6  0  0  0
 29 28  1  0  0  0  0
 30 29  1  0  0  0  0
 31 30  1  0  0  0  0
 32 31  1  0  0  0  0
 33 34  1  6  0  0  0
 33 32  1  0  0  0  0
 35 37  1  0  0  0  0
 35 33  1  0  0  0  0
 36 37  2  0  0  0  0
 37 38  1  0  0  0  0
 39  6  1  0  0  0  0
 40 39  1  0  0  0  0
 41 42  1  0  0  0  0
 41 40  1  0  0  0  0
 42 43  1  0  0  0  0
 43 45  1  0  0  0  0
 45 44  1  6  0  0  0
 46 45  1  0  0  0  0
 47 46  1  0  0  0  0
M  END
>  <MODEL>
8

>  <REMARK>
 VINA RESULT:      -6.3      2.144      2.951
  Name = 
  19 active torsions:
  status: ('A' for Active; 'I' for Inactive)
    1  A    between atoms: C_1  and  C_8
    2  A    between atoms: C_1  and  C_39
    3  A    between atoms: C_4  and  C_30
    4  A    between atoms: O_5  and  C_35
    5  A    between atoms: O_5  and  C_41
    6  A    between atoms: C_6  and  N_47
    7  A    between atoms: C_8  and  O_25
    8  A    between atoms: C_9  and  O_21
    9  A    between atoms: C_9  and  C_24
   10  A    between atoms: C_11  and  C_32
   11  A    between atoms: C_15  and  C_18
   12  A    between atoms: C_17  and  N_47
   13  A    between atoms: O_21  and  C_30
   14  A    between atoms: C_22  and  C_24
   15  A    between atoms: C_22  and  C_31
   16  A    between atoms: O_25  and  C_34
   17  A    between atoms: N_28  and  C_41
   18  A    between atoms: C_31  and  C_38
   19  A    between atoms: C_35  and  C_39
                            x       y       z     vdW  Elec       q    Type
                         _______ _______ _______ _____ _____    ______ ____

>  <TORSDO>
F 19

$$$$
=
 OpenBabel11032420473D

 47 50  0  0  1  0  0  0  0  0999 V2000
  191.8180  178.3620  142.4130 C   0  0  0  0  0  3  0  0  0  0  0  0
  189.6580  176.6550  143.2400 C   0  0  2  0  0  3  0  0  0  0  0  0
  191.2430  178.5900  143.5920 C   0  0  0  0  0  0  0  0  0  0  0  0
  190.2950  177.6420  144.1290 N   0  0  0  0  0  0  0  0  0  0  0  0
  191.6270  179.8120  144.3550 C   0  0  0  0  0  1  0  0  0  0  0  0
  191.5030  177.1390  141.6510 C   0  0  0  0  0  0  0  0  0  0  0  0
  190.5380  176.3140  142.0640 C   0  0  0  0  0  3  0  0  0  0  0  0
  188.2360  177.8670  141.5810 C   0  0  0  0  0  3  0  0  0  0  0  0
  186.9950  178.2940  141.1030 C   0  0  0  0  0  3  0  0  0  0  0  0
  185.8180  178.0070  141.8130 C   0  0  0  0  0  0  0  0  0  0  0  0
  185.9050  177.2850  143.0160 C   0  0  0  0  0  3  0  0  0  0  0  0
  188.3210  177.1470  142.7780 C   0  0  0  0  0  0  0  0  0  0  0  0
  187.1480  176.8530  143.4910 C   0  0  0  0  0  3  0  0  0  0  0  0
  184.4310  179.3560  140.2180 C   0  0  0  0  0  3  0  0  0  0  0  0
  183.0620  180.6290  138.6700 C   0  0  0  0  0  3  0  0  0  0  0  0
  181.7910  181.0150  138.2240 C   0  0  0  0  0  3  0  0  0  0  0  0
  180.6350  180.5260  138.8490 C   0  0  0  0  0  0  0  0  0  0  0  0
  184.5110  178.4660  141.2960 C   0  0  0  0  0  0  0  0  0  0  0  0
  183.1800  179.7440  139.7470 C   0  0  0  0  0  0  0  0  0  0  0  0
  182.0210  179.2350  140.3690 C   0  0  0  0  0  0  0  0  0  0  0  0
  180.7540  179.6290  139.9240 C   0  0  0  0  0  3  0  0  0  0  0  0
  182.1480  178.3670  141.4100 N   0  0  0  0  0  0  0  0  0  0  0  0
  183.3540  177.9930  141.8520 N   0  0  0  0  0  0  0  0  0  0  0  0
  179.3530  180.9680  138.3830 N   0  0  0  0  0  2  0  0  0  0  0  0
  179.1080  182.2930  137.8290 C   0  0  0  0  0  2  0  0  0  0  0  0
  178.9320  183.2980  138.9500 C   0  0  0  0  0  1  0  0  0  0  0  0
  191.1120  177.0310  146.3580 C   0  0  0  0  0  1  0  0  0  0  0  0
  189.9790  177.6570  145.5630 C   0  0  2  0  0  3  0  0  0  0  0  0
  188.7890  176.9700  145.8170 O   0  0  0  0  0  0  0  0  0  0  0  0
  188.7420  176.8090  147.2020 C   0  0  0  0  0  2  0  0  0  0  0  0
  187.6370  177.6810  147.7660 C   0  0  0  0  0  2  0  0  0  0  0  0
  186.3930  177.5700  146.9100 C   0  0  0  0  0  2  0  0  0  0  0  0
  185.8940  178.9590  146.5370 C   0  0  2  0  0  3  0  0  0  0  0  0
  186.1870  179.9430  147.6690 C   0  0  0  0  0  1  0  0  0  0  0  0
  184.4930  178.9140  146.2930 O   0  0  0  0  0  0  0  0  0  0  0  0
  184.5550  180.1590  144.3390 O   0  0  0  0  0  0  0  0  0  0  0  0
  183.9220  179.3770  145.1050 C   0  0  0  0  0  0  0  0  0  0  0  0
  182.5510  178.9370  144.7190 C   0  0  0  0  0  1  0  0  0  0  0  0
  192.3420  176.7530  140.4730 C   0  0  0  0  0  2  0  0  0  0  0  0
  191.6650  177.1510  139.1660 C   0  0  0  0  0  2  0  0  0  0  0  0
  190.8290  176.0030  138.6230 C   0  0  0  0  0  2  0  0  0  0  0  0
  189.4150  176.4780  138.3430 C   0  0  0  0  0  2  0  0  0  0  0  0
  189.4270  177.8270  137.9640 O   0  0  0  0  0  0  0  0  0  0  0  0
  187.3040  177.0190  137.8970 O   0  0  0  0  0  1  0  0  0  0  0  0
  188.1210  178.0910  137.5480 C   0  0  2  0  0  3  0  0  0  0  0  0
  188.1040  178.2660  136.0390 C   0  0  0  0  0  2  0  0  0  0  0  0
  186.7900  178.2310  135.5640 O   0  0  0  0  0  1  0  0  0  0  0  0
  1  3  2  0  0  0  0
  2 12  1  6  0  0  0
  2  4  1  0  0  0  0
  3  4  1  0  0  0  0
  3  5  1  0  0  0  0
  4 28  1  0  0  0  0
  6  7  2  0  0  0  0
  6  1  1  0  0  0  0
  7  2  1  0  0  0  0
  8 12  1  0  0  0  0
  9  8  2  0  0  0  0
  9 10  1  0  0  0  0
 10 11  2  0  0  0  0
 11 13  1  0  0  0  0
 12 13  2  0  0  0  0
 14 18  1  0  0  0  0
 15 19  1  0  0  0  0
 16 15  2  0  0  0  0
 16 17  1  0  0  0  0
 17 21  2  0  0  0  0
 18 10  1  0  0  0  0
 18 23  2  0  0  0  0
 19 14  2  0  0  0  0
 19 20  1  0  0  0  0
 20 22  2  0  0  0  0
 21 20  1  0  0  0  0
 22 23  1  0  0  0  0
 24 17  1  0  0  0  0
 25 24  1  0  0  0  0
 25 26  1  0  0  0  0
 28 29  1  0  0  0  0
 28 27  1  1  0  0  0
 29 30  1  0  0  0  0
 30 31  1  0  0  0  0
 32 31  1  0  0  0  0
 33 32  1  0  0  0  0
 33 34  1  1  0  0  0
 35 33  1  0  0  0  0
 36 37  2  0  0  0  0
 37 35  1  0  0  0  0
 38 37  1  0  0  0  0
 39  6  1  0  0  0  0
 40 39  1  0  0  0  0
 41 40  1  0  0  0  0
 42 41  1  0  0  0  0
 43 42  1  0  0  0  0
 45 44  1  6  0  0  0
 45 43  1  0  0  0  0
 46 45  1  0  0  0  0
 47 46  1  0  0  0  0
M  END
>  <MODEL>
9

>  <REMARK>
 VINA RESULT:      -6.3      2.858      9.629
  Name = 
  19 active torsions:
  status: ('A' for Active; 'I' for Inactive)
    1  A    between atoms: C_1  and  C_8
    2  A    between atoms: C_1  and  C_39
    3  A    between atoms: C_4  and  C_30
    4  A    between atoms: O_5  and  C_35
    5  A    between atoms: O_5  and  C_41
    6  A    between atoms: C_6  and  N_47
    7  A    between atoms: C_8  and  O_25
    8  A    between atoms: C_9  and  O_21
    9  A    between atoms: C_9  and  C_24
   10  A    between atoms: C_11  and  C_32
   11  A    between atoms: C_15  and  C_18
   12  A    between atoms: C_17  and  N_47
   13  A    between atoms: O_21  and  C_30
   14  A    between atoms: C_22  and  C_24
   15  A    between atoms: C_22  and  C_31
   16  A    between atoms: O_25  and  C_34
   17  A    between atoms: N_28  and  C_41
   18  A    between atoms: C_31  and  C_38
   19  A    between atoms: C_35  and  C_39
                            x       y       z     vdW  Elec       q    Type
                         _______ _______ _______ _____ _____    ______ ____

>  <TORSDO>
F 19

$$$$
