=
 OpenBabel11042412283D

 26 29  0  0  0  0  0  0  0  0999 V2000
  188.2520  177.3340  142.4810 C   0  0  0  0  0  0  0  0  0  0  0  0
  190.6120  176.8850  138.7840 C   0  0  0  0  0  0  0  0  0  0  0  0
  190.8110  176.3830  140.0320 N   0  0  0  0  0  0  0  0  0  0  0  0
  187.7010  177.3200  143.7040 N   0  0  0  0  0  0  0  0  0  0  0  0
  186.5920  178.0920  143.5430 C   0  0  0  0  0  0  0  0  0  0  0  0
  189.7580  176.8800  140.7040 C   0  0  0  0  0  0  0  0  0  0  0  0
  187.4810  178.0950  141.6300 C   0  0  0  0  0  0  0  0  0  0  0  0
  188.9810  177.6410  139.8620 C   0  0  0  0  0  0  0  0  0  0  0  0
  186.4220  178.5860  142.2870 N   0  0  0  0  0  2  0  0  0  0  0  0
  189.5260  177.6340  138.6760 O   0  0  0  0  0  0  0  0  0  0  0  0
  189.4300  176.6950  142.0570 C   0  0  0  0  0  0  0  0  0  0  0  0
  191.5330  176.6160  137.6480 C   0  0  0  0  0  1  0  0  0  0  0  0
  187.8090  178.2850  140.2790 C   0  0  0  0  0  3  0  0  0  0  0  0
  185.6530  178.3720  144.6330 C   0  0  0  0  0  0  0  0  0  0  0  0
  184.7510  178.5880  146.6550 N   0  0  0  0  0  0  0  0  0  0  0  0
  184.2630  178.8820  144.4780 C   0  0  0  0  0  3  0  0  0  0  0  0
  185.9060  178.2110  145.9210 C   0  0  0  0  0  2  0  0  0  0  0  0
  183.8300  178.9630  145.8650 N   0  0  0  0  0  0  0  0  0  0  0  0
  190.2520  175.8480  142.9710 C   0  0  0  0  0  2  0  0  0  0  0  0
  191.4130  176.6560  143.5250 C   0  0  0  0  0  2  0  0  0  0  0  0
  191.6150  176.3420  144.9950 C   0  0  0  0  0  2  0  0  0  0  0  0
  190.6010  177.1130  147.1700 C   0  0  0  0  0  0  0  0  0  0  0  0
  191.6840  176.9070  147.7810 O   0  0  0  0  0  0  0  0  0  0  0  0
  190.4950  176.8520  145.7710 N   0  0  0  0  0  2  0  0  0  0  0  0
  188.5470  178.0190  148.4640 N   0  0  0  0  0  0  0  0  0  0  0  0
  189.4640  177.6140  147.8870 C   0  0  0  0  0  0  0  0  0  0  0  0
  1  4  1  0  0  0  0
  2  3  2  0  0  0  0
  3  6  1  0  0  0  0
  5  4  2  0  0  0  0
  5 14  1  0  0  0  0
  6 11  2  0  0  0  0
  7  9  1  0  0  0  0
  7  1  2  0  0  0  0
  8 13  2  0  0  0  0
  8  6  1  0  0  0  0
  9  5  1  0  0  0  0
 10  2  1  0  0  0  0
 10  8  1  0  0  0  0
 11  1  1  0  0  0  0
 11 19  1  0  0  0  0
 12  2  1  0  0  0  0
 13  7  1  0  0  0  0
 14 17  1  0  0  0  0
 16 14  2  0  0  0  0
 16 18  1  0  0  0  0
 17 15  1  0  0  0  0
 18 15  2  0  0  0  0
 19 20  1  0  0  0  0
 20 21  1  0  0  0  0
 21 24  1  0  0  0  0
 22 23  2  0  0  0  0
 22 26  1  0  0  0  0
 24 22  1  0  0  0  0
 26 25  3  0  0  0  0
M  END
>  <MODEL>
1

>  <REMARK>
 VINA RESULT:      -8.5      0.000      0.000
  Name = 
  6 active torsions:
  status: ('A' for Active; 'I' for Inactive)
    1  A    between atoms: C_3  and  C_10
    2  A    between atoms: C_5  and  C_17
    3  A    between atoms: C_5  and  C_18
    4  A    between atoms: C_6  and  C_25
    5  A    between atoms: C_17  and  N_26
    6  A    between atoms: C_18  and  C_21
                            x       y       z     vdW  Elec       q    Type
                         _______ _______ _______ _____ _____    ______ ____

>  <TORSDO>
F 6

$$$$
=
 OpenBabel11042412283D

 26 29  0  0  0  0  0  0  0  0999 V2000
  188.2200  177.3750  145.4910 C   0  0  0  0  0  0  0  0  0  0  0  0
  184.1220  178.7490  144.6210 C   0  0  0  0  0  0  0  0  0  0  0  0
  185.0760  178.2260  143.8060 N   0  0  0  0  0  0  0  0  0  0  0  0
  189.4730  176.8970  145.5180 N   0  0  0  0  0  0  0  0  0  0  0  0
  189.8160  177.0270  146.8280 C   0  0  0  0  0  0  0  0  0  0  0  0
  186.0920  178.0180  144.6610 C   0  0  0  0  0  0  0  0  0  0  0  0
  187.8440  177.7720  146.7550 C   0  0  0  0  0  0  0  0  0  0  0  0
  185.7250  178.4110  145.9280 C   0  0  0  0  0  0  0  0  0  0  0  0
  188.8460  177.5590  147.6190 N   0  0  0  0  0  2  0  0  0  0  0  0
  184.5010  178.8620  145.8840 O   0  0  0  0  0  0  0  0  0  0  0  0
  187.3610  177.4850  144.3840 C   0  0  0  0  0  0  0  0  0  0  0  0
  182.7770  179.1570  144.1350 C   0  0  0  0  0  1  0  0  0  0  0  0
  186.5790  178.3100  147.0350 C   0  0  0  0  0  3  0  0  0  0  0  0
  191.1260  176.6260  147.3510 C   0  0  0  0  0  0  0  0  0  0  0  0
  192.9550  176.4790  148.6070 N   0  0  0  0  0  0  0  0  0  0  0  0
  192.0280  175.6040  146.7540 C   0  0  0  0  0  3  0  0  0  0  0  0
  191.7000  177.1180  148.4350 C   0  0  0  0  0  2  0  0  0  0  0  0
  193.1510  175.6340  147.6790 N   0  0  0  0  0  0  0  0  0  0  0  0
  187.7560  177.0300  143.0190 C   0  0  0  0  0  2  0  0  0  0  0  0
  188.4670  178.1520  142.2820 C   0  0  0  0  0  2  0  0  0  0  0  0
  187.9150  178.2870  140.8750 C   0  0  0  0  0  2  0  0  0  0  0  0
  189.2410  178.1160  138.7390 C   0  0  0  0  0  0  0  0  0  0  0  0
  188.9780  179.3130  138.4450 O   0  0  0  0  0  0  0  0  0  0  0  0
  188.7420  177.5360  139.9440 N   0  0  0  0  0  2  0  0  0  0  0  0
  190.7050  176.6940  137.1420 N   0  0  0  0  0  0  0  0  0  0  0  0
  190.0510  177.3290  137.8550 C   0  0  0  0  0  0  0  0  0  0  0  0
  1  4  1  0  0  0  0
  1  7  1  0  0  0  0
  2 10  1  0  0  0  0
  3  2  2  0  0  0  0
  3  6  1  0  0  0  0
  4  5  2  0  0  0  0
  5 14  1  0  0  0  0
  5  9  1  0  0  0  0
  6  8  2  0  0  0  0
  7 13  2  0  0  0  0
  7  9  1  0  0  0  0
  8 13  1  0  0  0  0
 10  8  1  0  0  0  0
 11  6  1  0  0  0  0
 11  1  2  0  0  0  0
 12  2  1  0  0  0  0
 14 17  1  0  0  0  0
 16 14  2  0  0  0  0
 16 18  1  0  0  0  0
 17 15  1  0  0  0  0
 18 15  2  0  0  0  0
 19 11  1  0  0  0  0
 20 19  1  0  0  0  0
 21 20  1  0  0  0  0
 22 24  1  0  0  0  0
 23 22  2  0  0  0  0
 24 21  1  0  0  0  0
 25 26  3  0  0  0  0
 26 22  1  0  0  0  0
M  END
>  <MODEL>
2

>  <REMARK>
 VINA RESULT:      -8.4      2.311      7.354
  Name = 
  6 active torsions:
  status: ('A' for Active; 'I' for Inactive)
    1  A    between atoms: C_3  and  C_10
    2  A    between atoms: C_5  and  C_17
    3  A    between atoms: C_5  and  C_18
    4  A    between atoms: C_6  and  C_25
    5  A    between atoms: C_17  and  N_26
    6  A    between atoms: C_18  and  C_21
                            x       y       z     vdW  Elec       q    Type
                         _______ _______ _______ _____ _____    ______ ____

>  <TORSDO>
F 6

$$$$
=
 OpenBabel11042412283D

 26 29  0  0  0  0  0  0  0  0999 V2000
  185.7120  178.0430  143.4160 C   0  0  0  0  0  0  0  0  0  0  0  0
  187.5090  177.9830  147.4420 C   0  0  0  0  0  0  0  0  0  0  0  0
  187.9760  177.5170  146.2540 N   0  0  0  0  0  0  0  0  0  0  0  0
  185.3750  177.9560  142.1210 N   0  0  0  0  0  0  0  0  0  0  0  0
  184.1500  178.5460  142.0880 C   0  0  0  0  0  0  0  0  0  0  0  0
  186.9720  177.8300  145.4160 C   0  0  0  0  0  0  0  0  0  0  0  0
  184.7070  178.6700  144.1190 C   0  0  0  0  0  0  0  0  0  0  0  0
  185.9620  178.4580  146.1100 C   0  0  0  0  0  0  0  0  0  0  0  0
  183.7050  178.9960  143.2920 N   0  0  0  0  0  2  0  0  0  0  0  0
  186.3120  178.5430  147.3640 O   0  0  0  0  0  0  0  0  0  0  0  0
  186.8890  177.5900  144.0350 C   0  0  0  0  0  0  0  0  0  0  0  0
  188.2740  177.8710  148.7120 C   0  0  0  0  0  1  0  0  0  0  0  0
  184.7830  178.9070  145.5000 C   0  0  0  0  0  3  0  0  0  0  0  0
  183.3680  178.6880  140.8560 C   0  0  0  0  0  0  0  0  0  0  0  0
  181.7250  178.5820  139.3620 N   0  0  0  0  0  0  0  0  0  0  0  0
  183.8310  179.3360  139.5990 C   0  0  0  0  0  3  0  0  0  0  0  0
  182.1310  178.2580  140.6830 C   0  0  0  0  0  2  0  0  0  0  0  0
  182.6610  179.1820  138.7480 N   0  0  0  0  0  0  0  0  0  0  0  0
  187.9920  176.9350  143.2710 C   0  0  0  0  0  2  0  0  0  0  0  0
  188.7970  177.9810  142.5210 C   0  0  0  0  0  2  0  0  0  0  0  0
  190.2820  177.7360  142.7130 C   0  0  0  0  0  2  0  0  0  0  0  0
  191.3620  176.6360  144.7070 C   0  0  0  0  0  0  0  0  0  0  0  0
  191.7880  175.6900  143.9910 O   0  0  0  0  0  0  0  0  0  0  0  0
  190.6000  177.6970  144.1310 N   0  0  0  0  0  2  0  0  0  0  0  0
  191.8740  176.6560  147.2470 N   0  0  0  0  0  0  0  0  0  0  0  0
  191.6450  176.6470  146.1130 C   0  0  0  0  0  0  0  0  0  0  0  0
  1 11  2  0  0  0  0
  1  7  1  0  0  0  0
  2 12  1  0  0  0  0
  3  2  2  0  0  0  0
  4  1  1  0  0  0  0
  5  4  2  0  0  0  0
  5  9  1  0  0  0  0
  6  8  2  0  0  0  0
  6  3  1  0  0  0  0
  7 13  2  0  0  0  0
  8 10  1  0  0  0  0
  9  7  1  0  0  0  0
 10  2  1  0  0  0  0
 11  6  1  0  0  0  0
 13  8  1  0  0  0  0
 14  5  1  0  0  0  0
 15 17  1  0  0  0  0
 16 14  2  0  0  0  0
 17 14  1  0  0  0  0
 18 15  2  0  0  0  0
 18 16  1  0  0  0  0
 19 11  1  0  0  0  0
 20 21  1  0  0  0  0
 20 19  1  0  0  0  0
 21 24  1  0  0  0  0
 22 26  1  0  0  0  0
 23 22  2  0  0  0  0
 24 22  1  0  0  0  0
 26 25  3  0  0  0  0
M  END
>  <MODEL>
3

>  <REMARK>
 VINA RESULT:      -8.3      2.769      5.561
  Name = 
  6 active torsions:
  status: ('A' for Active; 'I' for Inactive)
    1  A    between atoms: C_3  and  C_10
    2  A    between atoms: C_5  and  C_17
    3  A    between atoms: C_5  and  C_18
    4  A    between atoms: C_6  and  C_25
    5  A    between atoms: C_17  and  N_26
    6  A    between atoms: C_18  and  C_21
                            x       y       z     vdW  Elec       q    Type
                         _______ _______ _______ _____ _____    ______ ____

>  <TORSDO>
F 6

$$$$
=
 OpenBabel11042412283D

 26 29  0  0  0  0  0  0  0  0999 V2000
  189.4410  177.5050  144.0140 C   0  0  0  0  0  0  0  0  0  0  0  0
  192.0550  176.0580  147.2560 C   0  0  0  0  0  0  0  0  0  0  0  0
  190.9290  176.8190  147.2950 N   0  0  0  0  0  0  0  0  0  0  0  0
  188.5110  178.0410  143.2090 N   0  0  0  0  0  0  0  0  0  0  0  0
  188.9190  177.6450  141.9730 C   0  0  0  0  0  0  0  0  0  0  0  0
  190.6100  176.9140  145.9920 C   0  0  0  0  0  0  0  0  0  0  0  0
  190.3650  176.8120  143.2640 C   0  0  0  0  0  0  0  0  0  0  0  0
  191.5280  176.2240  145.2340 C   0  0  0  0  0  0  0  0  0  0  0  0
  190.0510  176.8910  141.9640 N   0  0  0  0  0  2  0  0  0  0  0  0
  192.4170  175.7010  146.0350 O   0  0  0  0  0  0  0  0  0  0  0  0
  189.5240  177.5910  145.4140 C   0  0  0  0  0  0  0  0  0  0  0  0
  192.8070  175.6650  148.4770 C   0  0  0  0  0  1  0  0  0  0  0  0
  191.4540  176.1390  143.8370 C   0  0  0  0  0  3  0  0  0  0  0  0
  188.1990  177.9990  140.7460 C   0  0  0  0  0  0  0  0  0  0  0  0
  186.6260  178.6830  139.3310 N   0  0  0  0  0  0  0  0  0  0  0  0
  188.7350  177.9000  139.3610 C   0  0  0  0  0  3  0  0  0  0  0  0
  186.9620  178.4620  140.6920 C   0  0  0  0  0  2  0  0  0  0  0  0
  187.6020  178.3750  138.5800 N   0  0  0  0  0  0  0  0  0  0  0  0
  188.5080  178.3180  146.2310 C   0  0  0  0  0  2  0  0  0  0  0  0
  187.3180  177.4150  146.5030 C   0  0  0  0  0  2  0  0  0  0  0  0
  186.0260  178.2000  146.3810 C   0  0  0  0  0  2  0  0  0  0  0  0
  184.2990  178.7110  144.6180 C   0  0  0  0  0  0  0  0  0  0  0  0
  183.4990  179.1500  145.4870 O   0  0  0  0  0  0  0  0  0  0  0  0
  185.5850  178.2200  144.9960 N   0  0  0  0  0  2  0  0  0  0  0  0
  183.6040  178.7000  142.1220 N   0  0  0  0  0  0  0  0  0  0  0  0
  183.9140  178.7050  143.2360 C   0  0  0  0  0  0  0  0  0  0  0  0
  1 11  1  0  0  0  0
  2  3  2  0  0  0  0
  2 12  1  0  0  0  0
  4  1  1  0  0  0  0
  5  4  2  0  0  0  0
  6  3  1  0  0  0  0
  7 13  1  0  0  0  0
  7  1  2  0  0  0  0
  8  6  1  0  0  0  0
  8 10  1  0  0  0  0
  9  5  1  0  0  0  0
  9  7  1  0  0  0  0
 10  2  1  0  0  0  0
 11  6  2  0  0  0  0
 11 19  1  0  0  0  0
 13  8  2  0  0  0  0
 14  5  1  0  0  0  0
 15 17  1  0  0  0  0
 16 14  2  0  0  0  0
 17 14  1  0  0  0  0
 18 15  2  0  0  0  0
 18 16  1  0  0  0  0
 19 20  1  0  0  0  0
 21 20  1  0  0  0  0
 22 24  1  0  0  0  0
 22 23  2  0  0  0  0
 24 21  1  0  0  0  0
 25 26  3  0  0  0  0
 26 22  1  0  0  0  0
M  END
>  <MODEL>
4

>  <REMARK>
 VINA RESULT:      -8.2      2.489      6.326
  Name = 
  6 active torsions:
  status: ('A' for Active; 'I' for Inactive)
    1  A    between atoms: C_3  and  C_10
    2  A    between atoms: C_5  and  C_17
    3  A    between atoms: C_5  and  C_18
    4  A    between atoms: C_6  and  C_25
    5  A    between atoms: C_17  and  N_26
    6  A    between atoms: C_18  and  C_21
                            x       y       z     vdW  Elec       q    Type
                         _______ _______ _______ _____ _____    ______ ____

>  <TORSDO>
F 6

$$$$
=
 OpenBabel11042412283D

 26 29  0  0  0  0  0  0  0  0999 V2000
  188.6720  177.8770  142.0720 C   0  0  0  0  0  0  0  0  0  0  0  0
  187.8530  178.1330  137.7470 C   0  0  0  0  0  0  0  0  0  0  0  0
  187.1310  178.5640  138.8160 N   0  0  0  0  0  0  0  0  0  0  0  0
  188.7110  177.9230  143.4120 N   0  0  0  0  0  0  0  0  0  0  0  0
  189.8900  177.3080  143.7000 C   0  0  0  0  0  0  0  0  0  0  0  0
  187.9060  178.1880  139.8470 C   0  0  0  0  0  0  0  0  0  0  0  0
  189.8020  177.2520  141.5930 C   0  0  0  0  0  0  0  0  0  0  0  0
  189.0390  177.5620  139.3780 C   0  0  0  0  0  0  0  0  0  0  0  0
  190.5880  176.8820  142.6120 N   0  0  0  0  0  2  0  0  0  0  0  0
  188.9880  177.5370  138.0740 O   0  0  0  0  0  0  0  0  0  0  0  0
  187.6700  178.3690  141.2200 C   0  0  0  0  0  0  0  0  0  0  0  0
  187.4050  178.3170  136.3410 C   0  0  0  0  0  1  0  0  0  0  0  0
  190.0400  177.0640  140.2230 C   0  0  0  0  0  3  0  0  0  0  0  0
  190.3750  177.1180  145.0700 C   0  0  0  0  0  0  0  0  0  0  0  0
  191.6930  176.7600  146.8250 N   0  0  0  0  0  0  0  0  0  0  0  0
  189.5410  177.1520  146.3030 C   0  0  0  0  0  2  0  0  0  0  0  0
  191.6300  176.8870  145.4120 C   0  0  0  0  0  3  0  0  0  0  0  0
  190.5390  176.9050  147.3320 N   0  0  0  0  0  0  0  0  0  0  0  0
  186.4570  179.0720  141.7350 C   0  0  0  0  0  2  0  0  0  0  0  0
  185.3330  178.0750  141.9530 C   0  0  0  0  0  2  0  0  0  0  0  0
  184.5460  178.4380  143.1980 C   0  0  0  0  0  2  0  0  0  0  0  0
  184.9440  178.7350  145.6690 C   0  0  0  0  0  0  0  0  0  0  0  0
  183.7440  179.0730  145.8520 O   0  0  0  0  0  0  0  0  0  0  0  0
  185.4150  178.4020  144.3640 N   0  0  0  0  0  2  0  0  0  0  0  0
  186.5740  178.6440  147.6820 N   0  0  0  0  0  0  0  0  0  0  0  0
  185.8460  178.6850  146.7840 C   0  0  0  0  0  0  0  0  0  0  0  0
  1  4  1  0  0  0  0
  2 10  1  0  0  0  0
  2  3  2  0  0  0  0
  3  6  1  0  0  0  0
  4  5  2  0  0  0  0
  5 14  1  0  0  0  0
  6 11  1  0  0  0  0
  7  1  1  0  0  0  0
  7  9  1  0  0  0  0
  8  6  2  0  0  0  0
  8 13  1  0  0  0  0
  9  5  1  0  0  0  0
 10  8  1  0  0  0  0
 11 19  1  0  0  0  0
 11  1  2  0  0  0  0
 12  2  1  0  0  0  0
 13  7  2  0  0  0  0
 14 17  2  0  0  0  0
 14 16  1  0  0  0  0
 15 18  2  0  0  0  0
 16 18  1  0  0  0  0
 17 15  1  0  0  0  0
 19 20  1  0  0  0  0
 20 21  1  0  0  0  0
 21 24  1  0  0  0  0
 22 23  2  0  0  0  0
 22 26  1  0  0  0  0
 24 22  1  0  0  0  0
 26 25  3  0  0  0  0
M  END
>  <MODEL>
5

>  <REMARK>
 VINA RESULT:      -8.1      2.392      4.771
  Name = 
  6 active torsions:
  status: ('A' for Active; 'I' for Inactive)
    1  A    between atoms: C_3  and  C_10
    2  A    between atoms: C_5  and  C_17
    3  A    between atoms: C_5  and  C_18
    4  A    between atoms: C_6  and  C_25
    5  A    between atoms: C_17  and  N_26
    6  A    between atoms: C_18  and  C_21
                            x       y       z     vdW  Elec       q    Type
                         _______ _______ _______ _____ _____    ______ ____

>  <TORSDO>
F 6

$$$$
=
 OpenBabel11042412283D

 26 29  0  0  0  0  0  0  0  0999 V2000
  187.1090  177.6010  144.6120 C   0  0  0  0  0  0  0  0  0  0  0  0
  190.6730  176.7530  147.0650 C   0  0  0  0  0  0  0  0  0  0  0  0
  190.4620  176.6210  145.7280 N   0  0  0  0  0  0  0  0  0  0  0  0
  186.1660  177.7920  143.6780 N   0  0  0  0  0  0  0  0  0  0  0  0
  185.1170  178.2660  144.4020 C   0  0  0  0  0  0  0  0  0  0  0  0
  189.1890  177.0350  145.6040 C   0  0  0  0  0  0  0  0  0  0  0  0
  186.6190  177.9580  145.8490 C   0  0  0  0  0  0  0  0  0  0  0  0
  188.6910  177.3930  146.8360 C   0  0  0  0  0  0  0  0  0  0  0  0
  185.3540  178.3820  145.7360 N   0  0  0  0  0  2  0  0  0  0  0  0
  189.6250  177.2120  147.7290 O   0  0  0  0  0  0  0  0  0  0  0  0
  188.4160  177.1180  144.4340 C   0  0  0  0  0  0  0  0  0  0  0  0
  191.9650  176.4130  147.7170 C   0  0  0  0  0  1  0  0  0  0  0  0
  187.3860  177.8700  147.0210 C   0  0  0  0  0  3  0  0  0  0  0  0
  183.8300  178.6260  143.7960 C   0  0  0  0  0  0  0  0  0  0  0  0
  181.7170  179.2640  143.5240 N   0  0  0  0  0  0  0  0  0  0  0  0
  183.5200  178.6230  142.3410 C   0  0  0  0  0  3  0  0  0  0  0  0
  182.7530  179.0060  144.4600 C   0  0  0  0  0  2  0  0  0  0  0  0
  182.1310  179.0550  142.3420 N   0  0  0  0  0  0  0  0  0  0  0  0
  188.9590  176.7580  143.0910 C   0  0  0  0  0  2  0  0  0  0  0  0
  189.5850  177.9780  142.4390 C   0  0  0  0  0  2  0  0  0  0  0  0
  188.7180  178.4620  141.2920 C   0  0  0  0  0  2  0  0  0  0  0  0
  188.6450  177.7960  138.8620 C   0  0  0  0  0  0  0  0  0  0  0  0
  188.6720  179.0020  138.5000 O   0  0  0  0  0  0  0  0  0  0  0  0
  188.6670  177.4510  140.2470 N   0  0  0  0  0  2  0  0  0  0  0  0
  188.5500  175.9210  137.0760 N   0  0  0  0  0  0  0  0  0  0  0  0
  188.5930  176.7580  137.8740 C   0  0  0  0  0  0  0  0  0  0  0  0
  1  7  1  0  0  0  0
  2 12  1  0  0  0  0
  2 10  1  0  0  0  0
  3  2  2  0  0  0  0
  4  5  2  0  0  0  0
  4  1  1  0  0  0  0
  5  9  1  0  0  0  0
  6  3  1  0  0  0  0
  6  8  2  0  0  0  0
  7 13  2  0  0  0  0
  8 13  1  0  0  0  0
  8 10  1  0  0  0  0
  9  7  1  0  0  0  0
 11  1  2  0  0  0  0
 11  6  1  0  0  0  0
 14  5  1  0  0  0  0
 14 17  1  0  0  0  0
 15 17  1  0  0  0  0
 16 18  1  0  0  0  0
 16 14  2  0  0  0  0
 18 15  2  0  0  0  0
 19 11  1  0  0  0  0
 20 19  1  0  0  0  0
 21 20  1  0  0  0  0
 22 24  1  0  0  0  0
 23 22  2  0  0  0  0
 24 21  1  0  0  0  0
 25 26  3  0  0  0  0
 26 22  1  0  0  0  0
M  END
>  <MODEL>
6

>  <REMARK>
 VINA RESULT:      -7.9      1.902      6.167
  Name = 
  6 active torsions:
  status: ('A' for Active; 'I' for Inactive)
    1  A    between atoms: C_3  and  C_10
    2  A    between atoms: C_5  and  C_17
    3  A    between atoms: C_5  and  C_18
    4  A    between atoms: C_6  and  C_25
    5  A    between atoms: C_17  and  N_26
    6  A    between atoms: C_18  and  C_21
                            x       y       z     vdW  Elec       q    Type
                         _______ _______ _______ _____ _____    ______ ____

>  <TORSDO>
F 6

$$$$
=
 OpenBabel11042412283D

 26 29  0  0  0  0  0  0  0  0999 V2000
  187.3000  177.7450  145.0240 C   0  0  0  0  0  0  0  0  0  0  0  0
  183.1180  178.9400  144.2980 C   0  0  0  0  0  0  0  0  0  0  0  0
  184.0820  178.5120  143.4400 N   0  0  0  0  0  0  0  0  0  0  0  0
  188.5760  177.3340  145.0050 N   0  0  0  0  0  0  0  0  0  0  0  0
  188.9370  177.4120  146.3140 C   0  0  0  0  0  0  0  0  0  0  0  0
  185.1240  178.3150  144.2660 C   0  0  0  0  0  0  0  0  0  0  0  0
  186.9280  178.0530  146.3140 C   0  0  0  0  0  0  0  0  0  0  0  0
  184.7620  178.6200  145.5580 C   0  0  0  0  0  0  0  0  0  0  0  0
  187.9560  177.8490  147.1480 N   0  0  0  0  0  2  0  0  0  0  0  0
  183.5150  179.0060  145.5590 O   0  0  0  0  0  0  0  0  0  0  0  0
  186.4150  177.8670  143.9400 C   0  0  0  0  0  0  0  0  0  0  0  0
  181.7450  179.2990  143.8570 C   0  0  0  0  0  1  0  0  0  0  0  0
  185.6410  178.5060  146.6440 C   0  0  0  0  0  3  0  0  0  0  0  0
  190.2770  177.0560  146.7920 C   0  0  0  0  0  0  0  0  0  0  0  0
  192.0550  176.7540  148.0930 N   0  0  0  0  0  0  0  0  0  0  0  0
  191.3650  176.4560  145.9730 C   0  0  0  0  0  3  0  0  0  0  0  0
  190.7150  177.2170  148.0290 C   0  0  0  0  0  2  0  0  0  0  0  0
  192.4290  176.3280  146.9570 N   0  0  0  0  0  0  0  0  0  0  0  0
  186.8060  177.5070  142.5450 C   0  0  0  0  0  2  0  0  0  0  0  0
  187.0410  178.7660  141.7300 C   0  0  0  0  0  2  0  0  0  0  0  0
  186.4050  178.6290  140.3590 C   0  0  0  0  0  2  0  0  0  0  0  0
  184.0860  179.3660  139.7020 C   0  0  0  0  0  0  0  0  0  0  0  0
  184.5520  180.1830  138.8630 O   0  0  0  0  0  0  0  0  0  0  0  0
  184.9590  178.5530  140.4870 N   0  0  0  0  0  2  0  0  0  0  0  0
  181.5210  179.1590  140.0080 N   0  0  0  0  0  0  0  0  0  0  0  0
  182.6660  179.2520  139.8710 C   0  0  0  0  0  0  0  0  0  0  0  0
  1  7  1  0  0  0  0
  2 10  1  0  0  0  0
  3  6  1  0  0  0  0
  3  2  2  0  0  0  0
  4  1  1  0  0  0  0
  4  5  2  0  0  0  0
  5 14  1  0  0  0  0
  5  9  1  0  0  0  0
  6  8  2  0  0  0  0
  7 13  2  0  0  0  0
  7  9  1  0  0  0  0
  8 10  1  0  0  0  0
  8 13  1  0  0  0  0
 11  6  1  0  0  0  0
 11  1  2  0  0  0  0
 12  2  1  0  0  0  0
 14 17  1  0  0  0  0
 16 14  2  0  0  0  0
 16 18  1  0  0  0  0
 17 15  1  0  0  0  0
 18 15  2  0  0  0  0
 19 11  1  0  0  0  0
 20 19  1  0  0  0  0
 21 24  1  0  0  0  0
 21 20  1  0  0  0  0
 22 26  1  0  0  0  0
 22 24  1  0  0  0  0
 23 22  2  0  0  0  0
 26 25  3  0  0  0  0
M  END
>  <MODEL>
7

>  <REMARK>
 VINA RESULT:      -7.8      3.310      7.572
  Name = 
  6 active torsions:
  status: ('A' for Active; 'I' for Inactive)
    1  A    between atoms: C_3  and  C_10
    2  A    between atoms: C_5  and  C_17
    3  A    between atoms: C_5  and  C_18
    4  A    between atoms: C_6  and  C_25
    5  A    between atoms: C_17  and  N_26
    6  A    between atoms: C_18  and  C_21
                            x       y       z     vdW  Elec       q    Type
                         _______ _______ _______ _____ _____    ______ ____

>  <TORSDO>
F 6

$$$$
=
 OpenBabel11042412283D

 26 29  0  0  0  0  0  0  0  0999 V2000
  188.4500  177.6430  142.9990 C   0  0  0  0  0  0  0  0  0  0  0  0
  188.3800  177.7970  147.4050 C   0  0  0  0  0  0  0  0  0  0  0  0
  187.3650  177.7480  146.5010 N   0  0  0  0  0  0  0  0  0  0  0  0
  188.2270  177.5830  141.6770 N   0  0  0  0  0  0  0  0  0  0  0  0
  189.4850  177.5820  141.1600 C   0  0  0  0  0  0  0  0  0  0  0  0
  188.0320  177.7220  145.3340 C   0  0  0  0  0  0  0  0  0  0  0  0
  189.8050  177.6750  143.2430 C   0  0  0  0  0  0  0  0  0  0  0  0
  189.3870  177.7540  145.5670 C   0  0  0  0  0  0  0  0  0  0  0  0
  190.4790  177.6390  142.0860 N   0  0  0  0  0  2  0  0  0  0  0  0
  189.5840  177.8010  146.8570 O   0  0  0  0  0  0  0  0  0  0  0  0
  187.5000  177.6700  144.0340 C   0  0  0  0  0  0  0  0  0  0  0  0
  188.1530  177.8420  148.8730 C   0  0  0  0  0  1  0  0  0  0  0  0
  190.3390  177.7330  144.5390 C   0  0  0  0  0  3  0  0  0  0  0  0
  189.7520  177.5260  139.7200 C   0  0  0  0  0  0  0  0  0  0  0  0
  189.7070  177.9390  137.5350 N   0  0  0  0  0  0  0  0  0  0  0  0
  190.6970  176.5960  139.0430 C   0  0  0  0  0  2  0  0  0  0  0  0
  189.1900  178.2990  138.8070 C   0  0  0  0  0  3  0  0  0  0  0  0
  190.5460  176.9930  137.6520 N   0  0  0  0  0  0  0  0  0  0  0  0
  186.0320  177.6070  143.7740 C   0  0  0  0  0  2  0  0  0  0  0  0
  185.3800  178.9250  144.1540 C   0  0  0  0  0  2  0  0  0  0  0  0
  184.3920  179.3480  143.0830 C   0  0  0  0  0  2  0  0  0  0  0  0
  184.4610  178.6750  140.6550 C   0  0  0  0  0  0  0  0  0  0  0  0
  183.3610  178.0710  140.7600 O   0  0  0  0  0  0  0  0  0  0  0  0
  185.0380  179.3390  141.7800 N   0  0  0  0  0  2  0  0  0  0  0  0
  185.6920  178.7130  138.3740 N   0  0  0  0  0  0  0  0  0  0  0  0
  185.1430  178.6960  139.3930 C   0  0  0  0  0  0  0  0  0  0  0  0
  1  7  2  0  0  0  0
  1 11  1  0  0  0  0
  2 12  1  0  0  0  0
  3  2  2  0  0  0  0
  4  1  1  0  0  0  0
  5  4  2  0  0  0  0
  5  9  1  0  0  0  0
  6  8  1  0  0  0  0
  6  3  1  0  0  0  0
  7 13  1  0  0  0  0
  8 10  1  0  0  0  0
  9  7  1  0  0  0  0
 10  2  1  0  0  0  0
 11  6  2  0  0  0  0
 13  8  2  0  0  0  0
 14  5  1  0  0  0  0
 15 18  2  0  0  0  0
 15 17  1  0  0  0  0
 16 14  1  0  0  0  0
 17 14  2  0  0  0  0
 18 16  1  0  0  0  0
 19 11  1  0  0  0  0
 19 20  1  0  0  0  0
 21 20  1  0  0  0  0
 22 23  2  0  0  0  0
 22 24  1  0  0  0  0
 24 21  1  0  0  0  0
 25 26  3  0  0  0  0
 26 22  1  0  0  0  0
M  END
>  <MODEL>
8

>  <REMARK>
 VINA RESULT:      -7.8      2.363      7.510
  Name = 
  6 active torsions:
  status: ('A' for Active; 'I' for Inactive)
    1  A    between atoms: C_3  and  C_10
    2  A    between atoms: C_5  and  C_17
    3  A    between atoms: C_5  and  C_18
    4  A    between atoms: C_6  and  C_25
    5  A    between atoms: C_17  and  N_26
    6  A    between atoms: C_18  and  C_21
                            x       y       z     vdW  Elec       q    Type
                         _______ _______ _______ _____ _____    ______ ____

>  <TORSDO>
F 6

$$$$
=
 OpenBabel11042412283D

 26 29  0  0  0  0  0  0  0  0999 V2000
  188.4850  177.4540  141.8310 C   0  0  0  0  0  0  0  0  0  0  0  0
  184.5430  178.7040  143.3610 C   0  0  0  0  0  0  0  0  0  0  0  0
  185.5270  177.9650  143.9390 N   0  0  0  0  0  0  0  0  0  0  0  0
  189.7130  176.9730  141.5880 N   0  0  0  0  0  0  0  0  0  0  0  0
  189.9640  177.4150  140.3260 C   0  0  0  0  0  0  0  0  0  0  0  0
  186.4590  177.9340  142.9710 C   0  0  0  0  0  0  0  0  0  0  0  0
  188.0340  178.1600  140.7380 C   0  0  0  0  0  0  0  0  0  0  0  0
  186.0180  178.6380  141.8730 C   0  0  0  0  0  0  0  0  0  0  0  0
  188.9600  178.1450  139.7700 N   0  0  0  0  0  2  0  0  0  0  0  0
  184.8280  179.1070  142.1340 O   0  0  0  0  0  0  0  0  0  0  0  0
  187.7150  177.3050  142.9970 C   0  0  0  0  0  0  0  0  0  0  0  0
  183.2650  179.0270  144.0490 C   0  0  0  0  0  1  0  0  0  0  0  0
  186.7790  178.7850  140.7060 C   0  0  0  0  0  3  0  0  0  0  0  0
  191.2150  177.1290  139.6170 C   0  0  0  0  0  0  0  0  0  0  0  0
  192.6810  176.4870  138.0720 N   0  0  0  0  0  0  0  0  0  0  0  0
  192.5880  177.3740  140.1380 C   0  0  0  0  0  2  0  0  0  0  0  0
  191.3060  176.6100  138.4050 C   0  0  0  0  0  3  0  0  0  0  0  0
  193.4040  176.9080  139.0270 N   0  0  0  0  0  0  0  0  0  0  0  0
  188.2120  176.5650  144.1940 C   0  0  0  0  0  2  0  0  0  0  0  0
  188.5030  177.5380  145.3230 C   0  0  0  0  0  2  0  0  0  0  0  0
  189.8710  178.1640  145.1340 C   0  0  0  0  0  2  0  0  0  0  0  0
  191.0010  176.9380  147.0250 C   0  0  0  0  0  0  0  0  0  0  0  0
  190.1860  177.4130  147.8600 O   0  0  0  0  0  0  0  0  0  0  0  0
  190.9020  177.2710  145.6400 N   0  0  0  0  0  2  0  0  0  0  0  0
  192.8760  175.3390  147.8270 N   0  0  0  0  0  0  0  0  0  0  0  0
  192.0380  176.0520  147.4690 C   0  0  0  0  0  0  0  0  0  0  0  0
  1 11  1  0  0  0  0
  2  3  2  0  0  0  0
  2 12  1  0  0  0  0
  4  1  1  0  0  0  0
  5  4  2  0  0  0  0
  6 11  2  0  0  0  0
  6  3  1  0  0  0  0
  7  1  2  0  0  0  0
  8 10  1  0  0  0  0
  8  6  1  0  0  0  0
  9  5  1  0  0  0  0
  9  7  1  0  0  0  0
 10  2  1  0  0  0  0
 11 19  1  0  0  0  0
 13  7  1  0  0  0  0
 13  8  2  0  0  0  0
 14 16  1  0  0  0  0
 14  5  1  0  0  0  0
 15 17  1  0  0  0  0
 15 18  2  0  0  0  0
 17 14  2  0  0  0  0
 18 16  1  0  0  0  0
 19 20  1  0  0  0  0
 21 20  1  0  0  0  0
 21 24  1  0  0  0  0
 22 26  1  0  0  0  0
 22 23  2  0  0  0  0
 24 22  1  0  0  0  0
 26 25  3  0  0  0  0
M  END
>  <MODEL>
9

>  <REMARK>
 VINA RESULT:      -7.8      2.173      5.960
  Name = 
  6 active torsions:
  status: ('A' for Active; 'I' for Inactive)
    1  A    between atoms: C_3  and  C_10
    2  A    between atoms: C_5  and  C_17
    3  A    between atoms: C_5  and  C_18
    4  A    between atoms: C_6  and  C_25
    5  A    between atoms: C_17  and  N_26
    6  A    between atoms: C_18  and  C_21
                            x       y       z     vdW  Elec       q    Type
                         _______ _______ _______ _____ _____    ______ ____

>  <TORSDO>
F 6

$$$$
