=
 OpenBabel11032420363D

 27 31  0  0  1  0  0  0  0  0999 V2000
  189.6660  177.2920  143.1640 N   0  0  0  0  0  0  0  0  0  0  0  0
  190.8660  177.3290  145.4330 C   0  0  1  0  0  3  0  0  0  0  0  0
  187.2640  177.1270  144.7250 C   0  0  2  0  0  3  0  0  0  0  0  0
  185.9550  178.1720  145.4570 S   0  0  0  0  0  0  0  0  0  0  0  0
  189.6970  177.4030  144.5940 C   0  0  0  0  0  0  0  0  0  0  0  0
  191.2210  176.4710  147.5280 N   0  0  0  0  0  0  0  0  0  0  0  0
  186.1560  178.1110  142.8280 C   0  0  0  0  0  2  0  0  0  0  0  0
  191.9910  175.8760  146.6740 C   0  0  0  0  0  3  0  0  0  0  0  0
  185.3600  178.5080  143.7980 C   0  0  2  0  0  3  0  0  0  0  0  0
  188.5280  177.2990  142.5330 C   0  0  0  0  0  0  0  0  0  0  0  0
  190.4520  177.4980  146.8440 C   0  0  2  0  0  3  0  0  0  0  0  0
  188.6060  177.3710  145.3460 C   0  0  0  0  0  0  0  0  0  0  0  0
  191.7590  176.3600  145.3170 C   0  0  0  0  0  2  0  0  0  0  0  0
  187.3050  177.4200  143.2900 N   0  0  0  0  0  0  0  0  0  0  0  0
  188.9430  177.2100  146.8010 C   0  0  0  0  0  2  0  0  0  0  0  0
  188.3450  178.6290  140.4370 C   0  0  0  0  0  2  0  0  0  0  0  0
  188.5290  177.2520  141.0360 C   0  0  1  0  0  3  0  0  0  0  0  0
  189.7760  176.6850  140.5350 N   0  0  0  0  0  2  0  0  0  0  0  0
  189.1790  178.5920  139.1900 C   0  0  0  0  0  2  0  0  0  0  0  0
  190.2720  177.5930  139.5060 C   0  0  2  0  0  3  0  0  0  0  0  0
  190.6530  176.8070  138.2640 C   0  0  0  0  0  2  0  0  0  0  0  0
  190.8310  175.4060  138.5990 N   0  0  0  0  0  2  0  0  0  0  0  0
  191.5910  174.8120  137.5150 C   0  0  0  0  0  1  0  0  0  0  0  0
  184.1340  179.1860  143.5310 N   0  0  0  0  0  2  0  0  0  0  0  0
  182.9550  178.8350  144.2000 N   0  0  0  0  0  2  0  0  0  0  0  0
  181.8730  178.9890  143.2450 C   0  0  0  0  0  2  0  0  0  0  0  0
  180.5650  178.5950  143.8970 C   0  0  0  0  0  1  0  0  0  0  0  0
  1  5  1  0  0  0  0
  2 13  1  1  0  0  0
  2 11  1  0  0  0  0
  3 12  1  1  0  0  0
  3  4  1  0  0  0  0
  5 12  2  0  0  0  0
  5  2  1  0  0  0  0
  7 14  1  0  0  0  0
  7  9  1  0  0  0  0
  8  6  2  0  0  0  0
  9 24  1  1  0  0  0
  9  4  1  0  0  0  0
 10  1  2  0  0  0  0
 10 14  1  0  0  0  0
 11 15  1  6  0  0  0
 11  6  1  0  0  0  0
 12 15  1  0  0  0  0
 13  8  1  0  0  0  0
 14  3  1  0  0  0  0
 16 17  1  0  0  0  0
 17 10  1  1  0  0  0
 18 17  1  0  0  0  0
 19 20  1  0  0  0  0
 19 16  1  0  0  0  0
 20 21  1  6  0  0  0
 20 18  1  0  0  0  0
 21 22  1  0  0  0  0
 23 22  1  0  0  0  0
 24 25  1  0  0  0  0
 26 27  1  0  0  0  0
 26 25  1  0  0  0  0
M  END
>  <MODEL>
1

>  <REMARK>
 VINA RESULT:      -8.3      0.000      0.000
  Name = 
  6 active torsions:
  status: ('A' for Active; 'I' for Inactive)
    1  A    between atoms: N_3  and  C_6
    2  A    between atoms: C_5  and  N_18
    3  A    between atoms: C_6  and  C_19
    4  A    between atoms: C_7  and  C_20
    5  A    between atoms: N_11  and  C_15
    6  A    between atoms: N_11  and  N_18
                            x       y       z     vdW  Elec       q    Type
                         _______ _______ _______ _____ _____    ______ ____

>  <TORSDO>
F 6

$$$$
=
 OpenBabel11032420363D

 27 31  0  0  1  0  0  0  0  0999 V2000
  190.0700  177.8210  142.7680 N   0  0  0  0  0  0  0  0  0  0  0  0
  190.2910  177.7890  145.3250 C   0  0  1  0  0  3  0  0  0  0  0  0
  187.2740  177.4090  143.2590 C   0  0  2  0  0  3  0  0  0  0  0  0
  185.7030  178.3210  143.4560 S   0  0  0  0  0  0  0  0  0  0  0  0
  189.5360  177.8430  144.0990 C   0  0  0  0  0  0  0  0  0  0  0  0
  189.8770  176.8250  147.3620 N   0  0  0  0  0  0  0  0  0  0  0  0
  186.9100  178.4390  141.1150 C   0  0  0  0  0  2  0  0  0  0  0  0
  190.9630  176.3340  146.8570 C   0  0  0  0  0  3  0  0  0  0  0  0
  185.7710  178.7240  141.7090 C   0  0  0  0  0  0  0  0  0  0  0  0
  189.2690  177.7970  141.7420 C   0  0  0  0  0  0  0  0  0  0  0  0
  189.3510  177.8430  146.4660 C   0  0  2  0  0  3  0  0  0  0  0  0
  188.2470  177.6950  144.3630 C   0  0  0  0  0  0  0  0  0  0  0  0
  191.2360  176.8870  145.5340 C   0  0  0  0  0  2  0  0  0  0  0  0
  187.8430  177.7930  141.9650 N   0  0  0  0  0  0  0  0  0  0  0  0
  188.0060  177.4640  145.8280 C   0  0  0  0  0  2  0  0  0  0  0  0
  191.3160  177.4560  140.3680 C   0  0  0  0  0  2  0  0  0  0  0  0
  189.8530  177.8440  140.3640 C   0  0  1  0  0  3  0  0  0  0  0  0
  189.1330  176.9510  139.4630 N   0  0  0  0  0  2  0  0  0  0  0  0
  191.4990  176.7360  139.0640 C   0  0  0  0  0  2  0  0  0  0  0  0
  190.1350  176.1460  138.7730 C   0  0  2  0  0  3  0  0  0  0  0  0
  189.8600  176.1470  137.2810 C   0  0  0  0  0  2  0  0  0  0  0  0
  189.9170  177.5030  136.7650 N   0  0  0  0  0  2  0  0  0  0  0  0
  188.7390  177.6860  135.9380 C   0  0  0  0  0  1  0  0  0  0  0  0
  184.6930  179.3400  141.0080 N   0  0  0  0  0  0  0  0  0  0  0  0
  184.8230  179.7050  139.6620 N   0  0  0  0  0  2  0  0  0  0  0  0
  183.8390  178.9340  138.9250 C   0  0  0  0  0  2  0  0  0  0  0  0
  184.5450  177.9080  138.0650 C   0  0  0  0  0  1  0  0  0  0  0  0
  1  5  1  0  0  0  0
  2 13  1  6  0  0  0
  2 11  1  0  0  0  0
  3  4  1  1  0  0  0
  3 12  1  0  0  0  0
  5 12  2  0  0  0  0
  5  2  1  0  0  0  0
  7  9  1  0  0  0  0
  7 14  1  0  0  0  0
  8  6  2  0  0  0  0
  9  4  1  0  0  0  0
 10 14  1  0  0  0  0
 10  1  2  0  0  0  0
 11 15  1  6  0  0  0
 11  6  1  0  0  0  0
 12 15  1  0  0  0  0
 13  8  1  0  0  0  0
 14  3  1  0  0  0  0
 17 16  1  0  0  0  0
 17 10  1  1  0  0  0
 18 17  1  0  0  0  0
 19 16  1  0  0  0  0
 20 21  1  6  0  0  0
 20 19  1  0  0  0  0
 20 18  1  0  0  0  0
 22 21  1  0  0  0  0
 23 22  1  0  0  0  0
 24  9  2  0  0  0  0
 25 24  1  0  0  0  0
 26 25  1  0  0  0  0
 27 26  1  0  0  0  0
M  END
>  <MODEL>
2

>  <REMARK>
 VINA RESULT:      -8.0      2.054      2.638
  Name = 
  6 active torsions:
  status: ('A' for Active; 'I' for Inactive)
    1  A    between atoms: N_3  and  C_6
    2  A    between atoms: C_5  and  N_18
    3  A    between atoms: C_6  and  C_19
    4  A    between atoms: C_7  and  C_20
    5  A    between atoms: N_11  and  C_15
    6  A    between atoms: N_11  and  N_18
                            x       y       z     vdW  Elec       q    Type
                         _______ _______ _______ _____ _____    ______ ____

>  <TORSDO>
F 6

$$$$
=
 OpenBabel11032420363D

 27 31  0  0  1  0  0  0  0  0999 V2000
  187.3540  177.9330  141.8440 N   0  0  0  0  0  0  0  0  0  0  0  0
  188.2260  178.4090  139.4770 C   0  0  1  0  0  3  0  0  0  0  0  0
  189.9250  176.7340  142.2740 C   0  0  2  0  0  3  0  0  0  0  0  0
  191.5960  177.1130  142.9110 S   0  0  0  0  0  0  0  0  0  0  0  0
  188.3870  178.0080  140.8510 C   0  0  0  0  0  0  0  0  0  0  0  0
  189.2260  177.7230  137.5320 N   0  0  0  0  0  0  0  0  0  0  0  0
  189.5790  177.2140  144.6070 C   0  0  0  0  0  2  0  0  0  0  0  0
  187.9480  177.5280  137.4600 C   0  0  0  0  0  3  0  0  0  0  0  0
  190.8950  177.2140  144.5590 C   0  0  2  0  0  3  0  0  0  0  0  0
  187.6230  177.4790  143.0340 C   0  0  0  0  0  0  0  0  0  0  0  0
  189.5430  178.3510  138.8050 C   0  0  2  0  0  3  0  0  0  0  0  0
  189.5980  177.5010  141.0280 C   0  0  0  0  0  0  0  0  0  0  0  0
  187.2790  177.9060  138.7010 C   0  0  0  0  0  2  0  0  0  0  0  0
  188.9700  177.0560  143.3360 N   0  0  0  0  0  0  0  0  0  0  0  0
  190.3720  177.4570  139.7410 C   0  0  0  0  0  2  0  0  0  0  0  0
  186.9890  178.1680  145.3400 C   0  0  0  0  0  2  0  0  0  0  0  0
  186.5420  177.4770  144.0700 C   0  0  1  0  0  3  0  0  0  0  0  0
  185.3430  178.1420  143.5720 N   0  0  0  0  0  2  0  0  0  0  0  0
  185.7420  178.8340  145.8440 C   0  0  0  0  0  2  0  0  0  0  0  0
  184.9340  179.1010  144.5920 C   0  0  2  0  0  3  0  0  0  0  0  0
  183.4490  178.9540  144.8730 C   0  0  0  0  0  2  0  0  0  0  0  0
  182.6850  179.2570  143.6760 N   0  0  0  0  0  2  0  0  0  0  0  0
  181.3520  178.7230  143.8860 C   0  0  0  0  0  1  0  0  0  0  0  0
  191.6870  177.3230  145.7390 N   0  0  0  0  0  2  0  0  0  0  0  0
  191.2910  176.7090  146.9340 N   0  0  0  0  0  2  0  0  0  0  0  0
  192.1740  175.5750  147.1320 C   0  0  0  0  0  2  0  0  0  0  0  0
  192.9190  175.7390  148.4390 C   0  0  0  0  0  1  0  0  0  0  0  0
  1 10  2  0  0  0  0
  2 13  1  6  0  0  0
  2  5  1  0  0  0  0
  3 12  1  6  0  0  0
  3  4  1  0  0  0  0
  3 14  1  0  0  0  0
  4  9  1  0  0  0  0
  5 12  2  0  0  0  0
  5  1  1  0  0  0  0
  6 11  1  0  0  0  0
  8  6  2  0  0  0  0
  8 13  1  0  0  0  0
  9  7  1  0  0  0  0
  9 24  1  6  0  0  0
 10 14  1  0  0  0  0
 11  2  1  0  0  0  0
 11 15  1  1  0  0  0
 14  7  1  0  0  0  0
 15 12  1  0  0  0  0
 16 19  1  0  0  0  0
 17 10  1  6  0  0  0
 17 16  1  0  0  0  0
 18 17  1  0  0  0  0
 18 20  1  0  0  0  0
 20 21  1  1  0  0  0
 20 19  1  0  0  0  0
 22 23  1  0  0  0  0
 22 21  1  0  0  0  0
 24 25  1  0  0  0  0
 25 26  1  0  0  0  0
 26 27  1  0  0  0  0
M  END
>  <MODEL>
3

>  <REMARK>
 VINA RESULT:      -7.8      1.954      7.693
  Name = 
  6 active torsions:
  status: ('A' for Active; 'I' for Inactive)
    1  A    between atoms: N_3  and  C_6
    2  A    between atoms: C_5  and  N_18
    3  A    between atoms: C_6  and  C_19
    4  A    between atoms: C_7  and  C_20
    5  A    between atoms: N_11  and  C_15
    6  A    between atoms: N_11  and  N_18
                            x       y       z     vdW  Elec       q    Type
                         _______ _______ _______ _____ _____    ______ ____

>  <TORSDO>
F 6

$$$$
=
 OpenBabel11032420363D

 27 31  0  0  1  0  0  0  0  0999 V2000
  187.2600  177.3730  144.3810 N   0  0  0  0  0  0  0  0  0  0  0  0
  188.3930  177.1160  146.6700 C   0  0  1  0  0  3  0  0  0  0  0  0
  189.8550  178.1960  143.4740 C   0  0  2  0  0  3  0  0  0  0  0  0
  191.3780  177.5440  142.7030 S   0  0  0  0  0  0  0  0  0  0  0  0
  188.4060  177.3100  145.2430 C   0  0  0  0  0  0  0  0  0  0  0  0
  189.7100  177.9320  148.3590 N   0  0  0  0  0  0  0  0  0  0  0  0
  189.1500  177.4560  141.2950 C   0  0  0  0  0  2  0  0  0  0  0  0
  188.4790  178.2820  148.5550 C   0  0  0  0  0  3  0  0  0  0  0  0
  190.4540  177.3080  141.1840 C   0  0  2  0  0  3  0  0  0  0  0  0
  187.4090  177.6310  143.1140 C   0  0  0  0  0  0  0  0  0  0  0  0
  189.7880  177.1090  147.1630 C   0  0  2  0  0  3  0  0  0  0  0  0
  189.6260  177.6440  144.8490 C   0  0  0  0  0  0  0  0  0  0  0  0
  187.6140  177.8240  147.4720 C   0  0  0  0  0  2  0  0  0  0  0  0
  188.7370  177.8510  142.5930 N   0  0  0  0  0  0  0  0  0  0  0  0
  190.5670  177.7680  146.0130 C   0  0  0  0  0  2  0  0  0  0  0  0
  184.9440  177.9510  142.9970 C   0  0  0  0  0  2  0  0  0  0  0  0
  186.2030  177.6220  142.2260 C   0  0  1  0  0  3  0  0  0  0  0  0
  186.3510  178.5840  141.1390 N   0  0  0  0  0  2  0  0  0  0  0  0
  184.1120  178.7210  142.0140 C   0  0  0  0  0  2  0  0  0  0  0  0
  185.1280  179.3780  141.1050 C   0  0  2  0  0  3  0  0  0  0  0  0
  184.6020  179.4560  139.6830 C   0  0  0  0  0  2  0  0  0  0  0  0
  185.5270  178.8010  138.7750 N   0  0  0  0  0  2  0  0  0  0  0  0
  184.7500  177.8460  138.0070 C   0  0  0  0  0  1  0  0  0  0  0  0
  191.0650  176.9520  139.9460 N   0  0  0  0  0  2  0  0  0  0  0  0
  190.5410  175.9240  139.1520 N   0  0  0  0  0  2  0  0  0  0  0  0
  191.3700  175.8530  137.9630 C   0  0  0  0  0  2  0  0  0  0  0  0
  192.7290  176.4490  138.2600 C   0  0  0  0  0  1  0  0  0  0  0  0
  1  5  1  0  0  0  0
  2 11  1  0  0  0  0
  2 13  1  1  0  0  0
  3  4  1  6  0  0  0
  3 12  1  0  0  0  0
  5  2  1  0  0  0  0
  6  8  2  0  0  0  0
  7 14  1  0  0  0  0
  9 24  1  1  0  0  0
  9  7  1  0  0  0  0
  9  4  1  0  0  0  0
 10  1  2  0  0  0  0
 11 15  1  6  0  0  0
 11  6  1  0  0  0  0
 12  5  2  0  0  0  0
 12 15  1  0  0  0  0
 13  8  1  0  0  0  0
 14 10  1  0  0  0  0
 14  3  1  0  0  0  0
 17 16  1  0  0  0  0
 17 10  1  1  0  0  0
 18 17  1  0  0  0  0
 19 16  1  0  0  0  0
 20 21  1  6  0  0  0
 20 18  1  0  0  0  0
 20 19  1  0  0  0  0
 22 21  1  0  0  0  0
 23 22  1  0  0  0  0
 25 24  1  0  0  0  0
 26 27  1  0  0  0  0
 26 25  1  0  0  0  0
M  END
>  <MODEL>
4

>  <REMARK>
 VINA RESULT:      -7.6      2.332      5.738
  Name = 
  6 active torsions:
  status: ('A' for Active; 'I' for Inactive)
    1  A    between atoms: N_3  and  C_6
    2  A    between atoms: C_5  and  N_18
    3  A    between atoms: C_6  and  C_19
    4  A    between atoms: C_7  and  C_20
    5  A    between atoms: N_11  and  C_15
    6  A    between atoms: N_11  and  N_18
                            x       y       z     vdW  Elec       q    Type
                         _______ _______ _______ _____ _____    ______ ____

>  <TORSDO>
F 6

$$$$
=
 OpenBabel11032420363D

 27 31  0  0  1  0  0  0  0  0999 V2000
  189.7120  178.0510  143.0630 N   0  0  0  0  0  0  0  0  0  0  0  0
  190.6620  177.6690  145.4170 C   0  0  1  0  0  3  0  0  0  0  0  0
  187.2060  177.2760  144.2250 C   0  0  2  0  0  3  0  0  0  0  0  0
  185.7070  177.9760  145.0000 S   0  0  0  0  0  0  0  0  0  0  0  0
  189.5840  177.8210  144.4730 C   0  0  0  0  0  0  0  0  0  0  0  0
  190.9120  176.3780  147.2930 N   0  0  0  0  0  0  0  0  0  0  0  0
  186.1780  178.5640  142.4720 C   0  0  0  0  0  2  0  0  0  0  0  0
  191.8350  176.0850  146.4330 C   0  0  0  0  0  3  0  0  0  0  0  0
  185.2430  178.6360  143.3970 C   0  0  2  0  0  3  0  0  0  0  0  0
  188.6520  178.0930  142.3090 C   0  0  0  0  0  0  0  0  0  0  0  0
  190.0900  177.4540  146.7640 C   0  0  2  0  0  3  0  0  0  0  0  0
  188.4370  177.5000  145.0520 C   0  0  0  0  0  0  0  0  0  0  0  0
  191.6800  176.8510  145.2010 C   0  0  0  0  0  2  0  0  0  0  0  0
  187.3540  177.9040  142.9110 N   0  0  0  0  0  0  0  0  0  0  0  0
  188.6430  177.0320  146.4640 C   0  0  0  0  0  2  0  0  0  0  0  0
  189.7730  177.4480  140.1820 C   0  0  0  0  0  2  0  0  0  0  0  0
  188.8100  178.4040  140.8520 C   0  0  1  0  0  3  0  0  0  0  0  0
  187.5260  178.3350  140.1630 N   0  0  0  0  0  2  0  0  0  0  0  0
  189.2100  177.2800  138.8010 C   0  0  0  0  0  2  0  0  0  0  0  0
  187.7230  177.5060  138.9800 C   0  0  2  0  0  3  0  0  0  0  0  0
  187.1380  178.1980  137.7620 C   0  0  0  0  0  2  0  0  0  0  0  0
  185.7590  177.7850  137.5700 N   0  0  0  0  0  2  0  0  0  0  0  0
  185.7990  176.5040  136.8880 C   0  0  0  0  0  1  0  0  0  0  0  0
  183.9740  179.2290  143.1340 N   0  0  0  0  0  2  0  0  0  0  0  0
  182.8780  178.9880  143.9720 N   0  0  0  0  0  2  0  0  0  0  0  0
  181.6980  179.0020  143.1280 C   0  0  0  0  0  2  0  0  0  0  0  0
  180.4840  178.6280  143.9520 C   0  0  0  0  0  1  0  0  0  0  0  0
  1  5  1  0  0  0  0
  2 13  1  6  0  0  0
  2 11  1  0  0  0  0
  3  4  1  1  0  0  0
  3 12  1  0  0  0  0
  5 12  2  0  0  0  0
  5  2  1  0  0  0  0
  7 14  1  0  0  0  0
  7  9  1  0  0  0  0
  8  6  2  0  0  0  0
  9 24  1  1  0  0  0
  9  4  1  0  0  0  0
 10 14  1  0  0  0  0
 10  1  2  0  0  0  0
 11 15  1  6  0  0  0
 11  6  1  0  0  0  0
 12 15  1  0  0  0  0
 13  8  1  0  0  0  0
 14  3  1  0  0  0  0
 16 17  1  0  0  0  0
 17 10  1  1  0  0  0
 18 17  1  0  0  0  0
 19 20  1  0  0  0  0
 19 16  1  0  0  0  0
 20 21  1  6  0  0  0
 20 18  1  0  0  0  0
 22 21  1  0  0  0  0
 23 22  1  0  0  0  0
 24 25  1  0  0  0  0
 26 27  1  0  0  0  0
 26 25  1  0  0  0  0
M  END
>  <MODEL>
5

>  <REMARK>
 VINA RESULT:      -7.3      1.636      2.017
  Name = 
  6 active torsions:
  status: ('A' for Active; 'I' for Inactive)
    1  A    between atoms: N_3  and  C_6
    2  A    between atoms: C_5  and  N_18
    3  A    between atoms: C_6  and  C_19
    4  A    between atoms: C_7  and  C_20
    5  A    between atoms: N_11  and  C_15
    6  A    between atoms: N_11  and  N_18
                            x       y       z     vdW  Elec       q    Type
                         _______ _______ _______ _____ _____    ______ ____

>  <TORSDO>
F 6

$$$$
=
 OpenBabel11032420363D

 27 31  0  0  1  0  0  0  0  0999 V2000
  187.5070  178.6270  139.9970 N   0  0  0  0  0  0  0  0  0  0  0  0
  188.8870  178.0840  137.9030 C   0  0  1  0  0  3  0  0  0  0  0  0
  189.3530  176.8990  141.3520 C   0  0  2  0  0  3  0  0  0  0  0  0
  190.9110  176.9310  142.3080 S   0  0  0  0  0  0  0  0  0  0  0  0
  188.6520  178.0860  139.3240 C   0  0  0  0  0  0  0  0  0  0  0  0
  189.8920  176.5770  136.4980 N   0  0  0  0  0  0  0  0  0  0  0  0
  188.8060  178.1390  143.3400 C   0  0  0  0  0  2  0  0  0  0  0  0
  188.6630  176.7630  136.1350 C   0  0  0  0  0  3  0  0  0  0  0  0
  190.0190  177.7290  143.6450 C   0  0  2  0  0  3  0  0  0  0  0  0
  187.3830  178.4940  141.2860 C   0  0  0  0  0  0  0  0  0  0  0  0
  190.1890  177.4330  137.6350 C   0  0  2  0  0  3  0  0  0  0  0  0
  189.5470  177.3170  139.9250 C   0  0  0  0  0  0  0  0  0  0  0  0
  187.9720  177.6800  137.0360 C   0  0  0  0  0  2  0  0  0  0  0  0
  188.4110  177.7970  142.0220 N   0  0  0  0  0  0  0  0  0  0  0  0
  190.4630  176.6560  138.9340 C   0  0  0  0  0  2  0  0  0  0  0  0
  184.9500  179.0010  141.1470 C   0  0  0  0  0  2  0  0  0  0  0  0
  186.2130  179.1290  141.9710 C   0  0  1  0  0  3  0  0  0  0  0  0
  185.9830  178.5230  143.2780 N   0  0  0  0  0  2  0  0  0  0  0  0
  183.8670  178.8410  142.1740 C   0  0  0  0  0  2  0  0  0  0  0  0
  184.5650  178.1900  143.3490 C   0  0  2  0  0  3  0  0  0  0  0  0
  183.9820  178.6890  144.6590 C   0  0  0  0  0  2  0  0  0  0  0  0
  185.0050  179.3740  145.4290 N   0  0  0  0  0  2  0  0  0  0  0  0
  185.1710  178.6270  146.6610 C   0  0  0  0  0  1  0  0  0  0  0  0
  190.5810  177.9440  144.9370 N   0  0  0  0  0  2  0  0  0  0  0  0
  191.6020  177.1200  145.4270 N   0  0  0  0  0  2  0  0  0  0  0  0
  191.2770  176.8320  146.8120 C   0  0  0  0  0  2  0  0  0  0  0  0
  192.0660  175.6260  147.2740 C   0  0  0  0  0  1  0  0  0  0  0  0
  1 10  2  0  0  0  0
  2 13  1  6  0  0  0
  2  5  1  0  0  0  0
  3 12  1  6  0  0  0
  3 14  1  0  0  0  0
  3  4  1  0  0  0  0
  4  9  1  0  0  0  0
  5 12  2  0  0  0  0
  5  1  1  0  0  0  0
  6 11  1  0  0  0  0
  7  9  1  0  0  0  0
  8  6  2  0  0  0  0
  8 13  1  0  0  0  0
  9 24  1  6  0  0  0
 10 14  1  0  0  0  0
 11  2  1  0  0  0  0
 11 15  1  1  0  0  0
 14  7  1  0  0  0  0
 15 12  1  0  0  0  0
 16 17  1  0  0  0  0
 16 19  1  0  0  0  0
 17 10  1  6  0  0  0
 17 18  1  0  0  0  0
 18 20  1  0  0  0  0
 19 20  1  0  0  0  0
 20 21  1  1  0  0  0
 21 22  1  0  0  0  0
 22 23  1  0  0  0  0
 24 25  1  0  0  0  0
 25 26  1  0  0  0  0
 26 27  1  0  0  0  0
M  END
>  <MODEL>
6

>  <REMARK>
 VINA RESULT:      -7.2      2.150      7.566
  Name = 
  6 active torsions:
  status: ('A' for Active; 'I' for Inactive)
    1  A    between atoms: N_3  and  C_6
    2  A    between atoms: C_5  and  N_18
    3  A    between atoms: C_6  and  C_19
    4  A    between atoms: C_7  and  C_20
    5  A    between atoms: N_11  and  C_15
    6  A    between atoms: N_11  and  N_18
                            x       y       z     vdW  Elec       q    Type
                         _______ _______ _______ _____ _____    ______ ____

>  <TORSDO>
F 6

$$$$
=
 OpenBabel11032420363D

 27 31  0  0  1  0  0  0  0  0999 V2000
  187.0800  178.6190  140.5570 N   0  0  0  0  0  0  0  0  0  0  0  0
  189.4530  178.0950  139.7300 C   0  0  1  0  0  3  0  0  0  0  0  0
  187.7870  177.0040  142.8210 C   0  0  2  0  0  3  0  0  0  0  0  0
  188.4590  177.1260  144.5160 S   0  0  0  0  0  0  0  0  0  0  0  0
  188.4130  178.1160  140.7270 C   0  0  0  0  0  0  0  0  0  0  0  0
  191.1340  176.6060  139.2730 N   0  0  0  0  0  0  0  0  0  0  0  0
  186.1270  178.2580  144.0310 C   0  0  0  0  0  2  0  0  0  0  0  0
  190.3640  176.7300  138.2390 C   0  0  0  0  0  3  0  0  0  0  0  0
  186.9260  177.9100  145.0180 C   0  0  2  0  0  3  0  0  0  0  0  0
  186.2120  178.5070  141.5210 C   0  0  0  0  0  0  0  0  0  0  0  0
  190.6700  177.4980  140.3240 C   0  0  2  0  0  3  0  0  0  0  0  0
  188.7870  177.4000  141.7770 C   0  0  0  0  0  0  0  0  0  0  0  0
  189.2500  177.6330  138.5070 C   0  0  0  0  0  2  0  0  0  0  0  0
  186.6090  177.8710  142.7540 N   0  0  0  0  0  0  0  0  0  0  0  0
  190.1290  176.7610  141.5600 C   0  0  0  0  0  2  0  0  0  0  0  0
  184.5510  179.3780  139.8840 C   0  0  0  0  0  2  0  0  0  0  0  0
  184.8490  179.1020  141.3410 C   0  0  1  0  0  3  0  0  0  0  0  0
  183.8200  178.2150  141.8710 N   0  0  0  0  0  2  0  0  0  0  0  0
  183.0790  179.1130  139.7630 C   0  0  0  0  0  2  0  0  0  0  0  0
  182.7990  178.0830  140.8370 C   0  0  2  0  0  3  0  0  0  0  0  0
  181.4230  178.3010  141.4390 C   0  0  0  0  0  2  0  0  0  0  0  0
  181.5330  179.0720  142.6650 N   0  0  0  0  0  2  0  0  0  0  0  0
  180.4530  178.6370  143.5300 C   0  0  0  0  0  1  0  0  0  0  0  0
  186.5950  178.1770  146.3790 N   0  0  0  0  0  2  0  0  0  0  0  0
  187.1570  177.4260  147.4190 N   0  0  0  0  0  2  0  0  0  0  0  0
  187.9960  178.3330  148.1810 C   0  0  0  0  0  2  0  0  0  0  0  0
  189.4370  177.8790  148.0940 C   0  0  0  0  0  1  0  0  0  0  0  0
  1  5  1  0  0  0  0
  1 10  2  0  0  0  0
  2 13  1  6  0  0  0
  2 11  1  0  0  0  0
  2  5  1  0  0  0  0
  3 12  1  6  0  0  0
  3  4  1  0  0  0  0
  4  9  1  0  0  0  0
  5 12  2  0  0  0  0
  6 11  1  0  0  0  0
  7  9  1  0  0  0  0
  8 13  1  0  0  0  0
  8  6  2  0  0  0  0
  9 24  1  6  0  0  0
 10 14  1  0  0  0  0
 11 15  1  1  0  0  0
 14  3  1  0  0  0  0
 14  7  1  0  0  0  0
 15 12  1  0  0  0  0
 16 17  1  0  0  0  0
 17 10  1  6  0  0  0
 17 18  1  0  0  0  0
 19 16  1  0  0  0  0
 19 20  1  0  0  0  0
 20 21  1  1  0  0  0
 20 18  1  0  0  0  0
 21 22  1  0  0  0  0
 22 23  1  0  0  0  0
 24 25  1  0  0  0  0
 25 26  1  0  0  0  0
 27 26  1  0  0  0  0
M  END
>  <MODEL>
7

>  <REMARK>
 VINA RESULT:      -7.2      2.082      6.487
  Name = 
  6 active torsions:
  status: ('A' for Active; 'I' for Inactive)
    1  A    between atoms: N_3  and  C_6
    2  A    between atoms: C_5  and  N_18
    3  A    between atoms: C_6  and  C_19
    4  A    between atoms: C_7  and  C_20
    5  A    between atoms: N_11  and  C_15
    6  A    between atoms: N_11  and  N_18
                            x       y       z     vdW  Elec       q    Type
                         _______ _______ _______ _____ _____    ______ ____

>  <TORSDO>
F 6

$$$$
=
 OpenBabel11032420363D

 27 31  0  0  1  0  0  0  0  0999 V2000
  187.6160  177.8880  143.1700 N   0  0  0  0  0  0  0  0  0  0  0  0
  185.3600  177.9290  144.3940 C   0  0  1  0  0  3  0  0  0  0  0  0
  188.7460  178.3380  145.7690 C   0  0  2  0  0  3  0  0  0  0  0  0
  189.4480  177.4470  147.2010 S   0  0  0  0  0  0  0  0  0  0  0  0
  186.7990  177.8790  144.3500 C   0  0  0  0  0  0  0  0  0  0  0  0
  183.8860  178.9100  145.8490 N   0  0  0  0  0  0  0  0  0  0  0  0
  190.7380  177.3010  144.9060 C   0  0  0  0  0  2  0  0  0  0  0  0
  183.7080  179.3840  144.6570 C   0  0  0  0  0  3  0  0  0  0  0  0
  190.8700  177.0340  146.1880 C   0  0  2  0  0  3  0  0  0  0  0  0
  188.9140  177.9170  143.2740 C   0  0  0  0  0  0  0  0  0  0  0  0
  184.9250  177.8940  145.8070 C   0  0  2  0  0  3  0  0  0  0  0  0
  187.2890  178.0440  145.5690 C   0  0  0  0  0  0  0  0  0  0  0  0
  184.6630  178.8210  143.7090 C   0  0  0  0  0  2  0  0  0  0  0  0
  189.5130  177.9400  144.5870 N   0  0  0  0  0  0  0  0  0  0  0  0
  186.1990  178.2870  146.5740 C   0  0  0  0  0  2  0  0  0  0  0  0
  190.1720  176.4380  141.7170 C   0  0  0  0  0  2  0  0  0  0  0  0
  189.7420  177.8550  142.0280 C   0  0  1  0  0  3  0  0  0  0  0  0
  189.0030  178.3820  140.8860 N   0  0  0  0  0  2  0  0  0  0  0  0
  190.1690  176.3830  140.2170 C   0  0  0  0  0  2  0  0  0  0  0  0
  189.1240  177.4010  139.8130 C   0  0  2  0  0  3  0  0  0  0  0  0
  189.5250  178.0940  138.5230 C   0  0  0  0  0  2  0  0  0  0  0  0
  188.3790  178.7760  137.9480 N   0  0  0  0  0  2  0  0  0  0  0  0
  188.6340  178.8940  136.5250 C   0  0  0  0  0  1  0  0  0  0  0  0
  192.0510  176.4280  146.7090 N   0  0  0  0  0  2  0  0  0  0  0  0
  191.9770  175.4300  147.6900 N   0  0  0  0  0  2  0  0  0  0  0  0
  193.1100  175.6310  148.5740 C   0  0  0  0  0  2  0  0  0  0  0  0
  193.0020  176.9900  149.2310 C   0  0  0  0  0  1  0  0  0  0  0  0
  1 10  2  0  0  0  0
  1  5  1  0  0  0  0
  2 13  1  1  0  0  0
  2 11  1  0  0  0  0
  3 12  1  6  0  0  0
  3  4  1  0  0  0  0
  5  2  1  0  0  0  0
  5 12  2  0  0  0  0
  7  9  1  0  0  0  0
  8  6  2  0  0  0  0
  9 24  1  6  0  0  0
  9  4  1  0  0  0  0
 10 14  1  0  0  0  0
 11  6  1  0  0  0  0
 11 15  1  1  0  0  0
 12 15  1  0  0  0  0
 13  8  1  0  0  0  0
 14  7  1  0  0  0  0
 14  3  1  0  0  0  0
 16 17  1  0  0  0  0
 17 10  1  1  0  0  0
 18 17  1  0  0  0  0
 19 16  1  0  0  0  0
 20 21  1  6  0  0  0
 20 19  1  0  0  0  0
 20 18  1  0  0  0  0
 22 21  1  0  0  0  0
 23 22  1  0  0  0  0
 24 25  1  0  0  0  0
 25 26  1  0  0  0  0
 26 27  1  0  0  0  0
M  END
>  <MODEL>
8

>  <REMARK>
 VINA RESULT:      -7.2      1.964      6.073
  Name = 
  6 active torsions:
  status: ('A' for Active; 'I' for Inactive)
    1  A    between atoms: N_3  and  C_6
    2  A    between atoms: C_5  and  N_18
    3  A    between atoms: C_6  and  C_19
    4  A    between atoms: C_7  and  C_20
    5  A    between atoms: N_11  and  C_15
    6  A    between atoms: N_11  and  N_18
                            x       y       z     vdW  Elec       q    Type
                         _______ _______ _______ _____ _____    ______ ____

>  <TORSDO>
F 6

$$$$
=
 OpenBabel11032420363D

 27 31  0  0  1  0  0  0  0  0999 V2000
  190.8160  176.6240  140.0290 N   0  0  0  0  0  0  0  0  0  0  0  0
  191.8670  175.5600  137.9430 C   0  0  1  0  0  3  0  0  0  0  0  0
  189.1940  178.0750  138.1600 C   0  0  2  0  0  3  0  0  0  0  0  0
  187.5750  178.0130  137.3140 S   0  0  0  0  0  0  0  0  0  0  0  0
  190.8680  176.3440  138.6230 C   0  0  0  0  0  0  0  0  0  0  0  0
  192.8340  175.7360  135.8730 N   0  0  0  0  0  0  0  0  0  0  0  0
  187.5850  178.2540  139.9410 C   0  0  0  0  0  2  0  0  0  0  0  0
  193.7450  175.8110  136.7900 C   0  0  0  0  0  3  0  0  0  0  0  0
  186.7890  178.3330  138.8950 C   0  0  2  0  0  3  0  0  0  0  0  0
  189.8970  177.4140  140.5050 C   0  0  0  0  0  0  0  0  0  0  0  0
  191.5400  175.5190  136.5010 C   0  0  2  0  0  3  0  0  0  0  0  0
  190.1070  176.9650  137.7340 C   0  0  0  0  0  0  0  0  0  0  0  0
  193.1630  175.7530  138.1270 C   0  0  0  0  0  2  0  0  0  0  0  0
  188.9380  178.0010  139.6000 N   0  0  0  0  0  0  0  0  0  0  0  0
  190.5690  176.6980  136.3300 C   0  0  0  0  0  2  0  0  0  0  0  0
  188.8950  176.6400  142.6480 C   0  0  0  0  0  2  0  0  0  0  0  0
  189.8240  177.6330  141.9850 C   0  0  1  0  0  3  0  0  0  0  0  0
  191.1450  177.5170  142.5930 N   0  0  0  0  0  2  0  0  0  0  0  0
  189.5360  176.3840  143.9800 C   0  0  0  0  0  2  0  0  0  0  0  0
  191.0110  176.6160  143.7320 C   0  0  2  0  0  3  0  0  0  0  0  0
  191.6690  177.2280  144.9550 C   0  0  0  0  0  2  0  0  0  0  0  0
  191.8790  176.2090  145.9680 N   0  0  0  0  0  2  0  0  0  0  0  0
  191.3140  176.7250  147.2010 C   0  0  0  0  0  1  0  0  0  0  0  0
  185.3990  178.6200  139.0310 N   0  0  0  0  0  2  0  0  0  0  0  0
  184.9220  179.3830  140.1050 N   0  0  0  0  0  2  0  0  0  0  0  0
  184.0890  178.5020  140.9030 C   0  0  0  0  0  2  0  0  0  0  0  0
  184.6410  178.4240  142.3100 C   0  0  0  0  0  1  0  0  0  0  0  0
  1 10  2  0  0  0  0
  2 13  1  6  0  0  0
  2  5  1  0  0  0  0
  3  4  1  6  0  0  0
  3 14  1  0  0  0  0
  4  9  1  0  0  0  0
  5  1  1  0  0  0  0
  6 11  1  0  0  0  0
  6  8  2  0  0  0  0
  8 13  1  0  0  0  0
  9 24  1  1  0  0  0
  9  7  1  0  0  0  0
 11 15  1  1  0  0  0
 11  2  1  0  0  0  0
 12  3  1  0  0  0  0
 12  5  2  0  0  0  0
 14  7  1  0  0  0  0
 14 10  1  0  0  0  0
 15 12  1  0  0  0  0
 16 19  1  0  0  0  0
 17 10  1  6  0  0  0
 17 18  1  0  0  0  0
 17 16  1  0  0  0  0
 18 20  1  0  0  0  0
 20 19  1  0  0  0  0
 20 21  1  1  0  0  0
 21 22  1  0  0  0  0
 22 23  1  0  0  0  0
 24 25  1  0  0  0  0
 25 26  1  0  0  0  0
 26 27  1  0  0  0  0
M  END
>  <MODEL>
9

>  <REMARK>
 VINA RESULT:      -7.2      2.659      6.675
  Name = 
  6 active torsions:
  status: ('A' for Active; 'I' for Inactive)
    1  A    between atoms: N_3  and  C_6
    2  A    between atoms: C_5  and  N_18
    3  A    between atoms: C_6  and  C_19
    4  A    between atoms: C_7  and  C_20
    5  A    between atoms: N_11  and  C_15
    6  A    between atoms: N_11  and  N_18
                            x       y       z     vdW  Elec       q    Type
                         _______ _______ _______ _____ _____    ______ ____

>  <TORSDO>
F 6

$$$$
