=
 OpenBabel11032421033D

 46 53  0  0  1  0  0  0  0  0999 V2000
  186.0910  177.6720  142.8650 C   0  0  0  0  0  3  0  0  0  0  0  0
  189.8890  177.0060  140.1350 C   0  0  0  0  0  0  0  0  0  0  0  0
  187.5650  176.5290  139.1110 C   0  0  0  0  0  2  0  0  0  0  0  0
  193.3120  176.6750  138.7070 C   0  0  0  0  0  0  0  0  0  0  0  0
  185.4460  178.9680  139.3290 C   0  0  2  0  0  3  0  0  0  0  0  0
  190.4430  175.7010  142.7350 O   0  0  0  0  0  0  0  0  0  0  0  0
  189.3580  177.3540  141.4360 N   0  0  0  0  0  0  0  0  0  0  0  0
  189.4830  176.5020  142.5780 C   0  0  0  0  0  0  0  0  0  0  0  0
  186.4640  179.4320  137.2400 O   0  0  0  0  0  0  0  0  0  0  0  0
  188.3370  176.6150  143.5360 C   0  0  0  0  0  2  0  0  0  0  0  0
  187.6430  175.2910  136.6660 C   0  0  0  0  0  2  0  0  0  0  0  0
  193.9000  176.2520  137.5570 N   0  0  0  0  0  0  0  0  0  0  0  0
  185.4000  178.2540  141.7890 C   0  0  0  0  0  3  0  0  0  0  0  0
  189.7340  176.0760  137.8560 C   0  0  0  0  0  0  0  0  0  0  0  0
  191.1370  176.1410  137.7610 C   0  0  0  0  0  0  0  0  0  0  0  0
  187.4990  178.7670  140.6920 C   0  0  0  0  0  3  0  0  0  0  0  0
  186.8970  176.6230  136.6670 C   0  0  1  0  0  3  0  0  0  0  0  0
  188.1560  178.0640  141.6790 C   0  0  0  0  0  0  0  0  0  0  0  0
  189.0480  175.5100  136.7620 O   0  0  0  0  0  0  0  0  0  0  0  0
  186.3220  178.5720  138.1500 C   0  0  0  0  0  0  0  0  0  0  0  0
  186.1050  178.7560  140.6720 C   0  0  0  0  0  0  0  0  0  0  0  0
  191.2770  177.0320  140.0050 C   0  0  0  0  0  3  0  0  0  0  0  0
  186.9360  177.2610  137.9920 N   0  0  0  0  0  0  0  0  0  0  0  0
  189.0830  176.5620  139.0290 C   0  0  0  0  0  0  0  0  0  0  0  0
  193.1750  175.7760  136.5110 C   0  0  0  0  0  3  0  0  0  0  0  0
  187.4810  177.5720  142.7800 C   0  0  0  0  0  0  0  0  0  0  0  0
  194.1810  177.1790  139.8120 C   0  0  0  0  0  1  0  0  0  0  0  0
  191.9090  176.6290  138.8330 C   0  0  0  0  0  0  0  0  0  0  0  0
  191.7850  175.7110  136.5960 C   0  0  0  0  0  3  0  0  0  0  0  0
  186.5930  177.3480  134.5940 C   0  0  0  0  0  1  0  0  0  0  0  0
  187.4470  177.4630  135.6930 O   0  0  0  0  0  0  0  0  0  0  0  0
  184.0830  178.2910  139.1930 C   0  0  0  0  0  2  0  0  0  0  0  0
  182.9920  179.3060  139.1720 C   0  0  0  0  0  0  0  0  0  0  0  0
  183.2760  180.5290  139.0590 O   0  0  0  0  0  0  0  0  0  0  0  0
  181.6330  178.8840  139.2950 N   0  0  0  0  0  2  0  0  0  0  0  0
  180.5110  179.8110  139.2520 C   0  0  0  0  0  2  0  0  0  0  0  0
  181.0880  182.8070  137.5190 C   0  0  0  0  0  1  0  0  0  0  0  0
  181.8520  178.1800  135.6870 C   0  0  0  0  0  1  0  0  0  0  0  0
  179.7630  179.6830  137.9340 C   0  0  2  0  0  3  0  0  0  0  0  0
  179.9830  178.2760  137.3560 C   0  0  0  0  0  2  0  0  0  0  0  0
  180.1720  181.9840  136.6340 C   0  0  2  0  0  3  0  0  0  0  0  0
  180.4050  180.5170  136.8590 C   0  0  2  0  0  3  0  0  0  0  0  0
  180.6230  182.1140  135.1740 C   0  0  0  0  0  2  0  0  0  0  0  0
  180.3670  178.4880  135.8800 C   0  0  1  0  0  3  0  0  0  0  0  0
  180.0350  179.8870  135.6320 N   0  0  2  0  0  0  0  0  0  0  0  0
  180.7690  180.6720  134.6600 C   0  0  0  0  0  2  0  0  0  0  0  0
  2  7  1  0  0  0  0
  4 28  1  0  0  0  0
  4 27  1  0  0  0  0
  5 32  1  1  0  0  0
  5 21  1  0  0  0  0
  7 18  1  0  0  0  0
  7  8  1  0  0  0  0
  8  6  2  0  0  0  0
  8 10  1  0  0  0  0
  9 20  2  0  0  0  0
 11 17  1  0  0  0  0
 11 19  1  0  0  0  0
 12  4  2  0  0  0  0
 13  1  2  0  0  0  0
 14 24  1  0  0  0  0
 15 14  2  0  0  0  0
 15 28  1  0  0  0  0
 16 18  1  0  0  0  0
 17 31  1  6  0  0  0
 17 23  1  0  0  0  0
 18 26  2  0  0  0  0
 19 14  1  0  0  0  0
 20  5  1  0  0  0  0
 21 16  2  0  0  0  0
 21 13  1  0  0  0  0
 22  2  1  0  0  0  0
 23 20  1  0  0  0  0
 23  3  1  0  0  0  0
 24  3  1  0  0  0  0
 24  2  2  0  0  0  0
 25 29  2  0  0  0  0
 25 12  1  0  0  0  0
 26  1  1  0  0  0  0
 26 10  1  0  0  0  0
 28 22  2  0  0  0  0
 29 15  1  0  0  0  0
 30 31  1  0  0  0  0
 33 32  1  0  0  0  0
 33 35  1  0  0  0  0
 34 33  2  0  0  0  0
 36 35  1  0  0  0  0
 38 44  1  0  0  0  0
 39 36  1  1  0  0  0
 40 39  1  0  0  0  0
 41 42  1  0  0  0  0
 41 37  1  1  0  0  0
 42 39  1  0  0  0  0
 43 41  1  0  0  0  0
 44 40  1  0  0  0  0
 45 44  1  0  0  0  0
 45 42  1  0  0  0  0
 46 43  1  0  0  0  0
 46 45  1  0  0  0  0
M  END
>  <MODEL>
1

>  <REMARK>
 VINA RESULT:      -6.8      0.000      0.000
  Name = 
  5 active torsions:
  status: ('A' for Active; 'I' for Inactive)
    1  A    between atoms: C_5  and  C_29
    2  A    between atoms: C_9  and  C_29
    3  A    between atoms: C_15  and  C_20
    4  A    between atoms: C_20  and  N_34
    5  A    between atoms: C_24  and  O_33
                            x       y       z     vdW  Elec       q    Type
                         _______ _______ _______ _____ _____    ______ ____

>  <TORSDO>
F 5

$$$$
=
 OpenBabel11032421033D

 46 53  0  0  1  0  0  0  0  0999 V2000
  192.7240  177.4050  140.2000 C   0  0  0  0  0  3  0  0  0  0  0  0
  188.3600  177.8410  141.9560 C   0  0  0  0  0  0  0  0  0  0  0  0
  188.6890  178.2360  139.4240 C   0  0  0  0  0  2  0  0  0  0  0  0
  185.3190  178.0480  144.0950 C   0  0  0  0  0  0  0  0  0  0  0  0
  190.1650  175.8260  137.8420 C   0  0  2  0  0  3  0  0  0  0  0  0
  190.1750  179.3520  143.7410 O   0  0  0  0  0  0  0  0  0  0  0  0
  189.7660  177.6000  142.2060 N   0  0  0  0  0  0  0  0  0  0  0  0
  190.6060  178.5420  142.8780 C   0  0  0  0  0  0  0  0  0  0  0  0
  187.8920  175.1910  137.6250 O   0  0  0  0  0  0  0  0  0  0  0  0
  192.0300  178.5100  142.4150 C   0  0  0  0  0  2  0  0  0  0  0  0
  186.4930  179.2690  138.1490 C   0  0  0  0  0  2  0  0  0  0  0  0
  184.0060  178.3750  143.9700 N   0  0  0  0  0  0  0  0  0  0  0  0
  192.2210  176.7380  139.0700 C   0  0  0  0  0  3  0  0  0  0  0  0
  186.4490  178.5810  140.5840 C   0  0  0  0  0  0  0  0  0  0  0  0
  185.6310  178.5060  141.7270 C   0  0  0  0  0  0  0  0  0  0  0  0
  190.2190  176.1340  140.2950 C   0  0  0  0  0  3  0  0  0  0  0  0
  186.9830  177.9430  137.5720 C   0  0  1  0  0  3  0  0  0  0  0  0
  190.6570  176.9150  141.3430 C   0  0  0  0  0  0  0  0  0  0  0  0
  185.8470  179.0570  139.4010 O   0  0  0  0  0  0  0  0  0  0  0  0
  188.6770  176.1230  137.9480 C   0  0  0  0  0  0  0  0  0  0  0  0
  190.9380  176.1450  139.1010 C   0  0  0  0  0  0  0  0  0  0  0  0
  187.5180  177.8020  143.0660 C   0  0  0  0  0  3  0  0  0  0  0  0
  188.1270  177.4160  138.3300 N   0  0  0  0  0  0  0  0  0  0  0  0
  187.8200  178.1930  140.6700 C   0  0  0  0  0  0  0  0  0  0  0  0
  183.4710  178.7650  142.7830 C   0  0  0  0  0  3  0  0  0  0  0  0
  191.9100  177.4960  141.3300 C   0  0  0  0  0  0  0  0  0  0  0  0
  185.8300  177.6350  145.4350 C   0  0  0  0  0  1  0  0  0  0  0  0
  186.1640  178.1070  142.9690 C   0  0  0  0  0  0  0  0  0  0  0  0
  184.2730  178.8390  141.6450 C   0  0  0  0  0  3  0  0  0  0  0  0
  185.3140  177.1960  136.3170 C   0  0  0  0  0  1  0  0  0  0  0  0
  185.9260  177.0250  137.5610 O   0  0  0  0  0  0  0  0  0  0  0  0
  190.7240  176.4910  136.5860 C   0  0  0  0  0  2  0  0  0  0  0  0
  191.8840  175.7210  136.0540 C   0  0  0  0  0  0  0  0  0  0  0  0
  192.6540  176.2520  135.2090 O   0  0  0  0  0  0  0  0  0  0  0  0
  192.1050  174.3810  136.4980 N   0  0  0  0  0  2  0  0  0  0  0  0
  193.2320  173.5770  136.0490 C   0  0  0  0  0  2  0  0  0  0  0  0
  194.7200  170.5060  135.2330 C   0  0  0  0  0  1  0  0  0  0  0  0
  197.1850  174.6570  136.6600 C   0  0  0  0  0  1  0  0  0  0  0  0
  194.1360  173.2250  137.2210 C   0  0  2  0  0  3  0  0  0  0  0  0
  194.8990  174.4790  137.6740 C   0  0  0  0  0  2  0  0  0  0  0  0
  195.2360  170.8640  136.6130 C   0  0  2  0  0  3  0  0  0  0  0  0
  195.2820  172.3560  136.7840 C   0  0  2  0  0  3  0  0  0  0  0  0
  196.7300  170.5290  136.7010 C   0  0  0  0  0  2  0  0  0  0  0  0
  196.3710  174.0470  137.8010 C   0  0  1  0  0  3  0  0  0  0  0  0
  196.3110  172.5900  137.7470 N   0  0  2  0  0  0  0  0  0  0  0  0
  197.4090  171.8130  137.2070 C   0  0  0  0  0  2  0  0  0  0  0  0
  1 26  1  0  0  0  0
  2  7  1  0  0  0  0
  2 22  1  0  0  0  0
  3 24  1  0  0  0  0
  4 27  1  0  0  0  0
  5 32  1  6  0  0  0
  5 20  1  0  0  0  0
  5 21  1  0  0  0  0
  7  8  1  0  0  0  0
  8  6  2  0  0  0  0
  9 20  2  0  0  0  0
 10  8  1  0  0  0  0
 11 19  1  0  0  0  0
 12  4  2  0  0  0  0
 13 21  1  0  0  0  0
 13  1  2  0  0  0  0
 14 24  1  0  0  0  0
 14 15  2  0  0  0  0
 15 28  1  0  0  0  0
 16 18  1  0  0  0  0
 17 31  1  1  0  0  0
 17 11  1  0  0  0  0
 17 23  1  0  0  0  0
 18  7  1  0  0  0  0
 19 14  1  0  0  0  0
 20 23  1  0  0  0  0
 21 16  2  0  0  0  0
 23  3  1  0  0  0  0
 24  2  2  0  0  0  0
 25 12  1  0  0  0  0
 26 18  2  0  0  0  0
 26 10  1  0  0  0  0
 28 22  2  0  0  0  0
 28  4  1  0  0  0  0
 29 15  1  0  0  0  0
 29 25  2  0  0  0  0
 30 31  1  0  0  0  0
 33 35  1  0  0  0  0
 33 32  1  0  0  0  0
 34 33  2  0  0  0  0
 36 35  1  0  0  0  0
 38 44  1  0  0  0  0
 39 36  1  6  0  0  0
 39 40  1  0  0  0  0
 40 44  1  0  0  0  0
 41 37  1  6  0  0  0
 41 43  1  0  0  0  0
 41 42  1  0  0  0  0
 42 39  1  0  0  0  0
 42 45  1  0  0  0  0
 43 46  1  0  0  0  0
 45 44  1  0  0  0  0
 46 45  1  0  0  0  0
M  END
>  <MODEL>
2

>  <REMARK>
 VINA RESULT:      -6.7      3.421     10.213
  Name = 
  5 active torsions:
  status: ('A' for Active; 'I' for Inactive)
    1  A    between atoms: C_5  and  C_29
    2  A    between atoms: C_9  and  C_29
    3  A    between atoms: C_15  and  C_20
    4  A    between atoms: C_20  and  N_34
    5  A    between atoms: C_24  and  O_33
                            x       y       z     vdW  Elec       q    Type
                         _______ _______ _______ _____ _____    ______ ____

>  <TORSDO>
F 5

$$$$
=
 OpenBabel11032421033D

 46 53  0  0  1  0  0  0  0  0999 V2000
  187.7340  177.4430  137.0580 C   0  0  0  0  0  3  0  0  0  0  0  0
  186.6380  178.2920  141.5740 C   0  0  0  0  0  0  0  0  0  0  0  0
  188.4970  176.5650  141.0860 C   0  0  0  0  0  2  0  0  0  0  0  0
  185.1610  179.4620  144.7870 C   0  0  0  0  0  0  0  0  0  0  0  0
  190.8970  177.6350  139.1930 C   0  0  2  0  0  3  0  0  0  0  0  0
  184.0910  177.8900  140.1190 O   0  0  0  0  0  0  0  0  0  0  0  0
  186.3630  178.5460  140.1760 N   0  0  0  0  0  0  0  0  0  0  0  0
  185.1840  178.0720  139.5200 C   0  0  0  0  0  0  0  0  0  0  0  0
  191.7310  178.1840  141.3430 O   0  0  0  0  0  0  0  0  0  0  0  0
  185.3920  177.7640  138.0680 C   0  0  0  0  0  2  0  0  0  0  0  0
  189.3140  175.1380  143.2790 C   0  0  0  0  0  2  0  0  0  0  0  0
  185.2730  179.1990  146.1150 N   0  0  0  0  0  0  0  0  0  0  0  0
  189.1020  177.4170  137.3780 C   0  0  0  0  0  3  0  0  0  0  0  0
  187.6530  177.0400  143.4410 C   0  0  0  0  0  0  0  0  0  0  0  0
  186.8510  177.7730  144.3360 C   0  0  0  0  0  0  0  0  0  0  0  0
  188.6770  178.7080  139.3850 C   0  0  0  0  0  3  0  0  0  0  0  0
  190.4340  175.9050  142.5810 C   0  0  1  0  0  3  0  0  0  0  0  0
  187.3260  178.5980  139.1370 C   0  0  0  0  0  0  0  0  0  0  0  0
  188.4710  176.0350  143.9970 O   0  0  0  0  0  0  0  0  0  0  0  0
  190.8560  177.5330  140.7110 C   0  0  0  0  0  0  0  0  0  0  0  0
  189.5690  178.0060  138.5750 C   0  0  0  0  0  0  0  0  0  0  0  0
  185.8470  178.9790  142.4950 C   0  0  0  0  0  3  0  0  0  0  0  0
  189.9240  176.6910  141.4480 N   0  0  0  0  0  0  0  0  0  0  0  0
  187.5980  177.3300  142.0440 C   0  0  0  0  0  0  0  0  0  0  0  0
  186.1300  178.2590  146.5930 C   0  0  0  0  0  3  0  0  0  0  0  0
  186.8540  178.0300  137.9690 C   0  0  0  0  0  0  0  0  0  0  0  0
  184.1910  180.5070  144.3430 C   0  0  0  0  0  1  0  0  0  0  0  0
  185.9530  178.7510  143.8640 C   0  0  0  0  0  0  0  0  0  0  0  0
  186.9300  177.5310  145.7140 C   0  0  0  0  0  3  0  0  0  0  0  0
  191.7570  175.8550  144.3610 C   0  0  0  0  0  1  0  0  0  0  0  0
  191.0790  176.7300  143.5110 O   0  0  0  0  0  0  0  0  0  0  0  0
  191.5150  176.3620  138.6190 C   0  0  0  0  0  2  0  0  0  0  0  0
  192.9000  176.6220  138.1350 C   0  0  0  0  0  0  0  0  0  0  0  0
  193.7260  177.2100  138.8850 O   0  0  0  0  0  0  0  0  0  0  0  0
  193.2770  176.2150  136.8180 N   0  0  0  0  0  2  0  0  0  0  0  0
  194.6180  176.4060  136.2860 C   0  0  0  0  0  2  0  0  0  0  0  0
  195.7960  174.4610  138.9590 C   0  0  0  0  0  1  0  0  0  0  0  0
  192.5160  172.9320  135.4590 C   0  0  0  0  0  1  0  0  0  0  0  0
  195.1350  175.1150  135.6690 C   0  0  2  0  0  3  0  0  0  0  0  0
  194.1480  174.6290  134.5960 C   0  0  0  0  0  2  0  0  0  0  0  0
  196.0700  173.6540  137.7050 C   0  0  2  0  0  3  0  0  0  0  0  0
  195.0540  173.9730  136.6450 C   0  0  2  0  0  3  0  0  0  0  0  0
  195.7400  172.1790  137.9680 C   0  0  0  0  0  2  0  0  0  0  0  0
  193.9190  173.1350  134.8880 C   0  0  1  0  0  3  0  0  0  0  0  0
  194.9780  172.7990  135.8340 N   0  0  2  0  0  0  0  0  0  0  0  0
  194.7950  171.7610  136.8290 C   0  0  0  0  0  2  0  0  0  0  0  0
  1 13  2  0  0  0  0
  1 26  1  0  0  0  0
  2 24  2  0  0  0  0
  2 22  1  0  0  0  0
  3 23  1  0  0  0  0
  3 24  1  0  0  0  0
  4 12  2  0  0  0  0
  5 32  1  6  0  0  0
  5 20  1  0  0  0  0
  7  2  1  0  0  0  0
  8  6  2  0  0  0  0
  8  7  1  0  0  0  0
 10  8  1  0  0  0  0
 11 19  1  0  0  0  0
 12 25  1  0  0  0  0
 13 21  1  0  0  0  0
 14 19  1  0  0  0  0
 14 15  2  0  0  0  0
 15 29  1  0  0  0  0
 17 11  1  0  0  0  0
 17 31  1  1  0  0  0
 18 16  1  0  0  0  0
 18  7  1  0  0  0  0
 20  9  2  0  0  0  0
 20 23  1  0  0  0  0
 21  5  1  0  0  0  0
 21 16  2  0  0  0  0
 22 28  2  0  0  0  0
 23 17  1  0  0  0  0
 24 14  1  0  0  0  0
 26 10  1  0  0  0  0
 26 18  2  0  0  0  0
 27  4  1  0  0  0  0
 28 15  1  0  0  0  0
 28  4  1  0  0  0  0
 29 25  2  0  0  0  0
 31 30  1  0  0  0  0
 33 32  1  0  0  0  0
 33 34  2  0  0  0  0
 35 33  1  0  0  0  0
 36 35  1  0  0  0  0
 39 36  1  1  0  0  0
 39 42  1  0  0  0  0
 40 44  1  0  0  0  0
 40 39  1  0  0  0  0
 41 43  1  0  0  0  0
 41 37  1  1  0  0  0
 42 41  1  0  0  0  0
 44 38  1  0  0  0  0
 44 45  1  0  0  0  0
 45 42  1  0  0  0  0
 45 46  1  0  0  0  0
 46 43  1  0  0  0  0
M  END
>  <MODEL>
3

>  <REMARK>
 VINA RESULT:      -6.4      3.592     10.303
  Name = 
  5 active torsions:
  status: ('A' for Active; 'I' for Inactive)
    1  A    between atoms: C_5  and  C_29
    2  A    between atoms: C_9  and  C_29
    3  A    between atoms: C_15  and  C_20
    4  A    between atoms: C_20  and  N_34
    5  A    between atoms: C_24  and  O_33
                            x       y       z     vdW  Elec       q    Type
                         _______ _______ _______ _____ _____    ______ ____

>  <TORSDO>
F 5

$$$$
=
 OpenBabel11032421033D

 46 53  0  0  1  0  0  0  0  0999 V2000
  186.0890  177.6640  142.8160 C   0  0  0  0  0  3  0  0  0  0  0  0
  189.9980  176.9750  140.2550 C   0  0  0  0  0  0  0  0  0  0  0  0
  187.7190  176.5110  139.1300 C   0  0  0  0  0  2  0  0  0  0  0  0
  193.4790  176.6240  138.9780 C   0  0  0  0  0  0  0  0  0  0  0  0
  185.6060  178.9620  139.2550 C   0  0  2  0  0  3  0  0  0  0  0  0
  190.4300  175.6670  142.8760 O   0  0  0  0  0  0  0  0  0  0  0  0
  189.4130  177.3270  141.5320 N   0  0  0  0  0  0  0  0  0  0  0  0
  189.4830  176.4740  142.6770 C   0  0  0  0  0  0  0  0  0  0  0  0
  186.7180  179.4210  137.2130 O   0  0  0  0  0  0  0  0  0  0  0  0
  188.2970  176.5940  143.5840 C   0  0  0  0  0  2  0  0  0  0  0  0
  187.8970  175.2730  136.6900 C   0  0  0  0  0  2  0  0  0  0  0  0
  194.1140  176.1980  137.8540 N   0  0  0  0  0  0  0  0  0  0  0  0
  185.4490  178.2490  141.7110 C   0  0  0  0  0  3  0  0  0  0  0  0
  189.9380  176.0460  137.9710 C   0  0  0  0  0  0  0  0  0  0  0  0
  191.3440  176.1020  137.9370 C   0  0  0  0  0  0  0  0  0  0  0  0
  187.5970  178.7500  140.7070 C   0  0  0  0  0  3  0  0  0  0  0  0
  187.1580  176.6090  136.6600 C   0  0  1  0  0  3  0  0  0  0  0  0
  188.2060  178.0430  141.7210 C   0  0  0  0  0  0  0  0  0  0  0  0
  189.2970  175.4840  136.8480 O   0  0  0  0  0  0  0  0  0  0  0  0
  186.5310  178.5620  138.1150 C   0  0  0  0  0  0  0  0  0  0  0  0
  186.2050  178.7480  140.6250 C   0  0  0  0  0  0  0  0  0  0  0  0
  191.3910  176.9930  140.1850 C   0  0  0  0  0  3  0  0  0  0  0  0
  187.1430  177.2470  137.9850 N   0  0  0  0  0  0  0  0  0  0  0  0
  189.2390  176.5360  139.1150 C   0  0  0  0  0  0  0  0  0  0  0  0
  193.4330  175.7260  136.7780 C   0  0  0  0  0  3  0  0  0  0  0  0
  187.4810  177.5560  142.7920 C   0  0  0  0  0  0  0  0  0  0  0  0
  194.3010  177.1230  140.1190 C   0  0  0  0  0  1  0  0  0  0  0  0
  192.0720  176.5860  139.0420 C   0  0  0  0  0  0  0  0  0  0  0  0
  192.0400  175.6690  136.8010 C   0  0  0  0  0  3  0  0  0  0  0  0
  186.9200  177.3780  134.5940 C   0  0  0  0  0  1  0  0  0  0  0  0
  187.7560  177.4460  135.7100 O   0  0  0  0  0  0  0  0  0  0  0  0
  184.2470  178.2940  139.0600 C   0  0  0  0  0  2  0  0  0  0  0  0
  183.1740  179.3170  138.9100 C   0  0  0  0  0  0  0  0  0  0  0  0
  183.4460  180.5380  139.0690 O   0  0  0  0  0  0  0  0  0  0  0  0
  181.8420  178.9040  138.6010 N   0  0  0  0  0  2  0  0  0  0  0  0
  180.7480  179.8450  138.4090 C   0  0  0  0  0  2  0  0  0  0  0  0
  179.9010  176.4400  138.3490 C   0  0  0  0  0  1  0  0  0  0  0  0
  181.2920  179.0320  142.4350 C   0  0  0  0  0  1  0  0  0  0  0  0
  179.6890  179.6580  139.4850 C   0  0  2  0  0  3  0  0  0  0  0  0
  180.0930  180.4410  140.7430 C   0  0  0  0  0  2  0  0  0  0  0  0
  179.0170  177.0700  139.4070 C   0  0  2  0  0  3  0  0  0  0  0  0
  179.7030  178.2550  140.0260 C   0  0  2  0  0  3  0  0  0  0  0  0
  178.9310  176.1360  140.6210 C   0  0  0  0  0  2  0  0  0  0  0  0
  179.9200  179.4610  141.9170 C   0  0  1  0  0  3  0  0  0  0  0  0
  179.1540  178.3610  141.3410 N   0  0  2  0  0  0  0  0  0  0  0  0
  179.2980  177.0060  141.8350 C   0  0  0  0  0  2  0  0  0  0  0  0
  2  7  1  0  0  0  0
  4 28  1  0  0  0  0
  4 27  1  0  0  0  0
  5 32  1  1  0  0  0
  5 21  1  0  0  0  0
  7 18  1  0  0  0  0
  7  8  1  0  0  0  0
  8  6  2  0  0  0  0
  8 10  1  0  0  0  0
  9 20  2  0  0  0  0
 11 19  1  0  0  0  0
 12  4  2  0  0  0  0
 13  1  2  0  0  0  0
 14 24  1  0  0  0  0
 15 14  2  0  0  0  0
 15 28  1  0  0  0  0
 16 18  1  0  0  0  0
 17 31  1  6  0  0  0
 17 11  1  0  0  0  0
 17 23  1  0  0  0  0
 18 26  2  0  0  0  0
 19 14  1  0  0  0  0
 20  5  1  0  0  0  0
 21 16  2  0  0  0  0
 21 13  1  0  0  0  0
 22  2  1  0  0  0  0
 23 20  1  0  0  0  0
 23  3  1  0  0  0  0
 24  3  1  0  0  0  0
 24  2  2  0  0  0  0
 25 29  2  0  0  0  0
 25 12  1  0  0  0  0
 26  1  1  0  0  0  0
 26 10  1  0  0  0  0
 28 22  2  0  0  0  0
 29 15  1  0  0  0  0
 30 31  1  0  0  0  0
 33 32  1  0  0  0  0
 33 34  2  0  0  0  0
 35 33  1  0  0  0  0
 36 35  1  0  0  0  0
 39 36  1  6  0  0  0
 39 42  1  0  0  0  0
 39 40  1  0  0  0  0
 40 44  1  0  0  0  0
 41 37  1  6  0  0  0
 41 42  1  0  0  0  0
 41 43  1  0  0  0  0
 42 45  1  0  0  0  0
 43 46  1  0  0  0  0
 44 38  1  0  0  0  0
 45 46  1  0  0  0  0
 45 44  1  0  0  0  0
M  END
>  <MODEL>
4

>  <REMARK>
 VINA RESULT:      -6.3      1.417      2.830
  Name = 
  5 active torsions:
  status: ('A' for Active; 'I' for Inactive)
    1  A    between atoms: C_5  and  C_29
    2  A    between atoms: C_9  and  C_29
    3  A    between atoms: C_15  and  C_20
    4  A    between atoms: C_20  and  N_34
    5  A    between atoms: C_24  and  O_33
                            x       y       z     vdW  Elec       q    Type
                         _______ _______ _______ _____ _____    ______ ____

>  <TORSDO>
F 5

$$$$
=
 OpenBabel11032421033D

 46 53  0  0  1  0  0  0  0  0999 V2000
  186.7570  175.9220  136.9520 C   0  0  0  0  0  3  0  0  0  0  0  0
  182.9610  178.5220  138.0220 C   0  0  0  0  0  0  0  0  0  0  0  0
  184.3450  177.5450  139.9720 C   0  0  0  0  0  2  0  0  0  0  0  0
  179.8570  180.5810  138.0080 C   0  0  0  0  0  0  0  0  0  0  0  0
  187.5060  178.2430  139.8930 C   0  0  2  0  0  3  0  0  0  0  0  0
  182.1360  176.5920  135.9330 O   0  0  0  0  0  0  0  0  0  0  0  0
  183.7840  177.9150  136.9970 N   0  0  0  0  0  0  0  0  0  0  0  0
  183.3470  176.8040  136.2100 C   0  0  0  0  0  0  0  0  0  0  0  0
  186.6690  180.0580  141.1670 O   0  0  0  0  0  0  0  0  0  0  0  0
  184.4600  175.8910  135.7970 C   0  0  0  0  0  2  0  0  0  0  0  0
  183.1710  177.8160  142.4350 C   0  0  0  0  0  2  0  0  0  0  0  0
  178.9670  181.0890  138.9010 N   0  0  0  0  0  0  0  0  0  0  0  0
  187.4860  176.5320  137.9860 C   0  0  0  0  0  3  0  0  0  0  0  0
  182.1790  178.8330  140.3400 C   0  0  0  0  0  0  0  0  0  0  0  0
  181.1020  179.5940  139.8490 C   0  0  0  0  0  0  0  0  0  0  0  0
  185.9790  178.4300  137.9560 C   0  0  0  0  0  3  0  0  0  0  0  0
  184.5570  178.4480  142.3310 C   0  0  1  0  0  3  0  0  0  0  0  0
  185.1910  177.7550  137.0500 C   0  0  0  0  0  0  0  0  0  0  0  0
  182.2140  178.6020  141.7310 O   0  0  0  0  0  0  0  0  0  0  0  0
  186.4020  178.9230  140.6890 C   0  0  0  0  0  0  0  0  0  0  0  0
  187.0650  177.7680  138.5290 C   0  0  0  0  0  0  0  0  0  0  0  0
  181.8660  179.2640  137.5780 C   0  0  0  0  0  3  0  0  0  0  0  0
  185.1090  178.3160  140.9750 N   0  0  0  0  0  0  0  0  0  0  0  0
  183.1600  178.3310  139.4330 C   0  0  0  0  0  0  0  0  0  0  0  0
  179.0930  180.8830  140.2380 C   0  0  0  0  0  3  0  0  0  0  0  0
  185.5920  176.5500  136.5060 C   0  0  0  0  0  0  0  0  0  0  0  0
  179.6440  180.8470  136.5540 C   0  0  0  0  0  1  0  0  0  0  0  0
  180.9500  179.8190  138.4660 C   0  0  0  0  0  0  0  0  0  0  0  0
  180.1590  180.1330  140.7330 C   0  0  0  0  0  3  0  0  0  0  0  0
  184.5550  179.7800  144.1040 C   0  0  0  0  0  1  0  0  0  0  0  0
  184.4810  179.7940  142.7100 O   0  0  0  0  0  0  0  0  0  0  0  0
  188.1500  177.1560  140.7510 C   0  0  0  0  0  2  0  0  0  0  0  0
  188.6590  177.7280  142.0290 C   0  0  0  0  0  0  0  0  0  0  0  0
  189.8040  178.2550  142.0680 O   0  0  0  0  0  0  0  0  0  0  0  0
  187.8500  177.6620  143.2050 N   0  0  0  0  0  2  0  0  0  0  0  0
  188.2650  178.2250  144.4820 C   0  0  0  0  0  2  0  0  0  0  0  0
  191.6800  177.4380  144.3000 C   0  0  0  0  0  1  0  0  0  0  0  0
  189.1690  178.5940  148.5090 C   0  0  0  0  0  1  0  0  0  0  0  0
  188.4950  177.1200  145.5020 C   0  0  2  0  0  3  0  0  0  0  0  0
  187.7370  177.4520  146.7960 C   0  0  0  0  0  2  0  0  0  0  0  0
  191.0900  176.4950  145.3310 C   0  0  2  0  0  3  0  0  0  0  0  0
  189.9110  177.1320  146.0090 C   0  0  2  0  0  3  0  0  0  0  0  0
  192.0550  176.3680  146.5160 C   0  0  0  0  0  2  0  0  0  0  0  0
  188.7480  177.2400  147.9370 C   0  0  1  0  0  3  0  0  0  0  0  0
  189.8460  176.5200  147.2990 N   0  0  2  0  0  0  0  0  0  0  0  0
  191.2100  176.6640  147.7660 C   0  0  0  0  0  2  0  0  0  0  0  0
  1 13  1  0  0  0  0
  2 24  1  0  0  0  0
  3 23  1  0  0  0  0
  4 28  2  0  0  0  0
  4 12  1  0  0  0  0
  5 20  1  0  0  0  0
  5 32  1  1  0  0  0
  6  8  2  0  0  0  0
  7 18  1  0  0  0  0
  7  2  1  0  0  0  0
  8  7  1  0  0  0  0
 10  8  1  0  0  0  0
 10 26  1  0  0  0  0
 12 25  2  0  0  0  0
 13 21  2  0  0  0  0
 14 19  1  0  0  0  0
 15 14  1  0  0  0  0
 15 29  2  0  0  0  0
 16 21  1  0  0  0  0
 17 11  1  0  0  0  0
 17 31  1  6  0  0  0
 18 16  2  0  0  0  0
 19 11  1  0  0  0  0
 20 23  1  0  0  0  0
 20  9  2  0  0  0  0
 21  5  1  0  0  0  0
 22  2  2  0  0  0  0
 22 28  1  0  0  0  0
 23 17  1  0  0  0  0
 24  3  1  0  0  0  0
 24 14  2  0  0  0  0
 25 29  1  0  0  0  0
 26  1  2  0  0  0  0
 26 18  1  0  0  0  0
 27  4  1  0  0  0  0
 28 15  1  0  0  0  0
 31 30  1  0  0  0  0
 32 33  1  0  0  0  0
 33 34  2  0  0  0  0
 33 35  1  0  0  0  0
 35 36  1  0  0  0  0
 39 36  1  6  0  0  0
 39 42  1  0  0  0  0
 39 40  1  0  0  0  0
 40 44  1  0  0  0  0
 41 37  1  6  0  0  0
 41 42  1  0  0  0  0
 41 43  1  0  0  0  0
 42 45  1  0  0  0  0
 43 46  1  0  0  0  0
 44 38  1  0  0  0  0
 45 46  1  0  0  0  0
 45 44  1  0  0  0  0
M  END
>  <MODEL>
5

>  <REMARK>
 VINA RESULT:      -6.1      3.098     10.313
  Name = 
  5 active torsions:
  status: ('A' for Active; 'I' for Inactive)
    1  A    between atoms: C_5  and  C_29
    2  A    between atoms: C_9  and  C_29
    3  A    between atoms: C_15  and  C_20
    4  A    between atoms: C_20  and  N_34
    5  A    between atoms: C_24  and  O_33
                            x       y       z     vdW  Elec       q    Type
                         _______ _______ _______ _____ _____    ______ ____

>  <TORSDO>
F 5

$$$$
=
 OpenBabel11032421033D

 46 53  0  0  1  0  0  0  0  0999 V2000
  183.1790  178.7590  142.5500 C   0  0  0  0  0  3  0  0  0  0  0  0
  186.9600  178.1870  145.3240 C   0  0  0  0  0  0  0  0  0  0  0  0
  187.0180  177.1280  142.9680 C   0  0  0  0  0  2  0  0  0  0  0  0
  189.4500  178.1450  148.0940 C   0  0  0  0  0  0  0  0  0  0  0  0
  186.3980  179.1710  140.5330 C   0  0  2  0  0  3  0  0  0  0  0  0
  184.5740  177.5570  146.9600 O   0  0  0  0  0  0  0  0  0  0  0  0
  185.6160  178.7020  145.1720 N   0  0  0  0  0  0  0  0  0  0  0  0
  184.4880  178.1370  145.8450 C   0  0  0  0  0  0  0  0  0  0  0  0
  188.7550  179.3580  140.6980 O   0  0  0  0  0  0  0  0  0  0  0  0
  183.2110  178.2530  145.0710 C   0  0  0  0  0  2  0  0  0  0  0  0
  189.1390  175.4430  142.5410 C   0  0  0  0  0  2  0  0  0  0  0  0
  190.6650  177.5980  148.3640 N   0  0  0  0  0  0  0  0  0  0  0  0
  184.0080  178.9820  141.4380 C   0  0  0  0  0  3  0  0  0  0  0  0
  188.8870  176.7940  144.6660 C   0  0  0  0  0  0  0  0  0  0  0  0
  189.4810  177.0710  145.9110 C   0  0  0  0  0  0  0  0  0  0  0  0
  185.8380  179.6010  142.9030 C   0  0  0  0  0  3  0  0  0  0  0  0
  189.0540  176.6030  141.5520 C   0  0  1  0  0  3  0  0  0  0  0  0
  185.0620  179.2360  143.9820 C   0  0  0  0  0  0  0  0  0  0  0  0
  189.5780  175.9090  143.8140 O   0  0  0  0  0  0  0  0  0  0  0  0
  187.7460  178.6920  141.0530 C   0  0  0  0  0  0  0  0  0  0  0  0
  185.3610  179.3540  141.6160 C   0  0  0  0  0  0  0  0  0  0  0  0
  187.5760  178.4160  146.5540 C   0  0  0  0  0  3  0  0  0  0  0  0
  187.9300  177.4980  141.8650 N   0  0  0  0  0  0  0  0  0  0  0  0
  187.6360  177.3960  144.3310 C   0  0  0  0  0  0  0  0  0  0  0  0
  191.3100  176.8020  147.4710 C   0  0  0  0  0  3  0  0  0  0  0  0
  183.7370  178.8770  143.8250 C   0  0  0  0  0  0  0  0  0  0  0  0
  188.8050  179.0030  149.1300 C   0  0  0  0  0  1  0  0  0  0  0  0
  188.8290  177.8920  146.8540 C   0  0  0  0  0  0  0  0  0  0  0  0
  190.7300  176.5250  146.2340 C   0  0  0  0  0  3  0  0  0  0  0  0
  190.9650  176.8210  140.4490 C   0  0  0  0  0  1  0  0  0  0  0  0
  190.2660  177.3040  141.5560 O   0  0  0  0  0  0  0  0  0  0  0  0
  185.9480  178.2630  139.3900 C   0  0  0  0  0  2  0  0  0  0  0  0
  187.0330  178.1130  138.3800 C   0  0  0  0  0  0  0  0  0  0  0  0
  187.3540  179.0930  137.6540 O   0  0  0  0  0  0  0  0  0  0  0  0
  187.6910  176.8530  138.2320 N   0  0  0  0  0  2  0  0  0  0  0  0
  188.7790  176.6370  137.2900 C   0  0  0  0  0  2  0  0  0  0  0  0
  191.2600  174.2460  136.6250 C   0  0  0  0  0  1  0  0  0  0  0  0
  186.3560  173.2760  137.2230 C   0  0  0  0  0  1  0  0  0  0  0  0
  188.2910  175.8500  136.0830 C   0  0  2  0  0  3  0  0  0  0  0  0
  186.7940  175.5430  136.2440 C   0  0  0  0  0  2  0  0  0  0  0  0
  190.2030  174.0570  135.5540 C   0  0  2  0  0  3  0  0  0  0  0  0
  188.8520  174.4550  136.0770 C   0  0  2  0  0  3  0  0  0  0  0  0
  189.9780  172.5580  135.3200 C   0  0  0  0  0  2  0  0  0  0  0  0
  186.6410  174.0430  135.9320 C   0  0  1  0  0  3  0  0  0  0  0  0
  187.9170  173.6840  135.3210 N   0  0  2  0  0  0  0  0  0  0  0  0
  188.4600  172.3470  135.4480 C   0  0  0  0  0  2  0  0  0  0  0  0
  1 26  1  0  0  0  0
  2 22  1  0  0  0  0
  3 24  1  0  0  0  0
  4 12  2  0  0  0  0
  4 27  1  0  0  0  0
  5 32  1  6  0  0  0
  5 20  1  0  0  0  0
  5 21  1  0  0  0  0
  7  2  1  0  0  0  0
  7  8  1  0  0  0  0
  8  6  2  0  0  0  0
  9 20  2  0  0  0  0
 10  8  1  0  0  0  0
 11 19  1  0  0  0  0
 13 21  1  0  0  0  0
 13  1  2  0  0  0  0
 14 15  2  0  0  0  0
 15 29  1  0  0  0  0
 15 28  1  0  0  0  0
 16 18  1  0  0  0  0
 17 31  1  1  0  0  0
 17 23  1  0  0  0  0
 17 11  1  0  0  0  0
 18  7  1  0  0  0  0
 19 14  1  0  0  0  0
 20 23  1  0  0  0  0
 21 16  2  0  0  0  0
 22 28  2  0  0  0  0
 23  3  1  0  0  0  0
 24 14  1  0  0  0  0
 24  2  2  0  0  0  0
 25 12  1  0  0  0  0
 26 18  2  0  0  0  0
 26 10  1  0  0  0  0
 28  4  1  0  0  0  0
 29 25  2  0  0  0  0
 30 31  1  0  0  0  0
 33 32  1  0  0  0  0
 34 33  2  0  0  0  0
 35 33  1  0  0  0  0
 36 35  1  0  0  0  0
 39 40  1  0  0  0  0
 39 36  1  1  0  0  0
 41 42  1  0  0  0  0
 41 37  1  1  0  0  0
 42 39  1  0  0  0  0
 43 46  1  0  0  0  0
 43 41  1  0  0  0  0
 44 40  1  0  0  0  0
 44 38  1  0  0  0  0
 45 46  1  0  0  0  0
 45 44  1  0  0  0  0
 45 42  1  0  0  0  0
M  END
>  <MODEL>
6

>  <REMARK>
 VINA RESULT:      -6.1      3.821      7.596
  Name = 
  5 active torsions:
  status: ('A' for Active; 'I' for Inactive)
    1  A    between atoms: C_5  and  C_29
    2  A    between atoms: C_9  and  C_29
    3  A    between atoms: C_15  and  C_20
    4  A    between atoms: C_20  and  N_34
    5  A    between atoms: C_24  and  O_33
                            x       y       z     vdW  Elec       q    Type
                         _______ _______ _______ _____ _____    ______ ____

>  <TORSDO>
F 5

$$$$
=
 OpenBabel11032421033D

 46 53  0  0  1  0  0  0  0  0999 V2000
  183.0040  178.8580  143.4060 C   0  0  0  0  0  3  0  0  0  0  0  0
  187.1080  178.1960  145.6510 C   0  0  0  0  0  0  0  0  0  0  0  0
  186.8680  177.2380  143.2630 C   0  0  0  0  0  2  0  0  0  0  0  0
  189.9300  178.0540  148.0770 C   0  0  0  0  0  0  0  0  0  0  0  0
  185.9400  179.3780  141.0160 C   0  0  2  0  0  3  0  0  0  0  0  0
  184.9500  177.4810  147.5480 O   0  0  0  0  0  0  0  0  0  0  0  0
  185.7550  178.7080  145.6930 N   0  0  0  0  0  0  0  0  0  0  0  0
  184.7230  178.1070  146.4780 C   0  0  0  0  0  0  0  0  0  0  0  0
  188.2990  179.5740  140.8880 O   0  0  0  0  0  0  0  0  0  0  0  0
  183.3570  178.2460  145.8780 C   0  0  0  0  0  2  0  0  0  0  0  0
  188.9200  175.5880  142.4990 C   0  0  0  0  0  2  0  0  0  0  0  0
  191.1700  177.5050  148.1670 N   0  0  0  0  0  0  0  0  0  0  0  0
  183.6850  179.1340  142.2090 C   0  0  0  0  0  3  0  0  0  0  0  0
  188.9380  176.8460  144.6950 C   0  0  0  0  0  0  0  0  0  0  0  0
  189.6850  177.0740  145.8650 C   0  0  0  0  0  0  0  0  0  0  0  0
  185.6850  179.7040  143.4550 C   0  0  0  0  0  3  0  0  0  0  0  0
  188.7080  176.7880  141.5790 C   0  0  1  0  0  3  0  0  0  0  0  0
  185.0530  179.2880  144.6060 C   0  0  0  0  0  0  0  0  0  0  0  0
  189.5170  176.0020  143.7240 O   0  0  0  0  0  0  0  0  0  0  0  0
  187.3440  178.8870  141.3400 C   0  0  0  0  0  0  0  0  0  0  0  0
  185.0490  179.5080  142.2290 C   0  0  0  0  0  0  0  0  0  0  0  0
  187.8750  178.3780  146.8010 C   0  0  0  0  0  3  0  0  0  0  0  0
  187.6320  177.6610  142.0700 N   0  0  0  0  0  0  0  0  0  0  0  0
  187.6540  177.4530  144.5460 C   0  0  0  0  0  0  0  0  0  0  0  0
  191.6980  176.7520  147.1670 C   0  0  0  0  0  3  0  0  0  0  0  0
  183.7200  178.9260  144.6030 C   0  0  0  0  0  0  0  0  0  0  0  0
  189.4200  178.8630  149.2230 C   0  0  0  0  0  1  0  0  0  0  0  0
  189.1570  177.8500  146.9160 C   0  0  0  0  0  0  0  0  0  0  0  0
  190.9650  176.5230  146.0020 C   0  0  0  0  0  3  0  0  0  0  0  0
  190.5700  176.9060  140.3800 C   0  0  0  0  0  1  0  0  0  0  0  0
  189.9100  177.4970  141.4590 O   0  0  0  0  0  0  0  0  0  0  0  0
  185.3500  178.5160  139.9020 C   0  0  0  0  0  2  0  0  0  0  0  0
  184.2990  179.2660  139.1580 C   0  0  0  0  0  0  0  0  0  0  0  0
  184.4560  180.4950  138.9200 O   0  0  0  0  0  0  0  0  0  0  0  0
  183.1150  178.5890  138.7340 N   0  0  0  0  0  2  0  0  0  0  0  0
  182.0580  179.2460  137.9770 C   0  0  0  0  0  2  0  0  0  0  0  0
  183.4050  177.0800  135.5660 C   0  0  0  0  0  1  0  0  0  0  0  0
  181.1610  175.6560  139.8430 C   0  0  0  0  0  1  0  0  0  0  0  0
  180.9530  178.2570  137.6380 C   0  0  2  0  0  3  0  0  0  0  0  0
  180.2530  177.8080  138.9300 C   0  0  0  0  0  2  0  0  0  0  0  0
  181.9700  176.6350  135.7700 C   0  0  2  0  0  3  0  0  0  0  0  0
  181.5190  176.9450  137.1700 C   0  0  2  0  0  3  0  0  0  0  0  0
  181.9120  175.1020  135.7950 C   0  0  0  0  0  2  0  0  0  0  0  0
  180.1760  176.2730  138.8500 C   0  0  1  0  0  3  0  0  0  0  0  0
  180.5050  175.9810  137.4580 N   0  0  2  0  0  0  0  0  0  0  0  0
  181.1570  174.7410  137.0850 C   0  0  0  0  0  2  0  0  0  0  0  0
  1 26  1  0  0  0  0
  2  7  1  0  0  0  0
  2 22  1  0  0  0  0
  3 24  1  0  0  0  0
  4 12  2  0  0  0  0
  4 27  1  0  0  0  0
  5 32  1  6  0  0  0
  5 20  1  0  0  0  0
  5 21  1  0  0  0  0
  7  8  1  0  0  0  0
  8  6  2  0  0  0  0
  9 20  2  0  0  0  0
 10  8  1  0  0  0  0
 11 19  1  0  0  0  0
 13 21  1  0  0  0  0
 13  1  2  0  0  0  0
 14 15  2  0  0  0  0
 15 29  1  0  0  0  0
 15 28  1  0  0  0  0
 16 18  1  0  0  0  0
 17 31  1  1  0  0  0
 17 23  1  0  0  0  0
 17 11  1  0  0  0  0
 18  7  1  0  0  0  0
 19 14  1  0  0  0  0
 20 23  1  0  0  0  0
 21 16  2  0  0  0  0
 22 28  2  0  0  0  0
 23  3  1  0  0  0  0
 24 14  1  0  0  0  0
 24  2  2  0  0  0  0
 25 12  1  0  0  0  0
 26 18  2  0  0  0  0
 26 10  1  0  0  0  0
 28  4  1  0  0  0  0
 29 25  2  0  0  0  0
 30 31  1  0  0  0  0
 33 32  1  0  0  0  0
 34 33  2  0  0  0  0
 35 33  1  0  0  0  0
 36 35  1  0  0  0  0
 39 36  1  1  0  0  0
 39 40  1  0  0  0  0
 41 37  1  1  0  0  0
 41 43  1  0  0  0  0
 41 42  1  0  0  0  0
 42 45  1  0  0  0  0
 42 39  1  0  0  0  0
 43 46  1  0  0  0  0
 44 40  1  0  0  0  0
 44 38  1  0  0  0  0
 45 44  1  0  0  0  0
 46 45  1  0  0  0  0
M  END
>  <MODEL>
7

>  <REMARK>
 VINA RESULT:      -6.0      3.183      5.941
  Name = 
  5 active torsions:
  status: ('A' for Active; 'I' for Inactive)
    1  A    between atoms: C_5  and  C_29
    2  A    between atoms: C_9  and  C_29
    3  A    between atoms: C_15  and  C_20
    4  A    between atoms: C_20  and  N_34
    5  A    between atoms: C_24  and  O_33
                            x       y       z     vdW  Elec       q    Type
                         _______ _______ _______ _____ _____    ______ ____

>  <TORSDO>
F 5

$$$$
=
 OpenBabel11032421033D

 46 53  0  0  1  0  0  0  0  0999 V2000
  186.1730  177.6670  143.2070 C   0  0  0  0  0  3  0  0  0  0  0  0
  189.7520  177.0820  140.1800 C   0  0  0  0  0  0  0  0  0  0  0  0
  187.3610  176.5890  139.3350 C   0  0  0  0  0  2  0  0  0  0  0  0
  193.0570  176.8130  138.4850 C   0  0  0  0  0  0  0  0  0  0  0  0
  185.2370  178.9980  139.7500 C   0  0  2  0  0  3  0  0  0  0  0  0
  190.5230  175.7520  142.7110 O   0  0  0  0  0  0  0  0  0  0  0  0
  189.3210  177.4080  141.5240 N   0  0  0  0  0  0  0  0  0  0  0  0
  189.5440  176.5430  142.6400 C   0  0  0  0  0  0  0  0  0  0  0  0
  186.0830  179.5010  137.5940 O   0  0  0  0  0  0  0  0  0  0  0  0
  188.4760  176.6300  143.6860 C   0  0  0  0  0  2  0  0  0  0  0  0
  187.2620  175.3830  136.8740 C   0  0  0  0  0  2  0  0  0  0  0  0
  193.5580  176.4120  137.2870 N   0  0  0  0  0  0  0  0  0  0  0  0
  185.3920  178.2530  142.1970 C   0  0  0  0  0  3  0  0  0  0  0  0
  189.4310  176.1790  137.9080 C   0  0  0  0  0  0  0  0  0  0  0  0
  190.8200  176.2630  137.7040 C   0  0  0  0  0  0  0  0  0  0  0  0
  187.3930  178.8070  140.9460 C   0  0  0  0  0  3  0  0  0  0  0  0
  186.5020  176.7050  136.9520 C   0  0  1  0  0  3  0  0  0  0  0  0
  188.1330  178.0990  141.8690 C   0  0  0  0  0  0  0  0  0  0  0  0
  188.6670  175.6190  136.8630 O   0  0  0  0  0  0  0  0  0  0  0  0
  186.0230  178.6280  138.5010 C   0  0  0  0  0  0  0  0  0  0  0  0
  186.0020  178.7780  141.0340 C   0  0  0  0  0  0  0  0  0  0  0  0
  191.1250  177.1270  139.9430 C   0  0  0  0  0  3  0  0  0  0  0  0
  186.6370  177.3270  138.2780 N   0  0  0  0  0  0  0  0  0  0  0  0
  188.8670  176.6420  139.1350 C   0  0  0  0  0  0  0  0  0  0  0  0
  192.7590  175.9400  136.2940 C   0  0  0  0  0  3  0  0  0  0  0  0
  187.5520  177.5850  143.0130 C   0  0  0  0  0  0  0  0  0  0  0  0
  194.0030  177.3140  139.5250 C   0  0  0  0  0  1  0  0  0  0  0  0
  191.6690  176.7470  138.7200 C   0  0  0  0  0  0  0  0  0  0  0  0
  191.3800  175.8560  136.4860 C   0  0  0  0  0  3  0  0  0  0  0  0
  186.1440  177.3080  134.8490 C   0  0  0  0  0  1  0  0  0  0  0  0
  186.9650  177.5650  135.9490 O   0  0  0  0  0  0  0  0  0  0  0  0
  183.8760  178.3060  139.7120 C   0  0  0  0  0  2  0  0  0  0  0  0
  183.1540  178.6350  138.4510 C   0  0  0  0  0  0  0  0  0  0  0  0
  182.6980  179.7980  138.2750 O   0  0  0  0  0  0  0  0  0  0  0  0
  182.9720  177.6250  137.4570 N   0  0  0  0  0  2  0  0  0  0  0  0
  182.3050  177.8770  136.1880 C   0  0  0  0  0  2  0  0  0  0  0  0
  183.5810  174.6550  135.6400 C   0  0  0  0  0  1  0  0  0  0  0  0
  180.1840  175.8940  139.1430 C   0  0  0  0  0  1  0  0  0  0  0  0
  181.0950  176.9690  136.0320 C   0  0  2  0  0  3  0  0  0  0  0  0
  180.0440  177.3290  137.0920 C   0  0  0  0  0  2  0  0  0  0  0  0
  182.0730  174.5220  135.5730 C   0  0  2  0  0  3  0  0  0  0  0  0
  181.4160  175.5580  136.4410 C   0  0  2  0  0  3  0  0  0  0  0  0
  181.6420  173.2410  136.2990 C   0  0  0  0  0  2  0  0  0  0  0  0
  179.6180  175.9930  137.7270 C   0  0  1  0  0  3  0  0  0  0  0  0
  180.1620  174.9880  136.8200 N   0  0  2  0  0  0  0  0  0  0  0  0
  180.5600  173.6800  137.2990 C   0  0  0  0  0  2  0  0  0  0  0  0
  2  7  1  0  0  0  0
  4 28  1  0  0  0  0
  4 27  1  0  0  0  0
  5 32  1  1  0  0  0
  5 21  1  0  0  0  0
  7 18  1  0  0  0  0
  7  8  1  0  0  0  0
  8  6  2  0  0  0  0
  8 10  1  0  0  0  0
  9 20  2  0  0  0  0
 11 17  1  0  0  0  0
 12  4  2  0  0  0  0
 13  1  2  0  0  0  0
 14 24  1  0  0  0  0
 15 14  2  0  0  0  0
 15 28  1  0  0  0  0
 16 21  2  0  0  0  0
 16 18  1  0  0  0  0
 17 31  1  6  0  0  0
 17 23  1  0  0  0  0
 18 26  2  0  0  0  0
 19 11  1  0  0  0  0
 19 14  1  0  0  0  0
 20  5  1  0  0  0  0
 21 13  1  0  0  0  0
 22  2  1  0  0  0  0
 23 20  1  0  0  0  0
 23  3  1  0  0  0  0
 24  3  1  0  0  0  0
 24  2  2  0  0  0  0
 25 29  2  0  0  0  0
 25 12  1  0  0  0  0
 26  1  1  0  0  0  0
 26 10  1  0  0  0  0
 28 22  2  0  0  0  0
 29 15  1  0  0  0  0
 30 31  1  0  0  0  0
 33 32  1  0  0  0  0
 34 33  2  0  0  0  0
 35 33  1  0  0  0  0
 36 35  1  0  0  0  0
 39 36  1  1  0  0  0
 39 42  1  0  0  0  0
 39 40  1  0  0  0  0
 40 44  1  0  0  0  0
 41 37  1  1  0  0  0
 41 43  1  0  0  0  0
 41 42  1  0  0  0  0
 42 45  1  0  0  0  0
 43 46  1  0  0  0  0
 44 38  1  0  0  0  0
 45 46  1  0  0  0  0
 45 44  1  0  0  0  0
M  END
>  <MODEL>
8

>  <REMARK>
 VINA RESULT:      -5.7      1.741      2.944
  Name = 
  5 active torsions:
  status: ('A' for Active; 'I' for Inactive)
    1  A    between atoms: C_5  and  C_29
    2  A    between atoms: C_9  and  C_29
    3  A    between atoms: C_15  and  C_20
    4  A    between atoms: C_20  and  N_34
    5  A    between atoms: C_24  and  O_33
                            x       y       z     vdW  Elec       q    Type
                         _______ _______ _______ _____ _____    ______ ____

>  <TORSDO>
F 5

$$$$
=
 OpenBabel11032421033D

 46 53  0  0  1  0  0  0  0  0999 V2000
  187.2300  177.7750  135.0740 C   0  0  0  0  0  3  0  0  0  0  0  0
  187.0040  177.8910  139.7920 C   0  0  0  0  0  0  0  0  0  0  0  0
  184.8650  178.4740  138.4640 C   0  0  0  0  0  2  0  0  0  0  0  0
  187.6720  177.8140  143.4550 C   0  0  0  0  0  0  0  0  0  0  0  0
  183.9490  176.2480  136.2990 C   0  0  2  0  0  3  0  0  0  0  0  0
  189.4510  179.3580  138.9990 O   0  0  0  0  0  0  0  0  0  0  0  0
  187.8120  177.6980  138.6060 N   0  0  0  0  0  0  0  0  0  0  0  0
  188.8150  178.6290  138.1920 C   0  0  0  0  0  0  0  0  0  0  0  0
  182.7680  175.5270  138.2230 O   0  0  0  0  0  0  0  0  0  0  0  0
  188.9930  178.6930  136.7060 C   0  0  0  0  0  2  0  0  0  0  0  0
  182.8310  179.4920  139.9950 C   0  0  0  0  0  2  0  0  0  0  0  0
  187.0200  178.0880  144.6160 N   0  0  0  0  0  0  0  0  0  0  0  0
  185.9660  177.1660  135.0130 C   0  0  0  0  0  3  0  0  0  0  0  0
  184.9890  178.6370  141.0030 C   0  0  0  0  0  0  0  0  0  0  0  0
  185.6770  178.4470  142.2160 C   0  0  0  0  0  0  0  0  0  0  0  0
  186.2080  176.3890  137.2960 C   0  0  0  0  0  3  0  0  0  0  0  0
  182.4570  178.2320  139.2180 C   0  0  1  0  0  3  0  0  0  0  0  0
  187.3750  177.1150  137.3910 C   0  0  0  0  0  0  0  0  0  0  0  0
  183.6840  179.1650  141.0880 O   0  0  0  0  0  0  0  0  0  0  0  0
  183.4310  176.4690  137.7120 C   0  0  0  0  0  0  0  0  0  0  0  0
  185.4280  176.5140  136.1470 C   0  0  0  0  0  0  0  0  0  0  0  0
  187.6540  177.7380  141.0160 C   0  0  0  0  0  3  0  0  0  0  0  0
  183.6020  177.7060  138.4600 N   0  0  0  0  0  0  0  0  0  0  0  0
  185.6270  178.3070  139.7690 C   0  0  0  0  0  0  0  0  0  0  0  0
  185.7360  178.5350  144.6320 C   0  0  0  0  0  3  0  0  0  0  0  0
  187.9160  177.7510  136.2900 C   0  0  0  0  0  0  0  0  0  0  0  0
  189.0830  177.3330  143.5230 C   0  0  0  0  0  1  0  0  0  0  0  0
  187.0090  177.9880  142.2230 C   0  0  0  0  0  0  0  0  0  0  0  0
  185.0460  178.7230  143.4350 C   0  0  0  0  0  3  0  0  0  0  0  0
  180.5780  177.4540  140.1010 C   0  0  0  0  0  1  0  0  0  0  0  0
  181.9620  177.2700  140.1060 O   0  0  0  0  0  0  0  0  0  0  0  0
  183.0740  177.0220  135.3150 C   0  0  0  0  0  2  0  0  0  0  0  0
  181.6510  177.0160  135.7580 C   0  0  0  0  0  0  0  0  0  0  0  0
  181.0370  175.9210  135.8780 O   0  0  0  0  0  0  0  0  0  0  0  0
  180.9910  178.2530  136.0300 N   0  0  0  0  0  2  0  0  0  0  0  0
  179.6140  178.3270  136.4970 C   0  0  0  0  0  2  0  0  0  0  0  0
  179.6320  180.5430  139.2180 C   0  0  0  0  0  1  0  0  0  0  0  0
  181.3740  181.5670  134.6060 C   0  0  0  0  0  1  0  0  0  0  0  0
  178.9520  179.6050  136.0020 C   0  0  2  0  0  3  0  0  0  0  0  0
  179.4690  179.9370  134.5940 C   0  0  0  0  0  2  0  0  0  0  0  0
  178.9310  181.2750  138.0900 C   0  0  2  0  0  3  0  0  0  0  0  0
  179.4470  180.8050  136.7600 C   0  0  2  0  0  3  0  0  0  0  0  0
  179.3950  182.7370  138.0660 C   0  0  0  0  0  2  0  0  0  0  0  0
  179.8520  181.4270  134.6320 C   0  0  1  0  0  3  0  0  0  0  0  0
  179.2530  181.9080  135.8720 N   0  0  2  0  0  0  0  0  0  0  0  0
  179.8460  183.0000  136.6190 C   0  0  0  0  0  2  0  0  0  0  0  0
  1 26  1  0  0  0  0
  2 22  1  0  0  0  0
  3 24  1  0  0  0  0
  4 27  1  0  0  0  0
  4 12  2  0  0  0  0
  5 32  1  6  0  0  0
  5 20  1  0  0  0  0
  7  2  1  0  0  0  0
  8  7  1  0  0  0  0
  8  6  2  0  0  0  0
 10  8  1  0  0  0  0
 11 19  1  0  0  0  0
 12 25  1  0  0  0  0
 13  1  2  0  0  0  0
 13 21  1  0  0  0  0
 14 19  1  0  0  0  0
 14 15  2  0  0  0  0
 15 28  1  0  0  0  0
 15 29  1  0  0  0  0
 16 18  1  0  0  0  0
 17 11  1  0  0  0  0
 17 31  1  1  0  0  0
 18  7  1  0  0  0  0
 20  9  2  0  0  0  0
 20 23  1  0  0  0  0
 21  5  1  0  0  0  0
 21 16  2  0  0  0  0
 22 28  2  0  0  0  0
 23  3  1  0  0  0  0
 23 17  1  0  0  0  0
 24  2  2  0  0  0  0
 24 14  1  0  0  0  0
 26 10  1  0  0  0  0
 26 18  2  0  0  0  0
 28  4  1  0  0  0  0
 29 25  2  0  0  0  0
 30 31  1  0  0  0  0
 32 33  1  0  0  0  0
 33 34  2  0  0  0  0
 33 35  1  0  0  0  0
 35 36  1  0  0  0  0
 38 44  1  0  0  0  0
 39 36  1  1  0  0  0
 39 42  1  0  0  0  0
 40 44  1  0  0  0  0
 40 39  1  0  0  0  0
 41 37  1  1  0  0  0
 42 41  1  0  0  0  0
 43 41  1  0  0  0  0
 44 45  1  0  0  0  0
 45 46  1  0  0  0  0
 45 42  1  0  0  0  0
 46 43  1  0  0  0  0
M  END
>  <MODEL>
9

>  <REMARK>
 VINA RESULT:      -5.7      2.710      5.602
  Name = 
  5 active torsions:
  status: ('A' for Active; 'I' for Inactive)
    1  A    between atoms: C_5  and  C_29
    2  A    between atoms: C_9  and  C_29
    3  A    between atoms: C_15  and  C_20
    4  A    between atoms: C_20  and  N_34
    5  A    between atoms: C_24  and  O_33
                            x       y       z     vdW  Elec       q    Type
                         _______ _______ _______ _____ _____    ______ ____

>  <TORSDO>
F 5

$$$$
