=
 OpenBabel11032420563D

 47 51  0  0  1  0  0  0  0  0999 V2000
  189.5720  178.0850  140.3900 C   0  0  0  0  0  2  0  0  0  0  0  0
  188.3030  178.7220  140.9720 C   0  0  2  0  0  3  0  0  0  0  0  0
  187.9680  176.4500  137.2370 C   0  0  2  0  0  3  0  0  0  0  0  0
  187.0270  178.6540  136.9780 C   0  0  0  0  0  3  0  0  0  0  0  0
  189.4080  176.6140  140.0230 C   0  0  0  0  0  2  0  0  0  0  0  0
  189.5770  175.1140  136.4510 C   0  0  0  0  0  0  0  0  0  0  0  0
  187.7510  178.0000  142.1880 C   0  0  0  0  0  2  0  0  0  0  0  0
  185.9690  178.9840  141.0020 C   0  0  2  0  0  3  0  0  0  0  0  0
  187.6130  177.3410  134.9770 C   0  0  0  0  0  3  0  0  0  0  0  0
  187.2780  178.5250  135.5200 C   0  0  0  0  0  3  0  0  0  0  0  0
  187.6600  176.0870  135.8190 C   0  0  1  0  0  3  0  0  0  0  0  0
  190.0640  176.3810  138.6740 C   0  0  0  0  0  2  0  0  0  0  0  0
  188.7810  175.2400  135.4410 N   0  0  0  0  0  0  0  0  0  0  0  0
  187.3550  177.6580  137.8110 C   0  0  0  0  0  0  0  0  0  0  0  0
  187.1290  178.8860  140.0190 C   0  0  2  0  0  3  0  0  0  0  0  0
  186.9950  177.6930  139.1910 N   0  0  0  0  0  2  0  0  0  0  0  0
  189.1210  175.8850  137.6080 C   0  0  1  0  0  3  0  0  0  0  0  0
  186.2960  178.1660  142.1750 N   0  0  0  0  0  0  0  0  0  0  0  0
  184.1660  179.3670  139.3120 C   0  0  0  0  0  3  0  0  0  0  0  0
  183.8460  177.6010  140.9350 C   0  0  0  0  0  3  0  0  0  0  0  0
  184.6240  178.6480  140.4200 C   0  0  0  0  0  0  0  0  0  0  0  0
  182.9340  179.0550  138.7300 C   0  0  0  0  0  3  0  0  0  0  0  0
  182.1510  178.0110  139.2490 C   0  0  0  0  0  0  0  0  0  0  0  0
  182.6140  177.2880  140.3530 C   0  0  0  0  0  3  0  0  0  0  0  0
  180.9160  177.6730  138.6880 O   0  0  0  0  0  0  0  0  0  0  0  0
  180.2560  176.4460  138.9680 C   0  0  0  0  0  2  0  0  0  0  0  0
  179.5790  175.1880  137.0640 O   0  0  0  0  0  0  0  0  0  0  0  0
  181.7470  174.8750  137.7410 O   0  0  0  0  0  1  0  0  0  0  0  0
  180.5050  175.4830  137.8640 C   0  0  0  0  0  0  0  0  0  0  0  0
  190.9870  173.3480  137.1730 O   0  0  0  0  0  0  0  0  0  0  0  0
  191.8010  174.6260  135.4020 N   0  0  0  0  0  2  0  0  0  0  0  0
  190.8100  174.3120  136.3810 C   0  0  0  0  0  0  0  0  0  0  0  0
  193.0280  173.8540  135.2700 C   0  0  0  0  0  2  0  0  0  0  0  0
  194.1200  174.4620  136.1300 C   0  0  0  0  0  2  0  0  0  0  0  0
  195.5490  176.3480  135.8940 O   0  0  0  0  0  1  0  0  0  0  0  0
  194.2110  175.9570  135.8850 C   0  0  0  0  0  2  0  0  0  0  0  0
  185.8610  178.8390  143.4060 C   0  0  0  0  0  2  0  0  0  0  0  0
  185.5130  177.8720  144.5420 C   0  0  0  0  0  2  0  0  0  0  0  0
  186.7590  177.1330  144.9970 C   0  0  0  0  0  2  0  0  0  0  0  0
  186.8040  178.3030  147.2040 C   0  0  0  0  0  1  0  0  0  0  0  0
  187.5880  177.9950  145.9400 C   0  0  1  0  0  3  0  0  0  0  0  0
  188.9870  176.6510  147.2950 O   0  0  0  0  0  0  0  0  0  0  0  0
  188.8780  177.3160  146.2750 C   0  0  0  0  0  0  0  0  0  0  0  0
  190.1610  176.3220  143.9330 O   0  0  0  0  0  0  0  0  0  0  0  0
  190.2820  178.8590  144.5610 O   0  0  0  0  0  1  0  0  0  0  0  0
  190.2750  177.4740  145.1660 P   0  0  0  0  0  0  0  0  0  0  0  0
  191.7080  177.2300  146.0300 O   0  0  0  0  0  1  0  0  0  0  0  0
  2  1  1  6  0  0  0
  2  7  1  0  0  0  0
  3 17  1  0  0  0  0
  3 14  1  6  0  0  0
  4 14  2  0  0  0  0
  5  1  1  0  0  0  0
  6 17  1  0  0  0  0
  8 21  1  6  0  0  0
  8 18  1  0  0  0  0
  9 10  2  0  0  0  0
 10  4  1  0  0  0  0
 11  9  1  6  0  0  0
 11  3  1  0  0  0  0
 12  5  1  0  0  0  0
 13 11  1  0  0  0  0
 13  6  2  0  0  0  0
 14 16  1  0  0  0  0
 15 16  1  6  0  0  0
 15  2  1  0  0  0  0
 15  8  1  0  0  0  0
 17 12  1  6  0  0  0
 18  7  1  0  0  0  0
 18 37  1  0  0  0  0
 19 21  1  0  0  0  0
 21 20  2  0  0  0  0
 22 23  1  0  0  0  0
 22 19  2  0  0  0  0
 23 24  2  0  0  0  0
 24 20  1  0  0  0  0
 25 26  1  0  0  0  0
 25 23  1  0  0  0  0
 27 29  2  0  0  0  0
 28 29  1  0  0  0  0
 29 26  1  0  0  0  0
 31 32  1  0  0  0  0
 32  6  1  0  0  0  0
 32 30  2  0  0  0  0
 33 31  1  0  0  0  0
 33 34  1  0  0  0  0
 36 35  1  0  0  0  0
 36 34  1  0  0  0  0
 37 38  1  0  0  0  0
 38 39  1  0  0  0  0
 39 41  1  0  0  0  0
 41 43  1  0  0  0  0
 41 40  1  1  0  0  0
 43 42  2  0  0  0  0
 44 46  2  0  0  0  0
 45 46  1  0  0  0  0
 46 47  1  0  0  0  0
 46 43  1  0  0  0  0
M  END
>  <MODEL>
1

>  <REMARK>
 VINA RESULT:      -6.5      0.000      0.000
  Name = 
  14 active torsions:
  status: ('A' for Active; 'I' for Inactive)
    1  A    between atoms: N_9  and  C_14
    2  A    between atoms: C_10  and  C_14
    3  A    between atoms: C_10  and  C_47
    4  A    between atoms: C_13  and  C_39
    5  A    between atoms: C_16  and  C_26
    6  A    between atoms: C_22  and  C_34
    7  A    between atoms: C_22  and  C_36
    8  A    between atoms: C_23  and  C_24
    9  A    between atoms: C_24  and  O_30
   10  A    between atoms: C_27  and  C_34
   11  A    between atoms: C_27  and  P_40
   12  A    between atoms: O_30  and  C_32
   13  A    between atoms: C_36  and  C_37
   14  A    between atoms: C_37  and  N_46
                            x       y       z     vdW  Elec       q    Type
                         _______ _______ _______ _____ _____    ______ ____

>  <TORSDO>
F 14

$$$$
=
 OpenBabel11032420563D

 47 51  0  0  1  0  0  0  0  0999 V2000
  185.9390  177.1990  135.1480 C   0  0  0  0  0  2  0  0  0  0  0  0
  187.2960  177.5660  135.7630 C   0  0  2  0  0  3  0  0  0  0  0  0
  183.8790  176.9880  138.4500 C   0  0  2  0  0  3  0  0  0  0  0  0
  184.9240  179.1240  138.8500 C   0  0  0  0  0  3  0  0  0  0  0  0
  185.2670  176.0010  135.8120 C   0  0  0  0  0  2  0  0  0  0  0  0
  181.9500  176.0570  137.8180 C   0  0  0  0  0  0  0  0  0  0  0  0
  188.2970  176.4240  135.7790 C   0  0  0  0  0  2  0  0  0  0  0  0
  188.6980  177.8250  137.6300 C   0  0  2  0  0  3  0  0  0  0  0  0
  182.6380  178.7160  139.6750 C   0  0  0  0  0  3  0  0  0  0  0  0
  183.6270  179.5860  139.4050 C   0  0  0  0  0  3  0  0  0  0  0  0
  182.8460  177.2280  139.5040 C   0  0  1  0  0  3  0  0  0  0  0  0
  183.7960  176.3190  135.9990 C   0  0  0  0  0  2  0  0  0  0  0  0
  181.6580  176.5890  138.9590 N   0  0  0  0  0  0  0  0  0  0  0  0
  185.0540  177.8720  138.3900 C   0  0  0  0  0  0  0  0  0  0  0  0
  187.2710  178.1140  137.1820 C   0  0  2  0  0  3  0  0  0  0  0  0
  186.3210  177.3560  137.9870 N   0  0  0  0  0  2  0  0  0  0  0  0
  183.3400  176.3060  137.4350 C   0  0  1  0  0  3  0  0  0  0  0  0
  189.1480  176.6020  136.9570 N   0  0  0  0  0  0  0  0  0  0  0  0
  188.1680  178.6540  139.9290 C   0  0  0  0  0  3  0  0  0  0  0  0
  189.7340  176.8220  139.7140 C   0  0  0  0  0  3  0  0  0  0  0  0
  188.8880  177.7700  139.1200 C   0  0  0  0  0  0  0  0  0  0  0  0
  188.3000  178.6030  141.3190 C   0  0  0  0  0  3  0  0  0  0  0  0
  189.1510  177.6580  141.9150 C   0  0  0  0  0  0  0  0  0  0  0  0
  189.8660  176.7700  141.1050 C   0  0  0  0  0  3  0  0  0  0  0  0
  189.3030  177.5810  143.3020 O   0  0  0  0  0  0  0  0  0  0  0  0
  190.1700  176.6440  143.9280 C   0  0  0  0  0  2  0  0  0  0  0  0
  191.6740  178.4670  144.2160 O   0  0  0  0  0  0  0  0  0  0  0  0
  191.8050  176.8130  145.7980 O   0  0  0  0  0  1  0  0  0  0  0  0
  191.2440  177.3690  144.6560 C   0  0  0  0  0  0  0  0  0  0  0  0
  179.8790  175.9010  136.6710 O   0  0  0  0  0  0  0  0  0  0  0  0
  181.2070  173.9870  136.6140 N   0  0  0  0  0  2  0  0  0  0  0  0
  180.9510  175.3340  137.0140 C   0  0  0  0  0  0  0  0  0  0  0  0
  180.2680  173.2310  135.7990 C   0  0  0  0  0  2  0  0  0  0  0  0
  180.6460  171.7610  135.8000 C   0  0  0  0  0  2  0  0  0  0  0  0
  182.6350  170.4700  135.9710 O   0  0  0  0  0  1  0  0  0  0  0  0
  181.9610  171.5560  136.5280 C   0  0  0  0  0  2  0  0  0  0  0  0
  190.5500  176.7290  136.5440 C   0  0  0  0  0  2  0  0  0  0  0  0
  191.2030  175.3960  136.1690 C   0  0  0  0  0  2  0  0  0  0  0  0
  191.7310  174.7060  137.4150 C   0  0  0  0  0  2  0  0  0  0  0  0
  193.5070  174.2450  135.7200 C   0  0  0  0  0  1  0  0  0  0  0  0
  193.1500  174.2000  137.1950 C   0  0  1  0  0  3  0  0  0  0  0  0
  193.9270  176.1910  138.2090 O   0  0  0  0  0  0  0  0  0  0  0  0
  194.1250  175.0040  137.9950 C   0  0  0  0  0  0  0  0  0  0  0  0
  196.1600  175.0840  139.9890 O   0  0  0  0  0  1  0  0  0  0  0  0
  195.2610  172.8040  139.0720 O   0  0  0  0  0  1  0  0  0  0  0  0
  195.5930  174.2170  138.6510 P   0  0  0  0  0  0  0  0  0  0  0  0
  196.7920  174.1810  137.4580 O   0  0  0  0  0  0  0  0  0  0  0  0
  1  5  1  0  0  0  0
  2  1  1  1  0  0  0
  2  7  1  0  0  0  0
  2 15  1  0  0  0  0
  3 14  1  6  0  0  0
  3 11  1  0  0  0  0
  4 10  1  0  0  0  0
  5 12  1  0  0  0  0
  6 13  2  0  0  0  0
  7 18  1  0  0  0  0
  8 21  1  1  0  0  0
 10  9  2  0  0  0  0
 11  9  1  6  0  0  0
 13 11  1  0  0  0  0
 14  4  2  0  0  0  0
 15  8  1  0  0  0  0
 15 16  1  1  0  0  0
 16 14  1  0  0  0  0
 17 12  1  6  0  0  0
 17  6  1  0  0  0  0
 17  3  1  0  0  0  0
 18  8  1  0  0  0  0
 19 22  1  0  0  0  0
 20 24  2  0  0  0  0
 21 20  1  0  0  0  0
 21 19  2  0  0  0  0
 22 23  2  0  0  0  0
 23 25  1  0  0  0  0
 24 23  1  0  0  0  0
 25 26  1  0  0  0  0
 26 29  1  0  0  0  0
 27 29  2  0  0  0  0
 29 28  1  0  0  0  0
 30 32  2  0  0  0  0
 31 32  1  0  0  0  0
 32  6  1  0  0  0  0
 33 34  1  0  0  0  0
 33 31  1  0  0  0  0
 34 36  1  0  0  0  0
 35 36  1  0  0  0  0
 37 18  1  0  0  0  0
 38 37  1  0  0  0  0
 38 39  1  0  0  0  0
 41 40  1  6  0  0  0
 41 39  1  0  0  0  0
 41 43  1  0  0  0  0
 43 42  2  0  0  0  0
 43 46  1  0  0  0  0
 46 45  1  0  0  0  0
 46 44  1  0  0  0  0
 47 46  2  0  0  0  0
M  END
>  <MODEL>
2

>  <REMARK>
 VINA RESULT:      -6.4      2.885      8.927
  Name = 
  14 active torsions:
  status: ('A' for Active; 'I' for Inactive)
    1  A    between atoms: N_9  and  C_14
    2  A    between atoms: C_10  and  C_14
    3  A    between atoms: C_10  and  C_47
    4  A    between atoms: C_13  and  C_39
    5  A    between atoms: C_16  and  C_26
    6  A    between atoms: C_22  and  C_34
    7  A    between atoms: C_22  and  C_36
    8  A    between atoms: C_23  and  C_24
    9  A    between atoms: C_24  and  O_30
   10  A    between atoms: C_27  and  C_34
   11  A    between atoms: C_27  and  P_40
   12  A    between atoms: O_30  and  C_32
   13  A    between atoms: C_36  and  C_37
   14  A    between atoms: C_37  and  N_46
                            x       y       z     vdW  Elec       q    Type
                         _______ _______ _______ _____ _____    ______ ____

>  <TORSDO>
F 14

$$$$
=
 OpenBabel11032420563D

 47 51  0  0  1  0  0  0  0  0999 V2000
  190.6720  177.3760  139.9950 C   0  0  0  0  0  2  0  0  0  0  0  0
  189.6480  178.0770  140.8980 C   0  0  2  0  0  3  0  0  0  0  0  0
  188.2640  176.4070  137.0870 C   0  0  2  0  0  3  0  0  0  0  0  0
  187.6290  178.7260  137.2800 C   0  0  0  0  0  3  0  0  0  0  0  0
  190.2220  176.0020  139.5080 C   0  0  0  0  0  2  0  0  0  0  0  0
  189.4740  175.0070  135.8360 C   0  0  0  0  0  0  0  0  0  0  0  0
  189.2390  177.2650  142.1150 C   0  0  0  0  0  2  0  0  0  0  0  0
  187.4290  178.6160  141.4480 C   0  0  2  0  0  3  0  0  0  0  0  0
  187.6160  177.6430  135.0670 C   0  0  0  0  0  3  0  0  0  0  0  0
  187.5720  178.7710  135.7970 C   0  0  0  0  0  3  0  0  0  0  0  0
  187.6380  176.2870  135.7340 C   0  0  1  0  0  3  0  0  0  0  0  0
  190.5640  175.8810  138.0340 C   0  0  0  0  0  2  0  0  0  0  0  0
  188.5260  175.3690  135.0360 N   0  0  0  0  0  0  0  0  0  0  0  0
  187.9600  177.5900  137.9090 C   0  0  0  0  0  0  0  0  0  0  0  0
  188.3500  178.5150  140.2380 C   0  0  2  0  0  3  0  0  0  0  0  0
  187.8820  177.4760  139.3280 N   0  0  0  0  0  2  0  0  0  0  0  0
  189.3700  175.6590  137.1410 C   0  0  1  0  0  3  0  0  0  0  0  0
  187.8510  177.6090  142.4270 N   0  0  0  0  0  0  0  0  0  0  0  0
  185.0770  178.0890  142.1160 C   0  0  0  0  0  3  0  0  0  0  0  0
  185.4620  178.9360  139.8820 C   0  0  0  0  0  3  0  0  0  0  0  0
  185.9620  178.5330  141.1280 C   0  0  0  0  0  0  0  0  0  0  0  0
  183.7050  178.0330  141.8570 C   0  0  0  0  0  3  0  0  0  0  0  0
  183.2030  178.4300  140.6070 C   0  0  0  0  0  0  0  0  0  0  0  0
  184.0890  178.8810  139.6230 C   0  0  0  0  0  3  0  0  0  0  0  0
  181.8360  178.3880  140.3190 O   0  0  0  0  0  0  0  0  0  0  0  0
  181.1120  177.1690  140.2130 C   0  0  0  0  0  2  0  0  0  0  0  0
  179.5570  178.3130  141.6070 O   0  0  0  0  0  1  0  0  0  0  0  0
  179.2310  176.0530  141.4020 O   0  0  0  0  0  0  0  0  0  0  0  0
  179.9190  177.2200  141.0990 C   0  0  0  0  0  0  0  0  0  0  0  0
  190.3000  172.8430  135.3220 O   0  0  0  0  0  0  0  0  0  0  0  0
  191.8370  174.5830  135.1120 N   0  0  0  0  0  2  0  0  0  0  0  0
  190.5360  174.0770  135.4190 C   0  0  0  0  0  0  0  0  0  0  0  0
  192.9190  173.7150  134.6720 C   0  0  0  0  0  2  0  0  0  0  0  0
  194.0620  173.7630  135.6690 C   0  0  0  0  0  2  0  0  0  0  0  0
  194.8980  175.8780  136.3640 O   0  0  0  0  0  1  0  0  0  0  0  0
  193.8920  174.9440  136.6070 C   0  0  0  0  0  2  0  0  0  0  0  0
  187.7670  178.1510  143.7890 C   0  0  0  0  0  2  0  0  0  0  0  0
  188.2150  177.1640  144.8700 C   0  0  0  0  0  2  0  0  0  0  0  0
  187.7470  177.6380  146.2350 C   0  0  0  0  0  2  0  0  0  0  0  0
  188.4590  178.4700  148.4810 C   0  0  0  0  0  1  0  0  0  0  0  0
  188.9310  177.8940  147.1560 C   0  0  1  0  0  3  0  0  0  0  0  0
  189.1460  175.6160  147.7550 O   0  0  0  0  0  0  0  0  0  0  0  0
  189.7060  176.6350  147.3790 C   0  0  0  0  0  0  0  0  0  0  0  0
  191.9940  175.0320  146.8140 O   0  0  0  0  0  1  0  0  0  0  0  0
  191.7870  177.4650  145.8730 O   0  0  0  0  0  0  0  0  0  0  0  0
  191.4720  176.6190  147.0850 P   0  0  0  0  0  0  0  0  0  0  0  0
  192.2730  177.2490  148.4350 O   0  0  0  0  0  1  0  0  0  0  0  0
  2  1  1  6  0  0  0
  2  7  1  0  0  0  0
  3 17  1  0  0  0  0
  3 14  1  6  0  0  0
  4 14  2  0  0  0  0
  5  1  1  0  0  0  0
  6 17  1  0  0  0  0
  7 18  1  0  0  0  0
  8 21  1  6  0  0  0
  8 18  1  0  0  0  0
  9 10  2  0  0  0  0
 10  4  1  0  0  0  0
 11  9  1  6  0  0  0
 11  3  1  0  0  0  0
 12  5  1  0  0  0  0
 13 11  1  0  0  0  0
 13  6  2  0  0  0  0
 14 16  1  0  0  0  0
 15 16  1  6  0  0  0
 15  2  1  0  0  0  0
 15  8  1  0  0  0  0
 17 12  1  6  0  0  0
 18 37  1  0  0  0  0
 20 21  1  0  0  0  0
 21 19  2  0  0  0  0
 22 19  1  0  0  0  0
 23 22  2  0  0  0  0
 24 20  2  0  0  0  0
 24 23  1  0  0  0  0
 25 23  1  0  0  0  0
 26 25  1  0  0  0  0
 26 29  1  0  0  0  0
 29 28  2  0  0  0  0
 29 27  1  0  0  0  0
 30 32  2  0  0  0  0
 31 32  1  0  0  0  0
 32  6  1  0  0  0  0
 33 31  1  0  0  0  0
 33 34  1  0  0  0  0
 34 36  1  0  0  0  0
 35 36  1  0  0  0  0
 37 38  1  0  0  0  0
 38 39  1  0  0  0  0
 39 41  1  0  0  0  0
 41 43  1  0  0  0  0
 41 40  1  1  0  0  0
 43 42  2  0  0  0  0
 44 46  1  0  0  0  0
 45 46  2  0  0  0  0
 46 43  1  0  0  0  0
 46 47  1  0  0  0  0
M  END
>  <MODEL>
3

>  <REMARK>
 VINA RESULT:      -6.3      1.591      2.040
  Name = 
  14 active torsions:
  status: ('A' for Active; 'I' for Inactive)
    1  A    between atoms: N_9  and  C_14
    2  A    between atoms: C_10  and  C_14
    3  A    between atoms: C_10  and  C_47
    4  A    between atoms: C_13  and  C_39
    5  A    between atoms: C_16  and  C_26
    6  A    between atoms: C_22  and  C_34
    7  A    between atoms: C_22  and  C_36
    8  A    between atoms: C_23  and  C_24
    9  A    between atoms: C_24  and  O_30
   10  A    between atoms: C_27  and  C_34
   11  A    between atoms: C_27  and  P_40
   12  A    between atoms: O_30  and  C_32
   13  A    between atoms: C_36  and  C_37
   14  A    between atoms: C_37  and  N_46
                            x       y       z     vdW  Elec       q    Type
                         _______ _______ _______ _____ _____    ______ ____

>  <TORSDO>
F 14

$$$$
=
 OpenBabel11032420563D

 47 51  0  0  1  0  0  0  0  0999 V2000
  186.5980  177.3190  135.1300 C   0  0  0  0  0  2  0  0  0  0  0  0
  187.8270  177.7060  135.9630 C   0  0  2  0  0  3  0  0  0  0  0  0
  184.0600  176.9040  138.0600 C   0  0  2  0  0  3  0  0  0  0  0  0
  184.9440  179.0560  138.6930 C   0  0  0  0  0  3  0  0  0  0  0  0
  185.8790  176.0730  135.6390 C   0  0  0  0  0  2  0  0  0  0  0  0
  182.2910  175.9360  137.1000 C   0  0  0  0  0  0  0  0  0  0  0  0
  188.8580  176.5990  136.0960 C   0  0  0  0  0  2  0  0  0  0  0  0
  188.9110  177.9370  138.0340 C   0  0  2  0  0  3  0  0  0  0  0  0
  182.5760  178.5380  139.1340 C   0  0  0  0  0  3  0  0  0  0  0  0
  183.5600  179.4520  139.0530 C   0  0  0  0  0  3  0  0  0  0  0  0
  182.8670  177.0670  138.9470 C   0  0  1  0  0  3  0  0  0  0  0  0
  184.3850  176.3340  135.6040 C   0  0  0  0  0  2  0  0  0  0  0  0
  181.8050  176.4100  138.2000 N   0  0  0  0  0  0  0  0  0  0  0  0
  185.1940  177.8300  138.2160 C   0  0  0  0  0  0  0  0  0  0  0  0
  187.5600  178.1950  137.3780 C   0  0  2  0  0  3  0  0  0  0  0  0
  186.5280  177.3730  137.9980 N   0  0  0  0  0  2  0  0  0  0  0  0
  183.7120  176.2470  136.9500 C   0  0  1  0  0  3  0  0  0  0  0  0
  189.5080  176.7580  137.3980 N   0  0  0  0  0  0  0  0  0  0  0  0
  189.7070  176.9050  140.1690 C   0  0  0  0  0  3  0  0  0  0  0  0
  188.0470  178.6610  140.3040 C   0  0  0  0  0  3  0  0  0  0  0  0
  188.8700  177.8270  139.5330 C   0  0  0  0  0  0  0  0  0  0  0  0
  189.7130  176.8050  141.5620 C   0  0  0  0  0  3  0  0  0  0  0  0
  188.8850  177.6340  142.3360 C   0  0  0  0  0  0  0  0  0  0  0  0
  188.0540  178.5610  141.6990 C   0  0  0  0  0  3  0  0  0  0  0  0
  188.8710  177.5590  143.7310 O   0  0  0  0  0  0  0  0  0  0  0  0
  189.8680  178.1660  144.5430 C   0  0  0  0  0  2  0  0  0  0  0  0
  191.5500  176.4910  144.7270 O   0  0  0  0  0  0  0  0  0  0  0  0
  190.2420  176.7930  146.5860 O   0  0  0  0  0  1  0  0  0  0  0  0
  190.6120  177.1160  145.2870 C   0  0  0  0  0  0  0  0  0  0  0  0
  180.8340  175.8430  135.2300 O   0  0  0  0  0  0  0  0  0  0  0  0
  181.3690  173.7880  136.1910 N   0  0  0  0  0  2  0  0  0  0  0  0
  181.4580  175.2130  136.1250 C   0  0  0  0  0  0  0  0  0  0  0  0
  180.5820  173.0190  135.2410 C   0  0  0  0  0  2  0  0  0  0  0  0
  181.1060  171.5960  135.1620 C   0  0  0  0  0  2  0  0  0  0  0  0
  183.0620  170.5320  135.9960 O   0  0  0  0  0  1  0  0  0  0  0  0
  181.9500  171.2790  136.3820 C   0  0  0  0  0  2  0  0  0  0  0  0
  190.9520  176.9490  137.2140 C   0  0  0  0  0  2  0  0  0  0  0  0
  191.7660  175.6610  137.3670 C   0  0  0  0  0  2  0  0  0  0  0  0
  193.2200  175.9180  137.0100 C   0  0  0  0  0  2  0  0  0  0  0  0
  193.7310  174.0150  135.4750 C   0  0  0  0  0  1  0  0  0  0  0  0
  193.9790  174.6090  136.8510 C   0  0  1  0  0  3  0  0  0  0  0  0
  196.0830  175.5670  136.3510 O   0  0  0  0  0  0  0  0  0  0  0  0
  195.4430  174.8190  137.0740 C   0  0  0  0  0  0  0  0  0  0  0  0
  197.6390  173.1730  137.8440 O   0  0  0  0  0  0  0  0  0  0  0  0
  196.6710  174.9760  139.4740 O   0  0  0  0  0  1  0  0  0  0  0  0
  196.2630  173.9710  138.4210 P   0  0  0  0  0  0  0  0  0  0  0  0
  195.2050  172.8420  139.1020 O   0  0  0  0  0  1  0  0  0  0  0  0
  1  5  1  0  0  0  0
  2  1  1  1  0  0  0
  2  7  1  0  0  0  0
  2 15  1  0  0  0  0
  3 14  1  6  0  0  0
  3 11  1  0  0  0  0
  4 10  1  0  0  0  0
  6 13  2  0  0  0  0
  7 18  1  0  0  0  0
  8 21  1  1  0  0  0
 10  9  2  0  0  0  0
 11  9  1  6  0  0  0
 12  5  1  0  0  0  0
 13 11  1  0  0  0  0
 14  4  2  0  0  0  0
 15 16  1  1  0  0  0
 15  8  1  0  0  0  0
 16 14  1  0  0  0  0
 17 12  1  6  0  0  0
 17  6  1  0  0  0  0
 17  3  1  0  0  0  0
 18  8  1  0  0  0  0
 19 22  1  0  0  0  0
 20 24  2  0  0  0  0
 21 19  2  0  0  0  0
 21 20  1  0  0  0  0
 22 23  2  0  0  0  0
 23 25  1  0  0  0  0
 24 23  1  0  0  0  0
 25 26  1  0  0  0  0
 26 29  1  0  0  0  0
 27 29  2  0  0  0  0
 29 28  1  0  0  0  0
 30 32  2  0  0  0  0
 32 31  1  0  0  0  0
 32  6  1  0  0  0  0
 33 31  1  0  0  0  0
 34 33  1  0  0  0  0
 34 36  1  0  0  0  0
 35 36  1  0  0  0  0
 37 38  1  0  0  0  0
 37 18  1  0  0  0  0
 39 38  1  0  0  0  0
 41 40  1  6  0  0  0
 41 39  1  0  0  0  0
 41 43  1  0  0  0  0
 42 43  2  0  0  0  0
 43 46  1  0  0  0  0
 44 46  2  0  0  0  0
 46 47  1  0  0  0  0
 46 45  1  0  0  0  0
M  END
>  <MODEL>
4

>  <REMARK>
 VINA RESULT:      -6.0      2.995      8.934
  Name = 
  14 active torsions:
  status: ('A' for Active; 'I' for Inactive)
    1  A    between atoms: N_9  and  C_14
    2  A    between atoms: C_10  and  C_14
    3  A    between atoms: C_10  and  C_47
    4  A    between atoms: C_13  and  C_39
    5  A    between atoms: C_16  and  C_26
    6  A    between atoms: C_22  and  C_34
    7  A    between atoms: C_22  and  C_36
    8  A    between atoms: C_23  and  C_24
    9  A    between atoms: C_24  and  O_30
   10  A    between atoms: C_27  and  C_34
   11  A    between atoms: C_27  and  P_40
   12  A    between atoms: O_30  and  C_32
   13  A    between atoms: C_36  and  C_37
   14  A    between atoms: C_37  and  N_46
                            x       y       z     vdW  Elec       q    Type
                         _______ _______ _______ _____ _____    ______ ____

>  <TORSDO>
F 14

$$$$
=
 OpenBabel11032420563D

 47 51  0  0  1  0  0  0  0  0999 V2000
  191.1730  177.0490  139.1680 C   0  0  0  0  0  2  0  0  0  0  0  0
  190.4210  177.9150  140.1880 C   0  0  2  0  0  3  0  0  0  0  0  0
  188.0820  175.6990  137.2140 C   0  0  2  0  0  3  0  0  0  0  0  0
  187.4880  178.0360  137.1940 C   0  0  0  0  0  3  0  0  0  0  0  0
  190.6300  175.6290  139.0490 C   0  0  0  0  0  2  0  0  0  0  0  0
  188.9290  174.0820  135.9270 C   0  0  0  0  0  0  0  0  0  0  0  0
  190.3710  177.3200  141.5840 C   0  0  0  0  0  2  0  0  0  0  0  0
  188.4260  178.6000  141.2210 C   0  0  2  0  0  3  0  0  0  0  0  0
  186.8920  176.6130  135.2720 C   0  0  0  0  0  3  0  0  0  0  0  0
  187.0300  177.8450  135.7940 C   0  0  0  0  0  3  0  0  0  0  0  0
  187.1150  175.3820  136.1190 C   0  0  1  0  0  3  0  0  0  0  0  0
  190.5600  175.2640  137.5780 C   0  0  0  0  0  2  0  0  0  0  0  0
  187.7940  174.3390  135.3650 N   0  0  0  0  0  0  0  0  0  0  0  0
  187.9940  177.0060  137.8850 C   0  0  0  0  0  0  0  0  0  0  0  0
  188.9860  178.2800  139.8410 C   0  0  2  0  0  3  0  0  0  0  0  0
  188.3060  177.1220  139.2720 N   0  0  0  0  0  2  0  0  0  0  0  0
  189.1730  174.9370  137.0890 C   0  0  1  0  0  3  0  0  0  0  0  0
  189.1140  177.7510  142.2000 N   0  0  0  0  0  0  0  0  0  0  0  0
  186.3630  177.9660  142.4840 C   0  0  0  0  0  3  0  0  0  0  0  0
  186.0950  179.0030  140.3140 C   0  0  0  0  0  3  0  0  0  0  0  0
  186.9300  178.5100  141.3270 C   0  0  0  0  0  0  0  0  0  0  0  0
  184.9740  177.9000  142.6240 C   0  0  0  0  0  3  0  0  0  0  0  0
  184.1370  178.3870  141.6080 C   0  0  0  0  0  0  0  0  0  0  0  0
  184.7050  178.9380  140.4540 C   0  0  0  0  0  3  0  0  0  0  0  0
  182.7450  178.3370  141.7190 O   0  0  0  0  0  0  0  0  0  0  0  0
  181.8800  178.4790  140.5990 C   0  0  0  0  0  2  0  0  0  0  0  0
  180.1290  176.8730  140.4550 O   0  0  0  0  0  1  0  0  0  0  0  0
  182.1650  176.1960  139.6470 O   0  0  0  0  0  0  0  0  0  0  0  0
  181.3340  177.1490  140.2200 C   0  0  0  0  0  0  0  0  0  0  0  0
  189.4200  171.9390  135.0360 O   0  0  0  0  0  0  0  0  0  0  0  0
  191.2440  173.3700  135.2770 N   0  0  0  0  0  2  0  0  0  0  0  0
  189.8530  173.0660  135.3950 C   0  0  0  0  0  0  0  0  0  0  0  0
  192.1990  172.4150  134.7360 C   0  0  0  0  0  2  0  0  0  0  0  0
  193.6090  172.8030  135.1440 C   0  0  0  0  0  2  0  0  0  0  0  0
  194.5930  173.0160  137.2980 O   0  0  0  0  0  1  0  0  0  0  0  0
  193.9960  172.1010  136.4330 C   0  0  0  0  0  2  0  0  0  0  0  0
  189.3930  178.5060  143.4280 C   0  0  0  0  0  2  0  0  0  0  0  0
  189.8740  177.6310  144.5890 C   0  0  0  0  0  2  0  0  0  0  0  0
  188.7020  176.8760  145.1930 C   0  0  0  0  0  2  0  0  0  0  0  0
  190.1980  177.1280  147.1780 C   0  0  0  0  0  1  0  0  0  0  0  0
  188.7710  176.8930  146.7130 C   0  0  1  0  0  3  0  0  0  0  0  0
  188.2050  178.6260  148.2210 O   0  0  0  0  0  0  0  0  0  0  0  0
  187.8610  177.9420  147.2690 C   0  0  0  0  0  0  0  0  0  0  0  0
  185.1310  178.6280  147.7190 O   0  0  0  0  0  1  0  0  0  0  0  0
  186.3440  179.3110  145.5030 O   0  0  0  0  0  0  0  0  0  0  0  0
  186.2530  178.2010  146.5260 P   0  0  0  0  0  0  0  0  0  0  0  0
  185.7480  176.7770  145.7660 O   0  0  0  0  0  1  0  0  0  0  0  0
  2  1  1  6  0  0  0
  2  7  1  0  0  0  0
  3 14  1  6  0  0  0
  4 14  2  0  0  0  0
  5  1  1  0  0  0  0
  6 17  1  0  0  0  0
  7 18  1  0  0  0  0
  8 21  1  6  0  0  0
  8 18  1  0  0  0  0
  9 10  2  0  0  0  0
 10  4  1  0  0  0  0
 11  9  1  6  0  0  0
 11  3  1  0  0  0  0
 12  5  1  0  0  0  0
 13  6  2  0  0  0  0
 13 11  1  0  0  0  0
 14 16  1  0  0  0  0
 15 16  1  1  0  0  0
 15  2  1  0  0  0  0
 15  8  1  0  0  0  0
 17  3  1  0  0  0  0
 17 12  1  6  0  0  0
 18 37  1  0  0  0  0
 19 22  1  0  0  0  0
 20 24  2  0  0  0  0
 20 21  1  0  0  0  0
 21 19  2  0  0  0  0
 23 25  1  0  0  0  0
 23 22  2  0  0  0  0
 24 23  1  0  0  0  0
 26 25  1  0  0  0  0
 28 29  2  0  0  0  0
 29 27  1  0  0  0  0
 29 26  1  0  0  0  0
 30 32  2  0  0  0  0
 31 32  1  0  0  0  0
 32  6  1  0  0  0  0
 33 34  1  0  0  0  0
 33 31  1  0  0  0  0
 34 36  1  0  0  0  0
 36 35  1  0  0  0  0
 37 38  1  0  0  0  0
 38 39  1  0  0  0  0
 39 41  1  0  0  0  0
 41 40  1  6  0  0  0
 41 43  1  0  0  0  0
 43 42  2  0  0  0  0
 45 46  2  0  0  0  0
 46 43  1  0  0  0  0
 46 44  1  0  0  0  0
 47 46  1  0  0  0  0
M  END
>  <MODEL>
5

>  <REMARK>
 VINA RESULT:      -5.8      2.132      2.916
  Name = 
  14 active torsions:
  status: ('A' for Active; 'I' for Inactive)
    1  A    between atoms: N_9  and  C_14
    2  A    between atoms: C_10  and  C_14
    3  A    between atoms: C_10  and  C_47
    4  A    between atoms: C_13  and  C_39
    5  A    between atoms: C_16  and  C_26
    6  A    between atoms: C_22  and  C_34
    7  A    between atoms: C_22  and  C_36
    8  A    between atoms: C_23  and  C_24
    9  A    between atoms: C_24  and  O_30
   10  A    between atoms: C_27  and  C_34
   11  A    between atoms: C_27  and  P_40
   12  A    between atoms: O_30  and  C_32
   13  A    between atoms: C_36  and  C_37
   14  A    between atoms: C_37  and  N_46
                            x       y       z     vdW  Elec       q    Type
                         _______ _______ _______ _____ _____    ______ ____

>  <TORSDO>
F 14

$$$$
=
 OpenBabel11032420563D

 47 51  0  0  1  0  0  0  0  0999 V2000
  186.6740  178.6240  138.3130 C   0  0  0  0  0  2  0  0  0  0  0  0
  188.1070  178.4760  138.8400 C   0  0  2  0  0  3  0  0  0  0  0  0
  184.7940  178.1110  141.6890 C   0  0  2  0  0  3  0  0  0  0  0  0
  186.3910  179.7500  142.4480 C   0  0  0  0  0  3  0  0  0  0  0  0
  185.7380  177.5040  138.7560 C   0  0  0  0  0  2  0  0  0  0  0  0
  182.6570  177.8790  141.0800 C   0  0  0  0  0  0  0  0  0  0  0  0
  188.7650  177.1540  138.4820 C   0  0  0  0  0  2  0  0  0  0  0  0
  189.6160  177.9020  140.5480 C   0  0  2  0  0  3  0  0  0  0  0  0
  184.1220  179.7300  143.4070 C   0  0  0  0  0  3  0  0  0  0  0  0
  185.2940  180.3670  143.2350 C   0  0  0  0  0  3  0  0  0  0  0  0
  183.9140  178.3290  142.8790 C   0  0  1  0  0  3  0  0  0  0  0  0
  184.4170  178.1210  139.1740 C   0  0  0  0  0  2  0  0  0  0  0  0
  182.5740  178.1630  142.3370 N   0  0  0  0  0  0  0  0  0  0  0  0
  186.1580  178.6620  141.7020 C   0  0  0  0  0  0  0  0  0  0  0  0
  188.2980  178.6400  140.3400 C   0  0  2  0  0  3  0  0  0  0  0  0
  187.2190  177.9650  141.0520 N   0  0  0  0  0  2  0  0  0  0  0  0
  184.0430  177.8620  140.6110 C   0  0  1  0  0  3  0  0  0  0  0  0
  189.6870  176.8140  139.5670 N   0  0  0  0  0  0  0  0  0  0  0  0
  189.9210  178.3730  142.9850 C   0  0  0  0  0  3  0  0  0  0  0  0
  189.9650  176.0660  142.2580 C   0  0  0  0  0  3  0  0  0  0  0  0
  189.8550  177.4300  141.9540 C   0  0  0  0  0  0  0  0  0  0  0  0
  190.1100  177.9600  144.3060 C   0  0  0  0  0  3  0  0  0  0  0  0
  190.2260  176.5950  144.6120 C   0  0  0  0  0  0  0  0  0  0  0  0
  190.1520  175.6520  143.5800 C   0  0  0  0  0  3  0  0  0  0  0  0
  190.4130  176.1500  145.9230 O   0  0  0  0  0  0  0  0  0  0  0  0
  190.6880  177.0350  147.0010 C   0  0  0  0  0  2  0  0  0  0  0  0
  188.3610  176.7460  147.4170 O   0  0  0  0  0  0  0  0  0  0  0  0
  189.4230  178.2850  148.7440 O   0  0  0  0  0  1  0  0  0  0  0  0
  189.4300  177.3310  147.7360 C   0  0  0  0  0  0  0  0  0  0  0  0
  180.7420  178.6220  139.8930 O   0  0  0  0  0  0  0  0  0  0  0  0
  181.1320  176.3250  139.8360 N   0  0  0  0  0  2  0  0  0  0  0  0
  181.4630  177.6520  140.2490 C   0  0  0  0  0  0  0  0  0  0  0  0
  179.9790  176.0430  138.9960 C   0  0  0  0  0  2  0  0  0  0  0  0
  180.0210  174.6020  138.5210 C   0  0  0  0  0  2  0  0  0  0  0  0
  181.7630  174.2820  136.9340 O   0  0  0  0  0  1  0  0  0  0  0  0
  180.3990  174.5430  137.0520 C   0  0  0  0  0  2  0  0  0  0  0  0
  191.0520  176.6890  139.0390 C   0  0  0  0  0  2  0  0  0  0  0  0
  191.1070  176.1620  137.6020 C   0  0  0  0  0  2  0  0  0  0  0  0
  192.5440  176.1410  137.1100 C   0  0  0  0  0  2  0  0  0  0  0  0
  192.7510  173.6950  136.6460 C   0  0  0  0  0  1  0  0  0  0  0  0
  193.2360  174.8460  137.5110 C   0  0  1  0  0  3  0  0  0  0  0  0
  195.2240  175.6240  136.4910 O   0  0  0  0  0  0  0  0  0  0  0  0
  194.7210  174.9890  137.4060 C   0  0  0  0  0  0  0  0  0  0  0  0
  195.1330  172.7280  139.0920 O   0  0  0  0  0  1  0  0  0  0  0  0
  197.1570  174.0310  138.0680 O   0  0  0  0  0  0  0  0  0  0  0  0
  195.7720  174.2280  138.6390 P   0  0  0  0  0  0  0  0  0  0  0  0
  195.8630  175.2310  139.9980 O   0  0  0  0  0  1  0  0  0  0  0  0
  1  5  1  0  0  0  0
  2  1  1  1  0  0  0
  2 15  1  0  0  0  0
  3 14  1  6  0  0  0
  3 11  1  0  0  0  0
  4 10  1  0  0  0  0
  5 12  1  0  0  0  0
  6 13  2  0  0  0  0
  7  2  1  0  0  0  0
  7 18  1  0  0  0  0
  8 21  1  1  0  0  0
 10  9  2  0  0  0  0
 11  9  1  6  0  0  0
 13 11  1  0  0  0  0
 14  4  2  0  0  0  0
 15  8  1  0  0  0  0
 15 16  1  1  0  0  0
 16 14  1  0  0  0  0
 17 12  1  6  0  0  0
 17  6  1  0  0  0  0
 17  3  1  0  0  0  0
 18  8  1  0  0  0  0
 19 22  1  0  0  0  0
 20 24  2  0  0  0  0
 21 20  1  0  0  0  0
 21 19  2  0  0  0  0
 22 23  2  0  0  0  0
 23 25  1  0  0  0  0
 24 23  1  0  0  0  0
 25 26  1  0  0  0  0
 26 29  1  0  0  0  0
 27 29  2  0  0  0  0
 29 28  1  0  0  0  0
 30 32  2  0  0  0  0
 31 32  1  0  0  0  0
 32  6  1  0  0  0  0
 33 31  1  0  0  0  0
 34 33  1  0  0  0  0
 35 36  1  0  0  0  0
 36 34  1  0  0  0  0
 37 18  1  0  0  0  0
 38 37  1  0  0  0  0
 39 41  1  0  0  0  0
 39 38  1  0  0  0  0
 41 40  1  6  0  0  0
 42 43  2  0  0  0  0
 43 41  1  0  0  0  0
 43 46  1  0  0  0  0
 45 46  2  0  0  0  0
 46 44  1  0  0  0  0
 46 47  1  0  0  0  0
M  END
>  <MODEL>
6

>  <REMARK>
 VINA RESULT:      -5.3      2.520      9.410
  Name = 
  14 active torsions:
  status: ('A' for Active; 'I' for Inactive)
    1  A    between atoms: N_9  and  C_14
    2  A    between atoms: C_10  and  C_14
    3  A    between atoms: C_10  and  C_47
    4  A    between atoms: C_13  and  C_39
    5  A    between atoms: C_16  and  C_26
    6  A    between atoms: C_22  and  C_34
    7  A    between atoms: C_22  and  C_36
    8  A    between atoms: C_23  and  C_24
    9  A    between atoms: C_24  and  O_30
   10  A    between atoms: C_27  and  C_34
   11  A    between atoms: C_27  and  P_40
   12  A    between atoms: O_30  and  C_32
   13  A    between atoms: C_36  and  C_37
   14  A    between atoms: C_37  and  N_46
                            x       y       z     vdW  Elec       q    Type
                         _______ _______ _______ _____ _____    ______ ____

>  <TORSDO>
F 14

$$$$
=
 OpenBabel11032420563D

 47 51  0  0  1  0  0  0  0  0999 V2000
  186.9350  178.6590  137.5810 C   0  0  0  0  0  2  0  0  0  0  0  0
  188.3910  178.5070  138.0400 C   0  0  2  0  0  3  0  0  0  0  0  0
  185.2040  177.8830  140.9860 C   0  0  2  0  0  3  0  0  0  0  0  0
  186.8000  179.5020  141.7910 C   0  0  0  0  0  3  0  0  0  0  0  0
  186.0390  177.4920  137.9840 C   0  0  0  0  0  2  0  0  0  0  0  0
  183.0490  177.6460  140.4480 C   0  0  0  0  0  0  0  0  0  0  0  0
  189.0580  177.2270  137.5680 C   0  0  0  0  0  2  0  0  0  0  0  0
  189.9780  177.8540  139.6440 C   0  0  2  0  0  3  0  0  0  0  0  0
  184.5720  179.3690  142.8360 C   0  0  0  0  0  3  0  0  0  0  0  0
  185.7240  180.0410  142.6610 C   0  0  0  0  0  3  0  0  0  0  0  0
  184.3700  178.0030  142.2220 C   0  0  1  0  0  3  0  0  0  0  0  0
  184.7250  178.0520  138.4950 C   0  0  0  0  0  2  0  0  0  0  0  0
  183.0120  177.8440  141.7240 N   0  0  0  0  0  0  0  0  0  0  0  0
  186.5570  178.4610  140.9830 C   0  0  0  0  0  0  0  0  0  0  0  0
  188.6400  178.5750  139.5390 C   0  0  2  0  0  3  0  0  0  0  0  0
  187.6040  177.8310  140.2460 N   0  0  0  0  0  2  0  0  0  0  0  0
  184.4150  177.6900  139.9250 C   0  0  1  0  0  3  0  0  0  0  0  0
  190.0300  176.8360  138.5900 N   0  0  0  0  0  0  0  0  0  0  0  0
  191.4050  177.7650  141.6960 C   0  0  0  0  0  3  0  0  0  0  0  0
  189.4440  176.3500  141.6120 C   0  0  0  0  0  3  0  0  0  0  0  0
  190.2840  177.2950  141.0060 C   0  0  0  0  0  0  0  0  0  0  0  0
  191.6940  177.2870  142.9770 C   0  0  0  0  0  3  0  0  0  0  0  0
  190.8580  176.3360  143.5840 C   0  0  0  0  0  0  0  0  0  0  0  0
  189.7320  175.8720  142.8940 C   0  0  0  0  0  3  0  0  0  0  0  0
  191.1190  175.8400  144.8640 O   0  0  0  0  0  0  0  0  0  0  0  0
  191.3310  176.6860  145.9860 C   0  0  0  0  0  2  0  0  0  0  0  0
  189.6260  175.9080  147.4540 O   0  0  0  0  0  1  0  0  0  0  0  0
  189.3200  178.0170  146.6080 O   0  0  0  0  0  0  0  0  0  0  0  0
  190.0570  176.8470  146.7360 C   0  0  0  0  0  0  0  0  0  0  0  0
  181.1260  176.4140  139.8070 O   0  0  0  0  0  0  0  0  0  0  0  0
  181.4320  178.4450  138.7060 N   0  0  0  0  0  2  0  0  0  0  0  0
  181.8270  177.4490  139.6510 C   0  0  0  0  0  0  0  0  0  0  0  0
  180.2220  178.3160  137.9080 C   0  0  0  0  0  2  0  0  0  0  0  0
  180.4490  178.8920  136.5220 C   0  0  0  0  0  2  0  0  0  0  0  0
  179.8240  180.8530  137.7130 O   0  0  0  0  0  1  0  0  0  0  0  0
  179.8800  180.2960  136.4360 C   0  0  0  0  0  2  0  0  0  0  0  0
  191.3740  176.7750  138.0020 C   0  0  0  0  0  2  0  0  0  0  0  0
  192.0710  175.4260  138.2030 C   0  0  0  0  0  2  0  0  0  0  0  0
  193.5270  175.5240  137.7820 C   0  0  0  0  0  2  0  0  0  0  0  0
  194.0870  173.8550  136.0090 C   0  0  0  0  0  1  0  0  0  0  0  0
  194.1040  174.1440  137.5010 C   0  0  1  0  0  3  0  0  0  0  0  0
  195.7070  173.5230  139.1270 O   0  0  0  0  0  0  0  0  0  0  0  0
  195.4960  174.0360  138.0380 C   0  0  0  0  0  0  0  0  0  0  0  0
  198.1110  175.1680  138.1020 O   0  0  0  0  0  1  0  0  0  0  0  0
  197.3840  173.5660  136.1660 O   0  0  0  0  0  1  0  0  0  0  0  0
  196.8680  174.6600  137.0720 P   0  0  0  0  0  0  0  0  0  0  0  0
  196.3470  175.9680  136.1350 O   0  0  0  0  0  0  0  0  0  0  0  0
  1  5  1  0  0  0  0
  1  2  1  0  0  0  0
  2  7  1  1  0  0  0
  2 15  1  0  0  0  0
  3 14  1  6  0  0  0
  3 11  1  0  0  0  0
  4 10  1  0  0  0  0
  5 12  1  0  0  0  0
  6 13  2  0  0  0  0
  7 18  1  0  0  0  0
  8 21  1  1  0  0  0
 10  9  2  0  0  0  0
 11  9  1  6  0  0  0
 13 11  1  0  0  0  0
 14  4  2  0  0  0  0
 15  8  1  0  0  0  0
 15 16  1  1  0  0  0
 16 14  1  0  0  0  0
 17 12  1  6  0  0  0
 17  6  1  0  0  0  0
 17  3  1  0  0  0  0
 18  8  1  0  0  0  0
 19 22  1  0  0  0  0
 20 24  2  0  0  0  0
 21 20  1  0  0  0  0
 21 19  2  0  0  0  0
 22 23  2  0  0  0  0
 23 25  1  0  0  0  0
 24 23  1  0  0  0  0
 25 26  1  0  0  0  0
 26 29  1  0  0  0  0
 28 29  2  0  0  0  0
 29 27  1  0  0  0  0
 31 32  1  0  0  0  0
 32 30  2  0  0  0  0
 32  6  1  0  0  0  0
 33 31  1  0  0  0  0
 34 33  1  0  0  0  0
 36 34  1  0  0  0  0
 36 35  1  0  0  0  0
 37 38  1  0  0  0  0
 37 18  1  0  0  0  0
 39 38  1  0  0  0  0
 41 40  1  6  0  0  0
 41 39  1  0  0  0  0
 41 43  1  0  0  0  0
 43 42  2  0  0  0  0
 45 46  1  0  0  0  0
 46 43  1  0  0  0  0
 46 44  1  0  0  0  0
 47 46  2  0  0  0  0
M  END
>  <MODEL>
7

>  <REMARK>
 VINA RESULT:      -4.6      2.770      9.615
  Name = 
  14 active torsions:
  status: ('A' for Active; 'I' for Inactive)
    1  A    between atoms: N_9  and  C_14
    2  A    between atoms: C_10  and  C_14
    3  A    between atoms: C_10  and  C_47
    4  A    between atoms: C_13  and  C_39
    5  A    between atoms: C_16  and  C_26
    6  A    between atoms: C_22  and  C_34
    7  A    between atoms: C_22  and  C_36
    8  A    between atoms: C_23  and  C_24
    9  A    between atoms: C_24  and  O_30
   10  A    between atoms: C_27  and  C_34
   11  A    between atoms: C_27  and  P_40
   12  A    between atoms: O_30  and  C_32
   13  A    between atoms: C_36  and  C_37
   14  A    between atoms: C_37  and  N_46
                            x       y       z     vdW  Elec       q    Type
                         _______ _______ _______ _____ _____    ______ ____

>  <TORSDO>
F 14

$$$$
=
 OpenBabel11032420563D

 47 51  0  0  1  0  0  0  0  0999 V2000
  185.2130  179.0470  138.9550 C   0  0  0  0  0  2  0  0  0  0  0  0
  186.7170  178.9300  139.2340 C   0  0  2  0  0  3  0  0  0  0  0  0
  183.9270  178.2910  142.5560 C   0  0  2  0  0  3  0  0  0  0  0  0
  185.5750  179.9530  143.1370 C   0  0  0  0  0  3  0  0  0  0  0  0
  184.3980  177.8690  139.4800 C   0  0  0  0  0  2  0  0  0  0  0  0
  181.7280  178.0050  142.2880 C   0  0  0  0  0  0  0  0  0  0  0  0
  187.3480  177.6550  138.7010 C   0  0  0  0  0  2  0  0  0  0  0  0
  188.5010  178.3320  140.6410 C   0  0  2  0  0  3  0  0  0  0  0  0
  183.4950  179.7940  144.4480 C   0  0  0  0  0  3  0  0  0  0  0  0
  184.6030  180.4840  144.1250 C   0  0  0  0  0  3  0  0  0  0  0  0
  183.2470  178.4140  143.8830 C   0  0  1  0  0  3  0  0  0  0  0  0
  183.1440  178.4120  140.1400 C   0  0  0  0  0  2  0  0  0  0  0  0
  181.8430  178.2220  143.5570 N   0  0  0  0  0  0  0  0  0  0  0  0
  185.2570  178.8950  142.3790 C   0  0  0  0  0  0  0  0  0  0  0  0
  187.1460  179.0260  140.6910 C   0  0  2  0  0  3  0  0  0  0  0  0
  186.2190  178.2740  141.5280 N   0  0  0  0  0  2  0  0  0  0  0  0
  183.0180  178.0670  141.6020 C   0  0  1  0  0  3  0  0  0  0  0  0
  188.4460  177.2980  139.6020 N   0  0  0  0  0  0  0  0  0  0  0  0
  189.6890  178.6490  142.8190 C   0  0  0  0  0  3  0  0  0  0  0  0
  188.6960  176.4890  142.3690 C   0  0  0  0  0  3  0  0  0  0  0  0
  188.9820  177.8000  141.9620 C   0  0  0  0  0  0  0  0  0  0  0  0
  190.1190  178.1910  144.0670 C   0  0  0  0  0  3  0  0  0  0  0  0
  189.8390  176.8770  144.4740 C   0  0  0  0  0  0  0  0  0  0  0  0
  189.1250  176.0310  143.6180 C   0  0  0  0  0  3  0  0  0  0  0  0
  190.2530  176.3900  145.7160 O   0  0  0  0  0  0  0  0  0  0  0  0
  191.4010  176.8880  146.3920 C   0  0  0  0  0  2  0  0  0  0  0  0
  191.1320  174.9290  147.7180 O   0  0  0  0  0  0  0  0  0  0  0  0
  193.1540  175.9930  147.9170 O   0  0  0  0  0  1  0  0  0  0  0  0
  191.8850  175.8740  147.3640 C   0  0  0  0  0  0  0  0  0  0  0  0
  179.3560  178.0360  142.2670 O   0  0  0  0  0  0  0  0  0  0  0  0
  180.3680  177.2560  140.3180 N   0  0  0  0  0  2  0  0  0  0  0  0
  180.4220  177.7720  141.6490 C   0  0  0  0  0  0  0  0  0  0  0  0
  179.1080  177.0290  139.6280 C   0  0  0  0  0  2  0  0  0  0  0  0
  179.1880  175.7550  138.8060 C   0  0  0  0  0  2  0  0  0  0  0  0
  181.1850  174.6480  138.1440 O   0  0  0  0  0  1  0  0  0  0  0  0
  180.3760  174.9190  139.2460 C   0  0  0  0  0  2  0  0  0  0  0  0
  189.7090  177.2540  138.8550 C   0  0  0  0  0  2  0  0  0  0  0  0
  190.5600  176.0180  139.1620 C   0  0  0  0  0  2  0  0  0  0  0  0
  191.1280  175.4440  137.8760 C   0  0  0  0  0  2  0  0  0  0  0  0
  190.8420  175.6800  135.4050 C   0  0  0  0  0  1  0  0  0  0  0  0
  190.1230  175.5620  136.7380 C   0  0  1  0  0  3  0  0  0  0  0  0
  189.5560  173.3060  137.1670 O   0  0  0  0  0  0  0  0  0  0  0  0
  189.1960  174.3890  136.7310 C   0  0  0  0  0  0  0  0  0  0  0  0
  187.2090  173.3370  134.9790 O   0  0  0  0  0  0  0  0  0  0  0  0
  186.5430  174.5120  137.2190 O   0  0  0  0  0  1  0  0  0  0  0  0
  187.5370  174.5760  136.0830 P   0  0  0  0  0  0  0  0  0  0  0  0
  187.4040  176.0710  135.3030 O   0  0  0  0  0  1  0  0  0  0  0  0
  1  2  1  0  0  0  0
  1  5  1  0  0  0  0
  2  7  1  1  0  0  0
  2 15  1  0  0  0  0
  3 14  1  6  0  0  0
  3 11  1  0  0  0  0
  4 10  1  0  0  0  0
  5 12  1  0  0  0  0
  6 13  2  0  0  0  0
  7 18  1  0  0  0  0
  8 15  1  0  0  0  0
  8 21  1  1  0  0  0
 10  9  2  0  0  0  0
 11  9  1  6  0  0  0
 13 11  1  0  0  0  0
 14  4  2  0  0  0  0
 15 16  1  1  0  0  0
 16 14  1  0  0  0  0
 17 12  1  6  0  0  0
 17  6  1  0  0  0  0
 17  3  1  0  0  0  0
 18  8  1  0  0  0  0
 19 22  1  0  0  0  0
 20 24  2  0  0  0  0
 21 20  1  0  0  0  0
 21 19  2  0  0  0  0
 22 23  2  0  0  0  0
 23 25  1  0  0  0  0
 24 23  1  0  0  0  0
 25 26  1  0  0  0  0
 26 29  1  0  0  0  0
 29 27  2  0  0  0  0
 29 28  1  0  0  0  0
 31 32  1  0  0  0  0
 32 30  2  0  0  0  0
 32  6  1  0  0  0  0
 33 31  1  0  0  0  0
 34 36  1  0  0  0  0
 34 33  1  0  0  0  0
 35 36  1  0  0  0  0
 37 38  1  0  0  0  0
 37 18  1  0  0  0  0
 39 38  1  0  0  0  0
 41 40  1  6  0  0  0
 41 39  1  0  0  0  0
 43 41  1  0  0  0  0
 43 42  2  0  0  0  0
 44 46  2  0  0  0  0
 46 43  1  0  0  0  0
 46 45  1  0  0  0  0
 47 46  1  0  0  0  0
M  END
>  <MODEL>
8

>  <REMARK>
 VINA RESULT:      -4.4      2.859      9.889
  Name = 
  14 active torsions:
  status: ('A' for Active; 'I' for Inactive)
    1  A    between atoms: N_9  and  C_14
    2  A    between atoms: C_10  and  C_14
    3  A    between atoms: C_10  and  C_47
    4  A    between atoms: C_13  and  C_39
    5  A    between atoms: C_16  and  C_26
    6  A    between atoms: C_22  and  C_34
    7  A    between atoms: C_22  and  C_36
    8  A    between atoms: C_23  and  C_24
    9  A    between atoms: C_24  and  O_30
   10  A    between atoms: C_27  and  C_34
   11  A    between atoms: C_27  and  P_40
   12  A    between atoms: O_30  and  C_32
   13  A    between atoms: C_36  and  C_37
   14  A    between atoms: C_37  and  N_46
                            x       y       z     vdW  Elec       q    Type
                         _______ _______ _______ _____ _____    ______ ____

>  <TORSDO>
F 14

$$$$
=
 OpenBabel11032420563D

 47 51  0  0  1  0  0  0  0  0999 V2000
  183.4790  178.6050  140.4190 C   0  0  0  0  0  2  0  0  0  0  0  0
  184.9160  178.0740  140.5120 C   0  0  2  0  0  3  0  0  0  0  0  0
  183.0070  178.2340  136.5670 C   0  0  2  0  0  3  0  0  0  0  0  0
  183.8660  176.0250  137.0070 C   0  0  0  0  0  3  0  0  0  0  0  0
  183.2870  179.6720  139.3450 C   0  0  0  0  0  2  0  0  0  0  0  0
  181.1120  179.3410  136.1530 C   0  0  0  0  0  0  0  0  0  0  0  0
  185.9600  179.1530  140.7390 C   0  0  0  0  0  2  0  0  0  0  0  0
  186.9230  177.4000  139.4940 C   0  0  2  0  0  3  0  0  0  0  0  0
  182.1900  176.3450  135.2300 C   0  0  0  0  0  3  0  0  0  0  0  0
  182.8690  175.5090  136.0350 C   0  0  0  0  0  3  0  0  0  0  0  0
  182.4810  177.8280  135.2280 C   0  0  1  0  0  3  0  0  0  0  0  0
  181.9980  179.3760  138.6020 C   0  0  0  0  0  2  0  0  0  0  0  0
  181.2580  178.6060  135.1000 N   0  0  0  0  0  0  0  0  0  0  0  0
  183.9400  177.3370  137.2670 C   0  0  0  0  0  0  0  0  0  0  0  0
  185.4150  177.2570  139.3290 C   0  0  2  0  0  3  0  0  0  0  0  0
  184.9780  177.8760  138.0830 N   0  0  0  0  0  2  0  0  0  0  0  0
  182.1810  179.1220  137.1280 C   0  0  1  0  0  3  0  0  0  0  0  0
  187.1940  178.7150  140.0850 N   0  0  0  0  0  0  0  0  0  0  0  0
  188.6060  178.1360  137.7980 C   0  0  0  0  0  3  0  0  0  0  0  0
  187.6170  175.9430  137.5410 C   0  0  0  0  0  3  0  0  0  0  0  0
  187.7170  177.1530  138.2420 C   0  0  0  0  0  0  0  0  0  0  0  0
  189.3810  177.9200  136.6550 C   0  0  0  0  0  3  0  0  0  0  0  0
  189.2790  176.7110  135.9480 C   0  0  0  0  0  0  0  0  0  0  0  0
  188.3930  175.7260  136.3980 C   0  0  0  0  0  3  0  0  0  0  0  0
  190.0410  176.4640  134.8040 O   0  0  0  0  0  0  0  0  0  0  0  0
  191.4630  176.4810  134.8100 C   0  0  0  0  0  2  0  0  0  0  0  0
  191.3600  174.1100  134.6160 O   0  0  0  0  0  0  0  0  0  0  0  0
  193.1100  174.9300  135.8500 O   0  0  0  0  0  1  0  0  0  0  0  0
  191.9760  175.1100  135.0700 C   0  0  0  0  0  0  0  0  0  0  0  0
  178.9310  179.8550  136.9320 O   0  0  0  0  0  0  0  0  0  0  0  0
  180.0260  181.5740  135.8010 N   0  0  0  0  0  2  0  0  0  0  0  0
  179.9620  180.2450  136.3220 C   0  0  0  0  0  0  0  0  0  0  0  0
  178.9310  182.5190  135.9580 C   0  0  0  0  0  2  0  0  0  0  0  0
  179.4520  183.8300  136.5160 C   0  0  0  0  0  2  0  0  0  0  0  0
  181.4520  184.9520  137.1460 O   0  0  0  0  0  1  0  0  0  0  0  0
  180.9610  183.8990  136.3750 C   0  0  0  0  0  2  0  0  0  0  0  0
  188.2760  178.6200  141.0730 C   0  0  0  0  0  2  0  0  0  0  0  0
  188.6750  177.1800  141.4090 C   0  0  0  0  0  2  0  0  0  0  0  0
  187.9930  176.7360  142.6910 C   0  0  0  0  0  2  0  0  0  0  0  0
  186.8480  178.0610  144.4730 C   0  0  0  0  0  1  0  0  0  0  0  0
  188.1740  177.7740  143.7900 C   0  0  1  0  0  3  0  0  0  0  0  0
  188.8410  176.7540  145.8180 O   0  0  0  0  0  0  0  0  0  0  0  0
  189.1880  177.3110  144.7880 C   0  0  0  0  0  0  0  0  0  0  0  0
  191.5220  176.3300  143.4790 O   0  0  0  0  0  0  0  0  0  0  0  0
  191.1200  178.8990  143.7680 O   0  0  0  0  0  1  0  0  0  0  0  0
  190.9300  177.5710  144.4640 P   0  0  0  0  0  0  0  0  0  0  0  0
  191.7790  177.5780  145.9270 O   0  0  0  0  0  1  0  0  0  0  0  0
  2  1  1  6  0  0  0
  2  7  1  0  0  0  0
  3 17  1  0  0  0  0
  3 14  1  1  0  0  0
  4 14  2  0  0  0  0
  5  1  1  0  0  0  0
  6 32  1  0  0  0  0
  6 17  1  0  0  0  0
  8 21  1  6  0  0  0
  8 18  1  0  0  0  0
  9 10  2  0  0  0  0
 10  4  1  0  0  0  0
 11  9  1  1  0  0  0
 11  3  1  0  0  0  0
 12  5  1  0  0  0  0
 13 11  1  0  0  0  0
 13  6  2  0  0  0  0
 14 16  1  0  0  0  0
 15 16  1  6  0  0  0
 15  8  1  0  0  0  0
 15  2  1  0  0  0  0
 17 12  1  1  0  0  0
 18  7  1  0  0  0  0
 18 37  1  0  0  0  0
 19 21  1  0  0  0  0
 20 21  2  0  0  0  0
 22 19  2  0  0  0  0
 23 24  2  0  0  0  0
 23 22  1  0  0  0  0
 24 20  1  0  0  0  0
 25 26  1  0  0  0  0
 25 23  1  0  0  0  0
 26 29  1  0  0  0  0
 27 29  2  0  0  0  0
 29 28  1  0  0  0  0
 31 33  1  0  0  0  0
 31 32  1  0  0  0  0
 32 30  2  0  0  0  0
 33 34  1  0  0  0  0
 36 34  1  0  0  0  0
 36 35  1  0  0  0  0
 37 38  1  0  0  0  0
 38 39  1  0  0  0  0
 39 41  1  0  0  0  0
 41 40  1  1  0  0  0
 41 43  1  0  0  0  0
 43 42  2  0  0  0  0
 44 46  2  0  0  0  0
 45 46  1  0  0  0  0
 46 43  1  0  0  0  0
 46 47  1  0  0  0  0
M  END
>  <MODEL>
9

>  <REMARK>
 VINA RESULT:      -4.3      3.178      8.165
  Name = 
  14 active torsions:
  status: ('A' for Active; 'I' for Inactive)
    1  A    between atoms: N_9  and  C_14
    2  A    between atoms: C_10  and  C_14
    3  A    between atoms: C_10  and  C_47
    4  A    between atoms: C_13  and  C_39
    5  A    between atoms: C_16  and  C_26
    6  A    between atoms: C_22  and  C_34
    7  A    between atoms: C_22  and  C_36
    8  A    between atoms: C_23  and  C_24
    9  A    between atoms: C_24  and  O_30
   10  A    between atoms: C_27  and  C_34
   11  A    between atoms: C_27  and  P_40
   12  A    between atoms: O_30  and  C_32
   13  A    between atoms: C_36  and  C_37
   14  A    between atoms: C_37  and  N_46
                            x       y       z     vdW  Elec       q    Type
                         _______ _______ _______ _____ _____    ______ ____

>  <TORSDO>
F 14

$$$$
