=
 OpenBabel11042412433D

 57 60  0  0  1  0  0  0  0  0999 V2000
  186.2020  178.1950  145.1170 C   0  0  0  0  0  2  0  0  0  0  0  0
  187.9360  177.5780  143.4890 C   0  0  2  0  0  3  0  0  0  0  0  0
  184.3230  179.2500  141.9910 O   0  0  0  0  0  0  0  0  0  0  0  0
  184.8430  178.8200  139.7390 C   0  0  0  0  0  2  0  0  0  0  0  0
  186.6080  178.2910  141.3850 C   0  0  1  0  0  3  0  0  0  0  0  0
  185.6760  178.2210  143.7000 C   0  0  1  0  0  3  0  0  0  0  0  0
  184.6480  179.2980  143.3850 C   0  0  2  0  0  3  0  0  0  0  0  0
  186.9010  178.4960  142.8790 C   0  0  1  0  0  3  0  0  0  0  0  0
  185.2330  178.8310  141.0050 C   0  0  0  0  0  0  0  0  0  0  0  0
  187.5900  177.5760  144.9840 C   0  0  0  0  0  2  0  0  0  0  0  0
  183.4630  179.2000  145.4520 O   0  0  0  0  0  0  0  0  0  0  0  0
  182.1640  178.8210  143.5490 N   0  0  0  0  0  2  0  0  0  0  0  0
  183.4060  179.1130  144.1960 C   0  0  0  0  0  0  0  0  0  0  0  0
  181.0270  178.6330  144.2610 O   0  0  0  0  0  0  0  0  0  0  0  0
  180.0570  178.3110  143.3080 C   0  0  0  0  0  2  0  0  0  0  0  0
  178.9770  180.4600  142.7490 C   0  0  0  0  0  1  0  0  0  0  0  0
  179.9580  179.4130  142.2650 C   0  0  2  0  0  3  0  0  0  0  0  0
  179.4690  178.8590  140.9330 C   0  0  0  0  0  2  0  0  0  0  0  0
  180.6900  180.2030  139.3870 O   0  0  0  0  0  0  0  0  0  0  0  0
  180.4880  179.0510  139.8560 C   0  0  0  0  0  0  0  0  0  0  0  0
  181.2400  177.9460  139.3520 N   0  0  0  0  0  2  0  0  0  0  0  0
  182.3110  176.0800  139.7340 C   0  0  0  0  0  1  0  0  0  0  0  0
  181.0500  176.6860  139.8130 O   0  0  0  0  0  0  0  0  0  0  0  0
  189.2250  178.0850  143.2840 O   0  0  0  0  0  0  0  0  0  0  0  0
  190.0680  177.2630  144.0460 C   0  0  2  0  0  3  0  0  0  0  0  0
  190.9840  179.2830  143.9820 C   0  0  0  0  0  1  0  0  0  0  0  0
  191.1780  177.9920  144.4840 O   0  0  0  0  0  0  0  0  0  0  0  0
  190.5150  176.0500  143.2360 C   0  0  0  0  0  2  0  0  0  0  0  0
  191.6550  175.3100  143.9160 C   0  0  0  0  0  1  0  0  0  0  0  0
  187.6470  178.7740  140.5520 O   0  0  0  0  0  0  0  0  0  0  0  0
  187.4230  178.3320  139.2350 C   0  0  0  0  0  2  0  0  0  0  0  0
  189.5020  176.2790  139.9520 F   0  0  0  0  0  0  0  0  0  0  0  0
  191.1080  177.3900  138.5730 C   0  0  2  0  0  3  0  0  0  0  0  0
  189.7850  177.0640  136.5050 O   0  0  0  0  0  0  0  0  0  0  0  0
  189.8400  177.5090  139.4110 C   0  0  1  0  0  3  0  0  0  0  0  0
  190.8640  176.5720  137.2910 C   0  0  2  0  0  3  0  0  0  0  0  0
  188.5730  177.1590  137.2460 C   0  0  2  0  0  3  0  0  0  0  0  0
  192.1500  176.8440  139.3260 O   0  0  0  0  0  1  0  0  0  0  0  0
  188.7310  178.0300  138.5040 C   0  0  1  0  0  3  0  0  0  0  0  0
  186.8240  175.8430  136.8730 C   0  0  0  0  0  1  0  0  0  0  0  0
  188.0500  175.8930  137.5390 O   0  0  0  0  0  0  0  0  0  0  0  0
  190.7940  175.0610  137.5240 C   0  0  0  0  0  2  0  0  0  0  0  0
  190.8800  174.3400  136.2650 N   0  0  0  0  0  2  0  0  0  0  0  0
  192.4110  173.5280  136.1940 S   0  0  0  0  0  0  0  0  0  0  0  0
  192.2250  172.1840  135.5490 O   0  0  0  0  0  0  0  0  0  0  0  0
  192.9560  173.3270  137.5810 O   0  0  0  0  0  0  0  0  0  0  0  0
  193.5270  174.4810  135.2750 N   0  0  0  0  0  2  0  0  0  0  0  0
  194.5730  174.9210  136.1840 C   0  0  0  0  0  2  0  0  0  0  0  0
  196.2280  175.5920  134.5940 O   0  0  0  0  0  1  0  0  0  0  0  0
  195.9450  174.6540  135.5880 C   0  0  1  0  0  3  0  0  0  0  0  0
  196.5900  174.2000  138.0440 C   0  0  1  0  0  3  0  0  0  0  0  0
  197.8150  175.8720  136.7220 O   0  0  0  0  0  1  0  0  0  0  0  0
  197.6580  173.4680  137.2310 C   0  0  2  0  0  3  0  0  0  0  0  0
  197.2050  174.9140  139.0740 O   0  0  0  0  0  1  0  0  0  0  0  0
  197.0100  174.7320  136.6800 C   0  0  2  0  0  0  0  0  0  0  0  0
  197.0610  172.1920  136.6570 C   0  0  0  0  0  2  0  0  0  0  0  0
  197.4700  171.1020  137.4260 O   0  0  0  0  0  1  0  0  0  0  0  0
  2 24  1  1  0  0  0
  2 10  1  0  0  0  0
  3  7  1  0  0  0  0
  4  9  2  0  0  0  0
  5 30  1  6  0  0  0
  5  8  1  0  0  0  0
  6  1  1  1  0  0  0
  7  6  1  0  0  0  0
  7 13  1  1  0  0  0
  8  2  1  0  0  0  0
  8  6  1  0  0  0  0
  9  5  1  0  0  0  0
  9  3  1  0  0  0  0
 10  1  1  0  0  0  0
 12 13  1  0  0  0  0
 12 14  1  0  0  0  0
 13 11  2  0  0  0  0
 15 14  1  0  0  0  0
 17 16  1  0  0  0  0
 17 15  1  0  0  0  0
 18 17  1  0  0  0  0
 19 20  2  0  0  0  0
 20 18  1  0  0  0  0
 21 23  1  0  0  0  0
 21 20  1  0  0  0  0
 22 23  1  0  0  0  0
 24 25  1  0  0  0  0
 25 27  1  0  0  0  0
 26 27  1  0  0  0  0
 28 29  1  0  0  0  0
 28 25  1  0  0  0  0
 31 30  1  0  0  0  0
 33 38  1  0  0  0  0
 33 35  1  0  0  0  0
 34 37  1  0  0  0  0
 34 36  1  0  0  0  0
 35 32  1  0  0  0  0
 36 42  1  0  0  0  0
 36 33  1  0  0  0  0
 37 41  1  0  0  0  0
 37 39  1  0  0  0  0
 39 31  1  0  0  0  0
 39 35  1  0  0  0  0
 40 41  1  0  0  0  0
 43 42  1  0  0  0  0
 44 43  1  0  0  0  0
 44 46  2  0  0  0  0
 45 44  2  0  0  0  0
 47 48  1  0  0  0  0
 47 44  1  0  0  0  0
 49 50  1  0  0  0  0
 50 48  1  0  0  0  0
 50 55  1  0  0  0  0
 51 54  1  0  0  0  0
 53 51  1  0  0  0  0
 55 52  1  0  0  0  0
 55 53  1  0  0  0  0
 55 51  1  0  0  0  0
 56 53  1  0  0  0  0
 56 57  1  0  0  0  0
M  END
>  <MODEL>
1

>  <REMARK>
 VINA RESULT:      -6.9      0.000      0.000
  Name = 
  23 active torsions:
  status: ('A' for Active; 'I' for Inactive)
    1  A    between atoms: C_1  and  C_10
    2  A    between atoms: C_2  and  C_35
    3  A    between atoms: N_3  and  C_9
    4  A    between atoms: N_3  and  S_25
    5  A    between atoms: C_7  and  O_38
    6  A    between atoms: C_9  and  C_45
    7  A    between atoms: C_10  and  O_18
    8  A    between atoms: C_10  and  O_38
    9  A    between atoms: C_13  and  O_22
   10  A    between atoms: C_13  and  C_52
   11  A    between atoms: N_15  and  C_16
   12  A    between atoms: N_15  and  S_25
   13  A    between atoms: C_16  and  C_57
   14  A    between atoms: O_22  and  C_29
   15  A    between atoms: N_27  and  O_42
   16  A    between atoms: C_28  and  C_37
   17  A    between atoms: C_33  and  C_43
   18  A    between atoms: N_40  and  O_55
   19  A    between atoms: O_42  and  C_49
   20  A    between atoms: C_43  and  C_51
   21  A    between atoms: C_46  and  O_50
   22  A    between atoms: C_49  and  C_51
   23  A    between atoms: C_54  and  C_57
                            x       y       z     vdW  Elec       q    Type
                         _______ _______ _______ _____ _____    ______ ____

>  <TORSDO>
F 23

$$$$
=
 OpenBabel11042412433D

 57 60  0  0  1  0  0  0  0  0999 V2000
  185.8220  178.3390  145.8440 C   0  0  0  0  0  2  0  0  0  0  0  0
  187.8520  177.5740  144.6910 C   0  0  2  0  0  3  0  0  0  0  0  0
  184.7070  179.1630  142.3090 O   0  0  0  0  0  0  0  0  0  0  0  0
  185.6950  178.5490  140.2680 C   0  0  0  0  0  2  0  0  0  0  0  0
  187.0400  178.1320  142.2970 C   0  0  1  0  0  3  0  0  0  0  0  0
  185.6210  178.2580  144.3480 C   0  0  1  0  0  3  0  0  0  0  0  0
  184.7190  179.3190  143.7340 C   0  0  2  0  0  3  0  0  0  0  0  0
  187.0040  178.4520  143.8000 C   0  0  1  0  0  3  0  0  0  0  0  0
  185.7980  178.6560  141.5840 C   0  0  0  0  0  0  0  0  0  0  0  0
  187.1870  177.6950  146.0680 C   0  0  0  0  0  2  0  0  0  0  0  0
  183.1350  179.0780  145.5000 O   0  0  0  0  0  0  0  0  0  0  0  0
  182.2130  179.2470  143.3610 N   0  0  0  0  0  2  0  0  0  0  0  0
  183.3250  179.2130  144.2610 C   0  0  0  0  0  0  0  0  0  0  0  0
  180.9400  179.1380  143.8110 O   0  0  0  0  0  0  0  0  0  0  0  0
  180.1460  179.2080  142.6640 C   0  0  0  0  0  2  0  0  0  0  0  0
  180.7870  179.6830  140.3270 C   0  0  0  0  0  1  0  0  0  0  0  0
  180.9160  178.6870  141.4600 C   0  0  2  0  0  3  0  0  0  0  0  0
  180.3630  177.3450  141.0000 C   0  0  0  0  0  2  0  0  0  0  0  0
  179.1960  177.6500  138.9430 O   0  0  0  0  0  0  0  0  0  0  0  0
  180.2580  177.2800  139.5100 C   0  0  0  0  0  0  0  0  0  0  0  0
  181.3490  176.8070  138.7170 N   0  0  0  0  0  2  0  0  0  0  0  0
  183.3930  176.2280  138.2040 C   0  0  0  0  0  1  0  0  0  0  0  0
  182.5070  176.3860  139.2790 O   0  0  0  0  0  0  0  0  0  0  0  0
  189.1690  178.0470  144.7390 O   0  0  0  0  0  0  0  0  0  0  0  0
  189.9280  176.9750  145.2310 C   0  0  2  0  0  3  0  0  0  0  0  0
  190.7030  176.7680  147.2990 C   0  0  0  0  0  1  0  0  0  0  0  0
  190.9190  177.4480  146.0970 O   0  0  0  0  0  0  0  0  0  0  0  0
  190.5550  176.1870  144.0860 C   0  0  0  0  0  2  0  0  0  0  0  0
  191.7440  176.9190  143.4860 C   0  0  0  0  0  1  0  0  0  0  0  0
  188.2500  178.5340  141.6810 O   0  0  0  0  0  0  0  0  0  0  0  0
  188.0590  178.5930  140.2880 C   0  0  0  0  0  2  0  0  0  0  0  0
  189.2220  178.4250  137.5190 F   0  0  0  0  0  0  0  0  0  0  0  0
  188.9400  176.0510  137.5210 C   0  0  2  0  0  3  0  0  0  0  0  0
  190.4450  175.7190  139.4600 O   0  0  0  0  0  0  0  0  0  0  0  0
  188.4720  177.3950  138.0650 C   0  0  1  0  0  3  0  0  0  0  0  0
  190.3440  175.6880  138.0410 C   0  0  2  0  0  3  0  0  0  0  0  0
  190.0450  176.9730  140.0050 C   0  0  2  0  0  3  0  0  0  0  0  0
  188.9060  176.0420  136.1240 O   0  0  0  0  0  1  0  0  0  0  0  0
  188.6180  177.3580  139.5820 C   0  0  1  0  0  3  0  0  0  0  0  0
  192.0580  177.7310  140.5580 C   0  0  0  0  0  1  0  0  0  0  0  0
  190.9760  177.9790  139.7120 O   0  0  0  0  0  0  0  0  0  0  0  0
  191.4780  176.4420  137.3440 C   0  0  0  0  0  2  0  0  0  0  0  0
  192.7690  175.8830  137.7060 N   0  0  0  0  0  2  0  0  0  0  0  0
  193.7000  175.6560  136.2610 S   0  0  0  0  0  0  0  0  0  0  0  0
  194.7160  176.7580  136.1520 O   0  0  0  0  0  0  0  0  0  0  0  0
  192.8050  175.7040  135.0540 O   0  0  0  0  0  0  0  0  0  0  0  0
  194.4950  174.1180  136.3210 N   0  0  0  0  0  2  0  0  0  0  0  0
  195.9030  174.3470  136.0380 C   0  0  0  0  0  2  0  0  0  0  0  0
  196.6590  174.7390  138.2720 O   0  0  0  0  0  1  0  0  0  0  0  0
  196.7630  173.8610  137.1930 C   0  0  1  0  0  3  0  0  0  0  0  0
  195.9910  171.5010  136.4920 C   0  0  1  0  0  3  0  0  0  0  0  0
  195.4660  172.3720  138.7310 O   0  0  0  0  0  1  0  0  0  0  0  0
  197.2020  171.2520  137.3910 C   0  0  2  0  0  3  0  0  0  0  0  0
  194.9620  170.6280  136.8520 O   0  0  0  0  0  1  0  0  0  0  0  0
  196.3130  172.4670  137.6250 C   0  0  2  0  0  0  0  0  0  0  0  0
  198.4720  171.5790  136.6210 C   0  0  0  0  0  2  0  0  0  0  0  0
  199.1070  170.3950  136.2480 O   0  0  0  0  0  1  0  0  0  0  0  0
  1 10  1  0  0  0  0
  2 24  1  1  0  0  0
  2 10  1  0  0  0  0
  3  7  1  0  0  0  0
  4  9  2  0  0  0  0
  5 30  1  6  0  0  0
  5  8  1  0  0  0  0
  6  1  1  1  0  0  0
  7 13  1  1  0  0  0
  7  6  1  0  0  0  0
  8  6  1  0  0  0  0
  8  2  1  0  0  0  0
  9  5  1  0  0  0  0
  9  3  1  0  0  0  0
 12 14  1  0  0  0  0
 12 13  1  0  0  0  0
 13 11  2  0  0  0  0
 15 14  1  0  0  0  0
 16 17  1  0  0  0  0
 17 15  1  0  0  0  0
 18 17  1  0  0  0  0
 19 20  2  0  0  0  0
 20 18  1  0  0  0  0
 21 23  1  0  0  0  0
 21 20  1  0  0  0  0
 22 23  1  0  0  0  0
 24 25  1  0  0  0  0
 25 27  1  0  0  0  0
 27 26  1  0  0  0  0
 28 25  1  0  0  0  0
 29 28  1  0  0  0  0
 31 30  1  0  0  0  0
 32 35  1  0  0  0  0
 33 36  1  0  0  0  0
 33 35  1  0  0  0  0
 34 37  1  0  0  0  0
 35 39  1  0  0  0  0
 36 34  1  0  0  0  0
 38 33  1  0  0  0  0
 39 37  1  0  0  0  0
 39 31  1  0  0  0  0
 41 37  1  0  0  0  0
 41 40  1  0  0  0  0
 42 43  1  0  0  0  0
 42 36  1  0  0  0  0
 44 47  1  0  0  0  0
 44 43  1  0  0  0  0
 45 44  2  0  0  0  0
 46 44  2  0  0  0  0
 48 47  1  0  0  0  0
 48 50  1  0  0  0  0
 50 55  1  0  0  0  0
 50 49  1  0  0  0  0
 51 54  1  0  0  0  0
 51 53  1  0  0  0  0
 51 55  1  0  0  0  0
 53 55  1  0  0  0  0
 55 52  1  0  0  0  0
 56 53  1  0  0  0  0
 57 56  1  0  0  0  0
M  END
>  <MODEL>
2

>  <REMARK>
 VINA RESULT:      -5.8      1.598      2.523
  Name = 
  23 active torsions:
  status: ('A' for Active; 'I' for Inactive)
    1  A    between atoms: C_1  and  C_10
    2  A    between atoms: C_2  and  C_35
    3  A    between atoms: N_3  and  C_9
    4  A    between atoms: N_3  and  S_25
    5  A    between atoms: C_7  and  O_38
    6  A    between atoms: C_9  and  C_45
    7  A    between atoms: C_10  and  O_18
    8  A    between atoms: C_10  and  O_38
    9  A    between atoms: C_13  and  O_22
   10  A    between atoms: C_13  and  C_52
   11  A    between atoms: N_15  and  C_16
   12  A    between atoms: N_15  and  S_25
   13  A    between atoms: C_16  and  C_57
   14  A    between atoms: O_22  and  C_29
   15  A    between atoms: N_27  and  O_42
   16  A    between atoms: C_28  and  C_37
   17  A    between atoms: C_33  and  C_43
   18  A    between atoms: N_40  and  O_55
   19  A    between atoms: O_42  and  C_49
   20  A    between atoms: C_43  and  C_51
   21  A    between atoms: C_46  and  O_50
   22  A    between atoms: C_49  and  C_51
   23  A    between atoms: C_54  and  C_57
                            x       y       z     vdW  Elec       q    Type
                         _______ _______ _______ _____ _____    ______ ____

>  <TORSDO>
F 23

$$$$
=
 OpenBabel11042412433D

 57 60  0  0  1  0  0  0  0  0999 V2000
  185.9600  178.0760  144.8020 C   0  0  0  0  0  2  0  0  0  0  0  0
  188.0370  177.2570  143.7790 C   0  0  2  0  0  3  0  0  0  0  0  0
  185.1590  179.0680  141.2260 O   0  0  0  0  0  0  0  0  0  0  0  0
  186.2750  178.4780  139.2440 C   0  0  0  0  0  2  0  0  0  0  0  0
  187.4380  177.9320  141.3530 C   0  0  1  0  0  3  0  0  0  0  0  0
  185.8720  178.0540  143.2940 C   0  0  1  0  0  3  0  0  0  0  0  0
  185.0670  179.1760  142.6520 C   0  0  2  0  0  3  0  0  0  0  0  0
  187.3000  178.2030  142.8590 C   0  0  1  0  0  3  0  0  0  0  0  0
  186.2800  178.5370  140.5680 C   0  0  0  0  0  0  0  0  0  0  0  0
  187.2740  177.3630  145.1060 C   0  0  0  0  0  2  0  0  0  0  0  0
  183.3120  179.4280  144.2460 O   0  0  0  0  0  0  0  0  0  0  0  0
  182.6330  178.6920  142.1370 N   0  0  0  0  0  2  0  0  0  0  0  0
  183.6320  179.1170  143.0680 C   0  0  0  0  0  0  0  0  0  0  0  0
  181.3270  178.6150  142.4920 O   0  0  0  0  0  0  0  0  0  0  0  0
  180.6330  179.2140  141.4380 C   0  0  0  0  0  2  0  0  0  0  0  0
  179.4800  177.0310  141.4410 C   0  0  0  0  0  1  0  0  0  0  0  0
  179.9910  178.1510  140.5600 C   0  0  2  0  0  3  0  0  0  0  0  0
  180.9980  177.5800  139.5720 C   0  0  0  0  0  2  0  0  0  0  0  0
  180.5280  179.5320  138.2840 O   0  0  0  0  0  0  0  0  0  0  0  0
  181.2970  178.5510  138.4750 C   0  0  0  0  0  0  0  0  0  0  0  0
  182.4450  178.3870  137.6410 N   0  0  0  0  0  2  0  0  0  0  0  0
  183.9350  177.2110  136.5570 C   0  0  0  0  0  1  0  0  0  0  0  0
  183.2950  177.3430  137.7970 O   0  0  0  0  0  0  0  0  0  0  0  0
  189.3660  177.6670  143.9450 O   0  0  0  0  0  0  0  0  0  0  0  0
  189.8740  176.8630  144.9750 C   0  0  2  0  0  3  0  0  0  0  0  0
  190.0390  176.7000  147.1820 C   0  0  0  0  0  1  0  0  0  0  0  0
  190.0520  177.6260  146.1340 O   0  0  0  0  0  0  0  0  0  0  0  0
  191.1910  176.2180  144.5570 C   0  0  0  0  0  2  0  0  0  0  0  0
  191.5810  176.6070  143.1400 C   0  0  0  0  0  1  0  0  0  0  0  0
  188.7090  178.2990  140.8460 O   0  0  0  0  0  0  0  0  0  0  0  0
  188.5890  178.5930  139.4760 C   0  0  0  0  0  2  0  0  0  0  0  0
  190.3310  176.2430  140.1760 F   0  0  0  0  0  0  0  0  0  0  0  0
  191.9670  176.9520  138.5830 C   0  0  2  0  0  3  0  0  0  0  0  0
  190.4130  176.7450  136.6650 O   0  0  0  0  0  0  0  0  0  0  0  0
  190.8280  177.3530  139.5130 C   0  0  1  0  0  3  0  0  0  0  0  0
  191.4600  176.1140  137.3950 C   0  0  2  0  0  3  0  0  0  0  0  0
  189.3150  177.1080  137.4960 C   0  0  2  0  0  3  0  0  0  0  0  0
  192.9640  176.2710  139.2870 O   0  0  0  0  0  1  0  0  0  0  0  0
  189.7460  178.0110  138.6630 C   0  0  1  0  0  3  0  0  0  0  0  0
  187.6080  175.7870  136.9760 C   0  0  0  0  0  1  0  0  0  0  0  0
  188.6070  175.9790  137.9310 O   0  0  0  0  0  0  0  0  0  0  0  0
  191.1460  174.6590  137.7520 C   0  0  0  0  0  2  0  0  0  0  0  0
  190.9690  173.8600  136.5500 N   0  0  0  0  0  2  0  0  0  0  0  0
  192.5170  173.2590  136.0520 S   0  0  0  0  0  0  0  0  0  0  0  0
  192.9570  173.9960  134.8180 O   0  0  0  0  0  0  0  0  0  0  0  0
  192.4260  171.7920  135.7310 O   0  0  0  0  0  0  0  0  0  0  0  0
  193.6660  173.4940  137.3270 N   0  0  0  0  0  2  0  0  0  0  0  0
  194.9080  173.9370  136.7150 C   0  0  0  0  0  2  0  0  0  0  0  0
  195.8750  172.4840  138.3490 O   0  0  0  0  0  1  0  0  0  0  0  0
  196.0830  173.6670  137.6400 C   0  0  1  0  0  3  0  0  0  0  0  0
  197.1810  173.2860  135.3360 C   0  0  1  0  0  3  0  0  0  0  0  0
  198.4490  172.8820  137.4040 O   0  0  0  0  0  1  0  0  0  0  0  0
  197.7500  174.6240  135.8090 C   0  0  2  0  0  3  0  0  0  0  0  0
  198.2180  172.4980  134.8310 O   0  0  0  0  0  1  0  0  0  0  0  0
  197.3700  173.5520  136.8240 C   0  0  2  0  0  0  0  0  0  0  0  0
  196.6880  175.7010  135.6520 C   0  0  0  0  0  2  0  0  0  0  0  0
  197.2970  176.9560  135.6530 O   0  0  0  0  0  1  0  0  0  0  0  0
  1 10  1  0  0  0  0
  2 24  1  1  0  0  0
  2 10  1  0  0  0  0
  3  7  1  0  0  0  0
  4  9  2  0  0  0  0
  5 30  1  6  0  0  0
  5  8  1  0  0  0  0
  6  1  1  1  0  0  0
  7 13  1  6  0  0  0
  7  6  1  0  0  0  0
  8  6  1  0  0  0  0
  8  2  1  0  0  0  0
  9  3  1  0  0  0  0
  9  5  1  0  0  0  0
 12 14  1  0  0  0  0
 12 13  1  0  0  0  0
 13 11  2  0  0  0  0
 15 14  1  0  0  0  0
 17 15  1  0  0  0  0
 17 16  1  0  0  0  0
 18 17  1  0  0  0  0
 19 20  2  0  0  0  0
 20 18  1  0  0  0  0
 21 23  1  0  0  0  0
 21 20  1  0  0  0  0
 22 23  1  0  0  0  0
 24 25  1  0  0  0  0
 25 27  1  0  0  0  0
 27 26  1  0  0  0  0
 28 25  1  0  0  0  0
 29 28  1  0  0  0  0
 31 30  1  0  0  0  0
 33 38  1  0  0  0  0
 33 35  1  0  0  0  0
 34 36  1  0  0  0  0
 34 37  1  0  0  0  0
 35 32  1  0  0  0  0
 36 42  1  0  0  0  0
 36 33  1  0  0  0  0
 37 41  1  0  0  0  0
 37 39  1  0  0  0  0
 39 31  1  0  0  0  0
 39 35  1  0  0  0  0
 40 41  1  0  0  0  0
 43 42  1  0  0  0  0
 44 43  1  0  0  0  0
 44 47  1  0  0  0  0
 45 44  2  0  0  0  0
 46 44  2  0  0  0  0
 48 47  1  0  0  0  0
 48 50  1  0  0  0  0
 50 49  1  0  0  0  0
 51 53  1  0  0  0  0
 51 55  1  0  0  0  0
 53 55  1  0  0  0  0
 54 51  1  0  0  0  0
 55 52  1  0  0  0  0
 55 50  1  0  0  0  0
 56 57  1  0  0  0  0
 56 53  1  0  0  0  0
M  END
>  <MODEL>
3

>  <REMARK>
 VINA RESULT:      -5.3      1.452      2.143
  Name = 
  23 active torsions:
  status: ('A' for Active; 'I' for Inactive)
    1  A    between atoms: C_1  and  C_10
    2  A    between atoms: C_2  and  C_35
    3  A    between atoms: N_3  and  C_9
    4  A    between atoms: N_3  and  S_25
    5  A    between atoms: C_7  and  O_38
    6  A    between atoms: C_9  and  C_45
    7  A    between atoms: C_10  and  O_18
    8  A    between atoms: C_10  and  O_38
    9  A    between atoms: C_13  and  O_22
   10  A    between atoms: C_13  and  C_52
   11  A    between atoms: N_15  and  C_16
   12  A    between atoms: N_15  and  S_25
   13  A    between atoms: C_16  and  C_57
   14  A    between atoms: O_22  and  C_29
   15  A    between atoms: N_27  and  O_42
   16  A    between atoms: C_28  and  C_37
   17  A    between atoms: C_33  and  C_43
   18  A    between atoms: N_40  and  O_55
   19  A    between atoms: O_42  and  C_49
   20  A    between atoms: C_43  and  C_51
   21  A    between atoms: C_46  and  O_50
   22  A    between atoms: C_49  and  C_51
   23  A    between atoms: C_54  and  C_57
                            x       y       z     vdW  Elec       q    Type
                         _______ _______ _______ _____ _____    ______ ____

>  <TORSDO>
F 23

$$$$
=
 OpenBabel11042412433D

 57 60  0  0  1  0  0  0  0  0999 V2000
  188.1100  177.6710  143.6980 C   0  0  0  0  0  2  0  0  0  0  0  0
  186.7550  178.4150  141.7890 C   0  0  2  0  0  3  0  0  0  0  0  0
  190.6930  177.0210  140.9930 O   0  0  0  0  0  0  0  0  0  0  0  0
  190.6690  177.6820  138.7380 C   0  0  0  0  0  2  0  0  0  0  0  0
  188.5560  177.9760  139.9820 C   0  0  1  0  0  3  0  0  0  0  0  0
  188.9400  177.8160  142.4440 C   0  0  1  0  0  3  0  0  0  0  0  0
  190.0670  176.8100  142.2650 C   0  0  2  0  0  3  0  0  0  0  0  0
  187.9460  177.5990  141.3410 C   0  0  1  0  0  3  0  0  0  0  0  0
  190.0070  177.5210  139.8740 C   0  0  0  0  0  0  0  0  0  0  0  0
  186.7560  178.2620  143.3150 C   0  0  0  0  0  2  0  0  0  0  0  0
  191.9010  177.8990  143.3300 O   0  0  0  0  0  0  0  0  0  0  0  0
  191.1430  175.9670  144.4000 N   0  0  0  0  0  2  0  0  0  0  0  0
  191.0850  176.9390  143.3520 C   0  0  0  0  0  0  0  0  0  0  0  0
  192.0650  176.0530  145.3890 O   0  0  0  0  0  0  0  0  0  0  0  0
  191.6600  177.1410  146.1640 C   0  0  0  0  0  2  0  0  0  0  0  0
  191.4950  175.2470  147.7390 C   0  0  0  0  0  1  0  0  0  0  0  0
  191.0230  176.6580  147.4580 C   0  0  2  0  0  3  0  0  0  0  0  0
  189.5040  176.6560  147.3490 C   0  0  0  0  0  2  0  0  0  0  0  0
  189.6020  178.5150  148.8410 O   0  0  0  0  0  0  0  0  0  0  0  0
  188.9080  177.8470  148.0280 C   0  0  0  0  0  0  0  0  0  0  0  0
  187.5610  178.2440  147.7640 N   0  0  0  0  0  2  0  0  0  0  0  0
  185.5990  178.3170  146.8050 C   0  0  0  0  0  1  0  0  0  0  0  0
  186.7700  177.5540  146.9090 O   0  0  0  0  0  0  0  0  0  0  0  0
  185.5720  177.8980  141.2450 O   0  0  0  0  0  0  0  0  0  0  0  0
  184.8010  179.0200  140.9080 C   0  0  2  0  0  3  0  0  0  0  0  0
  183.0380  178.5610  142.1750 C   0  0  0  0  0  1  0  0  0  0  0  0
  184.0930  179.4680  142.0270 O   0  0  0  0  0  0  0  0  0  0  0  0
  183.8420  178.6920  139.7690 C   0  0  0  0  0  2  0  0  0  0  0  0
  184.5710  178.1010  138.5730 C   0  0  0  0  0  1  0  0  0  0  0  0
  187.7560  177.5600  138.8900 O   0  0  0  0  0  0  0  0  0  0  0  0
  188.4330  177.8460  137.6900 C   0  0  0  0  0  2  0  0  0  0  0  0
  186.9670  175.2300  137.9400 F   0  0  0  0  0  0  0  0  0  0  0  0
  188.5980  174.1590  136.5580 C   0  0  2  0  0  3  0  0  0  0  0  0
  188.1180  175.6040  134.6050 O   0  0  0  0  0  0  0  0  0  0  0  0
  188.2880  175.2960  137.5250 C   0  0  1  0  0  3  0  0  0  0  0  0
  187.8680  174.3430  135.2150 C   0  0  2  0  0  3  0  0  0  0  0  0
  187.8090  176.6940  135.4680 C   0  0  2  0  0  3  0  0  0  0  0  0
  188.2890  172.9230  137.1320 O   0  0  0  0  0  1  0  0  0  0  0  0
  188.5690  176.6090  136.8020 C   0  0  1  0  0  3  0  0  0  0  0  0
  185.9950  177.6320  134.5940 C   0  0  0  0  0  1  0  0  0  0  0  0
  186.4260  176.8280  135.6510 O   0  0  0  0  0  0  0  0  0  0  0  0
  186.3800  173.9870  135.2640 C   0  0  0  0  0  2  0  0  0  0  0  0
  186.1920  172.6150  135.7070 N   0  0  0  0  0  2  0  0  0  0  0  0
  184.5090  172.2170  135.5770 S   0  0  0  0  0  0  0  0  0  0  0  0
  184.3750  170.8030  135.0850 O   0  0  0  0  0  0  0  0  0  0  0  0
  183.8330  173.1350  134.5970 O   0  0  0  0  0  0  0  0  0  0  0  0
  183.7560  172.3810  137.1280 N   0  0  0  0  0  2  0  0  0  0  0  0
  182.5370  173.1520  136.9380 C   0  0  0  0  0  2  0  0  0  0  0  0
  183.9520  174.7610  137.9990 O   0  0  0  0  0  1  0  0  0  0  0  0
  182.6250  174.4760  137.6770 C   0  0  1  0  0  3  0  0  0  0  0  0
  180.7160  175.3050  136.1510 C   0  0  1  0  0  3  0  0  0  0  0  0
  182.9570  176.3070  136.0020 O   0  0  0  0  0  1  0  0  0  0  0  0
  180.8270  176.3780  137.2350 C   0  0  2  0  0  3  0  0  0  0  0  0
  180.6190  175.9220  134.9030 O   0  0  0  0  0  1  0  0  0  0  0  0
  182.0620  175.5970  136.8040 C   0  0  2  0  0  0  0  0  0  0  0  0
  180.2070  175.8540  138.5220 C   0  0  0  0  0  2  0  0  0  0  0  0
  181.0440  176.1550  139.5970 O   0  0  0  0  0  1  0  0  0  0  0  0
  2 24  1  6  0  0  0
  2 10  1  0  0  0  0
  3  7  1  0  0  0  0
  4  9  2  0  0  0  0
  5 30  1  6  0  0  0
  5  8  1  0  0  0  0
  6  1  1  1  0  0  0
  7  6  1  0  0  0  0
  7 13  1  1  0  0  0
  8  2  1  0  0  0  0
  8  6  1  0  0  0  0
  9  5  1  0  0  0  0
  9  3  1  0  0  0  0
 10  1  1  0  0  0  0
 11 13  2  0  0  0  0
 12 14  1  0  0  0  0
 13 12  1  0  0  0  0
 14 15  1  0  0  0  0
 15 17  1  0  0  0  0
 17 16  1  0  0  0  0
 18 17  1  0  0  0  0
 18 20  1  0  0  0  0
 20 19  2  0  0  0  0
 21 20  1  0  0  0  0
 22 23  1  0  0  0  0
 23 21  1  0  0  0  0
 25 24  1  0  0  0  0
 25 27  1  0  0  0  0
 27 26  1  0  0  0  0
 28 25  1  0  0  0  0
 29 28  1  0  0  0  0
 31 30  1  0  0  0  0
 33 38  1  0  0  0  0
 33 35  1  0  0  0  0
 34 36  1  0  0  0  0
 34 37  1  0  0  0  0
 35 32  1  0  0  0  0
 36 42  1  0  0  0  0
 36 33  1  0  0  0  0
 37 41  1  0  0  0  0
 37 39  1  0  0  0  0
 39 35  1  0  0  0  0
 39 31  1  0  0  0  0
 40 41  1  0  0  0  0
 42 43  1  0  0  0  0
 44 43  1  0  0  0  0
 44 47  1  0  0  0  0
 45 44  2  0  0  0  0
 46 44  2  0  0  0  0
 48 47  1  0  0  0  0
 48 50  1  0  0  0  0
 50 49  1  0  0  0  0
 51 55  1  0  0  0  0
 51 53  1  0  0  0  0
 52 55  1  0  0  0  0
 53 56  1  0  0  0  0
 54 51  1  0  0  0  0
 55 53  1  0  0  0  0
 55 50  1  0  0  0  0
 56 57  1  0  0  0  0
M  END
>  <MODEL>
4

>  <REMARK>
 VINA RESULT:      -5.1      4.350      9.366
  Name = 
  23 active torsions:
  status: ('A' for Active; 'I' for Inactive)
    1  A    between atoms: C_1  and  C_10
    2  A    between atoms: C_2  and  C_35
    3  A    between atoms: N_3  and  C_9
    4  A    between atoms: N_3  and  S_25
    5  A    between atoms: C_7  and  O_38
    6  A    between atoms: C_9  and  C_45
    7  A    between atoms: C_10  and  O_18
    8  A    between atoms: C_10  and  O_38
    9  A    between atoms: C_13  and  O_22
   10  A    between atoms: C_13  and  C_52
   11  A    between atoms: N_15  and  C_16
   12  A    between atoms: N_15  and  S_25
   13  A    between atoms: C_16  and  C_57
   14  A    between atoms: O_22  and  C_29
   15  A    between atoms: N_27  and  O_42
   16  A    between atoms: C_28  and  C_37
   17  A    between atoms: C_33  and  C_43
   18  A    between atoms: N_40  and  O_55
   19  A    between atoms: O_42  and  C_49
   20  A    between atoms: C_43  and  C_51
   21  A    between atoms: C_46  and  O_50
   22  A    between atoms: C_49  and  C_51
   23  A    between atoms: C_54  and  C_57
                            x       y       z     vdW  Elec       q    Type
                         _______ _______ _______ _____ _____    ______ ____

>  <TORSDO>
F 23

$$$$
=
 OpenBabel11042412433D

 57 60  0  0  1  0  0  0  0  0999 V2000
  190.6060  176.6690  142.5400 C   0  0  0  0  0  2  0  0  0  0  0  0
  188.3390  177.4300  143.1000 C   0  0  2  0  0  3  0  0  0  0  0  0
  189.5170  177.5680  139.0160 O   0  0  0  0  0  0  0  0  0  0  0  0
  187.6100  178.7510  138.3150 C   0  0  0  0  0  2  0  0  0  0  0  0
  187.6480  178.0490  140.6830 C   0  0  1  0  0  3  0  0  0  0  0  0
  189.9520  177.3820  141.3790 C   0  0  1  0  0  3  0  0  0  0  0  0
  190.2840  176.8520  139.9920 C   0  0  2  0  0  3  0  0  0  0  0  0
  188.4860  177.1650  141.6190 C   0  0  1  0  0  3  0  0  0  0  0  0
  188.2460  178.1050  139.2820 C   0  0  0  0  0  0  0  0  0  0  0  0
  189.6440  176.8940  143.7020 C   0  0  0  0  0  2  0  0  0  0  0  0
  192.4820  177.6250  140.4970 O   0  0  0  0  0  0  0  0  0  0  0  0
  192.2840  176.4540  138.4860 N   0  0  0  0  0  2  0  0  0  0  0  0
  191.7400  177.0010  139.6910 C   0  0  0  0  0  0  0  0  0  0  0  0
  193.5970  176.5880  138.1820 O   0  0  0  0  0  0  0  0  0  0  0  0
  193.7470  175.9470  136.9500 C   0  0  0  0  0  2  0  0  0  0  0  0
  193.8620  173.5030  137.2740 C   0  0  0  0  0  1  0  0  0  0  0  0
  192.9450  174.6560  136.9270 C   0  0  2  0  0  3  0  0  0  0  0  0
  192.3470  174.4110  135.5490 C   0  0  0  0  0  2  0  0  0  0  0  0
  190.9830  176.2560  134.8950 O   0  0  0  0  0  0  0  0  0  0  0  0
  191.0290  175.1000  135.3970 C   0  0  0  0  0  0  0  0  0  0  0  0
  189.8160  174.4650  135.8080 N   0  0  0  0  0  2  0  0  0  0  0  0
  188.5360  173.0910  136.9250 C   0  0  0  0  0  1  0  0  0  0  0  0
  189.8130  173.2300  136.3640 O   0  0  0  0  0  0  0  0  0  0  0  0
  187.2390  176.7350  143.6170 O   0  0  0  0  0  0  0  0  0  0  0  0
  186.5950  177.6460  144.4670 C   0  0  2  0  0  3  0  0  0  0  0  0
  184.7600  178.8780  144.2690 C   0  0  0  0  0  1  0  0  0  0  0  0
  186.0300  178.6830  143.7180 O   0  0  0  0  0  0  0  0  0  0  0  0
  187.5700  178.2050  145.4970 C   0  0  0  0  0  2  0  0  0  0  0  0
  187.4520  177.4860  146.8310 C   0  0  0  0  0  1  0  0  0  0  0  0
  186.2740  177.7060  140.6920 O   0  0  0  0  0  0  0  0  0  0  0  0
  185.5190  178.8230  140.2890 C   0  0  0  0  0  2  0  0  0  0  0  0
  183.4260  180.3650  138.7750 F   0  0  0  0  0  0  0  0  0  0  0  0
  181.6940  179.2240  139.9640 C   0  0  2  0  0  3  0  0  0  0  0  0
  182.3680  176.9970  139.1160 O   0  0  0  0  0  0  0  0  0  0  0  0
  183.1390  179.7060  139.9600 C   0  0  1  0  0  3  0  0  0  0  0  0
  181.4730  178.0900  138.9460 C   0  0  2  0  0  3  0  0  0  0  0  0
  183.7330  177.4040  139.0870 C   0  0  2  0  0  3  0  0  0  0  0  0
  180.8170  180.2860  139.7290 O   0  0  0  0  0  1  0  0  0  0  0  0
  184.0360  178.4850  140.1370 C   0  0  1  0  0  3  0  0  0  0  0  0
  184.8220  176.6920  137.2870 C   0  0  0  0  0  1  0  0  0  0  0  0
  184.1250  177.7880  137.7980 O   0  0  0  0  0  0  0  0  0  0  0  0
  181.3820  178.5680  137.4950 C   0  0  0  0  0  2  0  0  0  0  0  0
  180.1680  178.0760  136.8650 N   0  0  0  0  0  2  0  0  0  0  0  0
  180.5970  176.8440  135.7220 S   0  0  0  0  0  0  0  0  0  0  0  0
  181.9530  177.1510  135.1530 O   0  0  0  0  0  0  0  0  0  0  0  0
  179.5990  176.8080  134.5980 O   0  0  0  0  0  0  0  0  0  0  0  0
  180.6200  175.3040  136.5160 N   0  0  0  0  0  2  0  0  0  0  0  0
  181.2150  174.3500  135.5940 C   0  0  0  0  0  2  0  0  0  0  0  0
  182.6400  174.1310  137.5000 O   0  0  0  0  0  1  0  0  0  0  0  0
  182.2830  173.5280  136.2940 C   0  0  1  0  0  3  0  0  0  0  0  0
  181.4000  171.3040  135.3290 C   0  0  1  0  0  3  0  0  0  0  0  0
  180.8950  171.9440  137.6490 O   0  0  0  0  0  1  0  0  0  0  0  0
  182.5870  170.8930  136.2010 C   0  0  2  0  0  3  0  0  0  0  0  0
  180.3250  170.4500  135.5840 O   0  0  0  0  0  1  0  0  0  0  0  0
  181.7580  172.1180  136.5650 C   0  0  2  0  0  0  0  0  0  0  0  0
  183.8800  171.2390  135.4790 C   0  0  0  0  0  2  0  0  0  0  0  0
  184.8470  171.6110  136.4120 O   0  0  0  0  0  1  0  0  0  0  0  0
  1 10  1  0  0  0  0
  2 24  1  1  0  0  0
  2 10  1  0  0  0  0
  3  9  1  0  0  0  0
  3  7  1  0  0  0  0
  4  9  2  0  0  0  0
  5 30  1  6  0  0  0
  5  8  1  0  0  0  0
  6  8  1  0  0  0  0
  6  1  1  1  0  0  0
  7 13  1  6  0  0  0
  7  6  1  0  0  0  0
  8  2  1  0  0  0  0
  9  5  1  0  0  0  0
 12 13  1  0  0  0  0
 13 11  2  0  0  0  0
 14 12  1  0  0  0  0
 15 14  1  0  0  0  0
 17 15  1  0  0  0  0
 17 16  1  0  0  0  0
 18 17  1  0  0  0  0
 19 20  2  0  0  0  0
 20 18  1  0  0  0  0
 20 21  1  0  0  0  0
 21 23  1  0  0  0  0
 23 22  1  0  0  0  0
 24 25  1  0  0  0  0
 25 28  1  0  0  0  0
 27 26  1  0  0  0  0
 27 25  1  0  0  0  0
 28 29  1  0  0  0  0
 31 30  1  0  0  0  0
 32 35  1  0  0  0  0
 35 33  1  0  0  0  0
 35 39  1  0  0  0  0
 36 34  1  0  0  0  0
 36 33  1  0  0  0  0
 37 34  1  0  0  0  0
 37 39  1  0  0  0  0
 38 33  1  0  0  0  0
 39 31  1  0  0  0  0
 40 41  1  0  0  0  0
 41 37  1  0  0  0  0
 42 36  1  0  0  0  0
 43 42  1  0  0  0  0
 44 47  1  0  0  0  0
 44 43  1  0  0  0  0
 45 44  2  0  0  0  0
 46 44  2  0  0  0  0
 48 50  1  0  0  0  0
 48 47  1  0  0  0  0
 50 55  1  0  0  0  0
 50 49  1  0  0  0  0
 51 54  1  0  0  0  0
 51 53  1  0  0  0  0
 51 55  1  0  0  0  0
 53 55  1  0  0  0  0
 55 52  1  0  0  0  0
 56 53  1  0  0  0  0
 56 57  1  0  0  0  0
M  END
>  <MODEL>
5

>  <REMARK>
 VINA RESULT:      -5.1      3.589     10.306
  Name = 
  23 active torsions:
  status: ('A' for Active; 'I' for Inactive)
    1  A    between atoms: C_1  and  C_10
    2  A    between atoms: C_2  and  C_35
    3  A    between atoms: N_3  and  C_9
    4  A    between atoms: N_3  and  S_25
    5  A    between atoms: C_7  and  O_38
    6  A    between atoms: C_9  and  C_45
    7  A    between atoms: C_10  and  O_18
    8  A    between atoms: C_10  and  O_38
    9  A    between atoms: C_13  and  O_22
   10  A    between atoms: C_13  and  C_52
   11  A    between atoms: N_15  and  C_16
   12  A    between atoms: N_15  and  S_25
   13  A    between atoms: C_16  and  C_57
   14  A    between atoms: O_22  and  C_29
   15  A    between atoms: N_27  and  O_42
   16  A    between atoms: C_28  and  C_37
   17  A    between atoms: C_33  and  C_43
   18  A    between atoms: N_40  and  O_55
   19  A    between atoms: O_42  and  C_49
   20  A    between atoms: C_43  and  C_51
   21  A    between atoms: C_46  and  O_50
   22  A    between atoms: C_49  and  C_51
   23  A    between atoms: C_54  and  C_57
                            x       y       z     vdW  Elec       q    Type
                         _______ _______ _______ _____ _____    ______ ____

>  <TORSDO>
F 23

$$$$
=
 OpenBabel11042412433D

 57 60  0  0  1  0  0  0  0  0999 V2000
  186.9080  177.5570  142.9470 C   0  0  0  0  0  2  0  0  0  0  0  0
  185.4480  178.5290  141.2260 C   0  0  2  0  0  3  0  0  0  0  0  0
  189.4340  177.5480  140.1120 O   0  0  0  0  0  0  0  0  0  0  0  0
  189.2950  178.5830  138.0060 C   0  0  0  0  0  2  0  0  0  0  0  0
  187.2110  178.5230  139.3300 C   0  0  1  0  0  3  0  0  0  0  0  0
  187.6860  177.9680  141.7180 C   0  0  1  0  0  3  0  0  0  0  0  0
  188.8640  177.0820  141.3420 C   0  0  2  0  0  3  0  0  0  0  0  0
  186.6710  177.8800  140.6170 C   0  0  1  0  0  3  0  0  0  0  0  0
  188.6820  178.1860  139.1120 C   0  0  0  0  0  0  0  0  0  0  0  0
  185.5090  178.1170  142.7020 C   0  0  0  0  0  2  0  0  0  0  0  0
  190.4210  176.0010  142.7880 O   0  0  0  0  0  0  0  0  0  0  0  0
  190.3090  178.3220  143.0160 N   0  0  0  0  0  2  0  0  0  0  0  0
  189.9080  177.0880  142.4110 C   0  0  0  0  0  0  0  0  0  0  0  0
  191.2410  178.3540  143.9980 O   0  0  0  0  0  0  0  0  0  0  0  0
  190.5360  178.7110  145.1500 C   0  0  0  0  0  2  0  0  0  0  0  0
  191.5720  176.5320  145.6730 C   0  0  0  0  0  1  0  0  0  0  0  0
  190.6960  177.6400  146.2180 C   0  0  2  0  0  3  0  0  0  0  0  0
  189.3460  177.0540  146.6070 C   0  0  0  0  0  2  0  0  0  0  0  0
  189.2210  177.8960  148.8350 O   0  0  0  0  0  0  0  0  0  0  0  0
  188.6970  177.8550  147.6900 C   0  0  0  0  0  0  0  0  0  0  0  0
  187.4900  178.5790  147.4440 N   0  0  0  0  0  2  0  0  0  0  0  0
  185.7840  177.6990  146.3990 C   0  0  0  0  0  1  0  0  0  0  0  0
  186.8800  178.5570  146.2350 O   0  0  0  0  0  0  0  0  0  0  0  0
  184.2810  178.0380  140.6280 O   0  0  0  0  0  0  0  0  0  0  0  0
  183.4160  179.1390  140.5500 C   0  0  2  0  0  3  0  0  0  0  0  0
  181.5490  179.0210  141.7440 C   0  0  0  0  0  1  0  0  0  0  0  0
  182.0890  178.7010  140.4940 O   0  0  0  0  0  0  0  0  0  0  0  0
  183.7440  179.9980  139.3350 C   0  0  0  0  0  2  0  0  0  0  0  0
  182.4900  180.5770  138.7010 C   0  0  0  0  0  1  0  0  0  0  0  0
  186.4010  178.2490  138.2000 O   0  0  0  0  0  0  0  0  0  0  0  0
  187.1830  178.3650  137.0360 C   0  0  0  0  0  2  0  0  0  0  0  0
  186.9760  175.4150  137.5850 F   0  0  0  0  0  0  0  0  0  0  0  0
  187.2570  174.9400  135.2590 C   0  0  2  0  0  3  0  0  0  0  0  0
  185.2100  176.1690  134.6020 O   0  0  0  0  0  0  0  0  0  0  0  0
  187.5170  175.9070  136.4080 C   0  0  1  0  0  3  0  0  0  0  0  0
  185.7640  174.8890  134.8870 C   0  0  2  0  0  3  0  0  0  0  0  0
  185.4050  177.0930  135.6680 C   0  0  2  0  0  3  0  0  0  0  0  0
  187.7410  173.6650  135.5660 O   0  0  0  0  0  1  0  0  0  0  0  0
  186.8890  177.2470  136.0370 C   0  0  1  0  0  3  0  0  0  0  0  0
  183.5020  177.6130  136.6880 C   0  0  0  0  0  1  0  0  0  0  0  0
  184.6110  176.7720  136.7770 O   0  0  0  0  0  0  0  0  0  0  0  0
  184.9110  174.0710  135.8590 C   0  0  0  0  0  2  0  0  0  0  0  0
  183.8390  173.3860  135.1550 N   0  0  0  0  0  2  0  0  0  0  0  0
  183.5440  171.8670  135.9390 S   0  0  0  0  0  0  0  0  0  0  0  0
  184.0590  171.9330  137.3490 O   0  0  0  0  0  0  0  0  0  0  0  0
  184.2600  170.7610  135.2140 O   0  0  0  0  0  0  0  0  0  0  0  0
  181.8430  171.5410  135.9410 N   0  0  0  0  0  2  0  0  0  0  0  0
  181.3190  171.9800  137.2260 C   0  0  0  0  0  2  0  0  0  0  0  0
  178.9320  172.0270  137.3450 O   0  0  0  0  0  1  0  0  0  0  0  0
  180.0530  172.7970  137.0330 C   0  0  1  0  0  3  0  0  0  0  0  0
  181.2880  174.9500  137.7370 C   0  0  1  0  0  3  0  0  0  0  0  0
  179.6840  173.8780  139.2610 O   0  0  0  0  0  1  0  0  0  0  0  0
  179.8860  175.4250  137.3560 C   0  0  2  0  0  3  0  0  0  0  0  0
  181.6660  175.5490  138.9400 O   0  0  0  0  0  1  0  0  0  0  0  0
  180.0900  174.0310  137.9340 C   0  0  2  0  0  0  0  0  0  0  0  0
  179.7550  175.4310  135.8410 C   0  0  0  0  0  2  0  0  0  0  0  0
  180.9780  175.7840  135.2700 O   0  0  0  0  0  1  0  0  0  0  0  0
  2 24  1  6  0  0  0
  2 10  1  0  0  0  0
  3  7  1  0  0  0  0
  4  9  2  0  0  0  0
  5 30  1  6  0  0  0
  5  8  1  0  0  0  0
  6  1  1  1  0  0  0
  7  6  1  0  0  0  0
  7 13  1  1  0  0  0
  8  2  1  0  0  0  0
  8  6  1  0  0  0  0
  9  5  1  0  0  0  0
  9  3  1  0  0  0  0
 10  1  1  0  0  0  0
 12 14  1  0  0  0  0
 13 11  2  0  0  0  0
 13 12  1  0  0  0  0
 14 15  1  0  0  0  0
 15 17  1  0  0  0  0
 16 17  1  0  0  0  0
 17 18  1  0  0  0  0
 18 20  1  0  0  0  0
 20 19  2  0  0  0  0
 21 20  1  0  0  0  0
 23 22  1  0  0  0  0
 23 21  1  0  0  0  0
 25 24  1  0  0  0  0
 27 25  1  0  0  0  0
 27 26  1  0  0  0  0
 28 25  1  0  0  0  0
 29 28  1  0  0  0  0
 31 30  1  0  0  0  0
 33 38  1  0  0  0  0
 33 35  1  0  0  0  0
 34 36  1  0  0  0  0
 34 37  1  0  0  0  0
 35 32  1  0  0  0  0
 36 33  1  0  0  0  0
 36 42  1  0  0  0  0
 37 39  1  0  0  0  0
 37 41  1  0  0  0  0
 39 35  1  0  0  0  0
 39 31  1  0  0  0  0
 40 41  1  0  0  0  0
 43 42  1  0  0  0  0
 43 44  1  0  0  0  0
 44 47  1  0  0  0  0
 44 45  2  0  0  0  0
 46 44  2  0  0  0  0
 47 48  1  0  0  0  0
 50 48  1  0  0  0  0
 50 49  1  0  0  0  0
 50 55  1  0  0  0  0
 51 55  1  0  0  0  0
 51 54  1  0  0  0  0
 53 51  1  0  0  0  0
 53 55  1  0  0  0  0
 55 52  1  0  0  0  0
 56 53  1  0  0  0  0
 57 56  1  0  0  0  0
M  END
>  <MODEL>
6

>  <REMARK>
 VINA RESULT:      -5.0      4.841      9.852
  Name = 
  23 active torsions:
  status: ('A' for Active; 'I' for Inactive)
    1  A    between atoms: C_1  and  C_10
    2  A    between atoms: C_2  and  C_35
    3  A    between atoms: N_3  and  C_9
    4  A    between atoms: N_3  and  S_25
    5  A    between atoms: C_7  and  O_38
    6  A    between atoms: C_9  and  C_45
    7  A    between atoms: C_10  and  O_18
    8  A    between atoms: C_10  and  O_38
    9  A    between atoms: C_13  and  O_22
   10  A    between atoms: C_13  and  C_52
   11  A    between atoms: N_15  and  C_16
   12  A    between atoms: N_15  and  S_25
   13  A    between atoms: C_16  and  C_57
   14  A    between atoms: O_22  and  C_29
   15  A    between atoms: N_27  and  O_42
   16  A    between atoms: C_28  and  C_37
   17  A    between atoms: C_33  and  C_43
   18  A    between atoms: N_40  and  O_55
   19  A    between atoms: O_42  and  C_49
   20  A    between atoms: C_43  and  C_51
   21  A    between atoms: C_46  and  O_50
   22  A    between atoms: C_49  and  C_51
   23  A    between atoms: C_54  and  C_57
                            x       y       z     vdW  Elec       q    Type
                         _______ _______ _______ _____ _____    ______ ____

>  <TORSDO>
F 23

$$$$
=
 OpenBabel11042412433D

 57 60  0  0  1  0  0  0  0  0999 V2000
  183.7820  178.2660  143.3900 C   0  0  0  0  0  2  0  0  0  0  0  0
  186.1910  177.8280  143.1840 C   0  0  2  0  0  3  0  0  0  0  0  0
  184.0900  179.0060  139.6790 O   0  0  0  0  0  0  0  0  0  0  0  0
  185.8970  178.5890  138.2340 C   0  0  0  0  0  2  0  0  0  0  0  0
  186.3480  178.3210  140.6480 C   0  0  1  0  0  3  0  0  0  0  0  0
  184.2180  178.1930  141.9450 C   0  0  1  0  0  3  0  0  0  0  0  0
  183.5020  179.1280  140.9800 C   0  0  2  0  0  3  0  0  0  0  0  0
  185.6620  178.5970  141.9950 C   0  0  1  0  0  3  0  0  0  0  0  0
  185.4410  178.6790  139.4750 C   0  0  0  0  0  0  0  0  0  0  0  0
  185.0150  177.8200  144.1700 C   0  0  0  0  0  2  0  0  0  0  0  0
  181.2390  179.3840  141.6850 O   0  0  0  0  0  0  0  0  0  0  0  0
  181.5680  177.8500  139.9560 N   0  0  0  0  0  2  0  0  0  0  0  0
  182.0440  178.8120  140.9020 C   0  0  0  0  0  0  0  0  0  0  0  0
  180.2530  177.5330  139.8750 O   0  0  0  0  0  0  0  0  0  0  0  0
  180.2120  176.3660  139.1090 C   0  0  0  0  0  2  0  0  0  0  0  0
  181.2530  176.7080  136.8960 C   0  0  0  0  0  1  0  0  0  0  0  0
  179.9410  176.7030  137.6510 C   0  0  2  0  0  3  0  0  0  0  0  0
  179.2940  178.0750  137.5210 C   0  0  0  0  0  2  0  0  0  0  0  0
  179.4540  178.6740  135.2180 O   0  0  0  0  0  0  0  0  0  0  0  0
  179.8850  178.8520  136.3890 C   0  0  0  0  0  0  0  0  0  0  0  0
  180.9320  179.7980  136.6160 N   0  0  0  0  0  2  0  0  0  0  0  0
  181.3260  181.4000  138.0490 C   0  0  0  0  0  1  0  0  0  0  0  0
  181.4390  180.0170  137.8530 O   0  0  0  0  0  0  0  0  0  0  0  0
  187.2950  178.4840  143.7430 O   0  0  0  0  0  0  0  0  0  0  0  0
  187.7440  177.6400  144.7690 C   0  0  2  0  0  3  0  0  0  0  0  0
  187.0000  177.9490  146.8360 C   0  0  0  0  0  1  0  0  0  0  0  0
  187.9750  178.3810  145.9310 O   0  0  0  0  0  0  0  0  0  0  0  0
  189.0110  176.9040  144.3460 C   0  0  0  0  0  2  0  0  0  0  0  0
  190.1230  177.0690  145.3690 C   0  0  0  0  0  1  0  0  0  0  0  0
  187.6340  178.9080  140.5590 O   0  0  0  0  0  0  0  0  0  0  0  0
  188.5980  177.9610  140.9530 C   0  0  0  0  0  2  0  0  0  0  0  0
  189.4130  178.7130  138.1560 F   0  0  0  0  0  0  0  0  0  0  0  0
  188.9650  176.4880  137.4040 C   0  0  2  0  0  3  0  0  0  0  0  0
  190.6590  175.4760  138.9000 O   0  0  0  0  0  0  0  0  0  0  0  0
  188.6610  177.5800  138.4230 C   0  0  1  0  0  3  0  0  0  0  0  0
  190.3900  175.9320  137.5780 C   0  0  2  0  0  3  0  0  0  0  0  0
  190.4170  176.4800  139.8800 C   0  0  2  0  0  3  0  0  0  0  0  0
  188.7660  176.9560  136.1020 O   0  0  0  0  0  1  0  0  0  0  0  0
  188.9810  177.0250  139.8070 C   0  0  1  0  0  3  0  0  0  0  0  0
  192.3410  177.1500  140.7630 C   0  0  0  0  0  1  0  0  0  0  0  0
  191.3760  177.5000  139.8170 O   0  0  0  0  0  0  0  0  0  0  0  0
  191.4850  176.8470  137.0270 C   0  0  0  0  0  2  0  0  0  0  0  0
  192.2240  176.1860  135.9650 N   0  0  0  0  0  2  0  0  0  0  0  0
  193.8800  176.0290  136.4570 S   0  0  0  0  0  0  0  0  0  0  0  0
  193.9710  176.2160  137.9450 O   0  0  0  0  0  0  0  0  0  0  0  0
  194.7230  177.0770  135.7850 O   0  0  0  0  0  0  0  0  0  0  0  0
  194.4660  174.4580  136.0180 N   0  0  0  0  0  2  0  0  0  0  0  0
  195.7910  174.3130  136.5990 C   0  0  0  0  0  2  0  0  0  0  0  0
  197.8740  173.3880  135.8760 O   0  0  0  0  0  1  0  0  0  0  0  0
  196.5100  173.1200  135.9920 C   0  0  1  0  0  3  0  0  0  0  0  0
  195.3200  170.8570  136.3400 C   0  0  1  0  0  3  0  0  0  0  0  0
  196.2600  172.0790  138.2560 O   0  0  0  0  0  1  0  0  0  0  0  0
  196.8090  170.5190  136.4310 C   0  0  2  0  0  3  0  0  0  0  0  0
  194.6410  170.2240  137.3840 O   0  0  0  0  0  1  0  0  0  0  0  0
  196.3060  171.8880  136.8740 C   0  0  2  0  0  0  0  0  0  0  0  0
  197.4080  170.5260  135.0330 C   0  0  0  0  0  2  0  0  0  0  0  0
  198.4890  169.6460  134.9870 O   0  0  0  0  0  1  0  0  0  0  0  0
  1 10  1  0  0  0  0
  2 24  1  1  0  0  0
  2 10  1  0  0  0  0
  3  7  1  0  0  0  0
  4  9  2  0  0  0  0
  5 30  1  6  0  0  0
  5  8  1  0  0  0  0
  6  8  1  0  0  0  0
  6  1  1  1  0  0  0
  7 13  1  6  0  0  0
  7  6  1  0  0  0  0
  8  2  1  0  0  0  0
  9  3  1  0  0  0  0
  9  5  1  0  0  0  0
 12 13  1  0  0  0  0
 13 11  2  0  0  0  0
 14 12  1  0  0  0  0
 15 14  1  0  0  0  0
 16 17  1  0  0  0  0
 17 15  1  0  0  0  0
 18 17  1  0  0  0  0
 19 20  2  0  0  0  0
 20 21  1  0  0  0  0
 20 18  1  0  0  0  0
 21 23  1  0  0  0  0
 23 22  1  0  0  0  0
 24 25  1  0  0  0  0
 25 27  1  0  0  0  0
 27 26  1  0  0  0  0
 28 25  1  0  0  0  0
 28 29  1  0  0  0  0
 30 31  1  0  0  0  0
 32 35  1  0  0  0  0
 33 36  1  0  0  0  0
 33 35  1  0  0  0  0
 34 37  1  0  0  0  0
 35 39  1  0  0  0  0
 36 34  1  0  0  0  0
 38 33  1  0  0  0  0
 39 37  1  0  0  0  0
 39 31  1  0  0  0  0
 41 37  1  0  0  0  0
 41 40  1  0  0  0  0
 42 36  1  0  0  0  0
 43 44  1  0  0  0  0
 43 42  1  0  0  0  0
 44 45  2  0  0  0  0
 46 44  2  0  0  0  0
 47 44  1  0  0  0  0
 47 48  1  0  0  0  0
 49 50  1  0  0  0  0
 50 48  1  0  0  0  0
 50 55  1  0  0  0  0
 51 53  1  0  0  0  0
 51 55  1  0  0  0  0
 51 54  1  0  0  0  0
 53 55  1  0  0  0  0
 55 52  1  0  0  0  0
 56 53  1  0  0  0  0
 57 56  1  0  0  0  0
M  END
>  <MODEL>
7

>  <REMARK>
 VINA RESULT:      -4.8      2.094      3.488
  Name = 
  23 active torsions:
  status: ('A' for Active; 'I' for Inactive)
    1  A    between atoms: C_1  and  C_10
    2  A    between atoms: C_2  and  C_35
    3  A    between atoms: N_3  and  C_9
    4  A    between atoms: N_3  and  S_25
    5  A    between atoms: C_7  and  O_38
    6  A    between atoms: C_9  and  C_45
    7  A    between atoms: C_10  and  O_18
    8  A    between atoms: C_10  and  O_38
    9  A    between atoms: C_13  and  O_22
   10  A    between atoms: C_13  and  C_52
   11  A    between atoms: N_15  and  C_16
   12  A    between atoms: N_15  and  S_25
   13  A    between atoms: C_16  and  C_57
   14  A    between atoms: O_22  and  C_29
   15  A    between atoms: N_27  and  O_42
   16  A    between atoms: C_28  and  C_37
   17  A    between atoms: C_33  and  C_43
   18  A    between atoms: N_40  and  O_55
   19  A    between atoms: O_42  and  C_49
   20  A    between atoms: C_43  and  C_51
   21  A    between atoms: C_46  and  O_50
   22  A    between atoms: C_49  and  C_51
   23  A    between atoms: C_54  and  C_57
                            x       y       z     vdW  Elec       q    Type
                         _______ _______ _______ _____ _____    ______ ____

>  <TORSDO>
F 23

$$$$
=
 OpenBabel11042412433D

 57 60  0  0  1  0  0  0  0  0999 V2000
  187.7730  176.7350  143.6650 C   0  0  0  0  0  2  0  0  0  0  0  0
  186.7780  178.3220  142.0760 C   0  0  2  0  0  3  0  0  0  0  0  0
  190.4810  176.5210  141.0130 O   0  0  0  0  0  0  0  0  0  0  0  0
  190.8120  177.8830  139.1260 C   0  0  0  0  0  2  0  0  0  0  0  0
  188.6590  178.1600  140.3050 C   0  0  1  0  0  3  0  0  0  0  0  0
  188.7450  177.1210  142.5740 C   0  0  1  0  0  3  0  0  0  0  0  0
  189.6960  176.0290  142.1050 C   0  0  2  0  0  3  0  0  0  0  0  0
  187.8530  177.4820  141.4240 C   0  0  1  0  0  3  0  0  0  0  0  0
  190.0140  177.4890  140.1070 C   0  0  0  0  0  0  0  0  0  0  0  0
  186.5890  177.6740  143.4530 C   0  0  0  0  0  2  0  0  0  0  0  0
  190.8950  174.3670  143.3250 O   0  0  0  0  0  0  0  0  0  0  0  0
  191.1080  176.5420  144.1460 N   0  0  0  0  0  2  0  0  0  0  0  0
  190.5990  175.5870  143.2110 C   0  0  0  0  0  0  0  0  0  0  0  0
  191.9160  176.1660  145.1670 O   0  0  0  0  0  0  0  0  0  0  0  0
  191.4130  176.8340  146.2870 C   0  0  0  0  0  2  0  0  0  0  0  0
  189.7680  178.6210  145.8470 C   0  0  0  0  0  1  0  0  0  0  0  0
  189.9350  177.1380  146.0980 C   0  0  2  0  0  3  0  0  0  0  0  0
  189.1380  176.7560  147.3380 C   0  0  0  0  0  2  0  0  0  0  0  0
  189.7780  178.4830  148.8530 O   0  0  0  0  0  0  0  0  0  0  0  0
  188.8480  177.9500  148.1890 C   0  0  0  0  0  0  0  0  0  0  0  0
  187.5310  178.5000  148.2580 N   0  0  0  0  0  2  0  0  0  0  0  0
  186.0540  178.9760  146.7200 C   0  0  0  0  0  1  0  0  0  0  0  0
  186.4960  177.9560  147.5750 O   0  0  0  0  0  0  0  0  0  0  0  0
  185.5890  178.2590  141.3380 O   0  0  0  0  0  0  0  0  0  0  0  0
  184.6450  178.9600  142.1010 C   0  0  2  0  0  3  0  0  0  0  0  0
  183.4760  179.0780  143.9830 C   0  0  0  0  0  1  0  0  0  0  0  0
  184.3650  178.2600  143.2780 O   0  0  0  0  0  0  0  0  0  0  0  0
  183.3660  179.1870  141.3010 C   0  0  0  0  0  2  0  0  0  0  0  0
  182.8410  177.8920  140.7030 C   0  0  0  0  0  1  0  0  0  0  0  0
  187.9210  178.2950  139.1040 O   0  0  0  0  0  0  0  0  0  0  0  0
  188.8050  178.2190  138.0110 C   0  0  0  0  0  2  0  0  0  0  0  0
  187.8660  175.3760  137.7100 F   0  0  0  0  0  0  0  0  0  0  0  0
  187.8300  175.6170  135.3310 C   0  0  2  0  0  3  0  0  0  0  0  0
  186.1370  177.4240  135.3860 O   0  0  0  0  0  0  0  0  0  0  0  0
  188.4250  176.0810  136.6550 C   0  0  1  0  0  3  0  0  0  0  0  0
  186.3520  176.0290  135.1990 C   0  0  2  0  0  3  0  0  0  0  0  0
  186.6520  177.8900  136.6300 C   0  0  2  0  0  3  0  0  0  0  0  0
  187.9810  174.2360  135.1780 O   0  0  0  0  0  1  0  0  0  0  0  0
  188.1480  177.5750  136.7900 C   0  0  1  0  0  3  0  0  0  0  0  0
  184.9180  178.3990  137.9200 C   0  0  0  0  0  1  0  0  0  0  0  0
  185.8910  177.4210  137.7080 O   0  0  0  0  0  0  0  0  0  0  0  0
  185.3910  175.1620  136.0150 C   0  0  0  0  0  2  0  0  0  0  0  0
  184.1470  174.9520  135.2930 N   0  0  0  0  0  2  0  0  0  0  0  0
  182.8420  174.9240  136.4350 S   0  0  0  0  0  0  0  0  0  0  0  0
  183.3630  175.3260  137.7870 O   0  0  0  0  0  0  0  0  0  0  0  0
  182.2660  173.5390  136.5320 O   0  0  0  0  0  0  0  0  0  0  0  0
  181.6040  176.0230  135.9240 N   0  0  0  0  0  2  0  0  0  0  0  0
  181.7460  177.2340  136.7170 C   0  0  0  0  0  2  0  0  0  0  0  0
  180.0780  177.9190  135.1470 O   0  0  0  0  0  1  0  0  0  0  0  0
  181.0320  178.3960  136.0470 C   0  0  1  0  0  3  0  0  0  0  0  0
  181.2510  180.2530  137.8240 C   0  0  1  0  0  3  0  0  0  0  0  0
  179.3800  178.6600  137.9090 O   0  0  0  0  0  1  0  0  0  0  0  0
  180.1590  180.7590  136.8820 C   0  0  2  0  0  3  0  0  0  0  0  0
  180.8410  180.4380  139.1460 O   0  0  0  0  0  1  0  0  0  0  0  0
  180.3470  179.2630  137.1020 C   0  0  2  0  0  0  0  0  0  0  0  0
  180.8000  181.2590  135.5960 C   0  0  0  0  0  2  0  0  0  0  0  0
  179.8270  181.3630  134.6020 O   0  0  0  0  0  1  0  0  0  0  0  0
  2 24  1  6  0  0  0
  2 10  1  0  0  0  0
  3  7  1  0  0  0  0
  4  9  2  0  0  0  0
  5 30  1  6  0  0  0
  5  8  1  0  0  0  0
  6  1  1  1  0  0  0
  7  6  1  0  0  0  0
  7 13  1  1  0  0  0
  8  2  1  0  0  0  0
  8  6  1  0  0  0  0
  9  5  1  0  0  0  0
  9  3  1  0  0  0  0
 10  1  1  0  0  0  0
 12 14  1  0  0  0  0
 13 11  2  0  0  0  0
 13 12  1  0  0  0  0
 14 15  1  0  0  0  0
 16 17  1  0  0  0  0
 17 15  1  0  0  0  0
 17 18  1  0  0  0  0
 18 20  1  0  0  0  0
 20 21  1  0  0  0  0
 20 19  2  0  0  0  0
 22 23  1  0  0  0  0
 23 21  1  0  0  0  0
 24 25  1  0  0  0  0
 25 27  1  0  0  0  0
 27 26  1  0  0  0  0
 28 25  1  0  0  0  0
 29 28  1  0  0  0  0
 31 30  1  0  0  0  0
 33 35  1  0  0  0  0
 34 37  1  0  0  0  0
 35 39  1  0  0  0  0
 35 32  1  0  0  0  0
 36 33  1  0  0  0  0
 36 34  1  0  0  0  0
 36 42  1  0  0  0  0
 37 39  1  0  0  0  0
 37 41  1  0  0  0  0
 38 33  1  0  0  0  0
 39 31  1  0  0  0  0
 41 40  1  0  0  0  0
 43 42  1  0  0  0  0
 43 44  1  0  0  0  0
 44 46  2  0  0  0  0
 44 45  2  0  0  0  0
 47 44  1  0  0  0  0
 47 48  1  0  0  0  0
 49 50  1  0  0  0  0
 50 48  1  0  0  0  0
 50 55  1  0  0  0  0
 51 54  1  0  0  0  0
 53 55  1  0  0  0  0
 53 51  1  0  0  0  0
 55 51  1  0  0  0  0
 55 52  1  0  0  0  0
 56 53  1  0  0  0  0
 57 56  1  0  0  0  0
M  END
>  <MODEL>
8

>  <REMARK>
 VINA RESULT:      -4.8      4.508      9.991
  Name = 
  23 active torsions:
  status: ('A' for Active; 'I' for Inactive)
    1  A    between atoms: C_1  and  C_10
    2  A    between atoms: C_2  and  C_35
    3  A    between atoms: N_3  and  C_9
    4  A    between atoms: N_3  and  S_25
    5  A    between atoms: C_7  and  O_38
    6  A    between atoms: C_9  and  C_45
    7  A    between atoms: C_10  and  O_18
    8  A    between atoms: C_10  and  O_38
    9  A    between atoms: C_13  and  O_22
   10  A    between atoms: C_13  and  C_52
   11  A    between atoms: N_15  and  C_16
   12  A    between atoms: N_15  and  S_25
   13  A    between atoms: C_16  and  C_57
   14  A    between atoms: O_22  and  C_29
   15  A    between atoms: N_27  and  O_42
   16  A    between atoms: C_28  and  C_37
   17  A    between atoms: C_33  and  C_43
   18  A    between atoms: N_40  and  O_55
   19  A    between atoms: O_42  and  C_49
   20  A    between atoms: C_43  and  C_51
   21  A    between atoms: C_46  and  O_50
   22  A    between atoms: C_49  and  C_51
   23  A    between atoms: C_54  and  C_57
                            x       y       z     vdW  Elec       q    Type
                         _______ _______ _______ _____ _____    ______ ____

>  <TORSDO>
F 23

$$$$
=
 OpenBabel11042412433D

 57 60  0  0  1  0  0  0  0  0999 V2000
  193.2560  176.1610  138.2320 C   0  0  0  0  0  2  0  0  0  0  0  0
  190.9170  176.8700  138.4770 C   0  0  2  0  0  3  0  0  0  0  0  0
  191.7610  173.7690  135.6910 O   0  0  0  0  0  0  0  0  0  0  0  0
  189.5930  173.7450  134.7830 C   0  0  0  0  0  2  0  0  0  0  0  0
  189.9460  175.2370  136.7200 C   0  0  1  0  0  3  0  0  0  0  0  0
  192.3810  175.5950  137.1380 C   0  0  1  0  0  3  0  0  0  0  0  0
  192.7330  174.1960  136.6530 C   0  0  2  0  0  3  0  0  0  0  0  0
  191.0230  175.5370  137.7730 C   0  0  1  0  0  3  0  0  0  0  0  0
  190.4210  174.1930  135.7140 C   0  0  0  0  0  0  0  0  0  0  0  0
  192.3470  177.1470  138.9590 C   0  0  0  0  0  2  0  0  0  0  0  0
  194.7630  175.2290  135.9480 O   0  0  0  0  0  0  0  0  0  0  0  0
  194.6260  172.9350  135.5340 N   0  0  0  0  0  2  0  0  0  0  0  0
  194.0940  174.1640  136.0370 C   0  0  0  0  0  0  0  0  0  0  0  0
  195.8510  172.8810  134.9570 O   0  0  0  0  0  0  0  0  0  0  0  0
  196.5810  171.9910  135.7480 C   0  0  0  0  0  2  0  0  0  0  0  0
  198.9320  171.6740  136.4340 C   0  0  0  0  0  1  0  0  0  0  0  0
  197.8080  172.6820  136.3230 C   0  0  2  0  0  3  0  0  0  0  0  0
  197.5160  173.2490  137.7060 C   0  0  0  0  0  2  0  0  0  0  0  0
  198.6780  175.1670  136.8940 O   0  0  0  0  0  0  0  0  0  0  0  0
  198.0920  174.6190  137.8660 C   0  0  0  0  0  0  0  0  0  0  0  0
  197.9840  175.3200  139.1070 N   0  0  0  0  0  2  0  0  0  0  0  0
  197.3680  175.7850  141.1510 C   0  0  0  0  0  1  0  0  0  0  0  0
  197.3760  174.7700  140.1840 O   0  0  0  0  0  0  0  0  0  0  0  0
  190.0400  176.7840  139.5660 O   0  0  0  0  0  0  0  0  0  0  0  0
  188.9850  177.6540  139.2580 C   0  0  2  0  0  3  0  0  0  0  0  0
  188.3810  178.6810  137.3870 C   0  0  0  0  0  1  0  0  0  0  0  0
  189.4090  178.6120  138.3320 O   0  0  0  0  0  0  0  0  0  0  0  0
  188.4600  178.3310  140.5200 C   0  0  0  0  0  2  0  0  0  0  0  0
  189.2370  177.9010  141.7530 C   0  0  0  0  0  1  0  0  0  0  0  0
  188.6890  174.9260  137.2960 O   0  0  0  0  0  0  0  0  0  0  0  0
  187.7090  174.9250  136.2860 C   0  0  0  0  0  2  0  0  0  0  0  0
  185.3900  176.5700  135.3040 F   0  0  0  0  0  0  0  0  0  0  0  0
  184.2700  176.2810  137.3960 C   0  0  2  0  0  3  0  0  0  0  0  0
  184.1550  173.8180  137.1700 O   0  0  0  0  0  0  0  0  0  0  0  0
  185.5990  176.3270  136.6520 C   0  0  1  0  0  3  0  0  0  0  0  0
  183.4450  175.0410  137.0070 C   0  0  2  0  0  3  0  0  0  0  0  0
  185.3900  173.8090  136.4620 C   0  0  2  0  0  3  0  0  0  0  0  0
  183.5420  177.4550  137.1820 O   0  0  0  0  0  1  0  0  0  0  0  0
  186.2950  174.9860  136.8630 C   0  0  1  0  0  3  0  0  0  0  0  0
  185.1090  172.3810  134.7850 C   0  0  0  0  0  1  0  0  0  0  0  0
  185.1870  173.7430  135.0770 O   0  0  0  0  0  0  0  0  0  0  0  0
  182.7570  175.1560  135.6450 C   0  0  0  0  0  2  0  0  0  0  0  0
  181.5040  174.4200  135.6360 N   0  0  0  0  0  2  0  0  0  0  0  0
  180.2170  175.5130  136.0340 S   0  0  0  0  0  0  0  0  0  0  0  0
  178.9940  175.1420  135.2430 O   0  0  0  0  0  0  0  0  0  0  0  0
  180.6070  176.9230  135.6860 O   0  0  0  0  0  0  0  0  0  0  0  0
  179.8810  175.4150  137.7300 N   0  0  0  0  0  2  0  0  0  0  0  0
  180.2000  176.7100  138.3100 C   0  0  0  0  0  2  0  0  0  0  0  0
  181.1370  175.3460  140.0360 O   0  0  0  0  0  1  0  0  0  0  0  0
  180.5100  176.5690  139.7910 C   0  0  1  0  0  3  0  0  0  0  0  0
  181.1510  179.0600  139.5940 C   0  0  1  0  0  3  0  0  0  0  0  0
  182.7740  177.4180  140.4390 O   0  0  0  0  0  1  0  0  0  0  0  0
  180.8820  178.8550  141.0850 C   0  0  2  0  0  3  0  0  0  0  0  0
  182.3320  179.7890  139.4360 O   0  0  0  0  0  1  0  0  0  0  0  0
  181.4230  177.7080  140.2410 C   0  0  2  0  0  0  0  0  0  0  0  0
  179.3810  178.7720  141.3150 C   0  0  0  0  0  2  0  0  0  0  0  0
  179.0940  177.6650  142.1150 O   0  0  0  0  0  1  0  0  0  0  0  0
  1 10  1  0  0  0  0
  2 10  1  0  0  0  0
  2 24  1  1  0  0  0
  3  9  1  0  0  0  0
  3  7  1  0  0  0  0
  4  9  2  0  0  0  0
  5 30  1  1  0  0  0
  5  8  1  0  0  0  0
  6  8  1  0  0  0  0
  6  1  1  1  0  0  0
  7 13  1  6  0  0  0
  7  6  1  0  0  0  0
  8  2  1  0  0  0  0
  9  5  1  0  0  0  0
 11 13  2  0  0  0  0
 12 13  1  0  0  0  0
 14 12  1  0  0  0  0
 14 15  1  0  0  0  0
 15 17  1  0  0  0  0
 17 16  1  0  0  0  0
 17 18  1  0  0  0  0
 18 20  1  0  0  0  0
 19 20  2  0  0  0  0
 20 21  1  0  0  0  0
 21 23  1  0  0  0  0
 23 22  1  0  0  0  0
 25 24  1  0  0  0  0
 25 28  1  0  0  0  0
 26 27  1  0  0  0  0
 27 25  1  0  0  0  0
 28 29  1  0  0  0  0
 31 39  1  0  0  0  0
 31 30  1  0  0  0  0
 32 35  1  0  0  0  0
 35 39  1  0  0  0  0
 35 33  1  0  0  0  0
 36 34  1  0  0  0  0
 36 33  1  0  0  0  0
 37 39  1  0  0  0  0
 37 34  1  0  0  0  0
 38 33  1  0  0  0  0
 40 41  1  0  0  0  0
 41 37  1  0  0  0  0
 42 36  1  0  0  0  0
 43 42  1  0  0  0  0
 43 44  1  0  0  0  0
 44 47  1  0  0  0  0
 45 44  2  0  0  0  0
 46 44  2  0  0  0  0
 47 48  1  0  0  0  0
 48 50  1  0  0  0  0
 50 49  1  0  0  0  0
 50 55  1  0  0  0  0
 51 55  1  0  0  0  0
 51 53  1  0  0  0  0
 53 56  1  0  0  0  0
 54 51  1  0  0  0  0
 55 52  1  0  0  0  0
 55 53  1  0  0  0  0
 56 57  1  0  0  0  0
M  END
>  <MODEL>
9

>  <REMARK>
 VINA RESULT:      -4.7      3.285     12.738
  Name = 
  23 active torsions:
  status: ('A' for Active; 'I' for Inactive)
    1  A    between atoms: C_1  and  C_10
    2  A    between atoms: C_2  and  C_35
    3  A    between atoms: N_3  and  C_9
    4  A    between atoms: N_3  and  S_25
    5  A    between atoms: C_7  and  O_38
    6  A    between atoms: C_9  and  C_45
    7  A    between atoms: C_10  and  O_18
    8  A    between atoms: C_10  and  O_38
    9  A    between atoms: C_13  and  O_22
   10  A    between atoms: C_13  and  C_52
   11  A    between atoms: N_15  and  C_16
   12  A    between atoms: N_15  and  S_25
   13  A    between atoms: C_16  and  C_57
   14  A    between atoms: O_22  and  C_29
   15  A    between atoms: N_27  and  O_42
   16  A    between atoms: C_28  and  C_37
   17  A    between atoms: C_33  and  C_43
   18  A    between atoms: N_40  and  O_55
   19  A    between atoms: O_42  and  C_49
   20  A    between atoms: C_43  and  C_51
   21  A    between atoms: C_46  and  O_50
   22  A    between atoms: C_49  and  C_51
   23  A    between atoms: C_54  and  C_57
                            x       y       z     vdW  Elec       q    Type
                         _______ _______ _______ _____ _____    ______ ____

>  <TORSDO>
F 23

$$$$
