=
 OpenBabel11042413273D

 56 63  0  0  1  0  0  0  0  0999 V2000
  190.6290  175.2630  137.9950 C   0  0  0  0  0  2  0  0  0  0  0  0
  188.7010  177.7250  136.4060 C   0  0  0  0  0  2  0  0  0  0  0  0
  184.5760  177.8030  137.8580 C   0  0  0  0  0  3  0  0  0  0  0  0
  187.7340  176.5810  136.3160 C   0  0  0  0  0  0  0  0  0  0  0  0
  185.8180  177.7840  137.3870 C   0  0  0  0  0  0  0  0  0  0  0  0
  184.1560  173.7650  135.9670 N   0  0  0  0  0  0  0  0  0  0  0  0
  189.6610  177.6390  137.5840 C   0  0  2  0  0  3  0  0  0  0  0  0
  190.7920  176.6360  137.3360 C   0  0  0  0  0  2  0  0  0  0  0  0
  188.0190  175.3250  135.5160 C   0  0  1  0  0  3  0  0  0  0  0  0
  183.5160  176.7770  137.9430 C   0  0  0  0  0  0  0  0  0  0  0  0
  189.3170  174.5580  137.6600 C   0  0  0  0  0  2  0  0  0  0  0  0
  183.5500  175.6060  137.3840 N   0  0  0  0  0  0  0  0  0  0  0  0
  189.0400  174.3740  136.1610 C   0  0  2  0  0  3  0  0  0  0  0  0
  186.5030  178.9510  137.4900 F   0  0  0  0  0  0  0  0  0  0  0  0
  186.3060  173.4850  134.9580 C   0  0  0  0  0  3  0  0  0  0  0  0
  186.6810  174.6830  135.5560 C   0  0  0  0  0  0  0  0  0  0  0  0
  185.7990  175.4200  136.3170 C   0  0  0  0  0  0  0  0  0  0  0  0
  184.5100  174.9500  136.5450 C   0  0  0  0  0  0  0  0  0  0  0  0
  186.4630  176.6250  136.7560 C   0  0  0  0  0  0  0  0  0  0  0  0
  185.0020  173.0400  135.1830 C   0  0  0  0  0  3  0  0  0  0  0  0
  182.4230  177.7570  139.8350 C   0  0  0  0  0  3  0  0  0  0  0  0
  182.3550  177.0910  138.7200 N   0  0  0  0  0  0  0  0  0  0  0  0
  181.1850  177.9900  140.6410 C   0  0  0  0  0  2  0  0  0  0  0  0
  181.3690  179.1710  141.4690 N   0  0  0  0  0  0  0  0  0  0  0  0
  180.2200  179.8990  141.3670 O   0  0  0  0  0  1  0  0  0  0  0  0
  182.4290  179.6340  143.6110 C   0  0  0  0  0  2  0  0  0  0  0  0
  182.9140  178.2870  143.1180 C   0  0  0  0  0  2  0  0  0  0  0  0
  181.4830  178.7200  142.8460 C   0  0  0  0  0  3  0  0  0  0  0  0
  190.2220  174.0620  135.2980 C   0  0  0  0  0  3  0  0  0  0  0  0
  190.8830  172.9290  135.4600 C   0  0  0  0  0  3  0  0  0  0  0  0
  192.0500  172.6080  134.5950 C   0  0  0  0  0  2  0  0  0  0  0  0
  193.1490  173.6300  134.8170 C   0  0  0  0  0  2  0  0  0  0  0  0
  193.6660  173.5660  136.2450 C   0  0  0  0  0  2  0  0  0  0  0  0
  195.8420  172.2860  136.9080 C   0  0  1  0  0  3  0  0  0  0  0  0
  195.2000  173.5760  136.2680 C   0  0  2  0  0  3  0  0  0  0  0  0
  195.3910  175.9800  136.1520 O   0  0  0  0  0  1  0  0  0  0  0  0
  197.3120  174.7580  136.8860 C   0  0  2  0  0  0  0  0  0  0  0  0
  197.2300  172.4470  137.1880 O   0  0  0  0  0  0  0  0  0  0  0  0
  197.7790  174.3660  135.6240 O   0  0  0  0  0  1  0  0  0  0  0  0
  198.4590  174.5400  137.8820 C   0  0  2  0  0  3  0  0  0  0  0  0
  197.3060  173.6260  137.9450 C   0  0  1  0  0  3  0  0  0  0  0  0
  195.7870  174.8730  136.9000 C   0  0  2  0  0  3  0  0  0  0  0  0
  198.3600  175.5340  138.9370 N   0  0  0  0  0  2  0  0  0  0  0  0
  197.3410  175.1510  139.7470 O   0  0  0  0  0  1  0  0  0  0  0  0
  195.0890  171.7260  138.1230 C   0  0  0  0  0  2  0  0  0  0  0  0
  195.5940  170.4600  138.4270 O   0  0  0  0  0  1  0  0  0  0  0  0
  188.9760  177.4920  138.9420 C   0  0  0  0  0  2  0  0  0  0  0  0
  189.9410  177.8390  140.0670 C   0  0  0  0  0  2  0  0  0  0  0  0
  191.5930  177.3680  142.7160 S   0  0  0  0  0  0  0  0  0  0  0  0
  189.1070  177.3930  143.7520 N   0  0  0  0  0  0  0  0  0  0  0  0
  189.8250  177.5030  142.5320 C   0  0  0  0  0  0  0  0  0  0  0  0
  189.9750  177.3560  144.9200 C   0  0  0  0  0  2  0  0  0  0  0  0
  189.2190  177.7500  141.3690 C   0  0  0  0  0  3  0  0  0  0  0  0
  191.3740  177.8000  144.4830 C   0  0  0  0  0  2  0  0  0  0  0  0
  187.2400  177.6120  145.3090 C   0  0  0  0  0  1  0  0  0  0  0  0
  187.6760  177.6280  143.8550 C   0  0  0  0  0  2  0  0  0  0  0  0
  2  7  1  0  0  0  0
  3 10  1  0  0  0  0
  4  2  1  0  0  0  0
  4 19  2  0  0  0  0
  5 14  1  0  0  0  0
  5  3  2  0  0  0  0
  6 18  2  0  0  0  0
  7 47  1  1  0  0  0
  8  7  1  0  0  0  0
  8  1  1  0  0  0  0
  9 16  1  1  0  0  0
  9 13  1  0  0  0  0
  9  4  1  0  0  0  0
 10 22  1  0  0  0  0
 11  1  1  0  0  0  0
 12 10  2  0  0  0  0
 13 29  1  6  0  0  0
 13 11  1  0  0  0  0
 15 20  2  0  0  0  0
 15 16  1  0  0  0  0
 16 17  2  0  0  0  0
 17 18  1  0  0  0  0
 17 19  1  0  0  0  0
 18 12  1  0  0  0  0
 19  5  1  0  0  0  0
 20  6  1  0  0  0  0
 21 23  1  0  0  0  0
 22 21  2  0  0  0  0
 23 24  1  0  0  0  0
 24 28  1  0  0  0  0
 25 24  1  0  0  0  0
 27 26  1  0  0  0  0
 28 27  1  0  0  0  0
 28 26  1  0  0  0  0
 29 30  2  0  0  0  0
 31 32  1  0  0  0  0
 31 30  1  0  0  0  0
 32 33  1  0  0  0  0
 34 38  1  0  0  0  0
 34 45  1  1  0  0  0
 35 33  1  1  0  0  0
 35 42  1  0  0  0  0
 35 34  1  0  0  0  0
 37 39  1  6  0  0  0
 37 42  1  0  0  0  0
 37 40  1  0  0  0  0
 37 41  1  0  0  0  0
 40 41  1  0  0  0  0
 40 43  1  1  0  0  0
 41 38  1  6  0  0  0
 42 36  1  6  0  0  0
 43 44  1  0  0  0  0
 45 46  1  0  0  0  0
 47 48  1  0  0  0  0
 48 53  1  0  0  0  0
 49 54  1  0  0  0  0
 50 56  1  0  0  0  0
 50 52  1  0  0  0  0
 51 49  1  0  0  0  0
 51 50  1  0  0  0  0
 53 51  2  0  0  0  0
 54 52  1  0  0  0  0
 56 55  1  0  0  0  0
M  END
>  <MODEL>
1

>  <REMARK>
 VINA RESULT:      -6.9      0.000      0.000
  Name = 
  15 active torsions:
  status: ('A' for Active; 'I' for Inactive)
    1  A    between atoms: C_2  and  C_35
    2  A    between atoms: C_4  and  C_14
    3  A    between atoms: C_6  and  C_9
    4  A    between atoms: C_9  and  C_33
    5  A    between atoms: C_10  and  C_16
    6  A    between atoms: C_10  and  C_25
    7  A    between atoms: N_11  and  C_49
    8  A    between atoms: C_12  and  C_40
    9  A    between atoms: C_16  and  C_47
   10  A    between atoms: N_19  and  C_42
   11  A    between atoms: N_23  and  C_29
   12  A    between atoms: N_24  and  C_35
   13  A    between atoms: N_24  and  C_53
   14  A    between atoms: C_32  and  C_33
   15  A    between atoms: C_32  and  C_56
                            x       y       z     vdW  Elec       q    Type
                         _______ _______ _______ _____ _____    ______ ____

>  <TORSDO>
F 15

$$$$
=
 OpenBabel11042413273D

 56 63  0  0  1  0  0  0  0  0999 V2000
  187.6200  177.6020  139.0450 C   0  0  0  0  0  2  0  0  0  0  0  0
  186.7430  177.6590  135.6490 C   0  0  0  0  0  2  0  0  0  0  0  0
  183.7910  174.5930  134.6410 C   0  0  0  0  0  3  0  0  0  0  0  0
  186.9460  176.1810  135.8100 C   0  0  0  0  0  0  0  0  0  0  0  0
  184.7030  175.5180  134.9190 C   0  0  0  0  0  0  0  0  0  0  0  0
  187.0120  171.6210  135.5620 N   0  0  0  0  0  0  0  0  0  0  0  0
  186.3280  178.3730  136.9270 C   0  0  2  0  0  3  0  0  0  0  0  0
  187.5090  178.5880  137.8790 C   0  0  0  0  0  2  0  0  0  0  0  0
  188.2910  175.5690  136.1500 C   0  0  1  0  0  3  0  0  0  0  0  0
  183.7640  173.1240  134.8060 C   0  0  0  0  0  0  0  0  0  0  0  0
  187.6380  176.1340  138.6240 C   0  0  0  0  0  2  0  0  0  0  0  0
  184.7750  172.3820  135.1380 N   0  0  0  0  0  0  0  0  0  0  0  0
  188.7290  175.7590  137.6120 C   0  0  2  0  0  3  0  0  0  0  0  0
  184.3540  176.7950  134.6220 F   0  0  0  0  0  0  0  0  0  0  0  0
  188.8580  173.0580  136.0620 C   0  0  0  0  0  3  0  0  0  0  0  0
  187.9850  174.1330  135.9290 C   0  0  0  0  0  0  0  0  0  0  0  0
  186.6610  173.9530  135.5900 C   0  0  0  0  0  0  0  0  0  0  0  0
  186.1510  172.6710  135.4150 C   0  0  0  0  0  0  0  0  0  0  0  0
  186.0330  175.2490  135.4830 C   0  0  0  0  0  0  0  0  0  0  0  0
  188.3320  171.7800  135.8640 C   0  0  0  0  0  3  0  0  0  0  0  0
  181.4450  172.7530  135.2760 C   0  0  0  0  0  3  0  0  0  0  0  0
  182.5140  172.4600  134.5940 N   0  0  0  0  0  0  0  0  0  0  0  0
  180.1880  171.9740  135.0630 C   0  0  0  0  0  2  0  0  0  0  0  0
  179.2950  172.1880  136.1910 N   0  0  0  0  0  0  0  0  0  0  0  0
  179.2150  170.9970  136.8520 O   0  0  0  0  0  1  0  0  0  0  0  0
  178.9480  173.6210  138.1270 C   0  0  0  0  0  2  0  0  0  0  0  0
  179.2700  174.4970  136.9340 C   0  0  0  0  0  2  0  0  0  0  0  0
  179.9410  173.1400  137.0780 C   0  0  0  0  0  3  0  0  0  0  0  0
  190.0530  176.4380  137.7740 C   0  0  0  0  0  3  0  0  0  0  0  0
  190.7620  176.2570  138.8740 C   0  0  0  0  0  3  0  0  0  0  0  0
  192.0850  176.9190  139.0340 C   0  0  0  0  0  2  0  0  0  0  0  0
  192.2840  177.3200  140.4840 C   0  0  0  0  0  2  0  0  0  0  0  0
  191.2270  176.6820  141.3710 C   0  0  0  0  0  2  0  0  0  0  0  0
  191.8840  176.6560  143.8980 C   0  0  1  0  0  3  0  0  0  0  0  0
  191.1450  177.4040  142.7220 C   0  0  2  0  0  3  0  0  0  0  0  0
  189.1490  178.6460  142.1690 O   0  0  0  0  0  1  0  0  0  0  0  0
  189.7300  178.4700  144.4830 C   0  0  2  0  0  0  0  0  0  0  0  0
  191.5450  177.1810  145.1780 O   0  0  0  0  0  0  0  0  0  0  0  0
  190.7030  179.4770  144.5100 O   0  0  0  0  0  1  0  0  0  0  0  0
  189.3490  178.1680  145.9390 C   0  0  2  0  0  3  0  0  0  0  0  0
  190.1420  177.1640  145.2090 C   0  0  1  0  0  3  0  0  0  0  0  0
  189.6860  177.7790  143.1190 C   0  0  2  0  0  3  0  0  0  0  0  0
  187.9560  177.7590  145.9860 N   0  0  0  0  0  2  0  0  0  0  0  0
  187.5050  178.0370  147.2360 O   0  0  0  0  0  1  0  0  0  0  0  0
  191.7580  175.1260  143.8680 C   0  0  0  0  0  2  0  0  0  0  0  0
  192.4870  174.5900  144.9320 O   0  0  0  0  0  1  0  0  0  0  0  0
  185.0800  177.7960  137.5930 C   0  0  0  0  0  2  0  0  0  0  0  0
  184.3510  178.8710  138.3850 C   0  0  0  0  0  2  0  0  0  0  0  0
  181.6950  180.5630  138.6100 S   0  0  0  0  0  0  0  0  0  0  0  0
  180.8930  178.3240  139.8750 N   0  0  0  0  0  0  0  0  0  0  0  0
  182.0060  178.9180  139.2230 C   0  0  0  0  0  0  0  0  0  0  0  0
  179.6790  179.1190  139.7630 C   0  0  0  0  0  2  0  0  0  0  0  0
  183.1540  178.2640  139.0370 C   0  0  0  0  0  3  0  0  0  0  0  0
  179.9040  180.1760  138.6780 C   0  0  0  0  0  2  0  0  0  0  0  0
  179.4490  176.4770  140.5550 C   0  0  0  0  0  1  0  0  0  0  0  0
  180.8750  176.9370  140.3110 C   0  0  0  0  0  2  0  0  0  0  0  0
  2  4  1  0  0  0  0
  2  7  1  0  0  0  0
  3 10  1  0  0  0  0
  3  5  2  0  0  0  0
  5 19  1  0  0  0  0
  6 20  1  0  0  0  0
  7 47  1  1  0  0  0
  7  8  1  0  0  0  0
  8  1  1  0  0  0  0
  9  4  1  1  0  0  0
  9 13  1  0  0  0  0
 10 12  2  0  0  0  0
 11  1  1  0  0  0  0
 12 18  1  0  0  0  0
 13 29  1  6  0  0  0
 13 11  1  0  0  0  0
 14  5  1  0  0  0  0
 16 15  1  0  0  0  0
 16  9  1  0  0  0  0
 17 16  2  0  0  0  0
 18  6  2  0  0  0  0
 18 17  1  0  0  0  0
 19 17  1  0  0  0  0
 19  4  2  0  0  0  0
 20 15  2  0  0  0  0
 22 10  1  0  0  0  0
 22 21  2  0  0  0  0
 23 21  1  0  0  0  0
 23 24  1  0  0  0  0
 24 25  1  0  0  0  0
 24 28  1  0  0  0  0
 27 28  1  0  0  0  0
 27 26  1  0  0  0  0
 28 26  1  0  0  0  0
 29 30  2  0  0  0  0
 30 31  1  0  0  0  0
 31 32  1  0  0  0  0
 32 33  1  0  0  0  0
 34 45  1  1  0  0  0
 34 38  1  0  0  0  0
 35 33  1  6  0  0  0
 35 42  1  0  0  0  0
 35 34  1  0  0  0  0
 37 39  1  1  0  0  0
 37 41  1  0  0  0  0
 37 40  1  0  0  0  0
 40 43  1  6  0  0  0
 41 38  1  1  0  0  0
 41 40  1  0  0  0  0
 42 36  1  6  0  0  0
 42 37  1  0  0  0  0
 43 44  1  0  0  0  0
 45 46  1  0  0  0  0
 47 48  1  0  0  0  0
 48 53  1  0  0  0  0
 49 54  1  0  0  0  0
 49 51  1  0  0  0  0
 50 56  1  0  0  0  0
 51 50  1  0  0  0  0
 52 50  1  0  0  0  0
 53 51  2  0  0  0  0
 54 52  1  0  0  0  0
 56 55  1  0  0  0  0
M  END
>  <MODEL>
2

>  <REMARK>
 VINA RESULT:      -5.1      4.679      7.547
  Name = 
  15 active torsions:
  status: ('A' for Active; 'I' for Inactive)
    1  A    between atoms: C_2  and  C_35
    2  A    between atoms: C_4  and  C_14
    3  A    between atoms: C_6  and  C_9
    4  A    between atoms: C_9  and  C_33
    5  A    between atoms: C_10  and  C_16
    6  A    between atoms: C_10  and  C_25
    7  A    between atoms: N_11  and  C_49
    8  A    between atoms: C_12  and  C_40
    9  A    between atoms: C_16  and  C_47
   10  A    between atoms: N_19  and  C_42
   11  A    between atoms: N_23  and  C_29
   12  A    between atoms: N_24  and  C_35
   13  A    between atoms: N_24  and  C_53
   14  A    between atoms: C_32  and  C_33
   15  A    between atoms: C_32  and  C_56
                            x       y       z     vdW  Elec       q    Type
                         _______ _______ _______ _____ _____    ______ ____

>  <TORSDO>
F 15

$$$$
=
 OpenBabel11042413273D

 56 63  0  0  1  0  0  0  0  0999 V2000
  183.1560  175.1210  137.1240 C   0  0  0  0  0  2  0  0  0  0  0  0
  185.5140  174.5280  134.5960 C   0  0  0  0  0  2  0  0  0  0  0  0
  189.5330  173.8680  136.1910 C   0  0  0  0  0  3  0  0  0  0  0  0
  186.2920  175.5200  135.4100 C   0  0  0  0  0  0  0  0  0  0  0  0
  188.3250  174.0860  135.6820 C   0  0  0  0  0  0  0  0  0  0  0  0
  189.3960  178.1540  137.4800 N   0  0  0  0  0  0  0  0  0  0  0  0
  184.5030  173.7220  135.3980 C   0  0  2  0  0  3  0  0  0  0  0  0
  183.2390  174.5290  135.7150 C   0  0  0  0  0  2  0  0  0  0  0  0
  185.8480  176.9580  135.5960 C   0  0  1  0  0  3  0  0  0  0  0  0
  190.4140  174.6650  137.0700 C   0  0  0  0  0  0  0  0  0  0  0  0
  184.3550  175.9820  137.5150 C   0  0  0  0  0  2  0  0  0  0  0  0
  190.2210  175.9010  137.4140 N   0  0  0  0  0  0  0  0  0  0  0  0
  184.6630  177.1420  136.5580 C   0  0  2  0  0  3  0  0  0  0  0  0
  187.8280  173.0930  134.9020 F   0  0  0  0  0  0  0  0  0  0  0  0
  187.2740  178.8440  136.6180 C   0  0  0  0  0  3  0  0  0  0  0  0
  187.0660  177.5250  136.2280 C   0  0  0  0  0  0  0  0  0  0  0  0
  188.0190  176.5510  136.4340 C   0  0  0  0  0  0  0  0  0  0  0  0
  189.2070  176.8610  137.0870 C   0  0  0  0  0  0  0  0  0  0  0  0
  187.5340  175.3080  135.8820 C   0  0  0  0  0  0  0  0  0  0  0  0
  188.4800  179.1400  137.2550 C   0  0  0  0  0  3  0  0  0  0  0  0
  192.7820  174.3560  137.2530 C   0  0  0  0  0  3  0  0  0  0  0  0
  191.5750  174.0180  137.6020 N   0  0  0  0  0  0  0  0  0  0  0  0
  193.9530  173.5940  137.7840 C   0  0  0  0  0  2  0  0  0  0  0  0
  195.1630  174.0530  137.1230 N   0  0  0  0  0  0  0  0  0  0  0  0
  195.3530  175.3460  137.5160 O   0  0  0  0  0  1  0  0  0  0  0  0
  197.0840  172.6960  136.4970 C   0  0  0  0  0  2  0  0  0  0  0  0
  196.0950  171.8160  137.2320 C   0  0  0  0  0  2  0  0  0  0  0  0
  196.2680  173.2680  137.6470 C   0  0  0  0  0  3  0  0  0  0  0  0
  183.4860  177.8440  135.9580 C   0  0  0  0  0  3  0  0  0  0  0  0
  182.3500  177.9270  136.6270 C   0  0  0  0  0  3  0  0  0  0  0  0
  181.1800  178.6350  136.0400 C   0  0  0  0  0  2  0  0  0  0  0  0
  180.5860  179.5800  137.0670 C   0  0  0  0  0  2  0  0  0  0  0  0
  181.6650  180.1250  137.9890 C   0  0  0  0  0  2  0  0  0  0  0  0
  180.7350  178.7750  140.0200 C   0  0  1  0  0  3  0  0  0  0  0  0
  181.9750  179.1270  139.1120 C   0  0  2  0  0  3  0  0  0  0  0  0
  184.3410  179.6090  139.1670 O   0  0  0  0  0  1  0  0  0  0  0  0
  183.4010  178.4920  141.0620 C   0  0  2  0  0  0  0  0  0  0  0  0
  181.1080  178.0940  141.2150 O   0  0  0  0  0  0  0  0  0  0  0  0
  183.3780  177.1980  140.5270 O   0  0  0  0  0  1  0  0  0  0  0  0
  183.2160  178.3590  142.5800 C   0  0  2  0  0  3  0  0  0  0  0  0
  182.0970  178.9050  141.7920 C   0  0  1  0  0  3  0  0  0  0  0  0
  183.2050  179.5470  139.9710 C   0  0  2  0  0  3  0  0  0  0  0  0
  183.9310  179.4390  143.2380 N   0  0  0  0  0  2  0  0  0  0  0  0
  183.4870  179.4830  144.5200 O   0  0  0  0  0  1  0  0  0  0  0  0
  179.7980  179.9540  140.3180 C   0  0  0  0  0  2  0  0  0  0  0  0
  180.2840  180.6510  141.4270 O   0  0  0  0  0  1  0  0  0  0  0  0
  185.0960  172.9860  136.5980 C   0  0  0  0  0  2  0  0  0  0  0  0
  184.5330  171.5750  136.6920 C   0  0  0  0  0  2  0  0  0  0  0  0
  182.4860  170.3640  134.6150 S   0  0  0  0  0  0  0  0  0  0  0  0
  180.7450  171.3360  136.4270 N   0  0  0  0  0  0  0  0  0  0  0  0
  182.1300  171.2180  136.1400 C   0  0  0  0  0  0  0  0  0  0  0  0
  179.9070  170.5920  135.4980 C   0  0  0  0  0  2  0  0  0  0  0  0
  183.0710  171.6560  136.9800 C   0  0  0  0  0  3  0  0  0  0  0  0
  180.8080  169.6330  134.7140 C   0  0  0  0  0  2  0  0  0  0  0  0
  179.7500  173.2820  137.5140 C   0  0  0  0  0  1  0  0  0  0  0  0
  180.2360  171.8550  137.6870 C   0  0  0  0  0  2  0  0  0  0  0  0
  1 11  1  0  0  0  0
  2  7  1  0  0  0  0
  2  4  1  0  0  0  0
  3 10  1  0  0  0  0
  4 19  2  0  0  0  0
  5 19  1  0  0  0  0
  5  3  2  0  0  0  0
  7  8  1  0  0  0  0
  7 47  1  1  0  0  0
  8  1  1  0  0  0  0
  9  4  1  1  0  0  0
  9 16  1  0  0  0  0
  9 13  1  0  0  0  0
 10 12  2  0  0  0  0
 10 22  1  0  0  0  0
 13 29  1  6  0  0  0
 13 11  1  0  0  0  0
 14  5  1  0  0  0  0
 15 20  2  0  0  0  0
 16 17  2  0  0  0  0
 16 15  1  0  0  0  0
 17 18  1  0  0  0  0
 18 12  1  0  0  0  0
 18  6  2  0  0  0  0
 19 17  1  0  0  0  0
 20  6  1  0  0  0  0
 21 22  2  0  0  0  0
 21 23  1  0  0  0  0
 24 25  1  0  0  0  0
 24 28  1  0  0  0  0
 24 23  1  0  0  0  0
 26 27  1  0  0  0  0
 26 28  1  0  0  0  0
 27 28  1  0  0  0  0
 29 30  2  0  0  0  0
 31 30  1  0  0  0  0
 31 32  1  0  0  0  0
 32 33  1  0  0  0  0
 34 45  1  1  0  0  0
 34 38  1  0  0  0  0
 35 33  1  6  0  0  0
 35 42  1  0  0  0  0
 35 34  1  0  0  0  0
 37 39  1  6  0  0  0
 37 41  1  0  0  0  0
 37 40  1  0  0  0  0
 40 43  1  1  0  0  0
 41 38  1  6  0  0  0
 41 40  1  0  0  0  0
 42 36  1  6  0  0  0
 42 37  1  0  0  0  0
 43 44  1  0  0  0  0
 45 46  1  0  0  0  0
 47 48  1  0  0  0  0
 48 53  1  0  0  0  0
 49 54  1  0  0  0  0
 49 51  1  0  0  0  0
 50 56  1  0  0  0  0
 51 50  1  0  0  0  0
 51 53  2  0  0  0  0
 52 50  1  0  0  0  0
 54 52  1  0  0  0  0
 55 56  1  0  0  0  0
M  END
>  <MODEL>
3

>  <REMARK>
 VINA RESULT:      -5.0      3.606     11.842
  Name = 
  15 active torsions:
  status: ('A' for Active; 'I' for Inactive)
    1  A    between atoms: C_2  and  C_35
    2  A    between atoms: C_4  and  C_14
    3  A    between atoms: C_6  and  C_9
    4  A    between atoms: C_9  and  C_33
    5  A    between atoms: C_10  and  C_16
    6  A    between atoms: C_10  and  C_25
    7  A    between atoms: N_11  and  C_49
    8  A    between atoms: C_12  and  C_40
    9  A    between atoms: C_16  and  C_47
   10  A    between atoms: N_19  and  C_42
   11  A    between atoms: N_23  and  C_29
   12  A    between atoms: N_24  and  C_35
   13  A    between atoms: N_24  and  C_53
   14  A    between atoms: C_32  and  C_33
   15  A    between atoms: C_32  and  C_56
                            x       y       z     vdW  Elec       q    Type
                         _______ _______ _______ _____ _____    ______ ____

>  <TORSDO>
F 15

$$$$
=
 OpenBabel11042413273D

 56 63  0  0  1  0  0  0  0  0999 V2000
  186.1280  178.0640  142.4900 C   0  0  0  0  0  2  0  0  0  0  0  0
  185.3190  179.4110  139.3540 C   0  0  0  0  0  2  0  0  0  0  0  0
  184.1780  176.3330  136.4640 C   0  0  0  0  0  3  0  0  0  0  0  0
  186.2010  178.2850  138.9000 C   0  0  0  0  0  0  0  0  0  0  0  0
  184.5410  177.2830  137.3180 C   0  0  0  0  0  0  0  0  0  0  0  0
  188.4280  174.9450  136.7230 N   0  0  0  0  0  0  0  0  0  0  0  0
  184.6180  179.1570  140.6810 C   0  0  2  0  0  3  0  0  0  0  0  0
  185.5570  179.3450  141.8770 C   0  0  0  0  0  2  0  0  0  0  0  0
  187.6760  178.2090  139.2420 C   0  0  1  0  0  3  0  0  0  0  0  0
  184.8540  175.1170  135.9640 C   0  0  0  0  0  0  0  0  0  0  0  0
  186.8410  177.1540  141.4910 C   0  0  0  0  0  2  0  0  0  0  0  0
  186.0970  174.8060  136.1660 N   0  0  0  0  0  0  0  0  0  0  0  0
  187.9760  177.8190  140.6990 C   0  0  2  0  0  3  0  0  0  0  0  0
  183.6250  178.2610  137.5320 F   0  0  0  0  0  0  0  0  0  0  0  0
  189.3690  176.5670  138.2080 C   0  0  0  0  0  3  0  0  0  0  0  0
  188.0900  177.0910  138.3560 C   0  0  0  0  0  0  0  0  0  0  0  0
  187.0100  176.5710  137.6770 C   0  0  0  0  0  0  0  0  0  0  0  0
  187.1710  175.4630  136.8500 C   0  0  0  0  0  0  0  0  0  0  0  0
  185.8410  177.3530  138.0000 C   0  0  0  0  0  0  0  0  0  0  0  0
  189.5140  175.4680  137.3600 C   0  0  0  0  0  3  0  0  0  0  0  0
  183.3560  173.2590  135.7600 C   0  0  0  0  0  3  0  0  0  0  0  0
  184.0690  174.1930  135.2020 N   0  0  0  0  0  0  0  0  0  0  0  0
  182.6170  172.2770  134.9100 C   0  0  0  0  0  2  0  0  0  0  0  0
  182.0230  171.2590  135.7620 N   0  0  0  0  0  0  0  0  0  0  0  0
  183.0450  170.7070  136.4770 O   0  0  0  0  0  1  0  0  0  0  0  0
  179.8170  171.2040  136.7890 C   0  0  0  0  0  2  0  0  0  0  0  0
  179.9290  172.4670  135.9620 C   0  0  0  0  0  2  0  0  0  0  0  0
  181.1470  171.9380  136.7020 C   0  0  0  0  0  3  0  0  0  0  0  0
  188.8170  178.8080  141.4420 C   0  0  0  0  0  3  0  0  0  0  0  0
  189.7510  178.3920  142.2780 C   0  0  0  0  0  3  0  0  0  0  0  0
  190.6000  179.3720  143.0080 C   0  0  0  0  0  2  0  0  0  0  0  0
  190.5570  179.0780  144.4950 C   0  0  0  0  0  2  0  0  0  0  0  0
  189.4800  178.0550  144.8130 C   0  0  0  0  0  2  0  0  0  0  0  0
  189.3440  176.7860  147.0910 C   0  0  1  0  0  3  0  0  0  0  0  0
  190.0440  176.9250  145.6850 C   0  0  2  0  0  3  0  0  0  0  0  0
  192.1870  176.8610  144.5740 O   0  0  0  0  0  1  0  0  0  0  0  0
  192.0330  175.8330  146.7290 C   0  0  2  0  0  0  0  0  0  0  0  0
  190.0700  175.9450  147.9830 O   0  0  0  0  0  0  0  0  0  0  0  0
  191.4550  174.6240  146.3200 O   0  0  0  0  0  1  0  0  0  0  0  0
  192.5680  175.6220  148.1520 C   0  0  2  0  0  3  0  0  0  0  0  0
  191.3730  176.4660  147.9810 C   0  0  1  0  0  3  0  0  0  0  0  0
  191.5940  176.9890  145.8290 C   0  0  2  0  0  3  0  0  0  0  0  0
  193.7410  176.4580  148.3420 N   0  0  0  0  0  2  0  0  0  0  0  0
  193.6470  176.9940  149.5860 O   0  0  0  0  0  1  0  0  0  0  0  0
  188.9690  178.1170  147.7590 C   0  0  0  0  0  2  0  0  0  0  0  0
  188.2590  177.8530  148.9310 O   0  0  0  0  0  1  0  0  0  0  0  0
  183.7970  177.8690  140.7210 C   0  0  0  0  0  2  0  0  0  0  0  0
  182.3430  178.1720  141.0540 C   0  0  0  0  0  2  0  0  0  0  0  0
  181.3140  180.2730  138.9340 S   0  0  0  0  0  0  0  0  0  0  0  0
  180.1170  178.0600  137.9710 N   0  0  0  0  0  0  0  0  0  0  0  0
  180.9590  178.5280  139.0150 C   0  0  0  0  0  0  0  0  0  0  0  0
  179.8510  179.0730  136.9600 C   0  0  0  0  0  2  0  0  0  0  0  0
  181.4820  177.7070  139.9290 C   0  0  0  0  0  3  0  0  0  0  0  0
  180.8500  180.2160  137.1620 C   0  0  0  0  0  2  0  0  0  0  0  0
  180.4400  176.1800  136.4490 C   0  0  0  0  0  1  0  0  0  0  0  0
  179.8270  176.6510  137.7550 C   0  0  0  0  0  2  0  0  0  0  0  0
  2  7  1  0  0  0  0
  3  5  2  0  0  0  0
  4  9  1  0  0  0  0
  4  2  1  0  0  0  0
  5 14  1  0  0  0  0
  5 19  1  0  0  0  0
  6 18  2  0  0  0  0
  6 20  1  0  0  0  0
  7 47  1  6  0  0  0
  7  8  1  0  0  0  0
  8  1  1  0  0  0  0
  9 16  1  6  0  0  0
  9 13  1  0  0  0  0
 10 12  2  0  0  0  0
 10  3  1  0  0  0  0
 11  1  1  0  0  0  0
 12 18  1  0  0  0  0
 13 29  1  1  0  0  0
 13 11  1  0  0  0  0
 15 16  1  0  0  0  0
 17 19  1  0  0  0  0
 17 16  2  0  0  0  0
 18 17  1  0  0  0  0
 19  4  2  0  0  0  0
 20 15  2  0  0  0  0
 22 21  2  0  0  0  0
 22 10  1  0  0  0  0
 23 21  1  0  0  0  0
 23 24  1  0  0  0  0
 24 25  1  0  0  0  0
 24 28  1  0  0  0  0
 27 28  1  0  0  0  0
 27 26  1  0  0  0  0
 28 26  1  0  0  0  0
 29 30  2  0  0  0  0
 30 31  1  0  0  0  0
 31 32  1  0  0  0  0
 32 33  1  0  0  0  0
 34 45  1  1  0  0  0
 34 38  1  0  0  0  0
 35 33  1  1  0  0  0
 35 42  1  0  0  0  0
 35 34  1  0  0  0  0
 37 39  1  6  0  0  0
 37 41  1  0  0  0  0
 37 40  1  0  0  0  0
 40 43  1  6  0  0  0
 41 38  1  1  0  0  0
 41 40  1  0  0  0  0
 42 36  1  6  0  0  0
 42 37  1  0  0  0  0
 43 44  1  0  0  0  0
 45 46  1  0  0  0  0
 47 48  1  0  0  0  0
 49 51  1  0  0  0  0
 50 51  1  0  0  0  0
 51 53  2  0  0  0  0
 52 54  1  0  0  0  0
 52 50  1  0  0  0  0
 53 48  1  0  0  0  0
 54 49  1  0  0  0  0
 55 56  1  0  0  0  0
 56 50  1  0  0  0  0
M  END
>  <MODEL>
4

>  <REMARK>
 VINA RESULT:      -4.6      5.025      8.897
  Name = 
  15 active torsions:
  status: ('A' for Active; 'I' for Inactive)
    1  A    between atoms: C_2  and  C_35
    2  A    between atoms: C_4  and  C_14
    3  A    between atoms: C_6  and  C_9
    4  A    between atoms: C_9  and  C_33
    5  A    between atoms: C_10  and  C_16
    6  A    between atoms: C_10  and  C_25
    7  A    between atoms: N_11  and  C_49
    8  A    between atoms: C_12  and  C_40
    9  A    between atoms: C_16  and  C_47
   10  A    between atoms: N_19  and  C_42
   11  A    between atoms: N_23  and  C_29
   12  A    between atoms: N_24  and  C_35
   13  A    between atoms: N_24  and  C_53
   14  A    between atoms: C_32  and  C_33
   15  A    between atoms: C_32  and  C_56
                            x       y       z     vdW  Elec       q    Type
                         _______ _______ _______ _____ _____    ______ ____

>  <TORSDO>
F 15

$$$$
=
 OpenBabel11042413273D

 56 63  0  0  1  0  0  0  0  0999 V2000
  189.9140  178.4770  137.6340 C   0  0  0  0  0  2  0  0  0  0  0  0
  187.3600  176.0870  137.8910 C   0  0  0  0  0  2  0  0  0  0  0  0
  183.3760  177.8880  137.7700 C   0  0  0  0  0  3  0  0  0  0  0  0
  186.8370  177.0900  138.8770 C   0  0  0  0  0  0  0  0  0  0  0  0
  184.5760  177.3210  137.8310 C   0  0  0  0  0  0  0  0  0  0  0  0
  184.4300  179.7470  141.7050 N   0  0  0  0  0  0  0  0  0  0  0  0
  188.2300  176.6850  136.7950 C   0  0  2  0  0  3  0  0  0  0  0  0
  189.6430  177.0100  137.2900 C   0  0  0  0  0  2  0  0  0  0  0  0
  187.5680  177.4380  140.1590 C   0  0  1  0  0  3  0  0  0  0  0  0
  182.7180  178.9370  138.5770 C   0  0  0  0  0  0  0  0  0  0  0  0
  188.9330  179.0780  138.6370 C   0  0  0  0  0  2  0  0  0  0  0  0
  183.1710  179.4340  139.6860 N   0  0  0  0  0  0  0  0  0  0  0  0
  188.8130  178.3200  139.9660 C   0  0  2  0  0  3  0  0  0  0  0  0
  184.8250  176.3730  136.8910 F   0  0  0  0  0  0  0  0  0  0  0  0
  186.6010  178.8240  142.1030 C   0  0  0  0  0  3  0  0  0  0  0  0
  186.5210  178.2390  140.8440 C   0  0  0  0  0  0  0  0  0  0  0  0
  185.4050  178.3820  140.0480 C   0  0  0  0  0  0  0  0  0  0  0  0
  184.3370  179.1640  140.4750 C   0  0  0  0  0  0  0  0  0  0  0  0
  185.6040  177.6250  138.8350 C   0  0  0  0  0  0  0  0  0  0  0  0
  185.5110  179.5900  142.5220 C   0  0  0  0  0  3  0  0  0  0  0  0
  181.3670  180.6820  137.6440 C   0  0  0  0  0  3  0  0  0  0  0  0
  181.4790  179.4640  138.0880 N   0  0  0  0  0  0  0  0  0  0  0  0
  180.0310  181.1990  137.2170 C   0  0  0  0  0  2  0  0  0  0  0  0
  180.0470  182.6530  137.2560 N   0  0  0  0  0  0  0  0  0  0  0  0
  180.6440  183.0030  138.4320 O   0  0  0  0  0  1  0  0  0  0  0  0
  180.4800  184.4950  135.7250 C   0  0  0  0  0  2  0  0  0  0  0  0
  180.0790  183.2810  134.9130 C   0  0  0  0  0  2  0  0  0  0  0  0
  180.9070  183.1050  136.1750 C   0  0  0  0  0  3  0  0  0  0  0  0
  190.0750  177.7320  140.5150 C   0  0  0  0  0  3  0  0  0  0  0  0
  190.3940  177.9090  141.7840 C   0  0  0  0  0  3  0  0  0  0  0  0
  191.6410  177.3150  142.3380 C   0  0  0  0  0  2  0  0  0  0  0  0
  191.4630  175.8180  142.5060 C   0  0  0  0  0  2  0  0  0  0  0  0
  191.3730  175.4450  143.9770 C   0  0  0  0  0  2  0  0  0  0  0  0
  191.7210  176.8810  146.1290 C   0  0  1  0  0  3  0  0  0  0  0  0
  190.8900  176.6380  144.8110 C   0  0  2  0  0  3  0  0  0  0  0  0
  188.6490  176.6240  143.9090 O   0  0  0  0  0  1  0  0  0  0  0  0
  189.0040  177.8110  145.9560 C   0  0  2  0  0  0  0  0  0  0  0  0
  191.0790  177.7890  147.0200 O   0  0  0  0  0  0  0  0  0  0  0  0
  189.5340  178.9840  145.4040 O   0  0  0  0  0  1  0  0  0  0  0  0
  188.6070  178.1290  147.4030 C   0  0  2  0  0  3  0  0  0  0  0  0
  189.7840  177.2730  147.1830 C   0  0  1  0  0  3  0  0  0  0  0  0
  189.3610  176.5890  145.1070 C   0  0  2  0  0  3  0  0  0  0  0  0
  187.4620  177.3130  147.7680 N   0  0  0  0  0  2  0  0  0  0  0  0
  186.3510  178.0260  147.4530 O   0  0  0  0  0  1  0  0  0  0  0  0
  192.1650  175.6030  146.8560 C   0  0  0  0  0  2  0  0  0  0  0  0
  193.0590  175.9470  147.8710 O   0  0  0  0  0  1  0  0  0  0  0  0
  187.5630  177.8140  136.0110 C   0  0  0  0  0  2  0  0  0  0  0  0
  187.2420  177.3630  134.5940 C   0  0  0  0  0  2  0  0  0  0  0  0
  188.6010  174.5130  134.6030 S   0  0  0  0  0  0  0  0  0  0  0  0
  186.0140  173.7620  134.6460 N   0  0  0  0  0  0  0  0  0  0  0  0
  186.8610  174.9020  134.6140 C   0  0  0  0  0  0  0  0  0  0  0  0
  186.7450  172.5170  134.8260 C   0  0  0  0  0  2  0  0  0  0  0  0
  186.3810  176.1470  134.6570 C   0  0  0  0  0  3  0  0  0  0  0  0
  188.1670  172.8650  135.2760 C   0  0  0  0  0  2  0  0  0  0  0  0
  184.1180  172.9440  135.9470 C   0  0  0  0  0  1  0  0  0  0  0  0
  184.5720  173.8480  134.8160 C   0  0  0  0  0  2  0  0  0  0  0  0
  1 11  1  0  0  0  0
  2  4  1  0  0  0  0
  3  5  2  0  0  0  0
  3 10  1  0  0  0  0
  5 19  1  0  0  0  0
  6 20  1  0  0  0  0
  7 47  1  1  0  0  0
  7  8  1  0  0  0  0
  7  2  1  0  0  0  0
  8  1  1  0  0  0  0
  9  4  1  6  0  0  0
  9 16  1  0  0  0  0
 10 12  2  0  0  0  0
 11 13  1  0  0  0  0
 12 18  1  0  0  0  0
 13  9  1  0  0  0  0
 13 29  1  6  0  0  0
 14  5  1  0  0  0  0
 15 20  2  0  0  0  0
 16 15  1  0  0  0  0
 17 18  1  0  0  0  0
 17 16  2  0  0  0  0
 18  6  2  0  0  0  0
 19  4  2  0  0  0  0
 19 17  1  0  0  0  0
 21 22  2  0  0  0  0
 22 10  1  0  0  0  0
 23 24  1  0  0  0  0
 23 21  1  0  0  0  0
 24 25  1  0  0  0  0
 26 28  1  0  0  0  0
 27 26  1  0  0  0  0
 27 28  1  0  0  0  0
 28 24  1  0  0  0  0
 29 30  2  0  0  0  0
 30 31  1  0  0  0  0
 31 32  1  0  0  0  0
 32 33  1  0  0  0  0
 34 45  1  1  0  0  0
 34 38  1  0  0  0  0
 35 33  1  1  0  0  0
 35 42  1  0  0  0  0
 35 34  1  0  0  0  0
 37 39  1  6  0  0  0
 37 41  1  0  0  0  0
 37 40  1  0  0  0  0
 40 43  1  1  0  0  0
 41 38  1  6  0  0  0
 41 40  1  0  0  0  0
 42 36  1  6  0  0  0
 42 37  1  0  0  0  0
 44 43  1  0  0  0  0
 45 46  1  0  0  0  0
 48 53  1  0  0  0  0
 48 47  1  0  0  0  0
 49 51  1  0  0  0  0
 49 54  1  0  0  0  0
 50 56  1  0  0  0  0
 50 52  1  0  0  0  0
 51 50  1  0  0  0  0
 51 53  2  0  0  0  0
 52 54  1  0  0  0  0
 56 55  1  0  0  0  0
M  END
>  <MODEL>
5

>  <REMARK>
 VINA RESULT:      -4.0      5.198      8.386
  Name = 
  15 active torsions:
  status: ('A' for Active; 'I' for Inactive)
    1  A    between atoms: C_2  and  C_35
    2  A    between atoms: C_4  and  C_14
    3  A    between atoms: C_6  and  C_9
    4  A    between atoms: C_9  and  C_33
    5  A    between atoms: C_10  and  C_16
    6  A    between atoms: C_10  and  C_25
    7  A    between atoms: N_11  and  C_49
    8  A    between atoms: C_12  and  C_40
    9  A    between atoms: C_16  and  C_47
   10  A    between atoms: N_19  and  C_42
   11  A    between atoms: N_23  and  C_29
   12  A    between atoms: N_24  and  C_35
   13  A    between atoms: N_24  and  C_53
   14  A    between atoms: C_32  and  C_33
   15  A    between atoms: C_32  and  C_56
                            x       y       z     vdW  Elec       q    Type
                         _______ _______ _______ _____ _____    ______ ____

>  <TORSDO>
F 15

$$$$
