=
 OpenBabel11042411253D

 57 60  0  0  1  0  0  0  0  0999 V2000
  188.7580  177.0510  136.3140 C   0  0  0  0  0  3  0  0  0  0  0  0
  187.8780  177.0460  137.3150 C   0  0  0  0  0  0  0  0  0  0  0  0
  190.1670  176.7000  136.5020 C   0  0  0  0  0  3  0  0  0  0  0  0
  190.6450  175.5380  136.0960 C   0  0  0  0  0  3  0  0  0  0  0  0
  194.5570  175.9500  135.8110 S   0  0  0  0  0  0  0  0  0  0  0  0
  192.0910  175.2400  136.2850 C   0  0  2  0  0  3  0  0  0  0  0  0
  192.5880  175.7630  137.6060 C   0  0  0  0  0  2  0  0  0  0  0  0
  194.0870  175.6340  137.5430 C   0  0  1  0  0  3  0  0  0  0  0  0
  192.8870  175.8430  135.2340 N   0  0  0  0  0  2  0  0  0  0  0  0
  194.4700  174.2780  137.8920 N   0  0  0  0  0  2  0  0  0  0  0  0
  195.6550  173.9430  137.1220 C   0  0  2  0  0  3  0  0  0  0  0  0
  195.3720  172.7290  136.2950 C   0  0  0  0  0  0  0  0  0  0  0  0
  196.3700  172.1610  135.5040 O   0  0  0  0  0  0  0  0  0  0  0  0
  194.2470  172.1730  136.3780 O   0  0  0  0  0  1  0  0  0  0  0  0
  196.8440  173.7170  138.0670 C   0  0  1  0  0  3  0  0  0  0  0  0
  198.1180  174.3940  137.5580 C   0  0  0  0  0  2  0  0  0  0  0  0
  197.8090  175.5670  136.8650 O   0  0  0  0  0  1  0  0  0  0  0  0
  196.5370  174.1900  139.3500 O   0  0  0  0  0  0  0  0  0  0  0  0
  197.6720  174.8880  139.7590 C   0  0  0  0  0  2  0  0  0  0  0  0
  197.4470  175.4600  141.1460 C   0  0  0  0  0  1  0  0  0  0  0  0
  186.5530  177.5300  137.0570 N   0  0  0  0  0  2  0  0  0  0  0  0
  185.3320  176.7550  137.2640 C   0  0  2  0  0  3  0  0  0  0  0  0
  185.5310  175.3300  136.8040 C   0  0  0  0  0  1  0  0  0  0  0  0
  182.9030  177.4310  137.1570 C   0  0  0  0  0  0  0  0  0  0  0  0
  181.3630  177.2730  138.7750 N   0  0  0  0  0  0  0  0  0  0  0  0
  180.5490  178.0280  137.8460 C   0  0  0  0  0  2  0  0  0  0  0  0
  184.2010  177.3460  136.5700 N   0  0  0  0  0  2  0  0  0  0  0  0
  181.5550  178.2650  136.3380 S   0  0  0  0  0  0  0  0  0  0  0  0
  182.6590  177.0030  138.3430 N   0  0  0  0  0  0  0  0  0  0  0  0
  180.9010  176.8870  140.0980 C   0  0  0  0  0  2  0  0  0  0  0  0
  180.6780  178.1000  140.9370 C   0  0  0  0  0  0  0  0  0  0  0  0
  179.8560  178.0650  141.8890 O   0  0  0  0  0  1  0  0  0  0  0  0
  181.3530  179.2780  140.6450 O   0  0  0  0  0  0  0  0  0  0  0  0
  188.2820  176.6280  138.7030 C   0  0  0  0  0  2  0  0  0  0  0  0
  188.4480  178.0360  139.8030 S   0  0  0  0  0  0  0  0  0  0  0  0
  189.6260  177.8080  140.7020 O   0  0  0  0  0  0  0  0  0  0  0  0
  188.6860  179.2730  138.9910 O   0  0  0  0  0  0  0  0  0  0  0  0
  185.8540  178.8310  140.2530 C   0  0  0  0  0  3  0  0  0  0  0  0
  187.0290  178.3070  140.7980 C   0  0  0  0  0  0  0  0  0  0  0  0
  185.9380  178.1270  142.9670 C   0  0  0  0  0  0  0  0  0  0  0  0
  184.7720  178.6900  142.4230 C   0  0  0  0  0  0  0  0  0  0  0  0
  183.3370  178.9420  143.4030 Cl  0  0  0  0  0  0  0  0  0  0  0  0
  184.7320  179.0290  141.0650 C   0  0  0  0  0  3  0  0  0  0  0  0
  187.0600  177.9410  142.1460 C   0  0  0  0  0  3  0  0  0  0  0  0
  185.9710  177.7290  144.3440 N   0  0  0  0  0  2  0  0  0  0  0  0
  186.7810  178.4240  145.3390 C   0  0  0  0  0  2  0  0  0  0  0  0
  188.0930  177.6110  147.2700 C   0  0  0  0  0  2  0  0  0  0  0  0
  189.2600  178.1170  145.1320 C   0  0  0  0  0  2  0  0  0  0  0  0
  189.2580  176.7520  147.7610 C   0  0  1  0  0  3  0  0  0  0  0  0
  188.9310  175.4140  147.6510 F   0  0  0  0  0  0  0  0  0  0  0  0
  187.9680  177.5730  145.7540 C   0  0  2  0  0  3  0  0  0  0  0  0
  190.4070  177.3270  145.5780 N   0  0  0  0  0  0  0  0  0  0  0  0
  190.5040  177.0310  146.9860 C   0  0  0  0  0  0  0  0  0  0  0  0
  191.6720  177.0270  147.6160 C   0  0  0  0  0  2  0  0  0  0  0  0
  191.7340  177.5660  143.5760 C   0  0  0  0  0  2  0  0  0  0  0  0
  191.3620  176.8260  144.6170 C   0  0  0  0  0  0  0  0  0  0  0  0
  191.7960  175.4660  144.6700 N   0  0  0  0  0  1  0  0  0  0  0  0
  1  3  1  0  0  0  0
  1  2  2  0  0  0  0
  2 34  1  0  0  0  0
  4  3  2  0  0  0  0
  5  8  1  0  0  0  0
  6  4  1  6  0  0  0
  6  7  1  0  0  0  0
  8  7  1  0  0  0  0
  8 10  1  6  0  0  0
  9  5  1  0  0  0  0
  9  6  1  0  0  0  0
 11 12  1  1  0  0  0
 11 10  1  0  0  0  0
 11 15  1  0  0  0  0
 12 14  1  0  0  0  0
 13 12  2  0  0  0  0
 15 16  1  6  0  0  0
 15 18  1  0  0  0  0
 17 16  1  0  0  0  0
 18 19  1  0  0  0  0
 19 20  1  0  0  0  0
 21 22  1  0  0  0  0
 21  2  1  0  0  0  0
 22 23  1  6  0  0  0
 24 29  2  0  0  0  0
 25 30  1  0  0  0  0
 26 25  1  0  0  0  0
 27 24  1  0  0  0  0
 27 22  1  0  0  0  0
 28 24  1  0  0  0  0
 28 26  1  0  0  0  0
 29 25  1  0  0  0  0
 30 31  1  0  0  0  0
 31 32  1  0  0  0  0
 33 31  2  0  0  0  0
 34 35  1  0  0  0  0
 35 36  2  0  0  0  0
 35 39  1  0  0  0  0
 37 35  2  0  0  0  0
 38 39  2  0  0  0  0
 38 43  1  0  0  0  0
 39 44  1  0  0  0  0
 40 45  1  0  0  0  0
 41 40  1  0  0  0  0
 41 42  1  0  0  0  0
 43 41  2  0  0  0  0
 44 40  2  0  0  0  0
 45 46  1  0  0  0  0
 47 49  1  0  0  0  0
 48 52  1  0  0  0  0
 48 51  1  0  0  0  0
 49 50  1  6  0  0  0
 51 46  1  1  0  0  0
 51 47  1  0  0  0  0
 52 53  1  0  0  0  0
 53 54  2  0  0  0  0
 53 49  1  0  0  0  0
 55 56  2  0  0  0  0
 56 57  1  0  0  0  0
 56 52  1  0  0  0  0
M  END
>  <MODEL>
1

>  <REMARK>
 VINA RESULT:      -7.0      0.000      0.000
  Name = 
  21 active torsions:
  status: ('A' for Active; 'I' for Inactive)
    1  A    between atoms: C_1  and  O_28
    2  A    between atoms: C_3  and  C_30
    3  A    between atoms: S_4  and  C_12
    4  A    between atoms: S_4  and  C_17
    5  A    between atoms: C_9  and  C_25
    6  A    between atoms: N_11  and  C_41
    7  A    between atoms: CA_13  and  C_16
    8  A    between atoms: CA_13  and  C_30
    9  A    between atoms: CA_13  and  N_53
   10  A    between atoms: C_14  and  C_22
   11  A    between atoms: C_17  and  C_48
   12  A    between atoms: C_18  and  N_35
   13  A    between atoms: C_21  and  C_34
   14  A    between atoms: C_21  and  N_47
   15  A    between atoms: C_23  and  C_41
   16  A    between atoms: C_27  and  N_47
   17  A    between atoms: O_28  and  C_30
   18  A    between atoms: N_31  and  C_44
   19  A    between atoms: C_44  and  N_57
   20  A    between atoms: C_48  and  N_57
   21  A    between atoms: C_49  and  N_53
                            x       y       z     vdW  Elec       q    Type
                         _______ _______ _______ _____ _____    ______ ____

>  <TORSDO>
F 21

$$$$
=
 OpenBabel11042411253D

 57 60  0  0  1  0  0  0  0  0999 V2000
  191.7420  176.8790  138.6710 C   0  0  0  0  0  3  0  0  0  0  0  0
  190.8000  176.5010  137.8060 C   0  0  0  0  0  0  0  0  0  0  0  0
  191.4370  177.2620  140.0500 C   0  0  0  0  0  3  0  0  0  0  0  0
  190.8320  176.4290  140.8770 C   0  0  0  0  0  3  0  0  0  0  0  0
  190.5190  178.8160  144.0010 S   0  0  0  0  0  0  0  0  0  0  0  0
  190.5700  176.8550  142.2790 C   0  0  2  0  0  3  0  0  0  0  0  0
  189.1040  177.1140  142.5040 C   0  0  0  0  0  2  0  0  0  0  0  0
  189.0250  177.7830  143.8520 C   0  0  1  0  0  3  0  0  0  0  0  0
  191.2950  178.0700  142.5960 N   0  0  0  0  0  2  0  0  0  0  0  0
  189.0470  176.7730  144.8940 N   0  0  0  0  0  2  0  0  0  0  0  0
  189.4800  177.4170  146.1220 C   0  0  2  0  0  3  0  0  0  0  0  0
  190.7020  176.7210  146.6330 C   0  0  0  0  0  0  0  0  0  0  0  0
  191.9660  177.0650  146.1550 O   0  0  0  0  0  0  0  0  0  0  0  0
  190.5910  175.8760  147.5570 O   0  0  0  0  0  1  0  0  0  0  0  0
  188.3420  177.3900  147.1530 C   0  0  1  0  0  3  0  0  0  0  0  0
  188.3940  178.5950  148.0950 C   0  0  0  0  0  2  0  0  0  0  0  0
  189.1290  178.2910  149.2440 O   0  0  0  0  0  1  0  0  0  0  0  0
  187.1020  177.3510  146.5020 O   0  0  0  0  0  0  0  0  0  0  0  0
  186.4110  178.4650  146.9760 C   0  0  0  0  0  2  0  0  0  0  0  0
  184.9590  178.3870  146.5400 C   0  0  0  0  0  1  0  0  0  0  0  0
  191.1820  176.2720  136.4430 N   0  0  0  0  0  2  0  0  0  0  0  0
  191.0060  175.0060  135.7360 C   0  0  2  0  0  3  0  0  0  0  0  0
  189.5640  174.5620  135.8030 C   0  0  0  0  0  1  0  0  0  0  0  0
  193.2890  174.0010  136.1260 C   0  0  0  0  0  0  0  0  0  0  0  0
  195.2790  174.8600  135.5680 N   0  0  0  0  0  0  0  0  0  0  0  0
  195.7910  173.7470  136.3390 C   0  0  0  0  0  2  0  0  0  0  0  0
  191.8690  173.9690  136.2750 N   0  0  0  0  0  2  0  0  0  0  0  0
  194.3410  172.7820  136.8950 S   0  0  0  0  0  0  0  0  0  0  0  0
  193.8920  174.9560  135.5150 N   0  0  0  0  0  0  0  0  0  0  0  0
  196.1400  175.8580  134.9550 C   0  0  0  0  0  2  0  0  0  0  0  0
  197.5320  175.7230  135.4740 C   0  0  0  0  0  0  0  0  0  0  0  0
  197.7630  175.8650  136.7030 O   0  0  0  0  0  1  0  0  0  0  0  0
  198.5780  175.4770  134.5940 O   0  0  0  0  0  0  0  0  0  0  0  0
  189.3570  176.4020  138.2230 C   0  0  0  0  0  2  0  0  0  0  0  0
  188.4520  177.9080  137.8600 S   0  0  0  0  0  0  0  0  0  0  0  0
  188.1890  178.6330  139.1450 O   0  0  0  0  0  0  0  0  0  0  0  0
  189.2820  178.7810  136.9680 O   0  0  0  0  0  0  0  0  0  0  0  0
  186.8680  177.2400  135.7140 C   0  0  0  0  0  3  0  0  0  0  0  0
  186.9200  177.6160  137.0580 C   0  0  0  0  0  0  0  0  0  0  0  0
  184.4930  177.4670  137.1890 C   0  0  0  0  0  0  0  0  0  0  0  0
  184.4450  177.1270  135.8270 C   0  0  0  0  0  0  0  0  0  0  0  0
  182.9170  176.8070  135.0200 Cl  0  0  0  0  0  0  0  0  0  0  0  0
  185.6330  177.0030  135.0980 C   0  0  0  0  0  3  0  0  0  0  0  0
  185.7350  177.7110  137.7930 C   0  0  0  0  0  3  0  0  0  0  0  0
  183.2840  177.5450  137.9550 N   0  0  0  0  0  2  0  0  0  0  0  0
  182.8190  176.4470  138.7960 C   0  0  0  0  0  2  0  0  0  0  0  0
  180.7280  177.4880  139.6060 C   0  0  0  0  0  2  0  0  0  0  0  0
  182.8910  178.1310  140.6520 C   0  0  0  0  0  2  0  0  0  0  0  0
  179.9350  178.0150  140.8020 C   0  0  1  0  0  3  0  0  0  0  0  0
  179.4950  176.9580  141.5750 F   0  0  0  0  0  0  0  0  0  0  0  0
  182.1000  176.9780  140.0230 C   0  0  2  0  0  3  0  0  0  0  0  0
  182.1670  178.6730  141.8010 N   0  0  0  0  0  0  0  0  0  0  0  0
  180.7600  178.9400  141.6350 C   0  0  0  0  0  0  0  0  0  0  0  0
  180.1850  180.0020  142.1850 C   0  0  0  0  0  2  0  0  0  0  0  0
  182.2290  178.6390  144.2140 C   0  0  0  0  0  2  0  0  0  0  0  0
  182.8470  178.8730  143.0600 C   0  0  0  0  0  0  0  0  0  0  0  0
  184.1370  179.4880  143.0950 N   0  0  0  0  0  1  0  0  0  0  0  0
  1  3  1  0  0  0  0
  2 34  1  0  0  0  0
  2  1  2  0  0  0  0
  3  4  2  0  0  0  0
  6  4  1  6  0  0  0
  6  7  1  0  0  0  0
  6  9  1  0  0  0  0
  7  8  1  0  0  0  0
  8  5  1  0  0  0  0
  8 10  1  1  0  0  0
  9  5  1  0  0  0  0
 11 10  1  6  0  0  0
 11 12  1  0  0  0  0
 11 15  1  0  0  0  0
 12 14  1  0  0  0  0
 13 12  2  0  0  0  0
 15 16  1  6  0  0  0
 16 17  1  0  0  0  0
 18 19  1  0  0  0  0
 18 15  1  0  0  0  0
 20 19  1  0  0  0  0
 21  2  1  0  0  0  0
 22 23  1  1  0  0  0
 22 27  1  0  0  0  0
 22 21  1  0  0  0  0
 24 27  1  0  0  0  0
 24 28  1  0  0  0  0
 25 26  1  0  0  0  0
 26 28  1  0  0  0  0
 29 25  1  0  0  0  0
 29 24  2  0  0  0  0
 30 31  1  0  0  0  0
 30 25  1  0  0  0  0
 31 32  1  0  0  0  0
 33 31  2  0  0  0  0
 35 34  1  0  0  0  0
 35 36  2  0  0  0  0
 37 35  2  0  0  0  0
 38 39  1  0  0  0  0
 39 44  2  0  0  0  0
 39 35  1  0  0  0  0
 40 44  1  0  0  0  0
 40 45  1  0  0  0  0
 41 40  2  0  0  0  0
 42 41  1  0  0  0  0
 43 38  2  0  0  0  0
 43 41  1  0  0  0  0
 45 46  1  0  0  0  0
 47 51  1  0  0  0  0
 47 49  1  0  0  0  0
 48 52  1  0  0  0  0
 49 50  1  1  0  0  0
 49 53  1  0  0  0  0
 51 46  1  6  0  0  0
 51 48  1  0  0  0  0
 52 56  1  0  0  0  0
 53 52  1  0  0  0  0
 53 54  2  0  0  0  0
 56 57  1  0  0  0  0
 56 55  2  0  0  0  0
M  END
>  <MODEL>
2

>  <REMARK>
 VINA RESULT:      -6.5      3.374     10.310
  Name = 
  21 active torsions:
  status: ('A' for Active; 'I' for Inactive)
    1  A    between atoms: C_1  and  O_28
    2  A    between atoms: C_3  and  C_30
    3  A    between atoms: S_4  and  C_12
    4  A    between atoms: S_4  and  C_17
    5  A    between atoms: C_9  and  C_25
    6  A    between atoms: N_11  and  C_41
    7  A    between atoms: CA_13  and  C_16
    8  A    between atoms: CA_13  and  C_30
    9  A    between atoms: CA_13  and  N_53
   10  A    between atoms: C_14  and  C_22
   11  A    between atoms: C_17  and  C_48
   12  A    between atoms: C_18  and  N_35
   13  A    between atoms: C_21  and  C_34
   14  A    between atoms: C_21  and  N_47
   15  A    between atoms: C_23  and  C_41
   16  A    between atoms: C_27  and  N_47
   17  A    between atoms: O_28  and  C_30
   18  A    between atoms: N_31  and  C_44
   19  A    between atoms: C_44  and  N_57
   20  A    between atoms: C_48  and  N_57
   21  A    between atoms: C_49  and  N_53
                            x       y       z     vdW  Elec       q    Type
                         _______ _______ _______ _____ _____    ______ ____

>  <TORSDO>
F 21

$$$$
=
 OpenBabel11042411253D

 57 60  0  0  1  0  0  0  0  0999 V2000
  192.1660  177.3810  140.2700 C   0  0  0  0  0  3  0  0  0  0  0  0
  191.7500  176.8540  139.1180 C   0  0  0  0  0  0  0  0  0  0  0  0
  191.3790  177.3040  141.5020 C   0  0  0  0  0  3  0  0  0  0  0  0
  191.8550  176.7190  142.5860 C   0  0  0  0  0  3  0  0  0  0  0  0
  190.9720  176.7910  146.4290 S   0  0  0  0  0  0  0  0  0  0  0  0
  191.0250  176.6910  143.8220 C   0  0  2  0  0  3  0  0  0  0  0  0
  190.4600  178.0510  144.1300 C   0  0  0  0  0  2  0  0  0  0  0  0
  189.8850  177.9340  145.5180 C   0  0  1  0  0  3  0  0  0  0  0  0
  191.8100  176.2600  144.9630 N   0  0  0  0  0  2  0  0  0  0  0  0
  188.5550  177.3550  145.4410 N   0  0  0  0  0  2  0  0  0  0  0  0
  187.7070  178.0770  146.3750 C   0  0  2  0  0  3  0  0  0  0  0  0
  188.1230  177.7390  147.7710 C   0  0  0  0  0  0  0  0  0  0  0  0
  188.0360  176.4280  148.2390 O   0  0  0  0  0  0  0  0  0  0  0  0
  188.6270  178.6300  148.5000 O   0  0  0  0  0  1  0  0  0  0  0  0
  186.2350  177.7220  146.1220 C   0  0  1  0  0  3  0  0  0  0  0  0
  185.2850  178.7770  146.6930 C   0  0  0  0  0  2  0  0  0  0  0  0
  186.0030  179.7970  147.3220 O   0  0  0  0  0  1  0  0  0  0  0  0
  186.0040  177.5710  144.7480 O   0  0  0  0  0  0  0  0  0  0  0  0
  185.3580  178.7430  144.3590 C   0  0  0  0  0  2  0  0  0  0  0  0
  184.1330  178.4000  143.5330 C   0  0  0  0  0  1  0  0  0  0  0  0
  192.5300  177.0950  137.9400 N   0  0  0  0  0  2  0  0  0  0  0  0
  193.0120  176.0520  137.0370 C   0  0  2  0  0  3  0  0  0  0  0  0
  191.9180  175.6390  136.0800 C   0  0  0  0  0  1  0  0  0  0  0  0
  194.6240  174.1340  137.3420 C   0  0  0  0  0  0  0  0  0  0  0  0
  196.4210  173.6430  136.1010 N   0  0  0  0  0  0  0  0  0  0  0  0
  196.6660  172.6650  137.1400 C   0  0  0  0  0  2  0  0  0  0  0  0
  193.4930  174.8930  137.7690 N   0  0  0  0  0  2  0  0  0  0  0  0
  195.2710  172.7860  138.3150 S   0  0  0  0  0  0  0  0  0  0  0  0
  195.2950  174.4380  136.2900 N   0  0  0  0  0  0  0  0  0  0  0  0
  197.3220  173.8450  134.9780 C   0  0  0  0  0  2  0  0  0  0  0  0
  198.0210  175.1560  135.1100 C   0  0  0  0  0  0  0  0  0  0  0  0
  199.1230  175.2250  135.7150 O   0  0  0  0  0  1  0  0  0  0  0  0
  197.4370  176.3070  134.5980 O   0  0  0  0  0  0  0  0  0  0  0  0
  190.4500  176.1000  139.0330 C   0  0  0  0  0  2  0  0  0  0  0  0
  189.1090  177.1430  138.4530 S   0  0  0  0  0  0  0  0  0  0  0  0
  188.3840  177.6970  139.6420 O   0  0  0  0  0  0  0  0  0  0  0  0
  189.6760  178.2770  137.6530 O   0  0  0  0  0  0  0  0  0  0  0  0
  188.3830  175.3630  136.4870 C   0  0  0  0  0  3  0  0  0  0  0  0
  187.9580  176.2890  137.4420 C   0  0  0  0  0  0  0  0  0  0  0  0
  185.6410  175.8240  136.8570 C   0  0  0  0  0  0  0  0  0  0  0  0
  186.0760  174.9220  135.8720 C   0  0  0  0  0  0  0  0  0  0  0  0
  184.9310  174.0430  134.8710 Cl  0  0  0  0  0  0  0  0  0  0  0  0
  187.4450  174.6870  135.6990 C   0  0  0  0  0  3  0  0  0  0  0  0
  186.5910  176.5020  137.6350 C   0  0  0  0  0  3  0  0  0  0  0  0
  184.2400  176.0320  137.0750 N   0  0  0  0  0  2  0  0  0  0  0  0
  183.5320  177.1970  136.5540 C   0  0  0  0  0  2  0  0  0  0  0  0
  183.2900  177.4030  139.0070 C   0  0  0  0  0  2  0  0  0  0  0  0
  181.6920  178.5980  137.5210 C   0  0  0  0  0  2  0  0  0  0  0  0
  182.9400  178.3040  140.1910 C   0  0  1  0  0  3  0  0  0  0  0  0
  183.9520  179.2220  140.3950 F   0  0  0  0  0  0  0  0  0  0  0  0
  183.1460  178.1380  137.6810 C   0  0  2  0  0  3  0  0  0  0  0  0
  181.3090  179.4610  138.6380 N   0  0  0  0  0  0  0  0  0  0  0  0
  181.6490  179.0180  139.9670 C   0  0  0  0  0  0  0  0  0  0  0  0
  180.8280  179.2090  140.9940 C   0  0  0  0  0  2  0  0  0  0  0  0
  181.3820  181.8160  138.1140 C   0  0  0  0  0  2  0  0  0  0  0  0
  180.6650  180.7300  138.3890 C   0  0  0  0  0  0  0  0  0  0  0  0
  179.2600  180.8810  138.6000 N   0  0  0  0  0  1  0  0  0  0  0  0
  1  3  1  0  0  0  0
  2  1  2  0  0  0  0
  3  4  2  0  0  0  0
  6  4  1  6  0  0  0
  6  7  1  0  0  0  0
  6  9  1  0  0  0  0
  7  8  1  0  0  0  0
  8 10  1  6  0  0  0
  8  5  1  0  0  0  0
  9  5  1  0  0  0  0
 11 10  1  6  0  0  0
 11 12  1  0  0  0  0
 12 13  2  0  0  0  0
 12 14  1  0  0  0  0
 15 11  1  0  0  0  0
 15 16  1  6  0  0  0
 16 17  1  0  0  0  0
 18 15  1  0  0  0  0
 19 18  1  0  0  0  0
 20 19  1  0  0  0  0
 21  2  1  0  0  0  0
 22 23  1  6  0  0  0
 22 27  1  0  0  0  0
 22 21  1  0  0  0  0
 24 27  1  0  0  0  0
 24 28  1  0  0  0  0
 25 29  1  0  0  0  0
 25 26  1  0  0  0  0
 26 28  1  0  0  0  0
 29 24  2  0  0  0  0
 30 31  1  0  0  0  0
 30 25  1  0  0  0  0
 31 32  1  0  0  0  0
 33 31  2  0  0  0  0
 34  2  1  0  0  0  0
 35 34  1  0  0  0  0
 35 36  2  0  0  0  0
 37 35  2  0  0  0  0
 38 39  1  0  0  0  0
 39 44  2  0  0  0  0
 39 35  1  0  0  0  0
 40 45  1  0  0  0  0
 40 44  1  0  0  0  0
 41 40  2  0  0  0  0
 42 41  1  0  0  0  0
 43 41  1  0  0  0  0
 43 38  2  0  0  0  0
 46 45  1  0  0  0  0
 47 49  1  0  0  0  0
 48 51  1  0  0  0  0
 48 52  1  0  0  0  0
 49 50  1  6  0  0  0
 51 46  1  6  0  0  0
 51 47  1  0  0  0  0
 52 53  1  0  0  0  0
 53 49  1  0  0  0  0
 53 54  2  0  0  0  0
 55 56  2  0  0  0  0
 56 57  1  0  0  0  0
 56 52  1  0  0  0  0
M  END
>  <MODEL>
3

>  <REMARK>
 VINA RESULT:      -6.4      3.376     11.378
  Name = 
  21 active torsions:
  status: ('A' for Active; 'I' for Inactive)
    1  A    between atoms: C_1  and  O_28
    2  A    between atoms: C_3  and  C_30
    3  A    between atoms: S_4  and  C_12
    4  A    between atoms: S_4  and  C_17
    5  A    between atoms: C_9  and  C_25
    6  A    between atoms: N_11  and  C_41
    7  A    between atoms: CA_13  and  C_16
    8  A    between atoms: CA_13  and  C_30
    9  A    between atoms: CA_13  and  N_53
   10  A    between atoms: C_14  and  C_22
   11  A    between atoms: C_17  and  C_48
   12  A    between atoms: C_18  and  N_35
   13  A    between atoms: C_21  and  C_34
   14  A    between atoms: C_21  and  N_47
   15  A    between atoms: C_23  and  C_41
   16  A    between atoms: C_27  and  N_47
   17  A    between atoms: O_28  and  C_30
   18  A    between atoms: N_31  and  C_44
   19  A    between atoms: C_44  and  N_57
   20  A    between atoms: C_48  and  N_57
   21  A    between atoms: C_49  and  N_53
                            x       y       z     vdW  Elec       q    Type
                         _______ _______ _______ _____ _____    ______ ____

>  <TORSDO>
F 21

$$$$
=
 OpenBabel11042411253D

 57 60  0  0  1  0  0  0  0  0999 V2000
  183.9790  176.3090  136.8490 C   0  0  0  0  0  3  0  0  0  0  0  0
  183.3170  176.9300  137.8250 C   0  0  0  0  0  0  0  0  0  0  0  0
  185.4380  176.3570  136.7320 C   0  0  0  0  0  3  0  0  0  0  0  0
  186.1110  175.3940  136.1300 C   0  0  0  0  0  3  0  0  0  0  0  0
  189.6390  177.0000  135.3990 S   0  0  0  0  0  0  0  0  0  0  0  0
  187.5910  175.5020  136.0130 C   0  0  2  0  0  3  0  0  0  0  0  0
  188.2200  175.8340  137.3390 C   0  0  0  0  0  2  0  0  0  0  0  0
  189.6530  176.1740  137.0230 C   0  0  1  0  0  3  0  0  0  0  0  0
  187.9620  176.5370  135.0670 N   0  0  0  0  0  2  0  0  0  0  0  0
  190.4270  174.9490  136.9190 N   0  0  0  0  0  2  0  0  0  0  0  0
  191.5440  175.0560  137.8410 C   0  0  2  0  0  3  0  0  0  0  0  0
  191.3100  176.2150  138.7580 C   0  0  0  0  0  0  0  0  0  0  0  0
  190.7400  176.0200  140.0150 O   0  0  0  0  0  1  0  0  0  0  0  0
  191.7060  177.3590  138.4210 O   0  0  0  0  0  0  0  0  0  0  0  0
  192.8540  175.2130  137.0550 C   0  0  1  0  0  3  0  0  0  0  0  0
  194.0080  174.4470  137.7050 C   0  0  0  0  0  2  0  0  0  0  0  0
  194.6650  175.2480  138.6420 O   0  0  0  0  0  1  0  0  0  0  0  0
  192.6800  174.7770  135.7350 O   0  0  0  0  0  0  0  0  0  0  0  0
  193.9310  174.9240  135.1380 C   0  0  0  0  0  2  0  0  0  0  0  0
  194.2300  176.3980  134.9390 C   0  0  0  0  0  1  0  0  0  0  0  0
  181.8840  176.9320  137.7780 N   0  0  0  0  0  2  0  0  0  0  0  0
  181.0950  176.9720  136.5490 C   0  0  2  0  0  3  0  0  0  0  0  0
  180.5040  178.3490  136.3490 C   0  0  0  0  0  1  0  0  0  0  0  0
  180.2400  174.6380  136.1100 C   0  0  0  0  0  0  0  0  0  0  0  0
  181.4010  172.8670  135.3840 N   0  0  0  0  0  0  0  0  0  0  0  0
  180.1740  172.1540  135.6690 C   0  0  0  0  0  2  0  0  0  0  0  0
  180.0370  175.9770  136.5620 N   0  0  0  0  0  2  0  0  0  0  0  0
  178.9640  173.3980  136.2420 S   0  0  0  0  0  0  0  0  0  0  0  0
  181.3770  174.2280  135.6760 N   0  0  0  0  0  0  0  0  0  0  0  0
  182.6040  172.2080  134.9010 C   0  0  0  0  0  2  0  0  0  0  0  0
  183.4740  171.8240  136.0500 C   0  0  0  0  0  0  0  0  0  0  0  0
  184.4960  172.5070  136.3220 O   0  0  0  0  0  0  0  0  0  0  0  0
  183.1760  170.6910  136.7960 O   0  0  0  0  0  1  0  0  0  0  0  0
  184.0480  177.6860  138.9010 C   0  0  0  0  0  2  0  0  0  0  0  0
  182.9190  178.4140  140.0910 S   0  0  0  0  0  0  0  0  0  0  0  0
  182.5670  179.7980  139.6360 O   0  0  0  0  0  0  0  0  0  0  0  0
  181.6700  177.5880  140.1560 O   0  0  0  0  0  0  0  0  0  0  0  0
  182.8670  179.0830  142.7580 C   0  0  0  0  0  3  0  0  0  0  0  0
  183.5890  178.5090  141.7090 C   0  0  0  0  0  0  0  0  0  0  0  0
  185.4060  177.9950  143.2470 C   0  0  0  0  0  0  0  0  0  0  0  0
  184.6910  178.6080  144.2890 C   0  0  0  0  0  0  0  0  0  0  0  0
  185.3420  178.6860  145.9190 Cl  0  0  0  0  0  0  0  0  0  0  0  0
  183.4200  179.1390  144.0430 C   0  0  0  0  0  3  0  0  0  0  0  0
  184.8460  177.9520  141.9620 C   0  0  0  0  0  3  0  0  0  0  0  0
  186.6860  177.4030  143.5030 N   0  0  0  0  0  2  0  0  0  0  0  0
  187.9190  177.9280  142.9270 C   0  0  0  0  0  2  0  0  0  0  0  0
  190.2960  177.4250  143.3860 C   0  0  0  0  0  2  0  0  0  0  0  0
  188.6250  177.1820  145.2130 C   0  0  0  0  0  2  0  0  0  0  0  0
  191.4520  177.4880  144.3840 C   0  0  1  0  0  3  0  0  0  0  0  0
  191.8920  178.7920  144.5090 F   0  0  0  0  0  0  0  0  0  0  0  0
  189.0150  177.9980  143.9750 C   0  0  2  0  0  3  0  0  0  0  0  0
  189.7070  177.2080  146.1980 N   0  0  0  0  0  0  0  0  0  0  0  0
  191.0450  176.9630  145.7210 C   0  0  0  0  0  0  0  0  0  0  0  0
  191.9170  176.2590  146.4330 C   0  0  0  0  0  2  0  0  0  0  0  0
  188.1770  177.5200  148.0390 C   0  0  0  0  0  2  0  0  0  0  0  0
  189.4250  177.5260  147.5780 C   0  0  0  0  0  0  0  0  0  0  0  0
  190.4590  178.0190  148.4320 N   0  0  0  0  0  1  0  0  0  0  0  0
  1  2  2  0  0  0  0
  2 34  1  0  0  0  0
  3  1  1  0  0  0  0
  4  3  2  0  0  0  0
  5  8  1  0  0  0  0
  6  4  1  1  0  0  0
  6  7  1  0  0  0  0
  8 10  1  6  0  0  0
  8  7  1  0  0  0  0
  9  5  1  0  0  0  0
  9  6  1  0  0  0  0
 11 10  1  6  0  0  0
 11 12  1  0  0  0  0
 12 13  1  0  0  0  0
 14 12  2  0  0  0  0
 15 16  1  1  0  0  0
 15 11  1  0  0  0  0
 16 17  1  0  0  0  0
 18 15  1  0  0  0  0
 19 18  1  0  0  0  0
 20 19  1  0  0  0  0
 21  2  1  0  0  0  0
 22 23  1  1  0  0  0
 22 27  1  0  0  0  0
 22 21  1  0  0  0  0
 24 28  1  0  0  0  0
 24 27  1  0  0  0  0
 25 26  1  0  0  0  0
 25 29  1  0  0  0  0
 26 28  1  0  0  0  0
 29 24  2  0  0  0  0
 30 25  1  0  0  0  0
 30 31  1  0  0  0  0
 31 32  2  0  0  0  0
 31 33  1  0  0  0  0
 34 35  1  0  0  0  0
 35 37  2  0  0  0  0
 35 39  1  0  0  0  0
 36 35  2  0  0  0  0
 38 43  1  0  0  0  0
 39 44  1  0  0  0  0
 39 38  2  0  0  0  0
 40 45  1  0  0  0  0
 40 41  1  0  0  0  0
 41 42  1  0  0  0  0
 43 41  2  0  0  0  0
 44 40  2  0  0  0  0
 46 45  1  0  0  0  0
 47 51  1  0  0  0  0
 47 49  1  0  0  0  0
 48 52  1  0  0  0  0
 49 50  1  1  0  0  0
 49 53  1  0  0  0  0
 51 46  1  6  0  0  0
 51 48  1  0  0  0  0
 52 56  1  0  0  0  0
 53 52  1  0  0  0  0
 53 54  2  0  0  0  0
 56 55  2  0  0  0  0
 56 57  1  0  0  0  0
M  END
>  <MODEL>
4

>  <REMARK>
 VINA RESULT:      -5.9      3.087      5.013
  Name = 
  21 active torsions:
  status: ('A' for Active; 'I' for Inactive)
    1  A    between atoms: C_1  and  O_28
    2  A    between atoms: C_3  and  C_30
    3  A    between atoms: S_4  and  C_12
    4  A    between atoms: S_4  and  C_17
    5  A    between atoms: C_9  and  C_25
    6  A    between atoms: N_11  and  C_41
    7  A    between atoms: CA_13  and  C_16
    8  A    between atoms: CA_13  and  C_30
    9  A    between atoms: CA_13  and  N_53
   10  A    between atoms: C_14  and  C_22
   11  A    between atoms: C_17  and  C_48
   12  A    between atoms: C_18  and  N_35
   13  A    between atoms: C_21  and  C_34
   14  A    between atoms: C_21  and  N_47
   15  A    between atoms: C_23  and  C_41
   16  A    between atoms: C_27  and  N_47
   17  A    between atoms: O_28  and  C_30
   18  A    between atoms: N_31  and  C_44
   19  A    between atoms: C_44  and  N_57
   20  A    between atoms: C_48  and  N_57
   21  A    between atoms: C_49  and  N_53
                            x       y       z     vdW  Elec       q    Type
                         _______ _______ _______ _____ _____    ______ ____

>  <TORSDO>
F 21

$$$$
=
 OpenBabel11042411253D

 57 60  0  0  1  0  0  0  0  0999 V2000
  187.7460  176.6790  135.2800 C   0  0  0  0  0  3  0  0  0  0  0  0
  186.8600  176.8800  136.2560 C   0  0  0  0  0  0  0  0  0  0  0  0
  189.1360  176.3010  135.5440 C   0  0  0  0  0  3  0  0  0  0  0  0
  189.4450  175.1160  136.0370 C   0  0  0  0  0  3  0  0  0  0  0  0
  192.7860  173.0220  135.9360 S   0  0  0  0  0  0  0  0  0  0  0  0
  190.8750  174.7700  136.2610 C   0  0  2  0  0  3  0  0  0  0  0  0
  191.7550  175.3740  135.2000 C   0  0  0  0  0  2  0  0  0  0  0  0
  193.1040  174.7320  135.3940 C   0  0  1  0  0  3  0  0  0  0  0  0
  191.0710  173.3330  136.2440 N   0  0  0  0  0  2  0  0  0  0  0  0
  193.8240  175.4310  136.4430 N   0  0  0  0  0  2  0  0  0  0  0  0
  194.8970  174.5610  136.8950 C   0  0  2  0  0  3  0  0  0  0  0  0
  194.9990  174.6460  138.3850 C   0  0  0  0  0  0  0  0  0  0  0  0
  195.7350  173.7020  139.1000 O   0  0  0  0  0  1  0  0  0  0  0  0
  194.4820  175.6220  138.9850 O   0  0  0  0  0  0  0  0  0  0  0  0
  196.2130  174.9630  136.2150 C   0  0  1  0  0  3  0  0  0  0  0  0
  197.1500  173.7670  136.0290 C   0  0  0  0  0  2  0  0  0  0  0  0
  196.5010  172.7340  135.3480 O   0  0  0  0  0  1  0  0  0  0  0  0
  195.9540  175.5580  134.9730 O   0  0  0  0  0  0  0  0  0  0  0  0
  196.7090  176.7300  134.9700 C   0  0  0  0  0  2  0  0  0  0  0  0
  195.7890  177.9280  134.8210 C   0  0  0  0  0  1  0  0  0  0  0  0
  185.5610  177.3730  135.9010 N   0  0  0  0  0  2  0  0  0  0  0  0
  184.3080  176.9020  136.4880 C   0  0  2  0  0  3  0  0  0  0  0  0
  184.3730  175.4150  136.7430 C   0  0  0  0  0  1  0  0  0  0  0  0
  182.0230  177.9070  136.1150 C   0  0  0  0  0  0  0  0  0  0  0  0
  180.7820  179.0690  137.5720 N   0  0  0  0  0  0  0  0  0  0  0  0
  179.9380  179.2960  136.4180 C   0  0  0  0  0  2  0  0  0  0  0  0
  183.1720  177.2090  135.6360 N   0  0  0  0  0  2  0  0  0  0  0  0
  180.6890  178.3790  135.0280 S   0  0  0  0  0  0  0  0  0  0  0  0
  181.9290  178.3190  137.3280 N   0  0  0  0  0  0  0  0  0  0  0  0
  180.5050  179.6420  138.8790 C   0  0  0  0  0  2  0  0  0  0  0  0
  180.7770  181.1090  138.8640 C   0  0  0  0  0  0  0  0  0  0  0  0
  181.8600  181.5430  138.3910 O   0  0  0  0  0  0  0  0  0  0  0  0
  179.8520  181.9910  139.4050 O   0  0  0  0  0  1  0  0  0  0  0  0
  187.2360  176.6830  137.7000 C   0  0  0  0  0  2  0  0  0  0  0  0
  187.3540  178.2430  138.5790 S   0  0  0  0  0  0  0  0  0  0  0  0
  188.6640  178.2850  139.3070 O   0  0  0  0  0  0  0  0  0  0  0  0
  187.3070  179.3700  137.5930 O   0  0  0  0  0  0  0  0  0  0  0  0
  184.8280  179.0110  139.3460 C   0  0  0  0  0  3  0  0  0  0  0  0
  186.0600  178.4820  139.7370 C   0  0  0  0  0  0  0  0  0  0  0  0
  185.2310  178.2480  142.0150 C   0  0  0  0  0  0  0  0  0  0  0  0
  184.0070  178.8150  141.6230 C   0  0  0  0  0  0  0  0  0  0  0  0
  182.6950  179.0370  142.7690 Cl  0  0  0  0  0  0  0  0  0  0  0  0
  183.8070  179.1840  140.2870 C   0  0  0  0  0  3  0  0  0  0  0  0
  186.2500  178.0870  141.0650 C   0  0  0  0  0  3  0  0  0  0  0  0
  185.4260  177.8210  143.3690 N   0  0  0  0  0  2  0  0  0  0  0  0
  186.2280  178.5810  144.3210 C   0  0  0  0  0  2  0  0  0  0  0  0
  187.8350  178.1960  146.1600 C   0  0  0  0  0  2  0  0  0  0  0  0
  188.6300  178.0830  143.8060 C   0  0  0  0  0  2  0  0  0  0  0  0
  189.0500  177.4160  146.6610 C   0  0  1  0  0  3  0  0  0  0  0  0
  188.6850  176.1150  146.9500 F   0  0  0  0  0  0  0  0  0  0  0  0
  187.4530  177.7900  144.7430 C   0  0  2  0  0  3  0  0  0  0  0  0
  189.8220  177.3600  144.2490 N   0  0  0  0  0  0  0  0  0  0  0  0
  190.1510  177.4180  145.6520 C   0  0  0  0  0  0  0  0  0  0  0  0
  191.4090  177.4990  146.0670 C   0  0  0  0  0  2  0  0  0  0  0  0
  190.4320  175.2620  143.2240 C   0  0  0  0  0  2  0  0  0  0  0  0
  190.5910  176.5790  143.3080 C   0  0  0  0  0  0  0  0  0  0  0  0
  191.6580  177.1810  142.5720 N   0  0  0  0  0  1  0  0  0  0  0  0
  1  3  1  0  0  0  0
  1  2  2  0  0  0  0
  2 34  1  0  0  0  0
  3  4  2  0  0  0  0
  5  9  1  0  0  0  0
  6  4  1  6  0  0  0
  7  8  1  0  0  0  0
  7  6  1  0  0  0  0
  8  5  1  0  0  0  0
  8 10  1  1  0  0  0
  9  6  1  0  0  0  0
 11 10  1  6  0  0  0
 11 12  1  0  0  0  0
 12 14  2  0  0  0  0
 12 13  1  0  0  0  0
 15 16  1  6  0  0  0
 15 11  1  0  0  0  0
 17 16  1  0  0  0  0
 18 15  1  0  0  0  0
 19 18  1  0  0  0  0
 20 19  1  0  0  0  0
 21  2  1  0  0  0  0
 21 22  1  0  0  0  0
 22 23  1  6  0  0  0
 24 29  2  0  0  0  0
 25 30  1  0  0  0  0
 26 25  1  0  0  0  0
 27 24  1  0  0  0  0
 27 22  1  0  0  0  0
 28 24  1  0  0  0  0
 28 26  1  0  0  0  0
 29 25  1  0  0  0  0
 31 30  1  0  0  0  0
 31 33  1  0  0  0  0
 32 31  2  0  0  0  0
 34 35  1  0  0  0  0
 35 36  2  0  0  0  0
 35 39  1  0  0  0  0
 37 35  2  0  0  0  0
 38 39  2  0  0  0  0
 38 43  1  0  0  0  0
 39 44  1  0  0  0  0
 40 45  1  0  0  0  0
 41 40  1  0  0  0  0
 41 42  1  0  0  0  0
 43 41  2  0  0  0  0
 44 40  2  0  0  0  0
 45 46  1  0  0  0  0
 47 49  1  0  0  0  0
 48 52  1  0  0  0  0
 48 51  1  0  0  0  0
 49 50  1  6  0  0  0
 51 46  1  6  0  0  0
 51 47  1  0  0  0  0
 52 53  1  0  0  0  0
 53 54  2  0  0  0  0
 53 49  1  0  0  0  0
 55 56  2  0  0  0  0
 56 52  1  0  0  0  0
 57 56  1  0  0  0  0
M  END
>  <MODEL>
5

>  <REMARK>
 VINA RESULT:      -5.6      1.857      2.494
  Name = 
  21 active torsions:
  status: ('A' for Active; 'I' for Inactive)
    1  A    between atoms: C_1  and  O_28
    2  A    between atoms: C_3  and  C_30
    3  A    between atoms: S_4  and  C_12
    4  A    between atoms: S_4  and  C_17
    5  A    between atoms: C_9  and  C_25
    6  A    between atoms: N_11  and  C_41
    7  A    between atoms: CA_13  and  C_16
    8  A    between atoms: CA_13  and  C_30
    9  A    between atoms: CA_13  and  N_53
   10  A    between atoms: C_14  and  C_22
   11  A    between atoms: C_17  and  C_48
   12  A    between atoms: C_18  and  N_35
   13  A    between atoms: C_21  and  C_34
   14  A    between atoms: C_21  and  N_47
   15  A    between atoms: C_23  and  C_41
   16  A    between atoms: C_27  and  N_47
   17  A    between atoms: O_28  and  C_30
   18  A    between atoms: N_31  and  C_44
   19  A    between atoms: C_44  and  N_57
   20  A    between atoms: C_48  and  N_57
   21  A    between atoms: C_49  and  N_53
                            x       y       z     vdW  Elec       q    Type
                         _______ _______ _______ _____ _____    ______ ____

>  <TORSDO>
F 21

$$$$
=
 OpenBabel11042411253D

 57 60  0  0  1  0  0  0  0  0999 V2000
  184.9410  179.1010  140.0920 C   0  0  0  0  0  2  0  0  0  0  0  0
  184.0730  178.5390  139.2500 C   0  0  0  0  0  0  0  0  0  0  0  0
  186.0530  178.3590  140.6890 C   0  0  0  0  0  3  0  0  0  0  0  0
  187.3050  178.6120  140.3560 C   0  0  0  0  0  3  0  0  0  0  0  0
  190.9080  177.1230  140.9540 S   0  0  0  0  0  0  0  0  0  0  0  0
  188.4020  177.8480  141.0120 C   0  0  2  0  0  3  0  0  0  0  0  0
  189.0480  178.6540  142.1070 C   0  0  0  0  0  2  0  0  0  0  0  0
  190.2840  177.8820  142.4880 C   0  0  1  0  0  3  0  0  0  0  0  0
  189.4280  177.4870  140.0530 N   0  0  0  0  0  2  0  0  0  0  0  0
  189.9270  176.8280  143.4210 N   0  0  0  0  0  2  0  0  0  0  0  0
  190.3190  177.2660  144.7490 C   0  0  2  0  0  3  0  0  0  0  0  0
  191.4770  176.4400  145.2120 C   0  0  0  0  0  0  0  0  0  0  0  0
  191.9680  175.4020  144.4210 O   0  0  0  0  0  0  0  0  0  0  0  0
  192.0600  176.7380  146.2850 O   0  0  0  0  0  1  0  0  0  0  0  0
  189.1250  177.1500  145.7080 C   0  0  1  0  0  3  0  0  0  0  0  0
  189.4610  177.6720  147.1070 C   0  0  0  0  0  2  0  0  0  0  0  0
  188.6190  177.0970  148.0620 O   0  0  0  0  0  1  0  0  0  0  0  0
  188.0230  177.8470  145.1940 O   0  0  0  0  0  0  0  0  0  0  0  0
  186.9190  177.3230  145.8650 C   0  0  0  0  0  2  0  0  0  0  0  0
  185.7750  178.3180  145.8170 C   0  0  0  0  0  1  0  0  0  0  0  0
  182.9450  179.3130  138.8220 N   0  0  0  0  0  0  0  0  0  0  0  0
  181.9270  178.8460  137.8830 C   0  0  2  0  0  3  0  0  0  0  0  0
  181.1240  180.0120  137.3560 C   0  0  0  0  0  1  0  0  0  0  0  0
  180.7610  177.8700  139.8980 C   0  0  0  0  0  0  0  0  0  0  0  0
  180.7860  178.6340  142.0010 N   0  0  0  0  0  0  0  0  0  0  0  0
  179.7790  177.6160  142.2090 C   0  0  0  0  0  2  0  0  0  0  0  0
  181.0420  177.8720  138.4980 N   0  0  0  0  0  2  0  0  0  0  0  0
  179.5800  176.7410  140.6160 S   0  0  0  0  0  0  0  0  0  0  0  0
  181.2640  178.7390  140.6980 N   0  0  0  0  0  0  0  0  0  0  0  0
  181.2190  179.5420  143.0510 C   0  0  0  0  0  2  0  0  0  0  0  0
  182.4290  178.9980  143.7330 C   0  0  0  0  0  0  0  0  0  0  0  0
  182.5870  179.1710  144.9700 O   0  0  0  0  0  1  0  0  0  0  0  0
  183.4000  178.3320  142.9960 O   0  0  0  0  0  0  0  0  0  0  0  0
  184.2200  177.1030  138.8270 C   0  0  0  0  0  2  0  0  0  0  0  0
  184.9850  176.9580  137.2100 S   0  0  0  0  0  0  0  0  0  0  0  0
  184.0350  177.4890  136.1800 O   0  0  0  0  0  0  0  0  0  0  0  0
  186.2420  177.7740  137.1830 O   0  0  0  0  0  0  0  0  0  0  0  0
  184.5330  174.5090  136.0440 C   0  0  0  0  0  3  0  0  0  0  0  0
  185.4030  175.3070  136.7890 C   0  0  0  0  0  0  0  0  0  0  0  0
  187.0270  173.4930  136.8290 C   0  0  0  0  0  0  0  0  0  0  0  0
  186.1320  172.6820  136.1120 C   0  0  0  0  0  0  0  0  0  0  0  0
  186.5500  171.0360  135.6630 Cl  0  0  0  0  0  0  0  0  0  0  0  0
  184.8930  173.1980  135.7120 C   0  0  0  0  0  3  0  0  0  0  0  0
  186.6520  174.8030  137.1640 C   0  0  0  0  0  3  0  0  0  0  0  0
  188.3180  172.9900  137.1980 N   0  0  0  0  0  2  0  0  0  0  0  0
  189.4030  172.8430  136.2340 C   0  0  0  0  0  2  0  0  0  0  0  0
  190.2250  174.8710  135.0840 C   0  0  0  0  0  2  0  0  0  0  0  0
  191.8130  173.5040  136.4250 C   0  0  0  0  0  2  0  0  0  0  0  0
  191.1540  176.0840  135.1270 C   0  0  1  0  0  3  0  0  0  0  0  0
  190.6710  177.0120  136.0300 F   0  0  0  0  0  0  0  0  0  0  0  0
  190.3690  174.0100  136.3310 C   0  0  2  0  0  3  0  0  0  0  0  0
  192.7430  174.6340  136.4640 N   0  0  0  0  0  0  0  0  0  0  0  0
  192.5440  175.6910  135.5040 C   0  0  0  0  0  0  0  0  0  0  0  0
  193.5700  176.3060  134.9270 C   0  0  0  0  0  2  0  0  0  0  0  0
  194.4990  173.6140  137.7680 C   0  0  0  0  0  2  0  0  0  0  0  0
  193.7760  174.6900  137.4710 C   0  0  0  0  0  0  0  0  0  0  0  0
  193.9260  175.8530  138.2890 N   0  0  0  0  0  1  0  0  0  0  0  0
  1  3  1  0  0  0  0
  2  1  1  0  0  0  0
  4  3  2  0  0  0  0
  5  8  1  0  0  0  0
  6  4  1  6  0  0  0
  6  7  1  0  0  0  0
  7  8  1  0  0  0  0
  8 10  1  1  0  0  0
  9  5  1  0  0  0  0
  9  6  1  0  0  0  0
 11 10  1  6  0  0  0
 11 12  1  0  0  0  0
 11 15  1  0  0  0  0
 12 14  1  0  0  0  0
 13 12  2  0  0  0  0
 15 16  1  1  0  0  0
 16 17  1  0  0  0  0
 18 15  1  0  0  0  0
 18 19  1  0  0  0  0
 20 19  1  0  0  0  0
 21  2  2  0  0  0  0
 22 23  1  1  0  0  0
 22 27  1  0  0  0  0
 22 21  1  0  0  0  0
 24 28  1  0  0  0  0
 24 29  2  0  0  0  0
 25 26  1  0  0  0  0
 25 30  1  0  0  0  0
 27 24  1  0  0  0  0
 28 26  1  0  0  0  0
 29 25  1  0  0  0  0
 30 31  1  0  0  0  0
 31 32  1  0  0  0  0
 33 31  2  0  0  0  0
 34  2  1  0  0  0  0
 35 34  1  0  0  0  0
 36 35  2  0  0  0  0
 37 35  2  0  0  0  0
 38 39  1  0  0  0  0
 39 44  2  0  0  0  0
 39 35  1  0  0  0  0
 40 44  1  0  0  0  0
 40 45  1  0  0  0  0
 41 40  2  0  0  0  0
 42 41  1  0  0  0  0
 43 38  2  0  0  0  0
 43 41  1  0  0  0  0
 46 45  1  0  0  0  0
 47 49  1  0  0  0  0
 47 51  1  0  0  0  0
 48 52  1  0  0  0  0
 49 53  1  0  0  0  0
 49 50  1  1  0  0  0
 51 46  1  6  0  0  0
 51 48  1  0  0  0  0
 52 56  1  0  0  0  0
 53 52  1  0  0  0  0
 54 53  2  0  0  0  0
 56 55  2  0  0  0  0
 56 57  1  0  0  0  0
M  END
>  <MODEL>
6

>  <REMARK>
 VINA RESULT:      -5.5      4.039      8.374
  Name = 
  21 active torsions:
  status: ('A' for Active; 'I' for Inactive)
    1  A    between atoms: C_1  and  O_28
    2  A    between atoms: C_3  and  C_30
    3  A    between atoms: S_4  and  C_12
    4  A    between atoms: S_4  and  C_17
    5  A    between atoms: C_9  and  C_25
    6  A    between atoms: N_11  and  C_41
    7  A    between atoms: CA_13  and  C_16
    8  A    between atoms: CA_13  and  C_30
    9  A    between atoms: CA_13  and  N_53
   10  A    between atoms: C_14  and  C_22
   11  A    between atoms: C_17  and  C_48
   12  A    between atoms: C_18  and  N_35
   13  A    between atoms: C_21  and  C_34
   14  A    between atoms: C_21  and  N_47
   15  A    between atoms: C_23  and  C_41
   16  A    between atoms: C_27  and  N_47
   17  A    between atoms: O_28  and  C_30
   18  A    between atoms: N_31  and  C_44
   19  A    between atoms: C_44  and  N_57
   20  A    between atoms: C_48  and  N_57
   21  A    between atoms: C_49  and  N_53
                            x       y       z     vdW  Elec       q    Type
                         _______ _______ _______ _____ _____    ______ ____

>  <TORSDO>
F 21

$$$$
=
 OpenBabel11042411253D

 57 60  0  0  1  0  0  0  0  0999 V2000
  185.5770  178.4190  139.2840 C   0  0  0  0  0  3  0  0  0  0  0  0
  184.5660  177.7780  138.6970 C   0  0  0  0  0  0  0  0  0  0  0  0
  185.7560  178.4440  140.7360 C   0  0  0  0  0  3  0  0  0  0  0  0
  186.9520  178.3310  141.2830 C   0  0  0  0  0  3  0  0  0  0  0  0
  185.9050  178.1690  145.0830 S   0  0  0  0  0  0  0  0  0  0  0  0
  187.0850  178.3900  142.7650 C   0  0  2  0  0  3  0  0  0  0  0  0
  187.5960  177.0880  143.3190 C   0  0  0  0  0  2  0  0  0  0  0  0
  187.4240  177.2000  144.8120 C   0  0  1  0  0  3  0  0  0  0  0  0
  185.8070  178.6750  143.3890 N   0  0  0  0  0  2  0  0  0  0  0  0
  188.5500  177.9250  145.3740 N   0  0  0  0  0  2  0  0  0  0  0  0
  189.1060  177.1140  146.4430 C   0  0  2  0  0  3  0  0  0  0  0  0
  188.4140  177.4560  147.7240 C   0  0  0  0  0  0  0  0  0  0  0  0
  187.4400  176.6100  148.2520 O   0  0  0  0  0  0  0  0  0  0  0  0
  188.7730  178.4750  148.3680 O   0  0  0  0  0  1  0  0  0  0  0  0
  190.6200  177.3480  146.5390 C   0  0  1  0  0  3  0  0  0  0  0  0
  191.3230  176.2360  147.3210 C   0  0  0  0  0  2  0  0  0  0  0  0
  192.4390  176.7380  147.9950 O   0  0  0  0  0  1  0  0  0  0  0  0
  191.1760  177.4490  145.2560 O   0  0  0  0  0  0  0  0  0  0  0  0
  191.3370  176.1320  144.8280 C   0  0  0  0  0  2  0  0  0  0  0  0
  191.1880  176.0640  143.3200 C   0  0  0  0  0  1  0  0  0  0  0  0
  184.4040  177.9210  137.2790 N   0  0  0  0  0  2  0  0  0  0  0  0
  185.3780  177.4780  136.2850 C   0  0  2  0  0  3  0  0  0  0  0  0
  184.8170  177.6390  134.8910 C   0  0  0  0  0  1  0  0  0  0  0  0
  187.1380  175.7030  136.6420 C   0  0  0  0  0  0  0  0  0  0  0  0
  189.3480  175.9880  136.8580 N   0  0  0  0  0  0  0  0  0  0  0  0
  189.3300  174.5780  137.1870 C   0  0  0  0  0  2  0  0  0  0  0  0
  185.7720  176.0960  136.5030 N   0  0  0  0  0  2  0  0  0  0  0  0
  187.5960  174.0220  137.0260 S   0  0  0  0  0  0  0  0  0  0  0  0
  188.1020  176.5500  136.5960 N   0  0  0  0  0  0  0  0  0  0  0  0
  190.5610  176.7880  136.8750 C   0  0  0  0  0  2  0  0  0  0  0  0
  191.4710  176.3630  135.7710 C   0  0  0  0  0  0  0  0  0  0  0  0
  191.0300  176.2620  134.5960 O   0  0  0  0  0  0  0  0  0  0  0  0
  192.7940  176.0460  136.0470 O   0  0  0  0  0  1  0  0  0  0  0  0
  183.5670  176.9960  139.5060 C   0  0  0  0  0  2  0  0  0  0  0  0
  182.1220  177.9790  139.9130 S   0  0  0  0  0  0  0  0  0  0  0  0
  181.0740  177.0750  140.4890 O   0  0  0  0  0  0  0  0  0  0  0  0
  182.4960  179.0080  140.9370 O   0  0  0  0  0  0  0  0  0  0  0  0
  181.6990  180.1690  138.3050 C   0  0  0  0  0  3  0  0  0  0  0  0
  181.4420  178.8150  138.5290 C   0  0  0  0  0  0  0  0  0  0  0  0
  180.1300  178.7290  136.4800 C   0  0  0  0  0  0  0  0  0  0  0  0
  180.3600  180.1000  136.2810 C   0  0  0  0  0  0  0  0  0  0  0  0
  179.7050  180.9410  134.8840 Cl  0  0  0  0  0  0  0  0  0  0  0  0
  181.1530  180.8110  137.1880 C   0  0  0  0  0  3  0  0  0  0  0  0
  180.6740  178.0970  137.6080 C   0  0  0  0  0  3  0  0  0  0  0  0
  179.3610  177.9810  135.5280 N   0  0  0  0  0  2  0  0  0  0  0  0
  179.9560  176.9590  134.6740 C   0  0  0  0  0  2  0  0  0  0  0  0
  181.9220  175.4910  134.9780 C   0  0  0  0  0  2  0  0  0  0  0  0
  179.6480  174.5870  135.4250 C   0  0  0  0  0  2  0  0  0  0  0  0
  182.5800  174.3780  135.7930 C   0  0  1  0  0  3  0  0  0  0  0  0
  182.9860  174.8720  137.0180 F   0  0  0  0  0  0  0  0  0  0  0  0
  180.5380  175.8330  135.5100 C   0  0  2  0  0  3  0  0  0  0  0  0
  180.2420  173.4890  136.1890 N   0  0  0  0  0  0  0  0  0  0  0  0
  181.6470  173.2300  135.9980 C   0  0  0  0  0  0  0  0  0  0  0  0
  182.1280  171.9930  135.9740 C   0  0  0  0  0  2  0  0  0  0  0  0
  179.2890  173.1710  138.3840 C   0  0  0  0  0  2  0  0  0  0  0  0
  179.4410  172.7450  137.1330 C   0  0  0  0  0  0  0  0  0  0  0  0
  178.9390  171.4510  136.7930 N   0  0  0  0  0  1  0  0  0  0  0  0
  1  3  1  0  0  0  0
  2  1  2  0  0  0  0
  2 34  1  0  0  0  0
  3  4  2  0  0  0  0
  6  4  1  6  0  0  0
  6  7  1  0  0  0  0
  6  9  1  0  0  0  0
  7  8  1  0  0  0  0
  8  5  1  0  0  0  0
  8 10  1  6  0  0  0
  9  5  1  0  0  0  0
 11 10  1  6  0  0  0
 11 15  1  0  0  0  0
 11 12  1  0  0  0  0
 12 13  2  0  0  0  0
 12 14  1  0  0  0  0
 15 16  1  6  0  0  0
 16 17  1  0  0  0  0
 18 15  1  0  0  0  0
 19 18  1  0  0  0  0
 20 19  1  0  0  0  0
 21  2  1  0  0  0  0
 22 23  1  6  0  0  0
 22 27  1  0  0  0  0
 22 21  1  0  0  0  0
 24 28  1  0  0  0  0
 25 30  1  0  0  0  0
 25 26  1  0  0  0  0
 27 24  1  0  0  0  0
 28 26  1  0  0  0  0
 29 24  2  0  0  0  0
 29 25  1  0  0  0  0
 31 33  1  0  0  0  0
 31 30  1  0  0  0  0
 32 31  2  0  0  0  0
 34 35  1  0  0  0  0
 35 36  2  0  0  0  0
 35 37  2  0  0  0  0
 38 39  1  0  0  0  0
 39 35  1  0  0  0  0
 40 44  1  0  0  0  0
 41 40  2  0  0  0  0
 41 43  1  0  0  0  0
 42 41  1  0  0  0  0
 43 38  2  0  0  0  0
 44 39  2  0  0  0  0
 45 40  1  0  0  0  0
 46 45  1  0  0  0  0
 47 51  1  0  0  0  0
 47 49  1  0  0  0  0
 48 51  1  0  0  0  0
 48 52  1  0  0  0  0
 49 53  1  0  0  0  0
 49 50  1  1  0  0  0
 51 46  1  6  0  0  0
 52 56  1  0  0  0  0
 53 52  1  0  0  0  0
 54 53  2  0  0  0  0
 56 55  2  0  0  0  0
 57 56  1  0  0  0  0
M  END
>  <MODEL>
7

>  <REMARK>
 VINA RESULT:      -5.3      3.981     10.370
  Name = 
  21 active torsions:
  status: ('A' for Active; 'I' for Inactive)
    1  A    between atoms: C_1  and  O_28
    2  A    between atoms: C_3  and  C_30
    3  A    between atoms: S_4  and  C_12
    4  A    between atoms: S_4  and  C_17
    5  A    between atoms: C_9  and  C_25
    6  A    between atoms: N_11  and  C_41
    7  A    between atoms: CA_13  and  C_16
    8  A    between atoms: CA_13  and  C_30
    9  A    between atoms: CA_13  and  N_53
   10  A    between atoms: C_14  and  C_22
   11  A    between atoms: C_17  and  C_48
   12  A    between atoms: C_18  and  N_35
   13  A    between atoms: C_21  and  C_34
   14  A    between atoms: C_21  and  N_47
   15  A    between atoms: C_23  and  C_41
   16  A    between atoms: C_27  and  N_47
   17  A    between atoms: O_28  and  C_30
   18  A    between atoms: N_31  and  C_44
   19  A    between atoms: C_44  and  N_57
   20  A    between atoms: C_48  and  N_57
   21  A    between atoms: C_49  and  N_53
                            x       y       z     vdW  Elec       q    Type
                         _______ _______ _______ _____ _____    ______ ____

>  <TORSDO>
F 21

$$$$
=
 OpenBabel11042411253D

 57 60  0  0  1  0  0  0  0  0999 V2000
  183.4340  177.9440  140.6660 C   0  0  0  0  0  3  0  0  0  0  0  0
  183.4530  178.4760  139.4440 C   0  0  0  0  0  0  0  0  0  0  0  0
  184.5010  178.1730  141.6420 C   0  0  0  0  0  3  0  0  0  0  0  0
  184.2440  178.2590  142.9340 C   0  0  0  0  0  3  0  0  0  0  0  0
  186.1550  178.4940  146.3770 S   0  0  0  0  0  0  0  0  0  0  0  0
  185.3680  178.4650  143.8890 C   0  0  2  0  0  3  0  0  0  0  0  0
  186.1990  177.2190  144.0300 C   0  0  0  0  0  2  0  0  0  0  0  0
  187.1100  177.4830  145.2010 C   0  0  1  0  0  3  0  0  0  0  0  0
  184.8730  178.8280  145.2030 N   0  0  0  0  0  2  0  0  0  0  0  0
  188.2610  178.2460  144.7530 N   0  0  0  0  0  2  0  0  0  0  0  0
  189.3350  177.3050  144.4850 C   0  0  2  0  0  3  0  0  0  0  0  0
  190.1380  177.1130  145.7330 C   0  0  0  0  0  0  0  0  0  0  0  0
  189.8200  177.8160  146.8950 O   0  0  0  0  0  1  0  0  0  0  0  0
  191.0530  176.2520  145.7530 O   0  0  0  0  0  0  0  0  0  0  0  0
  190.2040  177.8240  143.3300 C   0  0  1  0  0  3  0  0  0  0  0  0
  191.5310  178.4020  143.8260 C   0  0  0  0  0  2  0  0  0  0  0  0
  191.4270  179.7830  144.0110 O   0  0  0  0  0  1  0  0  0  0  0  0
  190.4500  176.7950  142.4110 O   0  0  0  0  0  0  0  0  0  0  0  0
  189.9260  177.2550  141.2040 C   0  0  0  0  0  2  0  0  0  0  0  0
  190.9180  176.9950  140.0860 C   0  0  0  0  0  1  0  0  0  0  0  0
  182.4290  178.0870  138.5190 N   0  0  0  0  0  2  0  0  0  0  0  0
  181.0980  177.6220  138.9030 C   0  0  2  0  0  3  0  0  0  0  0  0
  180.1720  177.6350  137.7090 C   0  0  0  0  0  1  0  0  0  0  0  0
  180.0860  179.7680  139.7630 C   0  0  0  0  0  0  0  0  0  0  0  0
  179.5490  181.5980  138.5910 N   0  0  0  0  0  0  0  0  0  0  0  0
  178.9490  182.0200  139.8390 C   0  0  0  0  0  2  0  0  0  0  0  0
  180.5390  178.4300  139.9720 N   0  0  0  0  0  2  0  0  0  0  0  0
  179.2940  180.7040  141.0600 S   0  0  0  0  0  0  0  0  0  0  0  0
  180.1340  180.3350  138.6120 N   0  0  0  0  0  0  0  0  0  0  0  0
  179.4840  182.3910  137.3750 C   0  0  0  0  0  2  0  0  0  0  0  0
  180.1560  183.7060  137.5830 C   0  0  0  0  0  0  0  0  0  0  0  0
  179.4970  184.6910  138.0060 O   0  0  0  0  0  1  0  0  0  0  0  0
  181.5030  183.8530  137.2760 O   0  0  0  0  0  0  0  0  0  0  0  0
  184.5670  179.3910  139.0120 C   0  0  0  0  0  2  0  0  0  0  0  0
  185.9590  178.4790  138.3420 S   0  0  0  0  0  0  0  0  0  0  0  0
  186.7090  179.3710  137.4000 O   0  0  0  0  0  0  0  0  0  0  0  0
  186.8700  178.0740  139.4610 O   0  0  0  0  0  0  0  0  0  0  0  0
  184.3550  177.0120  136.6580 C   0  0  0  0  0  3  0  0  0  0  0  0
  185.4840  177.0270  137.4800 C   0  0  0  0  0  0  0  0  0  0  0  0
  185.9400  174.7100  136.8890 C   0  0  0  0  0  0  0  0  0  0  0  0
  184.7820  174.6890  136.0940 C   0  0  0  0  0  0  0  0  0  0  0  0
  184.3110  173.2490  135.2060 Cl  0  0  0  0  0  0  0  0  0  0  0  0
  184.0010  175.8440  135.9730 C   0  0  0  0  0  3  0  0  0  0  0  0
  186.2800  175.8830  137.5780 C   0  0  0  0  0  3  0  0  0  0  0  0
  186.7740  173.5470  136.9780 N   0  0  0  0  0  2  0  0  0  0  0  0
  187.7750  173.2240  135.9660 C   0  0  0  0  0  2  0  0  0  0  0  0
  188.8900  175.2650  135.1290 C   0  0  0  0  0  2  0  0  0  0  0  0
  190.2750  173.3200  135.8240 C   0  0  0  0  0  2  0  0  0  0  0  0
  190.0800  176.2180  135.2450 C   0  0  1  0  0  3  0  0  0  0  0  0
  189.9660  176.9720  136.3970 F   0  0  0  0  0  0  0  0  0  0  0  0
  188.9960  174.1130  136.1170 C   0  0  2  0  0  3  0  0  0  0  0  0
  191.4450  174.1940  135.9180 N   0  0  0  0  0  0  0  0  0  0  0  0
  191.3740  175.4720  135.2560 C   0  0  0  0  0  0  0  0  0  0  0  0
  192.4260  175.9920  134.6350 C   0  0  0  0  0  2  0  0  0  0  0  0
  193.0910  174.5870  137.6390 C   0  0  0  0  0  2  0  0  0  0  0  0
  192.5920  173.7910  136.6980 C   0  0  0  0  0  0  0  0  0  0  0  0
  193.3180  172.6080  136.3570 N   0  0  0  0  0  1  0  0  0  0  0  0
  1  3  1  0  0  0  0
  2  1  2  0  0  0  0
  3  4  2  0  0  0  0
  6  4  1  6  0  0  0
  6  7  1  0  0  0  0
  6  9  1  0  0  0  0
  7  8  1  0  0  0  0
  8 10  1  6  0  0  0
  8  5  1  0  0  0  0
  9  5  1  0  0  0  0
 11 10  1  1  0  0  0
 11 12  1  0  0  0  0
 12 14  2  0  0  0  0
 12 13  1  0  0  0  0
 15 16  1  1  0  0  0
 15 11  1  0  0  0  0
 16 17  1  0  0  0  0
 18 15  1  0  0  0  0
 19 18  1  0  0  0  0
 20 19  1  0  0  0  0
 21 22  1  0  0  0  0
 21  2  1  0  0  0  0
 22 23  1  6  0  0  0
 22 27  1  0  0  0  0
 24 27  1  0  0  0  0
 24 28  1  0  0  0  0
 25 29  1  0  0  0  0
 25 26  1  0  0  0  0
 26 28  1  0  0  0  0
 29 24  2  0  0  0  0
 30 31  1  0  0  0  0
 30 25  1  0  0  0  0
 31 32  1  0  0  0  0
 33 31  2  0  0  0  0
 34  2  1  0  0  0  0
 35 34  1  0  0  0  0
 35 37  2  0  0  0  0
 36 35  2  0  0  0  0
 38 39  1  0  0  0  0
 39 44  2  0  0  0  0
 39 35  1  0  0  0  0
 40 45  1  0  0  0  0
 40 44  1  0  0  0  0
 41 40  2  0  0  0  0
 42 41  1  0  0  0  0
 43 41  1  0  0  0  0
 43 38  2  0  0  0  0
 46 45  1  0  0  0  0
 47 49  1  0  0  0  0
 47 51  1  0  0  0  0
 48 52  1  0  0  0  0
 48 51  1  0  0  0  0
 49 53  1  0  0  0  0
 49 50  1  1  0  0  0
 51 46  1  6  0  0  0
 52 56  1  0  0  0  0
 53 52  1  0  0  0  0
 54 53  2  0  0  0  0
 56 55  2  0  0  0  0
 57 56  1  0  0  0  0
M  END
>  <MODEL>
8

>  <REMARK>
 VINA RESULT:      -5.2      4.229      8.620
  Name = 
  21 active torsions:
  status: ('A' for Active; 'I' for Inactive)
    1  A    between atoms: C_1  and  O_28
    2  A    between atoms: C_3  and  C_30
    3  A    between atoms: S_4  and  C_12
    4  A    between atoms: S_4  and  C_17
    5  A    between atoms: C_9  and  C_25
    6  A    between atoms: N_11  and  C_41
    7  A    between atoms: CA_13  and  C_16
    8  A    between atoms: CA_13  and  C_30
    9  A    between atoms: CA_13  and  N_53
   10  A    between atoms: C_14  and  C_22
   11  A    between atoms: C_17  and  C_48
   12  A    between atoms: C_18  and  N_35
   13  A    between atoms: C_21  and  C_34
   14  A    between atoms: C_21  and  N_47
   15  A    between atoms: C_23  and  C_41
   16  A    between atoms: C_27  and  N_47
   17  A    between atoms: O_28  and  C_30
   18  A    between atoms: N_31  and  C_44
   19  A    between atoms: C_44  and  N_57
   20  A    between atoms: C_48  and  N_57
   21  A    between atoms: C_49  and  N_53
                            x       y       z     vdW  Elec       q    Type
                         _______ _______ _______ _____ _____    ______ ____

>  <TORSDO>
F 21

$$$$
=
 OpenBabel11042411253D

 57 60  0  0  1  0  0  0  0  0999 V2000
  192.2820  177.1520  140.9520 C   0  0  0  0  0  3  0  0  0  0  0  0
  191.2210  177.1590  141.7600 C   0  0  0  0  0  0  0  0  0  0  0  0
  192.2970  176.4310  139.6780 C   0  0  0  0  0  3  0  0  0  0  0  0
  192.9270  176.9130  138.6230 C   0  0  0  0  0  3  0  0  0  0  0  0
  191.9440  175.8140  134.9650 S   0  0  0  0  0  0  0  0  0  0  0  0
  192.9360  176.1270  137.3580 C   0  0  2  0  0  3  0  0  0  0  0  0
  194.0330  176.5900  136.4370 C   0  0  0  0  0  2  0  0  0  0  0  0
  193.7560  175.9100  135.1220 C   0  0  1  0  0  3  0  0  0  0  0  0
  191.6740  176.2590  136.6570 N   0  0  0  0  0  2  0  0  0  0  0  0
  194.2970  174.5630  135.1520 N   0  0  0  0  0  2  0  0  0  0  0  0
  195.5190  174.5970  135.9360 C   0  0  2  0  0  3  0  0  0  0  0  0
  196.6800  174.8220  135.0190 C   0  0  0  0  0  0  0  0  0  0  0  0
  197.0080  176.1090  134.5950 O   0  0  0  0  0  0  0  0  0  0  0  0
  197.4100  173.8520  134.6950 O   0  0  0  0  0  1  0  0  0  0  0  0
  195.6680  173.2870  136.7230 C   0  0  1  0  0  3  0  0  0  0  0  0
  195.8810  173.5380  138.2180 C   0  0  0  0  0  2  0  0  0  0  0  0
  196.7930  174.5780  138.4170 O   0  0  0  0  0  1  0  0  0  0  0  0
  194.5390  172.4790  136.5350 O   0  0  0  0  0  0  0  0  0  0  0  0
  194.8730  171.2530  137.1080 C   0  0  0  0  0  2  0  0  0  0  0  0
  195.0980  170.2240  136.0160 C   0  0  0  0  0  1  0  0  0  0  0  0
  191.3500  177.7860  143.0430 N   0  0  0  0  0  2  0  0  0  0  0  0
  190.5650  178.9360  143.4860 C   0  0  2  0  0  3  0  0  0  0  0  0
  191.4030  179.8390  144.3600 C   0  0  0  0  0  1  0  0  0  0  0  0
  189.4290  177.8810  145.4780 C   0  0  0  0  0  0  0  0  0  0  0  0
  190.3820  177.1090  147.3510 N   0  0  0  0  0  0  0  0  0  0  0  0
  189.0110  176.9730  147.7960 C   0  0  0  0  0  2  0  0  0  0  0  0
  189.3710  178.5220  144.2040 N   0  0  0  0  0  2  0  0  0  0  0  0
  187.9510  177.4860  146.3980 S   0  0  0  0  0  0  0  0  0  0  0  0
  190.5400  177.6430  146.0750 N   0  0  0  0  0  0  0  0  0  0  0  0
  191.5220  176.7920  148.1960 C   0  0  0  0  0  2  0  0  0  0  0  0
  192.4240  175.8300  147.4990 C   0  0  0  0  0  0  0  0  0  0  0  0
  192.0060  175.1820  146.5040 O   0  0  0  0  0  0  0  0  0  0  0  0
  193.7140  175.6230  147.9710 O   0  0  0  0  0  1  0  0  0  0  0  0
  189.9480  176.4540  141.3770 C   0  0  0  0  0  2  0  0  0  0  0  0
  188.8790  177.4970  140.3830 S   0  0  0  0  0  0  0  0  0  0  0  0
  189.6040  178.7720  140.0740 O   0  0  0  0  0  0  0  0  0  0  0  0
  188.5580  176.7940  139.0990 O   0  0  0  0  0  0  0  0  0  0  0  0
  187.1670  177.6150  142.5320 C   0  0  0  0  0  3  0  0  0  0  0  0
  187.3650  177.8910  141.1770 C   0  0  0  0  0  0  0  0  0  0  0  0
  185.1460  178.8850  141.0590 C   0  0  0  0  0  0  0  0  0  0  0  0
  184.9380  178.5710  142.4120 C   0  0  0  0  0  0  0  0  0  0  0  0
  183.4360  178.9840  143.2240 Cl  0  0  0  0  0  0  0  0  0  0  0  0
  185.9540  177.9480  143.1460 C   0  0  0  0  0  3  0  0  0  0  0  0
  186.3620  178.5390  140.4510 C   0  0  0  0  0  3  0  0  0  0  0  0
  184.1300  179.5690  140.3130 N   0  0  0  0  0  2  0  0  0  0  0  0
  183.8740  179.2910  138.9040 C   0  0  0  0  0  2  0  0  0  0  0  0
  181.7970  178.4490  139.9470 C   0  0  0  0  0  2  0  0  0  0  0  0
  183.2540  176.8720  138.6910 C   0  0  0  0  0  2  0  0  0  0  0  0
  180.5990  177.5040  139.8440 C   0  0  1  0  0  3  0  0  0  0  0  0
  179.7160  177.9710  138.8890 F   0  0  0  0  0  0  0  0  0  0  0  0
  182.7260  178.3100  138.7500 C   0  0  2  0  0  3  0  0  0  0  0  0
  182.1400  175.9280  138.5970 N   0  0  0  0  0  0  0  0  0  0  0  0
  181.0300  176.1180  139.4970 C   0  0  0  0  0  0  0  0  0  0  0  0
  180.3970  175.0870  140.0450 C   0  0  0  0  0  2  0  0  0  0  0  0
  183.2260  174.1260  137.4130 C   0  0  0  0  0  2  0  0  0  0  0  0
  182.1510  174.8890  137.5940 C   0  0  0  0  0  0  0  0  0  0  0  0
  181.0750  174.7720  136.6610 N   0  0  0  0  0  1  0  0  0  0  0  0
  1  2  2  0  0  0  0
  2 21  1  0  0  0  0
  3  1  1  0  0  0  0
  4  3  2  0  0  0  0
  5  8  1  0  0  0  0
  5  9  1  0  0  0  0
  6  4  1  1  0  0  0
  7  6  1  0  0  0  0
  8 10  1  1  0  0  0
  8  7  1  0  0  0  0
  9  6  1  0  0  0  0
 10 11  1  0  0  0  0
 11 12  1  6  0  0  0
 11 15  1  0  0  0  0
 13 12  2  0  0  0  0
 14 12  1  0  0  0  0
 15 16  1  1  0  0  0
 16 17  1  0  0  0  0
 18 15  1  0  0  0  0
 18 19  1  0  0  0  0
 20 19  1  0  0  0  0
 21 22  1  0  0  0  0
 22 27  1  0  0  0  0
 22 23  1  1  0  0  0
 24 29  2  0  0  0  0
 24 28  1  0  0  0  0
 25 26  1  0  0  0  0
 25 30  1  0  0  0  0
 27 24  1  0  0  0  0
 28 26  1  0  0  0  0
 29 25  1  0  0  0  0
 31 33  1  0  0  0  0
 31 30  1  0  0  0  0
 32 31  2  0  0  0  0
 34  2  1  0  0  0  0
 35 39  1  0  0  0  0
 35 34  1  0  0  0  0
 36 35  2  0  0  0  0
 37 35  2  0  0  0  0
 38 43  1  0  0  0  0
 39 38  2  0  0  0  0
 40 41  1  0  0  0  0
 41 43  2  0  0  0  0
 41 42  1  0  0  0  0
 44 40  2  0  0  0  0
 44 39  1  0  0  0  0
 45 40  1  0  0  0  0
 46 45  1  0  0  0  0
 48 51  1  0  0  0  0
 49 50  1  6  0  0  0
 49 47  1  0  0  0  0
 51 46  1  1  0  0  0
 51 47  1  0  0  0  0
 52 48  1  0  0  0  0
 52 53  1  0  0  0  0
 53 49  1  0  0  0  0
 53 54  2  0  0  0  0
 55 56  2  0  0  0  0
 56 52  1  0  0  0  0
 57 56  1  0  0  0  0
M  END
>  <MODEL>
9

>  <REMARK>
 VINA RESULT:      -5.2      3.278      7.994
  Name = 
  21 active torsions:
  status: ('A' for Active; 'I' for Inactive)
    1  A    between atoms: C_1  and  O_28
    2  A    between atoms: C_3  and  C_30
    3  A    between atoms: S_4  and  C_12
    4  A    between atoms: S_4  and  C_17
    5  A    between atoms: C_9  and  C_25
    6  A    between atoms: N_11  and  C_41
    7  A    between atoms: CA_13  and  C_16
    8  A    between atoms: CA_13  and  C_30
    9  A    between atoms: CA_13  and  N_53
   10  A    between atoms: C_14  and  C_22
   11  A    between atoms: C_17  and  C_48
   12  A    between atoms: C_18  and  N_35
   13  A    between atoms: C_21  and  C_34
   14  A    between atoms: C_21  and  N_47
   15  A    between atoms: C_23  and  C_41
   16  A    between atoms: C_27  and  N_47
   17  A    between atoms: O_28  and  C_30
   18  A    between atoms: N_31  and  C_44
   19  A    between atoms: C_44  and  N_57
   20  A    between atoms: C_48  and  N_57
   21  A    between atoms: C_49  and  N_53
                            x       y       z     vdW  Elec       q    Type
                         _______ _______ _______ _____ _____    ______ ____

>  <TORSDO>
F 21

$$$$
