=
 OpenBabel11032421283D

 34 36  0  0  1  0  0  0  0  0999 V2000
  189.9360  176.3580  144.5920 C   0  0  2  0  0  3  0  0  0  0  0  0
  186.8100  177.8020  145.9010 C   0  0  2  0  0  3  0  0  0  0  0  0
  188.4180  176.6470  144.6190 C   0  0  1  0  0  3  0  0  0  0  0  0
  188.1040  177.9560  145.2190 N   0  0  1  0  0  0  0  0  0  0  0  0
  185.7260  178.5580  145.1870 C   0  0  0  0  0  3  0  0  0  0  0  0
  185.6380  178.4200  143.8630 C   0  0  0  0  0  0  0  0  0  0  0  0
  188.0480  177.7550  143.7360 C   0  0  2  0  0  3  0  0  0  0  0  0
  186.6350  177.5320  143.1720 C   0  0  0  0  0  2  0  0  0  0  0  0
  188.1670  177.6820  148.0330 C   0  0  0  0  0  1  0  0  0  0  0  0
  186.9120  178.2250  147.3640 C   0  0  0  0  0  2  0  0  0  0  0  0
  184.6190  179.2110  143.0990 C   0  0  1  0  0  3  0  0  0  0  0  0
  185.3480  179.5630  140.8400 O   0  0  0  0  0  0  0  0  0  0  0  0
  184.6480  178.8850  141.6390 C   0  0  0  0  0  0  0  0  0  0  0  0
  183.8840  177.8310  141.1590 O   0  0  0  0  0  1  0  0  0  0  0  0
  182.1650  178.8970  144.1210 C   0  0  0  0  0  3  0  0  0  0  0  0
  183.2700  179.0380  143.6600 C   0  0  0  0  0  0  0  0  0  0  0  0
  190.8260  177.3490  145.3450 C   0  0  0  0  0  2  0  0  0  0  0  0
  192.2320  175.4590  146.1600 O   0  0  0  0  0  0  0  0  0  0  0  0
  191.5900  176.6620  146.4230 C   0  0  0  0  0  0  0  0  0  0  0  0
  191.6520  177.1660  147.5750 O   0  0  0  0  0  1  0  0  0  0  0  0
  190.4330  176.2200  143.1620 C   0  0  0  0  0  2  0  0  0  0  0  0
  191.4440  177.3160  142.8390 C   0  0  0  0  0  2  0  0  0  0  0  0
  191.6670  175.9890  137.8130 C   0  0  0  0  0  0  0  0  0  0  0  0
  190.2930  177.1270  140.6130 C   0  0  0  0  0  2  0  0  0  0  0  0
  191.5550  177.5840  141.3410 C   0  0  2  0  0  3  0  0  0  0  0  0
  187.9290  176.5690  137.9630 C   0  0  0  0  0  1  0  0  0  0  0  0
  189.2720  176.0930  137.6660 N   0  0  0  0  0  0  0  0  0  0  0  0
  190.2540  177.6930  139.2040 C   0  0  0  0  0  2  0  0  0  0  0  0
  193.1210  177.5000  139.3880 C   0  0  0  0  0  2  0  0  0  0  0  0
  194.0600  175.8220  137.9800 N   0  0  0  0  0  2  0  0  0  0  0  0
  192.9820  176.4280  138.3600 C   0  0  0  0  0  0  0  0  0  0  0  0
  192.8180  176.9440  140.7700 C   0  0  0  0  0  2  0  0  0  0  0  0
  191.6660  175.0300  136.9420 N   0  0  0  0  0  2  0  0  0  0  0  0
  190.3550  176.5800  138.1990 C   0  0  0  0  0  0  0  0  0  0  0  0
  1 21  1  6  0  0  0
  1 17  1  0  0  0  0
  2 10  1  1  0  0  0
  3  1  1  6  0  0  0
  3  4  1  0  0  0  0
  4  2  1  0  0  0  0
  5  2  1  0  0  0  0
  6  5  2  0  0  0  0
  7  3  1  0  0  0  0
  7  4  1  0  0  0  0
  8  7  1  0  0  0  0
  8  6  1  0  0  0  0
 10  9  1  0  0  0  0
 11 16  1  0  0  0  0
 11  6  1  0  0  0  0
 12 13  2  0  0  0  0
 13 11  1  0  0  0  0
 14 13  1  0  0  0  0
 16 15  3  0  0  0  0
 17 19  1  0  0  0  0
 18 19  2  0  0  0  0
 19 20  1  0  0  0  0
 22 21  1  0  0  0  0
 23 34  1  0  0  0  0
 23 31  1  0  0  0  0
 24 25  1  0  0  0  0
 25 22  1  0  0  0  0
 27 26  1  0  0  0  0
 27 34  2  0  0  0  0
 28 24  1  0  0  0  0
 29 32  1  0  0  0  0
 30 31  2  0  0  0  0
 31 29  1  0  0  0  0
 32 25  1  0  0  0  0
 33 23  2  0  0  0  0
 34 28  1  0  0  0  0
M  END
>  <MODEL>
1

>  <REMARK>
 VINA RESULT:      -8.7      0.000      0.000
  Name = 
  10 active torsions:
  status: ('A' for Active; 'I' for Inactive)
    1  A    between atoms: C_4  and  C_25
    2  A    between atoms: C_6  and  C_22
    3  A    between atoms: C_8  and  C_12
    4  A    between atoms: C_8  and  C_22
    5  A    between atoms: C_9  and  C_27
    6  A    between atoms: C_13  and  C_15
    7  A    between atoms: C_15  and  C_16
    8  A    between atoms: C_15  and  C_32
    9  A    between atoms: C_22  and  C_30
   10  A    between atoms: C_27  and  C_30
                            x       y       z     vdW  Elec       q    Type
                         _______ _______ _______ _____ _____    ______ ____

>  <TORSDO>
F 10

$$$$
=
 OpenBabel11032421283D

 34 36  0  0  1  0  0  0  0  0999 V2000
  190.4590  177.1520  143.7060 C   0  0  2  0  0  3  0  0  0  0  0  0
  187.1960  177.6340  145.3490 C   0  0  2  0  0  3  0  0  0  0  0  0
  188.9180  177.1160  143.8220 C   0  0  1  0  0  3  0  0  0  0  0  0
  188.3920  178.1830  144.6910 N   0  0  1  0  0  0  0  0  0  0  0  0
  185.9440  178.2840  144.8310 C   0  0  0  0  0  3  0  0  0  0  0  0
  185.8050  178.4030  143.5100 C   0  0  0  0  0  0  0  0  0  0  0  0
  188.2860  178.2820  143.2000 C   0  0  2  0  0  3  0  0  0  0  0  0
  186.9120  177.8960  142.6270 C   0  0  0  0  0  2  0  0  0  0  0  0
  188.5150  177.0270  147.4200 C   0  0  0  0  0  1  0  0  0  0  0  0
  187.3020  177.7610  146.8660 C   0  0  0  0  0  2  0  0  0  0  0  0
  184.6070  179.1110  142.9500 C   0  0  1  0  0  3  0  0  0  0  0  0
  183.7080  177.7510  141.1880 O   0  0  0  0  0  1  0  0  0  0  0  0
  184.3840  178.7640  141.5110 C   0  0  0  0  0  0  0  0  0  0  0  0
  184.9410  179.5620  140.5210 O   0  0  0  0  0  0  0  0  0  0  0  0
  182.4180  178.6420  144.4160 C   0  0  0  0  0  3  0  0  0  0  0  0
  183.4040  178.8530  143.7550 C   0  0  0  0  0  0  0  0  0  0  0  0
  191.2220  177.5230  144.9790 C   0  0  0  0  0  2  0  0  0  0  0  0
  192.0860  175.1890  144.8140 O   0  0  0  0  0  0  0  0  0  0  0  0
  191.8500  176.3170  145.5900 C   0  0  0  0  0  0  0  0  0  0  0  0
  192.1610  176.3150  146.8100 O   0  0  0  0  0  1  0  0  0  0  0  0
  190.8920  178.0690  142.5730 C   0  0  0  0  0  2  0  0  0  0  0  0
  191.6130  177.2750  141.4880 C   0  0  0  0  0  2  0  0  0  0  0  0
  189.3380  177.4870  136.8130 C   0  0  0  0  0  0  0  0  0  0  0  0
  191.4500  176.4040  139.1360 C   0  0  0  0  0  2  0  0  0  0  0  0
  190.6690  176.8030  140.3870 C   0  0  2  0  0  3  0  0  0  0  0  0
  192.1530  175.1470  135.8420 C   0  0  0  0  0  1  0  0  0  0  0  0
  191.1100  176.1640  135.8760 N   0  0  0  0  0  0  0  0  0  0  0  0
  190.5650  175.6240  138.1790 C   0  0  0  0  0  2  0  0  0  0  0  0
  188.4710  177.2670  139.2790 C   0  0  0  0  0  2  0  0  0  0  0  0
  187.5990  178.8650  137.7400 N   0  0  0  0  0  2  0  0  0  0  0  0
  188.4300  177.8900  137.9240 C   0  0  0  0  0  0  0  0  0  0  0  0
  189.6080  177.8610  140.0950 C   0  0  0  0  0  2  0  0  0  0  0  0
  189.2290  178.1150  135.6860 N   0  0  0  0  0  2  0  0  0  0  0  0
  190.3610  176.4070  136.9130 C   0  0  0  0  0  0  0  0  0  0  0  0
  1 21  1  6  0  0  0
  1 17  1  0  0  0  0
  2 10  1  1  0  0  0
  3  1  1  6  0  0  0
  3  4  1  0  0  0  0
  4  2  1  0  0  0  0
  5  2  1  0  0  0  0
  6  5  2  0  0  0  0
  7  3  1  0  0  0  0
  7  4  1  0  0  0  0
  8  7  1  0  0  0  0
  8  6  1  0  0  0  0
 10  9  1  0  0  0  0
 11  6  1  0  0  0  0
 11 16  1  0  0  0  0
 12 13  1  0  0  0  0
 13 11  1  0  0  0  0
 14 13  2  0  0  0  0
 16 15  3  0  0  0  0
 17 19  1  0  0  0  0
 18 19  2  0  0  0  0
 19 20  1  0  0  0  0
 22 21  1  0  0  0  0
 23 34  1  0  0  0  0
 23 31  1  0  0  0  0
 24 25  1  0  0  0  0
 25 22  1  0  0  0  0
 26 27  1  0  0  0  0
 27 34  2  0  0  0  0
 28 24  1  0  0  0  0
 29 32  1  0  0  0  0
 30 31  2  0  0  0  0
 31 29  1  0  0  0  0
 32 25  1  0  0  0  0
 33 23  2  0  0  0  0
 34 28  1  0  0  0  0
M  END
>  <MODEL>
2

>  <REMARK>
 VINA RESULT:      -8.5      1.246      2.460
  Name = 
  10 active torsions:
  status: ('A' for Active; 'I' for Inactive)
    1  A    between atoms: C_4  and  C_25
    2  A    between atoms: C_6  and  C_22
    3  A    between atoms: C_8  and  C_12
    4  A    between atoms: C_8  and  C_22
    5  A    between atoms: C_9  and  C_27
    6  A    between atoms: C_13  and  C_15
    7  A    between atoms: C_15  and  C_16
    8  A    between atoms: C_15  and  C_32
    9  A    between atoms: C_22  and  C_30
   10  A    between atoms: C_27  and  C_30
                            x       y       z     vdW  Elec       q    Type
                         _______ _______ _______ _____ _____    ______ ____

>  <TORSDO>
F 10

$$$$
=
 OpenBabel11032421283D

 34 36  0  0  1  0  0  0  0  0999 V2000
  187.7350  177.8570  145.3820 C   0  0  2  0  0  3  0  0  0  0  0  0
  190.4960  176.9380  143.1210 C   0  0  2  0  0  3  0  0  0  0  0  0
  188.6160  177.9580  144.1150 C   0  0  1  0  0  3  0  0  0  0  0  0
  189.1800  176.6570  143.7150 N   0  0  1  0  0  0  0  0  0  0  0  0
  190.4860  176.6970  141.6380 C   0  0  0  0  0  3  0  0  0  0  0  0
  189.4750  177.2050  140.9310 C   0  0  0  0  0  0  0  0  0  0  0  0
  188.0260  177.2580  142.9720 C   0  0  2  0  0  3  0  0  0  0  0  0
  188.4070  177.9700  141.6630 C   0  0  0  0  0  2  0  0  0  0  0  0
  191.6690  176.4170  145.3010 C   0  0  0  0  0  1  0  0  0  0  0  0
  191.5890  176.1250  143.8090 C   0  0  0  0  0  2  0  0  0  0  0  0
  189.3840  176.9290  139.4600 C   0  0  1  0  0  3  0  0  0  0  0  0
  189.1180  179.1500  138.5920 O   0  0  0  0  0  1  0  0  0  0  0  0
  188.6250  178.0010  138.7430 C   0  0  0  0  0  0  0  0  0  0  0  0
  187.3570  177.7270  138.2500 O   0  0  0  0  0  0  0  0  0  0  0  0
  191.8050  176.5600  138.3800 C   0  0  0  0  0  3  0  0  0  0  0  0
  190.7140  176.7260  138.8660 C   0  0  0  0  0  0  0  0  0  0  0  0
  188.3200  177.0560  146.5470 C   0  0  0  0  0  2  0  0  0  0  0  0
  189.7220  178.0030  148.3790 O   0  0  0  0  0  1  0  0  0  0  0  0
  188.4860  177.9190  147.7520 C   0  0  0  0  0  0  0  0  0  0  0  0
  187.5070  178.5680  148.2050 O   0  0  0  0  0  0  0  0  0  0  0  0
  186.3580  177.3140  145.0380 C   0  0  0  0  0  2  0  0  0  0  0  0
  185.2700  178.2580  145.5420 C   0  0  0  0  0  2  0  0  0  0  0  0
  182.0780  178.2920  141.4330 C   0  0  0  0  0  0  0  0  0  0  0  0
  182.9850  178.7120  144.6000 C   0  0  0  0  0  2  0  0  0  0  0  0
  184.4870  178.9050  144.4040 C   0  0  2  0  0  3  0  0  0  0  0  0
  179.4400  178.9760  144.0620 C   0  0  0  0  0  1  0  0  0  0  0  0
  180.1840  178.5360  142.8900 N   0  0  0  0  0  0  0  0  0  0  0  0
  182.2020  179.6300  143.6760 C   0  0  0  0  0  2  0  0  0  0  0  0
  184.4610  179.2700  141.9270 C   0  0  0  0  0  2  0  0  0  0  0  0
  183.9700  177.9830  139.9820 N   0  0  0  0  0  2  0  0  0  0  0  0
  183.5060  178.5140  141.0660 C   0  0  0  0  0  0  0  0  0  0  0  0
  184.9680  178.3840  143.0520 C   0  0  0  0  0  2  0  0  0  0  0  0
  181.3470  177.5980  140.6200 N   0  0  0  0  0  2  0  0  0  0  0  0
  181.4360  178.8180  142.6710 C   0  0  0  0  0  0  0  0  0  0  0  0
  1 21  1  6  0  0  0
  1 17  1  0  0  0  0
  2  4  1  0  0  0  0
  2 10  1  1  0  0  0
  3  1  1  1  0  0  0
  4  3  1  0  0  0  0
  5  2  1  0  0  0  0
  6  5  2  0  0  0  0
  6  8  1  0  0  0  0
  7  4  1  0  0  0  0
  7  3  1  0  0  0  0
  8  7  1  0  0  0  0
 10  9  1  0  0  0  0
 11  6  1  0  0  0  0
 12 13  1  0  0  0  0
 13 11  1  0  0  0  0
 14 13  2  0  0  0  0
 15 16  3  0  0  0  0
 16 11  1  0  0  0  0
 17 19  1  0  0  0  0
 19 20  2  0  0  0  0
 19 18  1  0  0  0  0
 21 22  1  0  0  0  0
 23 34  1  0  0  0  0
 25 24  1  0  0  0  0
 25 22  1  0  0  0  0
 27 26  1  0  0  0  0
 28 24  1  0  0  0  0
 29 32  1  0  0  0  0
 30 31  2  0  0  0  0
 31 23  1  0  0  0  0
 31 29  1  0  0  0  0
 32 25  1  0  0  0  0
 33 23  2  0  0  0  0
 34 27  2  0  0  0  0
 34 28  1  0  0  0  0
M  END
>  <MODEL>
3

>  <REMARK>
 VINA RESULT:      -8.5      2.879      7.222
  Name = 
  10 active torsions:
  status: ('A' for Active; 'I' for Inactive)
    1  A    between atoms: C_4  and  C_25
    2  A    between atoms: C_6  and  C_22
    3  A    between atoms: C_8  and  C_12
    4  A    between atoms: C_8  and  C_22
    5  A    between atoms: C_9  and  C_27
    6  A    between atoms: C_13  and  C_15
    7  A    between atoms: C_15  and  C_16
    8  A    between atoms: C_15  and  C_32
    9  A    between atoms: C_22  and  C_30
   10  A    between atoms: C_27  and  C_30
                            x       y       z     vdW  Elec       q    Type
                         _______ _______ _______ _____ _____    ______ ____

>  <TORSDO>
F 10

$$$$
=
 OpenBabel11032421283D

 34 36  0  0  1  0  0  0  0  0999 V2000
  187.5170  177.9770  145.2230 C   0  0  2  0  0  3  0  0  0  0  0  0
  190.3460  177.0440  143.0540 C   0  0  2  0  0  3  0  0  0  0  0  0
  188.4290  178.0640  143.9780 C   0  0  1  0  0  3  0  0  0  0  0  0
  189.0170  176.7610  143.6190 N   0  0  1  0  0  0  0  0  0  0  0  0
  190.3780  176.7750  141.5760 C   0  0  0  0  0  3  0  0  0  0  0  0
  189.3810  177.2580  140.8330 C   0  0  0  0  0  0  0  0  0  0  0  0
  187.8780  177.3340  142.8340 C   0  0  2  0  0  3  0  0  0  0  0  0
  188.2860  178.0250  141.5210 C   0  0  0  0  0  2  0  0  0  0  0  0
  191.5470  176.6670  145.2480 C   0  0  0  0  0  1  0  0  0  0  0  0
  191.4280  176.2570  143.7870 C   0  0  0  0  0  2  0  0  0  0  0  0
  189.3320  176.9520  139.3660 C   0  0  1  0  0  3  0  0  0  0  0  0
  189.1100  179.1460  138.4180 O   0  0  0  0  0  1  0  0  0  0  0  0
  188.5960  178.0110  138.6060 C   0  0  0  0  0  0  0  0  0  0  0  0
  187.3270  177.7410  138.1130 O   0  0  0  0  0  0  0  0  0  0  0  0
  191.7830  176.5580  138.3650 C   0  0  0  0  0  3  0  0  0  0  0  0
  190.6780  176.7350  138.8160 C   0  0  0  0  0  0  0  0  0  0  0  0
  188.0100  177.0800  146.3600 C   0  0  0  0  0  2  0  0  0  0  0  0
  189.5600  177.8520  148.1540 O   0  0  0  0  0  1  0  0  0  0  0  0
  188.2950  177.8840  147.5830 C   0  0  0  0  0  0  0  0  0  0  0  0
  187.3900  178.5880  148.1020 O   0  0  0  0  0  0  0  0  0  0  0  0
  186.1070  177.5640  144.8300 C   0  0  0  0  0  2  0  0  0  0  0  0
  185.3050  178.7760  144.3640 C   0  0  0  0  0  2  0  0  0  0  0  0
  181.3970  179.5420  141.0150 C   0  0  0  0  0  0  0  0  0  0  0  0
  184.3270  178.3990  142.0800 C   0  0  0  0  0  2  0  0  0  0  0  0
  184.0550  178.3810  143.5830 C   0  0  2  0  0  3  0  0  0  0  0  0
  183.8170  178.0030  138.5440 C   0  0  0  0  0  1  0  0  0  0  0  0
  182.7820  178.7850  139.2060 N   0  0  0  0  0  0  0  0  0  0  0  0
  183.2150  177.6890  141.3270 C   0  0  0  0  0  2  0  0  0  0  0  0
  181.5690  178.6610  143.4800 C   0  0  0  0  0  2  0  0  0  0  0  0
  180.0330  180.3590  142.8190 N   0  0  0  0  0  2  0  0  0  0  0  0
  180.9540  179.5350  142.4390 C   0  0  0  0  0  0  0  0  0  0  0  0
  182.8740  179.2670  143.9690 C   0  0  0  0  0  2  0  0  0  0  0  0
  180.8070  180.3610  140.2040 N   0  0  0  0  0  2  0  0  0  0  0  0
  182.4710  178.6680  140.4640 C   0  0  0  0  0  0  0  0  0  0  0  0
  1 21  1  6  0  0  0
  1 17  1  0  0  0  0
  2  4  1  0  0  0  0
  2 10  1  1  0  0  0
  3  1  1  1  0  0  0
  4  3  1  0  0  0  0
  5  2  1  0  0  0  0
  6  8  1  0  0  0  0
  6  5  2  0  0  0  0
  7  4  1  0  0  0  0
  7  3  1  0  0  0  0
  8  7  1  0  0  0  0
 10  9  1  0  0  0  0
 11  6  1  0  0  0  0
 12 13  1  0  0  0  0
 13 11  1  0  0  0  0
 14 13  2  0  0  0  0
 15 16  3  0  0  0  0
 16 11  1  0  0  0  0
 17 19  1  0  0  0  0
 19 20  2  0  0  0  0
 19 18  1  0  0  0  0
 22 21  1  0  0  0  0
 23 31  1  0  0  0  0
 24 25  1  0  0  0  0
 25 32  1  0  0  0  0
 25 22  1  0  0  0  0
 26 27  1  0  0  0  0
 27 34  2  0  0  0  0
 28 24  1  0  0  0  0
 29 32  1  0  0  0  0
 31 30  2  0  0  0  0
 31 29  1  0  0  0  0
 33 23  2  0  0  0  0
 34 23  1  0  0  0  0
 34 28  1  0  0  0  0
M  END
>  <MODEL>
4

>  <REMARK>
 VINA RESULT:      -8.2      3.157      7.423
  Name = 
  10 active torsions:
  status: ('A' for Active; 'I' for Inactive)
    1  A    between atoms: C_4  and  C_25
    2  A    between atoms: C_6  and  C_22
    3  A    between atoms: C_8  and  C_12
    4  A    between atoms: C_8  and  C_22
    5  A    between atoms: C_9  and  C_27
    6  A    between atoms: C_13  and  C_15
    7  A    between atoms: C_15  and  C_16
    8  A    between atoms: C_15  and  C_32
    9  A    between atoms: C_22  and  C_30
   10  A    between atoms: C_27  and  C_30
                            x       y       z     vdW  Elec       q    Type
                         _______ _______ _______ _____ _____    ______ ____

>  <TORSDO>
F 10

$$$$
=
 OpenBabel11032421283D

 34 36  0  0  1  0  0  0  0  0999 V2000
  184.0900  178.9840  140.6360 C   0  0  2  0  0  3  0  0  0  0  0  0
  184.7080  178.8950  144.2670 C   0  0  2  0  0  3  0  0  0  0  0  0
  184.9310  179.1000  141.9270 C   0  0  1  0  0  3  0  0  0  0  0  0
  184.4520  178.2030  142.9940 N   0  0  1  0  0  0  0  0  0  0  0  0
  185.8080  178.2240  145.0400 C   0  0  0  0  0  3  0  0  0  0  0  0
  186.9250  177.9060  144.3850 C   0  0  0  0  0  0  0  0  0  0  0  0
  185.6860  177.8770  142.2100 C   0  0  2  0  0  3  0  0  0  0  0  0
  187.0070  178.2240  142.9170 C   0  0  0  0  0  2  0  0  0  0  0  0
  182.1920  178.6390  144.2900 C   0  0  0  0  0  1  0  0  0  0  0  0
  183.4310  179.0030  145.0950 C   0  0  0  0  0  2  0  0  0  0  0  0
  188.0200  177.1680  145.0970 C   0  0  1  0  0  3  0  0  0  0  0  0
  190.0020  178.4540  144.6760 O   0  0  0  0  0  1  0  0  0  0  0  0
  189.3510  177.3990  144.4520 C   0  0  0  0  0  0  0  0  0  0  0  0
  189.8670  176.4430  143.5880 O   0  0  0  0  0  0  0  0  0  0  0  0
  188.0800  177.7790  147.7020 C   0  0  0  0  0  3  0  0  0  0  0  0
  188.0530  177.5030  146.5280 C   0  0  0  0  0  0  0  0  0  0  0  0
  183.4340  177.6260  140.3770 C   0  0  0  0  0  2  0  0  0  0  0  0
  181.3390  178.8960  140.8400 O   0  0  0  0  0  1  0  0  0  0  0  0
  181.9490  177.7520  140.3450 C   0  0  0  0  0  0  0  0  0  0  0  0
  181.2460  176.8200  139.8730 O   0  0  0  0  0  0  0  0  0  0  0  0
  184.9090  179.3870  139.4210 C   0  0  0  0  0  2  0  0  0  0  0  0
  185.2190  178.1690  138.5550 C   0  0  0  0  0  2  0  0  0  0  0  0
  190.0330  176.2640  138.0390 C   0  0  0  0  0  0  0  0  0  0  0  0
  186.9110  176.9590  137.1460 C   0  0  0  0  0  2  0  0  0  0  0  0
  186.6570  178.1650  138.0490 C   0  0  2  0  0  3  0  0  0  0  0  0
  188.5880  174.7010  134.9080 C   0  0  0  0  0  1  0  0  0  0  0  0
  189.3400  174.9990  136.1190 N   0  0  0  0  0  0  0  0  0  0  0  0
  188.2100  177.1310  136.3770 C   0  0  0  0  0  2  0  0  0  0  0  0
  189.0320  178.5920  138.7180 C   0  0  0  0  0  2  0  0  0  0  0  0
  190.7070  177.4810  140.0000 N   0  0  0  0  0  2  0  0  0  0  0  0
  189.9670  177.4500  138.9400 C   0  0  0  0  0  0  0  0  0  0  0  0
  187.6410  178.2340  139.2140 C   0  0  0  0  0  2  0  0  0  0  0  0
  190.8660  175.3200  138.3440 N   0  0  0  0  0  2  0  0  0  0  0  0
  189.2060  176.0930  136.8100 C   0  0  0  0  0  0  0  0  0  0  0  0
  1 21  1  6  0  0  0
  2  5  1  0  0  0  0
  2 10  1  1  0  0  0
  3  1  1  6  0  0  0
  3  7  1  0  0  0  0
  3  4  1  0  0  0  0
  4  2  1  0  0  0  0
  6  5  2  0  0  0  0
  6 11  1  0  0  0  0
  7  8  1  0  0  0  0
  7  4  1  0  0  0  0
  8  6  1  0  0  0  0
  9 10  1  0  0  0  0
 11 16  1  0  0  0  0
 13 12  1  0  0  0  0
 13 11  1  0  0  0  0
 14 13  2  0  0  0  0
 16 15  3  0  0  0  0
 17  1  1  0  0  0  0
 19 17  1  0  0  0  0
 19 18  1  0  0  0  0
 20 19  2  0  0  0  0
 22 21  1  0  0  0  0
 23 33  2  0  0  0  0
 23 31  1  0  0  0  0
 24 25  1  0  0  0  0
 25 22  1  0  0  0  0
 25 32  1  0  0  0  0
 26 27  1  0  0  0  0
 27 34  2  0  0  0  0
 28 34  1  0  0  0  0
 28 24  1  0  0  0  0
 29 31  1  0  0  0  0
 29 32  1  0  0  0  0
 31 30  2  0  0  0  0
 34 23  1  0  0  0  0
M  END
>  <MODEL>
5

>  <REMARK>
 VINA RESULT:      -8.0      2.231      6.010
  Name = 
  10 active torsions:
  status: ('A' for Active; 'I' for Inactive)
    1  A    between atoms: C_4  and  C_25
    2  A    between atoms: C_6  and  C_22
    3  A    between atoms: C_8  and  C_12
    4  A    between atoms: C_8  and  C_22
    5  A    between atoms: C_9  and  C_27
    6  A    between atoms: C_13  and  C_15
    7  A    between atoms: C_15  and  C_16
    8  A    between atoms: C_15  and  C_32
    9  A    between atoms: C_22  and  C_30
   10  A    between atoms: C_27  and  C_30
                            x       y       z     vdW  Elec       q    Type
                         _______ _______ _______ _____ _____    ______ ____

>  <TORSDO>
F 10

$$$$
=
 OpenBabel11032421283D

 34 36  0  0  1  0  0  0  0  0999 V2000
  189.2940  177.2380  140.6690 C   0  0  2  0  0  3  0  0  0  0  0  0
  189.4220  177.4710  144.3440 C   0  0  2  0  0  3  0  0  0  0  0  0
  188.8430  176.9460  142.1180 C   0  0  1  0  0  3  0  0  0  0  0  0
  189.1220  178.0670  143.0320 N   0  0  1  0  0  0  0  0  0  0  0  0
  188.3210  177.7450  145.3290 C   0  0  0  0  0  3  0  0  0  0  0  0
  187.0650  177.5330  144.9350 C   0  0  0  0  0  0  0  0  0  0  0  0
  187.7330  177.8040  142.5380 C   0  0  2  0  0  3  0  0  0  0  0  0
  186.8300  177.0520  143.5300 C   0  0  0  0  0  2  0  0  0  0  0  0
  191.3860  179.0200  143.9690 C   0  0  0  0  0  1  0  0  0  0  0  0
  190.7710  177.9570  144.8670 C   0  0  0  0  0  2  0  0  0  0  0  0
  185.9310  177.8620  145.8590 C   0  0  1  0  0  3  0  0  0  0  0  0
  186.0550  179.7510  147.3340 O   0  0  0  0  0  0  0  0  0  0  0  0
  186.4080  178.5660  147.0910 C   0  0  0  0  0  0  0  0  0  0  0  0
  187.2590  177.9090  147.9680 O   0  0  0  0  0  1  0  0  0  0  0  0
  184.0240  179.2650  144.6110 C   0  0  0  0  0  3  0  0  0  0  0  0
  184.8830  178.6330  145.1730 C   0  0  0  0  0  0  0  0  0  0  0  0
  190.7880  177.5030  140.4680 C   0  0  0  0  0  2  0  0  0  0  0  0
  190.5550  175.6260  138.8430 O   0  0  0  0  0  0  0  0  0  0  0  0
  191.3410  176.6290  139.3950 C   0  0  0  0  0  0  0  0  0  0  0  0
  192.5220  176.7940  138.9900 O   0  0  0  0  0  1  0  0  0  0  0  0
  188.4940  178.3870  140.0770 C   0  0  0  0  0  2  0  0  0  0  0  0
  188.4070  178.2520  138.5590 C   0  0  0  0  0  2  0  0  0  0  0  0
  183.6090  176.2900  138.1110 C   0  0  0  0  0  0  0  0  0  0  0  0
  185.9850  178.3270  139.2230 C   0  0  0  0  0  2  0  0  0  0  0  0
  186.9670  178.2220  138.0580 C   0  0  2  0  0  3  0  0  0  0  0  0
  182.8840  178.6000  141.0220 C   0  0  0  0  0  1  0  0  0  0  0  0
  182.9160  177.5040  140.0640 N   0  0  0  0  0  0  0  0  0  0  0  0
  184.5860  178.6380  138.7180 C   0  0  0  0  0  2  0  0  0  0  0  0
  185.4260  177.1280  136.4150 C   0  0  0  0  0  2  0  0  0  0  0  0
  184.3220  175.0270  136.1940 N   0  0  0  0  0  2  0  0  0  0  0  0
  184.4280  176.1200  136.8770 C   0  0  0  0  0  0  0  0  0  0  0  0
  186.7190  176.9840  137.2000 C   0  0  0  0  0  2  0  0  0  0  0  0
  182.7910  175.3370  138.4290 N   0  0  0  0  0  2  0  0  0  0  0  0
  183.6670  177.4850  139.0010 C   0  0  0  0  0  0  0  0  0  0  0  0
  1 21  1  1  0  0  0
  2 10  1  1  0  0  0
  2  5  1  0  0  0  0
  3  1  1  6  0  0  0
  3  7  1  0  0  0  0
  3  4  1  0  0  0  0
  4  2  1  0  0  0  0
  6  5  2  0  0  0  0
  6 11  1  0  0  0  0
  7  4  1  0  0  0  0
  7  8  1  0  0  0  0
  8  6  1  0  0  0  0
  9 10  1  0  0  0  0
 11 13  1  0  0  0  0
 13 12  2  0  0  0  0
 13 14  1  0  0  0  0
 15 16  3  0  0  0  0
 16 11  1  0  0  0  0
 17  1  1  0  0  0  0
 18 19  2  0  0  0  0
 19 17  1  0  0  0  0
 20 19  1  0  0  0  0
 22 21  1  0  0  0  0
 23 33  2  0  0  0  0
 23 34  1  0  0  0  0
 25 22  1  0  0  0  0
 25 24  1  0  0  0  0
 27 26  1  0  0  0  0
 28 34  1  0  0  0  0
 28 24  1  0  0  0  0
 29 31  1  0  0  0  0
 29 32  1  0  0  0  0
 30 31  2  0  0  0  0
 31 23  1  0  0  0  0
 32 25  1  0  0  0  0
 34 27  2  0  0  0  0
M  END
>  <MODEL>
6

>  <REMARK>
 VINA RESULT:      -8.0      3.387      5.853
  Name = 
  10 active torsions:
  status: ('A' for Active; 'I' for Inactive)
    1  A    between atoms: C_4  and  C_25
    2  A    between atoms: C_6  and  C_22
    3  A    between atoms: C_8  and  C_12
    4  A    between atoms: C_8  and  C_22
    5  A    between atoms: C_9  and  C_27
    6  A    between atoms: C_13  and  C_15
    7  A    between atoms: C_15  and  C_16
    8  A    between atoms: C_15  and  C_32
    9  A    between atoms: C_22  and  C_30
   10  A    between atoms: C_27  and  C_30
                            x       y       z     vdW  Elec       q    Type
                         _______ _______ _______ _____ _____    ______ ____

>  <TORSDO>
F 10

$$$$
=
 OpenBabel11032421283D

 34 36  0  0  1  0  0  0  0  0999 V2000
  187.5560  177.9500  144.9390 C   0  0  2  0  0  3  0  0  0  0  0  0
  190.5260  177.0040  142.9750 C   0  0  2  0  0  3  0  0  0  0  0  0
  188.6140  178.0960  143.8220 C   0  0  1  0  0  3  0  0  0  0  0  0
  189.1190  176.7940  143.3510 N   0  0  1  0  0  0  0  0  0  0  0  0
  190.7090  176.9220  141.4860 C   0  0  0  0  0  3  0  0  0  0  0  0
  189.8560  177.5980  140.7150 C   0  0  0  0  0  0  0  0  0  0  0  0
  188.1380  177.5800  142.5360 C   0  0  2  0  0  3  0  0  0  0  0  0
  188.7610  178.3830  141.3820 C   0  0  0  0  0  2  0  0  0  0  0  0
  191.6750  176.4210  145.1520 C   0  0  0  0  0  1  0  0  0  0  0  0
  191.4370  176.0200  143.7030 C   0  0  0  0  0  2  0  0  0  0  0  0
  189.9540  177.4860  139.2230 C   0  0  1  0  0  3  0  0  0  0  0  0
  190.5570  175.2540  138.5790 O   0  0  0  0  0  0  0  0  0  0  0  0
  190.9350  176.4330  138.8110 C   0  0  0  0  0  0  0  0  0  0  0  0
  192.2790  176.7590  138.6960 O   0  0  0  0  0  1  0  0  0  0  0  0
  187.5560  177.0730  138.1100 C   0  0  0  0  0  3  0  0  0  0  0  0
  188.6360  177.2590  138.6120 C   0  0  0  0  0  0  0  0  0  0  0  0
  187.9320  177.0400  146.1110 C   0  0  0  0  0  2  0  0  0  0  0  0
  189.2320  177.6950  148.1350 O   0  0  0  0  0  1  0  0  0  0  0  0
  188.0840  177.8290  147.3660 C   0  0  0  0  0  0  0  0  0  0  0  0
  187.1710  178.6140  147.7350 O   0  0  0  0  0  0  0  0  0  0  0  0
  186.2220  177.5040  144.3630 C   0  0  0  0  0  2  0  0  0  0  0  0
  185.0900  178.3810  144.8920 C   0  0  0  0  0  2  0  0  0  0  0  0
  181.4380  177.9430  141.2120 C   0  0  0  0  0  0  0  0  0  0  0  0
  182.7100  178.7450  144.1720 C   0  0  0  0  0  2  0  0  0  0  0  0
  184.1790  178.8910  143.7800 C   0  0  2  0  0  3  0  0  0  0  0  0
  179.1270  178.9890  144.0220 C   0  0  0  0  0  1  0  0  0  0  0  0
  179.7290  178.3950  142.8360 N   0  0  0  0  0  0  0  0  0  0  0  0
  181.8240  179.5510  143.2370 C   0  0  0  0  0  2  0  0  0  0  0  0
  183.8630  178.9410  141.2960 C   0  0  0  0  0  2  0  0  0  0  0  0
  183.1470  177.4260  139.6010 N   0  0  0  0  0  2  0  0  0  0  0  0
  182.8130  178.0960  140.6560 C   0  0  0  0  0  0  0  0  0  0  0  0
  184.4980  178.1960  142.4590 C   0  0  0  0  0  2  0  0  0  0  0  0
  180.6170  177.1620  140.5840 N   0  0  0  0  0  2  0  0  0  0  0  0
  180.9460  178.6300  142.4390 C   0  0  0  0  0  0  0  0  0  0  0  0
  1 21  1  6  0  0  0
  1 17  1  0  0  0  0
  2  4  1  0  0  0  0
  2 10  1  1  0  0  0
  3  1  1  1  0  0  0
  4  3  1  0  0  0  0
  5  2  1  0  0  0  0
  6  8  1  0  0  0  0
  6  5  2  0  0  0  0
  7  4  1  0  0  0  0
  7  3  1  0  0  0  0
  8  7  1  0  0  0  0
 10  9  1  0  0  0  0
 11  6  1  0  0  0  0
 12 13  2  0  0  0  0
 13 11  1  0  0  0  0
 14 13  1  0  0  0  0
 15 16  3  0  0  0  0
 16 11  1  0  0  0  0
 17 19  1  0  0  0  0
 19 20  2  0  0  0  0
 19 18  1  0  0  0  0
 21 22  1  0  0  0  0
 23 34  1  0  0  0  0
 25 24  1  0  0  0  0
 25 22  1  0  0  0  0
 27 26  1  0  0  0  0
 28 24  1  0  0  0  0
 29 32  1  0  0  0  0
 30 31  2  0  0  0  0
 31 23  1  0  0  0  0
 31 29  1  0  0  0  0
 32 25  1  0  0  0  0
 33 23  2  0  0  0  0
 34 27  2  0  0  0  0
 34 28  1  0  0  0  0
M  END
>  <MODEL>
7

>  <REMARK>
 VINA RESULT:      -7.9      3.399      7.486
  Name = 
  10 active torsions:
  status: ('A' for Active; 'I' for Inactive)
    1  A    between atoms: C_4  and  C_25
    2  A    between atoms: C_6  and  C_22
    3  A    between atoms: C_8  and  C_12
    4  A    between atoms: C_8  and  C_22
    5  A    between atoms: C_9  and  C_27
    6  A    between atoms: C_13  and  C_15
    7  A    between atoms: C_15  and  C_16
    8  A    between atoms: C_15  and  C_32
    9  A    between atoms: C_22  and  C_30
   10  A    between atoms: C_27  and  C_30
                            x       y       z     vdW  Elec       q    Type
                         _______ _______ _______ _____ _____    ______ ____

>  <TORSDO>
F 10

$$$$
=
 OpenBabel11032421283D

 34 36  0  0  1  0  0  0  0  0999 V2000
  187.1880  177.9270  141.4370 C   0  0  2  0  0  3  0  0  0  0  0  0
  190.4270  177.1490  143.0110 C   0  0  2  0  0  3  0  0  0  0  0  0
  188.1320  177.3010  142.4890 C   0  0  1  0  0  3  0  0  0  0  0  0
  189.3500  178.1030  142.7000 N   0  0  1  0  0  0  0  0  0  0  0  0
  190.8470  177.2540  144.4500 C   0  0  0  0  0  3  0  0  0  0  0  0
  189.8910  177.2810  145.3780 C   0  0  0  0  0  0  0  0  0  0  0  0
  188.2340  178.1200  143.6990 C   0  0  2  0  0  3  0  0  0  0  0  0
  188.4570  177.2210  144.9270 C   0  0  0  0  0  2  0  0  0  0  0  0
  191.2060  177.2390  140.6060 C   0  0  0  0  0  1  0  0  0  0  0  0
  191.6120  177.3410  142.0690 C   0  0  0  0  0  2  0  0  0  0  0  0
  190.2600  177.4580  146.8210 C   0  0  1  0  0  3  0  0  0  0  0  0
  188.5720  178.4830  148.1860 O   0  0  0  0  0  1  0  0  0  0  0  0
  189.0540  177.4210  147.7080 C   0  0  0  0  0  0  0  0  0  0  0  0
  188.4700  176.2010  148.0160 O   0  0  0  0  0  0  0  0  0  0  0  0
  192.0920  175.6680  147.5930 C   0  0  0  0  0  3  0  0  0  0  0  0
  191.2670  176.4750  147.2450 C   0  0  0  0  0  0  0  0  0  0  0  0
  187.8630  178.5990  140.2390 C   0  0  0  0  0  2  0  0  0  0  0  0
  186.2130  178.5230  138.3710 O   0  0  0  0  0  0  0  0  0  0  0  0
  187.3670  178.0200  138.9580 C   0  0  0  0  0  0  0  0  0  0  0  0
  187.9880  177.0730  138.4090 O   0  0  0  0  0  1  0  0  0  0  0  0
  186.2280  178.9090  142.0890 C   0  0  0  0  0  2  0  0  0  0  0  0
  185.0250  178.1740  142.6730 C   0  0  0  0  0  2  0  0  0  0  0  0
  180.1230  177.4750  141.0750 C   0  0  0  0  0  0  0  0  0  0  0  0
  182.5710  178.5810  143.0270 C   0  0  0  0  0  2  0  0  0  0  0  0
  183.7140  178.5870  142.0140 C   0  0  2  0  0  3  0  0  0  0  0  0
  179.2910  179.0160  144.4320 C   0  0  0  0  0  1  0  0  0  0  0  0
  179.3080  178.2370  143.2010 N   0  0  0  0  0  0  0  0  0  0  0  0
  181.3590  179.3090  142.4710 C   0  0  0  0  0  2  0  0  0  0  0  0
  182.3300  178.3310  139.9420 C   0  0  0  0  0  2  0  0  0  0  0  0
  180.9440  176.6530  138.9700 N   0  0  0  0  0  2  0  0  0  0  0  0
  181.1090  177.4730  139.9560 C   0  0  0  0  0  0  0  0  0  0  0  0
  183.4180  177.7080  140.8010 C   0  0  0  0  0  2  0  0  0  0  0  0
  179.1130  176.6690  140.9900 N   0  0  0  0  0  2  0  0  0  0  0  0
  180.2220  178.3450  142.2810 C   0  0  0  0  0  0  0  0  0  0  0  0
  1 17  1  6  0  0  0
  1 21  1  0  0  0  0
  2 10  1  6  0  0  0
  2  5  1  0  0  0  0
  3  1  1  6  0  0  0
  3  4  1  0  0  0  0
  3  7  1  0  0  0  0
  4  2  1  0  0  0  0
  4  7  1  0  0  0  0
  5  6  2  0  0  0  0
  6 11  1  0  0  0  0
  7  8  1  0  0  0  0
  8  6  1  0  0  0  0
  9 10  1  0  0  0  0
 11 16  1  0  0  0  0
 11 13  1  0  0  0  0
 13 14  2  0  0  0  0
 13 12  1  0  0  0  0
 16 15  3  0  0  0  0
 18 19  2  0  0  0  0
 19 17  1  0  0  0  0
 20 19  1  0  0  0  0
 21 22  1  0  0  0  0
 23 34  1  0  0  0  0
 25 22  1  0  0  0  0
 25 24  1  0  0  0  0
 27 26  1  0  0  0  0
 28 24  1  0  0  0  0
 29 31  1  0  0  0  0
 29 32  1  0  0  0  0
 30 31  2  0  0  0  0
 31 23  1  0  0  0  0
 32 25  1  0  0  0  0
 33 23  2  0  0  0  0
 34 28  1  0  0  0  0
 34 27  2  0  0  0  0
M  END
>  <MODEL>
8

>  <REMARK>
 VINA RESULT:      -7.7      3.470      8.589
  Name = 
  10 active torsions:
  status: ('A' for Active; 'I' for Inactive)
    1  A    between atoms: C_4  and  C_25
    2  A    between atoms: C_6  and  C_22
    3  A    between atoms: C_8  and  C_12
    4  A    between atoms: C_8  and  C_22
    5  A    between atoms: C_9  and  C_27
    6  A    between atoms: C_13  and  C_15
    7  A    between atoms: C_15  and  C_16
    8  A    between atoms: C_15  and  C_32
    9  A    between atoms: C_22  and  C_30
   10  A    between atoms: C_27  and  C_30
                            x       y       z     vdW  Elec       q    Type
                         _______ _______ _______ _____ _____    ______ ____

>  <TORSDO>
F 10

$$$$
=
 OpenBabel11032421283D

 34 36  0  0  1  0  0  0  0  0999 V2000
  189.2470  177.9870  140.7090 C   0  0  2  0  0  3  0  0  0  0  0  0
  187.3670  177.9650  143.8770 C   0  0  2  0  0  3  0  0  0  0  0  0
  189.0240  178.2280  142.2190 C   0  0  1  0  0  3  0  0  0  0  0  0
  188.0920  177.2530  142.8140 N   0  0  1  0  0  0  0  0  0  0  0  0
  187.7780  177.4770  145.2370 C   0  0  0  0  0  3  0  0  0  0  0  0
  189.0820  177.3550  145.4870 C   0  0  0  0  0  0  0  0  0  0  0  0
  189.5690  177.1440  143.0400 C   0  0  2  0  0  3  0  0  0  0  0  0
  190.0540  177.6970  144.3910 C   0  0  0  0  0  2  0  0  0  0  0  0
  185.1060  179.0200  144.2960 C   0  0  0  0  0  1  0  0  0  0  0  0
  185.8580  177.8510  143.6770 C   0  0  0  0  0  2  0  0  0  0  0  0
  189.5380  176.8020  146.8040 C   0  0  1  0  0  3  0  0  0  0  0  0
  191.6840  177.1760  147.8130 O   0  0  0  0  0  1  0  0  0  0  0  0
  191.0280  176.6710  146.8620 C   0  0  0  0  0  0  0  0  0  0  0  0
  191.6950  175.9970  145.8500 O   0  0  0  0  0  0  0  0  0  0  0  0
  188.6050  178.2500  148.8520 C   0  0  0  0  0  3  0  0  0  0  0  0
  189.0260  177.5980  147.9290 C   0  0  0  0  0  0  0  0  0  0  0  0
  187.9860  177.8730  139.8500 C   0  0  0  0  0  2  0  0  0  0  0  0
  189.0530  179.3760  138.1710 O   0  0  0  0  0  1  0  0  0  0  0  0
  188.2680  178.2620  138.4390 C   0  0  0  0  0  0  0  0  0  0  0  0
  187.7930  177.5860  137.4890 O   0  0  0  0  0  0  0  0  0  0  0  0
  190.1240  176.7670  140.4810 C   0  0  0  0  0  2  0  0  0  0  0  0
  191.4960  177.1830  139.9580 C   0  0  0  0  0  2  0  0  0  0  0  0
  192.7760  173.8130  136.2060 C   0  0  0  0  0  0  0  0  0  0  0  0
  190.7630  175.6220  138.1300 C   0  0  0  0  0  2  0  0  0  0  0  0
  191.7290  176.7400  138.5170 C   0  0  2  0  0  3  0  0  0  0  0  0
  189.0450  173.1730  136.1370 C   0  0  0  0  0  1  0  0  0  0  0  0
  190.4970  173.0690  136.0790 N   0  0  0  0  0  0  0  0  0  0  0  0
  190.7550  175.4190  136.6240 C   0  0  0  0  0  2  0  0  0  0  0  0
  193.5030  176.2590  136.8170 C   0  0  0  0  0  2  0  0  0  0  0  0
  195.0690  174.5150  136.3800 N   0  0  0  0  0  2  0  0  0  0  0  0
  193.8210  174.8500  136.4420 C   0  0  0  0  0  0  0  0  0  0  0  0
  193.1880  176.3480  138.3010 C   0  0  0  0  0  2  0  0  0  0  0  0
  193.1710  172.6150  135.9100 N   0  0  0  0  0  2  0  0  0  0  0  0
  191.3090  174.0640  136.2840 C   0  0  0  0  0  0  0  0  0  0  0  0
  1 17  1  6  0  0  0
  2 10  1  6  0  0  0
  2  5  1  0  0  0  0
  3  1  1  6  0  0  0
  3  4  1  0  0  0  0
  3  7  1  0  0  0  0
  4  7  1  0  0  0  0
  4  2  1  0  0  0  0
  5  6  2  0  0  0  0
  6 11  1  0  0  0  0
  7  8  1  0  0  0  0
  8  6  1  0  0  0  0
 10  9  1  0  0  0  0
 11 13  1  0  0  0  0
 11 16  1  0  0  0  0
 13 12  1  0  0  0  0
 14 13  2  0  0  0  0
 16 15  3  0  0  0  0
 18 19  1  0  0  0  0
 19 17  1  0  0  0  0
 20 19  2  0  0  0  0
 21  1  1  0  0  0  0
 22 21  1  0  0  0  0
 23 34  1  0  0  0  0
 23 31  1  0  0  0  0
 24 25  1  0  0  0  0
 25 22  1  0  0  0  0
 27 26  1  0  0  0  0
 27 34  2  0  0  0  0
 28 24  1  0  0  0  0
 29 32  1  0  0  0  0
 30 31  2  0  0  0  0
 31 29  1  0  0  0  0
 32 25  1  0  0  0  0
 33 23  2  0  0  0  0
 34 28  1  0  0  0  0
M  END
>  <MODEL>
9

>  <REMARK>
 VINA RESULT:      -7.7      2.066      5.375
  Name = 
  10 active torsions:
  status: ('A' for Active; 'I' for Inactive)
    1  A    between atoms: C_4  and  C_25
    2  A    between atoms: C_6  and  C_22
    3  A    between atoms: C_8  and  C_12
    4  A    between atoms: C_8  and  C_22
    5  A    between atoms: C_9  and  C_27
    6  A    between atoms: C_13  and  C_15
    7  A    between atoms: C_15  and  C_16
    8  A    between atoms: C_15  and  C_32
    9  A    between atoms: C_22  and  C_30
   10  A    between atoms: C_27  and  C_30
                            x       y       z     vdW  Elec       q    Type
                         _______ _______ _______ _____ _____    ______ ____

>  <TORSDO>
F 10

$$$$
