=
 OpenBabel11032420463D

 47 55  0  0  1  0  0  0  0  0999 V2000
  191.2780  176.2680  145.4220 C   0  0  0  0  0  3  0  0  0  0  0  0
  183.4670  179.3130  145.1230 N   0  0  0  0  0  0  0  0  0  0  0  0
  191.7270  176.6210  147.5460 N   0  0  0  0  0  0  0  0  0  0  0  0
  186.1640  177.7490  143.3560 C   0  0  0  0  0  2  0  0  0  0  0  0
  188.3420  177.9410  147.7550 C   0  0  0  0  0  3  0  0  0  0  0  0
  184.7450  178.7600  145.0220 N   0  0  0  0  0  0  0  0  0  0  0  0
  187.1160  177.6020  144.3700 C   0  0  0  0  0  0  0  0  0  0  0  0
  189.5880  177.5690  148.2140 N   0  0  0  0  0  0  0  0  0  0  0  0
  183.7670  178.6410  142.9820 C   0  0  0  0  0  0  0  0  0  0  0  0
  184.9620  178.3530  143.7500 C   0  0  0  0  0  0  0  0  0  0  0  0
  188.9360  177.1500  145.5550 N   0  0  0  0  0  0  0  0  0  0  0  0
  183.5810  178.4310  141.6770 C   0  0  0  0  0  2  0  0  0  0  0  0
  190.4660  177.0040  147.3340 C   0  0  0  0  0  0  0  0  0  0  0  0
  192.4630  176.6970  148.7980 C   0  0  0  0  0  1  0  0  0  0  0  0
  188.3930  177.0680  144.3180 C   0  0  0  0  0  0  0  0  0  0  0  0
  186.8800  178.0210  145.6760 C   0  0  0  0  0  0  0  0  0  0  0  0
  190.1570  176.7950  146.0300 C   0  0  0  0  0  0  0  0  0  0  0  0
  185.6630  178.6210  146.0220 C   0  0  0  0  0  0  0  0  0  0  0  0
  182.8340  179.2560  143.8690 N   0  0  0  0  0  0  0  0  0  0  0  0
  188.0290  177.7230  146.3910 C   0  0  0  0  0  0  0  0  0  0  0  0
  192.2280  176.1750  146.3950 N   0  0  0  0  0  0  0  0  0  0  0  0
  185.4210  179.0170  147.1920 O   0  0  0  0  0  0  0  0  0  0  0  0
  182.3360  178.6870  141.0160 N   0  0  0  0  0  2  0  0  0  0  0  0
  181.9000  178.0420  139.8130 C   0  0  0  0  0  0  0  0  0  0  0  0
  180.7040  178.1940  139.4290 O   0  0  0  0  0  0  0  0  0  0  0  0
  183.4110  177.1280  136.5440 C   0  0  0  0  0  3  0  0  0  0  0  0
  182.7890  177.8130  137.5090 C   0  0  0  0  0  3  0  0  0  0  0  0
  184.1630  175.8750  136.9070 C   0  0  0  0  0  2  0  0  0  0  0  0
  182.8740  177.3200  138.9340 C   0  0  2  0  0  3  0  0  0  0  0  0
  183.2970  175.0100  137.8310 C   0  0  0  0  0  2  0  0  0  0  0  0
  182.7470  175.7850  139.0500 C   0  0  0  0  0  2  0  0  0  0  0  0
  189.0380  176.4400  143.1200 C   0  0  0  0  0  2  0  0  0  0  0  0
  189.9360  177.4590  142.4390 C   0  0  2  0  0  3  0  0  0  0  0  0
  189.9000  178.7890  143.1680 C   0  0  0  0  0  1  0  0  0  0  0  0
  188.2120  177.9470  138.7940 S   0  0  0  0  0  0  0  0  0  0  0  0
  190.1200  176.1290  137.7980 N   0  0  0  0  0  2  0  0  0  0  0  0
  190.1970  176.8250  140.0700 N   0  0  0  0  0  0  0  0  0  0  0  0
  188.3530  178.2860  140.5920 C   0  0  0  0  0  2  0  0  0  0  0  0
  189.6410  176.8840  138.9140 C   0  0  0  0  0  0  0  0  0  0  0  0
  189.5690  177.6080  141.0390 N   0  0  0  0  0  0  0  0  0  0  0  0
  191.6290  174.6010  136.5360 C   0  0  2  0  0  0  0  0  0  0  0  0
  191.2510  175.2150  137.8940 C   0  0  1  0  0  0  0  0  0  0  0  0
  192.6310  176.0330  137.0800 S   0  0  0  0  0  0  0  0  0  0  0  0
  190.7750  173.9180  137.5030 N   0  0  0  0  0  2  0  0  0  0  0  0
  192.6610  173.6730  136.3800 O   0  0  0  0  0  0  0  0  0  0  0  0
  192.1330  172.6730  135.5640 C   0  0  0  0  0  2  0  0  0  0  0  0
  193.0370  171.4570  135.6110 C   0  0  0  0  0  1  0  0  0  0  0  0
  1 17  1  0  0  0  0
  1 21  2  0  0  0  0
  3 14  1  0  0  0  0
  4 10  1  0  0  0  0
  4  7  1  0  0  0  0
  5  8  2  0  0  0  0
  6  2  1  0  0  0  0
  6 18  1  0  0  0  0
  7 16  1  0  0  0  0
  9 10  2  0  0  0  0
  9 19  1  0  0  0  0
 10  6  1  0  0  0  0
 11 17  1  0  0  0  0
 11 20  1  0  0  0  0
 12  9  1  0  0  0  0
 13  3  1  0  0  0  0
 13  8  1  0  0  0  0
 15  7  2  0  0  0  0
 15 11  1  0  0  0  0
 16 18  1  0  0  0  0
 16 20  2  0  0  0  0
 17 13  2  0  0  0  0
 18 22  2  0  0  0  0
 19  2  2  0  0  0  0
 20  5  1  0  0  0  0
 21  3  1  0  0  0  0
 23 12  1  0  0  0  0
 24 23  1  0  0  0  0
 25 24  2  0  0  0  0
 26 28  1  0  0  0  0
 26 27  2  0  0  0  0
 27 29  1  0  0  0  0
 28 30  1  0  0  0  0
 29 31  1  0  0  0  0
 29 24  1  1  0  0  0
 30 31  1  0  0  0  0
 32 15  1  0  0  0  0
 33 32  1  0  0  0  0
 33 34  1  1  0  0  0
 35 39  1  0  0  0  0
 35 38  1  0  0  0  0
 36 39  1  0  0  0  0
 37 40  1  0  0  0  0
 38 40  1  0  0  0  0
 39 37  2  0  0  0  0
 40 33  1  0  0  0  0
 41 45  1  1  0  0  0
 41 43  1  0  0  0  0
 41 44  1  0  0  0  0
 41 42  1  0  0  0  0
 42 36  1  6  0  0  0
 43 42  1  0  0  0  0
 44 42  1  0  0  0  0
 46 47  1  0  0  0  0
 46 45  1  0  0  0  0
M  END
>  <MODEL>
1

>  <REMARK>
 VINA RESULT:     -10.9      0.000      0.000
  Name = 
  8 active torsions:
  status: ('A' for Active; 'I' for Inactive)
    1  A    between atoms: C_1  and  O_21
    2  A    between atoms: N_2  and  C_25
    3  A    between atoms: C_3  and  N_10
    4  A    between atoms: C_9  and  C_28
    5  A    between atoms: C_13  and  C_32
    6  A    between atoms: C_13  and  C_40
    7  A    between atoms: C_15  and  O_21
    8  A    between atoms: C_40  and  N_41
                            x       y       z     vdW  Elec       q    Type
                         _______ _______ _______ _____ _____    ______ ____

>  <TORSDO>
F 8

$$$$
=
 OpenBabel11032420463D

 47 55  0  0  1  0  0  0  0  0999 V2000
  191.0650  176.3320  144.8550 C   0  0  0  0  0  3  0  0  0  0  0  0
  183.1670  179.1250  145.2750 N   0  0  0  0  0  0  0  0  0  0  0  0
  191.6130  176.4620  146.9810 N   0  0  0  0  0  0  0  0  0  0  0  0
  185.8120  177.8590  143.2160 C   0  0  0  0  0  2  0  0  0  0  0  0
  188.2070  177.6350  147.4990 C   0  0  0  0  0  3  0  0  0  0  0  0
  184.4530  178.6310  145.0520 N   0  0  0  0  0  0  0  0  0  0  0  0
  186.8190  177.6330  144.1600 C   0  0  0  0  0  0  0  0  0  0  0  0
  189.4850  177.2570  147.8530 N   0  0  0  0  0  0  0  0  0  0  0  0
  183.3750  178.7050  143.0600 C   0  0  0  0  0  0  0  0  0  0  0  0
  184.6150  178.3740  143.7330 C   0  0  0  0  0  0  0  0  0  0  0  0
  188.7090  177.1130  145.1990 N   0  0  0  0  0  0  0  0  0  0  0  0
  183.1280  178.6350  141.7510 C   0  0  0  0  0  2  0  0  0  0  0  0
  190.3320  176.8230  146.8740 C   0  0  0  0  0  0  0  0  0  0  0  0
  192.4100  176.4240  148.1970 C   0  0  0  0  0  1  0  0  0  0  0  0
  188.1060  177.1510  143.9870 C   0  0  0  0  0  0  0  0  0  0  0  0
  186.6390  177.8950  145.5150 C   0  0  0  0  0  0  0  0  0  0  0  0
  189.9630  176.7500  145.5710 C   0  0  0  0  0  0  0  0  0  0  0  0
  185.4240  178.4120  145.9840 C   0  0  0  0  0  0  0  0  0  0  0  0
  182.4720  179.1860  144.0550 N   0  0  0  0  0  0  0  0  0  0  0  0
  187.8310  177.5590  146.1360 C   0  0  0  0  0  0  0  0  0  0  0  0
  192.0660  176.1630  145.7650 N   0  0  0  0  0  0  0  0  0  0  0  0
  185.2320  178.6670  147.2010 O   0  0  0  0  0  0  0  0  0  0  0  0
  181.8440  178.9210  141.1830 N   0  0  0  0  0  2  0  0  0  0  0  0
  181.2750  178.2380  140.0580 C   0  0  0  0  0  0  0  0  0  0  0  0
  180.0590  178.4320  139.7680 O   0  0  0  0  0  0  0  0  0  0  0  0
  182.9560  177.5010  136.8280 C   0  0  0  0  0  3  0  0  0  0  0  0
  182.4080  178.1600  137.8530 C   0  0  0  0  0  3  0  0  0  0  0  0
  183.2690  176.0360  136.9860 C   0  0  0  0  0  2  0  0  0  0  0  0
  182.1350  177.4220  139.1420 C   0  0  2  0  0  3  0  0  0  0  0  0
  182.0670  175.3240  137.6190 C   0  0  0  0  0  2  0  0  0  0  0  0
  181.5730  176.0010  138.9170 C   0  0  0  0  0  2  0  0  0  0  0  0
  188.7060  176.6830  142.6970 C   0  0  0  0  0  2  0  0  0  0  0  0
  189.3740  177.8530  141.9970 C   0  0  2  0  0  3  0  0  0  0  0  0
  188.3610  178.6760  141.2240 C   0  0  0  0  0  1  0  0  0  0  0  0
  192.7690  177.1210  139.8890 S   0  0  0  0  0  0  0  0  0  0  0  0
  191.1110  176.3230  137.7560 N   0  0  0  0  0  2  0  0  0  0  0  0
  190.1630  176.9310  139.8490 N   0  0  0  0  0  0  0  0  0  0  0  0
  191.8640  177.6620  141.3920 C   0  0  0  0  0  2  0  0  0  0  0  0
  191.2020  176.7570  139.1150 C   0  0  0  0  0  0  0  0  0  0  0  0
  190.4510  177.3860  141.1360 N   0  0  0  0  0  0  0  0  0  0  0  0
  189.8170  176.5900  135.6440 C   0  0  2  0  0  0  0  0  0  0  0  0
  189.8360  176.0760  137.0920 C   0  0  1  0  0  0  0  0  0  0  0  0
  190.1490  174.8030  135.8600 S   0  0  0  0  0  0  0  0  0  0  0  0
  189.2800  177.3570  136.7640 N   0  0  0  0  0  2  0  0  0  0  0  0
  188.6960  176.4950  134.8160 O   0  0  0  0  0  0  0  0  0  0  0  0
  187.9710  177.6630  135.0470 C   0  0  0  0  0  2  0  0  0  0  0  0
  186.5180  177.4320  134.6830 C   0  0  0  0  0  1  0  0  0  0  0  0
  1 17  1  0  0  0  0
  1 21  2  0  0  0  0
  3 14  1  0  0  0  0
  4 10  1  0  0  0  0
  4  7  1  0  0  0  0
  5  8  2  0  0  0  0
  6  2  1  0  0  0  0
  6 18  1  0  0  0  0
  7 16  1  0  0  0  0
  9 10  2  0  0  0  0
  9 19  1  0  0  0  0
 10  6  1  0  0  0  0
 11 17  1  0  0  0  0
 11 20  1  0  0  0  0
 12  9  1  0  0  0  0
 13  3  1  0  0  0  0
 13  8  1  0  0  0  0
 15  7  2  0  0  0  0
 15 11  1  0  0  0  0
 16 18  1  0  0  0  0
 16 20  2  0  0  0  0
 17 13  2  0  0  0  0
 18 22  2  0  0  0  0
 19  2  2  0  0  0  0
 20  5  1  0  0  0  0
 21  3  1  0  0  0  0
 23 12  1  0  0  0  0
 24 23  1  0  0  0  0
 25 24  2  0  0  0  0
 26 28  1  0  0  0  0
 26 27  2  0  0  0  0
 27 29  1  0  0  0  0
 28 30  1  0  0  0  0
 29 24  1  1  0  0  0
 30 31  1  0  0  0  0
 31 29  1  0  0  0  0
 32 15  1  0  0  0  0
 33 34  1  6  0  0  0
 33 32  1  0  0  0  0
 35 38  1  0  0  0  0
 36 39  1  0  0  0  0
 37 40  1  0  0  0  0
 39 37  2  0  0  0  0
 39 35  1  0  0  0  0
 40 38  1  0  0  0  0
 40 33  1  0  0  0  0
 41 45  1  1  0  0  0
 41 43  1  0  0  0  0
 41 44  1  0  0  0  0
 41 42  1  0  0  0  0
 42 36  1  1  0  0  0
 43 42  1  0  0  0  0
 44 42  1  0  0  0  0
 45 46  1  0  0  0  0
 47 46  1  0  0  0  0
M  END
>  <MODEL>
2

>  <REMARK>
 VINA RESULT:     -10.4      1.759      2.268
  Name = 
  8 active torsions:
  status: ('A' for Active; 'I' for Inactive)
    1  A    between atoms: C_1  and  O_21
    2  A    between atoms: N_2  and  C_25
    3  A    between atoms: C_3  and  N_10
    4  A    between atoms: C_9  and  C_28
    5  A    between atoms: C_13  and  C_32
    6  A    between atoms: C_13  and  C_40
    7  A    between atoms: C_15  and  O_21
    8  A    between atoms: C_40  and  N_41
                            x       y       z     vdW  Elec       q    Type
                         _______ _______ _______ _____ _____    ______ ____

>  <TORSDO>
F 8

$$$$
=
 OpenBabel11032420463D

 47 55  0  0  1  0  0  0  0  0999 V2000
  190.8140  177.7530  143.3270 C   0  0  0  0  0  3  0  0  0  0  0  0
  182.5540  178.7480  142.2610 N   0  0  0  0  0  0  0  0  0  0  0  0
  190.8440  177.2050  145.4570 N   0  0  0  0  0  0  0  0  0  0  0  0
  185.8140  178.8030  140.7760 C   0  0  0  0  0  2  0  0  0  0  0  0
  187.2200  177.4840  145.2940 C   0  0  0  0  0  3  0  0  0  0  0  0
  183.9420  178.6060  142.2820 N   0  0  0  0  0  0  0  0  0  0  0  0
  186.6210  178.4360  141.8570 C   0  0  0  0  0  0  0  0  0  0  0  0
  188.4470  177.2390  145.8720 N   0  0  0  0  0  0  0  0  0  0  0  0
  183.3300  179.1980  140.1820 C   0  0  0  0  0  0  0  0  0  0  0  0
  184.4420  178.8750  141.0530 C   0  0  0  0  0  0  0  0  0  0  0  0
  188.3170  177.9240  143.1920 N   0  0  0  0  0  0  0  0  0  0  0  0
  183.3930  179.5610  138.9000 C   0  0  0  0  0  2  0  0  0  0  0  0
  189.5660  177.3450  145.0970 C   0  0  0  0  0  0  0  0  0  0  0  0
  191.3470  176.8750  146.7820 C   0  0  0  0  0  1  0  0  0  0  0  0
  187.9970  178.2870  141.9280 C   0  0  0  0  0  0  0  0  0  0  0  0
  186.0950  178.1560  143.1150 C   0  0  0  0  0  0  0  0  0  0  0  0
  189.5140  177.6820  143.7850 C   0  0  0  0  0  0  0  0  0  0  0  0
  184.7160  178.2440  143.3450 C   0  0  0  0  0  0  0  0  0  0  0  0
  182.1420  179.1200  140.9690 N   0  0  0  0  0  0  0  0  0  0  0  0
  187.1740  177.8380  143.9230 C   0  0  0  0  0  0  0  0  0  0  0  0
  191.6080  177.4500  144.3940 N   0  0  0  0  0  0  0  0  0  0  0  0
  184.2100  178.0050  144.4720 O   0  0  0  0  0  0  0  0  0  0  0  0
  182.2300  179.7980  138.0970 N   0  0  0  0  0  2  0  0  0  0  0  0
  181.3380  178.7790  137.6280 C   0  0  0  0  0  0  0  0  0  0  0  0
  180.2380  179.1160  137.1010 O   0  0  0  0  0  0  0  0  0  0  0  0
  181.7590  175.4330  136.0680 C   0  0  0  0  0  3  0  0  0  0  0  0
  181.6540  176.7560  136.2290 C   0  0  0  0  0  3  0  0  0  0  0  0
  181.9570  174.5650  137.2840 C   0  0  0  0  0  2  0  0  0  0  0  0
  181.7550  177.3410  137.6170 C   0  0  2  0  0  3  0  0  0  0  0  0
  180.9700  174.9880  138.3780 C   0  0  0  0  0  2  0  0  0  0  0  0
  181.0090  176.5040  138.6800 C   0  0  0  0  0  2  0  0  0  0  0  0
  188.9590  178.4300  140.7890 C   0  0  0  0  0  2  0  0  0  0  0  0
  189.0450  177.1150  140.0340 C   0  0  2  0  0  3  0  0  0  0  0  0
  190.4610  176.5700  140.0490 C   0  0  0  0  0  1  0  0  0  0  0  0
  187.3910  178.2130  136.4900 S   0  0  0  0  0  0  0  0  0  0  0  0
  186.7920  175.4900  136.0800 N   0  0  0  0  0  2  0  0  0  0  0  0
  188.0240  176.1730  137.9950 N   0  0  0  0  0  0  0  0  0  0  0  0
  188.2490  178.5710  138.0730 C   0  0  0  0  0  2  0  0  0  0  0  0
  187.4210  176.4770  136.9030 C   0  0  0  0  0  0  0  0  0  0  0  0
  188.5480  177.2720  138.6760 N   0  0  0  0  0  0  0  0  0  0  0  0
  185.6140  173.3230  135.7350 C   0  0  2  0  0  0  0  0  0  0  0  0
  186.7590  174.0760  136.4320 C   0  0  1  0  0  0  0  0  0  0  0  0
  187.2650  173.1790  134.9580 S   0  0  0  0  0  0  0  0  0  0  0  0
  185.5090  173.8390  137.0960 N   0  0  0  0  0  2  0  0  0  0  0  0
  185.3620  171.9640  135.9390 O   0  0  0  0  0  0  0  0  0  0  0  0
  184.0270  171.7830  135.5780 C   0  0  0  0  0  2  0  0  0  0  0  0
  183.2790  171.1400  136.7290 C   0  0  0  0  0  1  0  0  0  0  0  0
  1 17  1  0  0  0  0
  1 21  2  0  0  0  0
  2  6  1  0  0  0  0
  3 14  1  0  0  0  0
  4 10  1  0  0  0  0
  4  7  1  0  0  0  0
  5  8  2  0  0  0  0
  6 18  1  0  0  0  0
  7 15  2  0  0  0  0
  7 16  1  0  0  0  0
  9 19  1  0  0  0  0
  9 10  2  0  0  0  0
 10  6  1  0  0  0  0
 11 17  1  0  0  0  0
 11 20  1  0  0  0  0
 12  9  1  0  0  0  0
 13  3  1  0  0  0  0
 13  8  1  0  0  0  0
 15 11  1  0  0  0  0
 16 18  1  0  0  0  0
 16 20  2  0  0  0  0
 17 13  2  0  0  0  0
 18 22  2  0  0  0  0
 19  2  2  0  0  0  0
 20  5  1  0  0  0  0
 21  3  1  0  0  0  0
 23 12  1  0  0  0  0
 24 23  1  0  0  0  0
 25 24  2  0  0  0  0
 26 27  2  0  0  0  0
 26 28  1  0  0  0  0
 27 29  1  0  0  0  0
 28 30  1  0  0  0  0
 29 24  1  6  0  0  0
 29 31  1  0  0  0  0
 30 31  1  0  0  0  0
 32 15  1  0  0  0  0
 33 34  1  6  0  0  0
 33 32  1  0  0  0  0
 35 39  1  0  0  0  0
 35 38  1  0  0  0  0
 36 39  1  0  0  0  0
 37 40  1  0  0  0  0
 38 40  1  0  0  0  0
 39 37  2  0  0  0  0
 40 33  1  0  0  0  0
 41 45  1  1  0  0  0
 41 42  1  0  0  0  0
 41 44  1  0  0  0  0
 42 36  1  6  0  0  0
 42 44  1  0  0  0  0
 43 41  1  0  0  0  0
 43 42  1  0  0  0  0
 46 45  1  0  0  0  0
 46 47  1  0  0  0  0
M  END
>  <MODEL>
3

>  <REMARK>
 VINA RESULT:      -9.2      2.693      3.713
  Name = 
  8 active torsions:
  status: ('A' for Active; 'I' for Inactive)
    1  A    between atoms: C_1  and  O_21
    2  A    between atoms: N_2  and  C_25
    3  A    between atoms: C_3  and  N_10
    4  A    between atoms: C_9  and  C_28
    5  A    between atoms: C_13  and  C_32
    6  A    between atoms: C_13  and  C_40
    7  A    between atoms: C_15  and  O_21
    8  A    between atoms: C_40  and  N_41
                            x       y       z     vdW  Elec       q    Type
                         _______ _______ _______ _____ _____    ______ ____

>  <TORSDO>
F 8

$$$$
=
 OpenBabel11032420463D

 47 55  0  0  1  0  0  0  0  0999 V2000
  188.6220  176.8810  146.5480 C   0  0  0  0  0  3  0  0  0  0  0  0
  190.1970  177.8840  138.3700 N   0  0  0  0  0  0  0  0  0  0  0  0
  190.6800  176.9040  147.3220 N   0  0  0  0  0  0  0  0  0  0  0  0
  187.7310  177.5030  140.9420 C   0  0  0  0  0  2  0  0  0  0  0  0
  191.6800  177.4230  143.8620 C   0  0  0  0  0  3  0  0  0  0  0  0
  189.7810  177.7280  139.6930 N   0  0  0  0  0  0  0  0  0  0  0  0
  188.5290  177.4360  142.0880 C   0  0  0  0  0  0  0  0  0  0  0  0
  191.8520  177.2700  145.2210 N   0  0  0  0  0  0  0  0  0  0  0  0
  187.9350  177.7760  138.3790 C   0  0  0  0  0  0  0  0  0  0  0  0
  188.4300  177.6530  139.7360 C   0  0  0  0  0  0  0  0  0  0  0  0
  189.2920  177.2640  144.1640 N   0  0  0  0  0  0  0  0  0  0  0  0
  186.6640  177.7140  137.9800 C   0  0  0  0  0  2  0  0  0  0  0  0
  190.7440  177.1170  146.0060 C   0  0  0  0  0  0  0  0  0  0  0  0
  191.7990  176.8080  148.2470 C   0  0  0  0  0  1  0  0  0  0  0  0
  188.1640  177.2770  143.4150 C   0  0  0  0  0  0  0  0  0  0  0  0
  189.9170  177.5190  142.0320 C   0  0  0  0  0  0  0  0  0  0  0  0
  189.4870  177.1120  145.4980 C   0  0  0  0  0  0  0  0  0  0  0  0
  190.5720  177.6670  140.8030 C   0  0  0  0  0  0  0  0  0  0  0  0
  189.0720  177.9140  137.5280 N   0  0  0  0  0  0  0  0  0  0  0  0
  190.3630  177.4130  143.3390 C   0  0  0  0  0  0  0  0  0  0  0  0
  189.4000  176.7590  147.6610 N   0  0  0  0  0  0  0  0  0  0  0  0
  191.8250  177.7380  140.7180 O   0  0  0  0  0  0  0  0  0  0  0  0
  186.2630  177.9150  136.6190 N   0  0  0  0  0  2  0  0  0  0  0  0
  185.8320  176.8760  135.7300 C   0  0  0  0  0  0  0  0  0  0  0  0
  185.3110  177.1890  134.6200 O   0  0  0  0  0  0  0  0  0  0  0  0
  186.5160  173.3410  134.8150 C   0  0  0  0  0  3  0  0  0  0  0  0
  186.4580  174.6760  134.7740 C   0  0  0  0  0  3  0  0  0  0  0  0
  186.2260  172.6380  136.1160 C   0  0  0  0  0  2  0  0  0  0  0  0
  186.1230  175.4380  136.0330 C   0  0  2  0  0  3  0  0  0  0  0  0
  184.9590  173.2320  136.7440 C   0  0  0  0  0  2  0  0  0  0  0  0
  185.0020  174.7720  136.8620 C   0  0  0  0  0  2  0  0  0  0  0  0
  186.7640  177.2070  143.9430 C   0  0  0  0  0  2  0  0  0  0  0  0
  186.3110  178.5960  144.3560 C   0  0  2  0  0  3  0  0  0  0  0  0
  186.5060  178.8120  145.8450 C   0  0  0  0  0  1  0  0  0  0  0  0
  182.2850  178.9250  143.9230 S   0  0  0  0  0  0  0  0  0  0  0  0
  182.6700  178.3690  141.1870 N   0  0  0  0  0  2  0  0  0  0  0  0
  184.5380  178.5940  142.6400 N   0  0  0  0  0  0  0  0  0  0  0  0
  183.8280  178.9530  144.9160 C   0  0  0  0  0  2  0  0  0  0  0  0
  183.2660  178.6110  142.4650 C   0  0  0  0  0  0  0  0  0  0  0  0
  184.9280  178.8200  143.9610 N   0  0  0  0  0  0  0  0  0  0  0  0
  182.6100  178.0730  138.7150 C   0  0  2  0  0  0  0  0  0  0  0  0
  183.4540  178.0560  139.9990 C   0  0  1  0  0  0  0  0  0  0  0  0
  183.5800  179.5860  139.0610 S   0  0  0  0  0  0  0  0  0  0  0  0
  182.9130  176.8470  139.4470 N   0  0  0  0  0  2  0  0  0  0  0  0
  183.1330  177.7740  137.4550 O   0  0  0  0  0  0  0  0  0  0  0  0
  182.0840  177.1810  136.7540 C   0  0  0  0  0  2  0  0  0  0  0  0
  181.9410  177.8510  135.4020 C   0  0  0  0  0  1  0  0  0  0  0  0
  1 21  2  0  0  0  0
  2  6  1  0  0  0  0
  3 21  1  0  0  0  0
  3 14  1  0  0  0  0
  4  7  1  0  0  0  0
  5  8  2  0  0  0  0
  6 10  1  0  0  0  0
  6 18  1  0  0  0  0
  7 15  2  0  0  0  0
  8 13  1  0  0  0  0
  9 10  2  0  0  0  0
 10  4  1  0  0  0  0
 11 17  1  0  0  0  0
 12  9  1  0  0  0  0
 13  3  1  0  0  0  0
 15 32  1  0  0  0  0
 15 11  1  0  0  0  0
 16  7  1  0  0  0  0
 16 20  2  0  0  0  0
 17 13  2  0  0  0  0
 17  1  1  0  0  0  0
 18 16  1  0  0  0  0
 19  2  2  0  0  0  0
 19  9  1  0  0  0  0
 20  5  1  0  0  0  0
 20 11  1  0  0  0  0
 22 18  2  0  0  0  0
 23 12  1  0  0  0  0
 24 23  1  0  0  0  0
 25 24  2  0  0  0  0
 26 28  1  0  0  0  0
 27 26  2  0  0  0  0
 27 29  1  0  0  0  0
 28 30  1  0  0  0  0
 29 24  1  6  0  0  0
 29 31  1  0  0  0  0
 30 31  1  0  0  0  0
 32 33  1  0  0  0  0
 33 34  1  1  0  0  0
 35 38  1  0  0  0  0
 36 39  1  0  0  0  0
 37 40  1  0  0  0  0
 39 37  2  0  0  0  0
 39 35  1  0  0  0  0
 40 33  1  0  0  0  0
 40 38  1  0  0  0  0
 41 45  1  6  0  0  0
 41 43  1  0  0  0  0
 41 44  1  0  0  0  0
 41 42  1  0  0  0  0
 42 36  1  1  0  0  0
 43 42  1  0  0  0  0
 44 42  1  0  0  0  0
 46 45  1  0  0  0  0
 47 46  1  0  0  0  0
M  END
>  <MODEL>
4

>  <REMARK>
 VINA RESULT:      -8.9      3.111      6.344
  Name = 
  8 active torsions:
  status: ('A' for Active; 'I' for Inactive)
    1  A    between atoms: C_1  and  O_21
    2  A    between atoms: N_2  and  C_25
    3  A    between atoms: C_3  and  N_10
    4  A    between atoms: C_9  and  C_28
    5  A    between atoms: C_13  and  C_32
    6  A    between atoms: C_13  and  C_40
    7  A    between atoms: C_15  and  O_21
    8  A    between atoms: C_40  and  N_41
                            x       y       z     vdW  Elec       q    Type
                         _______ _______ _______ _____ _____    ______ ____

>  <TORSDO>
F 8

$$$$
=
 OpenBabel11032420463D

 47 55  0  0  1  0  0  0  0  0999 V2000
  181.5480  179.3930  141.0320 C   0  0  0  0  0  3  0  0  0  0  0  0
  189.2830  177.2790  143.4930 N   0  0  0  0  0  0  0  0  0  0  0  0
  180.5020  179.2650  142.9630 N   0  0  0  0  0  0  0  0  0  0  0  0
  187.1420  178.2740  140.7970 C   0  0  0  0  0  2  0  0  0  0  0  0
  183.7510  178.3930  144.3490 C   0  0  0  0  0  3  0  0  0  0  0  0
  188.0590  177.6590  142.9410 N   0  0  0  0  0  0  0  0  0  0  0  0
  185.9190  178.4360  141.4550 C   0  0  0  0  0  0  0  0  0  0  0  0
  182.4010  178.6710  144.3630 N   0  0  0  0  0  0  0  0  0  0  0  0
  189.5990  177.6300  141.2790 C   0  0  0  0  0  0  0  0  0  0  0  0
  188.2090  177.8720  141.6130 C   0  0  0  0  0  0  0  0  0  0  0  0
  183.7970  178.8190  141.9760 N   0  0  0  0  0  0  0  0  0  0  0  0
  190.1570  177.6910  140.0690 C   0  0  0  0  0  2  0  0  0  0  0  0
  181.7930  179.0110  143.1880 C   0  0  0  0  0  0  0  0  0  0  0  0
  179.4270  179.2640  143.9430 C   0  0  0  0  0  1  0  0  0  0  0  0
  184.6830  178.8040  140.9520 C   0  0  0  0  0  0  0  0  0  0  0  0
  185.7770  178.2200  142.8230 C   0  0  0  0  0  0  0  0  0  0  0  0
  182.4670  179.0840  142.0140 C   0  0  0  0  0  0  0  0  0  0  0  0
  186.8730  177.8170  143.5970 C   0  0  0  0  0  0  0  0  0  0  0  0
  190.2610  177.2480  142.4850 N   0  0  0  0  0  0  0  0  0  0  0  0
  184.4470  178.4690  143.1180 C   0  0  0  0  0  0  0  0  0  0  0  0
  180.3420  179.4980  141.6610 N   0  0  0  0  0  0  0  0  0  0  0  0
  186.7760  177.6060  144.8330 O   0  0  0  0  0  0  0  0  0  0  0  0
  191.5590  177.5010  139.8450 N   0  0  0  0  0  2  0  0  0  0  0  0
  192.1220  176.7580  138.7570 C   0  0  0  0  0  0  0  0  0  0  0  0
  193.3670  176.8240  138.5430 O   0  0  0  0  0  0  0  0  0  0  0  0
  191.5760  173.7280  136.6780 C   0  0  0  0  0  3  0  0  0  0  0  0
  192.0840  174.5780  137.5760 C   0  0  0  0  0  3  0  0  0  0  0  0
  190.2270  174.0240  136.0740 C   0  0  0  0  0  2  0  0  0  0  0  0
  191.2850  175.7970  137.9700 C   0  0  2  0  0  3  0  0  0  0  0  0
  190.1730  175.4960  135.6460 C   0  0  0  0  0  2  0  0  0  0  0  0
  190.5820  176.4730  136.7720 C   0  0  0  0  0  2  0  0  0  0  0  0
  184.3870  179.1920  139.5350 C   0  0  0  0  0  2  0  0  0  0  0  0
  184.1650  177.9390  138.7050 C   0  0  2  0  0  3  0  0  0  0  0  0
  185.4200  177.5640  137.9390 C   0  0  0  0  0  1  0  0  0  0  0  0
  181.4380  178.1140  135.7000 S   0  0  0  0  0  0  0  0  0  0  0  0
  180.5490  180.5380  136.8290 N   0  0  0  0  0  2  0  0  0  0  0  0
  182.2440  179.2640  137.9040 N   0  0  0  0  0  0  0  0  0  0  0  0
  182.8270  177.3220  136.6010 C   0  0  0  0  0  2  0  0  0  0  0  0
  181.4170  179.4060  136.9320 C   0  0  0  0  0  0  0  0  0  0  0  0
  183.0280  178.1130  137.8150 N   0  0  0  0  0  0  0  0  0  0  0  0
  179.4590  182.6670  137.5250 C   0  0  2  0  0  0  0  0  0  0  0  0
  180.5590  181.6270  137.7970 C   0  0  1  0  0  0  0  0  0  0  0  0
  179.0870  181.4160  138.8090 S   0  0  0  0  0  0  0  0  0  0  0  0
  180.8350  182.8330  137.0680 N   0  0  0  0  0  2  0  0  0  0  0  0
  179.2890  183.8160  138.3000 O   0  0  0  0  0  0  0  0  0  0  0  0
  179.4520  184.8810  137.4140 C   0  0  0  0  0  2  0  0  0  0  0  0
  179.2590  186.1870  138.1580 C   0  0  0  0  0  1  0  0  0  0  0  0
  1 21  2  0  0  0  0
  1 17  1  0  0  0  0
  3 13  1  0  0  0  0
  3 14  1  0  0  0  0
  4  7  1  0  0  0  0
  4 10  1  0  0  0  0
  5  8  2  0  0  0  0
  6  2  1  0  0  0  0
  6 18  1  0  0  0  0
  7 16  1  0  0  0  0
  9 10  2  0  0  0  0
  9 19  1  0  0  0  0
 10  6  1  0  0  0  0
 11 17  1  0  0  0  0
 11 20  1  0  0  0  0
 12  9  1  0  0  0  0
 13  8  1  0  0  0  0
 15  7  2  0  0  0  0
 15 11  1  0  0  0  0
 16 20  2  0  0  0  0
 16 18  1  0  0  0  0
 17 13  2  0  0  0  0
 18 22  2  0  0  0  0
 19  2  2  0  0  0  0
 20  5  1  0  0  0  0
 21  3  1  0  0  0  0
 23 12  1  0  0  0  0
 24 23  1  0  0  0  0
 25 24  2  0  0  0  0
 26 27  2  0  0  0  0
 27 29  1  0  0  0  0
 28 26  1  0  0  0  0
 29 24  1  6  0  0  0
 30 28  1  0  0  0  0
 30 31  1  0  0  0  0
 31 29  1  0  0  0  0
 32 15  1  0  0  0  0
 33 34  1  6  0  0  0
 33 32  1  0  0  0  0
 35 38  1  0  0  0  0
 35 39  1  0  0  0  0
 36 39  1  0  0  0  0
 38 40  1  0  0  0  0
 39 37  2  0  0  0  0
 40 37  1  0  0  0  0
 40 33  1  0  0  0  0
 41 42  1  0  0  0  0
 41 45  1  1  0  0  0
 41 43  1  0  0  0  0
 42 36  1  6  0  0  0
 42 43  1  0  0  0  0
 44 41  1  0  0  0  0
 44 42  1  0  0  0  0
 46 47  1  0  0  0  0
 46 45  1  0  0  0  0
M  END
>  <MODEL>
5

>  <REMARK>
 VINA RESULT:      -8.9      3.533      9.663
  Name = 
  8 active torsions:
  status: ('A' for Active; 'I' for Inactive)
    1  A    between atoms: C_1  and  O_21
    2  A    between atoms: N_2  and  C_25
    3  A    between atoms: C_3  and  N_10
    4  A    between atoms: C_9  and  C_28
    5  A    between atoms: C_13  and  C_32
    6  A    between atoms: C_13  and  C_40
    7  A    between atoms: C_15  and  O_21
    8  A    between atoms: C_40  and  N_41
                            x       y       z     vdW  Elec       q    Type
                         _______ _______ _______ _____ _____    ______ ____

>  <TORSDO>
F 8

$$$$
=
 OpenBabel11032420463D

 47 55  0  0  1  0  0  0  0  0999 V2000
  190.9150  177.7740  144.2830 C   0  0  0  0  0  3  0  0  0  0  0  0
  182.7390  178.6890  142.6450 N   0  0  0  0  0  0  0  0  0  0  0  0
  190.8040  177.2390  146.4130 N   0  0  0  0  0  0  0  0  0  0  0  0
  186.0940  178.7630  141.3870 C   0  0  0  0  0  2  0  0  0  0  0  0
  187.1970  177.4850  146.0000 C   0  0  0  0  0  3  0  0  0  0  0  0
  184.1240  178.5590  142.7620 N   0  0  0  0  0  0  0  0  0  0  0  0
  186.8270  178.4100  142.5240 C   0  0  0  0  0  0  0  0  0  0  0  0
  188.3830  177.2540  146.6630 N   0  0  0  0  0  0  0  0  0  0  0  0
  183.6530  179.1330  140.6210 C   0  0  0  0  0  0  0  0  0  0  0  0
  184.7050  178.8250  141.5690 C   0  0  0  0  0  0  0  0  0  0  0  0
  188.4320  177.9220  143.9750 N   0  0  0  0  0  0  0  0  0  0  0  0
  183.8010  179.4890  139.3440 C   0  0  0  0  0  2  0  0  0  0  0  0
  189.5520  177.3650  145.9650 C   0  0  0  0  0  0  0  0  0  0  0  0
  191.2170  176.9210  147.7710 C   0  0  0  0  0  1  0  0  0  0  0  0
  188.1960  178.2740  142.6900 C   0  0  0  0  0  0  0  0  0  0  0  0
  186.2190  178.1340  143.7450 C   0  0  0  0  0  0  0  0  0  0  0  0
  189.5870  177.6930  144.6500 C   0  0  0  0  0  0  0  0  0  0  0  0
  184.8260  178.2100  143.8780 C   0  0  0  0  0  0  0  0  0  0  0  0
  182.4140  179.0490  141.3260 N   0  0  0  0  0  0  0  0  0  0  0  0
  187.2420  177.8300  144.6270 C   0  0  0  0  0  0  0  0  0  0  0  0
  191.6360  177.4840  145.4030 N   0  0  0  0  0  0  0  0  0  0  0  0
  184.2460  177.9740  144.9690 O   0  0  0  0  0  0  0  0  0  0  0  0
  182.6940  179.7100  138.4620 N   0  0  0  0  0  2  0  0  0  0  0  0
  182.1010  178.7100  137.6250 C   0  0  0  0  0  0  0  0  0  0  0  0
  181.0070  178.9610  137.0410 O   0  0  0  0  0  0  0  0  0  0  0  0
  183.1780  175.9280  135.4100 C   0  0  0  0  0  3  0  0  0  0  0  0
  182.7870  177.1320  135.8390 C   0  0  0  0  0  3  0  0  0  0  0  0
  183.6320  174.9060  136.4200 C   0  0  0  0  0  2  0  0  0  0  0  0
  182.8290  177.4370  137.3170 C   0  0  2  0  0  3  0  0  0  0  0  0
  182.6360  174.8640  137.5860 C   0  0  0  0  0  2  0  0  0  0  0  0
  182.3490  176.2580  138.1920 C   0  0  0  0  0  2  0  0  0  0  0  0
  189.2330  178.4180  141.6180 C   0  0  0  0  0  2  0  0  0  0  0  0
  189.3420  177.1160  140.8440 C   0  0  2  0  0  3  0  0  0  0  0  0
  190.4450  176.2390  141.4070 C   0  0  0  0  0  1  0  0  0  0  0  0
  189.1480  177.9120  136.8650 S   0  0  0  0  0  0  0  0  0  0  0  0
  191.3340  176.1620  136.5460 N   0  0  0  0  0  2  0  0  0  0  0  0
  190.5120  176.6720  138.7180 N   0  0  0  0  0  0  0  0  0  0  0  0
  188.5760  178.1040  138.5990 C   0  0  0  0  0  2  0  0  0  0  0  0
  190.4440  176.8300  137.4450 C   0  0  0  0  0  0  0  0  0  0  0  0
  189.5410  177.3800  139.4270 N   0  0  0  0  0  0  0  0  0  0  0  0
  192.8100  174.2650  135.8930 C   0  0  2  0  0  0  0  0  0  0  0  0
  192.3600  175.2330  137.0000 C   0  0  1  0  0  0  0  0  0  0  0  0
  193.8820  175.7220  136.1760 S   0  0  0  0  0  0  0  0  0  0  0  0
  191.8070  173.9120  136.8930 N   0  0  0  0  0  2  0  0  0  0  0  0
  193.7620  173.2640  136.0970 O   0  0  0  0  0  0  0  0  0  0  0  0
  193.2930  172.1630  135.3800 C   0  0  0  0  0  2  0  0  0  0  0  0
  193.6530  170.8910  136.1220 C   0  0  0  0  0  1  0  0  0  0  0  0
  1 17  1  0  0  0  0
  1 21  2  0  0  0  0
  2  6  1  0  0  0  0
  3 14  1  0  0  0  0
  4 10  1  0  0  0  0
  4  7  1  0  0  0  0
  5  8  2  0  0  0  0
  6 18  1  0  0  0  0
  7 15  2  0  0  0  0
  7 16  1  0  0  0  0
  9 19  1  0  0  0  0
  9 10  2  0  0  0  0
 10  6  1  0  0  0  0
 11 20  1  0  0  0  0
 11 17  1  0  0  0  0
 12  9  1  0  0  0  0
 13  3  1  0  0  0  0
 13  8  1  0  0  0  0
 15 11  1  0  0  0  0
 16 18  1  0  0  0  0
 16 20  2  0  0  0  0
 17 13  2  0  0  0  0
 18 22  2  0  0  0  0
 19  2  2  0  0  0  0
 20  5  1  0  0  0  0
 21  3  1  0  0  0  0
 23 12  1  0  0  0  0
 24 23  1  0  0  0  0
 25 24  2  0  0  0  0
 26 27  2  0  0  0  0
 26 28  1  0  0  0  0
 27 29  1  0  0  0  0
 28 30  1  0  0  0  0
 29 24  1  6  0  0  0
 29 31  1  0  0  0  0
 30 31  1  0  0  0  0
 32 15  1  0  0  0  0
 33 34  1  1  0  0  0
 33 32  1  0  0  0  0
 35 39  1  0  0  0  0
 35 38  1  0  0  0  0
 36 39  1  0  0  0  0
 37 40  1  0  0  0  0
 38 40  1  0  0  0  0
 39 37  2  0  0  0  0
 40 33  1  0  0  0  0
 41 45  1  1  0  0  0
 41 43  1  0  0  0  0
 41 44  1  0  0  0  0
 41 42  1  0  0  0  0
 42 36  1  6  0  0  0
 43 42  1  0  0  0  0
 44 42  1  0  0  0  0
 46 45  1  0  0  0  0
 46 47  1  0  0  0  0
M  END
>  <MODEL>
6

>  <REMARK>
 VINA RESULT:      -8.6      1.515      1.966
  Name = 
  8 active torsions:
  status: ('A' for Active; 'I' for Inactive)
    1  A    between atoms: C_1  and  O_21
    2  A    between atoms: N_2  and  C_25
    3  A    between atoms: C_3  and  N_10
    4  A    between atoms: C_9  and  C_28
    5  A    between atoms: C_13  and  C_32
    6  A    between atoms: C_13  and  C_40
    7  A    between atoms: C_15  and  O_21
    8  A    between atoms: C_40  and  N_41
                            x       y       z     vdW  Elec       q    Type
                         _______ _______ _______ _____ _____    ______ ____

>  <TORSDO>
F 8

$$$$
=
 OpenBabel11032420463D

 47 55  0  0  1  0  0  0  0  0999 V2000
  181.6140  179.3470  141.0400 C   0  0  0  0  0  3  0  0  0  0  0  0
  189.3430  177.3140  143.5890 N   0  0  0  0  0  0  0  0  0  0  0  0
  180.5550  179.2430  142.9650 N   0  0  0  0  0  0  0  0  0  0  0  0
  187.2170  178.2540  140.8620 C   0  0  0  0  0  2  0  0  0  0  0  0
  183.7990  178.4110  144.3870 C   0  0  0  0  0  3  0  0  0  0  0  0
  188.1210  177.6790  143.0220 N   0  0  0  0  0  0  0  0  0  0  0  0
  185.9880  178.4200  141.5090 C   0  0  0  0  0  0  0  0  0  0  0  0
  182.4480  178.6810  144.3870 N   0  0  0  0  0  0  0  0  0  0  0  0
  189.6730  177.6330  141.3720 C   0  0  0  0  0  0  0  0  0  0  0  0
  188.2800  177.8710  141.6920 C   0  0  0  0  0  0  0  0  0  0  0  0
  183.8600  178.7990  142.0080 N   0  0  0  0  0  0  0  0  0  0  0  0
  190.2390  177.6770  140.1640 C   0  0  0  0  0  2  0  0  0  0  0  0
  181.8460  178.9990  143.2030 C   0  0  0  0  0  0  0  0  0  0  0  0
  179.4740  179.2520  143.9370 C   0  0  0  0  0  1  0  0  0  0  0  0
  184.7530  178.7740  140.9910 C   0  0  0  0  0  0  0  0  0  0  0  0
  185.8370  178.2250  142.8790 C   0  0  0  0  0  0  0  0  0  0  0  0
  182.5280  179.0580  142.0330 C   0  0  0  0  0  0  0  0  0  0  0  0
  186.9300  177.8400  143.6670 C   0  0  0  0  0  0  0  0  0  0  0  0
  190.3290  177.2730  142.5880 N   0  0  0  0  0  0  0  0  0  0  0  0
  184.5040  178.4710  143.1600 C   0  0  0  0  0  0  0  0  0  0  0  0
  180.4040  179.4550  141.6580 N   0  0  0  0  0  0  0  0  0  0  0  0
  186.8250  177.6480  144.9060 O   0  0  0  0  0  0  0  0  0  0  0  0
  191.6440  177.4920  139.9540 N   0  0  0  0  0  2  0  0  0  0  0  0
  192.2200  176.7400  138.8780 C   0  0  0  0  0  0  0  0  0  0  0  0
  193.4660  176.8090  138.6730 O   0  0  0  0  0  0  0  0  0  0  0  0
  191.7240  173.7820  136.6860 C   0  0  0  0  0  3  0  0  0  0  0  0
  192.2360  174.6190  137.5940 C   0  0  0  0  0  3  0  0  0  0  0  0
  190.3260  174.0220  136.1790 C   0  0  0  0  0  2  0  0  0  0  0  0
  191.3930  175.7670  138.0950 C   0  0  2  0  0  3  0  0  0  0  0  0
  190.1580  175.5050  135.8290 C   0  0  0  0  0  2  0  0  0  0  0  0
  190.5790  176.4530  136.9760 C   0  0  0  0  0  2  0  0  0  0  0  0
  184.4660  179.1380  139.5660 C   0  0  0  0  0  2  0  0  0  0  0  0
  184.3300  177.8700  138.7400 C   0  0  2  0  0  3  0  0  0  0  0  0
  185.4290  177.7790  137.6980 C   0  0  0  0  0  1  0  0  0  0  0  0
  180.5200  178.3140  137.4020 S   0  0  0  0  0  0  0  0  0  0  0  0
  180.2840  175.5110  137.5520 N   0  0  0  0  0  2  0  0  0  0  0  0
  182.3600  176.5670  138.0280 N   0  0  0  0  0  0  0  0  0  0  0  0
  182.1590  178.9660  137.9100 C   0  0  0  0  0  2  0  0  0  0  0  0
  181.1270  176.6590  137.6820 C   0  0  0  0  0  0  0  0  0  0  0  0
  183.0100  177.7970  138.1320 N   0  0  0  0  0  0  0  0  0  0  0  0
  179.8890  173.0850  137.1430 C   0  0  2  0  0  0  0  0  0  0  0  0
  180.7490  174.1580  137.8310 C   0  0  1  0  0  0  0  0  0  0  0  0
  181.4460  173.5380  136.2940 S   0  0  0  0  0  0  0  0  0  0  0  0
  179.6910  173.4870  138.5320 N   0  0  0  0  0  2  0  0  0  0  0  0
  180.1200  171.7160  137.2860 O   0  0  0  0  0  0  0  0  0  0  0  0
  178.9520  171.0990  136.8380 C   0  0  0  0  0  2  0  0  0  0  0  0
  179.3130  169.9460  135.9230 C   0  0  0  0  0  1  0  0  0  0  0  0
  1 21  2  0  0  0  0
  1 17  1  0  0  0  0
  3 13  1  0  0  0  0
  3 14  1  0  0  0  0
  4  7  1  0  0  0  0
  4 10  1  0  0  0  0
  6  2  1  0  0  0  0
  6 18  1  0  0  0  0
  7 16  1  0  0  0  0
  8  5  2  0  0  0  0
  9 10  2  0  0  0  0
  9 19  1  0  0  0  0
 10  6  1  0  0  0  0
 11 17  1  0  0  0  0
 11 20  1  0  0  0  0
 12  9  1  0  0  0  0
 13  8  1  0  0  0  0
 15  7  2  0  0  0  0
 15 11  1  0  0  0  0
 16 20  2  0  0  0  0
 16 18  1  0  0  0  0
 17 13  2  0  0  0  0
 18 22  2  0  0  0  0
 19  2  2  0  0  0  0
 20  5  1  0  0  0  0
 21  3  1  0  0  0  0
 23 12  1  0  0  0  0
 24 23  1  0  0  0  0
 25 24  2  0  0  0  0
 26 27  2  0  0  0  0
 27 29  1  0  0  0  0
 28 26  1  0  0  0  0
 29 24  1  6  0  0  0
 30 28  1  0  0  0  0
 30 31  1  0  0  0  0
 31 29  1  0  0  0  0
 32 15  1  0  0  0  0
 33 34  1  6  0  0  0
 33 32  1  0  0  0  0
 35 39  1  0  0  0  0
 35 38  1  0  0  0  0
 36 39  1  0  0  0  0
 37 40  1  0  0  0  0
 38 40  1  0  0  0  0
 39 37  2  0  0  0  0
 40 33  1  0  0  0  0
 41 45  1  1  0  0  0
 41 42  1  0  0  0  0
 41 44  1  0  0  0  0
 42 36  1  6  0  0  0
 42 44  1  0  0  0  0
 43 41  1  0  0  0  0
 43 42  1  0  0  0  0
 46 45  1  0  0  0  0
 47 46  1  0  0  0  0
M  END
>  <MODEL>
7

>  <REMARK>
 VINA RESULT:      -8.4      3.577      8.783
  Name = 
  8 active torsions:
  status: ('A' for Active; 'I' for Inactive)
    1  A    between atoms: C_1  and  O_21
    2  A    between atoms: N_2  and  C_25
    3  A    between atoms: C_3  and  N_10
    4  A    between atoms: C_9  and  C_28
    5  A    between atoms: C_13  and  C_32
    6  A    between atoms: C_13  and  C_40
    7  A    between atoms: C_15  and  O_21
    8  A    between atoms: C_40  and  N_41
                            x       y       z     vdW  Elec       q    Type
                         _______ _______ _______ _____ _____    ______ ____

>  <TORSDO>
F 8

$$$$
=
 OpenBabel11032420463D

 47 55  0  0  1  0  0  0  0  0999 V2000
  189.2110  177.3300  145.4260 C   0  0  0  0  0  3  0  0  0  0  0  0
  181.4440  179.3430  142.9800 N   0  0  0  0  0  0  0  0  0  0  0  0
  189.0880  177.9060  147.5450 N   0  0  0  0  0  0  0  0  0  0  0  0
  184.6360  177.9910  142.0730 C   0  0  0  0  0  2  0  0  0  0  0  0
  185.6390  178.8060  146.8120 C   0  0  0  0  0  3  0  0  0  0  0  0
  182.7570  178.9480  143.2420 N   0  0  0  0  0  0  0  0  0  0  0  0
  185.3200  178.0460  143.2920 C   0  0  0  0  0  0  0  0  0  0  0  0
  186.7650  178.6300  147.5880 N   0  0  0  0  0  0  0  0  0  0  0  0
  182.3260  178.5430  141.0540 C   0  0  0  0  0  0  0  0  0  0  0  0
  183.3190  178.4690  142.1080 C   0  0  0  0  0  0  0  0  0  0  0  0
  186.8310  177.9210  144.9120 N   0  0  0  0  0  0  0  0  0  0  0  0
  182.4870  178.2080  139.7730 C   0  0  0  0  0  2  0  0  0  0  0  0
  187.8850  178.1100  147.0040 C   0  0  0  0  0  0  0  0  0  0  0  0
  189.4840  178.1740  148.9190 C   0  0  0  0  0  1  0  0  0  0  0  0
  186.6190  177.6730  143.5980 C   0  0  0  0  0  0  0  0  0  0  0  0
  184.7300  178.5350  144.4530 C   0  0  0  0  0  0  0  0  0  0  0  0
  187.9280  177.7610  145.6940 C   0  0  0  0  0  0  0  0  0  0  0  0
  183.4110  179.0050  144.4380 C   0  0  0  0  0  0  0  0  0  0  0  0
  181.1460  179.1070  141.6270 N   0  0  0  0  0  0  0  0  0  0  0  0
  185.6930  178.4420  145.4450 C   0  0  0  0  0  0  0  0  0  0  0  0
  189.8980  177.4350  146.5990 N   0  0  0  0  0  0  0  0  0  0  0  0
  182.8510  179.4600  145.4680 O   0  0  0  0  0  0  0  0  0  0  0  0
  181.4230  178.2520  138.8150 N   0  0  0  0  0  2  0  0  0  0  0  0
  180.2860  177.3800  138.8120 C   0  0  0  0  0  0  0  0  0  0  0  0
  179.3120  177.6360  138.0460 O   0  0  0  0  0  0  0  0  0  0  0  0
  179.7590  173.7270  139.2410 C   0  0  0  0  0  3  0  0  0  0  0  0
  180.0170  174.9170  138.6900 C   0  0  0  0  0  3  0  0  0  0  0  0
  179.7450  173.6060  140.7420 C   0  0  0  0  0  2  0  0  0  0  0  0
  180.3020  176.0980  139.5870 C   0  0  2  0  0  3  0  0  0  0  0  0
  178.9330  174.7620  141.3390 C   0  0  0  0  0  2  0  0  0  0  0  0
  179.3840  176.1490  140.8280 C   0  0  0  0  0  2  0  0  0  0  0  0
  187.5980  177.0360  142.6590 C   0  0  0  0  0  2  0  0  0  0  0  0
  188.3660  178.1190  141.9210 C   0  0  2  0  0  3  0  0  0  0  0  0
  187.5270  178.7190  140.8080 C   0  0  0  0  0  1  0  0  0  0  0  0
  192.1990  177.1460  140.9970 S   0  0  0  0  0  0  0  0  0  0  0  0
  191.3250  176.7810  138.3430 N   0  0  0  0  0  2  0  0  0  0  0  0
  189.7650  177.3080  140.0590 N   0  0  0  0  0  0  0  0  0  0  0  0
  190.8810  177.6570  142.1670 C   0  0  0  0  0  2  0  0  0  0  0  0
  190.9750  177.0680  139.7000 C   0  0  0  0  0  0  0  0  0  0  0  0
  189.6270  177.5970  141.4170 N   0  0  0  0  0  0  0  0  0  0  0  0
  190.1820  175.3760  136.6320 C   0  0  2  0  0  0  0  0  0  0  0  0
  190.3450  176.7690  137.2640 C   0  0  1  0  0  0  0  0  0  0  0  0
  188.9290  175.8470  137.8800 S   0  0  0  0  0  0  0  0  0  0  0  0
  191.0470  176.4070  136.0650 N   0  0  0  0  0  2  0  0  0  0  0  0
  189.3240  175.1220  135.5610 O   0  0  0  0  0  0  0  0  0  0  0  0
  189.8520  173.9970  134.9280 C   0  0  0  0  0  2  0  0  0  0  0  0
  189.0530  172.7730  135.3300 C   0  0  0  0  0  1  0  0  0  0  0  0
  1 17  1  0  0  0  0
  1 21  2  0  0  0  0
  2  6  1  0  0  0  0
  3 14  1  0  0  0  0
  4 10  1  0  0  0  0
  4  7  1  0  0  0  0
  5  8  2  0  0  0  0
  6 18  1  0  0  0  0
  7 15  2  0  0  0  0
  7 16  1  0  0  0  0
  9 19  1  0  0  0  0
  9 10  2  0  0  0  0
 10  6  1  0  0  0  0
 11 20  1  0  0  0  0
 11 17  1  0  0  0  0
 12  9  1  0  0  0  0
 13  3  1  0  0  0  0
 13  8  1  0  0  0  0
 15 11  1  0  0  0  0
 16 20  2  0  0  0  0
 17 13  2  0  0  0  0
 18 16  1  0  0  0  0
 18 22  2  0  0  0  0
 19  2  2  0  0  0  0
 20  5  1  0  0  0  0
 21  3  1  0  0  0  0
 23 12  1  0  0  0  0
 24 23  1  0  0  0  0
 25 24  2  0  0  0  0
 26 28  1  0  0  0  0
 27 26  2  0  0  0  0
 27 29  1  0  0  0  0
 28 30  1  0  0  0  0
 29 24  1  6  0  0  0
 29 31  1  0  0  0  0
 31 30  1  0  0  0  0
 32 15  1  0  0  0  0
 33 34  1  6  0  0  0
 33 32  1  0  0  0  0
 35 38  1  0  0  0  0
 36 39  1  0  0  0  0
 37 40  1  0  0  0  0
 39 37  2  0  0  0  0
 39 35  1  0  0  0  0
 40 33  1  0  0  0  0
 40 38  1  0  0  0  0
 41 45  1  6  0  0  0
 41 42  1  0  0  0  0
 41 43  1  0  0  0  0
 42 43  1  0  0  0  0
 42 36  1  1  0  0  0
 44 41  1  0  0  0  0
 44 42  1  0  0  0  0
 46 47  1  0  0  0  0
 46 45  1  0  0  0  0
M  END
>  <MODEL>
8

>  <REMARK>
 VINA RESULT:      -8.3      2.116      3.031
  Name = 
  8 active torsions:
  status: ('A' for Active; 'I' for Inactive)
    1  A    between atoms: C_1  and  O_21
    2  A    between atoms: N_2  and  C_25
    3  A    between atoms: C_3  and  N_10
    4  A    between atoms: C_9  and  C_28
    5  A    between atoms: C_13  and  C_32
    6  A    between atoms: C_13  and  C_40
    7  A    between atoms: C_15  and  O_21
    8  A    between atoms: C_40  and  N_41
                            x       y       z     vdW  Elec       q    Type
                         _______ _______ _______ _____ _____    ______ ____

>  <TORSDO>
F 8

$$$$
=
 OpenBabel11032420463D

 47 55  0  0  1  0  0  0  0  0999 V2000
  189.3360  177.2180  144.9510 C   0  0  0  0  0  3  0  0  0  0  0  0
  181.4780  179.4310  143.0220 N   0  0  0  0  0  0  0  0  0  0  0  0
  189.3160  177.6430  147.1090 N   0  0  0  0  0  0  0  0  0  0  0  0
  184.6140  178.1330  141.8730 C   0  0  0  0  0  2  0  0  0  0  0  0
  185.8430  178.6070  146.6050 C   0  0  0  0  0  3  0  0  0  0  0  0
  182.7990  179.0130  143.1930 N   0  0  0  0  0  0  0  0  0  0  0  0
  185.3550  178.0990  143.0580 C   0  0  0  0  0  0  0  0  0  0  0  0
  187.0030  178.3720  147.3120 N   0  0  0  0  0  0  0  0  0  0  0  0
  182.2630  178.7660  141.0050 C   0  0  0  0  0  0  0  0  0  0  0  0
  183.3030  178.6130  142.0020 C   0  0  0  0  0  0  0  0  0  0  0  0
  186.9380  177.8530  144.5920 N   0  0  0  0  0  0  0  0  0  0  0  0
  182.3620  178.5210  139.6970 C   0  0  0  0  0  2  0  0  0  0  0  0
  188.0900  177.8900  146.6400 C   0  0  0  0  0  0  0  0  0  0  0  0
  189.7770  177.8110  148.4780 C   0  0  0  0  0  1  0  0  0  0  0  0
  186.6630  177.6990  143.2760 C   0  0  0  0  0  0  0  0  0  0  0  0
  184.8230  178.5070  144.2780 C   0  0  0  0  0  0  0  0  0  0  0  0
  188.0690  177.6340  145.3090 C   0  0  0  0  0  0  0  0  0  0  0  0
  183.5080  178.9830  144.3570 C   0  0  0  0  0  0  0  0  0  0  0  0
  181.1160  179.2930  141.6710 N   0  0  0  0  0  0  0  0  0  0  0  0
  185.8310  178.3400  145.2140 C   0  0  0  0  0  0  0  0  0  0  0  0
  190.0770  177.2360  146.0950 N   0  0  0  0  0  0  0  0  0  0  0  0
  183.0010  179.3660  145.4430 O   0  0  0  0  0  0  0  0  0  0  0  0
  181.2540  178.6380  138.7960 N   0  0  0  0  0  2  0  0  0  0  0  0
  180.9300  177.6920  137.7700 C   0  0  0  0  0  0  0  0  0  0  0  0
  179.8210  177.7880  137.1680 O   0  0  0  0  0  0  0  0  0  0  0  0
  183.2590  174.8330  138.2270 C   0  0  0  0  0  3  0  0  0  0  0  0
  182.2200  175.6620  138.3730 C   0  0  0  0  0  3  0  0  0  0  0  0
  184.1290  174.9640  137.0040 C   0  0  0  0  0  2  0  0  0  0  0  0
  181.9410  176.6900  137.3030 C   0  0  2  0  0  3  0  0  0  0  0  0
  184.4690  176.4420  136.7760 C   0  0  0  0  0  2  0  0  0  0  0  0
  183.2230  177.3570  136.7570 C   0  0  0  0  0  2  0  0  0  0  0  0
  187.5930  177.1270  142.2500 C   0  0  0  0  0  2  0  0  0  0  0  0
  188.5110  178.2210  141.7350 C   0  0  2  0  0  3  0  0  0  0  0  0
  187.8320  179.0370  140.6510 C   0  0  0  0  0  1  0  0  0  0  0  0
  192.3280  177.2560  140.7340 S   0  0  0  0  0  0  0  0  0  0  0  0
  191.2810  176.1230  138.3770 N   0  0  0  0  0  2  0  0  0  0  0  0
  189.8230  177.0110  140.0320 N   0  0  0  0  0  0  0  0  0  0  0  0
  191.0680  177.9920  141.8480 C   0  0  0  0  0  2  0  0  0  0  0  0
  191.0160  176.7530  139.6340 C   0  0  0  0  0  0  0  0  0  0  0  0
  189.7680  177.6550  141.2690 N   0  0  0  0  0  0  0  0  0  0  0  0
  190.5940  176.0680  135.9830 C   0  0  2  0  0  0  0  0  0  0  0  0
  190.2240  175.7570  137.4420 C   0  0  1  0  0  0  0  0  0  0  0  0
  190.8330  174.3360  136.5250 S   0  0  0  0  0  0  0  0  0  0  0  0
  189.7910  176.9680  136.8040 N   0  0  0  0  0  2  0  0  0  0  0  0
  189.7300  175.8330  134.9110 O   0  0  0  0  0  0  0  0  0  0  0  0
  188.8870  176.9430  134.8720 C   0  0  0  0  0  2  0  0  0  0  0  0
  187.4690  176.4860  134.5940 C   0  0  0  0  0  1  0  0  0  0  0  0
  1 17  1  0  0  0  0
  1 21  2  0  0  0  0
  2  6  1  0  0  0  0
  3 14  1  0  0  0  0
  4 10  1  0  0  0  0
  4  7  1  0  0  0  0
  5  8  2  0  0  0  0
  6 18  1  0  0  0  0
  7 15  2  0  0  0  0
  7 16  1  0  0  0  0
  9 19  1  0  0  0  0
  9 10  2  0  0  0  0
 10  6  1  0  0  0  0
 11 20  1  0  0  0  0
 11 17  1  0  0  0  0
 12  9  1  0  0  0  0
 13  3  1  0  0  0  0
 13  8  1  0  0  0  0
 15 11  1  0  0  0  0
 16 18  1  0  0  0  0
 16 20  2  0  0  0  0
 17 13  2  0  0  0  0
 18 22  2  0  0  0  0
 19  2  2  0  0  0  0
 20  5  1  0  0  0  0
 21  3  1  0  0  0  0
 23 12  1  0  0  0  0
 24 23  1  0  0  0  0
 25 24  2  0  0  0  0
 26 27  2  0  0  0  0
 28 26  1  0  0  0  0
 29 24  1  1  0  0  0
 29 27  1  0  0  0  0
 30 28  1  0  0  0  0
 31 30  1  0  0  0  0
 31 29  1  0  0  0  0
 32 15  1  0  0  0  0
 33 34  1  6  0  0  0
 33 32  1  0  0  0  0
 35 38  1  0  0  0  0
 36 39  1  0  0  0  0
 37 40  1  0  0  0  0
 39 37  2  0  0  0  0
 39 35  1  0  0  0  0
 40 33  1  0  0  0  0
 40 38  1  0  0  0  0
 41 45  1  6  0  0  0
 41 43  1  0  0  0  0
 41 44  1  0  0  0  0
 41 42  1  0  0  0  0
 42 36  1  1  0  0  0
 43 42  1  0  0  0  0
 44 42  1  0  0  0  0
 46 45  1  0  0  0  0
 47 46  1  0  0  0  0
M  END
>  <MODEL>
9

>  <REMARK>
 VINA RESULT:      -8.2      1.971      2.804
  Name = 
  8 active torsions:
  status: ('A' for Active; 'I' for Inactive)
    1  A    between atoms: C_1  and  O_21
    2  A    between atoms: N_2  and  C_25
    3  A    between atoms: C_3  and  N_10
    4  A    between atoms: C_9  and  C_28
    5  A    between atoms: C_13  and  C_32
    6  A    between atoms: C_13  and  C_40
    7  A    between atoms: C_15  and  O_21
    8  A    between atoms: C_40  and  N_41
                            x       y       z     vdW  Elec       q    Type
                         _______ _______ _______ _____ _____    ______ ____

>  <TORSDO>
F 8

$$$$
