=
 OpenBabel11042409523D

 33 36  0  0  1  0  0  0  0  0999 V2000
  190.0090  177.1330  140.6980 C   0  0  0  0  0  0  0  0  0  0  0  0
  191.4970  176.8810  139.1860 N   0  0  0  0  0  0  0  0  0  0  0  0
  190.1950  176.7800  139.4160 N   0  0  0  0  0  0  0  0  0  0  0  0
  190.0360  178.3030  143.2930 C   0  0  0  0  0  2  0  0  0  0  0  0
  188.6950  177.2390  141.4020 C   0  0  0  0  0  2  0  0  0  0  0  0
  192.1650  177.3020  140.2860 C   0  0  0  0  0  3  0  0  0  0  0  0
  191.2080  177.4920  141.2610 C   0  0  0  0  0  0  0  0  0  0  0  0
  188.9160  177.3140  142.9230 C   0  0  2  0  0  3  0  0  0  0  0  0
  191.3830  177.8710  142.6960 C   0  0  0  0  0  2  0  0  0  0  0  0
  182.8960  178.7830  142.9060 C   0  0  0  0  0  0  0  0  0  0  0  0
  185.2000  178.3900  144.9040 C   0  0  0  0  0  2  0  0  0  0  0  0
  182.2140  178.7710  140.4910 C   0  0  0  0  0  1  0  0  0  0  0  0
  187.6760  177.6740  143.5970 N   0  0  0  0  0  0  0  0  0  0  0  0
  180.5300  179.3140  142.2540 C   0  0  0  0  0  1  0  0  0  0  0  0
  188.8780  177.5940  146.1160 S   0  0  0  0  0  0  0  0  0  0  0  0
  187.9060  177.9440  147.4530 C   0  0  0  0  0  0  0  0  0  0  0  0
  188.3770  177.9480  148.8620 C   0  0  0  0  0  1  0  0  0  0  0  0
  186.4990  177.9000  142.8550 N   0  0  0  0  0  0  0  0  0  0  0  0
  184.2340  178.4270  142.5270 N   0  0  0  0  0  2  0  0  0  0  0  0
  187.6280  177.8060  145.0150 C   0  0  0  0  0  0  0  0  0  0  0  0
  181.8920  178.9530  141.8960 N   0  0  0  0  0  0  0  0  0  0  0  0
  185.3560  178.2250  143.3980 C   0  0  0  0  0  0  0  0  0  0  0  0
  186.4660  178.1450  145.6620 C   0  0  0  0  0  0  0  0  0  0  0  0
  182.5960  178.9470  144.1200 O   0  0  0  0  0  0  0  0  0  0  0  0
  186.6030  178.2290  147.0510 C   0  0  0  0  0  3  0  0  0  0  0  0
  192.0620  176.5790  137.9640 O   0  0  0  0  0  0  0  0  0  0  0  0
  192.7690  175.3640  137.7480 C   0  0  0  0  0  2  0  0  0  0  0  0
  193.8630  175.5830  136.7210 C   0  0  0  0  0  2  0  0  0  0  0  0
  195.1130  175.4850  137.3330 O   0  0  0  0  0  0  0  0  0  0  0  0
  195.2450  174.1320  137.6480 C   0  0  0  0  0  2  0  0  0  0  0  0
  196.2580  173.9570  138.7640 C   0  0  0  0  0  2  0  0  0  0  0  0
  195.9660  174.9250  139.8940 C   0  0  0  0  0  2  0  0  0  0  0  0
  197.5160  175.3760  140.7190 S   0  0  0  0  0  1  0  0  0  0  0  0
  1  7  1  0  0  0  0
  1  5  1  0  0  0  0
  2  3  1  0  0  0  0
  2  6  1  0  0  0  0
  3  1  2  0  0  0  0
  6  7  2  0  0  0  0
  7  9  1  0  0  0  0
  8  5  1  6  0  0  0
  8  4  1  0  0  0  0
  8 13  1  0  0  0  0
  9  4  1  0  0  0  0
 10 24  2  0  0  0  0
 11 23  1  0  0  0  0
 12 21  1  0  0  0  0
 13 20  1  0  0  0  0
 15 16  1  0  0  0  0
 16 17  1  0  0  0  0
 18 22  2  0  0  0  0
 18 13  1  0  0  0  0
 19 10  1  0  0  0  0
 19 22  1  0  0  0  0
 20 23  2  0  0  0  0
 20 15  1  0  0  0  0
 21 14  1  0  0  0  0
 21 10  1  0  0  0  0
 22 11  1  0  0  0  0
 23 25  1  0  0  0  0
 25 16  2  0  0  0  0
 26  2  1  0  0  0  0
 27 26  1  0  0  0  0
 28 29  1  0  0  0  0
 28 27  1  0  0  0  0
 29 30  1  0  0  0  0
 30 31  1  0  0  0  0
 31 32  1  0  0  0  0
 32 33  1  0  0  0  0
M  END
>  <MODEL>
1

>  <REMARK>
 VINA RESULT:      -8.7      0.000      0.000
  Name = 
  8 active torsions:
  status: ('A' for Active; 'I' for Inactive)
    1  A    between atoms: C_3  and  C_6
    2  A    between atoms: C_3  and  O_23
    3  A    between atoms: N_5  and  C_26
    4  A    between atoms: C_6  and  O_8
    5  A    between atoms: O_8  and  C_15
    6  A    between atoms: N_9  and  O_23
    7  A    between atoms: C_12  and  C_30
    8  A    between atoms: C_15  and  C_30
                            x       y       z     vdW  Elec       q    Type
                         _______ _______ _______ _____ _____    ______ ____

>  <TORSDO>
F 8

$$$$
=
 OpenBabel11042409523D

 33 36  0  0  1  0  0  0  0  0999 V2000
  190.1580  177.0790  140.7600 C   0  0  0  0  0  0  0  0  0  0  0  0
  191.6860  176.8130  139.2910 N   0  0  0  0  0  0  0  0  0  0  0  0
  190.3850  176.6720  139.5010 N   0  0  0  0  0  0  0  0  0  0  0  0
  190.0850  178.3760  143.2930 C   0  0  0  0  0  2  0  0  0  0  0  0
  188.8260  177.1680  141.4320 C   0  0  0  0  0  2  0  0  0  0  0  0
  192.3140  177.3130  140.3810 C   0  0  0  0  0  3  0  0  0  0  0  0
  191.3300  177.5130  141.3270 C   0  0  0  0  0  0  0  0  0  0  0  0
  189.0120  177.3260  142.9510 C   0  0  2  0  0  3  0  0  0  0  0  0
  191.4600  177.9690  142.7440 C   0  0  0  0  0  2  0  0  0  0  0  0
  182.9810  178.7350  142.7260 C   0  0  0  0  0  0  0  0  0  0  0  0
  185.2160  178.3530  144.8040 C   0  0  0  0  0  2  0  0  0  0  0  0
  182.3860  178.7320  140.2890 C   0  0  0  0  0  1  0  0  0  0  0  0
  187.7450  177.6700  143.5820 N   0  0  0  0  0  0  0  0  0  0  0  0
  180.6360  179.2470  141.9930 C   0  0  0  0  0  1  0  0  0  0  0  0
  188.8560  177.5860  146.1430 S   0  0  0  0  0  0  0  0  0  0  0  0
  187.8330  177.9190  147.4450 C   0  0  0  0  0  0  0  0  0  0  0  0
  188.2530  177.9180  148.8700 C   0  0  0  0  0  1  0  0  0  0  0  0
  186.5930  177.8880  142.7990 N   0  0  0  0  0  0  0  0  0  0  0  0
  184.3360  178.3950  142.3930 N   0  0  0  0  0  2  0  0  0  0  0  0
  187.6440  177.7930  144.9980 C   0  0  0  0  0  0  0  0  0  0  0  0
  182.0130  178.9020  141.6820 N   0  0  0  0  0  0  0  0  0  0  0  0
  185.4270  178.1990  143.3030 C   0  0  0  0  0  0  0  0  0  0  0  0
  186.4570  178.1160  145.6050 C   0  0  0  0  0  0  0  0  0  0  0  0
  182.6360  178.8900  143.9300 O   0  0  0  0  0  0  0  0  0  0  0  0
  186.5430  178.1930  146.9990 C   0  0  0  0  0  3  0  0  0  0  0  0
  192.2880  176.4730  138.0970 O   0  0  0  0  0  0  0  0  0  0  0  0
  192.5300  175.1170  137.7410 C   0  0  0  0  0  2  0  0  0  0  0  0
  191.4060  174.6100  136.8580 C   0  0  0  0  0  2  0  0  0  0  0  0
  190.5040  173.8670  137.6210 O   0  0  0  0  0  0  0  0  0  0  0  0
  189.4360  173.6180  136.7580 C   0  0  0  0  0  2  0  0  0  0  0  0
  188.8090  174.9280  136.3180 C   0  0  0  0  0  2  0  0  0  0  0  0
  187.6190  175.2620  137.1970 C   0  0  0  0  0  2  0  0  0  0  0  0
  187.3910  177.0590  137.2490 S   0  0  0  0  0  1  0  0  0  0  0  0
  1  7  1  0  0  0  0
  1  5  1  0  0  0  0
  2  3  1  0  0  0  0
  2  6  1  0  0  0  0
  3  1  2  0  0  0  0
  6  7  2  0  0  0  0
  7  9  1  0  0  0  0
  8  5  1  6  0  0  0
  8  4  1  0  0  0  0
  8 13  1  0  0  0  0
  9  4  1  0  0  0  0
 10 24  2  0  0  0  0
 11 23  1  0  0  0  0
 12 21  1  0  0  0  0
 13 20  1  0  0  0  0
 15 16  1  0  0  0  0
 16 17  1  0  0  0  0
 18 22  2  0  0  0  0
 18 13  1  0  0  0  0
 19 10  1  0  0  0  0
 19 22  1  0  0  0  0
 20 23  2  0  0  0  0
 20 15  1  0  0  0  0
 21 14  1  0  0  0  0
 21 10  1  0  0  0  0
 22 11  1  0  0  0  0
 23 25  1  0  0  0  0
 25 16  2  0  0  0  0
 26  2  1  0  0  0  0
 27 26  1  0  0  0  0
 28 29  1  0  0  0  0
 28 27  1  0  0  0  0
 30 29  1  0  0  0  0
 31 30  1  0  0  0  0
 31 32  1  0  0  0  0
 32 33  1  0  0  0  0
M  END
>  <MODEL>
2

>  <REMARK>
 VINA RESULT:      -8.7      2.228      3.131
  Name = 
  8 active torsions:
  status: ('A' for Active; 'I' for Inactive)
    1  A    between atoms: C_3  and  C_6
    2  A    between atoms: C_3  and  O_23
    3  A    between atoms: N_5  and  C_26
    4  A    between atoms: C_6  and  O_8
    5  A    between atoms: O_8  and  C_15
    6  A    between atoms: N_9  and  O_23
    7  A    between atoms: C_12  and  C_30
    8  A    between atoms: C_15  and  C_30
                            x       y       z     vdW  Elec       q    Type
                         _______ _______ _______ _____ _____    ______ ____

>  <TORSDO>
F 8

$$$$
=
 OpenBabel11042409523D

 33 36  0  0  1  0  0  0  0  0999 V2000
  188.8350  177.2760  143.1670 C   0  0  0  0  0  0  0  0  0  0  0  0
  187.9190  177.3220  145.0960 N   0  0  0  0  0  0  0  0  0  0  0  0
  187.7150  176.9620  143.8360 N   0  0  0  0  0  0  0  0  0  0  0  0
  191.4910  177.7410  142.2520 C   0  0  0  0  0  2  0  0  0  0  0  0
  189.1080  176.9990  141.7230 C   0  0  0  0  0  2  0  0  0  0  0  0
  189.1520  177.8540  145.2670 C   0  0  0  0  0  3  0  0  0  0  0  0
  189.7610  177.8040  144.0310 C   0  0  0  0  0  0  0  0  0  0  0  0
  190.3240  177.8150  141.2500 C   0  0  2  0  0  3  0  0  0  0  0  0
  191.0970  178.3300  143.6140 C   0  0  0  0  0  2  0  0  0  0  0  0
  194.3950  175.1070  137.4430 C   0  0  0  0  0  0  0  0  0  0  0  0
  191.6350  176.4580  137.3350 C   0  0  0  0  0  2  0  0  0  0  0  0
  196.3270  174.4410  138.8990 C   0  0  0  0  0  1  0  0  0  0  0  0
  190.7540  177.3640  139.9330 N   0  0  0  0  0  0  0  0  0  0  0  0
  196.3890  173.9490  136.4520 C   0  0  0  0  0  1  0  0  0  0  0  0
  188.4220  178.3010  138.7160 S   0  0  0  0  0  0  0  0  0  0  0  0
  188.2710  178.0750  137.0490 C   0  0  0  0  0  0  0  0  0  0  0  0
  187.1020  178.5080  136.2410 C   0  0  0  0  0  1  0  0  0  0  0  0
  191.9960  176.7200  139.7700 N   0  0  0  0  0  0  0  0  0  0  0  0
  193.7230  175.6510  138.5900 N   0  0  0  0  0  2  0  0  0  0  0  0
  189.9300  177.5660  138.7890 C   0  0  0  0  0  0  0  0  0  0  0  0
  195.6880  174.5060  137.5960 N   0  0  0  0  0  0  0  0  0  0  0  0
  192.4400  176.2910  138.6170 C   0  0  0  0  0  0  0  0  0  0  0  0
  190.3230  177.1460  137.5430 C   0  0  0  0  0  0  0  0  0  0  0  0
  193.8590  175.1550  136.3030 O   0  0  0  0  0  0  0  0  0  0  0  0
  189.3920  177.4270  136.5370 C   0  0  0  0  0  3  0  0  0  0  0  0
  186.9640  177.1630  146.0780 O   0  0  0  0  0  0  0  0  0  0  0  0
  186.5370  178.2510  146.8890 C   0  0  0  0  0  2  0  0  0  0  0  0
  185.6130  179.1520  146.0940 C   0  0  0  0  0  2  0  0  0  0  0  0
  184.2900  178.7390  146.2610 O   0  0  0  0  0  0  0  0  0  0  0  0
  183.6900  178.9790  145.0240 C   0  0  0  0  0  2  0  0  0  0  0  0
  184.7550  179.1850  143.9620 C   0  0  0  0  0  2  0  0  0  0  0  0
  184.3130  178.5680  142.6490 C   0  0  0  0  0  2  0  0  0  0  0  0
  185.5350  178.9430  141.3640 S   0  0  0  0  0  1  0  0  0  0  0  0
  1  3  2  0  0  0  0
  1  7  1  0  0  0  0
  2  6  1  0  0  0  0
  2 26  1  0  0  0  0
  3  2  1  0  0  0  0
  4  9  1  0  0  0  0
  5  1  1  0  0  0  0
  7  6  2  0  0  0  0
  8 13  1  6  0  0  0
  8  5  1  0  0  0  0
  8  4  1  0  0  0  0
  9  7  1  0  0  0  0
 10 21  1  0  0  0  0
 10 19  1  0  0  0  0
 11 23  1  0  0  0  0
 11 22  1  0  0  0  0
 14 21  1  0  0  0  0
 15 20  1  0  0  0  0
 16 15  1  0  0  0  0
 17 16  1  0  0  0  0
 18 13  1  0  0  0  0
 19 22  1  0  0  0  0
 20 13  1  0  0  0  0
 21 12  1  0  0  0  0
 22 18  2  0  0  0  0
 23 20  2  0  0  0  0
 24 10  2  0  0  0  0
 25 16  2  0  0  0  0
 25 23  1  0  0  0  0
 26 27  1  0  0  0  0
 28 29  1  0  0  0  0
 28 27  1  0  0  0  0
 30 29  1  0  0  0  0
 31 30  1  0  0  0  0
 32 31  1  0  0  0  0
 33 32  1  0  0  0  0
M  END
>  <MODEL>
3

>  <REMARK>
 VINA RESULT:      -8.2      2.853     10.318
  Name = 
  8 active torsions:
  status: ('A' for Active; 'I' for Inactive)
    1  A    between atoms: C_3  and  C_6
    2  A    between atoms: C_3  and  O_23
    3  A    between atoms: N_5  and  C_26
    4  A    between atoms: C_6  and  O_8
    5  A    between atoms: O_8  and  C_15
    6  A    between atoms: N_9  and  O_23
    7  A    between atoms: C_12  and  C_30
    8  A    between atoms: C_15  and  C_30
                            x       y       z     vdW  Elec       q    Type
                         _______ _______ _______ _____ _____    ______ ____

>  <TORSDO>
F 8

$$$$
=
 OpenBabel11042409523D

 33 36  0  0  1  0  0  0  0  0999 V2000
  189.0710  177.4750  143.5980 C   0  0  0  0  0  0  0  0  0  0  0  0
  188.8200  177.8130  145.6920 N   0  0  0  0  0  0  0  0  0  0  0  0
  188.1900  177.3840  144.6070 N   0  0  0  0  0  0  0  0  0  0  0  0
  191.3380  177.4700  141.8750 C   0  0  0  0  0  2  0  0  0  0  0  0
  188.8420  177.0430  142.1850 C   0  0  0  0  0  2  0  0  0  0  0  0
  190.0960  178.1720  145.4170 C   0  0  0  0  0  3  0  0  0  0  0  0
  190.2750  177.9320  144.0710 C   0  0  0  0  0  0  0  0  0  0  0  0
  189.9310  177.6310  141.2710 C   0  0  2  0  0  3  0  0  0  0  0  0
  191.4620  178.2210  143.2090 C   0  0  0  0  0  2  0  0  0  0  0  0
  192.3020  174.1230  136.7460 C   0  0  0  0  0  0  0  0  0  0  0  0
  189.7810  175.7800  137.3410 C   0  0  0  0  0  2  0  0  0  0  0  0
  194.5380  173.3630  137.5940 C   0  0  0  0  0  1  0  0  0  0  0  0
  189.8710  177.0150  139.9520 N   0  0  0  0  0  0  0  0  0  0  0  0
  193.7600  172.6480  135.3310 C   0  0  0  0  0  1  0  0  0  0  0  0
  187.3580  178.1120  139.4200 S   0  0  0  0  0  0  0  0  0  0  0  0
  186.6560  177.7560  137.9260 C   0  0  0  0  0  0  0  0  0  0  0  0
  185.3290  178.2520  137.4770 C   0  0  0  0  0  1  0  0  0  0  0  0
  190.9330  176.2140  139.4890 N   0  0  0  0  0  0  0  0  0  0  0  0
  192.0870  174.8440  137.9680 N   0  0  0  0  0  2  0  0  0  0  0  0
  188.7410  177.2100  139.1070 C   0  0  0  0  0  0  0  0  0  0  0  0
  193.5180  173.3860  136.5600 N   0  0  0  0  0  0  0  0  0  0  0  0
  190.9410  175.6340  138.3170 C   0  0  0  0  0  0  0  0  0  0  0  0
  188.6710  176.6360  137.8630 C   0  0  0  0  0  0  0  0  0  0  0  0
  191.4300  174.1320  135.8340 O   0  0  0  0  0  0  0  0  0  0  0  0
  187.4910  176.9340  137.1730 C   0  0  0  0  0  3  0  0  0  0  0  0
  188.2110  177.8770  146.9280 O   0  0  0  0  0  0  0  0  0  0  0  0
  186.8220  177.6220  147.0920 C   0  0  0  0  0  2  0  0  0  0  0  0
  186.0530  178.9290  147.0640 C   0  0  0  0  0  2  0  0  0  0  0  0
  184.7560  178.7050  146.6000 O   0  0  0  0  0  0  0  0  0  0  0  0
  184.8310  178.9340  145.2260 C   0  0  0  0  0  2  0  0  0  0  0  0
  183.4340  179.0010  144.6360 C   0  0  0  0  0  2  0  0  0  0  0  0
  183.4690  178.6410  143.1630 C   0  0  0  0  0  2  0  0  0  0  0  0
  185.1830  178.6640  142.5750 S   0  0  0  0  0  1  0  0  0  0  0  0
  1  7  1  0  0  0  0
  1  3  2  0  0  0  0
  2 26  1  0  0  0  0
  3  2  1  0  0  0  0
  4  9  1  0  0  0  0
  5  1  1  0  0  0  0
  6  2  1  0  0  0  0
  7  6  2  0  0  0  0
  8 13  1  6  0  0  0
  8  4  1  0  0  0  0
  8  5  1  0  0  0  0
  9  7  1  0  0  0  0
 10 19  1  0  0  0  0
 11 23  1  0  0  0  0
 11 22  1  0  0  0  0
 14 21  1  0  0  0  0
 16 15  1  0  0  0  0
 17 16  1  0  0  0  0
 18 13  1  0  0  0  0
 19 22  1  0  0  0  0
 20 15  1  0  0  0  0
 20 13  1  0  0  0  0
 21 10  1  0  0  0  0
 21 12  1  0  0  0  0
 22 18  2  0  0  0  0
 23 20  2  0  0  0  0
 24 10  2  0  0  0  0
 25 23  1  0  0  0  0
 25 16  2  0  0  0  0
 26 27  1  0  0  0  0
 28 27  1  0  0  0  0
 29 28  1  0  0  0  0
 30 29  1  0  0  0  0
 31 30  1  0  0  0  0
 32 31  1  0  0  0  0
 33 32  1  0  0  0  0
M  END
>  <MODEL>
4

>  <REMARK>
 VINA RESULT:      -7.9      3.141      9.936
  Name = 
  8 active torsions:
  status: ('A' for Active; 'I' for Inactive)
    1  A    between atoms: C_3  and  C_6
    2  A    between atoms: C_3  and  O_23
    3  A    between atoms: N_5  and  C_26
    4  A    between atoms: C_6  and  O_8
    5  A    between atoms: O_8  and  C_15
    6  A    between atoms: N_9  and  O_23
    7  A    between atoms: C_12  and  C_30
    8  A    between atoms: C_15  and  C_30
                            x       y       z     vdW  Elec       q    Type
                         _______ _______ _______ _____ _____    ______ ____

>  <TORSDO>
F 8

$$$$
=
 OpenBabel11042409523D

 33 36  0  0  1  0  0  0  0  0999 V2000
  182.8170  178.6280  142.2330 C   0  0  0  0  0  0  0  0  0  0  0  0
  180.7230  178.8570  141.8770 N   0  0  0  0  0  0  0  0  0  0  0  0
  181.8780  178.6120  141.2730 N   0  0  0  0  0  0  0  0  0  0  0  0
  184.3840  178.3730  144.5960 C   0  0  0  0  0  2  0  0  0  0  0  0
  184.2720  178.3370  142.0480 C   0  0  0  0  0  2  0  0  0  0  0  0
  180.8850  179.0220  143.2120 C   0  0  0  0  0  3  0  0  0  0  0  0
  182.2320  178.8500  143.4540 C   0  0  0  0  0  0  0  0  0  0  0  0
  185.0630  178.8020  143.2830 C   0  0  2  0  0  3  0  0  0  0  0  0
  182.9890  179.0000  144.7340 C   0  0  0  0  0  2  0  0  0  0  0  0
  190.1490  177.0790  140.1890 C   0  0  0  0  0  0  0  0  0  0  0  0
  189.1350  177.2950  143.0840 C   0  0  0  0  0  2  0  0  0  0  0  0
  189.5920  177.3930  137.7630 C   0  0  0  0  0  1  0  0  0  0  0  0
  186.4280  178.2960  143.2270 N   0  0  0  0  0  0  0  0  0  0  0  0
  191.8440  176.5360  138.4180 C   0  0  0  0  0  1  0  0  0  0  0  0
  186.5920  178.0810  146.0070 S   0  0  0  0  0  0  0  0  0  0  0  0
  188.0400  177.5060  146.6580 C   0  0  0  0  0  0  0  0  0  0  0  0
  188.3020  177.3280  148.1100 C   0  0  0  0  0  1  0  0  0  0  0  0
  187.0760  178.1220  141.9880 N   0  0  0  0  0  0  0  0  0  0  0  0
  188.8390  177.5440  140.5470 N   0  0  0  0  0  2  0  0  0  0  0  0
  187.1330  177.9670  144.4210 C   0  0  0  0  0  0  0  0  0  0  0  0
  190.5240  177.0040  138.8070 N   0  0  0  0  0  0  0  0  0  0  0  0
  188.2980  177.6730  141.8690 C   0  0  0  0  0  0  0  0  0  0  0  0
  188.4190  177.4900  144.3830 C   0  0  0  0  0  0  0  0  0  0  0  0
  190.9730  176.7340  141.0800 O   0  0  0  0  0  0  0  0  0  0  0  0
  188.9550  177.2200  145.6460 C   0  0  0  0  0  3  0  0  0  0  0  0
  179.5280  178.9340  141.1940 O   0  0  0  0  0  0  0  0  0  0  0  0
  179.3510  179.8170  140.0930 C   0  0  0  0  0  2  0  0  0  0  0  0
  179.2830  181.2490  140.5880 C   0  0  0  0  0  2  0  0  0  0  0  0
  179.5610  182.1260  139.5390 O   0  0  0  0  0  0  0  0  0  0  0  0
  180.6660  181.5650  138.8970 C   0  0  0  0  0  2  0  0  0  0  0  0
  181.2980  182.5850  137.9680 C   0  0  0  0  0  2  0  0  0  0  0  0
  180.4180  182.8040  136.7530 C   0  0  0  0  0  2  0  0  0  0  0  0
  180.8090  184.4090  136.0050 S   0  0  0  0  0  1  0  0  0  0  0  0
  1  7  1  0  0  0  0
  2  6  1  0  0  0  0
  3  2  1  0  0  0  0
  3  1  2  0  0  0  0
  4  9  1  0  0  0  0
  5  1  1  0  0  0  0
  6  7  2  0  0  0  0
  7  9  1  0  0  0  0
  8  5  1  6  0  0  0
  8  4  1  0  0  0  0
 10 19  1  0  0  0  0
 10 24  2  0  0  0  0
 11 23  1  0  0  0  0
 12 21  1  0  0  0  0
 13  8  1  0  0  0  0
 13 20  1  0  0  0  0
 14 21  1  0  0  0  0
 15 16  1  0  0  0  0
 16 17  1  0  0  0  0
 18 13  1  0  0  0  0
 19 22  1  0  0  0  0
 20 15  1  0  0  0  0
 21 10  1  0  0  0  0
 22 18  2  0  0  0  0
 22 11  1  0  0  0  0
 23 20  2  0  0  0  0
 23 25  1  0  0  0  0
 25 16  2  0  0  0  0
 26  2  1  0  0  0  0
 27 28  1  0  0  0  0
 27 26  1  0  0  0  0
 29 28  1  0  0  0  0
 30 29  1  0  0  0  0
 31 30  1  0  0  0  0
 32 31  1  0  0  0  0
 33 32  1  0  0  0  0
M  END
>  <MODEL>
5

>  <REMARK>
 VINA RESULT:      -7.8      3.510     10.089
  Name = 
  8 active torsions:
  status: ('A' for Active; 'I' for Inactive)
    1  A    between atoms: C_3  and  C_6
    2  A    between atoms: C_3  and  O_23
    3  A    between atoms: N_5  and  C_26
    4  A    between atoms: C_6  and  O_8
    5  A    between atoms: O_8  and  C_15
    6  A    between atoms: N_9  and  O_23
    7  A    between atoms: C_12  and  C_30
    8  A    between atoms: C_15  and  C_30
                            x       y       z     vdW  Elec       q    Type
                         _______ _______ _______ _____ _____    ______ ____

>  <TORSDO>
F 8

$$$$
=
 OpenBabel11042409523D

 33 36  0  0  1  0  0  0  0  0999 V2000
  185.7200  178.3080  138.5180 C   0  0  0  0  0  0  0  0  0  0  0  0
  186.5300  178.0840  136.5550 N   0  0  0  0  0  0  0  0  0  0  0  0
  186.7860  178.5910  137.7530 N   0  0  0  0  0  0  0  0  0  0  0  0
  183.4720  177.1740  139.8480 C   0  0  0  0  0  2  0  0  0  0  0  0
  185.5700  178.6200  139.9730 C   0  0  0  0  0  2  0  0  0  0  0  0
  185.3250  177.4660  136.5230 C   0  0  0  0  0  3  0  0  0  0  0  0
  184.8060  177.5840  137.7950 C   0  0  0  0  0  0  0  0  0  0  0  0
  184.0990  178.4700  140.3950 C   0  0  2  0  0  3  0  0  0  0  0  0
  183.4690  177.1600  138.3130 C   0  0  0  0  0  2  0  0  0  0  0  0
  186.4920  178.1080  146.1000 C   0  0  0  0  0  0  0  0  0  0  0  0
  183.7850  178.6050  144.7280 C   0  0  0  0  0  2  0  0  0  0  0  0
  188.9290  177.6060  145.7700 C   0  0  0  0  0  1  0  0  0  0  0  0
  183.9830  178.5170  141.8470 N   0  0  0  0  0  0  0  0  0  0  0  0
  188.0120  177.8410  148.0810 C   0  0  0  0  0  1  0  0  0  0  0  0
  181.2430  179.0440  141.7330 S   0  0  0  0  0  0  0  0  0  0  0  0
  180.4250  179.2280  143.2000 C   0  0  0  0  0  0  0  0  0  0  0  0
  178.9720  179.5110  143.3270 C   0  0  0  0  0  1  0  0  0  0  0  0
  185.1150  178.3120  142.6610 N   0  0  0  0  0  0  0  0  0  0  0  0
  186.3050  178.1160  144.6770 N   0  0  0  0  0  2  0  0  0  0  0  0
  182.7270  178.7700  142.4700 C   0  0  0  0  0  0  0  0  0  0  0  0
  187.7950  177.8560  146.6430 N   0  0  0  0  0  0  0  0  0  0  0  0
  185.0780  178.3420  143.9670 C   0  0  0  0  0  0  0  0  0  0  0  0
  182.6040  178.8180  143.8360 C   0  0  0  0  0  0  0  0  0  0  0  0
  185.5210  178.3200  146.8770 O   0  0  0  0  0  0  0  0  0  0  0  0
  181.3010  179.0770  144.2730 C   0  0  0  0  0  3  0  0  0  0  0  0
  187.4070  178.1990  135.4960 O   0  0  0  0  0  0  0  0  0  0  0  0
  188.1250  177.0780  134.9940 C   0  0  0  0  0  2  0  0  0  0  0  0
  189.5490  177.1070  135.5130 C   0  0  0  0  0  2  0  0  0  0  0  0
  189.6390  176.3600  136.6880 O   0  0  0  0  0  0  0  0  0  0  0  0
  190.1430  177.2540  137.6340 C   0  0  0  0  0  2  0  0  0  0  0  0
  190.2020  176.5880  138.9960 C   0  0  0  0  0  2  0  0  0  0  0  0
  189.4480  177.4150  140.0180 C   0  0  0  0  0  2  0  0  0  0  0  0
  190.0820  177.0520  141.6770 S   0  0  0  0  0  1  0  0  0  0  0  0
  1  5  1  0  0  0  0
  2  3  1  0  0  0  0
  3  1  2  0  0  0  0
  5  8  1  0  0  0  0
  6  2  1  0  0  0  0
  6  7  2  0  0  0  0
  7  9  1  0  0  0  0
  7  1  1  0  0  0  0
  8  4  1  1  0  0  0
  8 13  1  0  0  0  0
  9  4  1  0  0  0  0
 10 21  1  0  0  0  0
 10 24  2  0  0  0  0
 12 21  1  0  0  0  0
 13 20  1  0  0  0  0
 13 18  1  0  0  0  0
 15 20  1  0  0  0  0
 15 16  1  0  0  0  0
 16 17  1  0  0  0  0
 16 25  2  0  0  0  0
 18 22  2  0  0  0  0
 19 10  1  0  0  0  0
 20 23  2  0  0  0  0
 21 14  1  0  0  0  0
 22 19  1  0  0  0  0
 22 11  1  0  0  0  0
 23 25  1  0  0  0  0
 23 11  1  0  0  0  0
 26  2  1  0  0  0  0
 27 26  1  0  0  0  0
 27 28  1  0  0  0  0
 28 29  1  0  0  0  0
 29 30  1  0  0  0  0
 30 31  1  0  0  0  0
 31 32  1  0  0  0  0
 32 33  1  0  0  0  0
M  END
>  <MODEL>
6

>  <REMARK>
 VINA RESULT:      -7.8      3.410      6.361
  Name = 
  8 active torsions:
  status: ('A' for Active; 'I' for Inactive)
    1  A    between atoms: C_3  and  C_6
    2  A    between atoms: C_3  and  O_23
    3  A    between atoms: N_5  and  C_26
    4  A    between atoms: C_6  and  O_8
    5  A    between atoms: O_8  and  C_15
    6  A    between atoms: N_9  and  O_23
    7  A    between atoms: C_12  and  C_30
    8  A    between atoms: C_15  and  C_30
                            x       y       z     vdW  Elec       q    Type
                         _______ _______ _______ _____ _____    ______ ____

>  <TORSDO>
F 8

$$$$
=
 OpenBabel11042409523D

 33 36  0  0  1  0  0  0  0  0999 V2000
  190.0680  176.8560  139.8720 C   0  0  0  0  0  0  0  0  0  0  0  0
  191.4320  176.2470  138.3460 N   0  0  0  0  0  0  0  0  0  0  0  0
  191.0680  176.0050  139.5970 N   0  0  0  0  0  0  0  0  0  0  0  0
  187.7690  178.5360  139.8850 C   0  0  0  0  0  2  0  0  0  0  0  0
  189.2850  176.9170  141.1450 C   0  0  0  0  0  2  0  0  0  0  0  0
  190.6840  177.2310  137.7930 C   0  0  0  0  0  3  0  0  0  0  0  0
  189.7820  177.6130  138.7640 C   0  0  0  0  0  0  0  0  0  0  0  0
  188.4890  178.2320  141.2120 C   0  0  2  0  0  3  0  0  0  0  0  0
  188.7700  178.7130  138.7340 C   0  0  0  0  0  2  0  0  0  0  0  0
  182.7530  178.7090  143.5100 C   0  0  0  0  0  0  0  0  0  0  0  0
  185.6130  178.1100  144.4690 C   0  0  0  0  0  2  0  0  0  0  0  0
  181.2970  179.2940  141.5520 C   0  0  0  0  0  1  0  0  0  0  0  0
  187.5330  178.1880  142.3110 N   0  0  0  0  0  0  0  0  0  0  0  0
  180.2840  179.0400  143.8200 C   0  0  0  0  0  1  0  0  0  0  0  0
  189.5180  177.5660  144.1740 S   0  0  0  0  0  0  0  0  0  0  0  0
  189.0380  177.3620  145.7810 C   0  0  0  0  0  0  0  0  0  0  0  0
  189.9570  177.0290  146.9000 C   0  0  0  0  0  1  0  0  0  0  0  0
  186.1660  178.4380  142.0780 N   0  0  0  0  0  0  0  0  0  0  0  0
  183.9000  178.6860  142.6460 N   0  0  0  0  0  2  0  0  0  0  0  0
  187.9600  177.8950  143.6370 C   0  0  0  0  0  0  0  0  0  0  0  0
  181.4610  179.0100  142.9670 N   0  0  0  0  0  0  0  0  0  0  0  0
  185.2580  178.4140  143.0190 C   0  0  0  0  0  0  0  0  0  0  0  0
  187.0710  177.8510  144.6810 C   0  0  0  0  0  0  0  0  0  0  0  0
  182.8730  178.4680  144.7420 O   0  0  0  0  0  0  0  0  0  0  0  0
  187.6640  177.5490  145.9110 C   0  0  0  0  0  3  0  0  0  0  0  0
  192.4560  175.5640  137.7230 O   0  0  0  0  0  0  0  0  0  0  0  0
  192.4270  174.1510  137.5680 C   0  0  0  0  0  2  0  0  0  0  0  0
  191.2320  173.7510  136.7230 C   0  0  0  0  0  2  0  0  0  0  0  0
  190.1530  173.4370  137.5490 O   0  0  0  0  0  0  0  0  0  0  0  0
  189.0560  173.3830  136.6870 C   0  0  0  0  0  2  0  0  0  0  0  0
  188.4990  174.7780  136.4710 C   0  0  0  0  0  2  0  0  0  0  0  0
  187.1860  174.9390  137.2130 C   0  0  0  0  0  2  0  0  0  0  0  0
  186.4230  176.5190  136.7560 S   0  0  0  0  0  1  0  0  0  0  0  0
  1  5  1  0  0  0  0
  2  3  1  0  0  0  0
  3  1  2  0  0  0  0
  5  8  1  0  0  0  0
  6  2  1  0  0  0  0
  6  7  2  0  0  0  0
  7  1  1  0  0  0  0
  8  4  1  6  0  0  0
  8 13  1  0  0  0  0
  9  7  1  0  0  0  0
  9  4  1  0  0  0  0
 10 24  2  0  0  0  0
 11 23  1  0  0  0  0
 12 21  1  0  0  0  0
 13 20  1  0  0  0  0
 15 16  1  0  0  0  0
 16 25  2  0  0  0  0
 16 17  1  0  0  0  0
 18 13  1  0  0  0  0
 18 22  2  0  0  0  0
 19 22  1  0  0  0  0
 19 10  1  0  0  0  0
 20 15  1  0  0  0  0
 20 23  2  0  0  0  0
 21 10  1  0  0  0  0
 21 14  1  0  0  0  0
 22 11  1  0  0  0  0
 23 25  1  0  0  0  0
 26  2  1  0  0  0  0
 27 26  1  0  0  0  0
 28 29  1  0  0  0  0
 28 27  1  0  0  0  0
 30 29  1  0  0  0  0
 31 30  1  0  0  0  0
 31 32  1  0  0  0  0
 33 32  1  0  0  0  0
M  END
>  <MODEL>
7

>  <REMARK>
 VINA RESULT:      -7.7      2.670      3.773
  Name = 
  8 active torsions:
  status: ('A' for Active; 'I' for Inactive)
    1  A    between atoms: C_3  and  C_6
    2  A    between atoms: C_3  and  O_23
    3  A    between atoms: N_5  and  C_26
    4  A    between atoms: C_6  and  O_8
    5  A    between atoms: O_8  and  C_15
    6  A    between atoms: N_9  and  O_23
    7  A    between atoms: C_12  and  C_30
    8  A    between atoms: C_15  and  C_30
                            x       y       z     vdW  Elec       q    Type
                         _______ _______ _______ _____ _____    ______ ____

>  <TORSDO>
F 8

$$$$
=
 OpenBabel11042409523D

 33 36  0  0  1  0  0  0  0  0999 V2000
  184.5010  178.6140  143.1340 C   0  0  0  0  0  0  0  0  0  0  0  0
  182.4440  179.0570  143.4990 N   0  0  0  0  0  0  0  0  0  0  0  0
  183.3400  178.9190  142.5330 N   0  0  0  0  0  0  0  0  0  0  0  0
  186.6100  177.6260  144.7720 C   0  0  0  0  0  2  0  0  0  0  0  0
  185.7930  178.2990  142.4500 C   0  0  0  0  0  2  0  0  0  0  0  0
  182.9900  178.8380  144.7190 C   0  0  0  0  0  3  0  0  0  0  0  0
  184.3140  178.5260  144.4900 C   0  0  0  0  0  0  0  0  0  0  0  0
  186.9520  178.3580  143.4610 C   0  0  2  0  0  3  0  0  0  0  0  0
  185.4090  178.2730  145.4760 C   0  0  0  0  0  2  0  0  0  0  0  0
  190.3920  176.6370  138.6010 C   0  0  0  0  0  0  0  0  0  0  0  0
  190.5570  176.7170  141.6710 C   0  0  0  0  0  2  0  0  0  0  0  0
  188.9810  177.1180  136.5830 C   0  0  0  0  0  1  0  0  0  0  0  0
  188.1650  177.8060  142.8710 N   0  0  0  0  0  0  0  0  0  0  0  0
  191.2610  176.1400  136.2990 C   0  0  0  0  0  1  0  0  0  0  0  0
  189.3500  177.4190  145.3690 S   0  0  0  0  0  0  0  0  0  0  0  0
  190.9020  176.7520  145.3980 C   0  0  0  0  0  0  0  0  0  0  0  0
  191.6810  176.4790  146.6340 C   0  0  0  0  0  1  0  0  0  0  0  0
  188.2870  177.6840  141.4720 N   0  0  0  0  0  0  0  0  0  0  0  0
  189.3410  177.1280  139.4480 N   0  0  0  0  0  2  0  0  0  0  0  0
  189.2470  177.3810  143.6930 C   0  0  0  0  0  0  0  0  0  0  0  0
  190.2130  176.6330  137.1780 N   0  0  0  0  0  0  0  0  0  0  0  0
  189.3470  177.1980  140.8810 C   0  0  0  0  0  0  0  0  0  0  0  0
  190.3940  176.8600  143.1510 C   0  0  0  0  0  0  0  0  0  0  0  0
  191.4690  176.2100  139.0980 O   0  0  0  0  0  0  0  0  0  0  0  0
  191.3500  176.4950  144.1050 C   0  0  0  0  0  3  0  0  0  0  0  0
  181.1280  179.3900  143.2520 O   0  0  0  0  0  0  0  0  0  0  0  0
  180.5050  179.1010  142.0070 C   0  0  0  0  0  2  0  0  0  0  0  0
  179.7390  180.3170  141.5210 C   0  0  0  0  0  2  0  0  0  0  0  0
  180.3910  180.8780  140.4220 O   0  0  0  0  0  0  0  0  0  0  0  0
  180.9010  179.7850  139.7210 C   0  0  0  0  0  2  0  0  0  0  0  0
  181.9300  180.2530  138.7090 C   0  0  0  0  0  2  0  0  0  0  0  0
  183.3090  179.7530  139.0930 C   0  0  0  0  0  2  0  0  0  0  0  0
  183.3610  177.9470  138.9440 S   0  0  0  0  0  1  0  0  0  0  0  0
  1  7  1  0  0  0  0
  2  6  1  0  0  0  0
  3  1  2  0  0  0  0
  3  2  1  0  0  0  0
  4  9  1  0  0  0  0
  5  1  1  0  0  0  0
  7  6  2  0  0  0  0
  7  9  1  0  0  0  0
  8  5  1  6  0  0  0
  8  4  1  0  0  0  0
 10 24  2  0  0  0  0
 10 19  1  0  0  0  0
 11 23  1  0  0  0  0
 12 21  1  0  0  0  0
 13  8  1  0  0  0  0
 13 20  1  0  0  0  0
 14 21  1  0  0  0  0
 15 16  1  0  0  0  0
 16 17  1  0  0  0  0
 18 13  1  0  0  0  0
 19 22  1  0  0  0  0
 20 15  1  0  0  0  0
 21 10  1  0  0  0  0
 22 18  2  0  0  0  0
 22 11  1  0  0  0  0
 23 20  2  0  0  0  0
 23 25  1  0  0  0  0
 25 16  2  0  0  0  0
 26  2  1  0  0  0  0
 27 26  1  0  0  0  0
 28 27  1  0  0  0  0
 29 28  1  0  0  0  0
 30 29  1  0  0  0  0
 31 32  1  0  0  0  0
 31 30  1  0  0  0  0
 33 32  1  0  0  0  0
M  END
>  <MODEL>
8

>  <REMARK>
 VINA RESULT:      -7.7      2.942      9.342
  Name = 
  8 active torsions:
  status: ('A' for Active; 'I' for Inactive)
    1  A    between atoms: C_3  and  C_6
    2  A    between atoms: C_3  and  O_23
    3  A    between atoms: N_5  and  C_26
    4  A    between atoms: C_6  and  O_8
    5  A    between atoms: O_8  and  C_15
    6  A    between atoms: N_9  and  O_23
    7  A    between atoms: C_12  and  C_30
    8  A    between atoms: C_15  and  C_30
                            x       y       z     vdW  Elec       q    Type
                         _______ _______ _______ _____ _____    ______ ____

>  <TORSDO>
F 8

$$$$
=
 OpenBabel11042409523D

 33 36  0  0  1  0  0  0  0  0999 V2000
  189.6550  177.9030  142.9190 C   0  0  0  0  0  0  0  0  0  0  0  0
  191.0340  177.6180  144.5240 N   0  0  0  0  0  0  0  0  0  0  0  0
  189.8090  178.0400  144.2460 N   0  0  0  0  0  0  0  0  0  0  0  0
  189.6330  177.0910  140.1900 C   0  0  0  0  0  2  0  0  0  0  0  0
  188.4090  178.1880  142.1420 C   0  0  0  0  0  2  0  0  0  0  0  0
  191.6810  177.1970  143.4110 C   0  0  0  0  0  3  0  0  0  0  0  0
  190.7870  177.3540  142.3720 C   0  0  0  0  0  0  0  0  0  0  0  0
  188.7300  178.2550  140.6390 C   0  0  2  0  0  3  0  0  0  0  0  0
  190.9900  177.1270  140.9090 C   0  0  0  0  0  2  0  0  0  0  0  0
  182.5780  178.7880  140.1220 C   0  0  0  0  0  0  0  0  0  0  0  0
  185.0400  178.3150  138.3430 C   0  0  0  0  0  2  0  0  0  0  0  0
  181.7410  179.1490  142.4610 C   0  0  0  0  0  1  0  0  0  0  0  0
  187.4990  178.2730  139.8590 N   0  0  0  0  0  0  0  0  0  0  0  0
  180.1230  179.0770  140.5610 C   0  0  0  0  0  1  0  0  0  0  0  0
  188.8640  177.8280  137.4640 S   0  0  0  0  0  0  0  0  0  0  0  0
  187.9430  177.7340  136.0510 C   0  0  0  0  0  0  0  0  0  0  0  0
  188.5010  177.5030  134.6940 C   0  0  0  0  0  1  0  0  0  0  0  0
  186.2570  178.4760  140.4930 N   0  0  0  0  0  0  0  0  0  0  0  0
  183.9230  178.7190  140.6180 N   0  0  0  0  0  2  0  0  0  0  0  0
  187.5270  178.0860  138.4480 C   0  0  0  0  0  0  0  0  0  0  0  0
  181.4940  179.0030  141.0370 N   0  0  0  0  0  0  0  0  0  0  0  0
  185.1170  178.5040  139.8520 C   0  0  0  0  0  0  0  0  0  0  0  0
  186.3750  178.1020  137.7020 C   0  0  0  0  0  0  0  0  0  0  0  0
  182.3400  178.6620  138.8900 O   0  0  0  0  0  0  0  0  0  0  0  0
  186.5900  177.9020  136.3350 C   0  0  0  0  0  3  0  0  0  0  0  0
  191.5520  177.6290  145.8030 O   0  0  0  0  0  0  0  0  0  0  0  0
  191.1300  176.6960  146.7890 C   0  0  0  0  0  2  0  0  0  0  0  0
  190.0630  177.3230  147.6660 C   0  0  0  0  0  2  0  0  0  0  0  0
  188.8220  176.7530  147.3830 O   0  0  0  0  0  0  0  0  0  0  0  0
  187.9150  177.8060  147.5110 C   0  0  0  0  0  2  0  0  0  0  0  0
  186.9920  177.8440  146.3070 C   0  0  0  0  0  2  0  0  0  0  0  0
  185.7450  178.6450  146.6270 C   0  0  0  0  0  2  0  0  0  0  0  0
  184.8470  179.0030  145.0930 S   0  0  0  0  0  1  0  0  0  0  0  0
  1  3  2  0  0  0  0
  2 26  1  0  0  0  0
  3  2  1  0  0  0  0
  4  8  1  0  0  0  0
  4  9  1  0  0  0  0
  5  1  1  0  0  0  0
  6  2  1  0  0  0  0
  7  1  1  0  0  0  0
  7  6  2  0  0  0  0
  8 13  1  6  0  0  0
  8  5  1  0  0  0  0
  9  7  1  0  0  0  0
 10 19  1  0  0  0  0
 10 21  1  0  0  0  0
 11 22  1  0  0  0  0
 13 18  1  0  0  0  0
 14 21  1  0  0  0  0
 15 20  1  0  0  0  0
 16 25  2  0  0  0  0
 16 15  1  0  0  0  0
 17 16  1  0  0  0  0
 20 13  1  0  0  0  0
 21 12  1  0  0  0  0
 22 18  2  0  0  0  0
 22 19  1  0  0  0  0
 23 11  1  0  0  0  0
 23 20  2  0  0  0  0
 24 10  2  0  0  0  0
 25 23  1  0  0  0  0
 26 27  1  0  0  0  0
 27 28  1  0  0  0  0
 29 30  1  0  0  0  0
 29 28  1  0  0  0  0
 31 32  1  0  0  0  0
 31 30  1  0  0  0  0
 33 32  1  0  0  0  0
M  END
>  <MODEL>
9

>  <REMARK>
 VINA RESULT:      -7.7      3.964      7.692
  Name = 
  8 active torsions:
  status: ('A' for Active; 'I' for Inactive)
    1  A    between atoms: C_3  and  C_6
    2  A    between atoms: C_3  and  O_23
    3  A    between atoms: N_5  and  C_26
    4  A    between atoms: C_6  and  O_8
    5  A    between atoms: O_8  and  C_15
    6  A    between atoms: N_9  and  O_23
    7  A    between atoms: C_12  and  C_30
    8  A    between atoms: C_15  and  C_30
                            x       y       z     vdW  Elec       q    Type
                         _______ _______ _______ _____ _____    ______ ____

>  <TORSDO>
F 8

$$$$
