=
 OpenBabel11032419503D

 27 29  0  0  1  0  0  0  0  0999 V2000
  187.7400  178.0630  142.2050 C   0  0  1  0  0  3  0  0  0  0  0  0
  184.4370  178.5140  143.9990 C   0  0  0  0  0  3  0  0  0  0  0  0
  185.4090  178.4590  141.4180 N   0  0  0  0  0  0  0  0  0  0  0  0
  185.7970  178.3000  143.7690 C   0  0  0  0  0  3  0  0  0  0  0  0
  183.5630  178.7010  142.9210 C   0  0  0  0  0  0  0  0  0  0  0  0
  186.2710  178.2680  142.4560 C   0  0  0  0  0  0  0  0  0  0  0  0
  184.0820  178.6700  141.6220 C   0  0  0  0  0  3  0  0  0  0  0  0
  181.3230  179.3960  142.1130 O   0  0  0  0  0  0  0  0  0  0  0  0
  182.1270  178.9270  143.1450 C   0  0  0  0  0  0  0  0  0  0  0  0
  181.6120  178.6990  144.2730 O   0  0  0  0  0  1  0  0  0  0  0  0
  189.6800  177.9630  143.8430 C   0  0  0  0  0  0  0  0  0  0  0  0
  188.4280  177.4740  143.3530 N   0  0  0  0  0  2  0  0  0  0  0  0
  190.2580  178.9190  143.2560 O   0  0  0  0  0  0  0  0  0  0  0  0
  190.2770  176.8690  147.4060 C   0  0  0  0  0  3  0  0  0  0  0  0
  192.0700  175.6080  148.3350 F   0  0  0  0  0  0  0  0  0  0  0  0
  189.6840  177.4520  146.2860 C   0  0  0  0  0  3  0  0  0  0  0  0
  191.4830  176.1810  147.2580 C   0  0  0  0  0  0  0  0  0  0  0  0
  192.0680  176.0870  146.0340 N   0  0  0  0  0  0  0  0  0  0  0  0
  191.5060  176.6500  144.9310 C   0  0  0  0  0  3  0  0  0  0  0  0
  190.2950  177.3480  145.0320 C   0  0  0  0  0  0  0  0  0  0  0  0
  188.0000  177.3580  141.0060 O   0  0  0  0  0  0  0  0  0  0  0  0
  190.1730  177.4370  140.0380 C   0  0  0  0  0  2  0  0  0  0  0  0
  188.8390  178.1300  140.1830 C   0  0  1  0  0  3  0  0  0  0  0  0
  188.2630  178.1850  138.7830 C   0  0  0  0  0  2  0  0  0  0  0  0
  189.1610  177.8430  136.6540 C   0  0  0  0  0  1  0  0  0  0  0  0
  190.3210  177.1530  138.5610 C   0  0  0  0  0  2  0  0  0  0  0  0
  188.9980  177.2360  137.9620 N   0  0  0  0  0  0  0  0  0  0  0  0
  1 21  1  6  0  0  0
  1  6  1  0  0  0  0
  1 12  1  0  0  0  0
  3  7  2  0  0  0  0
  3  6  1  0  0  0  0
  4  2  1  0  0  0  0
  5  9  1  0  0  0  0
  5  2  2  0  0  0  0
  6  4  2  0  0  0  0
  7  5  1  0  0  0  0
  8  9  2  0  0  0  0
  9 10  1  0  0  0  0
 11 20  1  0  0  0  0
 12 11  1  0  0  0  0
 13 11  2  0  0  0  0
 16 14  2  0  0  0  0
 17 14  1  0  0  0  0
 17 15  1  0  0  0  0
 18 17  2  0  0  0  0
 19 20  2  0  0  0  0
 19 18  1  0  0  0  0
 20 16  1  0  0  0  0
 22 23  1  0  0  0  0
 23 21  1  1  0  0  0
 24 23  1  0  0  0  0
 25 27  1  0  0  0  0
 26 22  1  0  0  0  0
 27 26  1  0  0  0  0
 27 24  1  0  0  0  0
M  END
>  <MODEL>
1

>  <REMARK>
 VINA RESULT:      -7.9      0.000      0.000
  Name = 
  6 active torsions:
  status: ('A' for Active; 'I' for Inactive)
    1  A    between atoms: C_6  and  C_21
    2  A    between atoms: C_8  and  O_10
    3  A    between atoms: C_8  and  N_15
    4  A    between atoms: C_8  and  C_18
    5  A    between atoms: O_10  and  C_23
    6  A    between atoms: C_11  and  C_17
                            x       y       z     vdW  Elec       q    Type
                         _______ _______ _______ _____ _____    ______ ____

>  <TORSDO>
F 6

$$$$
=
 OpenBabel11032419503D

 27 29  0  0  1  0  0  0  0  0999 V2000
  187.4140  177.9550  143.2470 C   0  0  1  0  0  3  0  0  0  0  0  0
  188.8140  178.1190  139.7330 C   0  0  0  0  0  3  0  0  0  0  0  0
  189.3530  176.8600  142.1280 N   0  0  0  0  0  0  0  0  0  0  0  0
  187.9960  178.3450  140.8410 C   0  0  0  0  0  3  0  0  0  0  0  0
  189.9090  177.2520  139.8340 C   0  0  0  0  0  0  0  0  0  0  0  0
  188.2780  177.6940  142.0440 C   0  0  0  0  0  0  0  0  0  0  0  0
  190.1620  176.6280  141.0610 C   0  0  0  0  0  3  0  0  0  0  0  0
  190.3470  177.3080  137.3930 O   0  0  0  0  0  0  0  0  0  0  0  0
  190.7820  177.0020  138.6760 C   0  0  0  0  0  0  0  0  0  0  0  0
  191.9310  176.5080  138.8380 O   0  0  0  0  0  1  0  0  0  0  0  0
  185.0280  178.7390  143.6340 C   0  0  0  0  0  0  0  0  0  0  0  0
  185.9880  177.9490  142.9240 N   0  0  0  0  0  2  0  0  0  0  0  0
  185.3930  179.4510  144.6090 O   0  0  0  0  0  0  0  0  0  0  0  0
  181.2570  178.7960  143.7830 C   0  0  0  0  0  3  0  0  0  0  0  0
  179.6580  178.6440  142.0260 F   0  0  0  0  0  0  0  0  0  0  0  0
  182.5940  178.8210  144.1800 C   0  0  0  0  0  3  0  0  0  0  0  0
  180.9500  178.6680  142.4270 C   0  0  0  0  0  0  0  0  0  0  0  0
  181.9490  178.5680  141.5090 N   0  0  0  0  0  0  0  0  0  0  0  0
  183.2580  178.5890  141.8770 C   0  0  0  0  0  3  0  0  0  0  0  0
  183.6130  178.7170  143.2260 C   0  0  0  0  0  0  0  0  0  0  0  0
  187.7190  177.1070  144.3380 O   0  0  0  0  0  0  0  0  0  0  0  0
  187.5840  177.5670  146.6680 C   0  0  0  0  0  2  0  0  0  0  0  0
  188.2970  177.8650  145.3710 C   0  0  1  0  0  3  0  0  0  0  0  0
  189.7270  177.4160  145.5890 C   0  0  0  0  0  2  0  0  0  0  0  0
  190.9680  176.8440  147.4840 C   0  0  0  0  0  1  0  0  0  0  0  0
  188.6390  176.9910  147.5850 C   0  0  0  0  0  2  0  0  0  0  0  0
  189.7480  176.5480  146.7550 N   0  0  0  0  0  0  0  0  0  0  0  0
  1 12  1  6  0  0  0
  1 21  1  0  0  0  0
  2  5  2  0  0  0  0
  2  4  1  0  0  0  0
  4  6  2  0  0  0  0
  5  7  1  0  0  0  0
  6  3  1  0  0  0  0
  6  1  1  0  0  0  0
  7  3  2  0  0  0  0
  8  9  2  0  0  0  0
  9 10  1  0  0  0  0
  9  5  1  0  0  0  0
 11 13  2  0  0  0  0
 12 11  1  0  0  0  0
 14 16  1  0  0  0  0
 15 17  1  0  0  0  0
 17 14  2  0  0  0  0
 18 19  2  0  0  0  0
 18 17  1  0  0  0  0
 19 20  1  0  0  0  0
 20 11  1  0  0  0  0
 20 16  2  0  0  0  0
 22 26  1  0  0  0  0
 23 21  1  6  0  0  0
 23 24  1  0  0  0  0
 23 22  1  0  0  0  0
 24 27  1  0  0  0  0
 27 25  1  0  0  0  0
 27 26  1  0  0  0  0
M  END
>  <MODEL>
2

>  <REMARK>
 VINA RESULT:      -7.6      3.428      8.053
  Name = 
  6 active torsions:
  status: ('A' for Active; 'I' for Inactive)
    1  A    between atoms: C_6  and  C_21
    2  A    between atoms: C_8  and  O_10
    3  A    between atoms: C_8  and  N_15
    4  A    between atoms: C_8  and  C_18
    5  A    between atoms: O_10  and  C_23
    6  A    between atoms: C_11  and  C_17
                            x       y       z     vdW  Elec       q    Type
                         _______ _______ _______ _____ _____    ______ ____

>  <TORSDO>
F 6

$$$$
=
 OpenBabel11032419503D

 27 29  0  0  1  0  0  0  0  0999 V2000
  188.4050  177.7260  142.5370 C   0  0  1  0  0  3  0  0  0  0  0  0
  189.5300  177.1720  146.1080 C   0  0  0  0  0  3  0  0  0  0  0  0
  190.5770  177.0570  143.5590 N   0  0  0  0  0  0  0  0  0  0  0  0
  188.7270  177.4770  145.0090 C   0  0  0  0  0  3  0  0  0  0  0  0
  190.8690  176.8070  145.9210 C   0  0  0  0  0  0  0  0  0  0  0  0
  189.2750  177.4220  143.7260 C   0  0  0  0  0  0  0  0  0  0  0  0
  191.3750  176.7540  144.6160 C   0  0  0  0  0  3  0  0  0  0  0  0
  192.5210  175.3380  147.0470 O   0  0  0  0  0  0  0  0  0  0  0  0
  191.7310  176.4810  147.0680 C   0  0  0  0  0  0  0  0  0  0  0  0
  191.7600  177.2340  148.0780 O   0  0  0  0  0  1  0  0  0  0  0  0
  188.9260  177.8340  140.0520 C   0  0  0  0  0  0  0  0  0  0  0  0
  188.9180  177.1360  141.3020 N   0  0  0  0  0  2  0  0  0  0  0  0
  188.4400  178.9960  139.9750 O   0  0  0  0  0  0  0  0  0  0  0  0
  191.1020  175.6950  137.8300 C   0  0  0  0  0  3  0  0  0  0  0  0
  191.0730  175.4310  135.4640 F   0  0  0  0  0  0  0  0  0  0  0  0
  190.5650  176.2930  138.9700 C   0  0  0  0  0  3  0  0  0  0  0  0
  190.5640  176.0050  136.5790 C   0  0  0  0  0  0  0  0  0  0  0  0
  189.5290  176.8820  136.4810 N   0  0  0  0  0  0  0  0  0  0  0  0
  188.9930  177.4760  137.5810 C   0  0  0  0  0  3  0  0  0  0  0  0
  189.5000  177.1940  138.8560 C   0  0  0  0  0  0  0  0  0  0  0  0
  187.0440  177.4080  142.7550 O   0  0  0  0  0  0  0  0  0  0  0  0
  185.3290  178.5210  141.5380 C   0  0  0  0  0  2  0  0  0  0  0  0
  186.2760  178.5850  142.7120 C   0  0  1  0  0  3  0  0  0  0  0  0
  185.3890  178.6570  143.9380 C   0  0  0  0  0  2  0  0  0  0  0  0
  183.1170  179.0910  144.2630 C   0  0  0  0  0  1  0  0  0  0  0  0
  183.9420  178.5910  142.1360 C   0  0  0  0  0  2  0  0  0  0  0  0
  184.0520  178.2460  143.5430 N   0  0  0  0  0  0  0  0  0  0  0  0
  1 12  1  6  0  0  0
  1 21  1  0  0  0  0
  1  6  1  0  0  0  0
  3  6  2  0  0  0  0
  3  7  1  0  0  0  0
  4  2  2  0  0  0  0
  5  2  1  0  0  0  0
  5  9  1  0  0  0  0
  6  4  1  0  0  0  0
  7  5  2  0  0  0  0
  8  9  2  0  0  0  0
  9 10  1  0  0  0  0
 11 12  1  0  0  0  0
 13 11  2  0  0  0  0
 14 16  1  0  0  0  0
 15 17  1  0  0  0  0
 17 14  2  0  0  0  0
 18 17  1  0  0  0  0
 18 19  2  0  0  0  0
 19 20  1  0  0  0  0
 20 16  2  0  0  0  0
 20 11  1  0  0  0  0
 22 26  1  0  0  0  0
 22 23  1  0  0  0  0
 23 21  1  1  0  0  0
 23 24  1  0  0  0  0
 26 27  1  0  0  0  0
 27 24  1  0  0  0  0
 27 25  1  0  0  0  0
M  END
>  <MODEL>
3

>  <REMARK>
 VINA RESULT:      -7.6      3.293      7.624
  Name = 
  6 active torsions:
  status: ('A' for Active; 'I' for Inactive)
    1  A    between atoms: C_6  and  C_21
    2  A    between atoms: C_8  and  O_10
    3  A    between atoms: C_8  and  N_15
    4  A    between atoms: C_8  and  C_18
    5  A    between atoms: O_10  and  C_23
    6  A    between atoms: C_11  and  C_17
                            x       y       z     vdW  Elec       q    Type
                         _______ _______ _______ _____ _____    ______ ____

>  <TORSDO>
F 6

$$$$
=
 OpenBabel11032419503D

 27 29  0  0  1  0  0  0  0  0999 V2000
  190.0280  177.4260  141.5750 C   0  0  1  0  0  3  0  0  0  0  0  0
  189.0730  178.0440  137.9650 C   0  0  0  0  0  3  0  0  0  0  0  0
  190.4940  176.2060  139.4530 N   0  0  0  0  0  0  0  0  0  0  0  0
  189.1770  178.1960  139.3480 C   0  0  0  0  0  3  0  0  0  0  0  0
  189.6890  176.9590  137.3280 C   0  0  0  0  0  0  0  0  0  0  0  0
  189.8930  177.2520  140.0870 C   0  0  0  0  0  0  0  0  0  0  0  0
  190.4060  176.0420  138.1070 C   0  0  0  0  0  3  0  0  0  0  0  0
  189.7680  175.5270  135.3050 O   0  0  0  0  0  1  0  0  0  0  0  0
  189.5910  176.7830  135.8710 C   0  0  0  0  0  0  0  0  0  0  0  0
  189.3460  177.7680  135.1240 O   0  0  0  0  0  0  0  0  0  0  0  0
  187.9180  177.0830  142.9490 C   0  0  0  0  0  0  0  0  0  0  0  0
  188.7990  177.9210  142.1950 N   0  0  0  0  0  2  0  0  0  0  0  0
  188.1660  175.8510  143.0680 O   0  0  0  0  0  0  0  0  0  0  0  0
  185.5190  178.3770  145.5610 C   0  0  0  0  0  3  0  0  0  0  0  0
  183.3280  179.2720  145.3090 F   0  0  0  0  0  0  0  0  0  0  0  0
  186.6610  177.8330  144.9700 C   0  0  0  0  0  3  0  0  0  0  0  0
  184.4420  178.7420  144.7520 C   0  0  0  0  0  0  0  0  0  0  0  0
  184.5100  178.5660  143.4050 N   0  0  0  0  0  0  0  0  0  0  0  0
  185.6130  178.0370  142.8110 C   0  0  0  0  0  3  0  0  0  0  0  0
  186.7190  177.6580  143.5830 C   0  0  0  0  0  0  0  0  0  0  0  0
  190.5250  176.2700  142.2220 O   0  0  0  0  0  0  0  0  0  0  0  0
  191.5060  178.0520  143.4560 C   0  0  0  0  0  2  0  0  0  0  0  0
  191.6380  176.6170  143.0080 C   0  0  1  0  0  3  0  0  0  0  0  0
  191.6320  175.7980  144.2820 C   0  0  0  0  0  2  0  0  0  0  0  0
  191.8850  176.3290  146.5430 C   0  0  0  0  0  1  0  0  0  0  0  0
  191.4620  178.0010  144.9660 C   0  0  0  0  0  2  0  0  0  0  0  0
  191.1190  176.6410  145.3500 N   0  0  0  0  0  0  0  0  0  0  0  0
  1 12  1  1  0  0  0
  1 21  1  0  0  0  0
  2  4  1  0  0  0  0
  3  6  1  0  0  0  0
  4  6  2  0  0  0  0
  5  2  2  0  0  0  0
  5  7  1  0  0  0  0
  6  1  1  0  0  0  0
  7  3  2  0  0  0  0
  8  9  1  0  0  0  0
  9  5  1  0  0  0  0
 10  9  2  0  0  0  0
 11 13  2  0  0  0  0
 11 20  1  0  0  0  0
 12 11  1  0  0  0  0
 16 14  1  0  0  0  0
 17 15  1  0  0  0  0
 17 14  2  0  0  0  0
 18 17  1  0  0  0  0
 19 18  2  0  0  0  0
 19 20  1  0  0  0  0
 20 16  2  0  0  0  0
 22 26  1  0  0  0  0
 23 21  1  6  0  0  0
 23 22  1  0  0  0  0
 23 24  1  0  0  0  0
 24 27  1  0  0  0  0
 26 27  1  0  0  0  0
 27 25  1  0  0  0  0
M  END
>  <MODEL>
4

>  <REMARK>
 VINA RESULT:      -7.6      3.227      6.983
  Name = 
  6 active torsions:
  status: ('A' for Active; 'I' for Inactive)
    1  A    between atoms: C_6  and  C_21
    2  A    between atoms: C_8  and  O_10
    3  A    between atoms: C_8  and  N_15
    4  A    between atoms: C_8  and  C_18
    5  A    between atoms: O_10  and  C_23
    6  A    between atoms: C_11  and  C_17
                            x       y       z     vdW  Elec       q    Type
                         _______ _______ _______ _____ _____    ______ ____

>  <TORSDO>
F 6

$$$$
=
 OpenBabel11032419503D

 27 29  0  0  1  0  0  0  0  0999 V2000
  188.4500  176.8330  142.8960 C   0  0  1  0  0  3  0  0  0  0  0  0
  189.6390  177.1020  146.4800 C   0  0  0  0  0  3  0  0  0  0  0  0
  190.6500  176.4410  144.0000 N   0  0  0  0  0  0  0  0  0  0  0  0
  188.8140  177.1440  145.3560 C   0  0  0  0  0  3  0  0  0  0  0  0
  190.9820  176.7260  146.3530 C   0  0  0  0  0  0  0  0  0  0  0  0
  189.3430  176.8140  144.1070 C   0  0  0  0  0  0  0  0  0  0  0  0
  191.4690  176.3940  145.0830 C   0  0  0  0  0  3  0  0  0  0  0  0
  192.8500  175.6980  147.6220 O   0  0  0  0  0  0  0  0  0  0  0  0
  191.8670  176.6760  147.5270 C   0  0  0  0  0  0  0  0  0  0  0  0
  191.7420  177.5180  148.4570 O   0  0  0  0  0  1  0  0  0  0  0  0
  186.3740  178.2900  142.7340 C   0  0  0  0  0  0  0  0  0  0  0  0
  187.0590  177.1360  143.2310 N   0  0  0  0  0  2  0  0  0  0  0  0
  186.9830  179.1200  142.0040 O   0  0  0  0  0  0  0  0  0  0  0  0
  183.2380  179.0150  144.7050 C   0  0  0  0  0  3  0  0  0  0  0  0
  180.9710  179.1100  143.9840 F   0  0  0  0  0  0  0  0  0  0  0  0
  184.5820  178.8120  144.3900 C   0  0  0  0  0  3  0  0  0  0  0  0
  182.2790  178.9140  143.6960 C   0  0  0  0  0  0  0  0  0  0  0  0
  182.6570  178.6190  142.4230 N   0  0  0  0  0  0  0  0  0  0  0  0
  183.9620  178.4160  142.0970 C   0  0  0  0  0  3  0  0  0  0  0  0
  184.9590  178.5090  143.0770 C   0  0  0  0  0  0  0  0  0  0  0  0
  188.9430  177.6630  141.8620 O   0  0  0  0  0  0  0  0  0  0  0  0
  188.6810  177.7520  139.4990 C   0  0  0  0  0  2  0  0  0  0  0  0
  189.0830  176.9070  140.6840 C   0  0  1  0  0  3  0  0  0  0  0  0
  190.5450  176.5780  140.4640 C   0  0  0  0  0  2  0  0  0  0  0  0
  191.9770  176.7420  138.6250 C   0  0  0  0  0  1  0  0  0  0  0  0
  189.9180  177.8450  138.6340 C   0  0  0  0  0  2  0  0  0  0  0  0
  191.0610  177.4960  139.4610 N   0  0  0  0  0  0  0  0  0  0  0  0
  1 21  1  6  0  0  0
  1 12  1  0  0  0  0
  1  6  1  0  0  0  0
  3  6  2  0  0  0  0
  3  7  1  0  0  0  0
  4  2  2  0  0  0  0
  5  2  1  0  0  0  0
  5  9  1  0  0  0  0
  6  4  1  0  0  0  0
  7  5  2  0  0  0  0
  9  8  2  0  0  0  0
  9 10  1  0  0  0  0
 11 20  1  0  0  0  0
 11 12  1  0  0  0  0
 13 11  2  0  0  0  0
 16 14  1  0  0  0  0
 17 15  1  0  0  0  0
 17 14  2  0  0  0  0
 18 17  1  0  0  0  0
 19 18  2  0  0  0  0
 19 20  1  0  0  0  0
 20 16  2  0  0  0  0
 22 23  1  0  0  0  0
 23 21  1  1  0  0  0
 24 23  1  0  0  0  0
 25 27  1  0  0  0  0
 26 27  1  0  0  0  0
 26 22  1  0  0  0  0
 27 24  1  0  0  0  0
M  END
>  <MODEL>
5

>  <REMARK>
 VINA RESULT:      -7.3      3.169      6.908
  Name = 
  6 active torsions:
  status: ('A' for Active; 'I' for Inactive)
    1  A    between atoms: C_6  and  C_21
    2  A    between atoms: C_8  and  O_10
    3  A    between atoms: C_8  and  N_15
    4  A    between atoms: C_8  and  C_18
    5  A    between atoms: O_10  and  C_23
    6  A    between atoms: C_11  and  C_17
                            x       y       z     vdW  Elec       q    Type
                         _______ _______ _______ _____ _____    ______ ____

>  <TORSDO>
F 6

$$$$
=
 OpenBabel11032419503D

 27 29  0  0  1  0  0  0  0  0999 V2000
  187.9270  177.7030  141.4970 C   0  0  1  0  0  3  0  0  0  0  0  0
  190.7220  177.0840  139.0210 C   0  0  0  0  0  3  0  0  0  0  0  0
  190.4080  177.6020  141.7120 N   0  0  0  0  0  0  0  0  0  0  0  0
  189.4440  177.2470  139.5560 C   0  0  0  0  0  3  0  0  0  0  0  0
  191.8480  177.1810  139.8470 C   0  0  0  0  0  0  0  0  0  0  0  0
  189.3020  177.5010  140.9210 C   0  0  0  0  0  0  0  0  0  0  0  0
  191.6610  177.4470  141.2090 C   0  0  0  0  0  3  0  0  0  0  0  0
  194.3120  177.1270  140.1300 O   0  0  0  0  0  1  0  0  0  0  0  0
  193.2030  177.0120  139.3000 C   0  0  0  0  0  0  0  0  0  0  0  0
  193.3710  176.7610  138.0770 O   0  0  0  0  0  0  0  0  0  0  0  0
  187.9760  176.9690  143.9300 C   0  0  0  0  0  0  0  0  0  0  0  0
  187.9570  177.9940  142.9300 N   0  0  0  0  0  2  0  0  0  0  0  0
  187.9270  175.7550  143.5910 O   0  0  0  0  0  0  0  0  0  0  0  0
  187.0300  178.2430  147.3550 C   0  0  0  0  0  3  0  0  0  0  0  0
  188.3170  178.3430  149.3550 F   0  0  0  0  0  0  0  0  0  0  0  0
  186.9470  177.8990  146.0050 C   0  0  0  0  0  3  0  0  0  0  0  0
  188.2220  178.0160  148.0450 C   0  0  0  0  0  0  0  0  0  0  0  0
  189.2870  177.4670  147.4020 N   0  0  0  0  0  0  0  0  0  0  0  0
  189.2270  177.1260  146.0870 C   0  0  0  0  0  3  0  0  0  0  0  0
  188.0500  177.3340  145.3550 C   0  0  0  0  0  0  0  0  0  0  0  0
  187.1630  178.6500  140.7770 O   0  0  0  0  0  0  0  0  0  0  0  0
  184.9430  178.5660  141.6310 C   0  0  0  0  0  2  0  0  0  0  0  0
  185.8810  178.1270  140.5320 C   0  0  1  0  0  3  0  0  0  0  0  0
  185.3200  178.7330  139.2620 C   0  0  0  0  0  2  0  0  0  0  0  0
  183.2740  179.7170  138.7100 C   0  0  0  0  0  1  0  0  0  0  0  0
  183.8690  179.3780  140.9430 C   0  0  0  0  0  2  0  0  0  0  0  0
  184.3840  179.7780  139.6440 N   0  0  0  0  0  0  0  0  0  0  0  0
  1 21  1  6  0  0  0
  1 12  1  0  0  0  0
  2  4  2  0  0  0  0
  2  5  1  0  0  0  0
  4  6  1  0  0  0  0
  5  7  2  0  0  0  0
  6  1  1  0  0  0  0
  6  3  2  0  0  0  0
  7  3  1  0  0  0  0
  9  5  1  0  0  0  0
  9  8  1  0  0  0  0
 10  9  2  0  0  0  0
 11 20  1  0  0  0  0
 12 11  1  0  0  0  0
 13 11  2  0  0  0  0
 14 17  1  0  0  0  0
 16 14  2  0  0  0  0
 17 15  1  0  0  0  0
 18 17  2  0  0  0  0
 19 18  1  0  0  0  0
 20 16  1  0  0  0  0
 20 19  2  0  0  0  0
 23 21  1  1  0  0  0
 23 22  1  0  0  0  0
 24 27  1  0  0  0  0
 24 23  1  0  0  0  0
 25 27  1  0  0  0  0
 26 22  1  0  0  0  0
 27 26  1  0  0  0  0
M  END
>  <MODEL>
6

>  <REMARK>
 VINA RESULT:      -7.2      2.845      6.247
  Name = 
  6 active torsions:
  status: ('A' for Active; 'I' for Inactive)
    1  A    between atoms: C_6  and  C_21
    2  A    between atoms: C_8  and  O_10
    3  A    between atoms: C_8  and  N_15
    4  A    between atoms: C_8  and  C_18
    5  A    between atoms: O_10  and  C_23
    6  A    between atoms: C_11  and  C_17
                            x       y       z     vdW  Elec       q    Type
                         _______ _______ _______ _____ _____    ______ ____

>  <TORSDO>
F 6

$$$$
=
 OpenBabel11032419503D

 27 29  0  0  1  0  0  0  0  0999 V2000
  186.5210  177.7990  143.6710 C   0  0  1  0  0  3  0  0  0  0  0  0
  183.0940  179.0070  144.7310 C   0  0  0  0  0  3  0  0  0  0  0  0
  184.3890  178.1800  142.4400 N   0  0  0  0  0  0  0  0  0  0  0  0
  184.4330  178.6180  144.7870 C   0  0  0  0  0  3  0  0  0  0  0  0
  182.4040  178.9780  143.5130 C   0  0  0  0  0  0  0  0  0  0  0  0
  185.0710  178.1940  143.6200 C   0  0  0  0  0  0  0  0  0  0  0  0
  183.0850  178.5560  142.3650 C   0  0  0  0  0  3  0  0  0  0  0  0
  180.0460  178.7890  144.2600 O   0  0  0  0  0  1  0  0  0  0  0  0
  180.9920  179.3850  143.4350 C   0  0  0  0  0  0  0  0  0  0  0  0
  180.6280  180.2750  142.6210 O   0  0  0  0  0  0  0  0  0  0  0  0
  188.2790  177.1250  141.9640 C   0  0  0  0  0  0  0  0  0  0  0  0
  187.1920  177.9560  142.3810 N   0  0  0  0  0  2  0  0  0  0  0  0
  188.7260  176.2350  142.7380 O   0  0  0  0  0  0  0  0  0  0  0  0
  188.8370  178.2990  138.4200 C   0  0  0  0  0  3  0  0  0  0  0  0
  190.6040  177.7960  136.9070 F   0  0  0  0  0  0  0  0  0  0  0  0
  188.2620  178.1310  139.6810 C   0  0  0  0  0  3  0  0  0  0  0  0
  190.0330  177.6420  138.1240 C   0  0  0  0  0  0  0  0  0  0  0  0
  190.6230  176.8490  139.0570 N   0  0  0  0  0  0  0  0  0  0  0  0
  190.0770  176.6710  140.2900 C   0  0  0  0  0  3  0  0  0  0  0  0
  188.8790  177.3120  140.6320 C   0  0  0  0  0  0  0  0  0  0  0  0
  187.2280  178.4320  144.7210 O   0  0  0  0  0  0  0  0  0  0  0  0
  189.1610  177.5220  145.7680 C   0  0  0  0  0  2  0  0  0  0  0  0
  187.6570  177.4640  145.6460 C   0  0  1  0  0  3  0  0  0  0  0  0
  187.1300  177.8110  147.0230 C   0  0  0  0  0  2  0  0  0  0  0  0
  188.1120  177.9510  149.1380 C   0  0  0  0  0  1  0  0  0  0  0  0
  189.4340  177.8670  147.2140 C   0  0  0  0  0  2  0  0  0  0  0  0
  188.2140  178.4280  147.7710 N   0  0  0  0  0  0  0  0  0  0  0  0
  1 12  1  6  0  0  0
  1 21  1  0  0  0  0
  2  4  1  0  0  0  0
  3  6  1  0  0  0  0
  5  2  2  0  0  0  0
  6  1  1  0  0  0  0
  6  4  2  0  0  0  0
  7  3  2  0  0  0  0
  7  5  1  0  0  0  0
  9  5  1  0  0  0  0
  9  8  1  0  0  0  0
 10  9  2  0  0  0  0
 11 12  1  0  0  0  0
 11 13  2  0  0  0  0
 14 16  1  0  0  0  0
 15 17  1  0  0  0  0
 16 20  2  0  0  0  0
 17 14  2  0  0  0  0
 17 18  1  0  0  0  0
 18 19  2  0  0  0  0
 19 20  1  0  0  0  0
 20 11  1  0  0  0  0
 22 26  1  0  0  0  0
 23 21  1  6  0  0  0
 23 22  1  0  0  0  0
 23 24  1  0  0  0  0
 24 27  1  0  0  0  0
 26 27  1  0  0  0  0
 27 25  1  0  0  0  0
M  END
>  <MODEL>
7

>  <REMARK>
 VINA RESULT:      -7.2      2.870      6.040
  Name = 
  6 active torsions:
  status: ('A' for Active; 'I' for Inactive)
    1  A    between atoms: C_6  and  C_21
    2  A    between atoms: C_8  and  O_10
    3  A    between atoms: C_8  and  N_15
    4  A    between atoms: C_8  and  C_18
    5  A    between atoms: O_10  and  C_23
    6  A    between atoms: C_11  and  C_17
                            x       y       z     vdW  Elec       q    Type
                         _______ _______ _______ _____ _____    ______ ____

>  <TORSDO>
F 6

$$$$
=
 OpenBabel11032419503D

 27 29  0  0  1  0  0  0  0  0999 V2000
  187.4600  178.5290  141.5290 C   0  0  1  0  0  3  0  0  0  0  0  0
  183.6760  178.5330  141.6230 C   0  0  0  0  0  3  0  0  0  0  0  0
  185.7090  178.9200  139.8000 N   0  0  0  0  0  0  0  0  0  0  0  0
  185.0070  178.4270  142.0280 C   0  0  0  0  0  3  0  0  0  0  0  0
  183.3680  178.8360  140.2910 C   0  0  0  0  0  0  0  0  0  0  0  0
  186.0230  178.6180  141.0910 C   0  0  0  0  0  0  0  0  0  0  0  0
  184.4190  179.0290  139.3860 C   0  0  0  0  0  3  0  0  0  0  0  0
  180.9710  179.2730  140.7570 O   0  0  0  0  0  1  0  0  0  0  0  0
  181.9710  178.9520  139.8460 C   0  0  0  0  0  0  0  0  0  0  0  0
  181.6670  178.7610  138.6380 O   0  0  0  0  0  0  0  0  0  0  0  0
  187.8040  177.4150  143.7870 C   0  0  0  0  0  0  0  0  0  0  0  0
  187.6060  178.5830  142.9830 N   0  0  0  0  0  2  0  0  0  0  0  0
  187.8180  176.2740  143.2500 O   0  0  0  0  0  0  0  0  0  0  0  0
  189.3710  177.3410  147.2210 C   0  0  0  0  0  3  0  0  0  0  0  0
  188.4450  177.9320  149.3330 F   0  0  0  0  0  0  0  0  0  0  0  0
  189.2080  177.2150  145.8400 C   0  0  0  0  0  3  0  0  0  0  0  0
  188.3030  177.8030  147.9930 C   0  0  0  0  0  0  0  0  0  0  0  0
  187.1210  178.1230  147.4000 N   0  0  0  0  0  0  0  0  0  0  0  0
  186.9430  178.0050  146.0570 C   0  0  0  0  0  3  0  0  0  0  0  0
  187.9870  177.5470  145.2420 C   0  0  0  0  0  0  0  0  0  0  0  0
  188.1410  177.4250  140.9640 O   0  0  0  0  0  0  0  0  0  0  0  0
  190.4350  176.9840  140.5120 C   0  0  0  0  0  2  0  0  0  0  0  0
  189.2540  177.8850  140.2390 C   0  0  1  0  0  3  0  0  0  0  0  0
  188.9830  177.7490  138.7550 C   0  0  0  0  0  2  0  0  0  0  0  0
  190.1980  176.8630  136.9670 C   0  0  0  0  0  1  0  0  0  0  0  0
  190.8110  176.3950  139.1710 C   0  0  0  0  0  2  0  0  0  0  0  0
  189.6710  176.5580  138.2840 N   0  0  0  0  0  0  0  0  0  0  0  0
  1 21  1  1  0  0  0
  1 12  1  0  0  0  0
  2  4  1  0  0  0  0
  3  6  1  0  0  0  0
  5  2  2  0  0  0  0
  6  1  1  0  0  0  0
  6  4  2  0  0  0  0
  7  3  2  0  0  0  0
  7  5  1  0  0  0  0
  9  5  1  0  0  0  0
  9  8  1  0  0  0  0
 10  9  2  0  0  0  0
 11 20  1  0  0  0  0
 12 11  1  0  0  0  0
 13 11  2  0  0  0  0
 14 17  1  0  0  0  0
 16 14  2  0  0  0  0
 17 15  1  0  0  0  0
 18 17  2  0  0  0  0
 19 18  1  0  0  0  0
 20 16  1  0  0  0  0
 20 19  2  0  0  0  0
 23 22  1  0  0  0  0
 23 21  1  1  0  0  0
 24 23  1  0  0  0  0
 25 27  1  0  0  0  0
 26 22  1  0  0  0  0
 27 24  1  0  0  0  0
 27 26  1  0  0  0  0
M  END
>  <MODEL>
8

>  <REMARK>
 VINA RESULT:      -7.1      2.148      2.662
  Name = 
  6 active torsions:
  status: ('A' for Active; 'I' for Inactive)
    1  A    between atoms: C_6  and  C_21
    2  A    between atoms: C_8  and  O_10
    3  A    between atoms: C_8  and  N_15
    4  A    between atoms: C_8  and  C_18
    5  A    between atoms: O_10  and  C_23
    6  A    between atoms: C_11  and  C_17
                            x       y       z     vdW  Elec       q    Type
                         _______ _______ _______ _____ _____    ______ ____

>  <TORSDO>
F 6

$$$$
=
 OpenBabel11032419503D

 27 29  0  0  1  0  0  0  0  0999 V2000
  184.7630  178.9690  139.6300 C   0  0  1  0  0  3  0  0  0  0  0  0
  187.0020  177.8540  136.7880 C   0  0  0  0  0  3  0  0  0  0  0  0
  187.1860  178.4030  139.4850 N   0  0  0  0  0  0  0  0  0  0  0  0
  185.8690  178.2500  137.4990 C   0  0  0  0  0  3  0  0  0  0  0  0
  188.2350  177.7330  137.4410 C   0  0  0  0  0  0  0  0  0  0  0  0
  185.9780  178.5170  138.8650 C   0  0  0  0  0  0  0  0  0  0  0  0
  188.3010  178.0200  138.8100 C   0  0  0  0  0  3  0  0  0  0  0  0
  189.3890  177.1170  135.3330 O   0  0  0  0  0  0  0  0  0  0  0  0
  189.4400  177.3170  136.7070 C   0  0  0  0  0  0  0  0  0  0  0  0
  190.5280  177.1370  137.3170 O   0  0  0  0  0  1  0  0  0  0  0  0
  184.3270  178.3020  142.0430 C   0  0  0  0  0  0  0  0  0  0  0  0
  185.0170  179.0870  141.0650 N   0  0  0  0  0  2  0  0  0  0  0  0
  183.4280  177.4930  141.6840 O   0  0  0  0  0  0  0  0  0  0  0  0
  186.2560  178.2660  145.2870 C   0  0  0  0  0  3  0  0  0  0  0  0
  185.5540  178.8500  147.4860 F   0  0  0  0  0  0  0  0  0  0  0  0
  185.9480  178.1320  143.9330 C   0  0  0  0  0  3  0  0  0  0  0  0
  185.2710  178.7140  146.1700 C   0  0  0  0  0  0  0  0  0  0  0  0
  184.0270  179.0120  145.7080 N   0  0  0  0  0  0  0  0  0  0  0  0
  183.7070  178.8860  144.3920 C   0  0  0  0  0  3  0  0  0  0  0  0
  184.6640  178.4430  143.4700 C   0  0  0  0  0  0  0  0  0  0  0  0
  184.1790  180.1390  139.0920 O   0  0  0  0  0  0  0  0  0  0  0  0
  182.1440  181.2050  138.4730 C   0  0  0  0  0  2  0  0  0  0  0  0
  182.7830  180.0800  139.2510 C   0  0  1  0  0  3  0  0  0  0  0  0
  182.2560  178.8080  138.6190 C   0  0  0  0  0  2  0  0  0  0  0  0
  180.5020  178.3440  137.1470 C   0  0  0  0  0  1  0  0  0  0  0  0
  181.2530  180.5340  137.4520 C   0  0  0  0  0  2  0  0  0  0  0  0
  181.6930  179.1550  137.3240 N   0  0  0  0  0  0  0  0  0  0  0  0
  1 21  1  6  0  0  0
  1 12  1  0  0  0  0
  2  5  2  0  0  0  0
  2  4  1  0  0  0  0
  4  6  2  0  0  0  0
  5  7  1  0  0  0  0
  6  3  1  0  0  0  0
  6  1  1  0  0  0  0
  7  3  2  0  0  0  0
  8  9  2  0  0  0  0
  9 10  1  0  0  0  0
  9  5  1  0  0  0  0
 11 20  1  0  0  0  0
 12 11  1  0  0  0  0
 13 11  2  0  0  0  0
 14 17  1  0  0  0  0
 16 14  2  0  0  0  0
 17 15  1  0  0  0  0
 18 17  2  0  0  0  0
 19 18  1  0  0  0  0
 20 16  1  0  0  0  0
 20 19  2  0  0  0  0
 22 23  1  0  0  0  0
 23 21  1  6  0  0  0
 24 23  1  0  0  0  0
 25 27  1  0  0  0  0
 26 22  1  0  0  0  0
 27 26  1  0  0  0  0
 27 24  1  0  0  0  0
M  END
>  <MODEL>
9

>  <REMARK>
 VINA RESULT:      -7.1      3.796      7.176
  Name = 
  6 active torsions:
  status: ('A' for Active; 'I' for Inactive)
    1  A    between atoms: C_6  and  C_21
    2  A    between atoms: C_8  and  O_10
    3  A    between atoms: C_8  and  N_15
    4  A    between atoms: C_8  and  C_18
    5  A    between atoms: O_10  and  C_23
    6  A    between atoms: C_11  and  C_17
                            x       y       z     vdW  Elec       q    Type
                         _______ _______ _______ _____ _____    ______ ____

>  <TORSDO>
F 6

$$$$
