=
 OpenBabel11032419203D

 25 29  0  0  1  0  0  0  0  0999 V2000
  185.1590  178.2710  144.8990 C   0  0  0  0  0  0  0  0  0  0  0  0
  185.4670  177.9850  146.5200 S   0  0  0  0  0  0  0  0  0  0  0  0
  182.0270  179.1860  143.5750 O   0  0  0  0  0  0  0  0  0  0  0  0
  183.9910  178.6330  144.2510 C   0  0  0  0  0  0  0  0  0  0  0  0
  187.1190  177.6570  146.2920 C   0  0  0  0  0  0  0  0  0  0  0  0
  186.3260  178.3660  142.8030 N   0  0  0  0  0  0  0  0  0  0  0  0
  186.3260  178.1310  144.1550 C   0  0  0  0  0  0  0  0  0  0  0  0
  187.4450  177.7880  144.9280 C   0  0  0  0  0  0  0  0  0  0  0  0
  182.7720  179.1930  142.4980 N   0  0  0  0  0  0  0  0  0  0  0  0
  183.9990  178.8500  142.9080 C   0  0  0  0  0  0  0  0  0  0  0  0
  185.1720  178.7240  142.1520 C   0  0  0  0  0  3  0  0  0  0  0  0
  182.7010  178.8560  144.6710 C   0  0  0  0  0  3  0  0  0  0  0  0
  192.0570  179.4370  144.3930 N   0  0  0  0  0  1  0  0  0  0  0  0
  190.8310  175.2780  142.3040 N   0  0  0  0  0  1  0  0  0  0  0  0
  191.0670  178.4510  144.1270 C   0  0  0  0  0  0  0  0  0  0  0  0
  189.7800  178.5980  144.6450 C   0  0  0  0  0  3  0  0  0  0  0  0
  188.8090  177.6250  144.3790 C   0  0  0  0  0  0  0  0  0  0  0  0
  190.4570  176.4010  143.0940 C   0  0  0  0  0  0  0  0  0  0  0  0
  191.3760  177.3660  143.3680 N   0  0  0  0  0  0  0  0  0  0  0  0
  188.2550  175.5210  143.3570 F   0  0  0  0  0  0  0  0  0  0  0  0
  189.1550  176.5100  143.5960 C   0  0  0  0  0  0  0  0  0  0  0  0
  189.9610  178.3160  148.6570 C   0  0  0  0  0  1  0  0  0  0  0  0
  187.5360  177.8640  148.7210 C   0  0  0  0  0  2  0  0  0  0  0  0
  188.0750  177.3390  147.4020 C   0  0  2  0  0  3  0  0  0  0  0  0
  188.6310  178.6200  148.0020 C   0  0  2  0  0  3  0  0  0  0  0  0
  1  2  1  0  0  0  0
  3 12  1  0  0  0  0
  4 12  2  0  0  0  0
  4  1  1  0  0  0  0
  5  2  1  0  0  0  0
  6  7  1  0  0  0  0
  7  1  2  0  0  0  0
  7  8  1  0  0  0  0
  8  5  2  0  0  0  0
  9 10  2  0  0  0  0
  9  3  1  0  0  0  0
 10  4  1  0  0  0  0
 11  6  2  0  0  0  0
 11 10  1  0  0  0  0
 14 18  1  0  0  0  0
 15 13  1  0  0  0  0
 15 16  1  0  0  0  0
 17 16  2  0  0  0  0
 17  8  1  0  0  0  0
 18 19  1  0  0  0  0
 18 21  2  0  0  0  0
 19 15  2  0  0  0  0
 20 21  1  0  0  0  0
 21 17  1  0  0  0  0
 24  5  1  6  0  0  0
 24 25  1  0  0  0  0
 24 23  1  0  0  0  0
 25 22  1  1  0  0  0
 25 23  1  0  0  0  0
M  END
>  <MODEL>
1

>  <REMARK>
 VINA RESULT:      -8.0      0.000      0.000
  Name = 
  2 active torsions:
  status: ('A' for Active; 'I' for Inactive)
    1  A    between atoms: C_11  and  C_12
    2  A    between atoms: C_13  and  C_17
                            x       y       z     vdW  Elec       q    Type
                         _______ _______ _______ _____ _____    ______ ____

>  <TORSDO>
F 2

$$$$
=
 OpenBabel11032419203D

 25 29  0  0  1  0  0  0  0  0999 V2000
  185.4630  178.3400  142.3720 C   0  0  0  0  0  0  0  0  0  0  0  0
  184.9680  178.1190  143.9570 S   0  0  0  0  0  0  0  0  0  0  0  0
  183.3640  179.3450  139.7290 O   0  0  0  0  0  0  0  0  0  0  0  0
  184.7530  178.7270  141.2490 C   0  0  0  0  0  0  0  0  0  0  0  0
  186.5130  177.6980  144.5270 C   0  0  0  0  0  0  0  0  0  0  0  0
  187.4680  178.2700  141.0540 N   0  0  0  0  0  0  0  0  0  0  0  0
  186.8280  178.1040  142.2560 C   0  0  0  0  0  0  0  0  0  0  0  0
  187.4390  177.7430  143.4670 C   0  0  0  0  0  0  0  0  0  0  0  0
  184.5210  179.2610  139.1200 N   0  0  0  0  0  0  0  0  0  0  0  0
  185.3930  178.8770  140.0590 C   0  0  0  0  0  0  0  0  0  0  0  0
  186.7710  178.6530  139.9350 C   0  0  0  0  0  3  0  0  0  0  0  0
  183.4330  179.0360  141.0190 C   0  0  0  0  0  3  0  0  0  0  0  0
  191.9910  179.3700  144.4170 N   0  0  0  0  0  1  0  0  0  0  0  0
  191.3650  174.7050  143.4110 N   0  0  0  0  0  1  0  0  0  0  0  0
  191.1150  178.3010  144.0830 C   0  0  0  0  0  0  0  0  0  0  0  0
  189.7470  178.5390  143.9460 C   0  0  0  0  0  3  0  0  0  0  0  0
  188.8880  177.4830  143.6160 C   0  0  0  0  0  0  0  0  0  0  0  0
  190.8020  176.0010  143.5820 C   0  0  0  0  0  0  0  0  0  0  0  0
  191.6100  177.0490  143.8990 N   0  0  0  0  0  0  0  0  0  0  0  0
  188.6170  175.1380  143.1640 F   0  0  0  0  0  0  0  0  0  0  0  0
  189.4240  176.1970  143.4360 C   0  0  0  0  0  0  0  0  0  0  0  0
  188.1270  178.2400  147.8740 C   0  0  0  0  0  1  0  0  0  0  0  0
  185.8730  178.1360  146.8760 C   0  0  0  0  0  2  0  0  0  0  0  0
  186.8250  177.3870  145.9600 C   0  0  2  0  0  3  0  0  0  0  0  0
  187.2850  178.6420  146.6830 C   0  0  2  0  0  3  0  0  0  0  0  0
  1  2  1  0  0  0  0
  2  5  1  0  0  0  0
  3 12  1  0  0  0  0
  4  1  1  0  0  0  0
  6  7  1  0  0  0  0
  7  1  2  0  0  0  0
  7  8  1  0  0  0  0
  8 17  1  0  0  0  0
  8  5  2  0  0  0  0
  9  3  1  0  0  0  0
  9 10  2  0  0  0  0
 10  4  1  0  0  0  0
 11 10  1  0  0  0  0
 11  6  2  0  0  0  0
 12  4  2  0  0  0  0
 14 18  1  0  0  0  0
 15 13  1  0  0  0  0
 16 15  1  0  0  0  0
 17 16  2  0  0  0  0
 18 19  1  0  0  0  0
 19 15  2  0  0  0  0
 20 21  1  0  0  0  0
 21 18  2  0  0  0  0
 21 17  1  0  0  0  0
 24  5  1  6  0  0  0
 24 25  1  0  0  0  0
 24 23  1  0  0  0  0
 25 23  1  0  0  0  0
 25 22  1  1  0  0  0
M  END
>  <MODEL>
2

>  <REMARK>
 VINA RESULT:      -7.5      1.781      2.202
  Name = 
  2 active torsions:
  status: ('A' for Active; 'I' for Inactive)
    1  A    between atoms: C_11  and  C_12
    2  A    between atoms: C_13  and  C_17
                            x       y       z     vdW  Elec       q    Type
                         _______ _______ _______ _____ _____    ______ ____

>  <TORSDO>
F 2

$$$$
=
 OpenBabel11032419203D

 25 29  0  0  1  0  0  0  0  0999 V2000
  185.6480  178.5480  142.2410 C   0  0  0  0  0  0  0  0  0  0  0  0
  186.1060  178.6460  140.6320 S   0  0  0  0  0  0  0  0  0  0  0  0
  182.3430  178.8530  143.4160 O   0  0  0  0  0  0  0  0  0  0  0  0
  184.4020  178.6490  142.8340 C   0  0  0  0  0  0  0  0  0  0  0  0
  187.7550  178.3750  140.9400 C   0  0  0  0  0  0  0  0  0  0  0  0
  186.6170  178.1260  144.3960 N   0  0  0  0  0  0  0  0  0  0  0  0
  186.7560  178.2940  143.0420 C   0  0  0  0  0  0  0  0  0  0  0  0
  187.9560  178.1900  142.3220 C   0  0  0  0  0  0  0  0  0  0  0  0
  182.9910  178.6230  144.5310 N   0  0  0  0  0  0  0  0  0  0  0  0
  184.2760  178.4940  144.1790 C   0  0  0  0  0  0  0  0  0  0  0  0
  185.3840  178.2250  144.9930 C   0  0  0  0  0  3  0  0  0  0  0  0
  183.1360  178.8810  142.3510 C   0  0  0  0  0  3  0  0  0  0  0  0
  192.1580  179.6990  144.4040 N   0  0  0  0  0  1  0  0  0  0  0  0
  191.4140  174.9760  143.8570 N   0  0  0  0  0  1  0  0  0  0  0  0
  191.3210  178.6400  143.9580 C   0  0  0  0  0  0  0  0  0  0  0  0
  190.0850  178.9260  143.3790 C   0  0  0  0  0  3  0  0  0  0  0  0
  189.2650  177.8800  142.9390 C   0  0  0  0  0  0  0  0  0  0  0  0
  190.9520  176.3100  143.6820 C   0  0  0  0  0  0  0  0  0  0  0  0
  191.7260  177.3500  144.0950 N   0  0  0  0  0  0  0  0  0  0  0  0
  188.9160  175.5110  142.7280 F   0  0  0  0  0  0  0  0  0  0  0  0
  189.7040  176.5540  143.0970 C   0  0  0  0  0  0  0  0  0  0  0  0
  190.4030  176.7040  138.8670 C   0  0  0  0  0  1  0  0  0  0  0  0
  188.2010  177.7790  138.5820 C   0  0  0  0  0  2  0  0  0  0  0  0
  188.8070  178.2920  139.8760 C   0  0  2  0  0  3  0  0  0  0  0  0
  189.0150  176.8480  139.4520 C   0  0  2  0  0  3  0  0  0  0  0  0
  1  4  1  0  0  0  0
  1  7  2  0  0  0  0
  2  5  1  0  0  0  0
  2  1  1  0  0  0  0
  3  9  1  0  0  0  0
  4 10  1  0  0  0  0
  5  8  2  0  0  0  0
  6 11  2  0  0  0  0
  7  6  1  0  0  0  0
  8 17  1  0  0  0  0
  8  7  1  0  0  0  0
 10  9  2  0  0  0  0
 10 11  1  0  0  0  0
 12  4  2  0  0  0  0
 12  3  1  0  0  0  0
 15 19  1  0  0  0  0
 15 13  1  0  0  0  0
 16 15  2  0  0  0  0
 17 21  2  0  0  0  0
 17 16  1  0  0  0  0
 18 14  1  0  0  0  0
 18 19  2  0  0  0  0
 20 21  1  0  0  0  0
 21 18  1  0  0  0  0
 23 25  1  0  0  0  0
 23 24  1  0  0  0  0
 24  5  1  1  0  0  0
 25 22  1  6  0  0  0
 25 24  1  0  0  0  0
M  END
>  <MODEL>
3

>  <REMARK>
 VINA RESULT:      -7.3      2.394      4.255
  Name = 
  2 active torsions:
  status: ('A' for Active; 'I' for Inactive)
    1  A    between atoms: C_11  and  C_12
    2  A    between atoms: C_13  and  C_17
                            x       y       z     vdW  Elec       q    Type
                         _______ _______ _______ _____ _____    ______ ____

>  <TORSDO>
F 2

$$$$
=
 OpenBabel11032419203D

 25 29  0  0  1  0  0  0  0  0999 V2000
  188.4090  177.6610  141.7330 C   0  0  0  0  0  0  0  0  0  0  0  0
  186.8440  177.7600  142.3210 S   0  0  0  0  0  0  0  0  0  0  0  0
  189.3110  177.9880  138.3440 O   0  0  0  0  0  0  0  0  0  0  0  0
  188.8980  177.7690  140.4430 C   0  0  0  0  0  0  0  0  0  0  0  0
  187.2920  177.5380  143.9450 C   0  0  0  0  0  0  0  0  0  0  0  0
  190.6550  177.4020  142.5400 N   0  0  0  0  0  0  0  0  0  0  0  0
  189.3050  177.4670  142.7780 C   0  0  0  0  0  0  0  0  0  0  0  0
  188.6910  177.3980  144.0380 C   0  0  0  0  0  0  0  0  0  0  0  0
  190.4830  177.8280  138.9070 N   0  0  0  0  0  0  0  0  0  0  0  0
  190.2370  177.6910  140.2150 C   0  0  0  0  0  0  0  0  0  0  0  0
  191.1480  177.5080  141.2630 C   0  0  0  0  0  3  0  0  0  0  0  0
  188.3090  177.9630  139.2160 C   0  0  0  0  0  3  0  0  0  0  0  0
  189.2100  178.4260  148.8280 N   0  0  0  0  0  1  0  0  0  0  0  0
  192.4160  175.5170  146.7260 N   0  0  0  0  0  1  0  0  0  0  0  0
  189.6690  177.7580  147.6590 C   0  0  0  0  0  0  0  0  0  0  0  0
  188.9730  177.9000  146.4580 C   0  0  0  0  0  3  0  0  0  0  0  0
  189.4300  177.2410  145.3100 C   0  0  0  0  0  0  0  0  0  0  0  0
  191.2510  176.3270  146.6180 C   0  0  0  0  0  0  0  0  0  0  0  0
  190.7830  176.9830  147.7130 N   0  0  0  0  0  0  0  0  0  0  0  0
  191.0280  175.7480  144.3130 F   0  0  0  0  0  0  0  0  0  0  0  0
  190.5820  176.4410  145.3930 C   0  0  0  0  0  0  0  0  0  0  0  0
  185.5530  178.9980  146.9370 C   0  0  0  0  0  1  0  0  0  0  0  0
  185.0180  178.1910  144.6670 C   0  0  0  0  0  2  0  0  0  0  0  0
  186.3280  177.5530  145.0940 C   0  0  2  0  0  3  0  0  0  0  0  0
  186.0070  178.9840  145.4930 C   0  0  2  0  0  3  0  0  0  0  0  0
  1  2  1  0  0  0  0
  1  7  2  0  0  0  0
  2  5  1  0  0  0  0
  3  9  1  0  0  0  0
  3 12  1  0  0  0  0
  4  1  1  0  0  0  0
  5  8  2  0  0  0  0
  6  7  1  0  0  0  0
  7  8  1  0  0  0  0
  8 17  1  0  0  0  0
  9 10  2  0  0  0  0
 10  4  1  0  0  0  0
 10 11  1  0  0  0  0
 11  6  2  0  0  0  0
 12  4  2  0  0  0  0
 15 19  1  0  0  0  0
 15 13  1  0  0  0  0
 16 15  2  0  0  0  0
 17 21  2  0  0  0  0
 17 16  1  0  0  0  0
 18 14  1  0  0  0  0
 18 19  2  0  0  0  0
 20 21  1  0  0  0  0
 21 18  1  0  0  0  0
 23 24  1  0  0  0  0
 23 25  1  0  0  0  0
 24  5  1  6  0  0  0
 24 25  1  0  0  0  0
 25 22  1  1  0  0  0
M  END
>  <MODEL>
4

>  <REMARK>
 VINA RESULT:      -7.3      3.309      4.931
  Name = 
  2 active torsions:
  status: ('A' for Active; 'I' for Inactive)
    1  A    between atoms: C_11  and  C_12
    2  A    between atoms: C_13  and  C_17
                            x       y       z     vdW  Elec       q    Type
                         _______ _______ _______ _____ _____    ______ ____

>  <TORSDO>
F 2

$$$$
=
 OpenBabel11032419203D

 25 29  0  0  1  0  0  0  0  0999 V2000
  189.9030  177.0440  144.2710 C   0  0  0  0  0  0  0  0  0  0  0  0
  190.4510  176.7030  142.7250 S   0  0  0  0  0  0  0  0  0  0  0  0
  191.8170  176.7030  147.2060 O   0  0  0  0  0  0  0  0  0  0  0  0
  190.5410  176.9550  145.4950 C   0  0  0  0  0  0  0  0  0  0  0  0
  188.9980  177.1440  141.9620 C   0  0  0  0  0  0  0  0  0  0  0  0
  187.9510  177.9030  145.3720 N   0  0  0  0  0  0  0  0  0  0  0  0
  188.5950  177.5140  144.2250 C   0  0  0  0  0  0  0  0  0  0  0  0
  188.0680  177.5810  142.9260 C   0  0  0  0  0  0  0  0  0  0  0  0
  190.6920  177.1700  147.6870 N   0  0  0  0  0  0  0  0  0  0  0  0
  189.8890  177.3320  146.6280 C   0  0  0  0  0  0  0  0  0  0  0  0
  188.5760  177.8180  146.5910 C   0  0  0  0  0  3  0  0  0  0  0  0
  191.7940  176.5500  145.8870 C   0  0  0  0  0  3  0  0  0  0  0  0
  184.9440  179.7210  139.7750 N   0  0  0  0  0  1  0  0  0  0  0  0
  183.3270  178.4360  144.1220 N   0  0  0  0  0  1  0  0  0  0  0  0
  185.1980  179.1420  141.0490 C   0  0  0  0  0  0  0  0  0  0  0  0
  186.4700  178.6580  141.3520 C   0  0  0  0  0  3  0  0  0  0  0  0
  186.7160  178.0890  142.6080 C   0  0  0  0  0  0  0  0  0  0  0  0
  184.4050  178.5100  143.1960 C   0  0  0  0  0  0  0  0  0  0  0  0
  184.2010  179.0600  141.9690 N   0  0  0  0  0  0  0  0  0  0  0  0
  185.8530  177.4230  144.7500 F   0  0  0  0  0  0  0  0  0  0  0  0
  185.6670  178.0110  143.5400 C   0  0  0  0  0  0  0  0  0  0  0  0
  188.9820  178.5550  138.4810 C   0  0  0  0  0  1  0  0  0  0  0  0
  190.0810  176.7620  139.7710 C   0  0  0  0  0  2  0  0  0  0  0  0
  188.7850  177.1200  140.4780 C   0  0  2  0  0  3  0  0  0  0  0  0
  189.6170  178.2010  139.8080 C   0  0  2  0  0  3  0  0  0  0  0  0
  1  4  1  0  0  0  0
  2  1  1  0  0  0  0
  3  9  1  0  0  0  0
  4 12  2  0  0  0  0
  4 10  1  0  0  0  0
  5  2  1  0  0  0  0
  5  8  2  0  0  0  0
  6 11  2  0  0  0  0
  7  1  2  0  0  0  0
  7  6  1  0  0  0  0
  8  7  1  0  0  0  0
 10  9  2  0  0  0  0
 11 10  1  0  0  0  0
 12  3  1  0  0  0  0
 13 15  1  0  0  0  0
 15 16  2  0  0  0  0
 15 19  1  0  0  0  0
 16 17  1  0  0  0  0
 17  8  1  0  0  0  0
 17 21  2  0  0  0  0
 18 21  1  0  0  0  0
 18 14  1  0  0  0  0
 19 18  2  0  0  0  0
 21 20  1  0  0  0  0
 23 25  1  0  0  0  0
 23 24  1  0  0  0  0
 24  5  1  1  0  0  0
 25 22  1  6  0  0  0
 25 24  1  0  0  0  0
M  END
>  <MODEL>
5

>  <REMARK>
 VINA RESULT:      -7.3      3.510      6.881
  Name = 
  2 active torsions:
  status: ('A' for Active; 'I' for Inactive)
    1  A    between atoms: C_11  and  C_12
    2  A    between atoms: C_13  and  C_17
                            x       y       z     vdW  Elec       q    Type
                         _______ _______ _______ _____ _____    ______ ____

>  <TORSDO>
F 2

$$$$
=
 OpenBabel11032419203D

 25 29  0  0  1  0  0  0  0  0999 V2000
  185.9510  178.2040  143.7150 C   0  0  0  0  0  0  0  0  0  0  0  0
  187.1870  177.9520  144.8180 S   0  0  0  0  0  0  0  0  0  0  0  0
  182.6120  178.9320  144.5650 O   0  0  0  0  0  0  0  0  0  0  0  0
  184.6120  178.4940  143.9100 C   0  0  0  0  0  0  0  0  0  0  0  0
  188.3820  177.7130  143.6340 C   0  0  0  0  0  0  0  0  0  0  0  0
  185.6150  178.3390  141.3430 N   0  0  0  0  0  0  0  0  0  0  0  0
  186.4400  178.1200  142.4160 C   0  0  0  0  0  0  0  0  0  0  0  0
  187.8150  177.8460  142.3520 C   0  0  0  0  0  0  0  0  0  0  0  0
  182.5570  178.9680  143.2570 N   0  0  0  0  0  0  0  0  0  0  0  0
  183.7990  178.6970  142.8380 C   0  0  0  0  0  0  0  0  0  0  0  0
  184.2850  178.6270  141.5260 C   0  0  0  0  0  3  0  0  0  0  0  0
  183.8250  178.6510  145.0260 C   0  0  0  0  0  3  0  0  0  0  0  0
  188.8650  179.5730  137.8590 N   0  0  0  0  0  1  0  0  0  0  0  0
  191.1800  175.6580  139.4310 N   0  0  0  0  0  1  0  0  0  0  0  0
  189.0800  178.6130  138.8860 C   0  0  0  0  0  0  0  0  0  0  0  0
  188.3650  178.7000  140.0810 C   0  0  0  0  0  3  0  0  0  0  0  0
  188.5790  177.7520  141.0890 C   0  0  0  0  0  0  0  0  0  0  0  0
  190.2170  176.6790  139.6640 C   0  0  0  0  0  0  0  0  0  0  0  0
  189.9820  177.6140  138.7040 N   0  0  0  0  0  0  0  0  0  0  0  0
  189.7930  175.8220  141.8500 F   0  0  0  0  0  0  0  0  0  0  0  0
  189.5210  176.7310  140.8770 C   0  0  0  0  0  0  0  0  0  0  0  0
  192.0030  178.6180  144.0490 C   0  0  0  0  0  1  0  0  0  0  0  0
  190.1180  177.7700  145.3950 C   0  0  0  0  0  2  0  0  0  0  0  0
  189.8280  177.4590  143.9370 C   0  0  2  0  0  3  0  0  0  0  0  0
  190.5210  178.7560  144.3220 C   0  0  2  0  0  3  0  0  0  0  0  0
  1  4  1  0  0  0  0
  1  2  1  0  0  0  0
  3 12  1  0  0  0  0
  4 12  2  0  0  0  0
  5  2  1  0  0  0  0
  6 11  2  0  0  0  0
  6  7  1  0  0  0  0
  7  1  2  0  0  0  0
  8  7  1  0  0  0  0
  8  5  2  0  0  0  0
  9  3  1  0  0  0  0
 10  9  2  0  0  0  0
 10  4  1  0  0  0  0
 11 10  1  0  0  0  0
 13 15  1  0  0  0  0
 14 18  1  0  0  0  0
 15 16  1  0  0  0  0
 16 17  2  0  0  0  0
 17  8  1  0  0  0  0
 18 21  2  0  0  0  0
 19 15  2  0  0  0  0
 19 18  1  0  0  0  0
 21 17  1  0  0  0  0
 21 20  1  0  0  0  0
 24  5  1  1  0  0  0
 24 25  1  0  0  0  0
 24 23  1  0  0  0  0
 25 22  1  6  0  0  0
 25 23  1  0  0  0  0
M  END
>  <MODEL>
6

>  <REMARK>
 VINA RESULT:      -7.2      2.489      3.372
  Name = 
  2 active torsions:
  status: ('A' for Active; 'I' for Inactive)
    1  A    between atoms: C_11  and  C_12
    2  A    between atoms: C_13  and  C_17
                            x       y       z     vdW  Elec       q    Type
                         _______ _______ _______ _____ _____    ______ ____

>  <TORSDO>
F 2

$$$$
=
 OpenBabel11032419203D

 25 29  0  0  1  0  0  0  0  0999 V2000
  184.5980  178.5690  144.6090 C   0  0  0  0  0  0  0  0  0  0  0  0
  183.0230  179.1360  144.6870 S   0  0  0  0  0  0  0  0  0  0  0  0
  186.7580  178.2400  147.3700 O   0  0  0  0  0  0  0  0  0  0  0  0
  185.5440  178.3910  145.6030 C   0  0  0  0  0  0  0  0  0  0  0  0
  182.7250  178.9470  143.0250 C   0  0  0  0  0  0  0  0  0  0  0  0
  186.1440  177.6770  143.0040 N   0  0  0  0  0  0  0  0  0  0  0  0
  184.9170  178.2140  143.3030 C   0  0  0  0  0  0  0  0  0  0  0  0
  183.8680  178.4170  142.3940 C   0  0  0  0  0  0  0  0  0  0  0  0
  187.5100  177.7810  146.4000 N   0  0  0  0  0  0  0  0  0  0  0  0
  186.7620  177.8700  145.2940 C   0  0  0  0  0  0  0  0  0  0  0  0
  187.0890  177.4980  143.9840 C   0  0  0  0  0  3  0  0  0  0  0  0
  185.5560  178.6260  146.9570 C   0  0  0  0  0  3  0  0  0  0  0  0
  182.1720  175.9080  138.5080 N   0  0  0  0  0  1  0  0  0  0  0  0
  185.9160  178.8690  137.8950 N   0  0  0  0  0  1  0  0  0  0  0  0
  183.0970  176.8360  139.0620 C   0  0  0  0  0  0  0  0  0  0  0  0
  183.0290  177.1640  140.4160 C   0  0  0  0  0  3  0  0  0  0  0  0
  183.9430  178.0760  140.9570 C   0  0  0  0  0  0  0  0  0  0  0  0
  184.9470  178.2940  138.7640 C   0  0  0  0  0  0  0  0  0  0  0  0
  184.0470  177.4020  138.2710 N   0  0  0  0  0  0  0  0  0  0  0  0
  185.7840  179.5780  140.5930 F   0  0  0  0  0  0  0  0  0  0  0  0
  184.9120  178.6520  140.1170 C   0  0  0  0  0  0  0  0  0  0  0  0
  179.3490  178.1440  141.5880 C   0  0  0  0  0  1  0  0  0  0  0  0
  180.3400  179.4710  143.4160 C   0  0  0  0  0  2  0  0  0  0  0  0
  181.4130  179.2500  142.3660 C   0  0  2  0  0  3  0  0  0  0  0  0
  180.4040  178.1560  142.6730 C   0  0  2  0  0  3  0  0  0  0  0  0
  1  2  1  0  0  0  0
  1  4  1  0  0  0  0
  4 12  2  0  0  0  0
  5  2  1  0  0  0  0
  6  7  1  0  0  0  0
  6 11  2  0  0  0  0
  7  1  2  0  0  0  0
  8  5  2  0  0  0  0
  8  7  1  0  0  0  0
  9  3  1  0  0  0  0
 10  4  1  0  0  0  0
 10  9  2  0  0  0  0
 11 10  1  0  0  0  0
 12  3  1  0  0  0  0
 13 15  1  0  0  0  0
 14 18  1  0  0  0  0
 15 16  1  0  0  0  0
 16 17  2  0  0  0  0
 17  8  1  0  0  0  0
 18 21  2  0  0  0  0
 19 18  1  0  0  0  0
 19 15  2  0  0  0  0
 21 20  1  0  0  0  0
 21 17  1  0  0  0  0
 24 25  1  0  0  0  0
 24  5  1  1  0  0  0
 24 23  1  0  0  0  0
 25 22  1  6  0  0  0
 25 23  1  0  0  0  0
M  END
>  <MODEL>
7

>  <REMARK>
 VINA RESULT:      -7.1      3.319      6.899
  Name = 
  2 active torsions:
  status: ('A' for Active; 'I' for Inactive)
    1  A    between atoms: C_11  and  C_12
    2  A    between atoms: C_13  and  C_17
                            x       y       z     vdW  Elec       q    Type
                         _______ _______ _______ _____ _____    ______ ____

>  <TORSDO>
F 2

$$$$
=
 OpenBabel11032419203D

 25 29  0  0  1  0  0  0  0  0999 V2000
  188.9270  177.5270  144.6330 C   0  0  0  0  0  0  0  0  0  0  0  0
  187.2780  177.7240  144.4100 S   0  0  0  0  0  0  0  0  0  0  0  0
  190.5030  177.1280  147.7560 O   0  0  0  0  0  0  0  0  0  0  0  0
  189.6690  177.3620  145.7890 C   0  0  0  0  0  0  0  0  0  0  0  0
  187.3760  177.8040  142.7160 C   0  0  0  0  0  0  0  0  0  0  0  0
  190.9360  177.3110  143.3370 N   0  0  0  0  0  0  0  0  0  0  0  0
  189.5800  177.5090  143.4050 C   0  0  0  0  0  0  0  0  0  0  0  0
  188.7170  177.6610  142.3090 C   0  0  0  0  0  0  0  0  0  0  0  0
  191.5240  177.0350  146.9410 N   0  0  0  0  0  0  0  0  0  0  0  0
  191.0150  177.1800  145.7110 C   0  0  0  0  0  0  0  0  0  0  0  0
  191.6800  177.1480  144.4790 C   0  0  0  0  0  3  0  0  0  0  0  0
  189.3510  177.3250  147.1260 C   0  0  0  0  0  3  0  0  0  0  0  0
  188.6810  179.6000  137.7800 N   0  0  0  0  0  1  0  0  0  0  0  0
  191.2900  175.6360  138.5780 N   0  0  0  0  0  1  0  0  0  0  0  0
  189.1300  178.5960  138.6820 C   0  0  0  0  0  0  0  0  0  0  0  0
  188.7170  178.6220  140.0150 C   0  0  0  0  0  3  0  0  0  0  0  0
  189.1610  177.6310  140.8980 C   0  0  0  0  0  0  0  0  0  0  0  0
  190.4130  176.6380  139.0790 C   0  0  0  0  0  0  0  0  0  0  0  0
  189.9600  177.6130  138.2450 N   0  0  0  0  0  0  0  0  0  0  0  0
  190.5140  175.6780  141.2610 F   0  0  0  0  0  0  0  0  0  0  0  0
  190.0240  176.6280  140.4230 C   0  0  0  0  0  0  0  0  0  0  0  0
  183.7240  177.8780  141.8440 C   0  0  0  0  0  1  0  0  0  0  0  0
  185.6820  179.3780  141.8370 C   0  0  0  0  0  2  0  0  0  0  0  0
  186.1890  177.9470  141.8100 C   0  0  2  0  0  3  0  0  0  0  0  0
  184.9520  178.3070  142.6160 C   0  0  2  0  0  3  0  0  0  0  0  0
  1  4  1  0  0  0  0
  2  1  1  0  0  0  0
  4 12  2  0  0  0  0
  5  2  1  0  0  0  0
  6  7  1  0  0  0  0
  6 11  2  0  0  0  0
  7  1  2  0  0  0  0
  8  5  2  0  0  0  0
  8  7  1  0  0  0  0
  9  3  1  0  0  0  0
 10  4  1  0  0  0  0
 10  9  2  0  0  0  0
 11 10  1  0  0  0  0
 12  3  1  0  0  0  0
 13 15  1  0  0  0  0
 14 18  1  0  0  0  0
 15 16  1  0  0  0  0
 16 17  2  0  0  0  0
 17  8  1  0  0  0  0
 18 21  2  0  0  0  0
 19 15  2  0  0  0  0
 19 18  1  0  0  0  0
 21 17  1  0  0  0  0
 21 20  1  0  0  0  0
 23 25  1  0  0  0  0
 24 23  1  0  0  0  0
 24 25  1  0  0  0  0
 24  5  1  1  0  0  0
 25 22  1  6  0  0  0
M  END
>  <MODEL>
8

>  <REMARK>
 VINA RESULT:      -7.0      3.414      5.969
  Name = 
  2 active torsions:
  status: ('A' for Active; 'I' for Inactive)
    1  A    between atoms: C_11  and  C_12
    2  A    between atoms: C_13  and  C_17
                            x       y       z     vdW  Elec       q    Type
                         _______ _______ _______ _____ _____    ______ ____

>  <TORSDO>
F 2

$$$$
=
 OpenBabel11032419203D

 25 29  0  0  1  0  0  0  0  0999 V2000
  187.5010  178.2070  139.8560 C   0  0  0  0  0  0  0  0  0  0  0  0
  187.4060  178.6300  141.4740 S   0  0  0  0  0  0  0  0  0  0  0  0
  190.4190  177.0830  138.2380 O   0  0  0  0  0  0  0  0  0  0  0  0
  188.5700  177.7550  139.1020 C   0  0  0  0  0  0  0  0  0  0  0  0
  185.7470  178.9960  141.4240 C   0  0  0  0  0  0  0  0  0  0  0  0
  186.0790  177.9900  137.9350 N   0  0  0  0  0  0  0  0  0  0  0  0
  186.2540  178.3290  139.2520 C   0  0  0  0  0  0  0  0  0  0  0  0
  185.2490  178.7710  140.1260 C   0  0  0  0  0  0  0  0  0  0  0  0
  189.5450  177.0170  137.2640 N   0  0  0  0  0  0  0  0  0  0  0  0
  188.3880  177.4340  137.7930 C   0  0  0  0  0  0  0  0  0  0  0  0
  187.1340  177.5420  137.1780 C   0  0  0  0  0  3  0  0  0  0  0  0
  189.8960  177.5210  139.3770 C   0  0  0  0  0  3  0  0  0  0  0  0
  181.6590  181.5050  138.1490 N   0  0  0  0  0  1  0  0  0  0  0  0
  180.5830  177.1110  139.7910 N   0  0  0  0  0  1  0  0  0  0  0  0
  182.0830  180.2950  138.7650 C   0  0  0  0  0  0  0  0  0  0  0  0
  183.4190  180.1300  139.1300 C   0  0  0  0  0  3  0  0  0  0  0  0
  183.8320  178.9380  139.7370 C   0  0  0  0  0  0  0  0  0  0  0  0
  181.5550  178.1280  139.5790 C   0  0  0  0  0  0  0  0  0  0  0  0
  181.1870  179.3000  138.9960 N   0  0  0  0  0  0  0  0  0  0  0  0
  183.2570  176.7330  140.5010 F   0  0  0  0  0  0  0  0  0  0  0  0
  182.8860  177.9220  139.9600 C   0  0  0  0  0  0  0  0  0  0  0  0
  183.0340  178.7340  144.0090 C   0  0  0  0  0  1  0  0  0  0  0  0
  185.4970  178.7960  143.8770 C   0  0  0  0  0  2  0  0  0  0  0  0
  184.9460  179.4330  142.6140 C   0  0  2  0  0  3  0  0  0  0  0  0
  184.2420  178.2410  143.2420 C   0  0  2  0  0  3  0  0  0  0  0  0
  1  2  1  0  0  0  0
  3 12  1  0  0  0  0
  4 12  2  0  0  0  0
  4  1  1  0  0  0  0
  5  2  1  0  0  0  0
  6  7  1  0  0  0  0
  7  1  2  0  0  0  0
  7  8  1  0  0  0  0
  8  5  2  0  0  0  0
  9 10  2  0  0  0  0
  9  3  1  0  0  0  0
 10  4  1  0  0  0  0
 11 10  1  0  0  0  0
 11  6  2  0  0  0  0
 13 15  1  0  0  0  0
 15 19  2  0  0  0  0
 15 16  1  0  0  0  0
 16 17  2  0  0  0  0
 17 21  1  0  0  0  0
 17  8  1  0  0  0  0
 18 14  1  0  0  0  0
 18 21  2  0  0  0  0
 19 18  1  0  0  0  0
 21 20  1  0  0  0  0
 24  5  1  6  0  0  0
 24 25  1  0  0  0  0
 24 23  1  0  0  0  0
 25 23  1  0  0  0  0
 25 22  1  1  0  0  0
M  END
>  <MODEL>
9

>  <REMARK>
 VINA RESULT:      -6.8      4.780      7.852
  Name = 
  2 active torsions:
  status: ('A' for Active; 'I' for Inactive)
    1  A    between atoms: C_11  and  C_12
    2  A    between atoms: C_13  and  C_17
                            x       y       z     vdW  Elec       q    Type
                         _______ _______ _______ _____ _____    ______ ____

>  <TORSDO>
F 2

$$$$
