=
 OpenBabel11042411373D

 57 61  0  0  1  0  0  0  0  0999 V2000
  187.7850  177.3040  138.7970 C   0  0  0  0  0  3  0  0  0  0  0  0
  188.6040  177.9550  139.6320 C   0  0  0  0  0  3  0  0  0  0  0  0
  190.0950  177.8160  139.6020 C   0  0  0  0  0  2  0  0  0  0  0  0
  190.6040  176.8480  140.6600 C   0  0  1  0  0  3  0  0  0  0  0  0
  191.9990  176.8260  140.6270 O   0  0  0  0  0  1  0  0  0  0  0  0
  191.1550  175.4980  143.1910 F   0  0  0  0  0  0  0  0  0  0  0  0
  190.2190  177.9070  144.8380 C   0  0  0  0  0  2  0  0  0  0  0  0
  189.4480  176.6960  144.3660 C   0  0  2  0  0  3  0  0  0  0  0  0
  190.9470  178.6500  143.9990 C   0  0  0  0  0  3  0  0  0  0  0  0
  190.1240  177.3210  142.0290 C   0  0  2  0  0  3  0  0  0  0  0  0
  191.0200  178.3210  142.6030 N   0  0  0  0  0  0  0  0  0  0  0  0
  189.9500  176.1560  143.0110 C   0  0  1  0  0  3  0  0  0  0  0  0
  187.9240  176.8900  144.5180 C   0  0  2  0  0  3  0  0  0  0  0  0
  187.3320  177.8750  143.5180 C   0  0  2  0  0  3  0  0  0  0  0  0
  187.5700  178.2990  144.9750 C   0  0  1  0  0  3  0  0  0  0  0  0
  185.0460  179.5150  145.6310 O   0  0  0  0  0  0  0  0  0  0  0  0
  186.1040  178.2740  146.0780 P   0  0  1  0  0  0  0  0  0  0  0  0
  185.3850  176.9440  146.0030 O   0  0  0  0  0  1  0  0  0  0  0  0
  186.6610  178.5550  147.7840 C   0  0  0  0  0  2  0  0  0  0  0  0
  188.4520  176.9580  148.2670 C   0  0  0  0  0  2  0  0  0  0  0  0
  188.1590  178.3460  147.8720 C   0  0  2  0  0  3  0  0  0  0  0  0
  188.4980  178.0110  149.1920 O   0  0  0  0  0  0  0  0  0  0  0  0
  185.9100  177.4640  143.1580 C   0  0  0  0  0  2  0  0  0  0  0  0
  185.1650  178.6270  142.5120 C   0  0  2  0  0  3  0  0  0  0  0  0
  183.8180  178.3000  142.3100 O   0  0  0  0  0  0  0  0  0  0  0  0
  183.1090  179.1790  143.1340 C   0  0  0  0  0  1  0  0  0  0  0  0
  185.8240  179.0260  141.1900 C   0  0  0  0  0  2  0  0  0  0  0  0
  184.8630  179.0310  140.0480 C   0  0  0  0  0  0  0  0  0  0  0  0
  184.5570  180.1120  139.4850 O   0  0  0  0  0  0  0  0  0  0  0  0
  184.2730  177.8450  139.6350 O   0  0  0  0  0  1  0  0  0  0  0  0
  188.3710  176.2350  137.4710 S   0  0  0  0  0  0  0  0  0  0  0  0
  186.7720  176.1170  136.5780 C   0  0  2  0  0  3  0  0  0  0  0  0
  185.2230  172.0480  136.6720 C   0  0  0  0  0  2  0  0  0  0  0  0
  186.7390  173.7080  135.5480 C   0  0  0  0  0  2  0  0  0  0  0  0
  185.8300  172.4960  135.3440 C   0  0  0  0  0  2  0  0  0  0  0  0
  184.3680  173.1780  137.2550 C   0  0  1  0  0  3  0  0  0  0  0  0
  186.1740  174.7430  136.5000 C   0  0  0  0  0  0  0  0  0  0  0  0
  185.1430  174.4660  137.3160 C   0  0  0  0  0  3  0  0  0  0  0  0
  183.1160  173.4080  136.4170 C   0  0  0  0  0  2  0  0  0  0  0  0
  181.8500  173.2740  137.2540 C   0  0  0  0  0  2  0  0  0  0  0  0
  180.8720  174.0900  135.1380 C   0  0  0  0  0  1  0  0  0  0  0  0
  180.6340  174.0240  136.6460 C   0  0  2  0  0  0  0  0  0  0  0  0
  182.0980  177.2120  136.8390 C   0  0  0  0  0  2  0  0  0  0  0  0
  179.9970  176.3590  136.2040 O   0  0  0  0  0  0  0  0  0  0  0  0
  180.7450  177.5440  136.2800 C   0  0  0  0  0  2  0  0  0  0  0  0
  180.4770  175.4910  137.2140 C   0  0  2  0  0  0  0  0  0  0  0  0
  181.8160  176.0330  137.7060 C   0  0  0  0  0  2  0  0  0  0  0  0
  179.5260  175.5320  138.4260 C   0  0  0  0  0  2  0  0  0  0  0  0
  179.7920  176.6460  140.6190 C   0  0  0  0  0  1  0  0  0  0  0  0
  179.8470  174.1830  140.4920 C   0  0  0  0  0  1  0  0  0  0  0  0
  180.2240  175.4650  139.7790 C   0  0  0  0  0  3  0  0  0  0  0  0
  179.4430  173.2660  136.8030 O   0  0  0  0  0  0  0  0  0  0  0  0
  179.7700  171.3990  135.3590 C   0  0  0  0  0  1  0  0  0  0  0  0
  179.7120  171.8870  136.7910 C   0  0  0  0  0  2  0  0  0  0  0  0
  187.8240  177.0750  134.6430 O   0  0  0  0  0  0  0  0  0  0  0  0
  185.5590  177.3360  134.7730 O   0  0  0  0  0  1  0  0  0  0  0  0
  186.7580  176.8570  135.2750 C   0  0  0  0  0  0  0  0  0  0  0  0
  1  2  2  0  0  0  0
  3  2  1  0  0  0  0
  3  4  1  0  0  0  0
  4  5  1  1  0  0  0
  8  7  1  6  0  0  0
  9  7  1  0  0  0  0
 10  4  1  6  0  0  0
 10 11  1  0  0  0  0
 10 12  1  0  0  0  0
 11  9  2  0  0  0  0
 12  6  1  1  0  0  0
 12  8  1  0  0  0  0
 13  8  1  6  0  0  0
 13 15  1  0  0  0  0
 14 23  1  1  0  0  0
 14 13  1  0  0  0  0
 14 15  1  0  0  0  0
 15 17  1  1  0  0  0
 17 16  2  6  0  0  0
 17 19  1  0  0  0  0
 18 17  1  0  0  0  0
 20 22  1  0  0  0  0
 21 19  1  1  0  0  0
 21 20  1  0  0  0  0
 21 22  1  0  0  0  0
 24 27  1  6  0  0  0
 24 23  1  0  0  0  0
 25 24  1  0  0  0  0
 25 26  1  0  0  0  0
 28 27  1  0  0  0  0
 29 28  2  0  0  0  0
 30 28  1  0  0  0  0
 31  1  1  0  0  0  0
 32 57  1  6  0  0  0
 32 31  1  0  0  0  0
 33 36  1  0  0  0  0
 34 37  1  0  0  0  0
 35 34  1  0  0  0  0
 35 33  1  0  0  0  0
 36 39  1  6  0  0  0
 36 38  1  0  0  0  0
 37 32  1  0  0  0  0
 37 38  2  0  0  0  0
 39 40  1  0  0  0  0
 42 41  1  6  0  0  0
 42 52  1  0  0  0  0
 42 46  1  0  0  0  0
 42 40  1  0  0  0  0
 43 47  1  0  0  0  0
 44 45  1  0  0  0  0
 44 46  1  0  0  0  0
 45 43  1  0  0  0  0
 46 47  1  0  0  0  0
 46 48  1  1  0  0  0
 48 51  1  0  0  0  0
 51 50  1  0  0  0  0
 51 49  1  0  0  0  0
 53 54  1  0  0  0  0
 54 52  1  0  0  0  0
 55 57  2  0  0  0  0
 56 57  1  0  0  0  0
M  END
>  <MODEL>
1

>  <REMARK>
 VINA RESULT:      -5.8      0.000      0.000
  Name = 
  24 active torsions:
  status: ('A' for Active; 'I' for Inactive)
    1  A    between atoms: C_1  and  C_29
    2  A    between atoms: C_5  and  C_18
    3  A    between atoms: C_5  and  C_34
    4  A    between atoms: C_7  and  C_15
    5  A    between atoms: C_7  and  C_27
    6  A    between atoms: S_11  and  C_13
    7  A    between atoms: S_11  and  C_52
    8  A    between atoms: C_15  and  C_55
    9  A    between atoms: C_16  and  O_38
   10  A    between atoms: P_17  and  C_44
   11  A    between atoms: P_17  and  C_57
   12  A    between atoms: C_18  and  C_41
   13  A    between atoms: O_19  and  C_30
   14  A    between atoms: C_23  and  C_25
   15  A    between atoms: C_28  and  C_39
   16  A    between atoms: C_29  and  C_30
   17  A    between atoms: C_30  and  C_39
   18  A    between atoms: C_31  and  C_52
   19  A    between atoms: C_37  and  C_42
   20  A    between atoms: O_38  and  C_55
   21  A    between atoms: C_42  and  C_54
   22  A    between atoms: C_46  and  C_57
   23  A    between atoms: C_48  and  C_52
   24  A    between atoms: C_54  and  C_55
                            x       y       z     vdW  Elec       q    Type
                         _______ _______ _______ _____ _____    ______ ____

>  <TORSDO>
F 24

$$$$
=
 OpenBabel11042411373D

 57 61  0  0  1  0  0  0  0  0999 V2000
  189.4510  173.4170  136.9340 C   0  0  0  0  0  3  0  0  0  0  0  0
  188.4450  172.6650  136.4710 C   0  0  0  0  0  3  0  0  0  0  0  0
  187.5260  173.1010  135.3720 C   0  0  0  0  0  2  0  0  0  0  0  0
  186.0620  172.8870  135.7280 C   0  0  1  0  0  3  0  0  0  0  0  0
  185.9750  172.3970  137.0320 O   0  0  0  0  0  1  0  0  0  0  0  0
  186.5440  175.2010  137.4430 F   0  0  0  0  0  0  0  0  0  0  0  0
  184.9600  177.0690  135.6020 C   0  0  0  0  0  2  0  0  0  0  0  0
  184.5040  176.2780  136.8060 C   0  0  2  0  0  3  0  0  0  0  0  0
  185.6290  176.4980  134.5960 C   0  0  0  0  0  3  0  0  0  0  0  0
  185.3320  174.2220  135.6240 C   0  0  2  0  0  3  0  0  0  0  0  0
  185.9390  175.0970  134.6220 N   0  0  0  0  0  0  0  0  0  0  0  0
  185.2670  174.9480  136.9730 C   0  0  1  0  0  3  0  0  0  0  0  0
  182.9640  176.2170  136.9040 C   0  0  2  0  0  3  0  0  0  0  0  0
  182.4410  176.3160  138.3310 C   0  0  2  0  0  3  0  0  0  0  0  0
  182.4870  174.9580  137.6150 C   0  0  1  0  0  3  0  0  0  0  0  0
  179.6920  174.4460  138.0680 O   0  0  0  0  0  1  0  0  0  0  0  0
  180.9080  174.3650  136.8950 P   0  0  1  0  0  0  0  0  0  0  0  0
  180.5070  175.1960  135.6940 O   0  0  0  0  0  0  0  0  0  0  0  0
  181.1220  172.6360  136.3790 C   0  0  0  0  0  2  0  0  0  0  0  0
  179.6920  170.6540  136.4960 C   0  0  0  0  0  2  0  0  0  0  0  0
  180.3150  171.7300  137.2850 C   0  0  2  0  0  3  0  0  0  0  0  0
  178.9660  171.7820  136.9010 O   0  0  0  0  0  0  0  0  0  0  0  0
  181.0930  177.0260  138.3470 C   0  0  0  0  0  2  0  0  0  0  0  0
  181.2770  178.5270  138.1540 C   0  0  2  0  0  3  0  0  0  0  0  0
  181.9330  179.0900  139.2570 O   0  0  0  0  0  0  0  0  0  0  0  0
  181.7690  180.4700  139.1050 C   0  0  0  0  0  1  0  0  0  0  0  0
  179.9300  179.2140  137.9250 C   0  0  0  0  0  2  0  0  0  0  0  0
  179.5820  179.3290  136.4780 C   0  0  0  0  0  0  0  0  0  0  0  0
  178.9970  180.3540  136.0490 O   0  0  0  0  0  1  0  0  0  0  0  0
  179.8670  178.2820  135.6130 O   0  0  0  0  0  0  0  0  0  0  0  0
  189.8880  175.0200  136.2400 S   0  0  0  0  0  0  0  0  0  0  0  0
  191.6660  174.9650  136.6890 C   0  0  2  0  0  3  0  0  0  0  0  0
  192.8460  177.9260  139.6560 C   0  0  0  0  0  2  0  0  0  0  0  0
  193.5410  176.0000  138.1990 C   0  0  0  0  0  2  0  0  0  0  0  0
  193.7590  176.7070  139.5360 C   0  0  0  0  0  2  0  0  0  0  0  0
  191.3810  177.4810  139.5990 C   0  0  1  0  0  3  0  0  0  0  0  0
  192.0840  175.8870  137.7970 C   0  0  0  0  0  0  0  0  0  0  0  0
  191.1260  176.6150  138.3950 C   0  0  0  0  0  3  0  0  0  0  0  0
  190.9970  176.6960  140.8470 C   0  0  0  0  0  2  0  0  0  0  0  0
  191.4340  177.4160  142.1170 C   0  0  0  0  0  2  0  0  0  0  0  0
  190.5780  175.3510  143.1660 C   0  0  0  0  0  1  0  0  0  0  0  0
  190.7700  176.8480  143.4000 C   0  0  2  0  0  0  0  0  0  0  0  0
  187.8620  178.2230  141.9870 C   0  0  0  0  0  2  0  0  0  0  0  0
  188.3350  176.5550  143.5800 O   0  0  0  0  0  0  0  0  0  0  0  0
  187.2830  177.1640  142.8790 C   0  0  0  0  0  2  0  0  0  0  0  0
  189.3690  177.5130  143.7060 C   0  0  2  0  0  0  0  0  0  0  0  0
  189.0800  178.6510  142.7330 C   0  0  0  0  0  2  0  0  0  0  0  0
  189.3300  178.1330  145.1160 C   0  0  0  0  0  2  0  0  0  0  0  0
  188.9760  177.7400  147.5330 C   0  0  0  0  0  1  0  0  0  0  0  0
  187.0680  177.5620  145.9810 C   0  0  0  0  0  1  0  0  0  0  0  0
  188.5530  177.3180  146.1430 C   0  0  0  0  0  3  0  0  0  0  0  0
  191.6530  176.9420  144.5100 O   0  0  0  0  0  0  0  0  0  0  0  0
  192.1370  175.8990  146.5970 C   0  0  0  0  0  1  0  0  0  0  0  0
  191.8260  175.6930  145.1300 C   0  0  0  0  0  2  0  0  0  0  0  0
  192.4430  175.8450  134.5950 O   0  0  0  0  0  0  0  0  0  0  0  0
  193.5820  174.0330  135.3940 O   0  0  0  0  0  1  0  0  0  0  0  0
  192.5840  174.9880  135.5040 C   0  0  0  0  0  0  0  0  0  0  0  0
  2  1  2  0  0  0  0
  3  4  1  0  0  0  0
  3  2  1  0  0  0  0
  4  5  1  1  0  0  0
  8  7  1  6  0  0  0
  8 12  1  0  0  0  0
  9 11  2  0  0  0  0
  9  7  1  0  0  0  0
 10  4  1  1  0  0  0
 10 12  1  0  0  0  0
 11 10  1  0  0  0  0
 12  6  1  6  0  0  0
 13  8  1  1  0  0  0
 13 15  1  0  0  0  0
 13 14  1  0  0  0  0
 14 23  1  6  0  0  0
 15 17  1  6  0  0  0
 15 14  1  0  0  0  0
 17 18  2  6  0  0  0
 17 16  1  0  0  0  0
 19 17  1  0  0  0  0
 20 22  1  0  0  0  0
 20 21  1  0  0  0  0
 21 19  1  6  0  0  0
 22 21  1  0  0  0  0
 24 27  1  1  0  0  0
 24 23  1  0  0  0  0
 24 25  1  0  0  0  0
 26 25  1  0  0  0  0
 28 27  1  0  0  0  0
 29 28  1  0  0  0  0
 30 28  2  0  0  0  0
 31 32  1  0  0  0  0
 31  1  1  0  0  0  0
 32 57  1  6  0  0  0
 32 37  1  0  0  0  0
 34 35  1  0  0  0  0
 35 33  1  0  0  0  0
 36 33  1  0  0  0  0
 36 39  1  1  0  0  0
 37 34  1  0  0  0  0
 37 38  2  0  0  0  0
 38 36  1  0  0  0  0
 39 40  1  0  0  0  0
 40 42  1  0  0  0  0
 42 41  1  6  0  0  0
 42 46  1  0  0  0  0
 42 52  1  0  0  0  0
 43 47  1  0  0  0  0
 43 45  1  0  0  0  0
 44 46  1  0  0  0  0
 45 44  1  0  0  0  0
 46 48  1  1  0  0  0
 47 46  1  0  0  0  0
 48 51  1  0  0  0  0
 50 51  1  0  0  0  0
 51 49  1  0  0  0  0
 52 54  1  0  0  0  0
 54 53  1  0  0  0  0
 55 57  2  0  0  0  0
 56 57  1  0  0  0  0
M  END
>  <MODEL>
2

>  <REMARK>
 VINA RESULT:      -5.1      3.363      9.829
  Name = 
  24 active torsions:
  status: ('A' for Active; 'I' for Inactive)
    1  A    between atoms: C_1  and  C_29
    2  A    between atoms: C_5  and  C_18
    3  A    between atoms: C_5  and  C_34
    4  A    between atoms: C_7  and  C_15
    5  A    between atoms: C_7  and  C_27
    6  A    between atoms: S_11  and  C_13
    7  A    between atoms: S_11  and  C_52
    8  A    between atoms: C_15  and  C_55
    9  A    between atoms: C_16  and  O_38
   10  A    between atoms: P_17  and  C_44
   11  A    between atoms: P_17  and  C_57
   12  A    between atoms: C_18  and  C_41
   13  A    between atoms: O_19  and  C_30
   14  A    between atoms: C_23  and  C_25
   15  A    between atoms: C_28  and  C_39
   16  A    between atoms: C_29  and  C_30
   17  A    between atoms: C_30  and  C_39
   18  A    between atoms: C_31  and  C_52
   19  A    between atoms: C_37  and  C_42
   20  A    between atoms: O_38  and  C_55
   21  A    between atoms: C_42  and  C_54
   22  A    between atoms: C_46  and  C_57
   23  A    between atoms: C_48  and  C_52
   24  A    between atoms: C_54  and  C_55
                            x       y       z     vdW  Elec       q    Type
                         _______ _______ _______ _____ _____    ______ ____

>  <TORSDO>
F 24

$$$$
=
 OpenBabel11042411373D

 57 61  0  0  1  0  0  0  0  0999 V2000
  190.0890  177.3790  141.5580 C   0  0  0  0  0  3  0  0  0  0  0  0
  190.0810  176.6810  140.4150 C   0  0  0  0  0  3  0  0  0  0  0  0
  189.0080  176.8080  139.3780 C   0  0  0  0  0  2  0  0  0  0  0  0
  189.4350  177.6890  138.2130 C   0  0  1  0  0  3  0  0  0  0  0  0
  190.7770  177.4410  137.9200 O   0  0  0  0  0  1  0  0  0  0  0  0
  186.6730  178.5590  137.8380 F   0  0  0  0  0  0  0  0  0  0  0  0
  186.6770  177.7590  134.8810 C   0  0  0  0  0  3  0  0  0  0  0  0
  186.2580  176.9690  136.0980 C   0  0  2  0  0  3  0  0  0  0  0  0
  187.8650  178.3670  134.8100 C   0  0  0  0  0  3  0  0  0  0  0  0
  188.5680  177.3570  137.0030 C   0  0  2  0  0  3  0  0  0  0  0  0
  188.7950  178.2890  135.9000 N   0  0  0  0  0  2  0  0  0  0  0  0
  187.0770  177.3260  137.3560 C   0  0  1  0  0  3  0  0  0  0  0  0
  186.0870  175.4680  135.7790 C   0  0  2  0  0  3  0  0  0  0  0  0
  185.0660  174.7690  136.6680 C   0  0  2  0  0  3  0  0  0  0  0  0
  186.5700  174.5830  136.9210 C   0  0  1  0  0  3  0  0  0  0  0  0
  186.5740  171.7070  137.0030 O   0  0  0  0  0  1  0  0  0  0  0  0
  187.3190  173.0390  136.2740 P   0  0  1  0  0  0  0  0  0  0  0  0
  187.1640  172.9440  134.7700 O   0  0  0  0  0  0  0  0  0  0  0  0
  189.0860  173.0340  136.6920 C   0  0  0  0  0  2  0  0  0  0  0  0
  191.2480  173.6370  135.7170 C   0  0  0  0  0  2  0  0  0  0  0  0
  189.9110  173.0970  135.4230 C   0  0  2  0  0  3  0  0  0  0  0  0
  190.2410  174.4340  135.1570 O   0  0  0  0  0  0  0  0  0  0  0  0
  184.3700  173.6580  135.8920 C   0  0  0  0  0  2  0  0  0  0  0  0
  183.1280  173.1840  136.6360 C   0  0  2  0  0  3  0  0  0  0  0  0
  182.3550  172.3430  135.8240 O   0  0  0  0  0  0  0  0  0  0  0  0
  182.6870  171.0470  136.2330 C   0  0  0  0  0  1  0  0  0  0  0  0
  182.2960  174.3740  137.1190 C   0  0  0  0  0  2  0  0  0  0  0  0
  180.8460  174.0450  137.2550 C   0  0  0  0  0  0  0  0  0  0  0  0
  179.9970  174.6250  136.5340 O   0  0  0  0  0  0  0  0  0  0  0  0
  180.4330  173.1270  138.2090 O   0  0  0  0  0  1  0  0  0  0  0  0
  188.8530  178.6240  141.9650 S   0  0  0  0  0  0  0  0  0  0  0  0
  187.5810  177.4590  142.5920 C   0  0  2  0  0  3  0  0  0  0  0  0
  183.9130  179.5850  143.5840 C   0  0  0  0  0  2  0  0  0  0  0  0
  185.8650  178.2370  144.4120 C   0  0  0  0  0  2  0  0  0  0  0  0
  184.3850  178.5610  144.6150 C   0  0  0  0  0  2  0  0  0  0  0  0
  184.0740  179.0100  142.1730 C   0  0  1  0  0  3  0  0  0  0  0  0
  186.2630  178.0750  142.9590 C   0  0  0  0  0  0  0  0  0  0  0  0
  185.4710  178.4930  141.9570 C   0  0  0  0  0  3  0  0  0  0  0  0
  183.0950  177.8680  141.9310 C   0  0  0  0  0  2  0  0  0  0  0  0
  181.7620  178.3780  141.3960 C   0  0  0  0  0  2  0  0  0  0  0  0
  181.9660  176.3040  140.0730 C   0  0  0  0  0  1  0  0  0  0  0  0
  181.3330  177.6950  140.0710 C   0  0  2  0  0  0  0  0  0  0  0  0
  183.1810  180.4500  138.9160 C   0  0  0  0  0  2  0  0  0  0  0  0
  183.1520  178.1380  138.4750 O   0  0  0  0  0  0  0  0  0  0  0  0
  183.8340  179.3250  138.1680 C   0  0  0  0  0  2  0  0  0  0  0  0
  181.8170  178.4870  138.7920 C   0  0  2  0  0  0  0  0  0  0  0  0
  181.7670  179.9930  139.0300 C   0  0  0  0  0  2  0  0  0  0  0  0
  180.9100  178.2140  137.5770 C   0  0  0  0  0  2  0  0  0  0  0  0
  182.4070  177.5950  135.7080 C   0  0  0  0  0  1  0  0  0  0  0  0
  180.3700  178.9060  135.2480 C   0  0  0  0  0  1  0  0  0  0  0  0
  181.4870  178.6700  136.2420 C   0  0  0  0  0  3  0  0  0  0  0  0
  179.9310  177.4660  140.0510 O   0  0  0  0  0  0  0  0  0  0  0  0
  178.9310  175.3670  140.5720 C   0  0  0  0  0  1  0  0  0  0  0  0
  179.5340  176.6440  141.1190 C   0  0  0  0  0  2  0  0  0  0  0  0
  188.2700  176.8490  144.8090 O   0  0  0  0  0  1  0  0  0  0  0  0
  188.4390  175.2070  143.2290 O   0  0  0  0  0  0  0  0  0  0  0  0
  188.1040  176.4960  143.6140 C   0  0  0  0  0  0  0  0  0  0  0  0
  1 31  1  0  0  0  0
  2  1  2  0  0  0  0
  3  2  1  0  0  0  0
  4  5  1  6  0  0  0
  4  3  1  0  0  0  0
  8  7  1  6  0  0  0
  8 12  1  0  0  0  0
  9  7  2  0  0  0  0
  9 11  1  0  0  0  0
 10 12  1  0  0  0  0
 10  4  1  1  0  0  0
 11 10  1  0  0  0  0
 12  6  1  6  0  0  0
 13  8  1  1  0  0  0
 13 14  1  0  0  0  0
 13 15  1  0  0  0  0
 14 23  1  6  0  0  0
 14 15  1  0  0  0  0
 15 17  1  6  0  0  0
 17 18  2  6  0  0  0
 17 19  1  0  0  0  0
 17 16  1  0  0  0  0
 21 20  1  0  0  0  0
 21 19  1  1  0  0  0
 22 21  1  0  0  0  0
 22 20  1  0  0  0  0
 24 23  1  6  0  0  0
 24 27  1  0  0  0  0
 25 26  1  0  0  0  0
 25 24  1  0  0  0  0
 27 28  1  0  0  0  0
 28 30  1  0  0  0  0
 29 28  2  0  0  0  0
 32 31  1  1  0  0  0
 32 37  1  0  0  0  0
 32 57  1  0  0  0  0
 33 35  1  0  0  0  0
 34 35  1  0  0  0  0
 36 39  1  1  0  0  0
 36 33  1  0  0  0  0
 37 34  1  0  0  0  0
 38 36  1  0  0  0  0
 38 37  2  0  0  0  0
 40 39  1  0  0  0  0
 42 41  1  6  0  0  0
 42 40  1  0  0  0  0
 43 47  1  0  0  0  0
 44 46  1  0  0  0  0
 45 44  1  0  0  0  0
 45 43  1  0  0  0  0
 46 48  1  6  0  0  0
 46 47  1  0  0  0  0
 46 42  1  0  0  0  0
 49 51  1  0  0  0  0
 50 51  1  0  0  0  0
 51 48  1  0  0  0  0
 52 42  1  0  0  0  0
 52 54  1  0  0  0  0
 53 54  1  0  0  0  0
 56 57  2  0  0  0  0
 57 55  1  0  0  0  0
M  END
>  <MODEL>
3

>  <REMARK>
 VINA RESULT:      -5.1      3.055      8.011
  Name = 
  24 active torsions:
  status: ('A' for Active; 'I' for Inactive)
    1  A    between atoms: C_1  and  C_29
    2  A    between atoms: C_5  and  C_18
    3  A    between atoms: C_5  and  C_34
    4  A    between atoms: C_7  and  C_15
    5  A    between atoms: C_7  and  C_27
    6  A    between atoms: S_11  and  C_13
    7  A    between atoms: S_11  and  C_52
    8  A    between atoms: C_15  and  C_55
    9  A    between atoms: C_16  and  O_38
   10  A    between atoms: P_17  and  C_44
   11  A    between atoms: P_17  and  C_57
   12  A    between atoms: C_18  and  C_41
   13  A    between atoms: O_19  and  C_30
   14  A    between atoms: C_23  and  C_25
   15  A    between atoms: C_28  and  C_39
   16  A    between atoms: C_29  and  C_30
   17  A    between atoms: C_30  and  C_39
   18  A    between atoms: C_31  and  C_52
   19  A    between atoms: C_37  and  C_42
   20  A    between atoms: O_38  and  C_55
   21  A    between atoms: C_42  and  C_54
   22  A    between atoms: C_46  and  C_57
   23  A    between atoms: C_48  and  C_52
   24  A    between atoms: C_54  and  C_55
                            x       y       z     vdW  Elec       q    Type
                         _______ _______ _______ _____ _____    ______ ____

>  <TORSDO>
F 24

$$$$
=
 OpenBabel11042411373D

 57 61  0  0  1  0  0  0  0  0999 V2000
  180.6730  177.6750  139.3910 C   0  0  0  0  0  3  0  0  0  0  0  0
  181.1140  177.8380  140.6440 C   0  0  0  0  0  3  0  0  0  0  0  0
  182.5550  177.7140  141.0350 C   0  0  0  0  0  2  0  0  0  0  0  0
  183.0610  178.9490  141.7650 C   0  0  1  0  0  3  0  0  0  0  0  0
  181.9760  179.7660  142.0880 O   0  0  0  0  0  1  0  0  0  0  0  0
  184.4970  180.7260  143.5850 F   0  0  0  0  0  0  0  0  0  0  0  0
  184.6590  178.5830  145.7690 C   0  0  0  0  0  2  0  0  0  0  0  0
  185.6390  178.9240  144.6710 C   0  0  2  0  0  3  0  0  0  0  0  0
  183.3680  178.3540  145.5150 C   0  0  0  0  0  3  0  0  0  0  0  0
  183.7760  178.5080  143.0380 C   0  0  2  0  0  3  0  0  0  0  0  0
  182.8600  178.4220  144.1730 N   0  0  0  0  0  0  0  0  0  0  0  0
  184.9490  179.4320  143.3880 C   0  0  1  0  0  3  0  0  0  0  0  0
  186.7140  177.8290  144.4980 C   0  0  2  0  0  3  0  0  0  0  0  0
  188.0110  178.1270  145.2400 C   0  0  2  0  0  3  0  0  0  0  0  0
  187.9220  178.3330  143.7200 C   0  0  1  0  0  3  0  0  0  0  0  0
  187.9990  175.5080  143.1760 O   0  0  0  0  0  1  0  0  0  0  0  0
  188.6250  176.9980  142.6760 P   0  0  1  0  0  0  0  0  0  0  0  0
  188.3000  177.2180  141.2140 O   0  0  0  0  0  0  0  0  0  0  0  0
  190.4290  176.9870  142.8910 C   0  0  0  0  0  2  0  0  0  0  0  0
  192.3060  178.4190  143.5340 C   0  0  0  0  0  2  0  0  0  0  0  0
  190.9390  178.4090  142.9870 C   0  0  2  0  0  3  0  0  0  0  0  0
  191.1930  178.7150  144.3330 O   0  0  0  0  0  0  0  0  0  0  0  0
  188.6550  176.8280  145.7080 C   0  0  0  0  0  2  0  0  0  0  0  0
  188.9400  176.8830  147.2050 C   0  0  2  0  0  3  0  0  0  0  0  0
  187.9510  177.6190  147.8700 O   0  0  0  0  0  0  0  0  0  0  0  0
  188.6260  178.2680  148.9090 C   0  0  0  0  0  1  0  0  0  0  0  0
  190.3230  177.4800  147.4720 C   0  0  0  0  0  2  0  0  0  0  0  0
  191.4300  176.5250  147.1720 C   0  0  0  0  0  0  0  0  0  0  0  0
  191.5290  176.0130  146.0290 O   0  0  0  0  0  0  0  0  0  0  0  0
  192.3260  176.1690  148.1700 O   0  0  0  0  0  1  0  0  0  0  0  0
  181.7640  177.3660  137.9910 S   0  0  0  0  0  0  0  0  0  0  0  0
  181.4400  175.5640  137.8690 C   0  0  2  0  0  3  0  0  0  0  0  0
  183.8570  173.4110  134.9560 C   0  0  0  0  0  2  0  0  0  0  0  0
  182.4000  173.2870  136.9980 C   0  0  0  0  0  2  0  0  0  0  0  0
  183.6010  172.6820  136.2730 C   0  0  0  0  0  2  0  0  0  0  0  0
  184.1740  174.8840  135.2340 C   0  0  1  0  0  3  0  0  0  0  0  0
  182.3600  174.8010  136.9600 C   0  0  0  0  0  0  0  0  0  0  0  0
  183.1200  175.5080  136.1080 C   0  0  0  0  0  3  0  0  0  0  0  0
  185.5240  175.0340  135.9250 C   0  0  0  0  0  2  0  0  0  0  0  0
  186.5720  175.6180  134.9860 C   0  0  0  0  0  2  0  0  0  0  0  0
  187.9680  177.6540  134.9210 C   0  0  0  0  0  1  0  0  0  0  0  0
  187.6990  176.3840  135.7280 C   0  0  2  0  0  0  0  0  0  0  0  0
  189.0580  173.1670  136.1110 C   0  0  0  0  0  2  0  0  0  0  0  0
  189.3440  174.9460  134.5960 O   0  0  0  0  0  0  0  0  0  0  0  0
  189.7370  173.6240  134.8540 C   0  0  0  0  0  2  0  0  0  0  0  0
  189.0340  175.5450  135.8410 C   0  0  2  0  0  0  0  0  0  0  0  0
  188.8970  174.4350  136.8780 C   0  0  0  0  0  2  0  0  0  0  0  0
  190.2170  176.4190  136.3020 C   0  0  0  0  0  2  0  0  0  0  0  0
  192.2600  176.5470  137.6910 C   0  0  0  0  0  1  0  0  0  0  0  0
  190.0520  176.4540  138.7840 C   0  0  0  0  0  1  0  0  0  0  0  0
  190.8660  175.9670  137.6040 C   0  0  0  0  0  3  0  0  0  0  0  0
  187.2510  176.8370  136.9980 O   0  0  0  0  0  0  0  0  0  0  0  0
  185.7870  178.3560  138.1050 C   0  0  0  0  0  1  0  0  0  0  0  0
  186.6880  178.1210  136.9110 C   0  0  0  0  0  2  0  0  0  0  0  0
  179.1500  175.4790  138.5850 O   0  0  0  0  0  1  0  0  0  0  0  0
  179.5780  174.6020  136.5190 O   0  0  0  0  0  0  0  0  0  0  0  0
  179.9910  175.2270  137.6840 C   0  0  0  0  0  0  0  0  0  0  0  0
  1  2  2  0  0  0  0
  2  3  1  0  0  0  0
  3  4  1  0  0  0  0
  4  5  1  1  0  0  0
  8  7  1  1  0  0  0
  9  7  1  0  0  0  0
 10  4  1  6  0  0  0
 10 12  1  0  0  0  0
 10 11  1  0  0  0  0
 11  9  2  0  0  0  0
 12  6  1  1  0  0  0
 12  8  1  0  0  0  0
 13  8  1  1  0  0  0
 13 14  1  0  0  0  0
 14 23  1  6  0  0  0
 15 17  1  6  0  0  0
 15 13  1  0  0  0  0
 15 14  1  0  0  0  0
 17 18  2  6  0  0  0
 17 19  1  0  0  0  0
 17 16  1  0  0  0  0
 20 22  1  0  0  0  0
 21 19  1  1  0  0  0
 21 20  1  0  0  0  0
 21 22  1  0  0  0  0
 24 23  1  6  0  0  0
 24 27  1  0  0  0  0
 24 25  1  0  0  0  0
 25 26  1  0  0  0  0
 28 27  1  0  0  0  0
 28 30  1  0  0  0  0
 29 28  2  0  0  0  0
 31  1  1  0  0  0  0
 32 57  1  6  0  0  0
 32 31  1  0  0  0  0
 33 36  1  0  0  0  0
 33 35  1  0  0  0  0
 35 34  1  0  0  0  0
 36 39  1  1  0  0  0
 36 38  1  0  0  0  0
 37 34  1  0  0  0  0
 37 32  1  0  0  0  0
 38 37  2  0  0  0  0
 40 42  1  0  0  0  0
 40 39  1  0  0  0  0
 42 41  1  6  0  0  0
 42 46  1  0  0  0  0
 42 52  1  0  0  0  0
 43 47  1  0  0  0  0
 44 45  1  0  0  0  0
 44 46  1  0  0  0  0
 45 43  1  0  0  0  0
 46 48  1  1  0  0  0
 46 47  1  0  0  0  0
 48 51  1  0  0  0  0
 51 49  1  0  0  0  0
 51 50  1  0  0  0  0
 54 52  1  0  0  0  0
 54 53  1  0  0  0  0
 56 57  2  0  0  0  0
 57 55  1  0  0  0  0
M  END
>  <MODEL>
4

>  <REMARK>
 VINA RESULT:      -5.1      2.900      7.406
  Name = 
  24 active torsions:
  status: ('A' for Active; 'I' for Inactive)
    1  A    between atoms: C_1  and  C_29
    2  A    between atoms: C_5  and  C_18
    3  A    between atoms: C_5  and  C_34
    4  A    between atoms: C_7  and  C_15
    5  A    between atoms: C_7  and  C_27
    6  A    between atoms: S_11  and  C_13
    7  A    between atoms: S_11  and  C_52
    8  A    between atoms: C_15  and  C_55
    9  A    between atoms: C_16  and  O_38
   10  A    between atoms: P_17  and  C_44
   11  A    between atoms: P_17  and  C_57
   12  A    between atoms: C_18  and  C_41
   13  A    between atoms: O_19  and  C_30
   14  A    between atoms: C_23  and  C_25
   15  A    between atoms: C_28  and  C_39
   16  A    between atoms: C_29  and  C_30
   17  A    between atoms: C_30  and  C_39
   18  A    between atoms: C_31  and  C_52
   19  A    between atoms: C_37  and  C_42
   20  A    between atoms: O_38  and  C_55
   21  A    between atoms: C_42  and  C_54
   22  A    between atoms: C_46  and  C_57
   23  A    between atoms: C_48  and  C_52
   24  A    between atoms: C_54  and  C_55
                            x       y       z     vdW  Elec       q    Type
                         _______ _______ _______ _____ _____    ______ ____

>  <TORSDO>
F 24

$$$$
=
 OpenBabel11042411373D

 57 61  0  0  1  0  0  0  0  0999 V2000
  190.5040  176.9300  143.8170 C   0  0  0  0  0  3  0  0  0  0  0  0
  190.3060  176.3680  142.6190 C   0  0  0  0  0  3  0  0  0  0  0  0
  189.3480  176.9070  141.6020 C   0  0  0  0  0  2  0  0  0  0  0  0
  190.0140  177.8890  140.6490 C   0  0  1  0  0  3  0  0  0  0  0  0
  191.4000  177.7610  140.7550 O   0  0  0  0  0  1  0  0  0  0  0  0
  187.2760  178.1120  139.6570 F   0  0  0  0  0  0  0  0  0  0  0  0
  188.1680  177.8580  136.7360 C   0  0  0  0  0  3  0  0  0  0  0  0
  187.7230  176.7930  137.7100 C   0  0  2  0  0  3  0  0  0  0  0  0
  189.1230  178.7400  137.0450 C   0  0  0  0  0  3  0  0  0  0  0  0
  189.5690  177.5700  139.2260 C   0  0  2  0  0  3  0  0  0  0  0  0
  189.7690  178.7040  138.3270 N   0  0  0  0  0  2  0  0  0  0  0  0
  188.1060  177.1160  139.1690 C   0  0  1  0  0  3  0  0  0  0  0  0
  188.0540  175.3730  137.2000 C   0  0  2  0  0  3  0  0  0  0  0  0
  188.7360  175.3590  135.8380 C   0  0  2  0  0  3  0  0  0  0  0  0
  187.2460  175.0080  135.9620 C   0  0  1  0  0  3  0  0  0  0  0  0
  187.5020  172.4900  134.5940 O   0  0  0  0  0  0  0  0  0  0  0  0
  186.8280  173.2220  135.9620 P   0  0  1  0  0  0  0  0  0  0  0  0
  187.3480  172.5380  137.2100 O   0  0  0  0  0  1  0  0  0  0  0  0
  185.0210  173.0520  135.8990 C   0  0  0  0  0  2  0  0  0  0  0  0
  182.9080  174.1710  136.4200 C   0  0  0  0  0  2  0  0  0  0  0  0
  184.3710  174.3300  136.3870 C   0  0  2  0  0  3  0  0  0  0  0  0
  183.5510  174.8430  135.3710 O   0  0  0  0  0  0  0  0  0  0  0  0
  189.7010  174.1830  135.7480 C   0  0  0  0  0  2  0  0  0  0  0  0
  190.8420  174.5010  134.7890 C   0  0  2  0  0  3  0  0  0  0  0  0
  191.6570  173.3760  134.6000 O   0  0  0  0  0  0  0  0  0  0  0  0
  190.9740  172.3310  135.2290 C   0  0  0  0  0  1  0  0  0  0  0  0
  191.6700  175.6810  135.3020 C   0  0  0  0  0  2  0  0  0  0  0  0
  192.9460  175.2510  135.9470 C   0  0  0  0  0  0  0  0  0  0  0  0
  194.0480  175.6340  135.4830 O   0  0  0  0  0  0  0  0  0  0  0  0
  192.9150  174.3910  137.0350 O   0  0  0  0  0  1  0  0  0  0  0  0
  189.7060  178.4590  144.3360 S   0  0  0  0  0  0  0  0  0  0  0  0
  188.2140  177.6790  145.0640 C   0  0  2  0  0  3  0  0  0  0  0  0
  184.5730  179.7820  143.9300 C   0  0  0  0  0  2  0  0  0  0  0  0
  185.7630  178.3940  145.6540 C   0  0  0  0  0  2  0  0  0  0  0  0
  184.4140  178.7170  145.0130 C   0  0  0  0  0  2  0  0  0  0  0  0
  185.4990  179.2600  142.8260 C   0  0  1  0  0  3  0  0  0  0  0  0
  186.9020  178.2870  144.6600 C   0  0  0  0  0  0  0  0  0  0  0  0
  186.7900  178.7450  143.4020 C   0  0  0  0  0  3  0  0  0  0  0  0
  184.8380  178.1340  142.0420 C   0  0  0  0  0  2  0  0  0  0  0  0
  184.2030  178.6450  140.7550 C   0  0  0  0  0  2  0  0  0  0  0  0
  182.8540  176.6030  140.4280 C   0  0  0  0  0  1  0  0  0  0  0  0
  182.7570  178.1240  140.5390 C   0  0  2  0  0  0  0  0  0  0  0  0
  182.3550  177.6810  137.0760 C   0  0  0  0  0  2  0  0  0  0  0  0
  180.9140  177.9790  138.9150 O   0  0  0  0  0  0  0  0  0  0  0  0
  180.9260  177.7340  137.5330 C   0  0  0  0  0  2  0  0  0  0  0  0
  182.0910  178.7010  139.2260 C   0  0  2  0  0  0  0  0  0  0  0  0
  183.0410  178.5910  138.0370 C   0  0  0  0  0  2  0  0  0  0  0  0
  181.7560  180.1990  139.3700 C   0  0  0  0  0  2  0  0  0  0  0  0
  179.7420  180.7510  138.0440 C   0  0  0  0  0  1  0  0  0  0  0  0
  181.6450  182.3200  138.0730 C   0  0  0  0  0  1  0  0  0  0  0  0
  181.2500  180.8580  138.0930 C   0  0  0  0  0  3  0  0  0  0  0  0
  181.9560  178.3650  141.6870 O   0  0  0  0  0  0  0  0  0  0  0  0
  179.8090  178.2340  142.7140 C   0  0  0  0  0  1  0  0  0  0  0  0
  180.6050  178.0720  141.4350 C   0  0  0  0  0  2  0  0  0  0  0  0
  188.3240  176.2430  146.9860 O   0  0  0  0  0  0  0  0  0  0  0  0
  188.4200  178.4860  147.4140 O   0  0  0  0  0  1  0  0  0  0  0  0
  188.3320  177.4180  146.5350 C   0  0  0  0  0  0  0  0  0  0  0  0
  1 31  1  0  0  0  0
  2  1  2  0  0  0  0
  3  2  1  0  0  0  0
  4  5  1  6  0  0  0
  4  3  1  0  0  0  0
  7  9  2  0  0  0  0
  8  7  1  6  0  0  0
  8 12  1  0  0  0  0
  9 11  1  0  0  0  0
 10  4  1  1  0  0  0
 11 10  1  0  0  0  0
 12 10  1  0  0  0  0
 12  6  1  6  0  0  0
 13  8  1  6  0  0  0
 14 23  1  1  0  0  0
 14 15  1  0  0  0  0
 14 13  1  0  0  0  0
 15 17  1  1  0  0  0
 15 13  1  0  0  0  0
 17 16  2  6  0  0  0
 17 18  1  0  0  0  0
 19 17  1  0  0  0  0
 21 19  1  6  0  0  0
 21 20  1  0  0  0  0
 22 21  1  0  0  0  0
 22 20  1  0  0  0  0
 24 27  1  1  0  0  0
 24 23  1  0  0  0  0
 25 24  1  0  0  0  0
 25 26  1  0  0  0  0
 27 28  1  0  0  0  0
 28 30  1  0  0  0  0
 29 28  2  0  0  0  0
 32 31  1  1  0  0  0
 32 57  1  0  0  0  0
 33 35  1  0  0  0  0
 35 34  1  0  0  0  0
 36 39  1  1  0  0  0
 36 38  1  0  0  0  0
 36 33  1  0  0  0  0
 37 32  1  0  0  0  0
 37 34  1  0  0  0  0
 38 37  2  0  0  0  0
 40 39  1  0  0  0  0
 42 41  1  6  0  0  0
 42 40  1  0  0  0  0
 42 52  1  0  0  0  0
 43 45  1  0  0  0  0
 43 47  1  0  0  0  0
 44 46  1  0  0  0  0
 45 44  1  0  0  0  0
 46 48  1  1  0  0  0
 46 42  1  0  0  0  0
 47 46  1  0  0  0  0
 49 51  1  0  0  0  0
 50 51  1  0  0  0  0
 51 48  1  0  0  0  0
 54 52  1  0  0  0  0
 54 53  1  0  0  0  0
 57 55  2  0  0  0  0
 57 56  1  0  0  0  0
M  END
>  <MODEL>
5

>  <REMARK>
 VINA RESULT:      -5.0      3.397      8.710
  Name = 
  24 active torsions:
  status: ('A' for Active; 'I' for Inactive)
    1  A    between atoms: C_1  and  C_29
    2  A    between atoms: C_5  and  C_18
    3  A    between atoms: C_5  and  C_34
    4  A    between atoms: C_7  and  C_15
    5  A    between atoms: C_7  and  C_27
    6  A    between atoms: S_11  and  C_13
    7  A    between atoms: S_11  and  C_52
    8  A    between atoms: C_15  and  C_55
    9  A    between atoms: C_16  and  O_38
   10  A    between atoms: P_17  and  C_44
   11  A    between atoms: P_17  and  C_57
   12  A    between atoms: C_18  and  C_41
   13  A    between atoms: O_19  and  C_30
   14  A    between atoms: C_23  and  C_25
   15  A    between atoms: C_28  and  C_39
   16  A    between atoms: C_29  and  C_30
   17  A    between atoms: C_30  and  C_39
   18  A    between atoms: C_31  and  C_52
   19  A    between atoms: C_37  and  C_42
   20  A    between atoms: O_38  and  C_55
   21  A    between atoms: C_42  and  C_54
   22  A    between atoms: C_46  and  C_57
   23  A    between atoms: C_48  and  C_52
   24  A    between atoms: C_54  and  C_55
                            x       y       z     vdW  Elec       q    Type
                         _______ _______ _______ _____ _____    ______ ____

>  <TORSDO>
F 24

$$$$
=
 OpenBabel11042411373D

 57 61  0  0  1  0  0  0  0  0999 V2000
  184.0490  178.1190  139.0710 C   0  0  0  0  0  3  0  0  0  0  0  0
  185.1150  177.6730  139.7470 C   0  0  0  0  0  3  0  0  0  0  0  0
  186.0580  178.5710  140.4860 C   0  0  0  0  0  2  0  0  0  0  0  0
  187.5110  178.1610  140.2940 C   0  0  1  0  0  3  0  0  0  0  0  0
  188.0970  178.9900  139.3350 O   0  0  0  0  0  1  0  0  0  0  0  0
  188.8360  175.9910  141.7310 F   0  0  0  0  0  0  0  0  0  0  0  0
  190.2860  177.9320  143.6060 C   0  0  0  0  0  2  0  0  0  0  0  0
  188.9600  177.2290  143.7750 C   0  0  2  0  0  3  0  0  0  0  0  0
  190.5740  178.6370  142.5080 C   0  0  0  0  0  3  0  0  0  0  0  0
  188.2420  178.3090  141.6250 C   0  0  2  0  0  3  0  0  0  0  0  0
  189.6220  178.7530  141.4400 N   0  0  0  0  0  0  0  0  0  0  0  0
  188.2220  177.0100  142.4390 C   0  0  1  0  0  3  0  0  0  0  0  0
  188.1360  177.8250  144.9380 C   0  0  2  0  0  3  0  0  0  0  0  0
  187.8370  176.8250  146.0470 C   0  0  2  0  0  3  0  0  0  0  0  0
  186.7490  177.2040  145.0310 C   0  0  1  0  0  3  0  0  0  0  0  0
  184.3310  177.6830  146.5170 O   0  0  0  0  0  1  0  0  0  0  0  0
  185.5180  178.4470  145.5850 P   0  0  1  0  0  0  0  0  0  0  0  0
  186.1740  179.5420  146.4000 O   0  0  0  0  0  0  0  0  0  0  0  0
  184.7400  179.1820  144.1170 C   0  0  0  0  0  2  0  0  0  0  0  0
  182.6970  179.2060  142.7710 C   0  0  0  0  0  2  0  0  0  0  0  0
  183.2910  178.7510  144.0390 C   0  0  2  0  0  3  0  0  0  0  0  0
  182.4760  179.8910  143.9740 O   0  0  0  0  0  0  0  0  0  0  0  0
  187.7820  177.5370  147.3930 C   0  0  0  0  0  2  0  0  0  0  0  0
  189.1200  177.4220  148.1130 C   0  0  2  0  0  3  0  0  0  0  0  0
  189.1410  178.2380  149.2520 O   0  0  0  0  0  0  0  0  0  0  0  0
  187.7960  178.4010  149.5990 C   0  0  0  0  0  1  0  0  0  0  0  0
  190.2740  177.7830  147.1760 C   0  0  0  0  0  2  0  0  0  0  0  0
  191.4080  176.8150  147.2620 C   0  0  0  0  0  0  0  0  0  0  0  0
  191.5160  175.8920  146.4170 O   0  0  0  0  0  0  0  0  0  0  0  0
  192.3210  176.9120  148.3010 O   0  0  0  0  0  1  0  0  0  0  0  0
  183.5580  179.8510  139.0290 S   0  0  0  0  0  0  0  0  0  0  0  0
  181.7490  179.5530  138.9530 C   0  0  2  0  0  3  0  0  0  0  0  0
  180.3500  176.9390  135.7640 C   0  0  0  0  0  2  0  0  0  0  0  0
  179.9710  177.8390  138.0790 C   0  0  0  0  0  2  0  0  0  0  0  0
  179.8120  176.6290  137.1590 C   0  0  0  0  0  2  0  0  0  0  0  0
  181.8440  177.2680  135.8470 C   0  0  1  0  0  3  0  0  0  0  0  0
  181.3000  178.5510  137.9300 C   0  0  0  0  0  0  0  0  0  0  0  0
  182.1070  178.3320  136.8780 C   0  0  0  0  0  3  0  0  0  0  0  0
  182.6580  176.0320  136.2130 C   0  0  0  0  0  2  0  0  0  0  0  0
  183.8830  175.8850  135.3190 C   0  0  0  0  0  2  0  0  0  0  0  0
  184.5480  174.5310  137.2740 C   0  0  0  0  0  1  0  0  0  0  0  0
  184.8600  174.7780  135.7980 C   0  0  2  0  0  0  0  0  0  0  0  0
  187.1650  177.4130  136.0900 C   0  0  0  0  0  2  0  0  0  0  0  0
  187.0080  175.2130  136.9140 O   0  0  0  0  0  0  0  0  0  0  0  0
  187.7900  176.3770  136.9770 C   0  0  0  0  0  2  0  0  0  0  0  0
  186.3760  175.1960  135.6480 C   0  0  2  0  0  0  0  0  0  0  0  0
  186.5010  176.5900  135.0400 C   0  0  0  0  0  2  0  0  0  0  0  0
  187.1370  174.2460  134.7030 C   0  0  0  0  0  2  0  0  0  0  0  0
  187.6300  171.9400  135.4490 C   0  0  0  0  0  1  0  0  0  0  0  0
  189.4640  173.3660  134.6230 C   0  0  0  0  0  1  0  0  0  0  0  0
  188.1610  173.3540  135.3950 C   0  0  0  0  0  3  0  0  0  0  0  0
  184.5850  173.5450  135.1470 O   0  0  0  0  0  0  0  0  0  0  0  0
  182.5480  172.3210  135.3250 C   0  0  0  0  0  1  0  0  0  0  0  0
  183.8630  172.6770  135.9850 C   0  0  0  0  0  2  0  0  0  0  0  0
  181.0710  181.6790  138.0650 O   0  0  0  0  0  0  0  0  0  0  0  0
  180.0400  181.0360  140.0000 O   0  0  0  0  0  1  0  0  0  0  0  0
  180.9340  180.8110  138.9660 C   0  0  0  0  0  0  0  0  0  0  0  0
  1  2  2  0  0  0  0
  2  3  1  0  0  0  0
  4  5  1  6  0  0  0
  4  3  1  0  0  0  0
  8  7  1  6  0  0  0
  9  7  1  0  0  0  0
 10  4  1  6  0  0  0
 10 12  1  0  0  0  0
 11 10  1  0  0  0  0
 11  9  2  0  0  0  0
 12  6  1  6  0  0  0
 12  8  1  0  0  0  0
 13  8  1  6  0  0  0
 13 15  1  0  0  0  0
 13 14  1  0  0  0  0
 14 23  1  1  0  0  0
 15 17  1  1  0  0  0
 15 14  1  0  0  0  0
 17 18  2  1  0  0  0
 17 16  1  0  0  0  0
 19 17  1  0  0  0  0
 20 22  1  0  0  0  0
 20 21  1  0  0  0  0
 21 19  1  6  0  0  0
 22 21  1  0  0  0  0
 23 24  1  0  0  0  0
 24 27  1  6  0  0  0
 24 25  1  0  0  0  0
 25 26  1  0  0  0  0
 27 28  1  0  0  0  0
 28 30  1  0  0  0  0
 29 28  2  0  0  0  0
 31  1  1  0  0  0  0
 32 57  1  6  0  0  0
 32 31  1  0  0  0  0
 33 36  1  0  0  0  0
 33 35  1  0  0  0  0
 35 34  1  0  0  0  0
 36 39  1  1  0  0  0
 36 38  1  0  0  0  0
 37 34  1  0  0  0  0
 37 32  1  0  0  0  0
 38 37  2  0  0  0  0
 40 42  1  0  0  0  0
 40 39  1  0  0  0  0
 42 41  1  1  0  0  0
 43 45  1  0  0  0  0
 44 45  1  0  0  0  0
 46 48  1  6  0  0  0
 46 42  1  0  0  0  0
 46 44  1  0  0  0  0
 47 46  1  0  0  0  0
 47 43  1  0  0  0  0
 48 51  1  0  0  0  0
 50 51  1  0  0  0  0
 51 49  1  0  0  0  0
 52 42  1  0  0  0  0
 52 54  1  0  0  0  0
 53 54  1  0  0  0  0
 55 57  2  0  0  0  0
 57 56  1  0  0  0  0
M  END
>  <MODEL>
6

>  <REMARK>
 VINA RESULT:      -4.4      2.416      6.224
  Name = 
  24 active torsions:
  status: ('A' for Active; 'I' for Inactive)
    1  A    between atoms: C_1  and  C_29
    2  A    between atoms: C_5  and  C_18
    3  A    between atoms: C_5  and  C_34
    4  A    between atoms: C_7  and  C_15
    5  A    between atoms: C_7  and  C_27
    6  A    between atoms: S_11  and  C_13
    7  A    between atoms: S_11  and  C_52
    8  A    between atoms: C_15  and  C_55
    9  A    between atoms: C_16  and  O_38
   10  A    between atoms: P_17  and  C_44
   11  A    between atoms: P_17  and  C_57
   12  A    between atoms: C_18  and  C_41
   13  A    between atoms: O_19  and  C_30
   14  A    between atoms: C_23  and  C_25
   15  A    between atoms: C_28  and  C_39
   16  A    between atoms: C_29  and  C_30
   17  A    between atoms: C_30  and  C_39
   18  A    between atoms: C_31  and  C_52
   19  A    between atoms: C_37  and  C_42
   20  A    between atoms: O_38  and  C_55
   21  A    between atoms: C_42  and  C_54
   22  A    between atoms: C_46  and  C_57
   23  A    between atoms: C_48  and  C_52
   24  A    between atoms: C_54  and  C_55
                            x       y       z     vdW  Elec       q    Type
                         _______ _______ _______ _____ _____    ______ ____

>  <TORSDO>
F 24

$$$$
=
 OpenBabel11042411373D

 57 61  0  0  1  0  0  0  0  0999 V2000
  184.6390  178.7920  140.5250 C   0  0  0  0  0  3  0  0  0  0  0  0
  185.4440  178.7510  139.4560 C   0  0  0  0  0  3  0  0  0  0  0  0
  184.9670  178.4200  138.0750 C   0  0  0  0  0  2  0  0  0  0  0  0
  186.1180  178.1110  137.1280 C   0  0  1  0  0  3  0  0  0  0  0  0
  187.3240  178.4230  137.7580 O   0  0  0  0  0  1  0  0  0  0  0  0
  187.1630  176.9410  134.6650 F   0  0  0  0  0  0  0  0  0  0  0  0
  186.9960  174.0940  135.7850 C   0  0  0  0  0  3  0  0  0  0  0  0
  185.9890  174.8790  134.9790 C   0  0  2  0  0  3  0  0  0  0  0  0
  187.5550  174.5920  136.8920 C   0  0  0  0  0  3  0  0  0  0  0  0
  186.0820  176.6270  136.7790 C   0  0  2  0  0  3  0  0  0  0  0  0
  187.2120  175.9050  137.3600 N   0  0  0  0  0  2  0  0  0  0  0  0
  186.0410  176.3940  135.2650 C   0  0  1  0  0  3  0  0  0  0  0  0
  184.5950  174.2140  134.9940 C   0  0  2  0  0  3  0  0  0  0  0  0
  183.6040  174.8980  135.9260 C   0  0  2  0  0  3  0  0  0  0  0  0
  184.2780  173.5830  136.3430 C   0  0  1  0  0  3  0  0  0  0  0  0
  184.2300  170.8730  135.3750 O   0  0  0  0  0  0  0  0  0  0  0  0
  183.2840  172.0560  136.1280 P   0  0  1  0  0  0  0  0  0  0  0  0
  182.7880  171.5340  137.4610 O   0  0  0  0  0  1  0  0  0  0  0  0
  181.8580  172.4400  135.0710 C   0  0  0  0  0  2  0  0  0  0  0  0
  179.9170  171.0270  134.6000 C   0  0  0  0  0  2  0  0  0  0  0  0
  180.6120  171.7990  135.6430 C   0  0  2  0  0  3  0  0  0  0  0  0
  179.4870  172.3070  134.9750 O   0  0  0  0  0  0  0  0  0  0  0  0
  182.1930  174.7850  135.3640 C   0  0  0  0  0  2  0  0  0  0  0  0
  181.2940  175.8650  135.9550 C   0  0  2  0  0  3  0  0  0  0  0  0
  179.9810  175.7270  135.4850 O   0  0  0  0  0  0  0  0  0  0  0  0
  179.2220  175.4400  136.6240 C   0  0  0  0  0  1  0  0  0  0  0  0
  181.8350  177.2580  135.6320 C   0  0  0  0  0  2  0  0  0  0  0  0
  181.5570  178.2490  136.7140 C   0  0  0  0  0  0  0  0  0  0  0  0
  182.1970  179.3280  136.7610 O   0  0  0  0  0  0  0  0  0  0  0  0
  180.6200  177.9570  137.6940 O   0  0  0  0  0  1  0  0  0  0  0  0
  182.8590  178.5350  140.4320 S   0  0  0  0  0  0  0  0  0  0  0  0
  182.4490  179.3410  142.0290 C   0  0  2  0  0  3  0  0  0  0  0  0
  184.9880  178.4090  145.4420 C   0  0  0  0  0  2  0  0  0  0  0  0
  183.6660  180.1510  144.2030 C   0  0  0  0  0  2  0  0  0  0  0  0
  184.9010  179.8870  145.0640 C   0  0  0  0  0  2  0  0  0  0  0  0
  185.1130  177.5580  144.1740 C   0  0  1  0  0  3  0  0  0  0  0  0
  183.4170  179.0920  143.1480 C   0  0  0  0  0  0  0  0  0  0  0  0
  184.0290  177.8970  143.1860 C   0  0  0  0  0  3  0  0  0  0  0  0
  186.4630  177.7740  143.5000 C   0  0  0  0  0  2  0  0  0  0  0  0
  187.5240  176.8340  144.0600 C   0  0  0  0  0  2  0  0  0  0  0  0
  189.5720  175.7610  143.1950 C   0  0  0  0  0  1  0  0  0  0  0  0
  188.9460  177.1190  143.5060 C   0  0  2  0  0  0  0  0  0  0  0  0
  192.2420  178.0070  144.3370 C   0  0  0  0  0  2  0  0  0  0  0  0
  190.2140  179.1620  144.0270 O   0  0  0  0  0  0  0  0  0  0  0  0
  191.5800  179.3520  144.2870 C   0  0  0  0  0  2  0  0  0  0  0  0
  189.8590  177.8910  144.5390 C   0  0  2  0  0  0  0  0  0  0  0  0
  191.1450  177.1180  144.8160 C   0  0  0  0  0  2  0  0  0  0  0  0
  189.1590  178.0600  145.9020 C   0  0  0  0  0  2  0  0  0  0  0  0
  190.3060  178.0900  148.0930 C   0  0  0  0  0  1  0  0  0  0  0  0
  188.6390  176.3350  147.6190 C   0  0  0  0  0  1  0  0  0  0  0  0
  189.7320  177.1950  147.0180 C   0  0  0  0  0  3  0  0  0  0  0  0
  188.8760  177.7920  142.2570 O   0  0  0  0  0  0  0  0  0  0  0  0
  189.6640  177.8790  140.0090 C   0  0  0  0  0  1  0  0  0  0  0  0
  189.4210  177.0090  141.2250 C   0  0  0  0  0  2  0  0  0  0  0  0
  180.4220  178.0830  142.2980 O   0  0  0  0  0  0  0  0  0  0  0  0
  180.3150  180.2810  142.9120 O   0  0  0  0  0  1  0  0  0  0  0  0
  181.0120  179.1860  142.4260 C   0  0  0  0  0  0  0  0  0  0  0  0
  2  1  2  0  0  0  0
  3  2  1  0  0  0  0
  4  5  1  1  0  0  0
  4  3  1  0  0  0  0
  7  9  2  0  0  0  0
  8 12  1  0  0  0  0
  8  7  1  1  0  0  0
  9 11  1  0  0  0  0
 10  4  1  6  0  0  0
 10 11  1  0  0  0  0
 12  6  1  6  0  0  0
 12 10  1  0  0  0  0
 13  8  1  1  0  0  0
 13 14  1  0  0  0  0
 13 15  1  0  0  0  0
 14 23  1  6  0  0  0
 14 15  1  0  0  0  0
 15 17  1  6  0  0  0
 17 16  2  6  0  0  0
 17 18  1  0  0  0  0
 19 17  1  0  0  0  0
 20 22  1  0  0  0  0
 20 21  1  0  0  0  0
 21 19  1  6  0  0  0
 22 21  1  0  0  0  0
 24 23  1  6  0  0  0
 25 24  1  0  0  0  0
 25 26  1  0  0  0  0
 27 24  1  0  0  0  0
 27 28  1  0  0  0  0
 28 29  2  0  0  0  0
 28 30  1  0  0  0  0
 31  1  1  0  0  0  0
 32 31  1  6  0  0  0
 32 57  1  0  0  0  0
 32 37  1  0  0  0  0
 34 35  1  0  0  0  0
 35 33  1  0  0  0  0
 36 39  1  6  0  0  0
 36 33  1  0  0  0  0
 37 38  2  0  0  0  0
 37 34  1  0  0  0  0
 38 36  1  0  0  0  0
 39 40  1  0  0  0  0
 42 41  1  6  0  0  0
 42 40  1  0  0  0  0
 42 46  1  0  0  0  0
 43 47  1  0  0  0  0
 44 45  1  0  0  0  0
 44 46  1  0  0  0  0
 45 43  1  0  0  0  0
 46 47  1  0  0  0  0
 46 48  1  1  0  0  0
 48 51  1  0  0  0  0
 51 50  1  0  0  0  0
 51 49  1  0  0  0  0
 52 42  1  0  0  0  0
 53 54  1  0  0  0  0
 54 52  1  0  0  0  0
 55 57  2  0  0  0  0
 57 56  1  0  0  0  0
M  END
>  <MODEL>
7

>  <REMARK>
 VINA RESULT:      -4.2      3.281     10.387
  Name = 
  24 active torsions:
  status: ('A' for Active; 'I' for Inactive)
    1  A    between atoms: C_1  and  C_29
    2  A    between atoms: C_5  and  C_18
    3  A    between atoms: C_5  and  C_34
    4  A    between atoms: C_7  and  C_15
    5  A    between atoms: C_7  and  C_27
    6  A    between atoms: S_11  and  C_13
    7  A    between atoms: S_11  and  C_52
    8  A    between atoms: C_15  and  C_55
    9  A    between atoms: C_16  and  O_38
   10  A    between atoms: P_17  and  C_44
   11  A    between atoms: P_17  and  C_57
   12  A    between atoms: C_18  and  C_41
   13  A    between atoms: O_19  and  C_30
   14  A    between atoms: C_23  and  C_25
   15  A    between atoms: C_28  and  C_39
   16  A    between atoms: C_29  and  C_30
   17  A    between atoms: C_30  and  C_39
   18  A    between atoms: C_31  and  C_52
   19  A    between atoms: C_37  and  C_42
   20  A    between atoms: O_38  and  C_55
   21  A    between atoms: C_42  and  C_54
   22  A    between atoms: C_46  and  C_57
   23  A    between atoms: C_48  and  C_52
   24  A    between atoms: C_54  and  C_55
                            x       y       z     vdW  Elec       q    Type
                         _______ _______ _______ _____ _____    ______ ____

>  <TORSDO>
F 24

$$$$
=
 OpenBabel11042411373D

 57 61  0  0  1  0  0  0  0  0999 V2000
  188.0610  177.5810  144.2140 C   0  0  0  0  0  3  0  0  0  0  0  0
  186.9660  178.2520  143.8380 C   0  0  0  0  0  3  0  0  0  0  0  0
  186.2980  178.0630  142.5100 C   0  0  0  0  0  2  0  0  0  0  0  0
  184.8030  178.3410  142.5750 C   0  0  1  0  0  3  0  0  0  0  0  0
  184.5990  179.6350  143.0560 O   0  0  0  0  0  1  0  0  0  0  0  0
  182.1770  179.3190  141.7520 F   0  0  0  0  0  0  0  0  0  0  0  0
  182.8230  178.9610  138.7780 C   0  0  0  0  0  3  0  0  0  0  0  0
  182.1600  178.0110  139.7470 C   0  0  2  0  0  3  0  0  0  0  0  0
  183.9920  179.5470  139.0540 C   0  0  0  0  0  3  0  0  0  0  0  0
  184.2190  178.2100  141.1720 C   0  0  2  0  0  3  0  0  0  0  0  0
  184.6680  179.2880  140.2940 N   0  0  0  0  0  2  0  0  0  0  0  0
  182.6870  178.1610  141.1900 C   0  0  1  0  0  3  0  0  0  0  0  0
  182.0760  176.5770  139.1800 C   0  0  2  0  0  3  0  0  0  0  0  0
  182.6080  176.4520  137.7580 C   0  0  2  0  0  3  0  0  0  0  0  0
  181.0940  176.4780  138.0200 C   0  0  1  0  0  3  0  0  0  0  0  0
  179.8340  174.4420  139.6160 O   0  0  0  0  0  1  0  0  0  0  0  0
  180.2430  174.8530  138.0270 P   0  0  1  0  0  0  0  0  0  0  0  0
  178.9920  174.8870  137.1750 O   0  0  0  0  0  0  0  0  0  0  0  0
  181.3810  173.6030  137.3640 C   0  0  0  0  0  2  0  0  0  0  0  0
  181.3350  171.3010  136.5350 C   0  0  0  0  0  2  0  0  0  0  0  0
  180.7830  172.2230  137.5410 C   0  0  2  0  0  3  0  0  0  0  0  0
  180.0680  171.8820  136.3830 O   0  0  0  0  0  0  0  0  0  0  0  0
  183.2340  175.0790  137.5520 C   0  0  0  0  0  2  0  0  0  0  0  0
  184.5390  175.1980  136.7730 C   0  0  2  0  0  3  0  0  0  0  0  0
  185.3610  174.0890  137.0120 O   0  0  0  0  0  0  0  0  0  0  0  0
  185.3570  173.3750  135.8090 C   0  0  0  0  0  1  0  0  0  0  0  0
  185.2700  176.4930  137.1340 C   0  0  0  0  0  2  0  0  0  0  0  0
  186.3500  176.8330  136.1610 C   0  0  0  0  0  0  0  0  0  0  0  0
  186.8180  177.9980  136.1200 O   0  0  0  0  0  1  0  0  0  0  0  0
  186.8070  175.8720  135.2720 O   0  0  0  0  0  0  0  0  0  0  0  0
  188.8310  176.3000  143.2090 S   0  0  0  0  0  0  0  0  0  0  0  0
  190.0870  177.3810  142.4210 C   0  0  2  0  0  3  0  0  0  0  0  0
  190.1610  177.6790  138.0770 C   0  0  0  0  0  2  0  0  0  0  0  0
  188.8640  177.0350  140.1300 C   0  0  0  0  0  2  0  0  0  0  0  0
  189.1260  176.7180  138.6580 C   0  0  0  0  0  2  0  0  0  0  0  0
  191.4870  177.5260  138.8300 C   0  0  1  0  0  3  0  0  0  0  0  0
  190.1170  177.3530  140.9200 C   0  0  0  0  0  0  0  0  0  0  0  0
  191.2820  177.6400  140.3160 C   0  0  0  0  0  3  0  0  0  0  0  0
  192.1330  176.1780  138.5350 C   0  0  0  0  0  2  0  0  0  0  0  0
  192.5560  176.0670  137.0750 C   0  0  0  0  0  2  0  0  0  0  0  0
  194.8310  175.3920  136.3910 C   0  0  0  0  0  1  0  0  0  0  0  0
  193.4640  174.8400  136.7930 C   0  0  2  0  0  0  0  0  0  0  0  0
  193.9900  171.9080  134.9310 C   0  0  0  0  0  2  0  0  0  0  0  0
  192.2070  172.8190  136.1700 O   0  0  0  0  0  0  0  0  0  0  0  0
  192.5990  171.6820  135.4460 C   0  0  0  0  0  2  0  0  0  0  0  0
  192.9070  173.9250  135.6310 C   0  0  2  0  0  0  0  0  0  0  0  0
  194.0440  173.3880  134.7660 C   0  0  0  0  0  2  0  0  0  0  0  0
  191.9810  174.7110  134.6830 C   0  0  0  0  0  2  0  0  0  0  0  0
  190.1680  176.3910  134.5980 C   0  0  0  0  0  1  0  0  0  0  0  0
  189.6310  174.0540  135.1730 C   0  0  0  0  0  1  0  0  0  0  0  0
  190.6640  175.1530  135.3100 C   0  0  0  0  0  3  0  0  0  0  0  0
  193.6960  174.1000  137.9830 O   0  0  0  0  0  0  0  0  0  0  0  0
  195.1850  174.7790  139.7150 C   0  0  0  0  0  1  0  0  0  0  0  0
  195.0520  174.1380  138.3500 C   0  0  0  0  0  2  0  0  0  0  0  0
  192.0540  178.3160  143.4320 O   0  0  0  0  0  1  0  0  0  0  0  0
  192.0430  176.0440  143.1970 O   0  0  0  0  0  0  0  0  0  0  0  0
  191.4430  177.2840  143.0540 C   0  0  0  0  0  0  0  0  0  0  0  0
  2  1  2  0  0  0  0
  3  4  1  0  0  0  0
  3  2  1  0  0  0  0
  4  5  1  6  0  0  0
  7  9  2  0  0  0  0
  8  7  1  6  0  0  0
  8 12  1  0  0  0  0
  9 11  1  0  0  0  0
 10 12  1  0  0  0  0
 10  4  1  1  0  0  0
 11 10  1  0  0  0  0
 12  6  1  6  0  0  0
 13  8  1  6  0  0  0
 14 23  1  1  0  0  0
 14 15  1  0  0  0  0
 14 13  1  0  0  0  0
 15 17  1  1  0  0  0
 15 13  1  0  0  0  0
 17 18  2  6  0  0  0
 17 16  1  0  0  0  0
 19 17  1  0  0  0  0
 20 21  1  0  0  0  0
 21 19  1  6  0  0  0
 22 20  1  0  0  0  0
 22 21  1  0  0  0  0
 24 25  1  0  0  0  0
 24 27  1  1  0  0  0
 24 23  1  0  0  0  0
 26 25  1  0  0  0  0
 28 27  1  0  0  0  0
 29 28  1  0  0  0  0
 30 28  2  0  0  0  0
 31  1  1  0  0  0  0
 32 57  1  1  0  0  0
 32 31  1  0  0  0  0
 33 35  1  0  0  0  0
 33 36  1  0  0  0  0
 34 37  1  0  0  0  0
 35 34  1  0  0  0  0
 36 39  1  1  0  0  0
 36 38  1  0  0  0  0
 37 32  1  0  0  0  0
 38 37  2  0  0  0  0
 40 39  1  0  0  0  0
 42 41  1  6  0  0  0
 42 40  1  0  0  0  0
 42 52  1  0  0  0  0
 43 45  1  0  0  0  0
 45 44  1  0  0  0  0
 46 48  1  6  0  0  0
 46 44  1  0  0  0  0
 46 42  1  0  0  0  0
 47 43  1  0  0  0  0
 47 46  1  0  0  0  0
 48 51  1  0  0  0  0
 49 51  1  0  0  0  0
 50 51  1  0  0  0  0
 52 54  1  0  0  0  0
 54 53  1  0  0  0  0
 57 56  2  0  0  0  0
 57 55  1  0  0  0  0
M  END
>  <MODEL>
8

>  <REMARK>
 VINA RESULT:      -4.2      3.877     10.048
  Name = 
  24 active torsions:
  status: ('A' for Active; 'I' for Inactive)
    1  A    between atoms: C_1  and  C_29
    2  A    between atoms: C_5  and  C_18
    3  A    between atoms: C_5  and  C_34
    4  A    between atoms: C_7  and  C_15
    5  A    between atoms: C_7  and  C_27
    6  A    between atoms: S_11  and  C_13
    7  A    between atoms: S_11  and  C_52
    8  A    between atoms: C_15  and  C_55
    9  A    between atoms: C_16  and  O_38
   10  A    between atoms: P_17  and  C_44
   11  A    between atoms: P_17  and  C_57
   12  A    between atoms: C_18  and  C_41
   13  A    between atoms: O_19  and  C_30
   14  A    between atoms: C_23  and  C_25
   15  A    between atoms: C_28  and  C_39
   16  A    between atoms: C_29  and  C_30
   17  A    between atoms: C_30  and  C_39
   18  A    between atoms: C_31  and  C_52
   19  A    between atoms: C_37  and  C_42
   20  A    between atoms: O_38  and  C_55
   21  A    between atoms: C_42  and  C_54
   22  A    between atoms: C_46  and  C_57
   23  A    between atoms: C_48  and  C_52
   24  A    between atoms: C_54  and  C_55
                            x       y       z     vdW  Elec       q    Type
                         _______ _______ _______ _____ _____    ______ ____

>  <TORSDO>
F 24

$$$$
=
 OpenBabel11042411373D

 57 61  0  0  1  0  0  0  0  0999 V2000
  185.9620  179.3530  141.0890 C   0  0  0  0  0  3  0  0  0  0  0  0
  184.6610  179.1460  140.8540 C   0  0  0  0  0  3  0  0  0  0  0  0
  183.9210  177.9300  141.3200 C   0  0  0  0  0  2  0  0  0  0  0  0
  182.8090  178.2740  142.3000 C   0  0  1  0  0  3  0  0  0  0  0  0
  183.2540  179.2770  143.1630 O   0  0  0  0  0  1  0  0  0  0  0  0
  180.0450  177.4830  142.8130 F   0  0  0  0  0  0  0  0  0  0  0  0
  178.9310  179.7160  141.0330 C   0  0  0  0  0  3  0  0  0  0  0  0
  179.2720  178.2840  140.6940 C   0  0  2  0  0  3  0  0  0  0  0  0
  179.8020  180.5200  141.6510 C   0  0  0  0  0  3  0  0  0  0  0  0
  181.5970  178.7640  141.5140 C   0  0  2  0  0  3  0  0  0  0  0  0
  181.1070  180.0460  142.0150 N   0  0  0  0  0  2  0  0  0  0  0  0
  180.4580  177.7380  141.5160 C   0  0  1  0  0  3  0  0  0  0  0  0
  179.3150  178.0490  139.1680 C   0  0  2  0  0  3  0  0  0  0  0  0
  180.5370  177.2660  138.7060 C   0  0  2  0  0  3  0  0  0  0  0  0
  180.4730  178.7880  138.5090 C   0  0  1  0  0  3  0  0  0  0  0  0
  181.3690  179.3810  135.8400 O   0  0  0  0  0  0  0  0  0  0  0  0
  180.0020  179.3710  136.8340 P   0  0  1  0  0  0  0  0  0  0  0  0
  178.9390  178.4810  136.2240 O   0  0  0  0  0  1  0  0  0  0  0  0
  179.3540  181.0620  136.9730 C   0  0  0  0  0  2  0  0  0  0  0  0
  179.8690  183.3140  137.7820 C   0  0  0  0  0  2  0  0  0  0  0  0
  180.4260  181.9740  137.5340 C   0  0  2  0  0  3  0  0  0  0  0  0
  180.6360  183.0360  136.6420 O   0  0  0  0  0  0  0  0  0  0  0  0
  180.1840  176.4120  137.4950 C   0  0  0  0  0  2  0  0  0  0  0  0
  181.0100  175.1310  137.4850 C   0  0  2  0  0  3  0  0  0  0  0  0
  180.4280  174.1610  138.3120 O   0  0  0  0  0  0  0  0  0  0  0  0
  179.2910  173.7350  137.6190 C   0  0  0  0  0  1  0  0  0  0  0  0
  182.4500  175.4100  137.9180 C   0  0  0  0  0  2  0  0  0  0  0  0
  183.4560  174.8300  136.9790 C   0  0  0  0  0  0  0  0  0  0  0  0
  183.1890  174.7210  135.7570 O   0  0  0  0  0  0  0  0  0  0  0  0
  184.6710  174.3710  137.4660 O   0  0  0  0  0  1  0  0  0  0  0  0
  186.9800  178.2370  142.0700 S   0  0  0  0  0  0  0  0  0  0  0  0
  187.9940  177.6020  140.6790 C   0  0  2  0  0  3  0  0  0  0  0  0
  192.3150  177.9730  141.0670 C   0  0  0  0  0  2  0  0  0  0  0  0
  190.3790  176.6340  140.1900 C   0  0  0  0  0  2  0  0  0  0  0  0
  191.7950  176.5700  140.7610 C   0  0  0  0  0  2  0  0  0  0  0  0
  191.4200  178.6380  142.1170 C   0  0  1  0  0  3  0  0  0  0  0  0
  189.4790  177.6290  140.8950 C   0  0  0  0  0  0  0  0  0  0  0  0
  189.9720  178.5740  141.7120 C   0  0  0  0  0  3  0  0  0  0  0  0
  191.5710  177.9620  143.4740 C   0  0  0  0  0  2  0  0  0  0  0  0
  190.4860  178.4100  144.4460 C   0  0  0  0  0  2  0  0  0  0  0  0
  190.0660  176.0300  144.9540 C   0  0  0  0  0  1  0  0  0  0  0  0
  190.2470  177.4020  145.6020 C   0  0  2  0  0  0  0  0  0  0  0  0
  188.4460  176.6630  148.5270 C   0  0  0  0  0  2  0  0  0  0  0  0
  189.3040  178.6130  147.5250 O   0  0  0  0  0  0  0  0  0  0  0  0
  188.6450  178.1430  148.6710 C   0  0  0  0  0  2  0  0  0  0  0  0
  188.9640  177.7490  146.4570 C   0  0  2  0  0  0  0  0  0  0  0  0
  188.3440  176.4870  147.0500 C   0  0  0  0  0  2  0  0  0  0  0  0
  187.8650  178.4010  145.5950 C   0  0  0  0  0  2  0  0  0  0  0  0
  185.6430  179.2010  146.3270 C   0  0  0  0  0  1  0  0  0  0  0  0
  185.7940  177.2990  144.7660 C   0  0  0  0  0  1  0  0  0  0  0  0
  186.4460  177.9760  145.9530 C   0  0  0  0  0  3  0  0  0  0  0  0
  191.4060  177.2810  146.4150 O   0  0  0  0  0  0  0  0  0  0  0  0
  192.3280  175.5420  147.7590 C   0  0  0  0  0  1  0  0  0  0  0  0
  191.9290  175.9770  146.3640 C   0  0  0  0  0  2  0  0  0  0  0  0
  188.1050  179.1500  138.8470 O   0  0  0  0  0  1  0  0  0  0  0  0
  186.5470  177.4900  138.6520 O   0  0  0  0  0  0  0  0  0  0  0  0
  187.5680  178.1260  139.3410 C   0  0  0  0  0  0  0  0  0  0  0  0
  1 31  1  0  0  0  0
  2  1  2  0  0  0  0
  2  3  1  0  0  0  0
  3  4  1  0  0  0  0
  4  5  1  1  0  0  0
  7  9  2  0  0  0  0
  8  7  1  6  0  0  0
  8 12  1  0  0  0  0
  9 11  1  0  0  0  0
 10 12  1  0  0  0  0
 10 11  1  0  0  0  0
 10  4  1  1  0  0  0
 12  6  1  1  0  0  0
 13  8  1  1  0  0  0
 14 23  1  6  0  0  0
 14 13  1  0  0  0  0
 15 17  1  6  0  0  0
 15 14  1  0  0  0  0
 15 13  1  0  0  0  0
 17 16  2  6  0  0  0
 17 19  1  0  0  0  0
 18 17  1  0  0  0  0
 21 19  1  6  0  0  0
 21 20  1  0  0  0  0
 22 21  1  0  0  0  0
 22 20  1  0  0  0  0
 24 23  1  1  0  0  0
 24 27  1  0  0  0  0
 24 25  1  0  0  0  0
 26 25  1  0  0  0  0
 28 30  1  0  0  0  0
 28 27  1  0  0  0  0
 29 28  2  0  0  0  0
 32 57  1  6  0  0  0
 32 37  1  0  0  0  0
 32 31  1  0  0  0  0
 33 36  1  0  0  0  0
 34 35  1  0  0  0  0
 34 37  1  0  0  0  0
 35 33  1  0  0  0  0
 36 39  1  1  0  0  0
 37 38  2  0  0  0  0
 38 36  1  0  0  0  0
 39 40  1  0  0  0  0
 40 42  1  0  0  0  0
 42 41  1  6  0  0  0
 42 52  1  0  0  0  0
 42 46  1  0  0  0  0
 43 45  1  0  0  0  0
 44 45  1  0  0  0  0
 46 48  1  6  0  0  0
 46 47  1  0  0  0  0
 46 44  1  0  0  0  0
 47 43  1  0  0  0  0
 48 51  1  0  0  0  0
 50 51  1  0  0  0  0
 51 49  1  0  0  0  0
 54 52  1  0  0  0  0
 54 53  1  0  0  0  0
 55 57  1  0  0  0  0
 56 57  2  0  0  0  0
M  END
>  <MODEL>
9

>  <REMARK>
 VINA RESULT:      -4.1      3.511     10.383
  Name = 
  24 active torsions:
  status: ('A' for Active; 'I' for Inactive)
    1  A    between atoms: C_1  and  C_29
    2  A    between atoms: C_5  and  C_18
    3  A    between atoms: C_5  and  C_34
    4  A    between atoms: C_7  and  C_15
    5  A    between atoms: C_7  and  C_27
    6  A    between atoms: S_11  and  C_13
    7  A    between atoms: S_11  and  C_52
    8  A    between atoms: C_15  and  C_55
    9  A    between atoms: C_16  and  O_38
   10  A    between atoms: P_17  and  C_44
   11  A    between atoms: P_17  and  C_57
   12  A    between atoms: C_18  and  C_41
   13  A    between atoms: O_19  and  C_30
   14  A    between atoms: C_23  and  C_25
   15  A    between atoms: C_28  and  C_39
   16  A    between atoms: C_29  and  C_30
   17  A    between atoms: C_30  and  C_39
   18  A    between atoms: C_31  and  C_52
   19  A    between atoms: C_37  and  C_42
   20  A    between atoms: O_38  and  C_55
   21  A    between atoms: C_42  and  C_54
   22  A    between atoms: C_46  and  C_57
   23  A    between atoms: C_48  and  C_52
   24  A    between atoms: C_54  and  C_55
                            x       y       z     vdW  Elec       q    Type
                         _______ _______ _______ _____ _____    ______ ____

>  <TORSDO>
F 24

$$$$
