=
 OpenBabel11032419323D

 31 34  0  0  1  0  0  0  0  0999 V2000
  186.2140  178.0780  144.4710 C   0  0  0  0  0  0  0  0  0  0  0  0
  190.6650  177.1030  144.8080 C   0  0  0  0  0  3  0  0  0  0  0  0
  189.0660  177.6710  143.2770 C   0  0  0  0  0  3  0  0  0  0  0  0
  187.8820  178.0190  142.6300 O   0  0  0  0  0  0  0  0  0  0  0  0
  188.4110  177.4500  145.6510 C   0  0  0  0  0  0  0  0  0  0  0  0
  188.0460  177.1710  148.0520 O   0  0  0  0  0  1  0  0  0  0  0  0
  190.2390  176.8440  147.1580 C   0  0  0  0  0  3  0  0  0  0  0  0
  183.9510  178.6100  143.9220 C   0  0  0  0  0  0  0  0  0  0  0  0
  186.5890  178.2090  143.1210 C   0  0  0  0  0  0  0  0  0  0  0  0
  187.1070  177.7310  145.5730 C   0  0  0  0  0  3  0  0  0  0  0  0
  184.9140  178.2860  144.8210 N   0  0  0  0  0  0  0  0  0  0  0  0
  188.8960  177.1560  146.9480 C   0  0  0  0  0  0  0  0  0  0  0  0
  189.3240  177.4220  144.5610 C   0  0  0  0  0  0  0  0  0  0  0  0
  184.2810  178.7560  142.5810 C   0  0  0  0  0  3  0  0  0  0  0  0
  191.1240  176.8170  146.0900 C   0  0  0  0  0  3  0  0  0  0  0  0
  185.6010  178.5600  142.1820 C   0  0  0  0  0  0  0  0  0  0  0  0
  182.5530  178.8400  144.3770 C   0  0  0  0  0  2  0  0  0  0  0  0
  181.6210  178.8990  143.1800 C   0  0  0  0  0  2  0  0  0  0  0  0
  180.2080  178.8840  143.6410 C   0  0  0  0  0  0  0  0  0  0  0  0
  179.7420  177.8480  144.1880 O   0  0  0  0  0  0  0  0  0  0  0  0
  179.3690  180.6780  142.1820 C   0  0  0  0  0  1  0  0  0  0  0  0
  179.4050  180.0060  143.4330 O   0  0  0  0  0  0  0  0  0  0  0  0
  185.9330  178.6950  140.7330 C   0  0  0  0  0  2  0  0  0  0  0  0
  184.9220  179.5020  140.0710 N   0  0  0  0  0  2  0  0  0  0  0  0
  185.5340  177.2410  137.1100 C   0  0  0  0  0  0  0  0  0  0  0  0
  184.6080  178.8490  138.8120 C   0  0  2  0  0  3  0  0  0  0  0  0
  183.2910  176.8960  138.0910 C   0  0  0  0  0  3  0  0  0  0  0  0
  184.1030  176.8650  136.8250 C   0  0  0  0  0  2  0  0  0  0  0  0
  183.5260  177.8260  139.0280 C   0  0  0  0  0  3  0  0  0  0  0  0
  185.8700  178.2020  138.2240 C   0  0  0  0  0  2  0  0  0  0  0  0
  186.4270  176.7810  136.4210 O   0  0  0  0  0  0  0  0  0  0  0  0
  1 11  1  0  0  0  0
  1 10  1  0  0  0  0
  2 15  2  0  0  0  0
  3 13  2  0  0  0  0
  4  9  1  0  0  0  0
  4  3  1  0  0  0  0
  5 12  1  0  0  0  0
  8 17  1  0  0  0  0
  8 11  2  0  0  0  0
  9  1  2  0  0  0  0
 10  5  2  0  0  0  0
 12  7  2  0  0  0  0
 12  6  1  0  0  0  0
 13  2  1  0  0  0  0
 13  5  1  0  0  0  0
 14  8  1  0  0  0  0
 15  7  1  0  0  0  0
 16 14  2  0  0  0  0
 16  9  1  0  0  0  0
 18 19  1  0  0  0  0
 18 17  1  0  0  0  0
 19 20  2  0  0  0  0
 21 22  1  0  0  0  0
 22 19  1  0  0  0  0
 23 16  1  0  0  0  0
 24 23  1  0  0  0  0
 25 30  1  0  0  0  0
 26 29  1  0  0  0  0
 26 24  1  1  0  0  0
 27 29  2  0  0  0  0
 28 25  1  0  0  0  0
 28 27  1  0  0  0  0
 30 26  1  0  0  0  0
 31 25  2  0  0  0  0
M  END
>  <MODEL>
1

>  <REMARK>
 VINA RESULT:      -9.2      0.000      0.000
  Name = 
  7 active torsions:
  status: ('A' for Active; 'I' for Inactive)
    1  A    between atoms: C_2  and  C_14
    2  A    between atoms: C_2  and  C_20
    3  A    between atoms: C_11  and  C_20
    4  A    between atoms: C_13  and  N_27
    5  A    between atoms: C_14  and  O_19
    6  A    between atoms: C_26  and  N_27
    7  A    between atoms: C_26  and  C_31
                            x       y       z     vdW  Elec       q    Type
                         _______ _______ _______ _____ _____    ______ ____

>  <TORSDO>
F 7

$$$$
=
 OpenBabel11032419323D

 31 34  0  0  1  0  0  0  0  0999 V2000
  187.9250  177.7960  143.7400 C   0  0  0  0  0  0  0  0  0  0  0  0
  191.9380  176.4340  145.4480 C   0  0  0  0  0  3  0  0  0  0  0  0
  190.9550  177.0980  143.4950 C   0  0  0  0  0  3  0  0  0  0  0  0
  190.0680  177.5320  142.5110 O   0  0  0  0  0  0  0  0  0  0  0  0
  189.5770  177.0070  145.5450 C   0  0  0  0  0  0  0  0  0  0  0  0
  188.4600  176.8330  147.7140 O   0  0  0  0  0  1  0  0  0  0  0  0
  190.7810  176.2840  147.5470 C   0  0  0  0  0  3  0  0  0  0  0  0
  186.0050  178.5130  142.5130 C   0  0  0  0  0  0  0  0  0  0  0  0
  188.7120  177.8520  142.5740 C   0  0  0  0  0  0  0  0  0  0  0  0
  188.3950  177.4030  145.0650 C   0  0  0  0  0  3  0  0  0  0  0  0
  186.6070  178.1300  143.6670 N   0  0  0  0  0  0  0  0  0  0  0  0
  189.6050  176.7090  146.9300 C   0  0  0  0  0  0  0  0  0  0  0  0
  190.7760  176.8650  144.7950 C   0  0  0  0  0  0  0  0  0  0  0  0
  186.7480  178.5890  141.3410 C   0  0  0  0  0  3  0  0  0  0  0  0
  191.9470  176.1450  146.8090 C   0  0  0  0  0  3  0  0  0  0  0  0
  188.1010  178.2630  141.3730 C   0  0  0  0  0  0  0  0  0  0  0  0
  184.5640  178.8820  142.5090 C   0  0  0  0  0  2  0  0  0  0  0  0
  184.2580  179.7950  143.6820 C   0  0  0  0  0  2  0  0  0  0  0  0
  183.4040  179.0810  144.6670 C   0  0  0  0  0  0  0  0  0  0  0  0
  182.3550  178.5020  144.2770 O   0  0  0  0  0  0  0  0  0  0  0  0
  184.8690  178.3510  146.5030 C   0  0  0  0  0  1  0  0  0  0  0  0
  183.7580  179.0890  146.0170 O   0  0  0  0  0  0  0  0  0  0  0  0
  188.8780  178.3240  140.1010 C   0  0  0  0  0  2  0  0  0  0  0  0
  188.7590  177.0610  139.3910 N   0  0  0  0  0  2  0  0  0  0  0  0
  192.4340  176.6730  138.6200 C   0  0  0  0  0  0  0  0  0  0  0  0
  189.9310  176.9340  138.5420 C   0  0  2  0  0  3  0  0  0  0  0  0
  191.0390  175.1310  137.2820 C   0  0  0  0  0  3  0  0  0  0  0  0
  192.3040  175.9450  137.3070 C   0  0  0  0  0  2  0  0  0  0  0  0
  189.9220  175.5920  137.8620 C   0  0  0  0  0  3  0  0  0  0  0  0
  191.2080  177.1230  139.3740 C   0  0  0  0  0  2  0  0  0  0  0  0
  193.5410  176.9190  139.0660 O   0  0  0  0  0  0  0  0  0  0  0  0
  1 10  1  0  0  0  0
  2 15  2  0  0  0  0
  3 13  2  0  0  0  0
  4  9  1  0  0  0  0
  4  3  1  0  0  0  0
  5 12  1  0  0  0  0
  8 11  2  0  0  0  0
  9  1  2  0  0  0  0
 10  5  2  0  0  0  0
 11  1  1  0  0  0  0
 12  7  2  0  0  0  0
 12  6  1  0  0  0  0
 13  2  1  0  0  0  0
 13  5  1  0  0  0  0
 14 16  2  0  0  0  0
 14  8  1  0  0  0  0
 15  7  1  0  0  0  0
 16  9  1  0  0  0  0
 17  8  1  0  0  0  0
 17 18  1  0  0  0  0
 18 19  1  0  0  0  0
 19 22  1  0  0  0  0
 20 19  2  0  0  0  0
 22 21  1  0  0  0  0
 23 16  1  0  0  0  0
 24 23  1  0  0  0  0
 25 31  2  0  0  0  0
 25 30  1  0  0  0  0
 26 30  1  0  0  0  0
 26 24  1  1  0  0  0
 27 28  1  0  0  0  0
 27 29  2  0  0  0  0
 28 25  1  0  0  0  0
 29 26  1  0  0  0  0
M  END
>  <MODEL>
2

>  <REMARK>
 VINA RESULT:      -9.1      3.191      4.213
  Name = 
  7 active torsions:
  status: ('A' for Active; 'I' for Inactive)
    1  A    between atoms: C_2  and  C_14
    2  A    between atoms: C_2  and  C_20
    3  A    between atoms: C_11  and  C_20
    4  A    between atoms: C_13  and  N_27
    5  A    between atoms: C_14  and  O_19
    6  A    between atoms: C_26  and  N_27
    7  A    between atoms: C_26  and  C_31
                            x       y       z     vdW  Elec       q    Type
                         _______ _______ _______ _____ _____    ______ ____

>  <TORSDO>
F 7

$$$$
=
 OpenBabel11032419323D

 31 34  0  0  1  0  0  0  0  0999 V2000
  190.9940  177.2700  140.8880 C   0  0  0  0  0  0  0  0  0  0  0  0
  190.3470  176.4980  136.4320 C   0  0  0  0  0  3  0  0  0  0  0  0
  189.2360  177.1620  138.3160 C   0  0  0  0  0  3  0  0  0  0  0  0
  188.8770  177.5230  139.6130 O   0  0  0  0  0  0  0  0  0  0  0  0
  191.6410  176.6200  138.4870 C   0  0  0  0  0  0  0  0  0  0  0  0
  194.0120  176.0320  138.3660 O   0  0  0  0  0  1  0  0  0  0  0  0
  192.6800  175.9330  136.3820 C   0  0  0  0  0  3  0  0  0  0  0  0
  190.9610  177.7450  143.2300 C   0  0  0  0  0  0  0  0  0  0  0  0
  189.6260  177.5840  140.7890 C   0  0  0  0  0  0  0  0  0  0  0  0
  191.8510  176.8400  139.7870 C   0  0  0  0  0  3  0  0  0  0  0  0
  191.6100  177.3650  142.1000 N   0  0  0  0  0  0  0  0  0  0  0  0
  192.7740  176.1970  137.7490 C   0  0  0  0  0  0  0  0  0  0  0  0
  190.4030  176.7730  137.8050 C   0  0  0  0  0  0  0  0  0  0  0  0
  189.6120  178.0700  143.1730 C   0  0  0  0  0  3  0  0  0  0  0  0
  191.4690  176.0820  135.7230 C   0  0  0  0  0  3  0  0  0  0  0  0
  188.9460  177.9930  141.9520 C   0  0  0  0  0  0  0  0  0  0  0  0
  191.7000  177.8440  144.5170 C   0  0  0  0  0  2  0  0  0  0  0  0
  191.5840  176.5400  145.2840 C   0  0  0  0  0  2  0  0  0  0  0  0
  191.1480  176.8120  146.6790 C   0  0  0  0  0  0  0  0  0  0  0  0
  192.0090  176.8840  147.5970 O   0  0  0  0  0  0  0  0  0  0  0  0
  189.3220  177.8060  147.9930 C   0  0  0  0  0  1  0  0  0  0  0  0
  189.7890  176.9510  146.9600 O   0  0  0  0  0  0  0  0  0  0  0  0
  187.4900  178.3210  141.9140 C   0  0  0  0  0  2  0  0  0  0  0  0
  186.7580  177.4010  142.7690 N   0  0  0  0  0  2  0  0  0  0  0  0
  184.2980  178.8520  145.2380 C   0  0  0  0  0  0  0  0  0  0  0  0
  186.3390  178.1480  143.9420 C   0  0  2  0  0  3  0  0  0  0  0  0
  186.1940  177.7380  146.3660 C   0  0  0  0  0  3  0  0  0  0  0  0
  185.1850  178.8510  146.4550 C   0  0  0  0  0  2  0  0  0  0  0  0
  186.7370  177.4040  145.1880 C   0  0  0  0  0  3  0  0  0  0  0  0
  184.8220  178.3850  143.9020 C   0  0  0  0  0  2  0  0  0  0  0  0
  183.1510  179.2540  145.3280 O   0  0  0  0  0  0  0  0  0  0  0  0
  1 11  1  0  0  0  0
  2 13  1  0  0  0  0
  3  4  1  0  0  0  0
  4  9  1  0  0  0  0
  5 10  2  0  0  0  0
  7 12  2  0  0  0  0
  8 17  1  0  0  0  0
  9  1  2  0  0  0  0
  9 16  1  0  0  0  0
 10  1  1  0  0  0  0
 11  8  2  0  0  0  0
 12  6  1  0  0  0  0
 12  5  1  0  0  0  0
 13  3  2  0  0  0  0
 13  5  1  0  0  0  0
 14  8  1  0  0  0  0
 15  7  1  0  0  0  0
 15  2  2  0  0  0  0
 16 14  2  0  0  0  0
 17 18  1  0  0  0  0
 18 19  1  0  0  0  0
 19 22  1  0  0  0  0
 19 20  2  0  0  0  0
 22 21  1  0  0  0  0
 23 16  1  0  0  0  0
 23 24  1  0  0  0  0
 25 31  2  0  0  0  0
 25 28  1  0  0  0  0
 26 24  1  6  0  0  0
 26 29  1  0  0  0  0
 27 28  1  0  0  0  0
 29 27  2  0  0  0  0
 30 26  1  0  0  0  0
 30 25  1  0  0  0  0
M  END
>  <MODEL>
3

>  <REMARK>
 VINA RESULT:      -9.1      3.829      8.354
  Name = 
  7 active torsions:
  status: ('A' for Active; 'I' for Inactive)
    1  A    between atoms: C_2  and  C_14
    2  A    between atoms: C_2  and  C_20
    3  A    between atoms: C_11  and  C_20
    4  A    between atoms: C_13  and  N_27
    5  A    between atoms: C_14  and  O_19
    6  A    between atoms: C_26  and  N_27
    7  A    between atoms: C_26  and  C_31
                            x       y       z     vdW  Elec       q    Type
                         _______ _______ _______ _____ _____    ______ ____

>  <TORSDO>
F 7

$$$$
=
 OpenBabel11032419323D

 31 34  0  0  1  0  0  0  0  0999 V2000
  187.8980  177.9250  143.0740 C   0  0  0  0  0  0  0  0  0  0  0  0
  191.6500  176.5810  145.3080 C   0  0  0  0  0  3  0  0  0  0  0  0
  190.8940  177.0720  143.2070 C   0  0  0  0  0  3  0  0  0  0  0  0
  190.1300  177.4340  142.1000 O   0  0  0  0  0  0  0  0  0  0  0  0
  189.3250  177.2650  145.1080 C   0  0  0  0  0  0  0  0  0  0  0  0
  187.9990  177.3780  147.1600 O   0  0  0  0  0  1  0  0  0  0  0  0
  190.2920  176.7120  147.2850 C   0  0  0  0  0  3  0  0  0  0  0  0
  186.1450  178.5890  141.5930 C   0  0  0  0  0  0  0  0  0  0  0  0
  188.7930  177.8190  141.9930 C   0  0  0  0  0  0  0  0  0  0  0  0
  188.2170  177.6580  144.4740 C   0  0  0  0  0  3  0  0  0  0  0  0
  186.6120  178.3070  142.8350 N   0  0  0  0  0  0  0  0  0  0  0  0
  189.2050  177.1190  146.5120 C   0  0  0  0  0  0  0  0  0  0  0  0
  190.5800  176.9890  144.5000 C   0  0  0  0  0  0  0  0  0  0  0  0
  186.9980  178.5040  140.5000 C   0  0  0  0  0  3  0  0  0  0  0  0
  191.5140  176.4420  146.6850 C   0  0  0  0  0  3  0  0  0  0  0  0
  188.3220  178.1230  140.7010 C   0  0  0  0  0  0  0  0  0  0  0  0
  184.7330  179.0180  141.4060 C   0  0  0  0  0  2  0  0  0  0  0  0
  183.8110  178.1460  142.2390 C   0  0  0  0  0  2  0  0  0  0  0  0
  183.0130  178.9940  143.1640 C   0  0  0  0  0  0  0  0  0  0  0  0
  181.7790  179.1480  142.9580 O   0  0  0  0  0  0  0  0  0  0  0  0
  184.1420  178.9140  145.3480 C   0  0  0  0  0  1  0  0  0  0  0  0
  183.6480  179.6340  144.2280 O   0  0  0  0  0  0  0  0  0  0  0  0
  189.2190  178.0120  139.5130 C   0  0  0  0  0  2  0  0  0  0  0  0
  189.0440  179.1730  138.6560 N   0  0  0  0  0  2  0  0  0  0  0  0
  189.6000  176.6700  135.8850 C   0  0  0  0  0  0  0  0  0  0  0  0
  189.1000  178.7040  137.2820 C   0  0  2  0  0  3  0  0  0  0  0  0
  187.4890  177.9230  135.5920 C   0  0  0  0  0  3  0  0  0  0  0  0
  188.6240  177.2330  134.8840 C   0  0  0  0  0  2  0  0  0  0  0  0
  187.7090  178.6140  136.7190 C   0  0  0  0  0  3  0  0  0  0  0  0
  189.8120  177.3440  137.2170 C   0  0  0  0  0  2  0  0  0  0  0  0
  190.2400  175.6710  135.6060 O   0  0  0  0  0  0  0  0  0  0  0  0
  1 10  1  0  0  0  0
  2 15  2  0  0  0  0
  3 13  2  0  0  0  0
  4  3  1  0  0  0  0
  5 12  1  0  0  0  0
  8 11  2  0  0  0  0
  9  4  1  0  0  0  0
  9  1  2  0  0  0  0
 10  5  2  0  0  0  0
 11  1  1  0  0  0  0
 12  6  1  0  0  0  0
 12  7  2  0  0  0  0
 13  5  1  0  0  0  0
 13  2  1  0  0  0  0
 14 16  2  0  0  0  0
 14  8  1  0  0  0  0
 15  7  1  0  0  0  0
 16  9  1  0  0  0  0
 17  8  1  0  0  0  0
 17 18  1  0  0  0  0
 18 19  1  0  0  0  0
 19 22  1  0  0  0  0
 20 19  2  0  0  0  0
 22 21  1  0  0  0  0
 23 16  1  0  0  0  0
 24 23  1  0  0  0  0
 25 30  1  0  0  0  0
 26 24  1  1  0  0  0
 27 29  2  0  0  0  0
 28 27  1  0  0  0  0
 28 25  1  0  0  0  0
 29 26  1  0  0  0  0
 30 26  1  0  0  0  0
 31 25  2  0  0  0  0
M  END
>  <MODEL>
4

>  <REMARK>
 VINA RESULT:      -9.0      2.438      3.297
  Name = 
  7 active torsions:
  status: ('A' for Active; 'I' for Inactive)
    1  A    between atoms: C_2  and  C_14
    2  A    between atoms: C_2  and  C_20
    3  A    between atoms: C_11  and  C_20
    4  A    between atoms: C_13  and  N_27
    5  A    between atoms: C_14  and  O_19
    6  A    between atoms: C_26  and  N_27
    7  A    between atoms: C_26  and  C_31
                            x       y       z     vdW  Elec       q    Type
                         _______ _______ _______ _____ _____    ______ ____

>  <TORSDO>
F 7

$$$$
=
 OpenBabel11032419323D

 31 34  0  0  1  0  0  0  0  0999 V2000
  188.0050  177.4550  143.6360 C   0  0  0  0  0  0  0  0  0  0  0  0
  183.7330  178.9480  143.0050 C   0  0  0  0  0  3  0  0  0  0  0  0
  185.6040  178.3270  141.8480 C   0  0  0  0  0  3  0  0  0  0  0  0
  186.8730  177.8940  141.4680 O   0  0  0  0  0  0  0  0  0  0  0  0
  185.6550  178.2430  144.3170 C   0  0  0  0  0  0  0  0  0  0  0  0
  185.4250  178.2520  146.7520 O   0  0  0  0  0  1  0  0  0  0  0  0
  183.5740  178.9340  145.4010 C   0  0  0  0  0  3  0  0  0  0  0  0
  190.2690  176.6940  143.5890 C   0  0  0  0  0  0  0  0  0  0  0  0
  187.9730  177.4970  142.2290 C   0  0  0  0  0  0  0  0  0  0  0  0
  186.9010  177.8080  144.5230 C   0  0  0  0  0  3  0  0  0  0  0  0
  189.1470  177.0540  144.2610 N   0  0  0  0  0  0  0  0  0  0  0  0
  184.8890  178.4750  145.4860 C   0  0  0  0  0  0  0  0  0  0  0  0
  185.0550  178.4870  143.0520 C   0  0  0  0  0  0  0  0  0  0  0  0
  190.2770  176.7150  142.2000 C   0  0  0  0  0  3  0  0  0  0  0  0
  182.9950  179.1710  144.1630 C   0  0  0  0  0  3  0  0  0  0  0  0
  189.1280  177.1130  141.5210 C   0  0  0  0  0  0  0  0  0  0  0  0
  191.4760  176.2490  144.3350 C   0  0  0  0  0  2  0  0  0  0  0  0
  191.7000  177.1440  145.5410 C   0  0  0  0  0  2  0  0  0  0  0  0
  191.5320  176.3580  146.7910 C   0  0  0  0  0  0  0  0  0  0  0  0
  192.5070  175.7060  147.2530 O   0  0  0  0  0  0  0  0  0  0  0  0
  189.5810  177.5120  147.7450 C   0  0  0  0  0  1  0  0  0  0  0  0
  190.2870  176.3240  147.4190 O   0  0  0  0  0  0  0  0  0  0  0  0
  189.1620  177.1550  140.0290 C   0  0  0  0  0  2  0  0  0  0  0  0
  189.2610  178.5340  139.5800 N   0  0  0  0  0  2  0  0  0  0  0  0
  189.2510  177.3530  135.9930 C   0  0  0  0  0  0  0  0  0  0  0  0
  188.8870  178.5550  138.1760 C   0  0  2  0  0  3  0  0  0  0  0  0
  186.9680  177.8110  136.8250 C   0  0  0  0  0  3  0  0  0  0  0  0
  187.8660  177.8130  135.6180 C   0  0  0  0  0  2  0  0  0  0  0  0
  187.4440  178.1580  138.0280 C   0  0  0  0  0  3  0  0  0  0  0  0
  189.8030  177.6210  137.3720 C   0  0  0  0  0  2  0  0  0  0  0  0
  189.9400  176.7780  135.1690 O   0  0  0  0  0  0  0  0  0  0  0  0
  1 11  1  0  0  0  0
  1 10  1  0  0  0  0
  2 13  1  0  0  0  0
  2 15  2  0  0  0  0
  3 13  2  0  0  0  0
  4  3  1  0  0  0  0
  4  9  1  0  0  0  0
  5 10  2  0  0  0  0
  5 12  1  0  0  0  0
  7 12  2  0  0  0  0
  8 11  2  0  0  0  0
  8 17  1  0  0  0  0
  9  1  2  0  0  0  0
 12  6  1  0  0  0  0
 13  5  1  0  0  0  0
 14  8  1  0  0  0  0
 15  7  1  0  0  0  0
 16 14  2  0  0  0  0
 16  9  1  0  0  0  0
 17 18  1  0  0  0  0
 18 19  1  0  0  0  0
 19 20  2  0  0  0  0
 19 22  1  0  0  0  0
 22 21  1  0  0  0  0
 23 16  1  0  0  0  0
 24 23  1  0  0  0  0
 25 30  1  0  0  0  0
 26 24  1  1  0  0  0
 27 29  2  0  0  0  0
 28 25  1  0  0  0  0
 28 27  1  0  0  0  0
 29 26  1  0  0  0  0
 30 26  1  0  0  0  0
 31 25  2  0  0  0  0
M  END
>  <MODEL>
5

>  <REMARK>
 VINA RESULT:      -8.8      2.857      6.587
  Name = 
  7 active torsions:
  status: ('A' for Active; 'I' for Inactive)
    1  A    between atoms: C_2  and  C_14
    2  A    between atoms: C_2  and  C_20
    3  A    between atoms: C_11  and  C_20
    4  A    between atoms: C_13  and  N_27
    5  A    between atoms: C_14  and  O_19
    6  A    between atoms: C_26  and  N_27
    7  A    between atoms: C_26  and  C_31
                            x       y       z     vdW  Elec       q    Type
                         _______ _______ _______ _____ _____    ______ ____

>  <TORSDO>
F 7

$$$$
=
 OpenBabel11032419323D

 31 34  0  0  1  0  0  0  0  0999 V2000
  188.1470  178.0050  143.9390 C   0  0  0  0  0  0  0  0  0  0  0  0
  183.7780  178.7520  142.8320 C   0  0  0  0  0  3  0  0  0  0  0  0
  185.8100  178.2900  141.8940 C   0  0  0  0  0  3  0  0  0  0  0  0
  187.1560  178.0130  141.6610 O   0  0  0  0  0  0  0  0  0  0  0  0
  185.6590  178.5040  144.3520 C   0  0  0  0  0  0  0  0  0  0  0  0
  185.2220  178.7600  146.7440 O   0  0  0  0  0  1  0  0  0  0  0  0
  183.4160  178.9930  145.1940 C   0  0  0  0  0  3  0  0  0  0  0  0
  190.4920  177.5950  144.1440 C   0  0  0  0  0  0  0  0  0  0  0  0
  188.2310  177.8780  142.5400 C   0  0  0  0  0  0  0  0  0  0  0  0
  186.9320  178.2880  144.6970 C   0  0  0  0  0  3  0  0  0  0  0  0
  189.2760  177.8560  144.6870 N   0  0  0  0  0  0  0  0  0  0  0  0
  184.7700  178.7510  145.4260 C   0  0  0  0  0  0  0  0  0  0  0  0
  185.1430  178.5050  143.0280 C   0  0  0  0  0  0  0  0  0  0  0  0
  190.6160  177.4550  142.7680 C   0  0  0  0  0  3  0  0  0  0  0  0
  182.9190  178.9940  143.8990 C   0  0  0  0  0  3  0  0  0  0  0  0
  189.4850  177.5930  141.9660 C   0  0  0  0  0  0  0  0  0  0  0  0
  191.6800  177.4270  145.0220 C   0  0  0  0  0  2  0  0  0  0  0  0
  191.4800  176.2400  145.9460 C   0  0  0  0  0  2  0  0  0  0  0  0
  191.1310  176.7160  147.3110 C   0  0  0  0  0  0  0  0  0  0  0  0
  192.0470  177.0870  148.0930 O   0  0  0  0  0  0  0  0  0  0  0  0
  189.1480  177.9010  148.1570 C   0  0  0  0  0  1  0  0  0  0  0  0
  189.7970  176.7160  147.7190 O   0  0  0  0  0  0  0  0  0  0  0  0
  189.6410  177.4660  140.4880 C   0  0  0  0  0  2  0  0  0  0  0  0
  190.5560  176.3780  140.1820 N   0  0  0  0  0  2  0  0  0  0  0  0
  189.7720  177.1650  136.5740 C   0  0  0  0  0  0  0  0  0  0  0  0
  190.4420  176.1090  138.7590 C   0  0  2  0  0  3  0  0  0  0  0  0
  191.9640  176.0490  136.8240 C   0  0  0  0  0  3  0  0  0  0  0  0
  190.7690  176.2390  135.9280 C   0  0  0  0  0  2  0  0  0  0  0  0
  191.8140  175.9890  138.1540 C   0  0  0  0  0  3  0  0  0  0  0  0
  189.6320  177.2200  138.0750 C   0  0  0  0  0  2  0  0  0  0  0  0
  189.0560  177.8620  135.8760 O   0  0  0  0  0  0  0  0  0  0  0  0
  1 11  1  0  0  0  0
  1 10  1  0  0  0  0
  2 13  1  0  0  0  0
  2 15  2  0  0  0  0
  3 13  2  0  0  0  0
  4  3  1  0  0  0  0
  4  9  1  0  0  0  0
  5 10  2  0  0  0  0
  5 12  1  0  0  0  0
  7 12  2  0  0  0  0
  8 11  2  0  0  0  0
  8 17  1  0  0  0  0
  9  1  2  0  0  0  0
 12  6  1  0  0  0  0
 13  5  1  0  0  0  0
 14  8  1  0  0  0  0
 15  7  1  0  0  0  0
 16  9  1  0  0  0  0
 16 14  2  0  0  0  0
 17 18  1  0  0  0  0
 18 19  1  0  0  0  0
 19 22  1  0  0  0  0
 19 20  2  0  0  0  0
 22 21  1  0  0  0  0
 23 16  1  0  0  0  0
 24 23  1  0  0  0  0
 25 30  1  0  0  0  0
 26 24  1  1  0  0  0
 27 29  2  0  0  0  0
 28 25  1  0  0  0  0
 28 27  1  0  0  0  0
 29 26  1  0  0  0  0
 30 26  1  0  0  0  0
 31 25  2  0  0  0  0
M  END
>  <MODEL>
6

>  <REMARK>
 VINA RESULT:      -8.8      3.177      6.979
  Name = 
  7 active torsions:
  status: ('A' for Active; 'I' for Inactive)
    1  A    between atoms: C_2  and  C_14
    2  A    between atoms: C_2  and  C_20
    3  A    between atoms: C_11  and  C_20
    4  A    between atoms: C_13  and  N_27
    5  A    between atoms: C_14  and  O_19
    6  A    between atoms: C_26  and  N_27
    7  A    between atoms: C_26  and  C_31
                            x       y       z     vdW  Elec       q    Type
                         _______ _______ _______ _____ _____    ______ ____

>  <TORSDO>
F 7

$$$$
=
 OpenBabel11032419323D

 31 34  0  0  1  0  0  0  0  0999 V2000
  188.4720  177.8110  142.8810 C   0  0  0  0  0  0  0  0  0  0  0  0
  187.2560  177.8480  147.2850 C   0  0  0  0  0  3  0  0  0  0  0  0
  186.4220  178.2300  145.1920 C   0  0  0  0  0  3  0  0  0  0  0  0
  186.2410  178.3740  143.8180 O   0  0  0  0  0  0  0  0  0  0  0  0
  188.7830  177.5370  145.4180 C   0  0  0  0  0  0  0  0  0  0  0  0
  191.0700  176.8390  145.9320 O   0  0  0  0  0  1  0  0  0  0  0  0
  189.5170  177.1640  147.7210 C   0  0  0  0  0  3  0  0  0  0  0  0
  188.7570  177.9170  140.5110 C   0  0  0  0  0  0  0  0  0  0  0  0
  187.1260  178.2000  142.7530 C   0  0  0  0  0  0  0  0  0  0  0  0
  189.1590  177.5210  144.1370 C   0  0  0  0  0  3  0  0  0  0  0  0
  189.2350  177.6810  141.7600 N   0  0  0  0  0  0  0  0  0  0  0  0
  189.7860  177.1810  146.3530 C   0  0  0  0  0  0  0  0  0  0  0  0
  187.4910  177.8760  145.9040 C   0  0  0  0  0  0  0  0  0  0  0  0
  187.4320  178.2960  140.3410 C   0  0  0  0  0  3  0  0  0  0  0  0
  188.2540  177.4970  148.1890 C   0  0  0  0  0  3  0  0  0  0  0  0
  186.6160  178.4340  141.4610 C   0  0  0  0  0  0  0  0  0  0  0  0
  189.6410  177.7390  139.3280 C   0  0  0  0  0  2  0  0  0  0  0  0
  188.8100  177.3910  138.1070 C   0  0  0  0  0  2  0  0  0  0  0  0
  188.9910  178.4310  137.0610 C   0  0  0  0  0  0  0  0  0  0  0  0
  189.0530  179.6450  137.3950 O   0  0  0  0  0  0  0  0  0  0  0  0
  189.5390  176.7780  135.3240 C   0  0  0  0  0  1  0  0  0  0  0  0
  189.0560  178.0530  135.7190 O   0  0  0  0  0  0  0  0  0  0  0  0
  185.2020  178.8670  141.2620 C   0  0  0  0  0  2  0  0  0  0  0  0
  185.0370  179.4030  139.9210 N   0  0  0  0  0  2  0  0  0  0  0  0
  183.5790  176.8210  137.5850 C   0  0  0  0  0  0  0  0  0  0  0  0
  183.9820  178.6380  139.2800 C   0  0  2  0  0  3  0  0  0  0  0  0
  182.5910  176.6860  139.8470 C   0  0  0  0  0  3  0  0  0  0  0  0
  182.3420  176.4860  138.3760 C   0  0  0  0  0  2  0  0  0  0  0  0
  183.3610  177.6960  140.2750 C   0  0  0  0  0  3  0  0  0  0  0  0
  184.5420  177.8750  138.0720 C   0  0  0  0  0  2  0  0  0  0  0  0
  183.7930  176.2500  136.5300 O   0  0  0  0  0  0  0  0  0  0  0  0
  1 10  1  0  0  0  0
  2 15  2  0  0  0  0
  3 13  2  0  0  0  0
  4  3  1  0  0  0  0
  5 13  1  0  0  0  0
  5 12  1  0  0  0  0
  6 12  1  0  0  0  0
  7 15  1  0  0  0  0
  8 11  1  0  0  0  0
  9  1  1  0  0  0  0
  9  4  1  0  0  0  0
 10  5  2  0  0  0  0
 11  1  2  0  0  0  0
 12  7  2  0  0  0  0
 13  2  1  0  0  0  0
 14  8  2  0  0  0  0
 14 16  1  0  0  0  0
 16  9  2  0  0  0  0
 17  8  1  0  0  0  0
 18 17  1  0  0  0  0
 19 20  2  0  0  0  0
 19 18  1  0  0  0  0
 21 22  1  0  0  0  0
 22 19  1  0  0  0  0
 23 16  1  0  0  0  0
 24 23  1  0  0  0  0
 25 30  1  0  0  0  0
 25 28  1  0  0  0  0
 26 24  1  1  0  0  0
 26 29  1  0  0  0  0
 27 29  2  0  0  0  0
 28 27  1  0  0  0  0
 30 26  1  0  0  0  0
 31 25  2  0  0  0  0
M  END
>  <MODEL>
7

>  <REMARK>
 VINA RESULT:      -8.8      2.847      5.460
  Name = 
  7 active torsions:
  status: ('A' for Active; 'I' for Inactive)
    1  A    between atoms: C_2  and  C_14
    2  A    between atoms: C_2  and  C_20
    3  A    between atoms: C_11  and  C_20
    4  A    between atoms: C_13  and  N_27
    5  A    between atoms: C_14  and  O_19
    6  A    between atoms: C_26  and  N_27
    7  A    between atoms: C_26  and  C_31
                            x       y       z     vdW  Elec       q    Type
                         _______ _______ _______ _____ _____    ______ ____

>  <TORSDO>
F 7

$$$$
=
 OpenBabel11032419323D

 31 34  0  0  1  0  0  0  0  0999 V2000
  187.9850  177.9790  139.6170 C   0  0  0  0  0  0  0  0  0  0  0  0
  190.9400  176.3430  136.5400 C   0  0  0  0  0  3  0  0  0  0  0  0
  190.6700  176.6250  138.7920 C   0  0  0  0  0  3  0  0  0  0  0  0
  190.1960  176.9380  140.0640 O   0  0  0  0  0  0  0  0  0  0  0  0
  188.8700  177.3830  137.2770 C   0  0  0  0  0  0  0  0  0  0  0  0
  187.2550  178.0310  135.5590 O   0  0  0  0  0  1  0  0  0  0  0  0
  189.3120  177.0030  134.9020 C   0  0  0  0  0  3  0  0  0  0  0  0
  186.7050  178.7480  141.4820 C   0  0  0  0  0  0  0  0  0  0  0  0
  189.0080  177.5420  140.4780 C   0  0  0  0  0  0  0  0  0  0  0  0
  187.9930  177.8680  138.1610 C   0  0  0  0  0  3  0  0  0  0  0  0
  186.8740  178.5610  140.1480 N   0  0  0  0  0  0  0  0  0  0  0  0
  188.4800  177.4720  135.9190 C   0  0  0  0  0  0  0  0  0  0  0  0
  190.1300  176.8030  137.5860 C   0  0  0  0  0  0  0  0  0  0  0  0
  187.6880  178.3240  142.3670 C   0  0  0  0  0  3  0  0  0  0  0  0
  190.5410  176.4390  135.2110 C   0  0  0  0  0  3  0  0  0  0  0  0
  188.8370  177.7180  141.8650 C   0  0  0  0  0  0  0  0  0  0  0  0
  185.4580  179.3750  141.9950 C   0  0  0  0  0  2  0  0  0  0  0  0
  184.5560  178.3150  142.6020 C   0  0  0  0  0  2  0  0  0  0  0  0
  184.3670  178.5840  144.0520 C   0  0  0  0  0  0  0  0  0  0  0  0
  183.3270  179.1800  144.4440 O   0  0  0  0  0  0  0  0  0  0  0  0
  185.6860  178.9970  146.0870 C   0  0  0  0  0  1  0  0  0  0  0  0
  185.3580  178.2030  144.9570 O   0  0  0  0  0  0  0  0  0  0  0  0
  189.8950  177.2930  142.8280 C   0  0  0  0  0  2  0  0  0  0  0  0
  190.4720  178.4620  143.4710 N   0  0  0  0  0  2  0  0  0  0  0  0
  189.4530  177.1480  146.8600 C   0  0  0  0  0  0  0  0  0  0  0  0
  190.6460  178.1370  144.8760 C   0  0  2  0  0  3  0  0  0  0  0  0
  191.6790  176.3180  146.1760 C   0  0  0  0  0  3  0  0  0  0  0  0
  190.8120  176.7120  147.3420 C   0  0  0  0  0  2  0  0  0  0  0  0
  191.6030  176.9850  145.0160 C   0  0  0  0  0  3  0  0  0  0  0  0
  189.2890  177.8080  145.5130 C   0  0  0  0  0  2  0  0  0  0  0  0
  188.4790  176.9850  147.5740 O   0  0  0  0  0  0  0  0  0  0  0  0
  1 11  2  0  0  0  0
  1  9  1  0  0  0  0
  2 13  1  0  0  0  0
  3  4  1  0  0  0  0
  4  9  1  0  0  0  0
  5 13  1  0  0  0  0
  5 10  2  0  0  0  0
  6 12  1  0  0  0  0
  7 15  1  0  0  0  0
  7 12  2  0  0  0  0
  8 17  1  0  0  0  0
  8 14  2  0  0  0  0
  9 16  2  0  0  0  0
 10  1  1  0  0  0  0
 11  8  1  0  0  0  0
 12  5  1  0  0  0  0
 13  3  2  0  0  0  0
 15  2  2  0  0  0  0
 16 14  1  0  0  0  0
 16 23  1  0  0  0  0
 17 18  1  0  0  0  0
 18 19  1  0  0  0  0
 19 20  2  0  0  0  0
 19 22  1  0  0  0  0
 22 21  1  0  0  0  0
 23 24  1  0  0  0  0
 25 28  1  0  0  0  0
 25 31  2  0  0  0  0
 26 24  1  6  0  0  0
 26 29  1  0  0  0  0
 26 30  1  0  0  0  0
 27 28  1  0  0  0  0
 29 27  2  0  0  0  0
 30 25  1  0  0  0  0
M  END
>  <MODEL>
8

>  <REMARK>
 VINA RESULT:      -8.7      2.885      7.880
  Name = 
  7 active torsions:
  status: ('A' for Active; 'I' for Inactive)
    1  A    between atoms: C_2  and  C_14
    2  A    between atoms: C_2  and  C_20
    3  A    between atoms: C_11  and  C_20
    4  A    between atoms: C_13  and  N_27
    5  A    between atoms: C_14  and  O_19
    6  A    between atoms: C_26  and  N_27
    7  A    between atoms: C_26  and  C_31
                            x       y       z     vdW  Elec       q    Type
                         _______ _______ _______ _____ _____    ______ ____

>  <TORSDO>
F 7

$$$$
=
 OpenBabel11032419323D

 31 34  0  0  1  0  0  0  0  0999 V2000
  190.9180  177.2710  140.7570 C   0  0  0  0  0  0  0  0  0  0  0  0
  190.2040  176.4120  136.3270 C   0  0  0  0  0  3  0  0  0  0  0  0
  189.1110  177.0650  138.2250 C   0  0  0  0  0  3  0  0  0  0  0  0
  188.7670  177.4320  139.5250 O   0  0  0  0  0  0  0  0  0  0  0  0
  191.5370  176.6090  138.3510 C   0  0  0  0  0  0  0  0  0  0  0  0
  193.9240  176.1020  138.1870 O   0  0  0  0  0  1  0  0  0  0  0  0
  192.5550  175.9280  136.2340 C   0  0  0  0  0  3  0  0  0  0  0  0
  190.9180  177.7790  143.0920 C   0  0  0  0  0  0  0  0  0  0  0  0
  189.5380  177.5360  140.6830 C   0  0  0  0  0  0  0  0  0  0  0  0
  191.7670  176.8550  139.6440 C   0  0  0  0  0  3  0  0  0  0  0  0
  191.5560  177.4050  141.9540 N   0  0  0  0  0  0  0  0  0  0  0  0
  192.6670  176.2150  137.5950 C   0  0  0  0  0  0  0  0  0  0  0  0
  190.2800  176.7090  137.6940 C   0  0  0  0  0  0  0  0  0  0  0  0
  189.5580  178.0560  143.0600 C   0  0  0  0  0  3  0  0  0  0  0  0
  191.3250  176.0250  135.6000 C   0  0  0  0  0  3  0  0  0  0  0  0
  188.8690  177.9380  141.8550 C   0  0  0  0  0  0  0  0  0  0  0  0
  191.6800  177.9220  144.3610 C   0  0  0  0  0  2  0  0  0  0  0  0
  191.5470  176.6590  145.1920 C   0  0  0  0  0  2  0  0  0  0  0  0
  190.9690  176.9890  146.5220 C   0  0  0  0  0  0  0  0  0  0  0  0
  189.8170  177.4950  146.5910 O   0  0  0  0  0  0  0  0  0  0  0  0
  192.5500  175.6180  147.8150 C   0  0  0  0  0  1  0  0  0  0  0  0
  191.7230  176.7630  147.6740 O   0  0  0  0  0  0  0  0  0  0  0  0
  187.4020  178.2140  141.8440 C   0  0  0  0  0  2  0  0  0  0  0  0
  186.7810  177.6130  143.0130 N   0  0  0  0  0  2  0  0  0  0  0  0
  183.2100  178.8390  142.9920 C   0  0  0  0  0  0  0  0  0  0  0  0
  185.6680  178.4660  143.3930 C   0  0  2  0  0  3  0  0  0  0  0  0
  184.1030  178.6260  145.2880 C   0  0  0  0  0  3  0  0  0  0  0  0
  183.1610  179.3860  144.3940 C   0  0  0  0  0  2  0  0  0  0  0  0
  185.2810  178.1910  144.8200 C   0  0  0  0  0  3  0  0  0  0  0  0
  184.4820  178.2370  142.4450 C   0  0  0  0  0  2  0  0  0  0  0  0
  182.2200  178.9010  142.2840 O   0  0  0  0  0  0  0  0  0  0  0  0
  1 11  1  0  0  0  0
  2 13  1  0  0  0  0
  3  4  1  0  0  0  0
  4  9  1  0  0  0  0
  5 10  2  0  0  0  0
  7 12  2  0  0  0  0
  8 17  1  0  0  0  0
  9  1  2  0  0  0  0
  9 16  1  0  0  0  0
 10  1  1  0  0  0  0
 11  8  2  0  0  0  0
 12  6  1  0  0  0  0
 12  5  1  0  0  0  0
 13  3  2  0  0  0  0
 13  5  1  0  0  0  0
 14  8  1  0  0  0  0
 15  7  1  0  0  0  0
 15  2  2  0  0  0  0
 16 14  2  0  0  0  0
 17 18  1  0  0  0  0
 18 19  1  0  0  0  0
 19 20  2  0  0  0  0
 19 22  1  0  0  0  0
 22 21  1  0  0  0  0
 23 16  1  0  0  0  0
 23 24  1  0  0  0  0
 25 28  1  0  0  0  0
 26 24  1  6  0  0  0
 26 29  1  0  0  0  0
 28 27  1  0  0  0  0
 29 27  2  0  0  0  0
 30 25  1  0  0  0  0
 30 26  1  0  0  0  0
 31 25  2  0  0  0  0
M  END
>  <MODEL>
9

>  <REMARK>
 VINA RESULT:      -8.7      3.795      8.232
  Name = 
  7 active torsions:
  status: ('A' for Active; 'I' for Inactive)
    1  A    between atoms: C_2  and  C_14
    2  A    between atoms: C_2  and  C_20
    3  A    between atoms: C_11  and  C_20
    4  A    between atoms: C_13  and  N_27
    5  A    between atoms: C_14  and  O_19
    6  A    between atoms: C_26  and  N_27
    7  A    between atoms: C_26  and  C_31
                            x       y       z     vdW  Elec       q    Type
                         _______ _______ _______ _____ _____    ______ ____

>  <TORSDO>
F 7

$$$$
