=
 OpenBabel11042409533D

 66 73  0  0  1  0  0  0  0  0999 V2000
  189.8320  176.6570  144.3510 C   0  0  0  0  0  3  0  0  0  0  0  0
  188.1880  177.6180  145.6280 C   0  0  0  0  0  0  0  0  0  0  0  0
  185.2240  178.3530  142.0440 C   0  0  0  0  0  3  0  0  0  0  0  0
  187.9900  178.0530  148.1050 C   0  0  0  0  0  1  0  0  0  0  0  0
  188.7730  176.8630  141.9950 C   0  0  0  0  0  0  0  0  0  0  0  0
  186.1950  178.6830  146.6040 N   0  0  0  0  0  0  0  0  0  0  0  0
  187.8300  177.6420  144.2240 C   0  0  0  0  0  0  0  0  0  0  0  0
  185.5600  178.5940  144.2230 C   0  0  0  0  0  0  0  0  0  0  0  0
  189.4430  176.9870  145.6510 C   0  0  0  0  0  0  0  0  0  0  0  0
  186.4810  177.9390  142.3050 N   0  0  0  0  0  0  0  0  0  0  0  0
  187.4400  178.1270  146.7110 C   0  0  0  0  0  0  0  0  0  0  0  0
  185.3480  178.9000  145.5590 C   0  0  0  0  0  3  0  0  0  0  0  0
  186.6670  178.0540  143.6310 C   0  0  0  0  0  0  0  0  0  0  0  0
  184.6210  178.7860  143.2200 C   0  0  0  0  0  3  0  0  0  0  0  0
  187.4400  177.3840  141.3340 C   0  0  0  0  0  0  0  0  0  0  0  0
  188.8330  177.0730  143.4930 C   0  0  0  0  0  0  0  0  0  0  0  0
  191.6770  176.2150  146.5290 C   0  0  0  0  0  1  0  0  0  0  0  0
  190.2870  176.7510  146.8670 C   0  0  0  0  0  2  0  0  0  0  0  0
  187.6460  178.3720  140.1760 C   0  0  0  0  0  2  0  0  0  0  0  0
  187.3240  177.7220  138.8360 C   0  0  2  0  0  3  0  0  0  0  0  0
  188.3810  178.0730  137.7710 C   0  0  2  0  0  3  0  0  0  0  0  0
  188.8230  179.5370  137.6970 C   0  0  0  0  0  1  0  0  0  0  0  0
  188.2160  177.4200  136.5270 O   0  0  0  0  0  0  0  0  0  0  0  0
  189.0600  178.0260  135.5840 C   0  0  0  0  0  1  0  0  0  0  0  0
  185.9140  178.0410  138.4280 C   0  0  0  0  0  3  0  0  0  0  0  0
  185.1560  177.1990  137.7210 C   0  0  0  0  0  3  0  0  0  0  0  0
  183.7760  177.5850  137.2990 C   0  0  0  0  0  2  0  0  0  0  0  0
  181.8780  177.1670  138.8790 C   0  0  0  0  0  2  0  0  0  0  0  0
  182.2230  179.7080  137.9940 S   0  0  0  0  0  0  0  0  0  0  0  0
  182.9790  178.1320  138.4770 C   0  0  2  0  0  3  0  0  0  0  0  0
  180.5640  179.2410  138.6240 C   0  0  2  0  0  0  0  0  0  0  0  0
  180.7550  177.9930  139.4710 C   0  0  0  0  0  2  0  0  0  0  0  0
  180.4550  179.0520  136.0480 C   0  0  0  0  0  2  0  0  0  0  0  0
  179.2460  179.8830  136.4360 C   0  0  0  0  0  2  0  0  0  0  0  0
  179.7550  178.8050  137.3660 C   0  0  0  0  0  3  0  0  0  0  0  0
  180.0390  180.3350  139.4990 N   0  0  0  0  0  0  0  0  0  0  0  0
  180.0510  181.6790  139.0590 N   0  0  0  0  0  0  0  0  0  0  0  0
  181.0450  182.1870  138.4440 N   0  0  0  0  0  0  0  0  0  0  0  0
  180.9840  183.5550  137.9500 C   0  0  0  0  0  2  0  0  0  0  0  0
  180.0600  183.6200  136.7370 C   0  0  1  0  0  3  0  0  0  0  0  0
  179.0650  185.2230  135.3150 C   0  0  0  0  0  2  0  0  0  0  0  0
  179.2080  184.8550  136.7700 C   0  0  0  0  0  2  0  0  0  0  0  0
  180.8590  183.7240  135.4600 C   0  0  0  0  0  2  0  0  0  0  0  0
  180.2430  184.7360  134.6060 N   0  0  0  0  0  2  0  0  0  0  0  0
  179.4080  180.1180  140.7940 C   0  0  0  0  0  2  0  0  0  0  0  0
  179.4380  181.2920  141.5460 O   0  0  0  0  0  1  0  0  0  0  0  0
  190.0330  177.4160  141.3360 C   0  0  0  0  0  2  0  0  0  0  0  0
  190.5070  176.5050  140.2050 C   0  0  0  0  0  2  0  0  0  0  0  0
  191.6310  177.1450  139.3960 C   0  0  0  0  0  2  0  0  0  0  0  0
  193.8270  175.3310  136.8840 C   0  0  1  0  0  3  0  0  0  0  0  0
  191.7980  174.9200  138.4570 O   0  0  0  0  0  0  0  0  0  0  0  0
  191.9700  176.2910  138.1800 C   0  0  2  0  0  3  0  0  0  0  0  0
  193.4000  176.5370  137.7200 C   0  0  0  0  0  2  0  0  0  0  0  0
  191.8410  174.2010  137.2300 C   0  0  2  0  0  3  0  0  0  0  0  0
  192.7110  174.7510  136.2420 O   0  0  0  0  0  0  0  0  0  0  0  0
  189.5360  173.7410  137.6540 F   0  0  0  0  0  0  0  0  0  0  0  0
  190.0650  175.1960  136.0230 F   0  0  0  0  0  0  0  0  0  0  0  0
  190.4430  174.0270  136.6520 C   0  0  0  0  0  0  0  0  0  0  0  0
  190.4440  172.9960  135.7240 F   0  0  0  0  0  0  0  0  0  0  0  0
  194.8670  176.8060  135.3420 O   0  0  0  0  0  0  0  0  0  0  0  0
  194.8840  175.7080  135.8830 C   0  0  0  0  0  0  0  0  0  0  0  0
  195.9910  174.7440  135.5670 C   0  0  0  0  0  2  0  0  0  0  0  0
  197.2400  175.0360  136.3970 C   0  0  1  0  0  3  0  0  0  0  0  0
  196.8840  175.2260  137.7360 O   0  0  0  0  0  1  0  0  0  0  0  0
  198.2060  173.8690  136.3140 C   0  0  0  0  0  2  0  0  0  0  0  0
  197.9090  172.9180  137.2900 O   0  0  0  0  0  1  0  0  0  0  0  0
  1  9  1  0  0  0  0
  2  9  2  0  0  0  0
  2 11  1  0  0  0  0
  3 10  1  0  0  0  0
  3 14  2  0  0  0  0
  5 16  1  0  0  0  0
  6 11  2  0  0  0  0
  7  2  1  0  0  0  0
  8 12  2  0  0  0  0
  9 18  1  0  0  0  0
 10 13  1  0  0  0  0
 11  4  1  0  0  0  0
 12  6  1  0  0  0  0
 13  8  1  0  0  0  0
 13  7  2  0  0  0  0
 14  8  1  0  0  0  0
 15  5  2  0  0  0  0
 15 10  1  0  0  0  0
 16  7  1  0  0  0  0
 16  1  2  0  0  0  0
 17 18  1  0  0  0  0
 19 15  1  0  0  0  0
 20 25  1  6  0  0  0
 20 19  1  0  0  0  0
 21 22  1  6  0  0  0
 21 20  1  0  0  0  0
 23 21  1  0  0  0  0
 24 23  1  0  0  0  0
 26 25  2  0  0  0  0
 27 26  1  0  0  0  0
 28 32  1  0  0  0  0
 29 30  1  0  0  0  0
 29 31  1  0  0  0  0
 30 27  1  6  0  0  0
 30 28  1  0  0  0  0
 31 32  1  0  0  0  0
 31 36  1  1  0  0  0
 33 34  1  0  0  0  0
 33 35  1  0  0  0  0
 34 35  1  0  0  0  0
 35 31  1  0  0  0  0
 36 45  1  0  0  0  0
 37 36  1  0  0  0  0
 38 37  2  0  0  0  0
 39 38  1  0  0  0  0
 40 42  1  0  0  0  0
 40 39  1  1  0  0  0
 41 42  1  0  0  0  0
 43 40  1  0  0  0  0
 44 41  1  0  0  0  0
 44 43  1  0  0  0  0
 45 46  1  0  0  0  0
 47  5  1  0  0  0  0
 48 47  1  0  0  0  0
 49 48  1  0  0  0  0
 50 61  1  6  0  0  0
 50 53  1  0  0  0  0
 52 51  1  0  0  0  0
 52 49  1  1  0  0  0
 53 52  1  0  0  0  0
 54 58  1  6  0  0  0
 54 51  1  0  0  0  0
 55 50  1  0  0  0  0
 55 54  1  0  0  0  0
 57 58  1  0  0  0  0
 58 56  1  0  0  0  0
 59 58  1  0  0  0  0
 60 61  2  0  0  0  0
 62 61  1  0  0  0  0
 62 63  1  0  0  0  0
 63 64  1  1  0  0  0
 65 63  1  0  0  0  0
 65 66  1  0  0  0  0
M  END
>  <MODEL>
1

>  <REMARK>
 VINA RESULT:      -7.5      0.000      0.000
  Name = 
  23 active torsions:
  status: ('A' for Active; 'I' for Inactive)
    1  A    between atoms: C_1  and  C_5
    2  A    between atoms: C_1  and  C_27
    3  A    between atoms: N_2  and  N_11
    4  A    between atoms: C_5  and  C_37
    5  A    between atoms: C_7  and  C_10
    6  A    between atoms: C_7  and  N_59
    7  A    between atoms: C_9  and  N_11
    8  A    between atoms: N_11  and  C_54
    9  A    between atoms: C_12  and  C_53
   10  A    between atoms: C_12  and  C_64
   11  A    between atoms: C_13  and  C_53
   12  A    between atoms: C_23  and  C_37
   13  A    between atoms: C_24  and  C_38
   14  A    between atoms: C_24  and  C_56
   15  A    between atoms: C_28  and  C_36
   16  A    between atoms: C_28  and  C_46
   17  A    between atoms: C_30  and  C_51
   18  A    between atoms: C_35  and  C_61
   19  A    between atoms: O_41  and  C_44
   20  A    between atoms: C_42  and  C_54
   21  A    between atoms: C_44  and  C_53
   22  A    between atoms: C_47  and  C_50
   23  A    between atoms: C_51  and  C_56
                            x       y       z     vdW  Elec       q    Type
                         _______ _______ _______ _____ _____    ______ ____

>  <TORSDO>
F 23

$$$$
=
 OpenBabel11042409533D

 66 73  0  0  1  0  0  0  0  0999 V2000
  188.6290  176.9750  143.5140 C   0  0  0  0  0  3  0  0  0  0  0  0
  187.7980  177.5340  145.5760 C   0  0  0  0  0  0  0  0  0  0  0  0
  183.5710  178.8770  143.9950 C   0  0  0  0  0  3  0  0  0  0  0  0
  188.7710  177.3970  147.9000 C   0  0  0  0  0  1  0  0  0  0  0  0
  186.6270  177.6380  142.0090 C   0  0  0  0  0  0  0  0  0  0  0  0
  186.5260  178.2410  147.5600 N   0  0  0  0  0  0  0  0  0  0  0  0
  186.8420  177.8480  144.5340 C   0  0  0  0  0  0  0  0  0  0  0  0
  184.8730  178.6470  145.7750 C   0  0  0  0  0  0  0  0  0  0  0  0
  188.8920  176.9860  144.8850 C   0  0  0  0  0  0  0  0  0  0  0  0
  184.7860  178.4870  143.5570 N   0  0  0  0  0  0  0  0  0  0  0  0
  187.6520  177.7470  146.9640 C   0  0  0  0  0  0  0  0  0  0  0  0
  185.3090  178.6360  147.0930 C   0  0  0  0  0  3  0  0  0  0  0  0
  185.5600  178.3150  144.6410 C   0  0  0  0  0  0  0  0  0  0  0  0
  183.5920  179.0030  145.3800 C   0  0  0  0  0  3  0  0  0  0  0  0
  185.1680  178.2160  142.1600 C   0  0  0  0  0  0  0  0  0  0  0  0
  187.3730  177.5130  143.3200 C   0  0  0  0  0  0  0  0  0  0  0  0
  191.3870  177.3310  145.0010 C   0  0  0  0  0  1  0  0  0  0  0  0
  190.1820  176.5330  145.4990 C   0  0  0  0  0  2  0  0  0  0  0  0
  184.8760  179.4470  141.2880 C   0  0  0  0  0  2  0  0  0  0  0  0
  183.8520  179.1230  140.2070 C   0  0  2  0  0  3  0  0  0  0  0  0
  182.7260  178.2210  140.7480 C   0  0  2  0  0  3  0  0  0  0  0  0
  182.9390  176.7080  140.6280 C   0  0  0  0  0  1  0  0  0  0  0  0
  181.4140  178.6760  140.4820 O   0  0  0  0  0  0  0  0  0  0  0  0
  180.7400  178.8470  141.7010 C   0  0  0  0  0  1  0  0  0  0  0  0
  184.5390  178.5800  138.9870 C   0  0  0  0  0  3  0  0  0  0  0  0
  183.8920  177.9120  138.0280 C   0  0  0  0  0  3  0  0  0  0  0  0
  184.6310  177.3500  136.8580 C   0  0  0  0  0  2  0  0  0  0  0  0
  183.5650  175.9140  135.1040 C   0  0  0  0  0  2  0  0  0  0  0  0
  182.8090  175.5010  137.6770 S   0  0  0  0  0  0  0  0  0  0  0  0
  184.1260  175.9540  136.5150 C   0  0  2  0  0  3  0  0  0  0  0  0
  181.6690  174.9450  136.3520 C   0  0  2  0  0  0  0  0  0  0  0  0
  182.4950  174.8420  135.0790 C   0  0  0  0  0  2  0  0  0  0  0  0
  179.7490  176.3860  137.3110 C   0  0  0  0  0  2  0  0  0  0  0  0
  179.2020  175.8060  136.0210 C   0  0  0  0  0  2  0  0  0  0  0  0
  180.6750  176.1250  136.1430 C   0  0  0  0  0  3  0  0  0  0  0  0
  181.1430  173.5850  136.6880 N   0  0  0  0  0  0  0  0  0  0  0  0
  181.5070  172.4590  135.9140 N   0  0  0  0  0  0  0  0  0  0  0  0
  182.5760  171.8010  136.1280 N   0  0  0  0  0  0  0  0  0  0  0  0
  182.8730  170.6070  135.3480 C   0  0  0  0  0  2  0  0  0  0  0  0
  184.1880  170.8020  134.5970 C   0  0  1  0  0  3  0  0  0  0  0  0
  186.3820  171.5900  134.9790 C   0  0  0  0  0  2  0  0  0  0  0  0
  184.9370  171.9960  135.1130 C   0  0  0  0  0  2  0  0  0  0  0  0
  185.1120  169.6280  134.8190 C   0  0  0  0  0  2  0  0  0  0  0  0
  186.4560  170.1360  135.0780 N   0  0  0  0  0  2  0  0  0  0  0  0
  180.3130  173.2900  137.8490 C   0  0  0  0  0  2  0  0  0  0  0  0
  179.1120  172.7080  137.4470 O   0  0  0  0  0  1  0  0  0  0  0  0
  187.4760  178.3930  140.9920 C   0  0  0  0  0  2  0  0  0  0  0  0
  187.2720  177.8370  139.5830 C   0  0  0  0  0  2  0  0  0  0  0  0
  188.3820  178.2780  138.6340 C   0  0  0  0  0  2  0  0  0  0  0  0
  191.6130  176.4720  137.7830 C   0  0  1  0  0  3  0  0  0  0  0  0
  190.6780  178.2790  139.4010 O   0  0  0  0  0  0  0  0  0  0  0  0
  189.6510  177.4690  138.8800 C   0  0  2  0  0  3  0  0  0  0  0  0
  190.1320  176.8040  137.5970 C   0  0  0  0  0  2  0  0  0  0  0  0
  191.7210  177.4370  139.8790 C   0  0  2  0  0  3  0  0  0  0  0  0
  191.9020  176.2290  139.1420 O   0  0  0  0  0  0  0  0  0  0  0  0
  191.0390  175.8390  141.5180 F   0  0  0  0  0  0  0  0  0  0  0  0
  192.7470  177.2190  142.0010 F   0  0  0  0  0  0  0  0  0  0  0  0
  191.5310  177.1200  141.3570 C   0  0  0  0  0  0  0  0  0  0  0  0
  190.6460  178.0280  141.9210 F   0  0  0  0  0  0  0  0  0  0  0  0
  191.5920  175.1820  135.7890 O   0  0  0  0  0  0  0  0  0  0  0  0
  192.0190  175.3010  136.9310 C   0  0  0  0  0  0  0  0  0  0  0  0
  192.9810  174.2820  137.4710 C   0  0  0  0  0  2  0  0  0  0  0  0
  194.4000  174.5270  136.9580 C   0  0  1  0  0  3  0  0  0  0  0  0
  195.2150  174.9550  138.0110 O   0  0  0  0  0  1  0  0  0  0  0  0
  194.9770  173.2460  136.3890 C   0  0  0  0  0  2  0  0  0  0  0  0
  194.2390  172.1440  136.8190 O   0  0  0  0  0  1  0  0  0  0  0  0
  1  9  1  0  0  0  0
  2 11  1  0  0  0  0
  3 14  2  0  0  0  0
  5 15  2  0  0  0  0
  5 16  1  0  0  0  0
  7 13  2  0  0  0  0
  7  2  1  0  0  0  0
  8 12  2  0  0  0  0
  9 18  1  0  0  0  0
  9  2  2  0  0  0  0
 10  3  1  0  0  0  0
 10 13  1  0  0  0  0
 11  6  2  0  0  0  0
 11  4  1  0  0  0  0
 12  6  1  0  0  0  0
 13  8  1  0  0  0  0
 14  8  1  0  0  0  0
 15 10  1  0  0  0  0
 16  1  2  0  0  0  0
 16  7  1  0  0  0  0
 17 18  1  0  0  0  0
 19 15  1  0  0  0  0
 20 25  1  6  0  0  0
 20 21  1  0  0  0  0
 20 19  1  0  0  0  0
 21 22  1  6  0  0  0
 23 21  1  0  0  0  0
 23 24  1  0  0  0  0
 26 25  2  0  0  0  0
 27 26  1  0  0  0  0
 28 30  1  0  0  0  0
 30 27  1  1  0  0  0
 30 29  1  0  0  0  0
 31 36  1  1  0  0  0
 31 29  1  0  0  0  0
 32 28  1  0  0  0  0
 32 31  1  0  0  0  0
 34 35  1  0  0  0  0
 34 33  1  0  0  0  0
 35 31  1  0  0  0  0
 35 33  1  0  0  0  0
 36 45  1  0  0  0  0
 37 38  2  0  0  0  0
 37 36  1  0  0  0  0
 39 38  1  0  0  0  0
 40 43  1  0  0  0  0
 40 42  1  0  0  0  0
 40 39  1  1  0  0  0
 41 44  1  0  0  0  0
 41 42  1  0  0  0  0
 43 44  1  0  0  0  0
 46 45  1  0  0  0  0
 47  5  1  0  0  0  0
 48 47  1  0  0  0  0
 49 48  1  0  0  0  0
 50 61  1  6  0  0  0
 50 55  1  0  0  0  0
 51 54  1  0  0  0  0
 52 49  1  6  0  0  0
 52 51  1  0  0  0  0
 53 50  1  0  0  0  0
 53 52  1  0  0  0  0
 54 58  1  1  0  0  0
 55 54  1  0  0  0  0
 58 56  1  0  0  0  0
 58 59  1  0  0  0  0
 58 57  1  0  0  0  0
 60 61  2  0  0  0  0
 61 62  1  0  0  0  0
 63 62  1  0  0  0  0
 63 64  1  1  0  0  0
 65 66  1  0  0  0  0
 65 63  1  0  0  0  0
M  END
>  <MODEL>
2

>  <REMARK>
 VINA RESULT:      -6.6      3.794      6.168
  Name = 
  23 active torsions:
  status: ('A' for Active; 'I' for Inactive)
    1  A    between atoms: C_1  and  C_5
    2  A    between atoms: C_1  and  C_27
    3  A    between atoms: N_2  and  N_11
    4  A    between atoms: C_5  and  C_37
    5  A    between atoms: C_7  and  C_10
    6  A    between atoms: C_7  and  N_59
    7  A    between atoms: C_9  and  N_11
    8  A    between atoms: N_11  and  C_54
    9  A    between atoms: C_12  and  C_53
   10  A    between atoms: C_12  and  C_64
   11  A    between atoms: C_13  and  C_53
   12  A    between atoms: C_23  and  C_37
   13  A    between atoms: C_24  and  C_38
   14  A    between atoms: C_24  and  C_56
   15  A    between atoms: C_28  and  C_36
   16  A    between atoms: C_28  and  C_46
   17  A    between atoms: C_30  and  C_51
   18  A    between atoms: C_35  and  C_61
   19  A    between atoms: O_41  and  C_44
   20  A    between atoms: C_42  and  C_54
   21  A    between atoms: C_44  and  C_53
   22  A    between atoms: C_47  and  C_50
   23  A    between atoms: C_51  and  C_56
                            x       y       z     vdW  Elec       q    Type
                         _______ _______ _______ _____ _____    ______ ____

>  <TORSDO>
F 23

$$$$
=
 OpenBabel11042409533D

 66 73  0  0  1  0  0  0  0  0999 V2000
  189.5550  176.7130  143.9010 C   0  0  0  0  0  3  0  0  0  0  0  0
  187.8940  177.6820  145.1490 C   0  0  0  0  0  0  0  0  0  0  0  0
  185.0370  178.5150  141.5000 C   0  0  0  0  0  3  0  0  0  0  0  0
  187.6380  178.0870  147.6260 C   0  0  0  0  0  1  0  0  0  0  0  0
  188.5610  176.9680  141.5220 C   0  0  0  0  0  0  0  0  0  0  0  0
  185.8940  178.7660  146.0880 N   0  0  0  0  0  0  0  0  0  0  0  0
  187.5730  177.7310  143.7370 C   0  0  0  0  0  0  0  0  0  0  0  0
  185.3190  178.7200  143.6900 C   0  0  0  0  0  0  0  0  0  0  0  0
  189.1380  177.0310  145.1950 C   0  0  0  0  0  0  0  0  0  0  0  0
  186.2790  178.0770  141.7880 N   0  0  0  0  0  0  0  0  0  0  0  0
  187.1260  178.1890  146.2200 C   0  0  0  0  0  0  0  0  0  0  0  0
  185.0770  179.0110  145.0250 C   0  0  0  0  0  3  0  0  0  0  0  0
  186.4330  178.1700  143.1190 C   0  0  0  0  0  0  0  0  0  0  0  0
  184.4090  178.9410  142.6660 C   0  0  0  0  0  3  0  0  0  0  0  0
  187.2540  177.5190  140.8340 C   0  0  0  0  0  0  0  0  0  0  0  0
  188.5860  177.1560  143.0240 C   0  0  0  0  0  0  0  0  0  0  0  0
  191.4510  176.8670  146.1870 C   0  0  0  0  0  1  0  0  0  0  0  0
  189.9450  176.7640  146.4300 C   0  0  0  0  0  2  0  0  0  0  0  0
  187.5060  178.5200  139.6960 C   0  0  0  0  0  2  0  0  0  0  0  0
  187.7660  177.8000  138.3790 C   0  0  2  0  0  3  0  0  0  0  0  0
  188.5410  178.6920  137.3910 C   0  0  2  0  0  3  0  0  0  0  0  0
  187.7040  179.5720  136.4570 C   0  0  0  0  0  1  0  0  0  0  0  0
  189.6800  178.0900  136.8060 O   0  0  0  0  0  0  0  0  0  0  0  0
  189.3640  177.7090  135.4930 C   0  0  0  0  0  1  0  0  0  0  0  0
  186.4840  177.2440  137.8280 C   0  0  0  0  0  3  0  0  0  0  0  0
  186.4290  176.1110  137.1230 C   0  0  0  0  0  3  0  0  0  0  0  0
  185.1350  175.6280  136.5550 C   0  0  0  0  0  2  0  0  0  0  0  0
  183.1970  174.6180  137.7790 C   0  0  0  0  0  2  0  0  0  0  0  0
  182.8720  177.1220  136.7890 S   0  0  0  0  0  0  0  0  0  0  0  0
  183.9850  175.8900  137.5190 C   0  0  2  0  0  3  0  0  0  0  0  0
  181.3640  176.1360  137.1300 C   0  0  2  0  0  0  0  0  0  0  0  0
  181.7730  175.0290  138.0890 C   0  0  0  0  0  2  0  0  0  0  0  0
  179.9430  174.3780  135.8760 C   0  0  0  0  0  2  0  0  0  0  0  0
  181.3840  173.9930  135.5990 C   0  0  0  0  0  2  0  0  0  0  0  0
  181.0080  175.4470  135.7800 C   0  0  0  0  0  3  0  0  0  0  0  0
  180.3480  177.0010  137.8080 N   0  0  0  0  0  0  0  0  0  0  0  0
  179.9890  176.7700  139.1570 N   0  0  0  0  0  0  0  0  0  0  0  0
  180.3280  177.5600  140.0970 N   0  0  0  0  0  0  0  0  0  0  0  0
  179.8770  177.3170  141.4600 C   0  0  0  0  0  2  0  0  0  0  0  0
  179.1380  178.5470  141.9820 C   0  0  1  0  0  3  0  0  0  0  0  0
  179.5560  180.4950  143.2530 C   0  0  0  0  0  2  0  0  0  0  0  0
  179.6940  178.9940  143.3030 C   0  0  0  0  0  2  0  0  0  0  0  0
  179.3320  179.7220  141.0520 C   0  0  0  0  0  2  0  0  0  0  0  0
  179.6130  180.9090  141.8550 N   0  0  0  0  0  2  0  0  0  0  0  0
  179.7250  178.1680  137.1980 C   0  0  0  0  0  2  0  0  0  0  0  0
  180.3480  178.4680  135.9870 O   0  0  0  0  0  1  0  0  0  0  0  0
  189.8460  177.5090  140.9040 C   0  0  0  0  0  2  0  0  0  0  0  0
  190.6060  176.4100  140.1630 C   0  0  0  0  0  2  0  0  0  0  0  0
  191.6610  176.9860  139.2240 C   0  0  0  0  0  2  0  0  0  0  0  0
  193.6590  174.6100  137.0350 C   0  0  1  0  0  3  0  0  0  0  0  0
  191.4160  174.7440  138.3440 O   0  0  0  0  0  0  0  0  0  0  0  0
  191.9360  176.0250  138.0720 C   0  0  2  0  0  3  0  0  0  0  0  0
  193.4280  175.9160  137.7940 C   0  0  0  0  0  2  0  0  0  0  0  0
  191.4370  173.9830  137.1410 C   0  0  2  0  0  3  0  0  0  0  0  0
  192.5240  174.2750  136.2650 O   0  0  0  0  0  0  0  0  0  0  0  0
  189.1920  174.7970  137.1560 F   0  0  0  0  0  0  0  0  0  0  0  0
  190.3300  174.8020  135.2170 F   0  0  0  0  0  0  0  0  0  0  0  0
  190.1170  174.1110  136.3920 C   0  0  0  0  0  0  0  0  0  0  0  0
  189.6240  172.8500  136.0920 F   0  0  0  0  0  0  0  0  0  0  0  0
  194.8120  174.5170  134.9620 O   0  0  0  0  0  0  0  0  0  0  0  0
  194.8870  174.6900  136.1720 C   0  0  0  0  0  0  0  0  0  0  0  0
  196.2150  175.0180  136.7910 C   0  0  0  0  0  2  0  0  0  0  0  0
  197.0210  173.7540  137.0880 C   0  0  1  0  0  3  0  0  0  0  0  0
  196.4100  172.6510  136.4840 O   0  0  0  0  0  1  0  0  0  0  0  0
  198.4280  173.8910  136.5370 C   0  0  0  0  0  2  0  0  0  0  0  0
  198.7580  175.2350  136.3700 O   0  0  0  0  0  1  0  0  0  0  0  0
  1  9  1  0  0  0  0
  2  9  2  0  0  0  0
  2 11  1  0  0  0  0
  3 10  1  0  0  0  0
  3 14  2  0  0  0  0
  5 16  1  0  0  0  0
  6 11  2  0  0  0  0
  7  2  1  0  0  0  0
  8 12  2  0  0  0  0
  9 18  1  0  0  0  0
 10 13  1  0  0  0  0
 11  4  1  0  0  0  0
 12  6  1  0  0  0  0
 13  8  1  0  0  0  0
 13  7  2  0  0  0  0
 14  8  1  0  0  0  0
 15  5  2  0  0  0  0
 15 10  1  0  0  0  0
 16  7  1  0  0  0  0
 16  1  2  0  0  0  0
 17 18  1  0  0  0  0
 19 15  1  0  0  0  0
 20 25  1  6  0  0  0
 20 19  1  0  0  0  0
 21 22  1  6  0  0  0
 21 20  1  0  0  0  0
 23 21  1  0  0  0  0
 24 23  1  0  0  0  0
 26 25  2  0  0  0  0
 27 26  1  0  0  0  0
 28 32  1  0  0  0  0
 29 31  1  0  0  0  0
 29 30  1  0  0  0  0
 30 27  1  6  0  0  0
 30 28  1  0  0  0  0
 31 36  1  1  0  0  0
 31 32  1  0  0  0  0
 34 35  1  0  0  0  0
 34 33  1  0  0  0  0
 35 33  1  0  0  0  0
 35 31  1  0  0  0  0
 36 37  1  0  0  0  0
 37 38  2  0  0  0  0
 38 39  1  0  0  0  0
 40 39  1  6  0  0  0
 40 42  1  0  0  0  0
 41 42  1  0  0  0  0
 43 44  1  0  0  0  0
 43 40  1  0  0  0  0
 44 41  1  0  0  0  0
 45 36  1  0  0  0  0
 46 45  1  0  0  0  0
 47  5  1  0  0  0  0
 48 47  1  0  0  0  0
 49 48  1  0  0  0  0
 50 61  1  6  0  0  0
 50 53  1  0  0  0  0
 52 51  1  0  0  0  0
 52 49  1  1  0  0  0
 53 52  1  0  0  0  0
 54 58  1  6  0  0  0
 54 51  1  0  0  0  0
 55 50  1  0  0  0  0
 55 54  1  0  0  0  0
 57 58  1  0  0  0  0
 58 56  1  0  0  0  0
 59 58  1  0  0  0  0
 60 61  2  0  0  0  0
 61 62  1  0  0  0  0
 62 63  1  0  0  0  0
 63 64  1  6  0  0  0
 65 63  1  0  0  0  0
 66 65  1  0  0  0  0
M  END
>  <MODEL>
3

>  <REMARK>
 VINA RESULT:      -6.6      2.475      3.228
  Name = 
  23 active torsions:
  status: ('A' for Active; 'I' for Inactive)
    1  A    between atoms: C_1  and  C_5
    2  A    between atoms: C_1  and  C_27
    3  A    between atoms: N_2  and  N_11
    4  A    between atoms: C_5  and  C_37
    5  A    between atoms: C_7  and  C_10
    6  A    between atoms: C_7  and  N_59
    7  A    between atoms: C_9  and  N_11
    8  A    between atoms: N_11  and  C_54
    9  A    between atoms: C_12  and  C_53
   10  A    between atoms: C_12  and  C_64
   11  A    between atoms: C_13  and  C_53
   12  A    between atoms: C_23  and  C_37
   13  A    between atoms: C_24  and  C_38
   14  A    between atoms: C_24  and  C_56
   15  A    between atoms: C_28  and  C_36
   16  A    between atoms: C_28  and  C_46
   17  A    between atoms: C_30  and  C_51
   18  A    between atoms: C_35  and  C_61
   19  A    between atoms: O_41  and  C_44
   20  A    between atoms: C_42  and  C_54
   21  A    between atoms: C_44  and  C_53
   22  A    between atoms: C_47  and  C_50
   23  A    between atoms: C_51  and  C_56
                            x       y       z     vdW  Elec       q    Type
                         _______ _______ _______ _____ _____    ______ ____

>  <TORSDO>
F 23

$$$$
=
 OpenBabel11042409533D

 66 73  0  0  1  0  0  0  0  0999 V2000
  188.3160  177.0450  143.0100 C   0  0  0  0  0  3  0  0  0  0  0  0
  187.6500  177.7100  145.1010 C   0  0  0  0  0  0  0  0  0  0  0  0
  183.2500  178.8030  143.8310 C   0  0  0  0  0  3  0  0  0  0  0  0
  188.8310  177.7590  147.3300 C   0  0  0  0  0  1  0  0  0  0  0  0
  186.1630  177.5400  141.6550 C   0  0  0  0  0  0  0  0  0  0  0  0
  186.5330  178.5030  147.1440 N   0  0  0  0  0  0  0  0  0  0  0  0
  186.5940  177.9230  144.1320 C   0  0  0  0  0  0  0  0  0  0  0  0
  184.7130  178.7340  145.4960 C   0  0  0  0  0  0  0  0  0  0  0  0
  188.6990  177.1550  144.3480 C   0  0  0  0  0  0  0  0  0  0  0  0
  184.4360  178.4270  143.3100 N   0  0  0  0  0  0  0  0  0  0  0  0
  187.6200  178.0090  146.4800 C   0  0  0  0  0  0  0  0  0  0  0  0
  185.2640  178.8250  146.7660 C   0  0  0  0  0  3  0  0  0  0  0  0
  185.3090  178.3520  144.3270 C   0  0  0  0  0  0  0  0  0  0  0  0
  183.3890  179.0200  145.1980 C   0  0  0  0  0  3  0  0  0  0  0  0
  184.7020  178.0770  141.9030 C   0  0  0  0  0  0  0  0  0  0  0  0
  187.0270  177.5270  142.8980 C   0  0  0  0  0  0  0  0  0  0  0  0
  191.1600  177.7040  144.3420 C   0  0  0  0  0  1  0  0  0  0  0  0
  190.0560  176.7880  144.8680 C   0  0  0  0  0  2  0  0  0  0  0  0
  184.2850  179.2380  140.9860 C   0  0  0  0  0  2  0  0  0  0  0  0
  182.8850  179.0190  140.4270 C   0  0  2  0  0  3  0  0  0  0  0  0
  182.4030  177.5740  140.6620 C   0  0  2  0  0  3  0  0  0  0  0  0
  183.0870  176.4780  139.8380 C   0  0  0  0  0  1  0  0  0  0  0  0
  181.0060  177.4290  140.8320 O   0  0  0  0  0  0  0  0  0  0  0  0
  180.5670  178.3660  141.7790 C   0  0  0  0  0  1  0  0  0  0  0  0
  182.8230  179.4590  138.9930 C   0  0  0  0  0  3  0  0  0  0  0  0
  181.9480  178.9580  138.1170 C   0  0  0  0  0  3  0  0  0  0  0  0
  181.9600  179.3950  136.6890 C   0  0  0  0  0  2  0  0  0  0  0  0
  180.0170  178.1970  135.6580 C   0  0  0  0  0  2  0  0  0  0  0  0
  182.1280  176.6890  136.4500 S   0  0  0  0  0  0  0  0  0  0  0  0
  181.5300  178.2600  135.7680 C   0  0  2  0  0  3  0  0  0  0  0  0
  180.5020  175.8570  136.2730 C   0  0  2  0  0  0  0  0  0  0  0  0
  179.6470  176.7530  135.3910 C   0  0  0  0  0  2  0  0  0  0  0  0
  180.3460  174.8070  138.6300 C   0  0  0  0  0  2  0  0  0  0  0  0
  178.9310  174.7720  138.0860 C   0  0  0  0  0  2  0  0  0  0  0  0
  179.8650  175.8930  137.6940 C   0  0  0  0  0  3  0  0  0  0  0  0
  180.6890  174.5450  135.5790 N   0  0  0  0  0  0  0  0  0  0  0  0
  181.8490  173.7670  135.8070 N   0  0  0  0  0  0  0  0  0  0  0  0
  181.8700  172.7990  136.6340 N   0  0  0  0  0  0  0  0  0  0  0  0
  183.0680  171.9850  136.7830 C   0  0  0  0  0  2  0  0  0  0  0  0
  184.3060  172.8510  136.5650 C   0  0  1  0  0  3  0  0  0  0  0  0
  186.5380  173.0250  137.3200 C   0  0  0  0  0  2  0  0  0  0  0  0
  185.1180  172.9630  137.8220 C   0  0  0  0  0  2  0  0  0  0  0  0
  185.2300  172.2190  135.5510 C   0  0  0  0  0  2  0  0  0  0  0  0
  186.6000  172.3150  136.0470 N   0  0  0  0  0  2  0  0  0  0  0  0
  179.6960  173.9270  134.7110 C   0  0  0  0  0  2  0  0  0  0  0  0
  179.7620  172.5380  134.8170 O   0  0  0  0  0  1  0  0  0  0  0  0
  186.8880  178.2550  140.5200 C   0  0  0  0  0  2  0  0  0  0  0  0
  188.3090  178.6390  140.9290 C   0  0  0  0  0  2  0  0  0  0  0  0
  189.2920  177.4960  140.6990 C   0  0  0  0  0  2  0  0  0  0  0  0
  191.2160  176.3260  137.6400 C   0  0  1  0  0  3  0  0  0  0  0  0
  188.7800  176.6010  138.5090 O   0  0  0  0  0  0  0  0  0  0  0  0
  189.6820  177.4100  139.2280 C   0  0  2  0  0  3  0  0  0  0  0  0
  191.0930  176.8620  139.0670 C   0  0  0  0  0  2  0  0  0  0  0  0
  189.0130  176.7900  137.1180 C   0  0  2  0  0  3  0  0  0  0  0  0
  190.3720  177.0430  136.7660 O   0  0  0  0  0  0  0  0  0  0  0  0
  188.3990  178.1120  135.2260 F   0  0  0  0  0  0  0  0  0  0  0  0
  186.7990  177.5040  136.6840 F   0  0  0  0  0  0  0  0  0  0  0  0
  188.1180  177.8890  136.5610 C   0  0  0  0  0  0  0  0  0  0  0  0
  188.3160  179.0620  137.2750 F   0  0  0  0  0  0  0  0  0  0  0  0
  193.5330  176.7710  137.8990 O   0  0  0  0  0  0  0  0  0  0  0  0
  192.6410  176.3670  137.1640 C   0  0  0  0  0  0  0  0  0  0  0  0
  192.9830  175.8790  135.7860 C   0  0  0  0  0  2  0  0  0  0  0  0
  193.7940  174.5840  135.8370 C   0  0  1  0  0  3  0  0  0  0  0  0
  193.0250  173.5250  135.3430 O   0  0  0  0  0  1  0  0  0  0  0  0
  195.0410  174.7160  134.9840 C   0  0  0  0  0  2  0  0  0  0  0  0
  196.1850  174.5270  135.7590 O   0  0  0  0  0  1  0  0  0  0  0  0
  1  9  1  0  0  0  0
  2 11  1  0  0  0  0
  3 14  2  0  0  0  0
  5 15  2  0  0  0  0
  5 16  1  0  0  0  0
  7 13  2  0  0  0  0
  7  2  1  0  0  0  0
  8 12  2  0  0  0  0
  9 18  1  0  0  0  0
  9  2  2  0  0  0  0
 10  3  1  0  0  0  0
 10 13  1  0  0  0  0
 11  6  2  0  0  0  0
 11  4  1  0  0  0  0
 12  6  1  0  0  0  0
 13  8  1  0  0  0  0
 14  8  1  0  0  0  0
 15 10  1  0  0  0  0
 16  1  2  0  0  0  0
 16  7  1  0  0  0  0
 17 18  1  0  0  0  0
 19 15  1  0  0  0  0
 20 25  1  6  0  0  0
 20 21  1  0  0  0  0
 20 19  1  0  0  0  0
 21 22  1  6  0  0  0
 21 23  1  0  0  0  0
 23 24  1  0  0  0  0
 26 25  2  0  0  0  0
 27 26  1  0  0  0  0
 28 30  1  0  0  0  0
 30 29  1  0  0  0  0
 30 27  1  1  0  0  0
 31 36  1  6  0  0  0
 31 29  1  0  0  0  0
 31 35  1  0  0  0  0
 32 28  1  0  0  0  0
 32 31  1  0  0  0  0
 34 33  1  0  0  0  0
 35 34  1  0  0  0  0
 35 33  1  0  0  0  0
 36 37  1  0  0  0  0
 37 38  2  0  0  0  0
 38 39  1  0  0  0  0
 40 39  1  1  0  0  0
 40 42  1  0  0  0  0
 41 42  1  0  0  0  0
 43 44  1  0  0  0  0
 43 40  1  0  0  0  0
 44 41  1  0  0  0  0
 45 46  1  0  0  0  0
 45 36  1  0  0  0  0
 47 48  1  0  0  0  0
 47  5  1  0  0  0  0
 49 48  1  0  0  0  0
 50 61  1  6  0  0  0
 50 53  1  0  0  0  0
 51 52  1  0  0  0  0
 52 49  1  1  0  0  0
 53 52  1  0  0  0  0
 54 58  1  1  0  0  0
 54 51  1  0  0  0  0
 55 54  1  0  0  0  0
 55 50  1  0  0  0  0
 56 58  1  0  0  0  0
 58 57  1  0  0  0  0
 58 59  1  0  0  0  0
 61 60  2  0  0  0  0
 62 63  1  0  0  0  0
 62 61  1  0  0  0  0
 63 64  1  6  0  0  0
 65 66  1  0  0  0  0
 65 63  1  0  0  0  0
M  END
>  <MODEL>
4

>  <REMARK>
 VINA RESULT:      -6.2      3.280      5.830
  Name = 
  23 active torsions:
  status: ('A' for Active; 'I' for Inactive)
    1  A    between atoms: C_1  and  C_5
    2  A    between atoms: C_1  and  C_27
    3  A    between atoms: N_2  and  N_11
    4  A    between atoms: C_5  and  C_37
    5  A    between atoms: C_7  and  C_10
    6  A    between atoms: C_7  and  N_59
    7  A    between atoms: C_9  and  N_11
    8  A    between atoms: N_11  and  C_54
    9  A    between atoms: C_12  and  C_53
   10  A    between atoms: C_12  and  C_64
   11  A    between atoms: C_13  and  C_53
   12  A    between atoms: C_23  and  C_37
   13  A    between atoms: C_24  and  C_38
   14  A    between atoms: C_24  and  C_56
   15  A    between atoms: C_28  and  C_36
   16  A    between atoms: C_28  and  C_46
   17  A    between atoms: C_30  and  C_51
   18  A    between atoms: C_35  and  C_61
   19  A    between atoms: O_41  and  C_44
   20  A    between atoms: C_42  and  C_54
   21  A    between atoms: C_44  and  C_53
   22  A    between atoms: C_47  and  C_50
   23  A    between atoms: C_51  and  C_56
                            x       y       z     vdW  Elec       q    Type
                         _______ _______ _______ _____ _____    ______ ____

>  <TORSDO>
F 23

$$$$
=
 OpenBabel11042409533D

 66 73  0  0  1  0  0  0  0  0999 V2000
  193.8980  175.4110  138.2880 C   0  0  0  0  0  3  0  0  0  0  0  0
  194.4330  173.3770  137.3750 C   0  0  0  0  0  0  0  0  0  0  0  0
  190.4610  172.9600  134.8800 C   0  0  0  0  0  3  0  0  0  0  0  0
  196.4750  171.9080  137.5640 C   0  0  0  0  0  1  0  0  0  0  0  0
  191.5270  175.7570  137.3010 C   0  0  0  0  0  0  0  0  0  0  0  0
  194.6030  171.2310  136.1840 N   0  0  0  0  0  0  0  0  0  0  0  0
  193.0990  173.7850  136.9800 C   0  0  0  0  0  0  0  0  0  0  0  0
  192.3880  172.0100  135.4290 C   0  0  0  0  0  0  0  0  0  0  0  0
  194.8870  174.4310  138.1850 C   0  0  0  0  0  0  0  0  0  0  0  0
  191.0460  173.7450  135.8090 N   0  0  0  0  0  0  0  0  0  0  0  0
  195.1030  172.1850  137.0250 C   0  0  0  0  0  0  0  0  0  0  0  0
  193.4470  171.1140  135.4720 C   0  0  0  0  0  3  0  0  0  0  0  0
  192.2280  173.1840  136.1120 C   0  0  0  0  0  0  0  0  0  0  0  0
  191.2670  171.8550  134.6280 C   0  0  0  0  0  3  0  0  0  0  0  0
  190.5270  175.0210  136.3300 C   0  0  0  0  0  0  0  0  0  0  0  0
  192.8100  174.9920  137.5490 C   0  0  0  0  0  0  0  0  0  0  0  0
  196.2310  175.5270  140.0160 C   0  0  0  0  0  1  0  0  0  0  0  0
  196.2060  174.4890  138.8950 C   0  0  0  0  0  2  0  0  0  0  0  0
  189.1140  174.8200  136.9010 C   0  0  0  0  0  2  0  0  0  0  0  0
  188.0500  175.2040  135.8800 C   0  0  2  0  0  3  0  0  0  0  0  0
  187.7260  176.7100  135.9440 C   0  0  2  0  0  3  0  0  0  0  0  0
  187.9360  177.5130  134.6570 C   0  0  0  0  0  1  0  0  0  0  0  0
  188.1170  177.3560  137.1390 O   0  0  0  0  0  0  0  0  0  0  0  0
  187.0240  178.0810  137.6390 C   0  0  0  0  0  1  0  0  0  0  0  0
  186.8500  174.3130  136.0190 C   0  0  0  0  0  3  0  0  0  0  0  0
  186.1690  174.1870  137.1610 C   0  0  0  0  0  3  0  0  0  0  0  0
  185.0110  173.2480  137.2600 C   0  0  0  0  0  2  0  0  0  0  0  0
  183.3330  175.0610  136.8460 C   0  0  0  0  0  2  0  0  0  0  0  0
  182.5110  172.5010  136.4850 S   0  0  0  0  0  0  0  0  0  0  0  0
  183.8560  173.7140  136.3810 C   0  0  2  0  0  3  0  0  0  0  0  0
  181.2270  173.7750  136.7910 C   0  0  2  0  0  0  0  0  0  0  0  0
  181.8640  175.1210  136.4800 C   0  0  0  0  0  2  0  0  0  0  0  0
  179.5560  174.0550  138.7430 C   0  0  0  0  0  2  0  0  0  0  0  0
  180.6650  175.0500  139.0260 C   0  0  0  0  0  2  0  0  0  0  0  0
  180.9770  173.7460  138.3280 C   0  0  0  0  0  3  0  0  0  0  0  0
  180.0830  173.5630  135.8510 N   0  0  0  0  0  0  0  0  0  0  0  0
  179.4340  174.6630  135.2440 N   0  0  0  0  0  0  0  0  0  0  0  0
  179.7420  175.8700  135.5120 N   0  0  0  0  0  0  0  0  0  0  0  0
  179.0930  176.9680  134.8110 C   0  0  0  0  0  2  0  0  0  0  0  0
  179.3900  178.2810  135.5310 C   0  0  1  0  0  3  0  0  0  0  0  0
  180.8460  179.1420  137.1800 C   0  0  0  0  0  2  0  0  0  0  0  0
  179.8510  178.0360  136.9380 C   0  0  0  0  0  2  0  0  0  0  0  0
  180.5300  179.0130  134.8620 C   0  0  0  0  0  2  0  0  0  0  0  0
  181.4300  179.5150  135.8960 N   0  0  0  0  0  2  0  0  0  0  0  0
  179.6060  172.2550  135.4200 C   0  0  0  0  0  2  0  0  0  0  0  0
  178.9540  171.6100  136.4700 O   0  0  0  0  0  1  0  0  0  0  0  0
  190.8940  176.1650  138.6270 C   0  0  0  0  0  2  0  0  0  0  0  0
  190.9850  177.6760  138.8380 C   0  0  0  0  0  2  0  0  0  0  0  0
  189.6990  178.2430  139.4310 C   0  0  0  0  0  2  0  0  0  0  0  0
  187.9840  177.1380  142.6350 C   0  0  1  0  0  3  0  0  0  0  0  0
  190.0140  176.5420  141.1240 O   0  0  0  0  0  0  0  0  0  0  0  0
  189.5720  177.8610  140.9020 C   0  0  2  0  0  3  0  0  0  0  0  0
  188.1330  177.9990  141.3800 C   0  0  0  0  0  2  0  0  0  0  0  0
  190.1500  176.3400  142.5260 C   0  0  2  0  0  3  0  0  0  0  0  0
  189.2090  177.0530  143.3290 O   0  0  0  0  0  0  0  0  0  0  0  0
  192.3770  176.9360  141.9040 F   0  0  0  0  0  0  0  0  0  0  0  0
  191.5400  177.7470  143.8260 F   0  0  0  0  0  0  0  0  0  0  0  0
  191.5670  176.6530  142.9870 C   0  0  0  0  0  0  0  0  0  0  0  0
  192.0860  175.5670  143.6780 F   0  0  0  0  0  0  0  0  0  0  0  0
  186.1920  178.6000  143.1720 O   0  0  0  0  0  0  0  0  0  0  0  0
  186.8970  177.6640  143.5300 C   0  0  0  0  0  0  0  0  0  0  0  0
  186.6470  177.0190  144.8620 C   0  0  0  0  0  2  0  0  0  0  0  0
  186.4630  178.0620  145.9640 C   0  0  1  0  0  3  0  0  0  0  0  0
  185.1010  178.3210  146.1470 O   0  0  0  0  0  1  0  0  0  0  0  0
  187.0380  177.5490  147.2700 C   0  0  0  0  0  2  0  0  0  0  0  0
  188.2370  176.8740  147.0440 O   0  0  0  0  0  1  0  0  0  0  0  0
  2  9  2  0  0  0  0
  3 10  1  0  0  0  0
  5 16  1  0  0  0  0
  5 47  1  0  0  0  0
  6 11  2  0  0  0  0
  7  2  1  0  0  0  0
  7 16  1  0  0  0  0
  8 12  2  0  0  0  0
  8 13  1  0  0  0  0
  9  1  1  0  0  0  0
  9 18  1  0  0  0  0
 10 13  1  0  0  0  0
 10 15  1  0  0  0  0
 11  2  1  0  0  0  0
 11  4  1  0  0  0  0
 12  6  1  0  0  0  0
 13  7  2  0  0  0  0
 14  3  2  0  0  0  0
 14  8  1  0  0  0  0
 15 19  1  0  0  0  0
 15  5  2  0  0  0  0
 16  1  2  0  0  0  0
 18 17  1  0  0  0  0
 20 21  1  0  0  0  0
 20 25  1  1  0  0  0
 20 19  1  0  0  0  0
 21 22  1  6  0  0  0
 21 23  1  0  0  0  0
 23 24  1  0  0  0  0
 25 26  2  0  0  0  0
 26 27  1  0  0  0  0
 29 31  1  0  0  0  0
 30 29  1  0  0  0  0
 30 28  1  0  0  0  0
 30 27  1  1  0  0  0
 31 36  1  6  0  0  0
 31 35  1  0  0  0  0
 32 31  1  0  0  0  0
 32 28  1  0  0  0  0
 33 34  1  0  0  0  0
 35 33  1  0  0  0  0
 35 34  1  0  0  0  0
 37 38  2  0  0  0  0
 37 36  1  0  0  0  0
 39 38  1  0  0  0  0
 40 39  1  6  0  0  0
 40 42  1  0  0  0  0
 42 41  1  0  0  0  0
 43 40  1  0  0  0  0
 43 44  1  0  0  0  0
 44 41  1  0  0  0  0
 45 36  1  0  0  0  0
 45 46  1  0  0  0  0
 47 48  1  0  0  0  0
 48 49  1  0  0  0  0
 50 55  1  0  0  0  0
 50 61  1  1  0  0  0
 51 54  1  0  0  0  0
 52 49  1  6  0  0  0
 52 51  1  0  0  0  0
 52 53  1  0  0  0  0
 53 50  1  0  0  0  0
 54 58  1  1  0  0  0
 54 55  1  0  0  0  0
 56 58  1  0  0  0  0
 58 59  1  0  0  0  0
 58 57  1  0  0  0  0
 60 61  2  0  0  0  0
 61 62  1  0  0  0  0
 62 63  1  0  0  0  0
 63 64  1  1  0  0  0
 63 65  1  0  0  0  0
 66 65  1  0  0  0  0
M  END
>  <MODEL>
5

>  <REMARK>
 VINA RESULT:      -5.4      4.377      8.677
  Name = 
  23 active torsions:
  status: ('A' for Active; 'I' for Inactive)
    1  A    between atoms: C_1  and  C_5
    2  A    between atoms: C_1  and  C_27
    3  A    between atoms: N_2  and  N_11
    4  A    between atoms: C_5  and  C_37
    5  A    between atoms: C_7  and  C_10
    6  A    between atoms: C_7  and  N_59
    7  A    between atoms: C_9  and  N_11
    8  A    between atoms: N_11  and  C_54
    9  A    between atoms: C_12  and  C_53
   10  A    between atoms: C_12  and  C_64
   11  A    between atoms: C_13  and  C_53
   12  A    between atoms: C_23  and  C_37
   13  A    between atoms: C_24  and  C_38
   14  A    between atoms: C_24  and  C_56
   15  A    between atoms: C_28  and  C_36
   16  A    between atoms: C_28  and  C_46
   17  A    between atoms: C_30  and  C_51
   18  A    between atoms: C_35  and  C_61
   19  A    between atoms: O_41  and  C_44
   20  A    between atoms: C_42  and  C_54
   21  A    between atoms: C_44  and  C_53
   22  A    between atoms: C_47  and  C_50
   23  A    between atoms: C_51  and  C_56
                            x       y       z     vdW  Elec       q    Type
                         _______ _______ _______ _____ _____    ______ ____

>  <TORSDO>
F 23

$$$$
=
 OpenBabel11042409533D

 66 73  0  0  1  0  0  0  0  0999 V2000
  193.3740  175.3490  138.2200 C   0  0  0  0  0  3  0  0  0  0  0  0
  193.2840  173.5080  136.8570 C   0  0  0  0  0  0  0  0  0  0  0  0
  188.9610  174.3910  135.2140 C   0  0  0  0  0  3  0  0  0  0  0  0
  194.9520  171.6860  136.3420 C   0  0  0  0  0  1  0  0  0  0  0  0
  191.0090  176.3340  137.8300 C   0  0  0  0  0  0  0  0  0  0  0  0
  192.7720  171.6870  135.2820 N   0  0  0  0  0  0  0  0  0  0  0  0
  192.0280  174.2300  136.8310 C   0  0  0  0  0  0  0  0  0  0  0  0
  190.6930  173.0070  135.1640 C   0  0  0  0  0  0  0  0  0  0  0  0
  194.0900  174.2530  137.7340 C   0  0  0  0  0  0  0  0  0  0  0  0
  189.8510  174.8280  136.1280 N   0  0  0  0  0  0  0  0  0  0  0  0
  193.6050  172.3220  136.1620 C   0  0  0  0  0  0  0  0  0  0  0  0
  191.5180  171.9460  134.8190 C   0  0  0  0  0  3  0  0  0  0  0  0
  190.9130  174.0070  136.0690 C   0  0  0  0  0  0  0  0  0  0  0  0
  189.4470  173.2420  134.6000 C   0  0  0  0  0  3  0  0  0  0  0  0
  189.7230  176.0290  136.9710 C   0  0  0  0  0  0  0  0  0  0  0  0
  192.1120  175.3120  137.6600 C   0  0  0  0  0  0  0  0  0  0  0  0
  196.5480  174.6480  137.3350 C   0  0  0  0  0  1  0  0  0  0  0  0
  195.4880  173.9100  138.1510 C   0  0  0  0  0  2  0  0  0  0  0  0
  188.4160  175.9670  137.7780 C   0  0  0  0  0  2  0  0  0  0  0  0
  187.2410  176.4850  136.9590 C   0  0  2  0  0  3  0  0  0  0  0  0
  187.6880  177.5560  135.9450 C   0  0  2  0  0  3  0  0  0  0  0  0
  188.2390  178.8630  136.5230 C   0  0  0  0  0  1  0  0  0  0  0  0
  186.8520  177.6930  134.8110 O   0  0  0  0  0  0  0  0  0  0  0  0
  185.5530  177.2920  135.1570 C   0  0  0  0  0  1  0  0  0  0  0  0
  186.1290  176.9260  137.8660 C   0  0  0  0  0  3  0  0  0  0  0  0
  186.1290  178.1050  138.4930 C   0  0  0  0  0  3  0  0  0  0  0  0
  185.0220  178.4760  139.4240 C   0  0  0  0  0  2  0  0  0  0  0  0
  182.9290  179.8530  139.4260 C   0  0  0  0  0  2  0  0  0  0  0  0
  182.7700  177.3520  138.3870 S   0  0  0  0  0  0  0  0  0  0  0  0
  183.7620  178.8470  138.6510 C   0  0  2  0  0  3  0  0  0  0  0  0
  181.2160  178.1390  138.9610 C   0  0  2  0  0  0  0  0  0  0  0  0
  181.4830  179.6340  139.0320 C   0  0  0  0  0  2  0  0  0  0  0  0
  179.9200  176.6350  140.6190 C   0  0  0  0  0  2  0  0  0  0  0  0
  179.7590  178.0460  141.1540 C   0  0  0  0  0  2  0  0  0  0  0  0
  181.0250  177.6510  140.4280 C   0  0  0  0  0  3  0  0  0  0  0  0
  180.1350  177.8960  137.9550 N   0  0  0  0  0  0  0  0  0  0  0  0
  180.1890  176.7730  137.0950 N   0  0  0  0  0  0  0  0  0  0  0  0
  179.7210  175.6370  137.4280 N   0  0  0  0  0  0  0  0  0  0  0  0
  179.7370  174.5290  136.4820 C   0  0  0  0  0  2  0  0  0  0  0  0
  181.1060  173.8530  136.5120 C   0  0  1  0  0  3  0  0  0  0  0  0
  182.1560  171.8780  135.7490 C   0  0  0  0  0  2  0  0  0  0  0  0
  180.9710  172.3580  136.5490 C   0  0  0  0  0  2  0  0  0  0  0  0
  181.8780  174.1500  135.2480 C   0  0  0  0  0  2  0  0  0  0  0  0
  182.4980  172.9140  134.7800 N   0  0  0  0  0  2  0  0  0  0  0  0
  178.9310  178.7070  137.8320 C   0  0  0  0  0  2  0  0  0  0  0  0
  179.2000  179.8600  137.0970 O   0  0  0  0  0  1  0  0  0  0  0  0
  190.7130  176.5450  139.3120 C   0  0  0  0  0  2  0  0  0  0  0  0
  190.5210  178.0270  139.6290 C   0  0  0  0  0  2  0  0  0  0  0  0
  189.1890  178.2900  140.3250 C   0  0  0  0  0  2  0  0  0  0  0  0
  187.9410  177.2810  143.7680 C   0  0  1  0  0  3  0  0  0  0  0  0
  189.6850  176.5840  141.9700 O   0  0  0  0  0  0  0  0  0  0  0  0
  189.2730  177.9210  141.8020 C   0  0  2  0  0  3  0  0  0  0  0  0
  187.9340  178.1280  142.4950 C   0  0  0  0  0  2  0  0  0  0  0  0
  190.0260  176.3840  143.3370 C   0  0  2  0  0  3  0  0  0  0  0  0
  189.2540  177.1430  144.2660 O   0  0  0  0  0  0  0  0  0  0  0  0
  191.7100  177.2800  144.7740 F   0  0  0  0  0  0  0  0  0  0  0  0
  192.1730  175.4220  143.5950 F   0  0  0  0  0  0  0  0  0  0  0  0
  191.5100  176.6320  143.5700 C   0  0  0  0  0  0  0  0  0  0  0  0
  192.0240  177.4070  142.5400 F   0  0  0  0  0  0  0  0  0  0  0  0
  187.3710  177.8950  145.9890 O   0  0  0  0  0  0  0  0  0  0  0  0
  187.0300  177.8620  144.8130 C   0  0  0  0  0  0  0  0  0  0  0  0
  185.7030  178.4380  144.4120 C   0  0  0  0  0  2  0  0  0  0  0  0
  185.0650  179.2240  145.5580 C   0  0  1  0  0  3  0  0  0  0  0  0
  184.1080  178.4310  146.1990 O   0  0  0  0  0  1  0  0  0  0  0  0
  186.1220  179.6210  146.5690 C   0  0  0  0  0  2  0  0  0  0  0  0
  185.5270  180.1300  147.7240 O   0  0  0  0  0  1  0  0  0  0  0  0
  2  9  2  0  0  0  0
  3 10  1  0  0  0  0
  5 47  1  0  0  0  0
  6 11  2  0  0  0  0
  7  2  1  0  0  0  0
  7 16  1  0  0  0  0
  8 13  1  0  0  0  0
  9 18  1  0  0  0  0
  9  1  1  0  0  0  0
 10 15  1  0  0  0  0
 11  4  1  0  0  0  0
 11  2  1  0  0  0  0
 12  8  2  0  0  0  0
 12  6  1  0  0  0  0
 13 10  1  0  0  0  0
 13  7  2  0  0  0  0
 14  8  1  0  0  0  0
 14  3  2  0  0  0  0
 15 19  1  0  0  0  0
 15  5  2  0  0  0  0
 16  5  1  0  0  0  0
 16  1  2  0  0  0  0
 17 18  1  0  0  0  0
 20 19  1  1  0  0  0
 20 25  1  0  0  0  0
 21 22  1  1  0  0  0
 21 20  1  0  0  0  0
 23 24  1  0  0  0  0
 23 21  1  0  0  0  0
 25 26  2  0  0  0  0
 26 27  1  0  0  0  0
 29 30  1  0  0  0  0
 29 31  1  0  0  0  0
 30 27  1  1  0  0  0
 30 28  1  0  0  0  0
 31 36  1  6  0  0  0
 31 32  1  0  0  0  0
 31 35  1  0  0  0  0
 32 28  1  0  0  0  0
 33 34  1  0  0  0  0
 35 33  1  0  0  0  0
 35 34  1  0  0  0  0
 37 38  2  0  0  0  0
 37 36  1  0  0  0  0
 39 38  1  0  0  0  0
 40 39  1  6  0  0  0
 40 42  1  0  0  0  0
 41 42  1  0  0  0  0
 43 40  1  0  0  0  0
 44 43  1  0  0  0  0
 44 41  1  0  0  0  0
 45 36  1  0  0  0  0
 46 45  1  0  0  0  0
 47 48  1  0  0  0  0
 48 49  1  0  0  0  0
 50 55  1  0  0  0  0
 50 61  1  1  0  0  0
 51 54  1  0  0  0  0
 52 49  1  6  0  0  0
 52 51  1  0  0  0  0
 52 53  1  0  0  0  0
 53 50  1  0  0  0  0
 54 58  1  6  0  0  0
 54 55  1  0  0  0  0
 58 57  1  0  0  0  0
 58 56  1  0  0  0  0
 59 58  1  0  0  0  0
 61 60  2  0  0  0  0
 62 61  1  0  0  0  0
 62 63  1  0  0  0  0
 63 64  1  1  0  0  0
 63 65  1  0  0  0  0
 65 66  1  0  0  0  0
M  END
>  <MODEL>
6

>  <REMARK>
 VINA RESULT:      -4.7      3.979      8.878
  Name = 
  23 active torsions:
  status: ('A' for Active; 'I' for Inactive)
    1  A    between atoms: C_1  and  C_5
    2  A    between atoms: C_1  and  C_27
    3  A    between atoms: N_2  and  N_11
    4  A    between atoms: C_5  and  C_37
    5  A    between atoms: C_7  and  C_10
    6  A    between atoms: C_7  and  N_59
    7  A    between atoms: C_9  and  N_11
    8  A    between atoms: N_11  and  C_54
    9  A    between atoms: C_12  and  C_53
   10  A    between atoms: C_12  and  C_64
   11  A    between atoms: C_13  and  C_53
   12  A    between atoms: C_23  and  C_37
   13  A    between atoms: C_24  and  C_38
   14  A    between atoms: C_24  and  C_56
   15  A    between atoms: C_28  and  C_36
   16  A    between atoms: C_28  and  C_46
   17  A    between atoms: C_30  and  C_51
   18  A    between atoms: C_35  and  C_61
   19  A    between atoms: O_41  and  C_44
   20  A    between atoms: C_42  and  C_54
   21  A    between atoms: C_44  and  C_53
   22  A    between atoms: C_47  and  C_50
   23  A    between atoms: C_51  and  C_56
                            x       y       z     vdW  Elec       q    Type
                         _______ _______ _______ _____ _____    ______ ____

>  <TORSDO>
F 23

$$$$
=
 OpenBabel11042409533D

 66 73  0  0  1  0  0  0  0  0999 V2000
  186.6670  178.4750  144.8150 C   0  0  0  0  0  3  0  0  0  0  0  0
  188.1810  177.4580  146.2040 C   0  0  0  0  0  0  0  0  0  0  0  0
  191.1870  176.2710  142.7790 C   0  0  0  0  0  3  0  0  0  0  0  0
  188.2610  177.1540  148.7070 C   0  0  0  0  0  1  0  0  0  0  0  0
  187.7810  178.0440  142.5150 C   0  0  0  0  0  0  0  0  0  0  0  0
  190.0440  176.2910  147.3110 N   0  0  0  0  0  0  0  0  0  0  0  0
  188.5820  177.3220  144.8180 C   0  0  0  0  0  0  0  0  0  0  0  0
  190.7620  176.1870  144.9540 C   0  0  0  0  0  0  0  0  0  0  0  0
  186.9840  178.1900  146.1450 C   0  0  0  0  0  0  0  0  0  0  0  0
  189.9620  176.8020  142.9700 N   0  0  0  0  0  0  0  0  0  0  0  0
  188.8480  176.9530  147.3410 C   0  0  0  0  0  0  0  0  0  0  0  0
  190.9030  175.9440  146.3130 C   0  0  0  0  0  3  0  0  0  0  0  0
  189.7240  176.7820  144.2920 C   0  0  0  0  0  0  0  0  0  0  0  0
  191.7130  175.8600  144.0000 C   0  0  0  0  0  3  0  0  0  0  0  0
  189.0860  177.3770  141.9350 C   0  0  0  0  0  0  0  0  0  0  0  0
  187.6540  177.9280  144.0190 C   0  0  0  0  0  0  0  0  0  0  0  0
  184.7330  179.0410  146.8980 C   0  0  0  0  0  1  0  0  0  0  0  0
  186.1240  178.5660  147.3140 C   0  0  0  0  0  2  0  0  0  0  0  0
  188.8350  176.3430  140.8260 C   0  0  0  0  0  2  0  0  0  0  0  0
  189.7080  176.6210  139.6080 C   0  0  2  0  0  3  0  0  0  0  0  0
  190.1370  178.0990  139.5480 C   0  0  2  0  0  3  0  0  0  0  0  0
  189.4190  178.9830  138.5230 C   0  0  0  0  0  1  0  0  0  0  0  0
  191.5270  178.3240  139.6830 O   0  0  0  0  0  0  0  0  0  0  0  0
  192.2070  177.1290  139.4030 C   0  0  0  0  0  1  0  0  0  0  0  0
  189.0330  176.1270  138.3610 C   0  0  0  0  0  3  0  0  0  0  0  0
  189.5960  175.2450  137.5320 C   0  0  0  0  0  3  0  0  0  0  0  0
  188.9030  174.8240  136.2780 C   0  0  0  0  0  2  0  0  0  0  0  0
  186.9940  173.5780  137.3170 C   0  0  0  0  0  2  0  0  0  0  0  0
  186.5860  174.6530  134.8600 S   0  0  0  0  0  0  0  0  0  0  0  0
  187.3930  174.7810  136.4790 C   0  0  2  0  0  3  0  0  0  0  0  0
  185.4980  173.2700  135.3790 C   0  0  2  0  0  0  0  0  0  0  0  0
  185.5950  173.1830  136.8940 C   0  0  0  0  0  2  0  0  0  0  0  0
  185.7040  170.6940  135.4510 C   0  0  0  0  0  2  0  0  0  0  0  0
  187.1050  171.2110  135.7200 C   0  0  0  0  0  2  0  0  0  0  0  0
  186.1720  171.9840  134.8150 C   0  0  0  0  0  3  0  0  0  0  0  0
  184.0840  173.5850  135.0090 N   0  0  0  0  0  0  0  0  0  0  0  0
  183.1170  172.5560  134.9120 N   0  0  0  0  0  0  0  0  0  0  0  0
  182.6440  171.9660  135.9370 N   0  0  0  0  0  0  0  0  0  0  0  0
  181.6010  170.9610  135.7900 C   0  0  0  0  0  2  0  0  0  0  0  0
  180.3610  171.3940  136.5690 C   0  0  1  0  0  3  0  0  0  0  0  0
  179.6580  173.1180  138.0230 C   0  0  0  0  0  2  0  0  0  0  0  0
  180.7370  172.0790  137.8500 C   0  0  0  0  0  2  0  0  0  0  0  0
  179.5690  172.4170  135.7900 C   0  0  0  0  0  2  0  0  0  0  0  0
  179.1660  173.4850  136.7000 N   0  0  0  0  0  2  0  0  0  0  0  0
  183.5670  174.9330  134.8110 C   0  0  0  0  0  2  0  0  0  0  0  0
  182.1740  174.9290  134.8660 O   0  0  0  0  0  1  0  0  0  0  0  0
  186.5010  177.5600  141.8420 C   0  0  0  0  0  2  0  0  0  0  0  0
  185.9110  178.6410  140.9390 C   0  0  0  0  0  2  0  0  0  0  0  0
  184.7620  179.3810  141.6170 C   0  0  0  0  0  2  0  0  0  0  0  0
  182.4590  178.1050  138.8790 C   0  0  1  0  0  3  0  0  0  0  0  0
  182.7940  177.9800  141.4550 O   0  0  0  0  0  0  0  0  0  0  0  0
  183.4460  179.0990  140.9000 C   0  0  2  0  0  3  0  0  0  0  0  0
  183.6710  178.8680  139.4120 C   0  0  0  0  0  2  0  0  0  0  0  0
  181.4610  177.9400  140.9570 C   0  0  2  0  0  3  0  0  0  0  0  0
  181.3040  178.4240  139.6240 O   0  0  0  0  0  0  0  0  0  0  0  0
  179.6570  179.4900  141.1720 F   0  0  0  0  0  0  0  0  0  0  0  0
  179.7600  177.7500  142.5910 F   0  0  0  0  0  0  0  0  0  0  0  0
  180.5080  178.6740  141.8910 C   0  0  0  0  0  0  0  0  0  0  0  0
  181.2330  179.4420  142.7910 F   0  0  0  0  0  0  0  0  0  0  0  0
  183.1180  178.1140  136.5980 O   0  0  0  0  0  0  0  0  0  0  0  0
  182.2450  178.3770  137.4160 C   0  0  0  0  0  0  0  0  0  0  0  0
  180.9380  178.9450  136.9450 C   0  0  0  0  0  2  0  0  0  0  0  0
  180.8570  180.4500  137.2030 C   0  0  1  0  0  3  0  0  0  0  0  0
  180.8440  181.1390  135.9860 O   0  0  0  0  0  1  0  0  0  0  0  0
  179.5850  180.7810  137.9600 C   0  0  0  0  0  2  0  0  0  0  0  0
  179.7480  181.9510  138.7020 O   0  0  0  0  0  1  0  0  0  0  0  0
  1  9  1  0  0  0  0
  2 11  1  0  0  0  0
  3 10  1  0  0  0  0
  3 14  2  0  0  0  0
  5 16  1  0  0  0  0
  6 11  2  0  0  0  0
  7  2  1  0  0  0  0
  8 12  2  0  0  0  0
  9  2  2  0  0  0  0
  9 18  1  0  0  0  0
 10 13  1  0  0  0  0
 11  4  1  0  0  0  0
 12  6  1  0  0  0  0
 13  7  2  0  0  0  0
 13  8  1  0  0  0  0
 14  8  1  0  0  0  0
 15  5  2  0  0  0  0
 15 10  1  0  0  0  0
 16  1  2  0  0  0  0
 16  7  1  0  0  0  0
 17 18  1  0  0  0  0
 19 15  1  0  0  0  0
 20 25  1  6  0  0  0
 20 19  1  0  0  0  0
 21 22  1  6  0  0  0
 21 20  1  0  0  0  0
 21 23  1  0  0  0  0
 24 23  1  0  0  0  0
 26 25  2  0  0  0  0
 27 26  1  0  0  0  0
 29 31  1  0  0  0  0
 29 30  1  0  0  0  0
 30 27  1  6  0  0  0
 30 28  1  0  0  0  0
 31 36  1  6  0  0  0
 31 32  1  0  0  0  0
 32 28  1  0  0  0  0
 33 34  1  0  0  0  0
 35 31  1  0  0  0  0
 35 33  1  0  0  0  0
 35 34  1  0  0  0  0
 37 36  1  0  0  0  0
 37 38  2  0  0  0  0
 39 38  1  0  0  0  0
 40 39  1  6  0  0  0
 40 42  1  0  0  0  0
 42 41  1  0  0  0  0
 43 40  1  0  0  0  0
 43 44  1  0  0  0  0
 44 41  1  0  0  0  0
 45 46  1  0  0  0  0
 45 36  1  0  0  0  0
 47  5  1  0  0  0  0
 48 49  1  0  0  0  0
 48 47  1  0  0  0  0
 50 61  1  6  0  0  0
 50 53  1  0  0  0  0
 50 55  1  0  0  0  0
 52 51  1  0  0  0  0
 52 49  1  1  0  0  0
 53 52  1  0  0  0  0
 54 51  1  0  0  0  0
 54 58  1  1  0  0  0
 55 54  1  0  0  0  0
 56 58  1  0  0  0  0
 58 57  1  0  0  0  0
 58 59  1  0  0  0  0
 60 61  2  0  0  0  0
 62 63  1  0  0  0  0
 62 61  1  0  0  0  0
 63 64  1  6  0  0  0
 63 65  1  0  0  0  0
 65 66  1  0  0  0  0
M  END
>  <MODEL>
7

>  <REMARK>
 VINA RESULT:      -4.7      4.663      9.400
  Name = 
  23 active torsions:
  status: ('A' for Active; 'I' for Inactive)
    1  A    between atoms: C_1  and  C_5
    2  A    between atoms: C_1  and  C_27
    3  A    between atoms: N_2  and  N_11
    4  A    between atoms: C_5  and  C_37
    5  A    between atoms: C_7  and  C_10
    6  A    between atoms: C_7  and  N_59
    7  A    between atoms: C_9  and  N_11
    8  A    between atoms: N_11  and  C_54
    9  A    between atoms: C_12  and  C_53
   10  A    between atoms: C_12  and  C_64
   11  A    between atoms: C_13  and  C_53
   12  A    between atoms: C_23  and  C_37
   13  A    between atoms: C_24  and  C_38
   14  A    between atoms: C_24  and  C_56
   15  A    between atoms: C_28  and  C_36
   16  A    between atoms: C_28  and  C_46
   17  A    between atoms: C_30  and  C_51
   18  A    between atoms: C_35  and  C_61
   19  A    between atoms: O_41  and  C_44
   20  A    between atoms: C_42  and  C_54
   21  A    between atoms: C_44  and  C_53
   22  A    between atoms: C_47  and  C_50
   23  A    between atoms: C_51  and  C_56
                            x       y       z     vdW  Elec       q    Type
                         _______ _______ _______ _____ _____    ______ ____

>  <TORSDO>
F 23

$$$$
