=
 OpenBabel11032420563D

 47 52  0  0  1  0  0  0  0  0999 V2000
  186.8880  178.6120  141.1910 C   0  0  0  0  0  3  0  0  0  0  0  0
  183.9950  178.8220  142.1810 C   0  0  0  0  0  0  0  0  0  0  0  0
  186.9220  177.2940  144.6840 C   0  0  1  0  0  3  0  0  0  0  0  0
  184.0330  178.8230  140.8350 C   0  0  0  0  0  3  0  0  0  0  0  0
  182.6370  178.8400  144.1790 N   0  0  0  0  0  0  0  0  0  0  0  0
  188.3590  176.6730  142.6680 C   0  0  0  0  0  2  0  0  0  0  0  0
  181.3310  179.9570  138.6540 C   0  0  2  0  0  3  0  0  0  0  0  0
  184.9500  178.1950  144.3230 N   0  0  1  0  0  0  0  0  0  0  0  0
  185.2340  178.9070  143.0590 C   0  0  1  0  0  3  0  0  0  0  0  0
  188.1600  178.0880  140.6520 C   0  0  0  0  0  0  0  0  0  0  0  0
  188.8730  177.1970  141.3530 C   0  0  0  0  0  3  0  0  0  0  0  0
  186.0350  178.2860  145.1410 O   0  0  0  0  0  0  0  0  0  0  0  0
  186.5340  178.3790  142.4630 C   0  0  0  0  0  0  0  0  0  0  0  0
  182.6830  178.8500  142.8820 C   0  0  0  0  0  0  0  0  0  0  0  0
  180.8050  179.8290  140.0000 N   0  0  0  0  0  0  0  0  0  0  0  0
  182.7830  179.4720  138.7390 C   0  0  0  0  0  2  0  0  0  0  0  0
  182.8000  178.6260  140.0000 C   0  0  2  0  0  3  0  0  0  0  0  0
  181.5890  179.0960  140.7080 C   0  0  0  0  0  0  0  0  0  0  0  0
  181.4780  179.0050  142.1290 N   0  0  0  0  0  2  0  0  0  0  0  0
  187.5740  177.7760  143.3870 C   0  0  1  0  0  3  0  0  0  0  0  0
  183.8460  178.8730  145.0040 C   0  0  0  0  0  2  0  0  0  0  0  0
  188.7480  178.0360  147.7550 C   0  0  0  0  0  2  0  0  0  0  0  0
  189.2960  177.6190  145.5080 C   0  0  0  0  0  2  0  0  0  0  0  0
  189.8480  178.0300  146.7940 N   0  0  0  0  0  0  0  0  0  0  0  0
  187.5150  177.4470  147.1050 C   0  0  0  0  0  2  0  0  0  0  0  0
  187.9590  176.9520  145.7560 C   0  0  1  0  0  3  0  0  0  0  0  0
  191.9300  177.4080  148.3390 O   0  0  0  0  0  0  0  0  0  0  0  0
  190.2770  175.6530  147.8910 O   0  0  0  0  0  0  0  0  0  0  0  0
  191.0020  176.8340  147.3060 S   0  0  0  0  0  0  0  0  0  0  0  0
  191.9460  176.2930  145.8970 C   0  0  0  0  0  2  0  0  0  0  0  0
  192.3540  174.9100  146.0770 N   0  0  0  0  0  1  0  0  0  0  0  0
  181.2740  181.4120  138.2110 C   0  0  0  0  0  2  0  0  0  0  0  0
  180.3030  181.5830  137.0530 C   0  0  0  0  0  2  0  0  0  0  0  0
  180.4260  182.8680  136.5210 O   0  0  0  0  0  1  0  0  0  0  0  0
  188.6260  178.5420  139.3080 C   0  0  0  0  0  2  0  0  0  0  0  0
  187.7360  177.9930  138.2000 C   0  0  0  0  0  2  0  0  0  0  0  0
  188.5470  177.5860  136.9760 C   0  0  1  0  0  3  0  0  0  0  0  0
  189.2510  178.6880  136.4850 O   0  0  0  0  0  1  0  0  0  0  0  0
  191.9040  175.7800  137.6920 C   0  0  0  0  0  0  0  0  0  0  0  0
  190.8840  176.7410  137.3990 N   0  0  0  0  0  2  0  0  0  0  0  0
  191.6040  174.5910  137.9770 O   0  0  0  0  0  0  0  0  0  0  0  0
  189.0320  175.3220  137.5850 O   0  0  0  0  0  0  0  0  0  0  0  0
  189.4790  176.4750  137.3390 C   0  0  0  0  0  0  0  0  0  0  0  0
  193.2460  176.1430  137.6450 O   0  0  0  0  0  0  0  0  0  0  0  0
  194.1360  175.5840  136.6890 C   0  0  0  0  0  2  0  0  0  0  0  0
  195.1050  174.6420  137.3750 C   0  0  0  0  0  2  0  0  0  0  0  0
  195.2530  175.0100  138.7120 O   0  0  0  0  0  1  0  0  0  0  0  0
  1 13  2  0  0  0  0
  2 14  1  0  0  0  0
  3 12  1  1  0  0  0
  3 26  1  0  0  0  0
  4  2  2  0  0  0  0
  5 21  1  0  0  0  0
  7 32  1  1  0  0  0
  7 16  1  0  0  0  0
  7 15  1  0  0  0  0
  8 21  1  1  0  0  0
  8 12  1  0  0  0  0
  9  2  1  6  0  0  0
  9  8  1  0  0  0  0
 10  1  1  0  0  0  0
 10 11  2  0  0  0  0
 11  6  1  0  0  0  0
 13  9  1  0  0  0  0
 13 20  1  0  0  0  0
 14  5  2  0  0  0  0
 15 18  2  0  0  0  0
 17 16  1  6  0  0  0
 17 18  1  0  0  0  0
 17  4  1  0  0  0  0
 18 19  1  0  0  0  0
 19 14  1  0  0  0  0
 20  6  1  6  0  0  0
 20  3  1  0  0  0  0
 23 24  1  0  0  0  0
 24 29  1  0  0  0  0
 24 22  1  0  0  0  0
 25 22  1  0  0  0  0
 26 23  1  6  0  0  0
 26 25  1  0  0  0  0
 29 28  2  0  0  0  0
 29 27  2  0  0  0  0
 30 31  1  0  0  0  0
 30 29  1  0  0  0  0
 33 32  1  0  0  0  0
 34 33  1  0  0  0  0
 35 10  1  0  0  0  0
 36 35  1  0  0  0  0
 37 38  1  1  0  0  0
 37 43  1  0  0  0  0
 37 36  1  0  0  0  0
 39 41  2  0  0  0  0
 40 39  1  0  0  0  0
 43 40  1  0  0  0  0
 43 42  2  0  0  0  0
 44 39  1  0  0  0  0
 45 46  1  0  0  0  0
 45 44  1  0  0  0  0
 46 47  1  0  0  0  0
M  END
>  <MODEL>
1

>  <REMARK>
 VINA RESULT:      -8.9      0.000      0.000
  Name = 
  12 active torsions:
  status: ('A' for Active; 'I' for Inactive)
    1  A    between atoms: C_1  and  O_14
    2  A    between atoms: C_4  and  C_28
    3  A    between atoms: C_4  and  C_35
    4  A    between atoms: C_6  and  C_39
    5  A    between atoms: C_8  and  C_30
    6  A    between atoms: C_12  and  C_16
    7  A    between atoms: O_14  and  C_30
    8  A    between atoms: C_16  and  C_19
    9  A    between atoms: C_23  and  C_33
   10  A    between atoms: C_28  and  C_33
   11  A    between atoms: N_31  and  S_32
   12  A    between atoms: S_32  and  C_43
                            x       y       z     vdW  Elec       q    Type
                         _______ _______ _______ _____ _____    ______ ____

>  <TORSDO>
F 12

$$$$
=
 OpenBabel11032420563D

 47 52  0  0  1  0  0  0  0  0999 V2000
  186.9300  178.6170  141.2020 C   0  0  0  0  0  3  0  0  0  0  0  0
  184.0390  178.8370  142.1930 C   0  0  0  0  0  0  0  0  0  0  0  0
  186.9580  177.2800  144.6880 C   0  0  1  0  0  3  0  0  0  0  0  0
  184.0760  178.8450  140.8480 C   0  0  0  0  0  3  0  0  0  0  0  0
  182.6810  178.8520  144.1920 N   0  0  0  0  0  0  0  0  0  0  0  0
  188.3900  176.6620  142.6690 C   0  0  0  0  0  2  0  0  0  0  0  0
  181.3800  180.0050  138.6720 C   0  0  2  0  0  3  0  0  0  0  0  0
  184.9900  178.1930  144.3320 N   0  0  1  0  0  0  0  0  0  0  0  0
  185.2780  178.9110  143.0710 C   0  0  1  0  0  3  0  0  0  0  0  0
  188.1990  178.0880  140.6590 C   0  0  0  0  0  0  0  0  0  0  0  0
  188.9070  177.1890  141.3560 C   0  0  0  0  0  3  0  0  0  0  0  0
  186.0760  178.2740  145.1500 O   0  0  0  0  0  0  0  0  0  0  0  0
  186.5750  178.3790  142.4720 C   0  0  0  0  0  0  0  0  0  0  0  0
  182.7260  178.8690  142.8940 C   0  0  0  0  0  0  0  0  0  0  0  0
  180.8540  179.8730  140.0180 N   0  0  0  0  0  0  0  0  0  0  0  0
  182.8300  179.5110  138.7550 C   0  0  0  0  0  2  0  0  0  0  0  0
  182.8420  178.6590  140.0110 C   0  0  2  0  0  3  0  0  0  0  0  0
  181.6330  179.1310  140.7220 C   0  0  0  0  0  0  0  0  0  0  0  0
  181.5220  179.0340  142.1420 N   0  0  0  0  0  2  0  0  0  0  0  0
  187.6120  177.7650  143.3930 C   0  0  1  0  0  3  0  0  0  0  0  0
  183.8900  178.8740  145.0160 C   0  0  0  0  0  2  0  0  0  0  0  0
  188.8070  178.0090  147.7480 C   0  0  0  0  0  2  0  0  0  0  0  0
  189.3400  177.5710  145.5010 C   0  0  0  0  0  2  0  0  0  0  0  0
  189.9030  177.9790  146.7830 N   0  0  0  0  0  0  0  0  0  0  0  0
  187.5610  177.4360  147.1060 C   0  0  0  0  0  2  0  0  0  0  0  0
  187.9920  176.9270  145.7580 C   0  0  1  0  0  3  0  0  0  0  0  0
  191.9880  177.3350  148.3160 O   0  0  0  0  0  0  0  0  0  0  0  0
  190.2970  175.6070  147.9020 O   0  0  0  0  0  0  0  0  0  0  0  0
  191.0390  176.7670  147.2970 S   0  0  0  0  0  0  0  0  0  0  0  0
  191.9590  176.1940  145.8860 C   0  0  0  0  0  2  0  0  0  0  0  0
  192.5370  174.8910  146.1680 N   0  0  0  0  0  1  0  0  0  0  0  0
  181.3310  181.4620  138.2370 C   0  0  0  0  0  2  0  0  0  0  0  0
  179.9110  182.0010  138.3260 C   0  0  0  0  0  2  0  0  0  0  0  0
  179.8960  183.3490  137.9650 O   0  0  0  0  0  1  0  0  0  0  0  0
  188.6670  178.5460  139.3180 C   0  0  0  0  0  2  0  0  0  0  0  0
  187.8260  177.9400  138.2020 C   0  0  0  0  0  2  0  0  0  0  0  0
  188.6850  177.1750  137.2020 C   0  0  1  0  0  3  0  0  0  0  0  0
  190.0340  177.3060  137.5370 O   0  0  0  0  0  1  0  0  0  0  0  0
  186.3320  174.0910  137.2300 C   0  0  0  0  0  0  0  0  0  0  0  0
  186.8810  175.4130  137.2030 N   0  0  0  0  0  2  0  0  0  0  0  0
  187.0830  173.0820  137.1910 O   0  0  0  0  0  0  0  0  0  0  0  0
  189.1470  174.8260  137.1640 O   0  0  0  0  0  0  0  0  0  0  0  0
  188.2760  175.7370  137.1870 C   0  0  0  0  0  0  0  0  0  0  0  0
  184.9560  173.9050  137.3220 O   0  0  0  0  0  0  0  0  0  0  0  0
  184.0410  174.7790  136.6750 C   0  0  0  0  0  2  0  0  0  0  0  0
  182.7800  174.9100  137.5040 C   0  0  0  0  0  2  0  0  0  0  0  0
  183.0970  175.3940  138.7730 O   0  0  0  0  0  1  0  0  0  0  0  0
  1 13  2  0  0  0  0
  2 14  1  0  0  0  0
  3 12  1  1  0  0  0
  3 26  1  0  0  0  0
  4  2  2  0  0  0  0
  5 21  1  0  0  0  0
  7 32  1  1  0  0  0
  7 16  1  0  0  0  0
  7 15  1  0  0  0  0
  8 21  1  1  0  0  0
  8 12  1  0  0  0  0
  9  2  1  6  0  0  0
  9  8  1  0  0  0  0
 10  1  1  0  0  0  0
 10 11  2  0  0  0  0
 11  6  1  0  0  0  0
 13  9  1  0  0  0  0
 13 20  1  0  0  0  0
 14  5  2  0  0  0  0
 15 18  2  0  0  0  0
 17 16  1  6  0  0  0
 17 18  1  0  0  0  0
 17  4  1  0  0  0  0
 18 19  1  0  0  0  0
 19 14  1  0  0  0  0
 20  6  1  6  0  0  0
 20  3  1  0  0  0  0
 23 24  1  0  0  0  0
 24 29  1  0  0  0  0
 24 22  1  0  0  0  0
 25 22  1  0  0  0  0
 26 23  1  6  0  0  0
 26 25  1  0  0  0  0
 29 28  2  0  0  0  0
 29 27  2  0  0  0  0
 30 31  1  0  0  0  0
 30 29  1  0  0  0  0
 32 33  1  0  0  0  0
 34 33  1  0  0  0  0
 35 10  1  0  0  0  0
 36 35  1  0  0  0  0
 37 38  1  1  0  0  0
 37 36  1  0  0  0  0
 39 44  1  0  0  0  0
 40 39  1  0  0  0  0
 41 39  2  0  0  0  0
 42 43  2  0  0  0  0
 43 37  1  0  0  0  0
 43 40  1  0  0  0  0
 45 44  1  0  0  0  0
 45 46  1  0  0  0  0
 46 47  1  0  0  0  0
M  END
>  <MODEL>
2

>  <REMARK>
 VINA RESULT:      -8.7      1.919      3.460
  Name = 
  12 active torsions:
  status: ('A' for Active; 'I' for Inactive)
    1  A    between atoms: C_1  and  O_14
    2  A    between atoms: C_4  and  C_28
    3  A    between atoms: C_4  and  C_35
    4  A    between atoms: C_6  and  C_39
    5  A    between atoms: C_8  and  C_30
    6  A    between atoms: C_12  and  C_16
    7  A    between atoms: O_14  and  C_30
    8  A    between atoms: C_16  and  C_19
    9  A    between atoms: C_23  and  C_33
   10  A    between atoms: C_28  and  C_33
   11  A    between atoms: N_31  and  S_32
   12  A    between atoms: S_32  and  C_43
                            x       y       z     vdW  Elec       q    Type
                         _______ _______ _______ _____ _____    ______ ____

>  <TORSDO>
F 12

$$$$
=
 OpenBabel11032420563D

 47 52  0  0  1  0  0  0  0  0999 V2000
  184.7800  178.9100  143.1450 C   0  0  0  0  0  3  0  0  0  0  0  0
  186.9360  178.1170  141.1160 C   0  0  0  0  0  0  0  0  0  0  0  0
  183.1210  179.0580  139.8040 C   0  0  1  0  0  3  0  0  0  0  0  0
  187.2570  177.6670  142.3440 C   0  0  0  0  0  3  0  0  0  0  0  0
  187.5050  178.2110  138.7700 N   0  0  0  0  0  0  0  0  0  0  0  0
  182.1630  178.4980  142.1020 C   0  0  0  0  0  2  0  0  0  0  0  0
  190.5940  176.6160  143.3960 C   0  0  2  0  0  3  0  0  0  0  0  0
  185.2760  178.7790  139.4740 N   0  0  1  0  0  0  0  0  0  0  0  0
  185.7700  179.0530  140.8400 C   0  0  1  0  0  3  0  0  0  0  0  0
  183.6230  178.8680  144.0620 C   0  0  0  0  0  0  0  0  0  0  0  0
  182.3850  178.7030  143.5770 C   0  0  0  0  0  3  0  0  0  0  0  0
  184.2510  179.6300  139.1910 O   0  0  0  0  0  0  0  0  0  0  0  0
  184.6030  179.0010  141.8190 C   0  0  0  0  0  0  0  0  0  0  0  0
  187.8120  177.7890  139.9590 C   0  0  0  0  0  0  0  0  0  0  0  0
  190.5910  176.7410  141.9500 N   0  0  0  0  0  0  0  0  0  0  0  0
  189.1510  176.9050  143.8290 C   0  0  0  0  0  2  0  0  0  0  0  0
  188.3460  176.6560  142.5660 C   0  0  2  0  0  3  0  0  0  0  0  0
  189.3820  176.7390  141.5130 C   0  0  0  0  0  0  0  0  0  0  0  0
  189.0500  177.1090  140.1750 N   0  0  0  0  0  2  0  0  0  0  0  0
  183.2040  179.2980  141.3120 C   0  0  1  0  0  3  0  0  0  0  0  0
  186.3480  179.0730  138.5220 C   0  0  0  0  0  2  0  0  0  0  0  0
  180.6990  179.3750  137.0930 C   0  0  0  0  0  2  0  0  0  0  0  0
  182.0740  180.8290  138.3240 C   0  0  0  0  0  2  0  0  0  0  0  0
  181.1700  180.7540  137.1820 N   0  0  0  0  0  0  0  0  0  0  0  0
  181.1730  178.6050  138.3070 C   0  0  0  0  0  2  0  0  0  0  0  0
  181.8300  179.6200  139.2040 C   0  0  1  0  0  3  0  0  0  0  0  0
  178.9310  181.8830  136.2750 O   0  0  0  0  0  0  0  0  0  0  0  0
  178.9880  181.1900  138.6270 O   0  0  0  0  0  0  0  0  0  0  0  0
  179.7960  181.7720  137.4990 S   0  0  0  0  0  0  0  0  0  0  0  0
  180.3660  183.3910  137.9700 C   0  0  0  0  0  2  0  0  0  0  0  0
  181.1300  183.9820  136.8830 N   0  0  0  0  0  1  0  0  0  0  0  0
  191.5530  177.6300  144.0020 C   0  0  0  0  0  2  0  0  0  0  0  0
  190.7950  178.8450  144.5160 C   0  0  0  0  0  2  0  0  0  0  0  0
  191.3160  180.0040  143.9370 O   0  0  0  0  0  1  0  0  0  0  0  0
  183.8510  178.9850  145.5330 C   0  0  0  0  0  2  0  0  0  0  0  0
  185.3380  179.0420  145.8590 C   0  0  0  0  0  2  0  0  0  0  0  0
  185.8350  177.7280  146.4500 C   0  0  1  0  0  3  0  0  0  0  0  0
  186.0190  176.7890  145.4330 O   0  0  0  0  0  1  0  0  0  0  0  0
  189.4650  177.1240  147.6770 C   0  0  0  0  0  0  0  0  0  0  0  0
  188.2000  177.0560  147.0100 N   0  0  0  0  0  2  0  0  0  0  0  0
  189.7230  178.0650  148.4720 O   0  0  0  0  0  0  0  0  0  0  0  0
  187.2190  178.9490  147.9760 O   0  0  0  0  0  0  0  0  0  0  0  0
  187.1100  177.9650  147.1950 C   0  0  0  0  0  0  0  0  0  0  0  0
  190.4210  176.1340  147.4700 O   0  0  0  0  0  0  0  0  0  0  0  0
  191.7540  176.4520  147.0960 C   0  0  0  0  0  2  0  0  0  0  0  0
  192.7030  176.1120  148.2270 C   0  0  0  0  0  2  0  0  0  0  0  0
  192.8470  177.2140  149.0690 O   0  0  0  0  0  1  0  0  0  0  0  0
  1 10  1  0  0  0  0
  2  4  2  0  0  0  0
  3 12  1  6  0  0  0
  3 20  1  0  0  0  0
  5 14  2  0  0  0  0
  6 11  1  0  0  0  0
  7 16  1  0  0  0  0
  7 32  1  1  0  0  0
  8 21  1  6  0  0  0
  8  9  1  0  0  0  0
  9  2  1  1  0  0  0
  9 13  1  0  0  0  0
 10 35  1  0  0  0  0
 11 10  2  0  0  0  0
 12  8  1  0  0  0  0
 13  1  2  0  0  0  0
 14 19  1  0  0  0  0
 14  2  1  0  0  0  0
 15  7  1  0  0  0  0
 17  4  1  6  0  0  0
 17 16  1  0  0  0  0
 18 15  2  0  0  0  0
 18 17  1  0  0  0  0
 19 18  1  0  0  0  0
 20 13  1  0  0  0  0
 20  6  1  1  0  0  0
 21  5  1  0  0  0  0
 22 24  1  0  0  0  0
 22 25  1  0  0  0  0
 23 26  1  0  0  0  0
 24 29  1  0  0  0  0
 24 23  1  0  0  0  0
 26 25  1  6  0  0  0
 26  3  1  0  0  0  0
 27 29  2  0  0  0  0
 29 30  1  0  0  0  0
 29 28  2  0  0  0  0
 31 30  1  0  0  0  0
 32 33  1  0  0  0  0
 34 33  1  0  0  0  0
 35 36  1  0  0  0  0
 36 37  1  0  0  0  0
 37 38  1  6  0  0  0
 37 43  1  0  0  0  0
 39 41  2  0  0  0  0
 40 43  1  0  0  0  0
 40 39  1  0  0  0  0
 43 42  2  0  0  0  0
 44 39  1  0  0  0  0
 45 44  1  0  0  0  0
 45 46  1  0  0  0  0
 46 47  1  0  0  0  0
M  END
>  <MODEL>
3

>  <REMARK>
 VINA RESULT:      -8.7      4.172     10.109
  Name = 
  12 active torsions:
  status: ('A' for Active; 'I' for Inactive)
    1  A    between atoms: C_1  and  O_14
    2  A    between atoms: C_4  and  C_28
    3  A    between atoms: C_4  and  C_35
    4  A    between atoms: C_6  and  C_39
    5  A    between atoms: C_8  and  C_30
    6  A    between atoms: C_12  and  C_16
    7  A    between atoms: O_14  and  C_30
    8  A    between atoms: C_16  and  C_19
    9  A    between atoms: C_23  and  C_33
   10  A    between atoms: C_28  and  C_33
   11  A    between atoms: N_31  and  S_32
   12  A    between atoms: S_32  and  C_43
                            x       y       z     vdW  Elec       q    Type
                         _______ _______ _______ _____ _____    ______ ____

>  <TORSDO>
F 12

$$$$
=
 OpenBabel11032420563D

 47 52  0  0  1  0  0  0  0  0999 V2000
  189.9000  176.8120  140.0150 C   0  0  0  0  0  3  0  0  0  0  0  0
  188.3660  176.5550  137.3750 C   0  0  0  0  0  0  0  0  0  0  0  0
  192.4600  175.9240  137.4470 C   0  0  1  0  0  3  0  0  0  0  0  0
  187.6690  177.3010  138.2540 C   0  0  0  0  0  3  0  0  0  0  0  0
  188.5070  175.6430  135.1430 N   0  0  0  0  0  0  0  0  0  0  0  0
  192.6650  177.3240  139.5700 C   0  0  0  0  0  2  0  0  0  0  0  0
  184.0980  178.0370  138.0250 C   0  0  2  0  0  3  0  0  0  0  0  0
  190.4760  175.7130  136.5230 N   0  0  1  0  0  0  0  0  0  0  0  0
  189.6320  175.7950  137.7340 C   0  0  1  0  0  3  0  0  0  0  0  0
  190.7370  177.3340  141.1160 C   0  0  0  0  0  0  0  0  0  0  0  0
  192.0450  177.5510  140.9230 C   0  0  0  0  0  3  0  0  0  0  0  0
  191.6040  175.0060  136.8110 O   0  0  0  0  0  0  0  0  0  0  0  0
  190.4600  176.3470  138.8890 C   0  0  0  0  0  0  0  0  0  0  0  0
  187.8380  176.3530  135.9990 C   0  0  0  0  0  0  0  0  0  0  0  0
  184.5280  177.4730  136.7590 N   0  0  0  0  0  0  0  0  0  0  0  0
  185.3720  178.1480  138.8720 C   0  0  0  0  0  2  0  0  0  0  0  0
  186.4850  178.1280  137.8390 C   0  0  2  0  0  3  0  0  0  0  0  0
  185.8070  177.5460  136.6600 C   0  0  0  0  0  0  0  0  0  0  0  0
  186.5400  176.8430  135.6560 N   0  0  0  0  0  2  0  0  0  0  0  0
  191.9640  176.1530  138.8750 C   0  0  1  0  0  3  0  0  0  0  0  0
  189.7520  174.9590  135.4990 C   0  0  0  0  0  2  0  0  0  0  0  0
  195.3320  174.4720  135.7260 C   0  0  0  0  0  2  0  0  0  0  0  0
  194.0230  173.9360  137.6040 C   0  0  0  0  0  2  0  0  0  0  0  0
  195.0860  173.4440  136.7340 N   0  0  0  0  0  0  0  0  0  0  0  0
  194.5340  175.7110  136.0720 C   0  0  0  0  0  2  0  0  0  0  0  0
  193.9090  175.4350  137.4130 C   0  0  1  0  0  3  0  0  0  0  0  0
  196.2590  173.5810  139.1250 O   0  0  0  0  0  0  0  0  0  0  0  0
  197.0320  171.8480  137.5720 O   0  0  0  0  0  0  0  0  0  0  0  0
  196.5330  173.2630  137.6810 S   0  0  0  0  0  0  0  0  0  0  0  0
  197.7810  174.3680  137.0580 C   0  0  0  0  0  2  0  0  0  0  0  0
  198.0620  175.4020  138.0410 N   0  0  0  0  0  1  0  0  0  0  0  0
  183.0890  177.1110  138.6890 C   0  0  0  0  0  2  0  0  0  0  0  0
  182.8960  177.4860  140.1510 C   0  0  0  0  0  2  0  0  0  0  0  0
  181.5350  177.6310  140.4230 O   0  0  0  0  0  1  0  0  0  0  0  0
  190.1040  177.6420  142.4330 C   0  0  0  0  0  2  0  0  0  0  0  0
  190.5120  176.6260  143.4920 C   0  0  0  0  0  2  0  0  0  0  0  0
  191.2780  177.2820  144.6350 C   0  0  1  0  0  3  0  0  0  0  0  0
  191.5310  178.6210  144.3300 O   0  0  0  0  0  1  0  0  0  0  0  0
  188.2920  177.6790  147.0790 C   0  0  0  0  0  0  0  0  0  0  0  0
  189.1570  177.6820  145.9380 N   0  0  0  0  0  2  0  0  0  0  0  0
  188.6560  177.1480  148.1600 O   0  0  0  0  0  0  0  0  0  0  0  0
  190.9950  176.6140  146.9170 O   0  0  0  0  0  0  0  0  0  0  0  0
  190.4900  177.1620  145.9000 C   0  0  0  0  0  0  0  0  0  0  0  0
  187.0420  178.2860  147.0140 O   0  0  0  0  0  0  0  0  0  0  0  0
  186.0580  177.8680  146.0770 C   0  0  0  0  0  2  0  0  0  0  0  0
  185.3020  179.0710  145.5520 C   0  0  0  0  0  2  0  0  0  0  0  0
  183.9700  179.0040  145.9580 O   0  0  0  0  0  1  0  0  0  0  0  0
  1 10  1  0  0  0  0
  2  4  2  0  0  0  0
  3 12  1  1  0  0  0
  3 20  1  0  0  0  0
  5 21  1  0  0  0  0
  5 14  2  0  0  0  0
  6 11  1  0  0  0  0
  7 32  1  1  0  0  0
  7 16  1  0  0  0  0
  8 21  1  6  0  0  0
  8 12  1  0  0  0  0
  8  9  1  0  0  0  0
  9  2  1  6  0  0  0
  9 13  1  0  0  0  0
 10 35  1  0  0  0  0
 11 10  2  0  0  0  0
 13  1  2  0  0  0  0
 14  2  1  0  0  0  0
 15  7  1  0  0  0  0
 17  4  1  1  0  0  0
 17 16  1  0  0  0  0
 18 15  2  0  0  0  0
 18 17  1  0  0  0  0
 19 14  1  0  0  0  0
 19 18  1  0  0  0  0
 20 13  1  0  0  0  0
 20  6  1  6  0  0  0
 22 25  1  0  0  0  0
 22 24  1  0  0  0  0
 24 23  1  0  0  0  0
 24 29  1  0  0  0  0
 26 25  1  6  0  0  0
 26  3  1  0  0  0  0
 26 23  1  0  0  0  0
 28 29  2  0  0  0  0
 29 27  2  0  0  0  0
 30 29  1  0  0  0  0
 30 31  1  0  0  0  0
 32 33  1  0  0  0  0
 33 34  1  0  0  0  0
 35 36  1  0  0  0  0
 36 37  1  0  0  0  0
 37 38  1  6  0  0  0
 37 43  1  0  0  0  0
 39 41  2  0  0  0  0
 40 39  1  0  0  0  0
 43 40  1  0  0  0  0
 43 42  2  0  0  0  0
 44 39  1  0  0  0  0
 45 44  1  0  0  0  0
 46 47  1  0  0  0  0
 46 45  1  0  0  0  0
M  END
>  <MODEL>
4

>  <REMARK>
 VINA RESULT:      -8.6      3.394      9.065
  Name = 
  12 active torsions:
  status: ('A' for Active; 'I' for Inactive)
    1  A    between atoms: C_1  and  O_14
    2  A    between atoms: C_4  and  C_28
    3  A    between atoms: C_4  and  C_35
    4  A    between atoms: C_6  and  C_39
    5  A    between atoms: C_8  and  C_30
    6  A    between atoms: C_12  and  C_16
    7  A    between atoms: O_14  and  C_30
    8  A    between atoms: C_16  and  C_19
    9  A    between atoms: C_23  and  C_33
   10  A    between atoms: C_28  and  C_33
   11  A    between atoms: N_31  and  S_32
   12  A    between atoms: S_32  and  C_43
                            x       y       z     vdW  Elec       q    Type
                         _______ _______ _______ _____ _____    ______ ____

>  <TORSDO>
F 12

$$$$
=
 OpenBabel11032420563D

 47 52  0  0  1  0  0  0  0  0999 V2000
  189.9340  176.8360  140.0610 C   0  0  0  0  0  3  0  0  0  0  0  0
  188.3690  176.8220  137.4270 C   0  0  0  0  0  0  0  0  0  0  0  0
  192.4940  176.4380  137.3730 C   0  0  1  0  0  3  0  0  0  0  0  0
  187.6460  177.4070  138.4000 C   0  0  0  0  0  3  0  0  0  0  0  0
  188.5230  176.2090  135.0950 N   0  0  0  0  0  0  0  0  0  0  0  0
  192.6550  177.5690  139.6550 C   0  0  0  0  0  2  0  0  0  0  0  0
  184.0340  177.9450  138.3060 C   0  0  2  0  0  3  0  0  0  0  0  0
  190.5090  176.2240  136.4510 N   0  0  1  0  0  0  0  0  0  0  0  0
  189.6850  176.1010  137.6720 C   0  0  1  0  0  3  0  0  0  0  0  0
  190.7580  177.2660  141.2100 C   0  0  0  0  0  0  0  0  0  0  0  0
  192.0470  177.5850  141.0330 C   0  0  0  0  0  3  0  0  0  0  0  0
  191.6820  175.5570  136.6350 O   0  0  0  0  0  0  0  0  0  0  0  0
  190.4990  176.5530  138.8790 C   0  0  0  0  0  0  0  0  0  0  0  0
  187.8280  176.7630  136.0410 C   0  0  0  0  0  0  0  0  0  0  0  0
  184.4730  177.5730  136.9740 N   0  0  0  0  0  0  0  0  0  0  0  0
  185.3140  178.0270  139.1450 C   0  0  0  0  0  2  0  0  0  0  0  0
  186.4070  178.2050  138.1070 C   0  0  2  0  0  3  0  0  0  0  0  0
  185.7430  177.7370  136.8700 C   0  0  0  0  0  0  0  0  0  0  0  0
  186.4980  177.2120  135.7770 N   0  0  0  0  0  2  0  0  0  0  0  0
  192.0110  176.4540  138.8240 C   0  0  1  0  0  3  0  0  0  0  0  0
  189.8120  175.5630  135.3470 C   0  0  0  0  0  2  0  0  0  0  0  0
  195.2550  174.7150  135.7230 C   0  0  0  0  0  2  0  0  0  0  0  0
  194.2550  174.6800  137.8500 C   0  0  0  0  0  2  0  0  0  0  0  0
  195.2430  174.0170  137.0060 N   0  0  0  0  0  0  0  0  0  0  0  0
  194.3880  175.9520  135.8200 C   0  0  0  0  0  2  0  0  0  0  0  0
  193.9680  176.0470  137.2620 C   0  0  1  0  0  3  0  0  0  0  0  0
  197.6440  172.9780  137.5200 O   0  0  0  0  0  0  0  0  0  0  0  0
  197.5070  175.3950  137.1290 O   0  0  0  0  0  0  0  0  0  0  0  0
  196.8090  174.2090  137.7370 S   0  0  0  0  0  0  0  0  0  0  0  0
  196.6090  174.4870  139.4830 C   0  0  0  0  0  2  0  0  0  0  0  0
  197.6160  175.4220  139.9540 N   0  0  0  0  0  1  0  0  0  0  0  0
  183.0940  176.8830  138.8570 C   0  0  0  0  0  2  0  0  0  0  0  0
  182.8860  175.7700  137.8410 C   0  0  0  0  0  2  0  0  0  0  0  0
  183.6200  174.6450  138.2190 O   0  0  0  0  0  1  0  0  0  0  0  0
  190.1320  177.3650  142.5620 C   0  0  0  0  0  2  0  0  0  0  0  0
  188.7190  177.9270  142.4770 C   0  0  0  0  0  2  0  0  0  0  0  0
  187.7320  177.0960  143.2870 C   0  0  1  0  0  3  0  0  0  0  0  0
  188.0160  175.7370  143.1310 O   0  0  0  0  0  1  0  0  0  0  0  0
  189.2090  177.5030  146.8510 C   0  0  0  0  0  0  0  0  0  0  0  0
  189.0000  177.2190  145.4630 N   0  0  0  0  0  2  0  0  0  0  0  0
  188.3230  178.0860  147.5290 O   0  0  0  0  0  0  0  0  0  0  0  0
  186.8240  178.0620  145.2810 O   0  0  0  0  0  0  0  0  0  0  0  0
  187.8040  177.4950  144.7260 C   0  0  0  0  0  0  0  0  0  0  0  0
  190.3900  177.1160  147.4760 O   0  0  0  0  0  0  0  0  0  0  0  0
  191.5330  176.7210  146.7300 C   0  0  0  0  0  2  0  0  0  0  0  0
  192.2580  175.6030  147.4500 C   0  0  0  0  0  2  0  0  0  0  0  0
  192.9750  176.1220  148.5270 O   0  0  0  0  0  1  0  0  0  0  0  0
  1 10  1  0  0  0  0
  2  4  2  0  0  0  0
  3 12  1  6  0  0  0
  3 20  1  0  0  0  0
  5 21  1  0  0  0  0
  5 14  2  0  0  0  0
  6 11  1  0  0  0  0
  7 32  1  1  0  0  0
  7 16  1  0  0  0  0
  8 21  1  6  0  0  0
  8 12  1  0  0  0  0
  8  9  1  0  0  0  0
  9  2  1  6  0  0  0
  9 13  1  0  0  0  0
 10 35  1  0  0  0  0
 11 10  2  0  0  0  0
 13  1  2  0  0  0  0
 14  2  1  0  0  0  0
 15  7  1  0  0  0  0
 17  4  1  1  0  0  0
 17 16  1  0  0  0  0
 18 15  2  0  0  0  0
 18 17  1  0  0  0  0
 19 14  1  0  0  0  0
 19 18  1  0  0  0  0
 20 13  1  0  0  0  0
 20  6  1  1  0  0  0
 22 25  1  0  0  0  0
 22 24  1  0  0  0  0
 24 29  1  0  0  0  0
 24 23  1  0  0  0  0
 26 25  1  6  0  0  0
 26  3  1  0  0  0  0
 26 23  1  0  0  0  0
 27 29  2  0  0  0  0
 28 29  2  0  0  0  0
 29 30  1  0  0  0  0
 30 31  1  0  0  0  0
 33 34  1  0  0  0  0
 33 32  1  0  0  0  0
 36 35  1  0  0  0  0
 36 37  1  0  0  0  0
 37 38  1  1  0  0  0
 37 43  1  0  0  0  0
 39 44  1  0  0  0  0
 39 41  2  0  0  0  0
 40 39  1  0  0  0  0
 43 42  2  0  0  0  0
 43 40  1  0  0  0  0
 45 46  1  0  0  0  0
 45 44  1  0  0  0  0
 46 47  1  0  0  0  0
M  END
>  <MODEL>
5

>  <REMARK>
 VINA RESULT:      -8.5      3.520      8.615
  Name = 
  12 active torsions:
  status: ('A' for Active; 'I' for Inactive)
    1  A    between atoms: C_1  and  O_14
    2  A    between atoms: C_4  and  C_28
    3  A    between atoms: C_4  and  C_35
    4  A    between atoms: C_6  and  C_39
    5  A    between atoms: C_8  and  C_30
    6  A    between atoms: C_12  and  C_16
    7  A    between atoms: O_14  and  C_30
    8  A    between atoms: C_16  and  C_19
    9  A    between atoms: C_23  and  C_33
   10  A    between atoms: C_28  and  C_33
   11  A    between atoms: N_31  and  S_32
   12  A    between atoms: S_32  and  C_43
                            x       y       z     vdW  Elec       q    Type
                         _______ _______ _______ _____ _____    ______ ____

>  <TORSDO>
F 12

$$$$
=
 OpenBabel11032420563D

 47 52  0  0  1  0  0  0  0  0999 V2000
  187.7650  177.4840  139.4410 C   0  0  0  0  0  3  0  0  0  0  0  0
  189.1400  177.2580  142.1690 C   0  0  0  0  0  0  0  0  0  0  0  0
  191.2480  176.3500  138.7200 C   0  0  1  0  0  3  0  0  0  0  0  0
  187.8020  177.2040  142.3110 C   0  0  0  0  0  3  0  0  0  0  0  0
  191.3050  177.1420  143.2350 N   0  0  0  0  0  0  0  0  0  0  0  0
  189.0670  175.8840  137.4790 C   0  0  0  0  0  2  0  0  0  0  0  0
  185.9900  177.7760  145.4310 C   0  0  2  0  0  3  0  0  0  0  0  0
  191.1430  176.8950  140.8470 N   0  0  1  0  0  0  0  0  0  0  0  0
  189.8360  177.5860  140.8580 C   0  0  1  0  0  3  0  0  0  0  0  0
  187.0670  177.1530  138.1810 C   0  0  0  0  0  0  0  0  0  0  0  0
  187.6830  176.4250  137.2400 C   0  0  0  0  0  3  0  0  0  0  0  0
  191.8010  177.2010  139.6950 O   0  0  0  0  0  0  0  0  0  0  0  0
  189.0780  177.2540  139.5780 C   0  0  0  0  0  0  0  0  0  0  0  0
  190.0150  177.1010  143.3630 C   0  0  0  0  0  0  0  0  0  0  0  0
  187.3990  177.6240  145.7450 N   0  0  0  0  0  0  0  0  0  0  0  0
  185.8850  177.5420  143.9190 C   0  0  0  0  0  2  0  0  0  0  0  0
  187.1500  176.7690  143.5930 C   0  0  2  0  0  3  0  0  0  0  0  0
  188.0080  177.0630  144.7620 C   0  0  0  0  0  0  0  0  0  0  0  0
  189.4320  177.0200  144.6660 N   0  0  0  0  0  2  0  0  0  0  0  0
  189.8630  176.8730  138.3370 C   0  0  1  0  0  3  0  0  0  0  0  0
  191.9540  177.4120  141.9500 C   0  0  0  0  0  2  0  0  0  0  0  0
  193.9350  174.7230  136.8620 C   0  0  0  0  0  2  0  0  0  0  0  0
  193.5310  176.8620  137.7480 C   0  0  0  0  0  2  0  0  0  0  0  0
  194.5410  176.0280  137.1070 N   0  0  0  0  0  0  0  0  0  0  0  0
  192.4590  174.7890  137.1920 C   0  0  0  0  0  2  0  0  0  0  0  0
  192.1740  176.2320  137.5080 C   0  0  1  0  0  3  0  0  0  0  0  0
  193.8050  176.5580  134.5990 O   0  0  0  0  0  0  0  0  0  0  0  0
  195.2230  178.1990  135.7430 O   0  0  0  0  0  0  0  0  0  0  0  0
  194.9410  176.7320  135.5680 S   0  0  0  0  0  0  0  0  0  0  0  0
  196.3960  175.9360  134.9220 C   0  0  0  0  0  2  0  0  0  0  0  0
  197.3920  175.8000  135.9720 N   0  0  0  0  0  1  0  0  0  0  0  0
  185.5270  179.1800  145.7930 C   0  0  0  0  0  2  0  0  0  0  0  0
  184.6410  179.7530  144.6980 C   0  0  0  0  0  2  0  0  0  0  0  0
  183.2980  179.5640  145.0320 O   0  0  0  0  0  1  0  0  0  0  0  0
  185.6610  177.6170  137.9800 C   0  0  0  0  0  2  0  0  0  0  0  0
  185.3790  178.8840  138.7770 C   0  0  0  0  0  2  0  0  0  0  0  0
  184.5190  178.6000  140.0020 C   0  0  1  0  0  3  0  0  0  0  0  0
  184.9690  179.3580  141.0850 O   0  0  0  0  0  1  0  0  0  0  0  0
  180.6630  178.6410  140.4260 C   0  0  0  0  0  0  0  0  0  0  0  0
  182.0740  178.4620  140.5990 N   0  0  0  0  0  2  0  0  0  0  0  0
  180.2130  179.2770  139.4370 O   0  0  0  0  0  0  0  0  0  0  0  0
  182.7840  179.5430  138.6490 O   0  0  0  0  0  0  0  0  0  0  0  0
  183.0890  178.9060  139.6930 C   0  0  0  0  0  0  0  0  0  0  0  0
  179.7690  178.0940  141.3400 O   0  0  0  0  0  0  0  0  0  0  0  0
  178.9610  178.9140  142.1740 C   0  0  0  0  0  2  0  0  0  0  0  0
  179.7950  180.0340  142.7600 C   0  0  0  0  0  2  0  0  0  0  0  0
  179.3940  181.2550  142.2180 O   0  0  0  0  0  1  0  0  0  0  0  0
  1 13  2  0  0  0  0
  2  4  2  0  0  0  0
  2 14  1  0  0  0  0
  3 12  1  1  0  0  0
  5 14  2  0  0  0  0
  7 15  1  0  0  0  0
  7 32  1  6  0  0  0
  8  9  1  0  0  0  0
  8 21  1  1  0  0  0
  9 13  1  6  0  0  0
  9  2  1  0  0  0  0
 10  1  1  0  0  0  0
 11  6  1  0  0  0  0
 11 10  2  0  0  0  0
 12  8  1  0  0  0  0
 14 19  1  0  0  0  0
 16  7  1  0  0  0  0
 17  4  1  6  0  0  0
 17 16  1  0  0  0  0
 17 18  1  0  0  0  0
 18 15  2  0  0  0  0
 19 18  1  0  0  0  0
 20  6  1  1  0  0  0
 20  3  1  0  0  0  0
 20 13  1  0  0  0  0
 21  5  1  0  0  0  0
 22 24  1  0  0  0  0
 22 25  1  0  0  0  0
 24 23  1  0  0  0  0
 26 25  1  1  0  0  0
 26 23  1  0  0  0  0
 26  3  1  0  0  0  0
 27 29  2  0  0  0  0
 29 28  2  0  0  0  0
 29 24  1  0  0  0  0
 30 29  1  0  0  0  0
 30 31  1  0  0  0  0
 33 34  1  0  0  0  0
 33 32  1  0  0  0  0
 35 10  1  0  0  0  0
 35 36  1  0  0  0  0
 36 37  1  0  0  0  0
 37 38  1  1  0  0  0
 39 40  1  0  0  0  0
 39 44  1  0  0  0  0
 41 39  2  0  0  0  0
 42 43  2  0  0  0  0
 43 37  1  0  0  0  0
 43 40  1  0  0  0  0
 44 45  1  0  0  0  0
 45 46  1  0  0  0  0
 47 46  1  0  0  0  0
M  END
>  <MODEL>
6

>  <REMARK>
 VINA RESULT:      -8.3      3.483      9.450
  Name = 
  12 active torsions:
  status: ('A' for Active; 'I' for Inactive)
    1  A    between atoms: C_1  and  O_14
    2  A    between atoms: C_4  and  C_28
    3  A    between atoms: C_4  and  C_35
    4  A    between atoms: C_6  and  C_39
    5  A    between atoms: C_8  and  C_30
    6  A    between atoms: C_12  and  C_16
    7  A    between atoms: O_14  and  C_30
    8  A    between atoms: C_16  and  C_19
    9  A    between atoms: C_23  and  C_33
   10  A    between atoms: C_28  and  C_33
   11  A    between atoms: N_31  and  S_32
   12  A    between atoms: S_32  and  C_43
                            x       y       z     vdW  Elec       q    Type
                         _______ _______ _______ _____ _____    ______ ____

>  <TORSDO>
F 12

$$$$
=
 OpenBabel11032420563D

 47 52  0  0  1  0  0  0  0  0999 V2000
  187.8560  177.7930  139.3950 C   0  0  0  0  0  3  0  0  0  0  0  0
  189.1400  177.2930  142.1330 C   0  0  0  0  0  0  0  0  0  0  0  0
  191.2240  176.3490  138.6790 C   0  0  1  0  0  3  0  0  0  0  0  0
  187.8000  177.3680  142.2470 C   0  0  0  0  0  3  0  0  0  0  0  0
  191.2580  176.9060  143.2280 N   0  0  0  0  0  0  0  0  0  0  0  0
  189.0370  176.1680  137.3770 C   0  0  0  0  0  2  0  0  0  0  0  0
  185.9840  177.9640  145.3610 C   0  0  2  0  0  3  0  0  0  0  0  0
  191.1260  176.7950  140.8290 N   0  0  1  0  0  0  0  0  0  0  0  0
  189.8950  177.6140  140.8530 C   0  0  1  0  0  3  0  0  0  0  0  0
  187.1570  177.5970  138.1080 C   0  0  0  0  0  0  0  0  0  0  0  0
  187.7190  176.8580  137.1420 C   0  0  0  0  0  3  0  0  0  0  0  0
  191.8370  177.0910  139.7060 O   0  0  0  0  0  0  0  0  0  0  0  0
  189.1370  177.4240  139.5440 C   0  0  0  0  0  0  0  0  0  0  0  0
  189.9670  176.9890  143.3320 C   0  0  0  0  0  0  0  0  0  0  0  0
  187.3630  177.6550  145.6910 N   0  0  0  0  0  0  0  0  0  0  0  0
  185.8900  177.8170  143.8370 C   0  0  0  0  0  2  0  0  0  0  0  0
  187.0790  176.9370  143.4930 C   0  0  2  0  0  3  0  0  0  0  0  0
  187.9350  177.0850  144.6910 C   0  0  0  0  0  0  0  0  0  0  0  0
  189.3490  176.9030  144.6180 N   0  0  0  0  0  2  0  0  0  0  0  0
  189.9070  177.0280  138.2990 C   0  0  1  0  0  3  0  0  0  0  0  0
  191.9590  177.1720  141.9710 C   0  0  0  0  0  2  0  0  0  0  0  0
  193.8370  174.5980  136.8290 C   0  0  0  0  0  2  0  0  0  0  0  0
  193.5490  176.7410  137.7520 C   0  0  0  0  0  2  0  0  0  0  0  0
  194.5180  175.8590  137.1090 N   0  0  0  0  0  0  0  0  0  0  0  0
  192.3630  174.7480  137.1370 C   0  0  0  0  0  2  0  0  0  0  0  0
  192.1610  176.1990  137.4790 C   0  0  1  0  0  3  0  0  0  0  0  0
  193.8650  176.4600  134.5940 O   0  0  0  0  0  0  0  0  0  0  0  0
  195.3290  178.0170  135.7970 O   0  0  0  0  0  0  0  0  0  0  0  0
  194.9850  176.5670  135.5910 S   0  0  0  0  0  0  0  0  0  0  0  0
  196.4170  175.7160  134.9660 C   0  0  0  0  0  2  0  0  0  0  0  0
  197.5740  176.0220  135.7910 N   0  0  0  0  0  1  0  0  0  0  0  0
  185.6560  179.3870  145.7870 C   0  0  0  0  0  2  0  0  0  0  0  0
  184.5500  179.9670  144.9180 C   0  0  0  0  0  2  0  0  0  0  0  0
  183.3340  179.3590  145.2360 O   0  0  0  0  0  1  0  0  0  0  0  0
  185.8100  178.2090  137.9070 C   0  0  0  0  0  2  0  0  0  0  0  0
  184.8010  177.6650  138.9100 C   0  0  0  0  0  2  0  0  0  0  0  0
  184.2340  178.7700  139.7940 C   0  0  1  0  0  3  0  0  0  0  0  0
  184.5220  180.0180  139.2370 O   0  0  0  0  0  1  0  0  0  0  0  0
  180.7710  177.0410  139.5430 C   0  0  0  0  0  0  0  0  0  0  0  0
  182.1670  177.3570  139.5000 N   0  0  0  0  0  2  0  0  0  0  0  0
  179.9450  177.8450  140.0500 O   0  0  0  0  0  0  0  0  0  0  0  0
  182.0510  179.4870  140.4650 O   0  0  0  0  0  0  0  0  0  0  0  0
  182.7590  178.5810  139.9490 C   0  0  0  0  0  0  0  0  0  0  0  0
  180.3050  175.8470  139.0030 O   0  0  0  0  0  0  0  0  0  0  0  0
  181.1900  174.8870  138.4430 C   0  0  0  0  0  2  0  0  0  0  0  0
  180.4290  173.9630  137.5150 C   0  0  0  0  0  2  0  0  0  0  0  0
  180.0500  172.8110  138.2020 O   0  0  0  0  0  1  0  0  0  0  0  0
  1 13  2  0  0  0  0
  2  4  2  0  0  0  0
  2 14  1  0  0  0  0
  3 12  1  1  0  0  0
  5 14  2  0  0  0  0
  7 15  1  0  0  0  0
  7 32  1  6  0  0  0
  8  9  1  0  0  0  0
  8 21  1  1  0  0  0
  9 13  1  6  0  0  0
  9  2  1  0  0  0  0
 10  1  1  0  0  0  0
 11  6  1  0  0  0  0
 11 10  2  0  0  0  0
 12  8  1  0  0  0  0
 14 19  1  0  0  0  0
 16  7  1  0  0  0  0
 17  4  1  6  0  0  0
 17 16  1  0  0  0  0
 17 18  1  0  0  0  0
 18 15  2  0  0  0  0
 19 18  1  0  0  0  0
 20  6  1  6  0  0  0
 20  3  1  0  0  0  0
 20 13  1  0  0  0  0
 21  5  1  0  0  0  0
 22 24  1  0  0  0  0
 22 25  1  0  0  0  0
 24 23  1  0  0  0  0
 26 25  1  1  0  0  0
 26 23  1  0  0  0  0
 26  3  1  0  0  0  0
 27 29  2  0  0  0  0
 29 28  2  0  0  0  0
 29 24  1  0  0  0  0
 30 29  1  0  0  0  0
 30 31  1  0  0  0  0
 33 34  1  0  0  0  0
 33 32  1  0  0  0  0
 35 10  1  0  0  0  0
 35 36  1  0  0  0  0
 36 37  1  0  0  0  0
 37 38  1  6  0  0  0
 37 43  1  0  0  0  0
 39 41  2  0  0  0  0
 40 39  1  0  0  0  0
 40 43  1  0  0  0  0
 43 42  2  0  0  0  0
 44 39  1  0  0  0  0
 45 44  1  0  0  0  0
 46 47  1  0  0  0  0
 46 45  1  0  0  0  0
M  END
>  <MODEL>
7

>  <REMARK>
 VINA RESULT:      -8.3      3.748      9.132
  Name = 
  12 active torsions:
  status: ('A' for Active; 'I' for Inactive)
    1  A    between atoms: C_1  and  O_14
    2  A    between atoms: C_4  and  C_28
    3  A    between atoms: C_4  and  C_35
    4  A    between atoms: C_6  and  C_39
    5  A    between atoms: C_8  and  C_30
    6  A    between atoms: C_12  and  C_16
    7  A    between atoms: O_14  and  C_30
    8  A    between atoms: C_16  and  C_19
    9  A    between atoms: C_23  and  C_33
   10  A    between atoms: C_28  and  C_33
   11  A    between atoms: N_31  and  S_32
   12  A    between atoms: S_32  and  C_43
                            x       y       z     vdW  Elec       q    Type
                         _______ _______ _______ _____ _____    ______ ____

>  <TORSDO>
F 12

$$$$
=
 OpenBabel11032420563D

 47 52  0  0  1  0  0  0  0  0999 V2000
  189.3770  178.2420  141.1210 C   0  0  0  0  0  3  0  0  0  0  0  0
  189.1440  177.2880  138.2190 C   0  0  0  0  0  0  0  0  0  0  0  0
  185.7290  178.3060  140.3310 C   0  0  1  0  0  3  0  0  0  0  0  0
  190.3090  176.8790  138.7560 C   0  0  0  0  0  3  0  0  0  0  0  0
  187.6640  177.2620  136.3090 N   0  0  0  0  0  0  0  0  0  0  0  0
  186.9350  177.8780  142.5380 C   0  0  0  0  0  2  0  0  0  0  0  0
  193.2240  175.7570  136.8610 C   0  0  2  0  0  3  0  0  0  0  0  0
  186.8180  177.9370  138.4570 N   0  0  1  0  0  0  0  0  0  0  0  0
  188.1910  178.2510  138.9060 C   0  0  1  0  0  3  0  0  0  0  0  0
  189.3730  178.2790  142.5980 C   0  0  0  0  0  0  0  0  0  0  0  0
  188.2240  178.1380  143.2730 C   0  0  0  0  0  3  0  0  0  0  0  0
  185.9480  178.8100  139.0360 O   0  0  0  0  0  0  0  0  0  0  0  0
  188.2290  178.2820  140.4300 C   0  0  0  0  0  0  0  0  0  0  0  0
  188.7900  176.8800  136.8320 C   0  0  0  0  0  0  0  0  0  0  0  0
  192.0910  175.8210  135.9570 N   0  0  0  0  0  0  0  0  0  0  0  0
  192.6610  176.1150  138.2410 C   0  0  0  0  0  2  0  0  0  0  0  0
  191.1740  175.8410  138.0980 C   0  0  2  0  0  3  0  0  0  0  0  0
  190.9960  175.8430  136.6290 C   0  0  0  0  0  0  0  0  0  0  0  0
  189.7380  176.1670  136.0360 N   0  0  0  0  0  2  0  0  0  0  0  0
  186.9570  178.6060  141.1910 C   0  0  1  0  0  3  0  0  0  0  0  0
  186.7390  178.1520  137.0120 C   0  0  0  0  0  2  0  0  0  0  0  0
  183.3950  178.7750  143.0960 C   0  0  0  0  0  2  0  0  0  0  0  0
  183.2970  177.9010  140.9170 C   0  0  0  0  0  2  0  0  0  0  0  0
  182.5390  178.0620  142.1530 N   0  0  0  0  0  0  0  0  0  0  0  0
  184.6510  179.2310  142.3860 C   0  0  0  0  0  2  0  0  0  0  0  0
  184.4490  178.8860  140.9350 C   0  0  1  0  0  3  0  0  0  0  0  0
  181.0260  180.1410  142.8600 O   0  0  0  0  0  0  0  0  0  0  0  0
  181.3000  179.6910  140.4650 O   0  0  0  0  0  0  0  0  0  0  0  0
  181.1540  179.0600  141.8230 S   0  0  0  0  0  0  0  0  0  0  0  0
  179.6890  178.0500  141.8380 C   0  0  0  0  0  2  0  0  0  0  0  0
  179.8050  176.9960  140.8450 N   0  0  0  0  0  1  0  0  0  0  0  0
  194.2840  176.7620  136.4340 C   0  0  0  0  0  2  0  0  0  0  0  0
  195.3720  176.0810  135.6180 C   0  0  0  0  0  2  0  0  0  0  0  0
  196.3680  175.6010  136.4690 O   0  0  0  0  0  1  0  0  0  0  0  0
  190.6640  178.4500  143.3290 C   0  0  0  0  0  2  0  0  0  0  0  0
  191.5370  177.2090  143.2050 C   0  0  0  0  0  2  0  0  0  0  0  0
  191.0960  176.1120  144.1660 C   0  0  1  0  0  3  0  0  0  0  0  0
  192.0560  175.0980  144.2030 O   0  0  0  0  0  1  0  0  0  0  0  0
  189.1760  177.3130  147.3160 C   0  0  0  0  0  0  0  0  0  0  0  0
  189.5500  176.7520  146.0520 N   0  0  0  0  0  2  0  0  0  0  0  0
  190.0490  177.7660  148.1010 O   0  0  0  0  0  0  0  0  0  0  0  0
  191.8560  177.1270  146.1960 O   0  0  0  0  0  0  0  0  0  0  0  0
  190.8800  176.6930  145.5260 C   0  0  0  0  0  0  0  0  0  0  0  0
  187.8360  177.3820  147.6830 O   0  0  0  0  0  0  0  0  0  0  0  0
  187.1220  178.6100  147.6650 C   0  0  0  0  0  2  0  0  0  0  0  0
  186.1580  178.6290  146.4970 C   0  0  0  0  0  2  0  0  0  0  0  0
  184.8450  178.6230  146.9680 O   0  0  0  0  0  1  0  0  0  0  0  0
  1 10  1  0  0  0  0
  2  4  2  0  0  0  0
  3 12  1  6  0  0  0
  3 26  1  0  0  0  0
  3 20  1  0  0  0  0
  5 14  2  0  0  0  0
  5 21  1  0  0  0  0
  6 11  1  0  0  0  0
  7 32  1  6  0  0  0
  7 16  1  0  0  0  0
  8 21  1  6  0  0  0
  8  9  1  0  0  0  0
  8 12  1  0  0  0  0
  9  2  1  1  0  0  0
  9 13  1  0  0  0  0
 10 11  2  0  0  0  0
 10 35  1  0  0  0  0
 13  1  2  0  0  0  0
 13 20  1  0  0  0  0
 14  2  1  0  0  0  0
 15 18  2  0  0  0  0
 15  7  1  0  0  0  0
 17 16  1  6  0  0  0
 17  4  1  0  0  0  0
 18 17  1  0  0  0  0
 19 18  1  0  0  0  0
 19 14  1  0  0  0  0
 20  6  1  1  0  0  0
 23 24  1  0  0  0  0
 24 22  1  0  0  0  0
 25 22  1  0  0  0  0
 26 23  1  1  0  0  0
 26 25  1  0  0  0  0
 28 29  2  0  0  0  0
 29 30  1  0  0  0  0
 29 24  1  0  0  0  0
 29 27  2  0  0  0  0
 31 30  1  0  0  0  0
 33 32  1  0  0  0  0
 33 34  1  0  0  0  0
 36 35  1  0  0  0  0
 36 37  1  0  0  0  0
 37 38  1  1  0  0  0
 37 43  1  0  0  0  0
 39 44  1  0  0  0  0
 39 41  2  0  0  0  0
 40 39  1  0  0  0  0
 43 40  1  0  0  0  0
 43 42  2  0  0  0  0
 45 44  1  0  0  0  0
 46 47  1  0  0  0  0
 46 45  1  0  0  0  0
M  END
>  <MODEL>
8

>  <REMARK>
 VINA RESULT:      -8.3      3.002      9.648
  Name = 
  12 active torsions:
  status: ('A' for Active; 'I' for Inactive)
    1  A    between atoms: C_1  and  O_14
    2  A    between atoms: C_4  and  C_28
    3  A    between atoms: C_4  and  C_35
    4  A    between atoms: C_6  and  C_39
    5  A    between atoms: C_8  and  C_30
    6  A    between atoms: C_12  and  C_16
    7  A    between atoms: O_14  and  C_30
    8  A    between atoms: C_16  and  C_19
    9  A    between atoms: C_23  and  C_33
   10  A    between atoms: C_28  and  C_33
   11  A    between atoms: N_31  and  S_32
   12  A    between atoms: S_32  and  C_43
                            x       y       z     vdW  Elec       q    Type
                         _______ _______ _______ _____ _____    ______ ____

>  <TORSDO>
F 12

$$$$
=
 OpenBabel11032420563D

 47 52  0  0  1  0  0  0  0  0999 V2000
  189.6030  176.9160  140.8110 C   0  0  0  0  0  3  0  0  0  0  0  0
  187.9350  177.2300  138.2600 C   0  0  0  0  0  0  0  0  0  0  0  0
  192.0280  176.6520  137.9860 C   0  0  1  0  0  3  0  0  0  0  0  0
  187.2840  177.7540  139.3150 C   0  0  0  0  0  3  0  0  0  0  0  0
  187.9630  176.8350  135.8760 N   0  0  0  0  0  0  0  0  0  0  0  0
  192.3400  177.5510  140.3540 C   0  0  0  0  0  2  0  0  0  0  0  0
  183.7040  178.4740  139.4340 C   0  0  2  0  0  3  0  0  0  0  0  0
  190.0010  176.6240  137.1380 N   0  0  1  0  0  0  0  0  0  0  0  0
  189.2200  176.4250  138.3770 C   0  0  1  0  0  3  0  0  0  0  0  0
  190.4940  177.1930  141.9570 C   0  0  0  0  0  0  0  0  0  0  0  0
  191.7900  177.4650  141.7530 C   0  0  0  0  0  3  0  0  0  0  0  0
  191.1430  175.8860  137.2060 O   0  0  0  0  0  0  0  0  0  0  0  0
  190.1040  176.7200  139.5840 C   0  0  0  0  0  0  0  0  0  0  0  0
  187.3370  177.3290  136.9010 C   0  0  0  0  0  0  0  0  0  0  0  0
  184.0690  178.2100  138.0540 N   0  0  0  0  0  0  0  0  0  0  0  0
  185.0200  178.4130  140.2190 C   0  0  0  0  0  2  0  0  0  0  0  0
  186.0780  178.6360  139.1540 C   0  0  2  0  0  3  0  0  0  0  0  0
  185.3420  178.3210  137.9100 C   0  0  0  0  0  0  0  0  0  0  0  0
  186.0230  177.8660  136.7400 N   0  0  0  0  0  2  0  0  0  0  0  0
  191.6060  176.5530  139.4520 C   0  0  1  0  0  3  0  0  0  0  0  0
  189.2260  176.1060  136.0100 C   0  0  0  0  0  2  0  0  0  0  0  0
  194.7060  175.2850  135.9180 C   0  0  0  0  0  2  0  0  0  0  0  0
  193.6500  174.7050  137.9350 C   0  0  0  0  0  2  0  0  0  0  0  0
  194.6110  174.2460  136.9390 N   0  0  0  0  0  0  0  0  0  0  0  0
  193.9260  176.5010  136.3680 C   0  0  0  0  0  2  0  0  0  0  0  0
  193.4750  176.2020  137.7720 C   0  0  1  0  0  3  0  0  0  0  0  0
  196.8280  172.8090  137.3020 O   0  0  0  0  0  0  0  0  0  0  0  0
  197.0410  175.2520  137.2920 O   0  0  0  0  0  0  0  0  0  0  0  0
  196.1670  174.0980  137.7020 S   0  0  0  0  0  0  0  0  0  0  0  0
  195.9560  174.1310  139.4690 C   0  0  0  0  0  2  0  0  0  0  0  0
  196.4720  175.3800  140.0050 N   0  0  0  0  0  1  0  0  0  0  0  0
  182.7320  177.4120  139.9250 C   0  0  0  0  0  2  0  0  0  0  0  0
  181.6750  177.1210  138.8710 C   0  0  0  0  0  2  0  0  0  0  0  0
  181.7580  175.7850  138.4750 O   0  0  0  0  0  1  0  0  0  0  0  0
  189.9290  177.1940  143.3390 C   0  0  0  0  0  2  0  0  0  0  0  0
  190.9900  177.5570  144.3700 C   0  0  0  0  0  2  0  0  0  0  0  0
  190.8730  176.7010  145.6250 C   0  0  1  0  0  3  0  0  0  0  0  0
  192.0570  176.7730  146.3620 O   0  0  0  0  0  1  0  0  0  0  0  0
  187.3380  178.0970  146.4010 C   0  0  0  0  0  0  0  0  0  0  0  0
  188.5190  177.5920  145.7680 N   0  0  0  0  0  2  0  0  0  0  0  0
  187.2540  178.1510  147.6560 O   0  0  0  0  0  0  0  0  0  0  0  0
  189.7750  177.1770  147.6990 O   0  0  0  0  0  0  0  0  0  0  0  0
  189.7070  177.1640  146.4400 C   0  0  0  0  0  0  0  0  0  0  0  0
  186.2720  178.5570  145.6340 O   0  0  0  0  0  0  0  0  0  0  0  0
  184.9530  178.6300  146.1580 C   0  0  0  0  0  2  0  0  0  0  0  0
  183.9730  178.9410  145.0460 C   0  0  0  0  0  2  0  0  0  0  0  0
  184.3430  178.2610  143.8870 O   0  0  0  0  0  1  0  0  0  0  0  0
  1 10  1  0  0  0  0
  2  4  2  0  0  0  0
  3 12  1  6  0  0  0
  3 20  1  0  0  0  0
  5 21  1  0  0  0  0
  5 14  2  0  0  0  0
  6 11  1  0  0  0  0
  7 32  1  1  0  0  0
  7 16  1  0  0  0  0
  8 21  1  6  0  0  0
  8 12  1  0  0  0  0
  8  9  1  0  0  0  0
  9  2  1  6  0  0  0
  9 13  1  0  0  0  0
 10 35  1  0  0  0  0
 11 10  2  0  0  0  0
 13  1  2  0  0  0  0
 14  2  1  0  0  0  0
 15  7  1  0  0  0  0
 17  4  1  1  0  0  0
 17 16  1  0  0  0  0
 18 15  2  0  0  0  0
 18 17  1  0  0  0  0
 19 14  1  0  0  0  0
 19 18  1  0  0  0  0
 20 13  1  0  0  0  0
 20  6  1  1  0  0  0
 22 25  1  0  0  0  0
 22 24  1  0  0  0  0
 24 29  1  0  0  0  0
 24 23  1  0  0  0  0
 26 25  1  6  0  0  0
 26 23  1  0  0  0  0
 26  3  1  0  0  0  0
 27 29  2  0  0  0  0
 28 29  2  0  0  0  0
 29 30  1  0  0  0  0
 30 31  1  0  0  0  0
 33 32  1  0  0  0  0
 34 33  1  0  0  0  0
 35 36  1  0  0  0  0
 36 37  1  0  0  0  0
 37 38  1  1  0  0  0
 37 43  1  0  0  0  0
 39 41  2  0  0  0  0
 40 39  1  0  0  0  0
 40 43  1  0  0  0  0
 43 42  2  0  0  0  0
 44 45  1  0  0  0  0
 44 39  1  0  0  0  0
 46 45  1  0  0  0  0
 47 46  1  0  0  0  0
M  END
>  <MODEL>
9

>  <REMARK>
 VINA RESULT:      -8.0      3.138      8.722
  Name = 
  12 active torsions:
  status: ('A' for Active; 'I' for Inactive)
    1  A    between atoms: C_1  and  O_14
    2  A    between atoms: C_4  and  C_28
    3  A    between atoms: C_4  and  C_35
    4  A    between atoms: C_6  and  C_39
    5  A    between atoms: C_8  and  C_30
    6  A    between atoms: C_12  and  C_16
    7  A    between atoms: O_14  and  C_30
    8  A    between atoms: C_16  and  C_19
    9  A    between atoms: C_23  and  C_33
   10  A    between atoms: C_28  and  C_33
   11  A    between atoms: N_31  and  S_32
   12  A    between atoms: S_32  and  C_43
                            x       y       z     vdW  Elec       q    Type
                         _______ _______ _______ _____ _____    ______ ____

>  <TORSDO>
F 12

$$$$
