=
 OpenBabel11042411493D

 53 55  0  0  1  0  0  0  0  0999 V2000
  185.4460  178.4970  140.0640 C   0  0  0  0  0  0  0  0  0  0  0  0
  186.4850  178.3280  139.2310 C   0  0  0  0  0  3  0  0  0  0  0  0
  179.6160  181.0310  137.8940 C   0  0  0  0  0  3  0  0  0  0  0  0
  182.1050  180.1120  138.8360 C   0  0  0  0  0  0  0  0  0  0  0  0
  179.7570  179.7120  138.3240 C   0  0  0  0  0  3  0  0  0  0  0  0
  180.9820  179.2320  138.8260 C   0  0  0  0  0  0  0  0  0  0  0  0
  181.0800  177.7700  139.2270 C   0  0  1  0  0  3  0  0  0  0  0  0
  183.1920  177.3530  139.6470 C   0  0  0  0  0  2  0  0  0  0  0  0
  180.7070  181.8950  137.9400 C   0  0  0  0  0  3  0  0  0  0  0  0
  184.0140  178.6020  139.6470 C   0  0  0  0  0  0  0  0  0  0  0  0
  183.4840  179.7780  139.2730 C   0  0  0  0  0  3  0  0  0  0  0  0
  181.9380  181.4340  138.4040 C   0  0  0  0  0  3  0  0  0  0  0  0
  181.9760  177.5930  140.2810 O   0  0  0  0  0  0  0  0  0  0  0  0
  179.1900  176.4360  138.7680 O   0  0  0  0  0  0  0  0  0  0  0  0
  179.7620  177.1420  139.5850 C   0  0  0  0  0  0  0  0  0  0  0  0
  179.1750  176.2450  141.6940 O   0  0  0  0  0  1  0  0  0  0  0  0
  179.1290  177.4010  140.9150 C   0  0  0  0  0  2  0  0  0  0  0  0
  185.7800  178.6020  141.5180 C   0  0  0  0  0  2  0  0  0  0  0  0
  184.6760  179.2860  142.2460 C   0  0  0  0  0  3  0  0  0  0  0  0
  183.2330  178.9210  145.4250 O   0  0  0  0  0  1  0  0  0  0  0  0
  184.5810  179.1800  143.5410 C   0  0  0  0  0  0  0  0  0  0  0  0
  184.4810  179.0790  144.8360 C   0  0  0  0  0  0  0  0  0  0  0  0
  185.7020  179.1570  145.6840 C   0  0  0  0  0  2  0  0  0  0  0  0
  186.1120  177.8620  146.0490 O   0  0  0  0  0  0  0  0  0  0  0  0
  188.1760  177.1660  144.9210 C   0  0  0  0  0  2  0  0  0  0  0  0
  187.5220  177.8320  146.1370 C   0  0  2  0  0  3  0  0  0  0  0  0
  190.5930  176.3170  144.0910 O   0  0  0  0  0  0  0  0  0  0  0  0
  189.5000  177.6310  147.6920 C   0  0  0  0  0  2  0  0  0  0  0  0
  190.3910  176.8670  146.7210 C   0  0  0  0  0  2  0  0  0  0  0  0
  189.9480  177.2810  145.0460 S   0  0  0  0  0  0  0  0  0  0  0  0
  188.0280  177.2870  147.4830 C   0  0  0  0  0  2  0  0  0  0  0  0
  190.3930  178.6810  144.7290 O   0  0  0  0  0  0  0  0  0  0  0  0
  186.4040  178.1960  137.7470 C   0  0  0  0  0  2  0  0  0  0  0  0
  187.7960  178.0270  137.1720 C   0  0  0  0  0  2  0  0  0  0  0  0
  187.8010  176.9130  136.1420 C   0  0  2  0  0  3  0  0  0  0  0  0
  186.5230  176.3590  136.0370 O   0  0  0  0  0  1  0  0  0  0  0  0
  188.7900  175.8410  136.5680 C   0  0  0  0  0  2  0  0  0  0  0  0
  189.5750  175.3110  135.3760 C   0  0  2  0  0  3  0  0  0  0  0  0
  188.1950  173.3960  134.9330 O   0  0  0  0  0  0  0  0  0  0  0  0
  190.4220  172.9650  135.2720 O   0  0  0  0  0  1  0  0  0  0  0  0
  189.3480  173.8410  135.1830 C   0  0  0  0  0  0  0  0  0  0  0  0
  191.0540  175.5960  135.5800 C   0  0  0  0  0  2  0  0  0  0  0  0
  192.4430  176.1050  137.5470 C   0  0  0  0  0  0  0  0  0  0  0  0
  191.2890  176.0510  136.9440 N   0  0  0  0  0  0  0  0  0  0  0  0
  193.7300  175.7560  136.8730 C   0  0  0  0  0  0  0  0  0  0  0  0
  194.2270  174.6100  137.0380 O   0  0  0  0  0  0  0  0  0  0  0  0
  195.6920  176.4030  135.4220 C   0  0  0  0  0  1  0  0  0  0  0  0
  194.4310  176.7150  136.0740 N   0  0  0  0  0  2  0  0  0  0  0  0
  193.6020  177.2510  139.3220 O   0  0  0  0  0  1  0  0  0  0  0  0
  192.4300  176.5700  138.9770 C   0  0  1  0  0  3  0  0  0  0  0  0
  191.1820  177.3740  139.3360 C   0  0  0  0  0  2  0  0  0  0  0  0
  190.3170  176.6740  140.3710 C   0  0  0  0  0  2  0  0  0  0  0  0
  189.4800  177.7010  141.1050 C   0  0  0  0  0  1  0  0  0  0  0  0
  1 18  1  0  0  0  0
  2  1  2  0  0  0  0
  3  9  2  0  0  0  0
  3  5  1  0  0  0  0
  4 11  1  0  0  0  0
  5  6  2  0  0  0  0
  6  4  1  0  0  0  0
  6  7  1  0  0  0  0
  7 15  1  1  0  0  0
  7 13  1  0  0  0  0
  8 13  1  0  0  0  0
  9 12  1  0  0  0  0
 10  8  1  0  0  0  0
 10  1  1  0  0  0  0
 11 10  2  0  0  0  0
 12  4  2  0  0  0  0
 14 15  2  0  0  0  0
 15 17  1  0  0  0  0
 17 16  1  0  0  0  0
 18 19  1  0  0  0  0
 19 21  2  0  0  0  0
 21 22  2  0  0  0  0
 22 20  1  0  0  0  0
 22 23  1  0  0  0  0
 23 24  1  0  0  0  0
 25 30  1  0  0  0  0
 25 26  1  0  0  0  0
 26 24  1  6  0  0  0
 26 31  1  0  0  0  0
 27 30  2  0  0  0  0
 29 28  1  0  0  0  0
 30 29  1  0  0  0  0
 31 28  1  0  0  0  0
 32 30  2  0  0  0  0
 33  2  1  0  0  0  0
 34 33  1  0  0  0  0
 35 36  1  1  0  0  0
 35 37  1  0  0  0  0
 35 34  1  0  0  0  0
 38 42  1  1  0  0  0
 38 37  1  0  0  0  0
 39 41  2  0  0  0  0
 41 40  1  0  0  0  0
 41 38  1  0  0  0  0
 42 44  1  0  0  0  0
 43 50  1  0  0  0  0
 44 43  2  0  0  0  0
 45 46  2  0  0  0  0
 45 43  1  0  0  0  0
 47 48  1  0  0  0  0
 48 45  1  0  0  0  0
 50 49  1  6  0  0  0
 50 51  1  0  0  0  0
 51 52  1  0  0  0  0
 52 53  1  0  0  0  0
M  END
>  <MODEL>
1

>  <REMARK>
 VINA RESULT:      -7.1      0.000      0.000
  Name = 
  20 active torsions:
  status: ('A' for Active; 'I' for Inactive)
    1  A    between atoms: C_4  and  C_10
    2  A    between atoms: C_6  and  O_15
    3  A    between atoms: C_7  and  C_10
    4  A    between atoms: C_7  and  C_42
    5  A    between atoms: C_8  and  C_19
    6  A    between atoms: C_9  and  C_14
    7  A    between atoms: C_9  and  C_21
    8  A    between atoms: C_11  and  C_19
    9  A    between atoms: C_11  and  C_39
   10  A    between atoms: C_14  and  C_33
   11  A    between atoms: C_14  and  C_40
   12  A    between atoms: O_15  and  C_16
   13  A    between atoms: C_16  and  C_30
   14  A    between atoms: C_20  and  C_39
   15  A    between atoms: C_21  and  C_28
   16  A    between atoms: C_22  and  C_28
   17  A    between atoms: C_22  and  C_50
   18  A    between atoms: C_32  and  C_51
   19  A    between atoms: C_35  and  C_51
   20  A    between atoms: C_40  and  N_48
                            x       y       z     vdW  Elec       q    Type
                         _______ _______ _______ _____ _____    ______ ____

>  <TORSDO>
F 20

$$$$
=
 OpenBabel11042411493D

 53 55  0  0  1  0  0  0  0  0999 V2000
  190.1760  177.1380  139.4480 C   0  0  0  0  0  0  0  0  0  0  0  0
  189.4300  178.1740  139.0340 C   0  0  0  0  0  3  0  0  0  0  0  0
  192.4740  172.5200  135.1470 C   0  0  0  0  0  3  0  0  0  0  0  0
  191.3860  174.3680  136.9710 C   0  0  0  0  0  0  0  0  0  0  0  0
  193.3070  173.4190  135.8120 C   0  0  0  0  0  3  0  0  0  0  0  0
  192.7960  174.3360  136.7500 C   0  0  0  0  0  0  0  0  0  0  0  0
  193.7520  175.3220  137.3980 C   0  0  1  0  0  3  0  0  0  0  0  0
  192.5370  176.7540  138.5320 C   0  0  0  0  0  2  0  0  0  0  0  0
  191.1040  172.5330  135.3940 C   0  0  0  0  0  3  0  0  0  0  0  0
  191.1010  176.3410  138.5860 C   0  0  0  0  0  0  0  0  0  0  0  0
  190.6560  175.2940  137.8730 C   0  0  0  0  0  3  0  0  0  0  0  0
  190.5700  173.4520  136.2950 C   0  0  0  0  0  3  0  0  0  0  0  0
  193.3520  175.6380  138.6970 O   0  0  0  0  0  0  0  0  0  0  0  0
  195.9540  175.2650  136.5550 O   0  0  0  0  0  0  0  0  0  0  0  0
  195.1840  174.8660  137.4170 C   0  0  0  0  0  0  0  0  0  0  0  0
  196.0880  172.7230  137.8500 O   0  0  0  0  0  1  0  0  0  0  0  0
  195.6660  173.9050  138.4570 C   0  0  0  0  0  2  0  0  0  0  0  0
  190.0370  176.7650  140.8900 C   0  0  0  0  0  2  0  0  0  0  0  0
  191.1240  177.3980  141.6860 C   0  0  0  0  0  3  0  0  0  0  0  0
  191.2130  179.7560  144.2850 O   0  0  0  0  0  1  0  0  0  0  0  0
  190.8530  177.9790  142.8200 C   0  0  0  0  0  0  0  0  0  0  0  0
  190.5880  178.5600  143.9560 C   0  0  0  0  0  0  0  0  0  0  0  0
  189.6360  177.9290  144.9100 C   0  0  0  0  0  2  0  0  0  0  0  0
  188.6310  177.2470  144.1990 O   0  0  0  0  0  0  0  0  0  0  0  0
  186.7540  177.6650  145.7210 C   0  0  0  0  0  2  0  0  0  0  0  0
  187.4060  177.9310  144.3590 C   0  0  2  0  0  3  0  0  0  0  0  0
  184.4450  178.1350  147.0250 O   0  0  0  0  0  0  0  0  0  0  0  0
  185.3330  178.7760  143.1920 C   0  0  0  0  0  2  0  0  0  0  0  0
  184.3860  178.5490  144.3630 C   0  0  0  0  0  2  0  0  0  0  0  0
  185.2870  178.6580  145.8960 S   0  0  0  0  0  0  0  0  0  0  0  0
  186.4490  177.7350  143.1710 C   0  0  0  0  0  2  0  0  0  0  0  0
  185.6650  180.0870  146.1670 O   0  0  0  0  0  0  0  0  0  0  0  0
  189.3980  178.7300  137.6490 C   0  0  0  0  0  2  0  0  0  0  0  0
  188.1280  178.2890  136.9500 C   0  0  0  0  0  2  0  0  0  0  0  0
  188.3680  176.9870  136.2090 C   0  0  2  0  0  3  0  0  0  0  0  0
  189.2210  177.2090  135.1250 O   0  0  0  0  0  1  0  0  0  0  0  0
  187.0400  176.4400  135.7120 C   0  0  0  0  0  2  0  0  0  0  0  0
  186.1090  176.1160  136.8720 C   0  0  2  0  0  3  0  0  0  0  0  0
  186.7470  173.8250  137.1980 O   0  0  0  0  0  1  0  0  0  0  0  0
  184.5280  174.1900  136.7530 O   0  0  0  0  0  0  0  0  0  0  0  0
  185.8240  174.6460  136.9490 C   0  0  0  0  0  0  0  0  0  0  0  0
  184.8170  176.8990  136.7150 C   0  0  0  0  0  2  0  0  0  0  0  0
  183.5370  177.8540  138.5880 C   0  0  0  0  0  0  0  0  0  0  0  0
  184.6190  177.7700  137.8670 N   0  0  0  0  0  0  0  0  0  0  0  0
  182.3380  176.9930  138.3600 C   0  0  0  0  0  0  0  0  0  0  0  0
  181.5070  177.3090  137.4650 O   0  0  0  0  0  0  0  0  0  0  0  0
  180.9230  174.9940  138.9730 C   0  0  0  0  0  1  0  0  0  0  0  0
  182.0910  175.8370  139.1660 N   0  0  0  0  0  2  0  0  0  0  0  0
  184.2590  180.0200  139.3610 O   0  0  0  0  0  1  0  0  0  0  0  0
  183.5540  178.8610  139.7050 C   0  0  1  0  0  3  0  0  0  0  0  0
  182.1620  179.1850  140.2430 C   0  0  0  0  0  2  0  0  0  0  0  0
  181.9280  178.6150  141.6320 C   0  0  0  0  0  2  0  0  0  0  0  0
  180.8280  179.3970  142.3180 C   0  0  0  0  0  1  0  0  0  0  0  0
  1 18  1  0  0  0  0
  2  1  2  0  0  0  0
  3  9  2  0  0  0  0
  3  5  1  0  0  0  0
  4 11  1  0  0  0  0
  5  6  2  0  0  0  0
  6  4  1  0  0  0  0
  6  7  1  0  0  0  0
  7 15  1  1  0  0  0
  7 13  1  0  0  0  0
  8 10  1  0  0  0  0
  8 13  1  0  0  0  0
  9 12  1  0  0  0  0
 10  1  1  0  0  0  0
 11 10  2  0  0  0  0
 12  4  2  0  0  0  0
 14 15  2  0  0  0  0
 15 17  1  0  0  0  0
 16 17  1  0  0  0  0
 18 19  1  0  0  0  0
 19 21  2  0  0  0  0
 21 22  2  0  0  0  0
 22 20  1  0  0  0  0
 22 23  1  0  0  0  0
 24 23  1  0  0  0  0
 25 30  1  0  0  0  0
 26 24  1  6  0  0  0
 26 25  1  0  0  0  0
 28 29  1  0  0  0  0
 29 30  1  0  0  0  0
 30 32  2  0  0  0  0
 30 27  2  0  0  0  0
 31 28  1  0  0  0  0
 31 26  1  0  0  0  0
 33  2  1  0  0  0  0
 34 33  1  0  0  0  0
 35 36  1  6  0  0  0
 35 34  1  0  0  0  0
 37 35  1  0  0  0  0
 38 37  1  6  0  0  0
 38 41  1  0  0  0  0
 40 41  2  0  0  0  0
 41 39  1  0  0  0  0
 42 38  1  0  0  0  0
 42 44  1  0  0  0  0
 43 50  1  0  0  0  0
 44 43  2  0  0  0  0
 45 43  1  0  0  0  0
 45 48  1  0  0  0  0
 46 45  2  0  0  0  0
 47 48  1  0  0  0  0
 50 49  1  6  0  0  0
 50 51  1  0  0  0  0
 51 52  1  0  0  0  0
 52 53  1  0  0  0  0
M  END
>  <MODEL>
2

>  <REMARK>
 VINA RESULT:      -7.1      2.795      9.368
  Name = 
  20 active torsions:
  status: ('A' for Active; 'I' for Inactive)
    1  A    between atoms: C_4  and  C_10
    2  A    between atoms: C_6  and  O_15
    3  A    between atoms: C_7  and  C_10
    4  A    between atoms: C_7  and  C_42
    5  A    between atoms: C_8  and  C_19
    6  A    between atoms: C_9  and  C_14
    7  A    between atoms: C_9  and  C_21
    8  A    between atoms: C_11  and  C_19
    9  A    between atoms: C_11  and  C_39
   10  A    between atoms: C_14  and  C_33
   11  A    between atoms: C_14  and  C_40
   12  A    between atoms: O_15  and  C_16
   13  A    between atoms: C_16  and  C_30
   14  A    between atoms: C_20  and  C_39
   15  A    between atoms: C_21  and  C_28
   16  A    between atoms: C_22  and  C_28
   17  A    between atoms: C_22  and  C_50
   18  A    between atoms: C_32  and  C_51
   19  A    between atoms: C_35  and  C_51
   20  A    between atoms: C_40  and  N_48
                            x       y       z     vdW  Elec       q    Type
                         _______ _______ _______ _____ _____    ______ ____

>  <TORSDO>
F 20

$$$$
=
 OpenBabel11042411493D

 53 55  0  0  1  0  0  0  0  0999 V2000
  186.0090  178.5540  141.1640 C   0  0  0  0  0  0  0  0  0  0  0  0
  184.8100  179.1000  140.9150 C   0  0  0  0  0  3  0  0  0  0  0  0
  188.9470  177.4080  135.2340 C   0  0  0  0  0  3  0  0  0  0  0  0
  187.5800  177.8630  137.6530 C   0  0  0  0  0  0  0  0  0  0  0  0
  189.6120  177.2640  136.4510 C   0  0  0  0  0  3  0  0  0  0  0  0
  188.9470  177.4580  137.6770 C   0  0  0  0  0  0  0  0  0  0  0  0
  189.7460  177.3370  138.9630 C   0  0  1  0  0  3  0  0  0  0  0  0
  188.4480  178.0100  140.5990 C   0  0  0  0  0  2  0  0  0  0  0  0
  187.6020  177.7680  135.2180 C   0  0  0  0  0  3  0  0  0  0  0  0
  187.0450  178.2360  140.1340 C   0  0  0  0  0  0  0  0  0  0  0  0
  186.7290  178.1670  138.8310 C   0  0  0  0  0  3  0  0  0  0  0  0
  186.9310  177.9960  136.4190 C   0  0  0  0  0  3  0  0  0  0  0  0
  188.9560  176.8560  140.0080 O   0  0  0  0  0  0  0  0  0  0  0  0
  190.8680  175.2920  138.6170 O   0  0  0  0  0  0  0  0  0  0  0  0
  190.9800  176.4870  138.8420 C   0  0  0  0  0  0  0  0  0  0  0  0
  192.4920  177.5110  140.3480 O   0  0  0  0  0  1  0  0  0  0  0  0
  192.3390  177.0840  139.0290 C   0  0  0  0  0  2  0  0  0  0  0  0
  186.2990  178.2340  142.5970 C   0  0  0  0  0  2  0  0  0  0  0  0
  185.2890  178.8820  143.4770 C   0  0  0  0  0  3  0  0  0  0  0  0
  184.2480  178.3980  146.7950 O   0  0  0  0  0  1  0  0  0  0  0  0
  185.3530  178.7330  144.7700 C   0  0  0  0  0  0  0  0  0  0  0  0
  185.4140  178.5890  146.0630 C   0  0  0  0  0  0  0  0  0  0  0  0
  186.7280  178.6510  146.7580 C   0  0  0  0  0  2  0  0  0  0  0  0
  187.2980  177.3670  146.8170 O   0  0  0  0  0  0  0  0  0  0  0  0
  188.8070  177.1320  144.8970 C   0  0  0  0  0  2  0  0  0  0  0  0
  188.6430  177.4380  146.3910 C   0  0  2  0  0  3  0  0  0  0  0  0
  190.7530  176.7110  143.0840 O   0  0  0  0  0  0  0  0  0  0  0  0
  191.0510  177.0500  147.0450 C   0  0  0  0  0  2  0  0  0  0  0  0
  191.5230  176.6130  145.6640 C   0  0  0  0  0  2  0  0  0  0  0  0
  190.5040  177.3670  144.4130 S   0  0  0  0  0  0  0  0  0  0  0  0
  189.6010  176.6390  147.2900 C   0  0  0  0  0  2  0  0  0  0  0  0
  190.8110  178.8350  144.3180 O   0  0  0  0  0  0  0  0  0  0  0  0
  184.2960  179.5060  139.5730 C   0  0  0  0  0  2  0  0  0  0  0  0
  183.0500  178.7100  139.2410 C   0  0  0  0  0  2  0  0  0  0  0  0
  183.0330  178.3640  137.7630 C   0  0  2  0  0  3  0  0  0  0  0  0
  181.8340  178.7970  137.1900 O   0  0  0  0  0  1  0  0  0  0  0  0
  183.1670  176.8600  137.5980 C   0  0  0  0  0  2  0  0  0  0  0  0
  182.2090  176.3350  136.5360 C   0  0  2  0  0  3  0  0  0  0  0  0
  181.4990  174.7150  138.1600 O   0  0  0  0  0  1  0  0  0  0  0  0
  179.9780  175.2180  136.5190 O   0  0  0  0  0  0  0  0  0  0  0  0
  181.2180  175.3740  137.1220 C   0  0  0  0  0  0  0  0  0  0  0  0
  183.0040  175.6660  135.4280 C   0  0  0  0  0  2  0  0  0  0  0  0
  183.6110  173.2810  135.4440 C   0  0  0  0  0  0  0  0  0  0  0  0
  182.7250  174.2360  135.4090 N   0  0  0  0  0  0  0  0  0  0  0  0
  185.0770  173.5350  135.5750 C   0  0  0  0  0  0  0  0  0  0  0  0
  185.8410  173.2850  134.6030 O   0  0  0  0  0  0  0  0  0  0  0  0
  187.0630  174.2600  136.9540 C   0  0  0  0  0  1  0  0  0  0  0  0
  185.6380  174.0210  136.7980 N   0  0  0  0  0  2  0  0  0  0  0  0
  183.4140  171.1250  136.5030 O   0  0  0  0  0  1  0  0  0  0  0  0
  183.0820  171.8750  135.3700 C   0  0  1  0  0  3  0  0  0  0  0  0
  181.5860  171.8110  135.0680 C   0  0  0  0  0  2  0  0  0  0  0  0
  180.8340  170.9190  136.0430 C   0  0  0  0  0  2  0  0  0  0  0  0
  179.9620  171.7740  136.9380 C   0  0  0  0  0  1  0  0  0  0  0  0
  1 18  1  0  0  0  0
  2  1  2  0  0  0  0
  3  5  1  0  0  0  0
  4  6  1  0  0  0  0
  4 11  1  0  0  0  0
  5  6  2  0  0  0  0
  6  7  1  0  0  0  0
  7 15  1  6  0  0  0
  7 13  1  0  0  0  0
  9  3  2  0  0  0  0
  9 12  1  0  0  0  0
 10  8  1  0  0  0  0
 10  1  1  0  0  0  0
 11 10  2  0  0  0  0
 12  4  2  0  0  0  0
 13  8  1  0  0  0  0
 14 15  2  0  0  0  0
 15 17  1  0  0  0  0
 17 16  1  0  0  0  0
 18 19  1  0  0  0  0
 19 21  2  0  0  0  0
 21 22  2  0  0  0  0
 22 23  1  0  0  0  0
 22 20  1  0  0  0  0
 23 24  1  0  0  0  0
 25 26  1  0  0  0  0
 26 24  1  1  0  0  0
 26 31  1  0  0  0  0
 27 30  2  0  0  0  0
 28 31  1  0  0  0  0
 29 28  1  0  0  0  0
 30 25  1  0  0  0  0
 30 29  1  0  0  0  0
 32 30  2  0  0  0  0
 33  2  1  0  0  0  0
 34 33  1  0  0  0  0
 35 36  1  1  0  0  0
 35 34  1  0  0  0  0
 37 35  1  0  0  0  0
 38 42  1  6  0  0  0
 38 41  1  0  0  0  0
 38 37  1  0  0  0  0
 40 41  2  0  0  0  0
 41 39  1  0  0  0  0
 43 45  1  0  0  0  0
 44 42  1  0  0  0  0
 44 43  2  0  0  0  0
 45 48  1  0  0  0  0
 46 45  2  0  0  0  0
 48 47  1  0  0  0  0
 50 43  1  0  0  0  0
 50 49  1  1  0  0  0
 51 50  1  0  0  0  0
 51 52  1  0  0  0  0
 52 53  1  0  0  0  0
M  END
>  <MODEL>
3

>  <REMARK>
 VINA RESULT:      -6.8      3.193      7.466
  Name = 
  20 active torsions:
  status: ('A' for Active; 'I' for Inactive)
    1  A    between atoms: C_4  and  C_10
    2  A    between atoms: C_6  and  O_15
    3  A    between atoms: C_7  and  C_10
    4  A    between atoms: C_7  and  C_42
    5  A    between atoms: C_8  and  C_19
    6  A    between atoms: C_9  and  C_14
    7  A    between atoms: C_9  and  C_21
    8  A    between atoms: C_11  and  C_19
    9  A    between atoms: C_11  and  C_39
   10  A    between atoms: C_14  and  C_33
   11  A    between atoms: C_14  and  C_40
   12  A    between atoms: O_15  and  C_16
   13  A    between atoms: C_16  and  C_30
   14  A    between atoms: C_20  and  C_39
   15  A    between atoms: C_21  and  C_28
   16  A    between atoms: C_22  and  C_28
   17  A    between atoms: C_22  and  C_50
   18  A    between atoms: C_32  and  C_51
   19  A    between atoms: C_35  and  C_51
   20  A    between atoms: C_40  and  N_48
                            x       y       z     vdW  Elec       q    Type
                         _______ _______ _______ _____ _____    ______ ____

>  <TORSDO>
F 20

$$$$
=
 OpenBabel11042411493D

 53 55  0  0  1  0  0  0  0  0999 V2000
  190.7140  175.9050  136.5290 C   0  0  0  0  0  0  0  0  0  0  0  0
  190.0960  176.4920  137.5650 C   0  0  0  0  0  3  0  0  0  0  0  0
  194.8720  170.6440  136.1570 C   0  0  0  0  0  3  0  0  0  0  0  0
  193.0110  172.7510  136.3060 C   0  0  0  0  0  0  0  0  0  0  0  0
  195.2480  171.8710  136.7020 C   0  0  0  0  0  3  0  0  0  0  0  0
  194.3310  172.9340  136.8150 C   0  0  0  0  0  0  0  0  0  0  0  0
  194.8220  174.2600  137.3680 C   0  0  1  0  0  3  0  0  0  0  0  0
  193.2060  175.7170  137.0900 C   0  0  0  0  0  2  0  0  0  0  0  0
  193.5720  170.4600  135.6960 C   0  0  0  0  0  3  0  0  0  0  0  0
  191.9450  175.0640  136.6220 C   0  0  0  0  0  0  0  0  0  0  0  0
  191.9260  173.7640  136.2850 C   0  0  0  0  0  3  0  0  0  0  0  0
  192.6550  171.5080  135.7690 C   0  0  0  0  0  3  0  0  0  0  0  0
  193.8110  174.9260  138.0620 O   0  0  0  0  0  0  0  0  0  0  0  0
  195.8960  173.9200  139.4400 O   0  0  0  0  0  0  0  0  0  0  0  0
  196.0360  174.1470  138.2480 C   0  0  0  0  0  0  0  0  0  0  0  0
  197.9120  175.5800  138.0870 O   0  0  0  0  0  1  0  0  0  0  0  0
  197.4080  174.3440  137.6850 C   0  0  0  0  0  2  0  0  0  0  0  0
  190.1050  176.1410  135.1830 C   0  0  0  0  0  2  0  0  0  0  0  0
  189.4640  177.4840  135.1440 C   0  0  0  0  0  3  0  0  0  0  0  0
  186.1910  178.6310  134.5980 O   0  0  0  0  0  1  0  0  0  0  0  0
  188.1720  177.5980  135.2650 C   0  0  0  0  0  0  0  0  0  0  0  0
  186.8800  177.7180  135.3860 C   0  0  0  0  0  0  0  0  0  0  0  0
  186.1480  176.8940  136.3860 C   0  0  0  0  0  2  0  0  0  0  0  0
  184.7670  176.9430  136.1250 O   0  0  0  0  0  0  0  0  0  0  0  0
  184.9730  177.9080  138.3710 C   0  0  0  0  0  2  0  0  0  0  0  0
  184.1440  177.7680  137.0880 C   0  0  2  0  0  3  0  0  0  0  0  0
  184.7590  178.9140  140.8600 O   0  0  0  0  0  0  0  0  0  0  0  0
  181.9400  178.5120  138.0700 C   0  0  0  0  0  2  0  0  0  0  0  0
  182.4470  178.6740  139.4970 C   0  0  0  0  0  2  0  0  0  0  0  0
  184.1860  179.0590  139.4780 S   0  0  0  0  0  0  0  0  0  0  0  0
  182.6760  177.3880  137.3440 C   0  0  0  0  0  2  0  0  0  0  0  0
  184.3940  180.4640  138.9890 O   0  0  0  0  0  0  0  0  0  0  0  0
  190.5120  176.4020  138.9960 C   0  0  0  0  0  2  0  0  0  0  0  0
  190.0790  177.6530  139.7340 C   0  0  0  0  0  2  0  0  0  0  0  0
  188.7950  177.3870  140.4980 C   0  0  2  0  0  3  0  0  0  0  0  0
  187.9840  178.5250  140.4720 O   0  0  0  0  0  1  0  0  0  0  0  0
  189.1320  177.0320  141.9370 C   0  0  0  0  0  2  0  0  0  0  0  0
  190.3520  177.8020  142.4230 C   0  0  2  0  0  3  0  0  0  0  0  0
  191.5490  175.9920  143.4510 O   0  0  0  0  0  1  0  0  0  0  0  0
  192.6380  177.0670  141.7430 O   0  0  0  0  0  0  0  0  0  0  0  0
  191.5410  176.9010  142.5770 C   0  0  0  0  0  0  0  0  0  0  0  0
  190.0260  178.4800  143.7430 C   0  0  0  0  0  2  0  0  0  0  0  0
  188.3110  177.7190  145.3360 C   0  0  0  0  0  0  0  0  0  0  0  0
  188.6710  178.1390  144.1560 N   0  0  0  0  0  0  0  0  0  0  0  0
  189.2640  177.5890  146.4790 C   0  0  0  0  0  0  0  0  0  0  0  0
  189.0930  178.2890  147.5140 O   0  0  0  0  0  0  0  0  0  0  0  0
  191.3420  176.5820  147.4990 C   0  0  0  0  0  1  0  0  0  0  0  0
  190.3930  176.7140  146.4060 N   0  0  0  0  0  2  0  0  0  0  0  0
  186.3480  177.8620  146.7270 O   0  0  0  0  0  1  0  0  0  0  0  0
  186.8550  177.3870  145.5120 C   0  0  1  0  0  3  0  0  0  0  0  0
  185.9910  177.8240  144.3310 C   0  0  0  0  0  2  0  0  0  0  0  0
  185.2280  179.1080  144.6110 C   0  0  0  0  0  2  0  0  0  0  0  0
  183.7420  178.8180  144.6210 C   0  0  0  0  0  1  0  0  0  0  0  0
  1 10  1  0  0  0  0
  1  2  2  0  0  0  0
  2 33  1  0  0  0  0
  3  5  1  0  0  0  0
  4  6  1  0  0  0  0
  5  6  2  0  0  0  0
  6  7  1  0  0  0  0
  7 13  1  0  0  0  0
  7 15  1  1  0  0  0
  8 13  1  0  0  0  0
  9 12  1  0  0  0  0
  9  3  2  0  0  0  0
 10  8  1  0  0  0  0
 11  4  1  0  0  0  0
 11 10  2  0  0  0  0
 12  4  2  0  0  0  0
 15 14  2  0  0  0  0
 17 16  1  0  0  0  0
 17 15  1  0  0  0  0
 18  1  1  0  0  0  0
 19 18  1  0  0  0  0
 19 21  2  0  0  0  0
 20 22  1  0  0  0  0
 21 22  2  0  0  0  0
 22 23  1  0  0  0  0
 24 23  1  0  0  0  0
 25 30  1  0  0  0  0
 26 24  1  6  0  0  0
 26 31  1  0  0  0  0
 26 25  1  0  0  0  0
 28 29  1  0  0  0  0
 30 29  1  0  0  0  0
 30 27  2  0  0  0  0
 31 28  1  0  0  0  0
 32 30  2  0  0  0  0
 33 34  1  0  0  0  0
 34 35  1  0  0  0  0
 35 36  1  1  0  0  0
 35 37  1  0  0  0  0
 38 37  1  1  0  0  0
 38 41  1  0  0  0  0
 38 42  1  0  0  0  0
 40 41  2  0  0  0  0
 41 39  1  0  0  0  0
 42 44  1  0  0  0  0
 43 50  1  0  0  0  0
 43 45  1  0  0  0  0
 44 43  2  0  0  0  0
 45 46  2  0  0  0  0
 48 45  1  0  0  0  0
 48 47  1  0  0  0  0
 50 49  1  1  0  0  0
 51 52  1  0  0  0  0
 51 50  1  0  0  0  0
 52 53  1  0  0  0  0
M  END
>  <MODEL>
4

>  <REMARK>
 VINA RESULT:      -6.8      3.219     11.038
  Name = 
  20 active torsions:
  status: ('A' for Active; 'I' for Inactive)
    1  A    between atoms: C_4  and  C_10
    2  A    between atoms: C_6  and  O_15
    3  A    between atoms: C_7  and  C_10
    4  A    between atoms: C_7  and  C_42
    5  A    between atoms: C_8  and  C_19
    6  A    between atoms: C_9  and  C_14
    7  A    between atoms: C_9  and  C_21
    8  A    between atoms: C_11  and  C_19
    9  A    between atoms: C_11  and  C_39
   10  A    between atoms: C_14  and  C_33
   11  A    between atoms: C_14  and  C_40
   12  A    between atoms: O_15  and  C_16
   13  A    between atoms: C_16  and  C_30
   14  A    between atoms: C_20  and  C_39
   15  A    between atoms: C_21  and  C_28
   16  A    between atoms: C_22  and  C_28
   17  A    between atoms: C_22  and  C_50
   18  A    between atoms: C_32  and  C_51
   19  A    between atoms: C_35  and  C_51
   20  A    between atoms: C_40  and  N_48
                            x       y       z     vdW  Elec       q    Type
                         _______ _______ _______ _____ _____    ______ ____

>  <TORSDO>
F 20

$$$$
=
 OpenBabel11042411493D

 53 55  0  0  1  0  0  0  0  0999 V2000
  188.2940  177.9230  140.7290 C   0  0  0  0  0  0  0  0  0  0  0  0
  187.1130  178.3430  140.2520 C   0  0  0  0  0  3  0  0  0  0  0  0
  187.6390  177.4480  147.3970 C   0  0  0  0  0  3  0  0  0  0  0  0
  187.8000  177.7500  144.6020 C   0  0  0  0  0  0  0  0  0  0  0  0
  188.8140  177.1130  146.7230 C   0  0  0  0  0  3  0  0  0  0  0  0
  188.9330  177.2800  145.3310 C   0  0  0  0  0  0  0  0  0  0  0  0
  190.2220  176.8450  144.6550 C   0  0  1  0  0  3  0  0  0  0  0  0
  189.8940  176.9720  142.4900 C   0  0  0  0  0  2  0  0  0  0  0  0
  186.5500  177.9410  146.6840 C   0  0  0  0  0  3  0  0  0  0  0  0
  188.5920  177.6300  142.1640 C   0  0  0  0  0  0  0  0  0  0  0  0
  187.7130  177.9380  143.1320 C   0  0  0  0  0  3  0  0  0  0  0  0
  186.6330  178.0850  145.3000 C   0  0  0  0  0  3  0  0  0  0  0  0
  190.5060  177.6410  143.5450 O   0  0  0  0  0  0  0  0  0  0  0  0
  191.9480  177.8720  145.8910 O   0  0  0  0  0  0  0  0  0  0  0  0
  191.4160  176.8200  145.5680 C   0  0  0  0  0  0  0  0  0  0  0  0
  192.3430  175.6370  147.3960 O   0  0  0  0  0  1  0  0  0  0  0  0
  191.9780  175.5230  146.0550 C   0  0  0  0  0  2  0  0  0  0  0  0
  189.3870  177.7580  139.7210 C   0  0  0  0  0  2  0  0  0  0  0  0
  188.8690  177.0480  138.5200 C   0  0  0  0  0  3  0  0  0  0  0  0
  189.9690  176.7000  135.2040 O   0  0  0  0  0  1  0  0  0  0  0  0
  189.6570  176.8020  137.5130 C   0  0  0  0  0  0  0  0  0  0  0  0
  190.4410  176.5520  136.5030 C   0  0  0  0  0  0  0  0  0  0  0  0
  191.8340  176.0850  136.7400 C   0  0  0  0  0  2  0  0  0  0  0  0
  191.9320  174.7100  136.4570 O   0  0  0  0  0  0  0  0  0  0  0  0
  193.8020  174.8710  138.0360 C   0  0  0  0  0  2  0  0  0  0  0  0
  193.2450  174.2730  136.7390 C   0  0  2  0  0  3  0  0  0  0  0  0
  196.1140  175.0160  139.4100 O   0  0  0  0  0  0  0  0  0  0  0  0
  195.4630  173.5910  135.7450 C   0  0  0  0  0  2  0  0  0  0  0  0
  196.3230  174.1670  136.8610 C   0  0  0  0  0  2  0  0  0  0  0  0
  195.4030  174.1760  138.3870 S   0  0  0  0  0  0  0  0  0  0  0  0
  194.1960  174.4170  135.5390 C   0  0  0  0  0  2  0  0  0  0  0  0
  195.2500  172.7730  138.9010 O   0  0  0  0  0  0  0  0  0  0  0  0
  185.8780  178.5780  141.0580 C   0  0  0  0  0  2  0  0  0  0  0  0
  184.8380  179.2770  140.2060 C   0  0  0  0  0  2  0  0  0  0  0  0
  183.6970  178.3260  139.8950 C   0  0  2  0  0  3  0  0  0  0  0  0
  183.6100  177.3480  140.8890 O   0  0  0  0  0  1  0  0  0  0  0  0
  183.9460  177.6670  138.5490 C   0  0  0  0  0  2  0  0  0  0  0  0
  182.6420  177.4380  137.7980 C   0  0  2  0  0  3  0  0  0  0  0  0
  180.6340  178.2550  138.8310 O   0  0  0  0  0  1  0  0  0  0  0  0
  181.8200  179.7860  137.6040 O   0  0  0  0  0  0  0  0  0  0  0  0
  181.6370  178.5060  138.1090 C   0  0  0  0  0  0  0  0  0  0  0  0
  182.0880  176.0690  138.1580 C   0  0  0  0  0  2  0  0  0  0  0  0
  182.9470  173.9310  137.2920 C   0  0  0  0  0  0  0  0  0  0  0  0
  183.1060  175.0490  137.9430 N   0  0  0  0  0  0  0  0  0  0  0  0
  181.6730  173.5650  136.6020 C   0  0  0  0  0  0  0  0  0  0  0  0
  181.4770  173.9440  135.4160 O   0  0  0  0  0  0  0  0  0  0  0  0
  179.3970  172.4730  136.6330 C   0  0  0  0  0  1  0  0  0  0  0  0
  180.6510  172.8260  137.2780 N   0  0  0  0  0  2  0  0  0  0  0  0
  183.7630  171.6640  137.2740 O   0  0  0  0  0  1  0  0  0  0  0  0
  184.1360  173.0120  137.2400 C   0  0  1  0  0  3  0  0  0  0  0  0
  185.0740  173.3090  136.0720 C   0  0  0  0  0  2  0  0  0  0  0  0
  186.5330  173.0690  136.4220 C   0  0  0  0  0  2  0  0  0  0  0  0
  187.3270  174.3320  136.1640 C   0  0  0  0  0  1  0  0  0  0  0  0
  1 10  1  0  0  0  0
  2  1  2  0  0  0  0
  2 33  1  0  0  0  0
  4 12  2  0  0  0  0
  4  6  1  0  0  0  0
  5  3  1  0  0  0  0
  6  5  2  0  0  0  0
  7  6  1  0  0  0  0
  7 15  1  1  0  0  0
  8 13  1  0  0  0  0
  9  3  2  0  0  0  0
 10  8  1  0  0  0  0
 10 11  2  0  0  0  0
 11  4  1  0  0  0  0
 12  9  1  0  0  0  0
 13  7  1  0  0  0  0
 15 14  2  0  0  0  0
 15 17  1  0  0  0  0
 17 16  1  0  0  0  0
 18  1  1  0  0  0  0
 19 18  1  0  0  0  0
 20 22  1  0  0  0  0
 21 19  2  0  0  0  0
 22 23  1  0  0  0  0
 22 21  2  0  0  0  0
 24 23  1  0  0  0  0
 25 30  1  0  0  0  0
 26 24  1  6  0  0  0
 26 25  1  0  0  0  0
 28 29  1  0  0  0  0
 29 30  1  0  0  0  0
 30 32  2  0  0  0  0
 30 27  2  0  0  0  0
 31 28  1  0  0  0  0
 31 26  1  0  0  0  0
 34 33  1  0  0  0  0
 35 34  1  0  0  0  0
 35 36  1  1  0  0  0
 37 35  1  0  0  0  0
 38 41  1  0  0  0  0
 38 42  1  1  0  0  0
 38 37  1  0  0  0  0
 40 41  2  0  0  0  0
 41 39  1  0  0  0  0
 43 44  2  0  0  0  0
 44 42  1  0  0  0  0
 45 48  1  0  0  0  0
 45 43  1  0  0  0  0
 46 45  2  0  0  0  0
 47 48  1  0  0  0  0
 50 49  1  6  0  0  0
 50 43  1  0  0  0  0
 51 52  1  0  0  0  0
 51 50  1  0  0  0  0
 53 52  1  0  0  0  0
M  END
>  <MODEL>
5

>  <REMARK>
 VINA RESULT:      -6.5      3.401     10.064
  Name = 
  20 active torsions:
  status: ('A' for Active; 'I' for Inactive)
    1  A    between atoms: C_4  and  C_10
    2  A    between atoms: C_6  and  O_15
    3  A    between atoms: C_7  and  C_10
    4  A    between atoms: C_7  and  C_42
    5  A    between atoms: C_8  and  C_19
    6  A    between atoms: C_9  and  C_14
    7  A    between atoms: C_9  and  C_21
    8  A    between atoms: C_11  and  C_19
    9  A    between atoms: C_11  and  C_39
   10  A    between atoms: C_14  and  C_33
   11  A    between atoms: C_14  and  C_40
   12  A    between atoms: O_15  and  C_16
   13  A    between atoms: C_16  and  C_30
   14  A    between atoms: C_20  and  C_39
   15  A    between atoms: C_21  and  C_28
   16  A    between atoms: C_22  and  C_28
   17  A    between atoms: C_22  and  C_50
   18  A    between atoms: C_32  and  C_51
   19  A    between atoms: C_35  and  C_51
   20  A    between atoms: C_40  and  N_48
                            x       y       z     vdW  Elec       q    Type
                         _______ _______ _______ _____ _____    ______ ____

>  <TORSDO>
F 20

$$$$
=
 OpenBabel11042411493D

 53 55  0  0  1  0  0  0  0  0999 V2000
  185.5770  178.6320  139.7600 C   0  0  0  0  0  0  0  0  0  0  0  0
  186.1130  178.8940  140.9620 C   0  0  0  0  0  3  0  0  0  0  0  0
  179.5600  181.0110  137.9600 C   0  0  0  0  0  3  0  0  0  0  0  0
  182.1250  180.1580  138.7450 C   0  0  0  0  0  0  0  0  0  0  0  0
  179.7630  179.6950  138.3720 C   0  0  0  0  0  3  0  0  0  0  0  0
  181.0290  179.2470  138.7970 C   0  0  0  0  0  0  0  0  0  0  0  0
  181.1910  177.7860  139.1810 C   0  0  1  0  0  3  0  0  0  0  0  0
  183.3350  177.4260  139.4710 C   0  0  0  0  0  2  0  0  0  0  0  0
  180.6270  181.9050  137.9460 C   0  0  0  0  0  3  0  0  0  0  0  0
  184.1210  178.6980  139.4300 C   0  0  0  0  0  0  0  0  0  0  0  0
  183.5370  179.8600  139.0960 C   0  0  0  0  0  3  0  0  0  0  0  0
  181.8960  181.4760  138.3330 C   0  0  0  0  0  3  0  0  0  0  0  0
  182.1540  177.6290  140.1780 O   0  0  0  0  0  0  0  0  0  0  0  0
  179.3210  176.3930  138.8310 O   0  0  0  0  0  0  0  0  0  0  0  0
  179.9150  177.1200  139.6130 C   0  0  0  0  0  0  0  0  0  0  0  0
  179.3260  176.1750  141.7010 O   0  0  0  0  0  1  0  0  0  0  0  0
  179.3490  177.3660  140.9760 C   0  0  0  0  0  2  0  0  0  0  0  0
  186.5390  178.2280  138.6870 C   0  0  0  0  0  2  0  0  0  0  0  0
  187.9330  178.2970  139.2020 C   0  0  0  0  0  3  0  0  0  0  0  0
  190.5660  175.9920  139.4860 O   0  0  0  0  0  1  0  0  0  0  0  0
  188.8020  177.3850  138.8680 C   0  0  0  0  0  0  0  0  0  0  0  0
  189.6750  176.4760  138.5360 C   0  0  0  0  0  0  0  0  0  0  0  0
  189.7320  175.9770  137.1360 C   0  0  0  0  0  2  0  0  0  0  0  0
  190.8190  176.5640  136.4640 O   0  0  0  0  0  0  0  0  0  0  0  0
  193.2080  176.1590  136.8480 C   0  0  0  0  0  2  0  0  0  0  0  0
  191.8610  175.6160  136.3540 C   0  0  2  0  0  3  0  0  0  0  0  0
  195.8110  175.4690  136.8990 O   0  0  0  0  0  0  0  0  0  0  0  0
  192.7870  173.6970  135.0010 C   0  0  0  0  0  2  0  0  0  0  0  0
  194.2540  174.0240  135.2400 C   0  0  0  0  0  2  0  0  0  0  0  0
  194.4360  174.8710  136.7970 S   0  0  0  0  0  0  0  0  0  0  0  0
  191.9340  174.9620  134.9640 C   0  0  0  0  0  2  0  0  0  0  0  0
  194.2170  173.9100  137.9320 O   0  0  0  0  0  0  0  0  0  0  0  0
  185.3610  179.3150  142.1800 C   0  0  0  0  0  2  0  0  0  0  0  0
  185.2330  178.1430  143.1320 C   0  0  0  0  0  2  0  0  0  0  0  0
  186.5360  177.9380  143.8830 C   0  0  2  0  0  3  0  0  0  0  0  0
  187.4980  177.4020  143.0250 O   0  0  0  0  0  1  0  0  0  0  0  0
  186.3000  176.9880  145.0460 C   0  0  0  0  0  2  0  0  0  0  0  0
  186.6600  177.6430  146.3730 C   0  0  2  0  0  3  0  0  0  0  0  0
  184.4250  178.2660  146.9900 O   0  0  0  0  0  1  0  0  0  0  0  0
  185.9670  179.9630  146.9760 O   0  0  0  0  0  0  0  0  0  0  0  0
  185.6150  178.6330  146.7940 C   0  0  0  0  0  0  0  0  0  0  0  0
  188.0130  178.3220  146.2490 C   0  0  0  0  0  2  0  0  0  0  0  0
  190.1710  177.1420  146.1510 C   0  0  0  0  0  0  0  0  0  0  0  0
  189.0590  177.4430  146.7580 N   0  0  0  0  0  0  0  0  0  0  0  0
  190.5640  177.7280  144.8340 C   0  0  0  0  0  0  0  0  0  0  0  0
  190.2560  178.9210  144.5680 O   0  0  0  0  0  0  0  0  0  0  0  0
  191.6270  177.4900  142.5570 C   0  0  0  0  0  1  0  0  0  0  0  0
  191.2490  176.9470  143.8500 N   0  0  0  0  0  2  0  0  0  0  0  0
  192.0250  175.6090  145.9960 O   0  0  0  0  0  1  0  0  0  0  0  0
  191.0800  176.1750  146.8590 C   0  0  1  0  0  3  0  0  0  0  0  0
  191.7350  176.7680  148.1040 C   0  0  0  0  0  2  0  0  0  0  0  0
  192.9640  175.9880  148.5430 C   0  0  0  0  0  2  0  0  0  0  0  0
  193.5720  176.6510  149.7610 C   0  0  0  0  0  1  0  0  0  0  0  0
  1  2  2  0  0  0  0
  2 33  1  0  0  0  0
  3  5  1  0  0  0  0
  4  6  1  0  0  0  0
  4 11  1  0  0  0  0
  5  6  2  0  0  0  0
  6  7  1  0  0  0  0
  7 15  1  1  0  0  0
  7 13  1  0  0  0  0
  8 13  1  0  0  0  0
  9  3  2  0  0  0  0
  9 12  1  0  0  0  0
 10  8  1  0  0  0  0
 10  1  1  0  0  0  0
 11 10  2  0  0  0  0
 12  4  2  0  0  0  0
 14 15  2  0  0  0  0
 15 17  1  0  0  0  0
 17 16  1  0  0  0  0
 18 19  1  0  0  0  0
 18  1  1  0  0  0  0
 21 19  2  0  0  0  0
 22 21  2  0  0  0  0
 22 20  1  0  0  0  0
 23 22  1  0  0  0  0
 24 23  1  0  0  0  0
 26 24  1  6  0  0  0
 26 25  1  0  0  0  0
 28 29  1  0  0  0  0
 29 30  1  0  0  0  0
 30 25  1  0  0  0  0
 30 27  2  0  0  0  0
 30 32  2  0  0  0  0
 31 28  1  0  0  0  0
 31 26  1  0  0  0  0
 33 34  1  0  0  0  0
 34 35  1  0  0  0  0
 35 36  1  6  0  0  0
 35 37  1  0  0  0  0
 38 37  1  6  0  0  0
 38 41  1  0  0  0  0
 41 40  2  0  0  0  0
 41 39  1  0  0  0  0
 42 38  1  0  0  0  0
 42 44  1  0  0  0  0
 43 44  2  0  0  0  0
 43 50  1  0  0  0  0
 45 43  1  0  0  0  0
 46 45  2  0  0  0  0
 47 48  1  0  0  0  0
 48 45  1  0  0  0  0
 50 49  1  6  0  0  0
 50 51  1  0  0  0  0
 51 52  1  0  0  0  0
 52 53  1  0  0  0  0
M  END
>  <MODEL>
6

>  <REMARK>
 VINA RESULT:      -6.3      2.714      7.989
  Name = 
  20 active torsions:
  status: ('A' for Active; 'I' for Inactive)
    1  A    between atoms: C_4  and  C_10
    2  A    between atoms: C_6  and  O_15
    3  A    between atoms: C_7  and  C_10
    4  A    between atoms: C_7  and  C_42
    5  A    between atoms: C_8  and  C_19
    6  A    between atoms: C_9  and  C_14
    7  A    between atoms: C_9  and  C_21
    8  A    between atoms: C_11  and  C_19
    9  A    between atoms: C_11  and  C_39
   10  A    between atoms: C_14  and  C_33
   11  A    between atoms: C_14  and  C_40
   12  A    between atoms: O_15  and  C_16
   13  A    between atoms: C_16  and  C_30
   14  A    between atoms: C_20  and  C_39
   15  A    between atoms: C_21  and  C_28
   16  A    between atoms: C_22  and  C_28
   17  A    between atoms: C_22  and  C_50
   18  A    between atoms: C_32  and  C_51
   19  A    between atoms: C_35  and  C_51
   20  A    between atoms: C_40  and  N_48
                            x       y       z     vdW  Elec       q    Type
                         _______ _______ _______ _____ _____    ______ ____

>  <TORSDO>
F 20

$$$$
=
 OpenBabel11042411493D

 53 55  0  0  1  0  0  0  0  0999 V2000
  186.7800  178.2740  139.7250 C   0  0  0  0  0  0  0  0  0  0  0  0
  187.8150  178.2410  140.5780 C   0  0  0  0  0  3  0  0  0  0  0  0
  181.2260  178.9990  143.4320 C   0  0  0  0  0  3  0  0  0  0  0  0
  183.6220  178.6300  141.9990 C   0  0  0  0  0  0  0  0  0  0  0  0
  181.2100  178.9680  142.0380 C   0  0  0  0  0  3  0  0  0  0  0  0
  182.3870  178.7570  141.2960 C   0  0  0  0  0  0  0  0  0  0  0  0
  182.3050  178.7890  139.7790 C   0  0  1  0  0  3  0  0  0  0  0  0
  184.3620  178.7380  139.0170 C   0  0  0  0  0  2  0  0  0  0  0  0
  182.4290  178.8380  144.1140 C   0  0  0  0  0  3  0  0  0  0  0  0
  185.3510  178.4840  140.1100 C   0  0  0  0  0  0  0  0  0  0  0  0
  184.9670  178.4580  141.3960 C   0  0  0  0  0  3  0  0  0  0  0  0
  183.6130  178.6590  143.4000 C   0  0  0  0  0  3  0  0  0  0  0  0
  183.2430  177.9310  139.2030 O   0  0  0  0  0  0  0  0  0  0  0  0
  180.5060  177.3360  139.3190 O   0  0  0  0  0  0  0  0  0  0  0  0
  180.9410  178.4740  139.2320 C   0  0  0  0  0  0  0  0  0  0  0  0
  180.3720  180.7690  139.1440 O   0  0  0  0  0  1  0  0  0  0  0  0
  180.1290  179.5310  138.5520 C   0  0  0  0  0  2  0  0  0  0  0  0
  187.1120  178.0650  138.2810 C   0  0  0  0  0  2  0  0  0  0  0  0
  188.5760  177.8470  138.1230 C   0  0  0  0  0  3  0  0  0  0  0  0
  190.6340  175.0070  137.9660 O   0  0  0  0  0  1  0  0  0  0  0  0
  189.0280  176.6830  137.7500 C   0  0  0  0  0  0  0  0  0  0  0  0
  189.4860  175.5220  137.3760 C   0  0  0  0  0  0  0  0  0  0  0  0
  188.7940  174.7610  136.3010 C   0  0  0  0  0  2  0  0  0  0  0  0
  188.2200  173.5940  136.8370 O   0  0  0  0  0  0  0  0  0  0  0  0
  185.9640  174.4810  137.2140 C   0  0  0  0  0  2  0  0  0  0  0  0
  186.8680  173.5180  136.4340 C   0  0  2  0  0  3  0  0  0  0  0  0
  183.3500  175.0410  137.5400 O   0  0  0  0  0  0  0  0  0  0  0  0
  185.0360  171.9980  135.5930 C   0  0  0  0  0  2  0  0  0  0  0  0
  183.8970  172.7010  136.3200 C   0  0  0  0  0  2  0  0  0  0  0  0
  184.3080  174.4180  136.5640 S   0  0  0  0  0  0  0  0  0  0  0  0
  186.3350  172.0760  136.3900 C   0  0  0  0  0  2  0  0  0  0  0  0
  184.2440  175.1510  135.2540 O   0  0  0  0  0  0  0  0  0  0  0  0
  187.7360  178.4250  142.0570 C   0  0  0  0  0  2  0  0  0  0  0  0
  188.9110  177.7350  142.7210 C   0  0  0  0  0  2  0  0  0  0  0  0
  188.4160  176.7850  143.7960 C   0  0  2  0  0  3  0  0  0  0  0  0
  187.9430  175.6090  143.2080 O   0  0  0  0  0  1  0  0  0  0  0  0
  187.2980  177.4520  144.5790 C   0  0  0  0  0  2  0  0  0  0  0  0
  187.6310  177.5230  146.0630 C   0  0  2  0  0  3  0  0  0  0  0  0
  186.7930  178.8780  147.8590 O   0  0  0  0  0  1  0  0  0  0  0  0
  185.2160  178.0400  146.4210 O   0  0  0  0  0  0  0  0  0  0  0  0
  186.5320  178.1850  146.8390 C   0  0  0  0  0  0  0  0  0  0  0  0
  188.9390  178.2730  146.2510 C   0  0  0  0  0  2  0  0  0  0  0  0
  190.9370  176.8770  146.5880 C   0  0  0  0  0  0  0  0  0  0  0  0
  189.8660  177.4690  147.0350 N   0  0  0  0  0  0  0  0  0  0  0  0
  191.4050  177.0010  145.1750 C   0  0  0  0  0  0  0  0  0  0  0  0
  191.6190  175.9610  144.4960 O   0  0  0  0  0  0  0  0  0  0  0  0
  192.1270  178.4280  143.2210 C   0  0  0  0  0  1  0  0  0  0  0  0
  191.6560  178.2820  144.5880 N   0  0  0  0  0  2  0  0  0  0  0  0
  192.6350  175.2080  146.9620 O   0  0  0  0  0  1  0  0  0  0  0  0
  191.7160  176.0620  147.5830 C   0  0  1  0  0  3  0  0  0  0  0  0
  192.3770  176.9090  148.6680 C   0  0  0  0  0  2  0  0  0  0  0  0
  193.5570  176.2070  149.3180 C   0  0  0  0  0  2  0  0  0  0  0  0
  194.1880  177.1260  150.3430 C   0  0  0  0  0  1  0  0  0  0  0  0
  1 10  1  0  0  0  0
  1  2  2  0  0  0  0
  2 33  1  0  0  0  0
  3  9  1  0  0  0  0
  4 12  1  0  0  0  0
  5  3  2  0  0  0  0
  6  4  2  0  0  0  0
  6  5  1  0  0  0  0
  7 15  1  1  0  0  0
  7  6  1  0  0  0  0
  8 13  1  0  0  0  0
  8 10  1  0  0  0  0
 10 11  2  0  0  0  0
 11  4  1  0  0  0  0
 12  9  2  0  0  0  0
 13  7  1  0  0  0  0
 15 14  2  0  0  0  0
 17 16  1  0  0  0  0
 17 15  1  0  0  0  0
 18  1  1  0  0  0  0
 19 18  1  0  0  0  0
 21 19  2  0  0  0  0
 22 21  2  0  0  0  0
 22 20  1  0  0  0  0
 23 24  1  0  0  0  0
 23 22  1  0  0  0  0
 26 24  1  1  0  0  0
 26 25  1  0  0  0  0
 28 29  1  0  0  0  0
 28 31  1  0  0  0  0
 29 30  1  0  0  0  0
 30 25  1  0  0  0  0
 30 27  2  0  0  0  0
 31 26  1  0  0  0  0
 32 30  2  0  0  0  0
 33 34  1  0  0  0  0
 34 35  1  0  0  0  0
 35 36  1  6  0  0  0
 35 37  1  0  0  0  0
 38 37  1  6  0  0  0
 38 42  1  0  0  0  0
 38 41  1  0  0  0  0
 40 41  2  0  0  0  0
 41 39  1  0  0  0  0
 42 44  1  0  0  0  0
 43 44  2  0  0  0  0
 43 50  1  0  0  0  0
 45 43  1  0  0  0  0
 46 45  2  0  0  0  0
 47 48  1  0  0  0  0
 48 45  1  0  0  0  0
 50 49  1  6  0  0  0
 50 51  1  0  0  0  0
 51 52  1  0  0  0  0
 52 53  1  0  0  0  0
M  END
>  <MODEL>
7

>  <REMARK>
 VINA RESULT:      -6.2      3.323      8.439
  Name = 
  20 active torsions:
  status: ('A' for Active; 'I' for Inactive)
    1  A    between atoms: C_4  and  C_10
    2  A    between atoms: C_6  and  O_15
    3  A    between atoms: C_7  and  C_10
    4  A    between atoms: C_7  and  C_42
    5  A    between atoms: C_8  and  C_19
    6  A    between atoms: C_9  and  C_14
    7  A    between atoms: C_9  and  C_21
    8  A    between atoms: C_11  and  C_19
    9  A    between atoms: C_11  and  C_39
   10  A    between atoms: C_14  and  C_33
   11  A    between atoms: C_14  and  C_40
   12  A    between atoms: O_15  and  C_16
   13  A    between atoms: C_16  and  C_30
   14  A    between atoms: C_20  and  C_39
   15  A    between atoms: C_21  and  C_28
   16  A    between atoms: C_22  and  C_28
   17  A    between atoms: C_22  and  C_50
   18  A    between atoms: C_32  and  C_51
   19  A    between atoms: C_35  and  C_51
   20  A    between atoms: C_40  and  N_48
                            x       y       z     vdW  Elec       q    Type
                         _______ _______ _______ _____ _____    ______ ____

>  <TORSDO>
F 20

$$$$
=
 OpenBabel11042411493D

 53 55  0  0  1  0  0  0  0  0999 V2000
  187.7450  177.2540  136.8040 C   0  0  0  0  0  0  0  0  0  0  0  0
  187.4950  177.5990  138.0760 C   0  0  0  0  0  3  0  0  0  0  0  0
  191.2280  171.9440  134.6190 C   0  0  0  0  0  3  0  0  0  0  0  0
  189.6570  174.0740  135.5780 C   0  0  0  0  0  0  0  0  0  0  0  0
  191.8280  173.1540  134.9670 C   0  0  0  0  0  3  0  0  0  0  0  0
  191.0710  174.2270  135.4750 C   0  0  0  0  0  0  0  0  0  0  0  0
  191.7810  175.5340  135.7830 C   0  0  1  0  0  3  0  0  0  0  0  0
  190.2330  177.0190  136.2420 C   0  0  0  0  0  2  0  0  0  0  0  0
  189.8520  171.7880  134.7550 C   0  0  0  0  0  3  0  0  0  0  0  0
  188.8790  176.3940  136.3500 C   0  0  0  0  0  0  0  0  0  0  0  0
  188.6890  175.1020  136.0360 C   0  0  0  0  0  3  0  0  0  0  0  0
  189.0780  172.8470  135.2270 C   0  0  0  0  0  3  0  0  0  0  0  0
  191.1780  176.1980  136.8520 O   0  0  0  0  0  0  0  0  0  0  0  0
  194.0590  175.6940  135.1950 O   0  0  0  0  0  0  0  0  0  0  0  0
  193.2510  175.3840  136.0580 C   0  0  0  0  0  0  0  0  0  0  0  0
  193.8570  175.8550  138.2960 O   0  0  0  0  0  1  0  0  0  0  0  0
  193.7320  174.8290  137.3610 C   0  0  0  0  0  2  0  0  0  0  0  0
  186.8040  177.8030  135.7780 C   0  0  0  0  0  2  0  0  0  0  0  0
  185.9680  176.7070  135.2170 C   0  0  0  0  0  3  0  0  0  0  0  0
  184.0000  174.1560  136.6110 O   0  0  0  0  0  1  0  0  0  0  0  0
  185.0710  176.1210  135.9580 C   0  0  0  0  0  0  0  0  0  0  0  0
  184.1720  175.5320  136.6940 C   0  0  0  0  0  0  0  0  0  0  0  0
  183.3140  176.3370  137.6060 C   0  0  0  0  0  2  0  0  0  0  0  0
  184.0610  176.7490  138.7240 O   0  0  0  0  0  0  0  0  0  0  0  0
  181.9320  177.9060  139.1060 C   0  0  0  0  0  2  0  0  0  0  0  0
  183.1800  177.2490  139.7090 C   0  0  2  0  0  3  0  0  0  0  0  0
  179.8020  179.3650  139.8710 O   0  0  0  0  0  0  0  0  0  0  0  0
  183.0080  178.3120  141.9920 C   0  0  0  0  0  2  0  0  0  0  0  0
  181.7920  179.1720  141.6770 C   0  0  0  0  0  2  0  0  0  0  0  0
  180.8170  178.3950  140.4050 S   0  0  0  0  0  0  0  0  0  0  0  0
  183.8870  178.1220  140.7590 C   0  0  0  0  0  2  0  0  0  0  0  0
  180.1190  177.1860  140.9610 O   0  0  0  0  0  0  0  0  0  0  0  0
  188.2870  177.1760  139.2680 C   0  0  0  0  0  2  0  0  0  0  0  0
  187.8060  177.9270  140.4940 C   0  0  0  0  0  2  0  0  0  0  0  0
  188.9900  178.5070  141.2450 C   0  0  2  0  0  3  0  0  0  0  0  0
  190.1820  178.0670  140.6650 O   0  0  0  0  0  1  0  0  0  0  0  0
  188.9310  178.0610  142.6970 C   0  0  0  0  0  2  0  0  0  0  0  0
  190.3210  177.7510  143.2340 C   0  0  2  0  0  3  0  0  0  0  0  0
  189.8190  175.4820  142.6300 O   0  0  0  0  0  0  0  0  0  0  0  0
  191.7060  175.7830  143.8980 O   0  0  0  0  0  1  0  0  0  0  0  0
  190.5900  176.2760  143.2340 C   0  0  0  0  0  0  0  0  0  0  0  0
  190.4550  178.3130  144.6390 C   0  0  0  0  0  2  0  0  0  0  0  0
  189.1020  177.5860  146.5620 C   0  0  0  0  0  0  0  0  0  0  0  0
  189.2140  178.1120  145.3760 N   0  0  0  0  0  0  0  0  0  0  0  0
  190.2790  177.1640  147.3790 C   0  0  0  0  0  0  0  0  0  0  0  0
  190.5160  177.7420  148.4740 O   0  0  0  0  0  0  0  0  0  0  0  0
  192.3300  175.7240  147.6920 C   0  0  0  0  0  1  0  0  0  0  0  0
  191.1700  176.1410  146.9220 N   0  0  0  0  0  2  0  0  0  0  0  0
  187.4450  178.3400  148.1420 O   0  0  0  0  0  1  0  0  0  0  0  0
  187.7050  177.4410  147.1010 C   0  0  1  0  0  3  0  0  0  0  0  0
  186.6330  177.5060  146.0160 C   0  0  0  0  0  2  0  0  0  0  0  0
  185.5470  178.5210  146.3320 C   0  0  0  0  0  2  0  0  0  0  0  0
  184.8660  178.9460  145.0480 C   0  0  0  0  0  1  0  0  0  0  0  0
  1  2  2  0  0  0  0
  2 33  1  0  0  0  0
  3  9  2  0  0  0  0
  3  5  1  0  0  0  0
  4 11  1  0  0  0  0
  5  6  2  0  0  0  0
  6  4  1  0  0  0  0
  6  7  1  0  0  0  0
  7 15  1  1  0  0  0
  7 13  1  0  0  0  0
  8 10  1  0  0  0  0
  8 13  1  0  0  0  0
  9 12  1  0  0  0  0
 10  1  1  0  0  0  0
 11 10  2  0  0  0  0
 12  4  2  0  0  0  0
 14 15  2  0  0  0  0
 15 17  1  0  0  0  0
 17 16  1  0  0  0  0
 18  1  1  0  0  0  0
 19 18  1  0  0  0  0
 19 21  2  0  0  0  0
 20 22  1  0  0  0  0
 21 22  2  0  0  0  0
 22 23  1  0  0  0  0
 23 24  1  0  0  0  0
 25 26  1  0  0  0  0
 25 30  1  0  0  0  0
 26 24  1  6  0  0  0
 26 31  1  0  0  0  0
 27 30  2  0  0  0  0
 29 28  1  0  0  0  0
 30 32  2  0  0  0  0
 30 29  1  0  0  0  0
 31 28  1  0  0  0  0
 33 34  1  0  0  0  0
 34 35  1  0  0  0  0
 35 36  1  6  0  0  0
 35 37  1  0  0  0  0
 38 37  1  1  0  0  0
 38 42  1  0  0  0  0
 39 41  2  0  0  0  0
 41 38  1  0  0  0  0
 41 40  1  0  0  0  0
 42 44  1  0  0  0  0
 43 50  1  0  0  0  0
 43 45  1  0  0  0  0
 44 43  2  0  0  0  0
 45 46  2  0  0  0  0
 48 45  1  0  0  0  0
 48 47  1  0  0  0  0
 50 49  1  1  0  0  0
 51 52  1  0  0  0  0
 51 50  1  0  0  0  0
 53 52  1  0  0  0  0
M  END
>  <MODEL>
8

>  <REMARK>
 VINA RESULT:      -6.2      3.256      9.860
  Name = 
  20 active torsions:
  status: ('A' for Active; 'I' for Inactive)
    1  A    between atoms: C_4  and  C_10
    2  A    between atoms: C_6  and  O_15
    3  A    between atoms: C_7  and  C_10
    4  A    between atoms: C_7  and  C_42
    5  A    between atoms: C_8  and  C_19
    6  A    between atoms: C_9  and  C_14
    7  A    between atoms: C_9  and  C_21
    8  A    between atoms: C_11  and  C_19
    9  A    between atoms: C_11  and  C_39
   10  A    between atoms: C_14  and  C_33
   11  A    between atoms: C_14  and  C_40
   12  A    between atoms: O_15  and  C_16
   13  A    between atoms: C_16  and  C_30
   14  A    between atoms: C_20  and  C_39
   15  A    between atoms: C_21  and  C_28
   16  A    between atoms: C_22  and  C_28
   17  A    between atoms: C_22  and  C_50
   18  A    between atoms: C_32  and  C_51
   19  A    between atoms: C_35  and  C_51
   20  A    between atoms: C_40  and  N_48
                            x       y       z     vdW  Elec       q    Type
                         _______ _______ _______ _____ _____    ______ ____

>  <TORSDO>
F 20

$$$$
=
 OpenBabel11042411493D

 53 55  0  0  1  0  0  0  0  0999 V2000
  184.2420  177.2120  137.7080 C   0  0  0  0  0  0  0  0  0  0  0  0
  185.5420  177.4410  137.9510 C   0  0  0  0  0  3  0  0  0  0  0  0
  179.4150  181.5580  139.4160 C   0  0  0  0  0  3  0  0  0  0  0  0
  181.5040  179.8480  138.6180 C   0  0  0  0  0  0  0  0  0  0  0  0
  179.7220  180.4280  140.1730 C   0  0  0  0  0  3  0  0  0  0  0  0
  180.7790  179.5710  139.8150 C   0  0  0  0  0  0  0  0  0  0  0  0
  181.0240  178.3290  140.6550 C   0  0  1  0  0  3  0  0  0  0  0  0
  182.5200  177.1190  139.6020 C   0  0  0  0  0  2  0  0  0  0  0  0
  180.1500  181.8430  138.2690 C   0  0  0  0  0  3  0  0  0  0  0  0
  183.1030  177.8500  138.4360 C   0  0  0  0  0  0  0  0  0  0  0  0
  182.6090  179.0370  138.0480 C   0  0  0  0  0  3  0  0  0  0  0  0
  181.1820  180.9910  137.8760 C   0  0  0  0  0  3  0  0  0  0  0  0
  182.3770  177.9910  140.6780 O   0  0  0  0  0  0  0  0  0  0  0  0
  179.4750  177.8650  142.3720 O   0  0  0  0  0  0  0  0  0  0  0  0
  180.5140  178.4320  142.0650 C   0  0  0  0  0  0  0  0  0  0  0  0
  180.6090  180.4770  143.2520 O   0  0  0  0  0  1  0  0  0  0  0  0
  181.2450  179.2470  143.0840 C   0  0  0  0  0  2  0  0  0  0  0  0
  183.9410  176.2220  136.6280 C   0  0  0  0  0  2  0  0  0  0  0  0
  183.6970  174.8800  137.2210 C   0  0  0  0  0  3  0  0  0  0  0  0
  184.7530  171.6220  136.4500 O   0  0  0  0  0  1  0  0  0  0  0  0
  184.4910  173.8850  136.9430 C   0  0  0  0  0  0  0  0  0  0  0  0
  185.2830  172.8870  136.6700 C   0  0  0  0  0  0  0  0  0  0  0  0
  186.7550  173.0990  136.6160 C   0  0  0  0  0  2  0  0  0  0  0  0
  187.1030  173.7260  135.4050 O   0  0  0  0  0  0  0  0  0  0  0  0
  189.0340  174.1990  136.8430 C   0  0  0  0  0  2  0  0  0  0  0  0
  188.1810  174.6090  135.6360 C   0  0  2  0  0  3  0  0  0  0  0  0
  191.0510  175.1450  138.3550 O   0  0  0  0  0  0  0  0  0  0  0  0
  188.9600  177.0080  135.5180 C   0  0  0  0  0  2  0  0  0  0  0  0
  189.8520  176.9480  136.7510 C   0  0  0  0  0  2  0  0  0  0  0  0
  190.4380  175.2830  136.9900 S   0  0  0  0  0  0  0  0  0  0  0  0
  187.7520  176.0860  135.6610 C   0  0  0  0  0  2  0  0  0  0  0  0
  191.4580  174.9430  135.9400 O   0  0  0  0  0  0  0  0  0  0  0  0
  186.0880  178.3810  138.9730 C   0  0  0  0  0  2  0  0  0  0  0  0
  187.5930  178.2240  139.0600 C   0  0  0  0  0  2  0  0  0  0  0  0
  188.0330  178.2260  140.5120 C   0  0  2  0  0  3  0  0  0  0  0  0
  188.6560  177.0140  140.8200 O   0  0  0  0  0  1  0  0  0  0  0  0
  186.8180  178.4180  141.4040 C   0  0  0  0  0  2  0  0  0  0  0  0
  187.1000  177.9550  142.8270 C   0  0  2  0  0  3  0  0  0  0  0  0
  185.8210  177.5160  144.8110 O   0  0  0  0  0  1  0  0  0  0  0  0
  184.8480  178.9270  143.2870 O   0  0  0  0  0  0  0  0  0  0  0  0
  185.8930  178.1110  143.7020 C   0  0  0  0  0  0  0  0  0  0  0  0
  188.2690  178.7450  143.3920 C   0  0  0  0  0  2  0  0  0  0  0  0
  190.1010  177.6610  144.6260 C   0  0  0  0  0  0  0  0  0  0  0  0
  188.8560  178.0290  144.5170 N   0  0  0  0  0  0  0  0  0  0  0  0
  191.1410  177.9910  143.6060 C   0  0  0  0  0  0  0  0  0  0  0  0
  191.8560  179.0180  143.7570 O   0  0  0  0  0  0  0  0  0  0  0  0
  192.3070  177.4960  141.4220 C   0  0  0  0  0  1  0  0  0  0  0  0
  191.3130  177.1850  142.4360 N   0  0  0  0  0  2  0  0  0  0  0  0
  191.6250  177.3840  146.4730 O   0  0  0  0  0  1  0  0  0  0  0  0
  190.4640  176.8910  145.8670 C   0  0  1  0  0  3  0  0  0  0  0  0
  189.3120  176.7760  146.8620 C   0  0  0  0  0  2  0  0  0  0  0  0
  189.4930  177.6820  148.0690 C   0  0  0  0  0  2  0  0  0  0  0  0
  188.3450  178.6670  148.1360 C   0  0  0  0  0  1  0  0  0  0  0  0
  1  2  2  0  0  0  0
  1 10  1  0  0  0  0
  2 33  1  0  0  0  0
  3  5  1  0  0  0  0
  4  6  1  0  0  0  0
  6  5  2  0  0  0  0
  6  7  1  0  0  0  0
  7 13  1  0  0  0  0
  7 15  1  1  0  0  0
  8 13  1  0  0  0  0
  9  3  2  0  0  0  0
 10  8  1  0  0  0  0
 11 10  2  0  0  0  0
 11  4  1  0  0  0  0
 12  9  1  0  0  0  0
 12  4  2  0  0  0  0
 15 14  2  0  0  0  0
 15 17  1  0  0  0  0
 17 16  1  0  0  0  0
 18 19  1  0  0  0  0
 18  1  1  0  0  0  0
 20 22  1  0  0  0  0
 21 19  2  0  0  0  0
 22 21  2  0  0  0  0
 23 22  1  0  0  0  0
 24 23  1  0  0  0  0
 25 30  1  0  0  0  0
 26 24  1  1  0  0  0
 26 31  1  0  0  0  0
 26 25  1  0  0  0  0
 28 31  1  0  0  0  0
 28 29  1  0  0  0  0
 29 30  1  0  0  0  0
 30 27  2  0  0  0  0
 32 30  2  0  0  0  0
 33 34  1  0  0  0  0
 34 35  1  0  0  0  0
 35 36  1  1  0  0  0
 35 37  1  0  0  0  0
 38 37  1  6  0  0  0
 38 42  1  0  0  0  0
 38 41  1  0  0  0  0
 40 41  2  0  0  0  0
 41 39  1  0  0  0  0
 42 44  1  0  0  0  0
 43 50  1  0  0  0  0
 44 43  2  0  0  0  0
 45 46  2  0  0  0  0
 45 43  1  0  0  0  0
 47 48  1  0  0  0  0
 48 45  1  0  0  0  0
 50 49  1  1  0  0  0
 50 51  1  0  0  0  0
 51 52  1  0  0  0  0
 52 53  1  0  0  0  0
M  END
>  <MODEL>
9

>  <REMARK>
 VINA RESULT:      -6.2      2.802      7.183
  Name = 
  20 active torsions:
  status: ('A' for Active; 'I' for Inactive)
    1  A    between atoms: C_4  and  C_10
    2  A    between atoms: C_6  and  O_15
    3  A    between atoms: C_7  and  C_10
    4  A    between atoms: C_7  and  C_42
    5  A    between atoms: C_8  and  C_19
    6  A    between atoms: C_9  and  C_14
    7  A    between atoms: C_9  and  C_21
    8  A    between atoms: C_11  and  C_19
    9  A    between atoms: C_11  and  C_39
   10  A    between atoms: C_14  and  C_33
   11  A    between atoms: C_14  and  C_40
   12  A    between atoms: O_15  and  C_16
   13  A    between atoms: C_16  and  C_30
   14  A    between atoms: C_20  and  C_39
   15  A    between atoms: C_21  and  C_28
   16  A    between atoms: C_22  and  C_28
   17  A    between atoms: C_22  and  C_50
   18  A    between atoms: C_32  and  C_51
   19  A    between atoms: C_35  and  C_51
   20  A    between atoms: C_40  and  N_48
                            x       y       z     vdW  Elec       q    Type
                         _______ _______ _______ _____ _____    ______ ____

>  <TORSDO>
F 20

$$$$
