=
 OpenBabel11032419233D

 51 58  0  0  1  0  0  0  0  0999 V2000
  193.6300  175.6890  136.5040 N   0  0  0  0  0  0  0  0  0  0  0  0
  189.1320  176.1200  134.5940 C   0  0  0  0  0  3  0  0  0  0  0  0
  190.4480  176.0190  134.6420 C   0  0  0  0  0  3  0  0  0  0  0  0
  188.4490  176.3770  136.9950 C   0  0  0  0  0  0  0  0  0  0  0  0
  187.1560  176.3520  137.7580 C   0  0  0  0  0  2  0  0  0  0  0  0
  188.1960  176.1810  135.7080 C   0  0  0  0  0  0  0  0  0  0  0  0
  186.0820  176.1410  136.7000 C   0  0  2  0  0  3  0  0  0  0  0  0
  189.7400  176.6620  137.6860 C   0  0  0  0  0  0  0  0  0  0  0  0
  192.5840  175.6210  135.5250 C   0  0  0  0  0  3  0  0  0  0  0  0
  186.8110  176.0420  135.4510 N   0  0  0  0  0  2  0  0  0  0  0  0
  192.1450  176.6470  138.1130 C   0  0  0  0  0  3  0  0  0  0  0  0
  193.3770  176.2800  137.7790 C   0  0  0  0  0  3  0  0  0  0  0  0
  191.3250  175.9750  135.8100 C   0  0  0  0  0  0  0  0  0  0  0  0
  190.9900  176.4460  137.1940 C   0  0  0  0  0  0  0  0  0  0  0  0
  189.8110  176.9300  141.4840 C   0  0  0  0  0  0  0  0  0  0  0  0
  188.2970  178.6190  140.6360 C   0  0  0  0  0  2  0  0  0  0  0  0
  190.5310  176.3080  142.5530 N   0  0  0  0  0  2  0  0  0  0  0  0
  189.9960  176.4310  140.1100 C   0  0  0  0  0  3  0  0  0  0  0  0
  189.0780  177.9840  141.6990 N   0  0  0  0  0  0  0  0  0  0  0  0
  189.5860  177.1680  139.0710 C   0  0  0  0  0  0  0  0  0  0  0  0
  189.0380  178.5500  139.2990 C   0  0  0  0  0  2  0  0  0  0  0  0
  191.6830  178.3300  144.3010 N   0  0  0  0  0  2  0  0  0  0  0  0
  190.9760  177.3640  144.7880 C   0  0  0  0  0  0  0  0  0  0  0  0
  190.2390  176.4960  143.9170 N   0  0  0  0  0  2  0  0  0  0  0  0
  191.5770  176.2760  146.9310 C   0  0  0  0  0  1  0  0  0  0  0  0
  189.2520  177.0590  146.5340 C   0  0  0  0  0  1  0  0  0  0  0  0
  190.7180  177.3310  146.2580 C   0  0  0  0  0  3  0  0  0  0  0  0
  197.7830  175.6090  136.5010 O   0  0  0  0  0  0  0  0  0  0  0  0
  197.1770  174.5120  137.1390 C   0  0  0  0  0  2  0  0  0  0  0  0
  194.9690  175.1930  136.2130 C   0  0  0  0  0  3  0  0  0  0  0  0
  195.7480  176.1980  135.3640 C   0  0  0  0  0  2  0  0  0  0  0  0
  195.7290  174.8470  137.4980 C   0  0  0  0  0  2  0  0  0  0  0  0
  197.1910  175.7150  135.2290 C   0  0  0  0  0  2  0  0  0  0  0  0
  185.1620  177.3510  136.6740 C   0  0  0  0  0  2  0  0  0  0  0  0
  181.0700  177.6660  138.3410 C   0  0  0  0  0  2  0  0  0  0  0  0
  183.7910  177.0210  137.2450 C   0  0  2  0  0  3  0  0  0  0  0  0
  181.1330  176.8890  137.0360 C   0  0  0  0  0  2  0  0  0  0  0  0
  182.2740  177.3260  139.2100 C   0  0  1  0  0  3  0  0  0  0  0  0
  182.5220  177.4850  136.0180 S   0  0  0  0  0  0  0  0  0  0  0  0
  183.5650  177.7860  138.5450 C   0  0  0  0  0  2  0  0  0  0  0  0
  181.5310  179.0370  141.4200 C   0  0  0  0  0  0  0  0  0  0  0  0
  182.1380  177.9750  140.5010 N   0  0  0  0  0  0  0  0  0  0  0  0
  180.7570  180.0070  141.6230 O   0  0  0  0  0  0  0  0  0  0  0  0
  182.5080  178.1430  141.8330 C   0  0  1  0  0  3  0  0  0  0  0  0
  183.8530  178.8460  141.9020 C   0  0  0  0  0  2  0  0  0  0  0  0
  183.6880  178.8910  144.4040 C   0  0  0  0  0  2  0  0  0  0  0  0
  184.4730  178.6160  143.1970 N   0  0  0  0  0  0  0  0  0  0  0  0
  185.7210  177.9150  143.2640 C   0  0  0  0  0  3  0  0  0  0  0  0
  185.7440  178.2990  145.6630 C   0  0  0  0  0  3  0  0  0  0  0  0
  184.5330  178.8570  145.6510 C   0  0  0  0  0  3  0  0  0  0  0  0
  186.3370  177.7510  144.4340 C   0  0  0  0  0  3  0  0  0  0  0  0
  1 12  1  0  0  0  0
  2  3  2  0  0  0  0
  2  6  1  0  0  0  0
  3 13  1  0  0  0  0
  4  8  1  0  0  0  0
  4  5  1  0  0  0  0
  6  4  2  0  0  0  0
  7 34  1  6  0  0  0
  7  5  1  0  0  0  0
  8 20  1  0  0  0  0
  9 13  2  0  0  0  0
  9  1  1  0  0  0  0
 10  6  1  0  0  0  0
 10  7  1  0  0  0  0
 12 11  2  0  0  0  0
 13 14  1  0  0  0  0
 14  8  2  0  0  0  0
 14 11  1  0  0  0  0
 15 19  2  0  0  0  0
 15 17  1  0  0  0  0
 16 19  1  0  0  0  0
 17 24  1  0  0  0  0
 18 15  1  0  0  0  0
 20 21  1  0  0  0  0
 20 18  2  0  0  0  0
 21 16  1  0  0  0  0
 22 23  2  0  0  0  0
 23 27  1  0  0  0  0
 24 23  1  0  0  0  0
 27 26  1  0  0  0  0
 27 25  1  0  0  0  0
 28 29  1  0  0  0  0
 29 32  1  0  0  0  0
 30  1  1  0  0  0  0
 30 32  1  0  0  0  0
 31 30  1  0  0  0  0
 33 31  1  0  0  0  0
 33 28  1  0  0  0  0
 36 34  1  6  0  0  0
 36 40  1  0  0  0  0
 37 35  1  0  0  0  0
 38 35  1  6  0  0  0
 38 42  1  0  0  0  0
 39 37  1  0  0  0  0
 39 36  1  0  0  0  0
 40 38  1  0  0  0  0
 41 43  2  0  0  0  0
 41 44  1  0  0  0  0
 42 41  1  0  0  0  0
 42 44  1  0  0  0  0
 44 45  1  6  0  0  0
 45 47  1  0  0  0  0
 46 50  1  0  0  0  0
 47 48  1  0  0  0  0
 47 46  1  0  0  0  0
 48 51  2  0  0  0  0
 50 49  2  0  0  0  0
 51 49  1  0  0  0  0
M  END
>  <MODEL>
1

>  <REMARK>
 VINA RESULT:      -9.8      0.000      0.000
  Name = 
  9 active torsions:
  status: ('A' for Active; 'I' for Inactive)
    1  A    between atoms: N_3  and  C_19
    2  A    between atoms: C_13  and  C_29
    3  A    between atoms: C_14  and  N_16
    4  A    between atoms: C_14  and  CA_26
    5  A    between atoms: N_15  and  C_31
    6  A    between atoms: C_24  and  C_41
    7  A    between atoms: C_28  and  C_41
    8  A    between atoms: C_33  and  C_49
    9  A    between atoms: N_37  and  N_39
                            x       y       z     vdW  Elec       q    Type
                         _______ _______ _______ _____ _____    ______ ____

>  <TORSDO>
F 9

$$$$
=
 OpenBabel11032419233D

 51 58  0  0  1  0  0  0  0  0999 V2000
  189.9310  177.3550  143.4540 N   0  0  0  0  0  0  0  0  0  0  0  0
  186.6950  178.5700  139.9710 C   0  0  0  0  0  3  0  0  0  0  0  0
  187.1800  178.3300  141.1760 C   0  0  0  0  0  3  0  0  0  0  0  0
  188.5280  177.8430  138.4190 C   0  0  0  0  0  0  0  0  0  0  0  0
  188.8130  177.9730  136.9500 C   0  0  0  0  0  2  0  0  0  0  0  0
  187.3740  178.4380  138.6890 C   0  0  0  0  0  0  0  0  0  0  0  0
  187.6140  178.7190  136.3840 C   0  0  2  0  0  3  0  0  0  0  0  0
  189.4430  177.0750  139.3110 C   0  0  0  0  0  0  0  0  0  0  0  0
  188.7600  177.9400  142.8640 C   0  0  0  0  0  3  0  0  0  0  0  0
  186.7640  178.9740  137.5300 N   0  0  0  0  0  2  0  0  0  0  0  0
  190.5720  176.3870  141.3650 C   0  0  0  0  0  3  0  0  0  0  0  0
  190.7830  176.5200  142.6700 C   0  0  0  0  0  3  0  0  0  0  0  0
  188.5040  177.8400  141.5540 C   0  0  0  0  0  0  0  0  0  0  0  0
  189.4670  177.1060  140.6710 C   0  0  0  0  0  0  0  0  0  0  0  0
  192.7490  175.7490  137.9640 C   0  0  0  0  0  0  0  0  0  0  0  0
  190.9620  174.8410  136.6060 C   0  0  0  0  0  2  0  0  0  0  0  0
  194.1280  175.8290  138.3400 N   0  0  0  0  0  2  0  0  0  0  0  0
  191.7570  176.5420  138.7090 C   0  0  0  0  0  3  0  0  0  0  0  0
  192.3570  174.9170  137.0430 N   0  0  0  0  0  0  0  0  0  0  0  0
  190.4540  176.2640  138.5890 C   0  0  0  0  0  0  0  0  0  0  0  0
  190.0090  175.0750  137.7800 C   0  0  0  0  0  2  0  0  0  0  0  0
  196.0460  173.7690  139.0840 N   0  0  0  0  0  2  0  0  0  0  0  0
  196.2320  174.4920  138.0300 C   0  0  0  0  0  0  0  0  0  0  0  0
  195.1910  175.3540  137.5500 N   0  0  0  0  0  2  0  0  0  0  0  0
  198.6970  174.2510  137.9930 C   0  0  0  0  0  1  0  0  0  0  0  0
  197.5070  175.2300  136.0430 C   0  0  0  0  0  1  0  0  0  0  0  0
  197.4220  174.2190  137.1710 C   0  0  0  0  0  3  0  0  0  0  0  0
  190.3060  176.4620  147.4920 O   0  0  0  0  0  0  0  0  0  0  0  0
  191.5180  176.7590  146.8430 C   0  0  0  0  0  2  0  0  0  0  0  0
  190.2560  177.5700  144.8580 C   0  0  0  0  0  3  0  0  0  0  0  0
  189.0050  177.4510  145.7290 C   0  0  0  0  0  2  0  0  0  0  0  0
  191.3540  176.6120  145.3300 C   0  0  0  0  0  2  0  0  0  0  0  0
  189.4200  177.5140  147.1980 C   0  0  0  0  0  2  0  0  0  0  0  0
  186.8940  177.8240  135.3870 C   0  0  0  0  0  2  0  0  0  0  0  0
  185.7590  173.5720  135.8870 C   0  0  0  0  0  2  0  0  0  0  0  0
  186.7770  176.3970  135.9010 C   0  0  2  0  0  3  0  0  0  0  0  0
  187.2510  173.7800  135.6820 C   0  0  0  0  0  2  0  0  0  0  0  0
  185.1960  174.6710  136.7810 C   0  0  1  0  0  3  0  0  0  0  0  0
  187.5440  175.2750  134.6830 S   0  0  0  0  0  0  0  0  0  0  0  0
  185.3110  176.0290  136.1010 C   0  0  0  0  0  2  0  0  0  0  0  0
  182.4740  173.6980  136.7670 C   0  0  0  0  0  0  0  0  0  0  0  0
  183.8030  174.3910  137.0720 N   0  0  0  0  0  0  0  0  0  0  0  0
  181.7680  172.9230  136.0720 O   0  0  0  0  0  0  0  0  0  0  0  0
  182.6390  174.6020  137.8070 C   0  0  1  0  0  3  0  0  0  0  0  0
  182.0320  175.9410  137.4270 C   0  0  0  0  0  2  0  0  0  0  0  0
  182.6880  176.5940  139.7570 C   0  0  0  0  0  2  0  0  0  0  0  0
  182.4640  176.9700  138.3580 N   0  0  0  0  0  0  0  0  0  0  0  0
  182.8840  178.2440  137.8530 C   0  0  0  0  0  3  0  0  0  0  0  0
  183.1550  179.0010  140.1460 C   0  0  0  0  0  3  0  0  0  0  0  0
  182.8770  177.7960  140.6450 C   0  0  0  0  0  3  0  0  0  0  0  0
  183.2210  179.2210  138.6930 C   0  0  0  0  0  3  0  0  0  0  0  0
  1 30  1  0  0  0  0
  2  3  2  0  0  0  0
  3 13  1  0  0  0  0
  4  6  2  0  0  0  0
  4  8  1  0  0  0  0
  5  4  1  0  0  0  0
  6  2  1  0  0  0  0
  7 34  1  6  0  0  0
  7  5  1  0  0  0  0
  7 10  1  0  0  0  0
  8 14  2  0  0  0  0
  9  1  1  0  0  0  0
 10  6  1  0  0  0  0
 11 12  2  0  0  0  0
 12  1  1  0  0  0  0
 13  9  2  0  0  0  0
 14 11  1  0  0  0  0
 14 13  1  0  0  0  0
 15 17  1  0  0  0  0
 15 18  1  0  0  0  0
 16 19  1  0  0  0  0
 16 21  1  0  0  0  0
 19 15  2  0  0  0  0
 20 18  2  0  0  0  0
 20  8  1  0  0  0  0
 21 20  1  0  0  0  0
 23 22  2  0  0  0  0
 24 23  1  0  0  0  0
 24 17  1  0  0  0  0
 26 27  1  0  0  0  0
 27 25  1  0  0  0  0
 27 23  1  0  0  0  0
 29 28  1  0  0  0  0
 30 32  1  0  0  0  0
 30 31  1  0  0  0  0
 31 33  1  0  0  0  0
 32 29  1  0  0  0  0
 33 28  1  0  0  0  0
 36 34  1  6  0  0  0
 36 40  1  0  0  0  0
 37 35  1  0  0  0  0
 38 35  1  6  0  0  0
 38 42  1  0  0  0  0
 39 37  1  0  0  0  0
 39 36  1  0  0  0  0
 40 38  1  0  0  0  0
 41 42  1  0  0  0  0
 41 44  1  0  0  0  0
 42 44  1  0  0  0  0
 43 41  2  0  0  0  0
 44 45  1  6  0  0  0
 45 47  1  0  0  0  0
 46 50  1  0  0  0  0
 47 46  1  0  0  0  0
 48 47  1  0  0  0  0
 48 51  2  0  0  0  0
 49 50  2  0  0  0  0
 51 49  1  0  0  0  0
M  END
>  <MODEL>
2

>  <REMARK>
 VINA RESULT:      -9.5      3.113      7.241
  Name = 
  9 active torsions:
  status: ('A' for Active; 'I' for Inactive)
    1  A    between atoms: N_3  and  C_19
    2  A    between atoms: C_13  and  C_29
    3  A    between atoms: C_14  and  N_16
    4  A    between atoms: C_14  and  CA_26
    5  A    between atoms: N_15  and  C_31
    6  A    between atoms: C_24  and  C_41
    7  A    between atoms: C_28  and  C_41
    8  A    between atoms: C_33  and  C_49
    9  A    between atoms: N_37  and  N_39
                            x       y       z     vdW  Elec       q    Type
                         _______ _______ _______ _____ _____    ______ ____

>  <TORSDO>
F 9

$$$$
=
 OpenBabel11032419233D

 51 58  0  0  1  0  0  0  0  0999 V2000
  193.0020  176.3500  136.2080 N   0  0  0  0  0  0  0  0  0  0  0  0
  191.2200  177.0380  140.7280 C   0  0  0  0  0  3  0  0  0  0  0  0
  192.0740  176.7130  139.7730 C   0  0  0  0  0  3  0  0  0  0  0  0
  189.0790  177.4970  139.5020 C   0  0  0  0  0  0  0  0  0  0  0  0
  187.7440  178.0910  139.8480 C   0  0  0  0  0  2  0  0  0  0  0  0
  189.8490  177.5070  140.5820 C   0  0  0  0  0  0  0  0  0  0  0  0
  187.8380  178.4270  141.3300 C   0  0  2  0  0  3  0  0  0  0  0  0
  189.3440  176.9500  138.1410 C   0  0  0  0  0  0  0  0  0  0  0  0
  193.0070  176.5600  137.6280 C   0  0  0  0  0  3  0  0  0  0  0  0
  189.1790  178.0360  141.7120 N   0  0  0  0  0  2  0  0  0  0  0  0
  190.6140  176.2650  136.1700 C   0  0  0  0  0  3  0  0  0  0  0  0
  191.7680  176.1380  135.5230 C   0  0  0  0  0  3  0  0  0  0  0  0
  191.8740  176.6990  138.3260 C   0  0  0  0  0  0  0  0  0  0  0  0
  190.5580  176.6450  137.6090 C   0  0  0  0  0  0  0  0  0  0  0  0
  186.2290  175.5310  136.4720 C   0  0  0  0  0  0  0  0  0  0  0  0
  186.9450  177.4690  135.2100 C   0  0  0  0  0  2  0  0  0  0  0  0
  185.2950  174.4810  136.7430 N   0  0  0  0  0  0  0  0  0  0  0  0
  187.4140  175.6750  137.3330 C   0  0  0  0  0  3  0  0  0  0  0  0
  185.9910  176.4090  135.5410 N   0  0  0  0  0  0  0  0  0  0  0  0
  188.1300  176.8050  137.3000 C   0  0  0  0  0  0  0  0  0  0  0  0
  187.6650  177.9670  136.4650 C   0  0  0  0  0  2  0  0  0  0  0  0
  183.1350  172.6160  137.3190 N   0  0  0  0  0  2  0  0  0  0  0  0
  183.3730  172.9930  136.1060 C   0  0  0  0  0  0  0  0  0  0  0  0
  184.2920  174.0640  135.8480 N   0  0  0  0  0  0  0  0  0  0  0  0
  181.4950  173.5630  134.5950 C   0  0  0  0  0  1  0  0  0  0  0  0
  181.7550  171.2430  135.4470 C   0  0  0  0  0  1  0  0  0  0  0  0
  182.4910  172.4950  135.0100 C   0  0  0  0  0  3  0  0  0  0  0  0
  197.0890  176.5780  135.5070 O   0  0  0  0  0  0  0  0  0  0  0  0
  196.5160  175.3250  135.2250 C   0  0  0  0  0  2  0  0  0  0  0  0
  194.2430  176.3150  135.4460 C   0  0  0  0  0  3  0  0  0  0  0  0
  194.9480  177.6710  135.4940 C   0  0  0  0  0  2  0  0  0  0  0  0
  195.1670  175.1930  135.9320 C   0  0  0  0  0  2  0  0  0  0  0  0
  196.3170  177.5390  134.8280 C   0  0  0  0  0  2  0  0  0  0  0  0
  186.8140  177.6030  142.0940 C   0  0  0  0  0  2  0  0  0  0  0  0
  183.8200  179.0090  145.0410 C   0  0  0  0  0  2  0  0  0  0  0  0
  185.9740  178.4720  143.0180 C   0  0  2  0  0  3  0  0  0  0  0  0
  185.2560  179.2940  145.4530 C   0  0  0  0  0  2  0  0  0  0  0  0
  183.6520  179.2370  143.5440 C   0  0  1  0  0  3  0  0  0  0  0  0
  186.3720  178.0410  144.7450 S   0  0  0  0  0  0  0  0  0  0  0  0
  184.4910  178.2440  142.7500 C   0  0  0  0  0  2  0  0  0  0  0  0
  180.8100  178.7060  143.5180 C   0  0  0  0  0  0  0  0  0  0  0  0
  182.2540  179.0850  143.1860 N   0  0  0  0  0  0  0  0  0  0  0  0
  179.9340  178.2980  144.3240 O   0  0  0  0  0  0  0  0  0  0  0  0
  181.2170  179.1130  142.2560 C   0  0  1  0  0  3  0  0  0  0  0  0
  181.3250  177.9090  141.3370 C   0  0  0  0  0  2  0  0  0  0  0  0
  182.9810  177.0010  139.6870 C   0  0  0  0  0  2  0  0  0  0  0  0
  182.3200  178.1540  140.3050 N   0  0  0  0  0  0  0  0  0  0  0  0
  182.4550  179.4720  139.7590 C   0  0  0  0  0  3  0  0  0  0  0  0
  184.3250  178.6680  138.4310 C   0  0  0  0  0  3  0  0  0  0  0  0
  184.1550  177.4090  138.8350 C   0  0  0  0  0  3  0  0  0  0  0  0
  183.4040  179.7310  138.8600 C   0  0  0  0  0  3  0  0  0  0  0  0
  1  9  1  0  0  0  0
  3  2  2  0  0  0  0
  4  5  1  0  0  0  0
  4  6  2  0  0  0  0
  5  7  1  0  0  0  0
  6  2  1  0  0  0  0
  6 10  1  0  0  0  0
  7 10  1  0  0  0  0
  7 34  1  1  0  0  0
  8  4  1  0  0  0  0
  9 13  2  0  0  0  0
 11 14  1  0  0  0  0
 12 11  2  0  0  0  0
 12  1  1  0  0  0  0
 13  3  1  0  0  0  0
 14  8  2  0  0  0  0
 14 13  1  0  0  0  0
 15 17  1  0  0  0  0
 15 18  1  0  0  0  0
 16 19  1  0  0  0  0
 16 21  1  0  0  0  0
 19 15  2  0  0  0  0
 20 18  2  0  0  0  0
 20  8  1  0  0  0  0
 21 20  1  0  0  0  0
 23 22  2  0  0  0  0
 24 23  1  0  0  0  0
 24 17  2  0  0  0  0
 25 27  1  0  0  0  0
 27 26  1  0  0  0  0
 27 23  1  0  0  0  0
 29 28  1  0  0  0  0
 29 32  1  0  0  0  0
 30 31  1  0  0  0  0
 30 32  1  0  0  0  0
 30  1  1  0  0  0  0
 33 31  1  0  0  0  0
 33 28  1  0  0  0  0
 35 37  1  0  0  0  0
 36 34  1  6  0  0  0
 36 39  1  0  0  0  0
 38 40  1  6  0  0  0
 38 35  1  0  0  0  0
 39 37  1  0  0  0  0
 40 36  1  0  0  0  0
 41 43  2  0  0  0  0
 42 41  1  0  0  0  0
 42 38  1  0  0  0  0
 44 45  1  6  0  0  0
 44 42  1  0  0  0  0
 44 41  1  0  0  0  0
 46 47  1  0  0  0  0
 47 45  1  0  0  0  0
 48 47  1  0  0  0  0
 49 50  2  0  0  0  0
 49 51  1  0  0  0  0
 50 46  1  0  0  0  0
 51 48  2  0  0  0  0
M  END
>  <MODEL>
3

>  <REMARK>
 VINA RESULT:      -8.5      2.469      6.517
  Name = 
  9 active torsions:
  status: ('A' for Active; 'I' for Inactive)
    1  A    between atoms: N_3  and  C_19
    2  A    between atoms: C_13  and  C_29
    3  A    between atoms: C_14  and  N_16
    4  A    between atoms: C_14  and  CA_26
    5  A    between atoms: N_15  and  C_31
    6  A    between atoms: C_24  and  C_41
    7  A    between atoms: C_28  and  C_41
    8  A    between atoms: C_33  and  C_49
    9  A    between atoms: N_37  and  N_39
                            x       y       z     vdW  Elec       q    Type
                         _______ _______ _______ _____ _____    ______ ____

>  <TORSDO>
F 9

$$$$
=
 OpenBabel11032419233D

 51 58  0  0  1  0  0  0  0  0999 V2000
  193.1480  176.2120  136.4550 N   0  0  0  0  0  0  0  0  0  0  0  0
  191.3860  177.1950  140.9270 C   0  0  0  0  0  3  0  0  0  0  0  0
  192.2380  176.8150  139.9920 C   0  0  0  0  0  3  0  0  0  0  0  0
  189.2290  177.5300  139.6890 C   0  0  0  0  0  0  0  0  0  0  0  0
  187.8860  178.1260  140.0020 C   0  0  0  0  0  2  0  0  0  0  0  0
  190.0060  177.6300  140.7590 C   0  0  0  0  0  0  0  0  0  0  0  0
  187.9840  178.5690  141.4540 C   0  0  2  0  0  3  0  0  0  0  0  0
  189.4930  176.8900  138.3680 C   0  0  0  0  0  0  0  0  0  0  0  0
  193.1590  176.5240  137.8560 C   0  0  0  0  0  3  0  0  0  0  0  0
  189.3350  178.2270  141.8530 N   0  0  0  0  0  2  0  0  0  0  0  0
  190.7610  176.0860  136.4410 C   0  0  0  0  0  3  0  0  0  0  0  0
  191.9130  175.9310  135.7960 C   0  0  0  0  0  3  0  0  0  0  0  0
  192.0290  176.6950  138.5510 C   0  0  0  0  0  0  0  0  0  0  0  0
  190.7090  176.5680  137.8500 C   0  0  0  0  0  0  0  0  0  0  0  0
  186.4610  175.2630  136.7390 C   0  0  0  0  0  0  0  0  0  0  0  0
  187.0000  177.2700  135.4950 C   0  0  0  0  0  2  0  0  0  0  0  0
  185.6150  174.1400  137.0110 N   0  0  0  0  0  2  0  0  0  0  0  0
  187.6500  175.4850  137.5780 C   0  0  0  0  0  3  0  0  0  0  0  0
  186.1370  176.1340  135.8270 N   0  0  0  0  0  0  0  0  0  0  0  0
  188.2770  176.6660  137.5490 C   0  0  0  0  0  0  0  0  0  0  0  0
  187.7060  177.8020  136.7440 C   0  0  0  0  0  2  0  0  0  0  0  0
  182.7380  174.2080  137.4420 N   0  0  0  0  0  2  0  0  0  0  0  0
  183.2410  173.5260  136.4670 C   0  0  0  0  0  0  0  0  0  0  0  0
  184.6280  173.6620  136.1290 N   0  0  0  0  0  2  0  0  0  0  0  0
  181.2320  173.7490  135.0350 C   0  0  0  0  0  1  0  0  0  0  0  0
  181.6930  171.6140  136.2190 C   0  0  0  0  0  1  0  0  0  0  0  0
  182.3180  172.8140  135.5350 C   0  0  0  0  0  3  0  0  0  0  0  0
  197.2100  176.5800  135.6690 O   0  0  0  0  0  0  0  0  0  0  0  0
  196.7120  175.2670  135.5760 C   0  0  0  0  0  2  0  0  0  0  0  0
  194.3850  176.1420  135.6870 C   0  0  0  0  0  3  0  0  0  0  0  0
  195.0060  177.5310  135.5320 C   0  0  0  0  0  2  0  0  0  0  0  0
  195.3770  175.1580  136.3140 C   0  0  0  0  0  2  0  0  0  0  0  0
  196.3770  177.3860  134.8720 C   0  0  0  0  0  2  0  0  0  0  0  0
  186.9790  177.7860  142.2840 C   0  0  0  0  0  2  0  0  0  0  0  0
  182.8140  178.9790  143.2040 C   0  0  0  0  0  2  0  0  0  0  0  0
  185.7190  178.5960  142.5470 C   0  0  2  0  0  3  0  0  0  0  0  0
  183.8330  179.5340  144.1860 C   0  0  0  0  0  2  0  0  0  0  0  0
  183.3750  179.0220  141.7880 C   0  0  1  0  0  3  0  0  0  0  0  0
  185.2650  178.4140  144.3050 S   0  0  0  0  0  0  0  0  0  0  0  0
  184.5820  178.1030  141.6590 C   0  0  0  0  0  2  0  0  0  0  0  0
  181.5150  177.5360  140.1470 C   0  0  0  0  0  0  0  0  0  0  0  0
  182.3490  178.6090  140.8490 N   0  0  0  0  0  0  0  0  0  0  0  0
  181.1960  176.3330  139.9620 O   0  0  0  0  0  0  0  0  0  0  0  0
  181.4170  178.8880  139.8510 C   0  0  1  0  0  3  0  0  0  0  0  0
  182.1390  179.1830  138.5490 C   0  0  0  0  0  2  0  0  0  0  0  0
  181.8560  181.6660  138.3340 C   0  0  0  0  0  2  0  0  0  0  0  0
  181.5200  180.3140  137.8770 N   0  0  0  0  0  0  0  0  0  0  0  0
  180.7990  180.0980  136.6580 C   0  0  0  0  0  3  0  0  0  0  0  0
  180.2020  182.4540  136.6590 C   0  0  0  0  0  3  0  0  0  0  0  0
  180.9550  182.7110  137.7290 C   0  0  0  0  0  3  0  0  0  0  0  0
  180.1700  181.1100  136.0620 C   0  0  0  0  0  3  0  0  0  0  0  0
  1  9  1  0  0  0  0
  3  2  2  0  0  0  0
  4  5  1  0  0  0  0
  4  6  2  0  0  0  0
  5  7  1  0  0  0  0
  6  2  1  0  0  0  0
  6 10  1  0  0  0  0
  7 10  1  0  0  0  0
  7 34  1  1  0  0  0
  8  4  1  0  0  0  0
  9 13  2  0  0  0  0
 11 14  1  0  0  0  0
 12 11  2  0  0  0  0
 12  1  1  0  0  0  0
 13  3  1  0  0  0  0
 14  8  2  0  0  0  0
 14 13  1  0  0  0  0
 15 17  1  0  0  0  0
 15 18  1  0  0  0  0
 16 19  1  0  0  0  0
 16 21  1  0  0  0  0
 19 15  2  0  0  0  0
 20 18  2  0  0  0  0
 20  8  1  0  0  0  0
 21 20  1  0  0  0  0
 23 22  2  0  0  0  0
 24 23  1  0  0  0  0
 24 17  1  0  0  0  0
 25 27  1  0  0  0  0
 27 26  1  0  0  0  0
 27 23  1  0  0  0  0
 29 28  1  0  0  0  0
 29 32  1  0  0  0  0
 30 32  1  0  0  0  0
 30  1  1  0  0  0  0
 31 30  1  0  0  0  0
 33 31  1  0  0  0  0
 33 28  1  0  0  0  0
 35 37  1  0  0  0  0
 36 34  1  1  0  0  0
 36 39  1  0  0  0  0
 37 39  1  0  0  0  0
 38 42  1  6  0  0  0
 38 35  1  0  0  0  0
 40 38  1  0  0  0  0
 40 36  1  0  0  0  0
 41 42  1  0  0  0  0
 43 41  2  0  0  0  0
 44 45  1  6  0  0  0
 44 41  1  0  0  0  0
 44 42  1  0  0  0  0
 47 46  1  0  0  0  0
 47 45  1  0  0  0  0
 48 47  1  0  0  0  0
 49 50  2  0  0  0  0
 50 46  1  0  0  0  0
 51 48  2  0  0  0  0
 51 49  1  0  0  0  0
M  END
>  <MODEL>
4

>  <REMARK>
 VINA RESULT:      -8.2      2.677      6.710
  Name = 
  9 active torsions:
  status: ('A' for Active; 'I' for Inactive)
    1  A    between atoms: N_3  and  C_19
    2  A    between atoms: C_13  and  C_29
    3  A    between atoms: C_14  and  N_16
    4  A    between atoms: C_14  and  CA_26
    5  A    between atoms: N_15  and  C_31
    6  A    between atoms: C_24  and  C_41
    7  A    between atoms: C_28  and  C_41
    8  A    between atoms: C_33  and  C_49
    9  A    between atoms: N_37  and  N_39
                            x       y       z     vdW  Elec       q    Type
                         _______ _______ _______ _____ _____    ______ ____

>  <TORSDO>
F 9

$$$$
=
 OpenBabel11032419233D

 51 58  0  0  1  0  0  0  0  0999 V2000
  189.6770  177.2620  145.7500 N   0  0  0  0  0  0  0  0  0  0  0  0
  184.9100  178.0380  146.6120 C   0  0  0  0  0  3  0  0  0  0  0  0
  186.1550  177.6480  146.8200 C   0  0  0  0  0  3  0  0  0  0  0  0
  184.8810  178.7270  144.1990 C   0  0  0  0  0  0  0  0  0  0  0  0
  183.9210  179.4420  143.2920 C   0  0  0  0  0  2  0  0  0  0  0  0
  184.3490  178.6410  145.4110 C   0  0  0  0  0  0  0  0  0  0  0  0
  182.7090  179.7400  144.1640 C   0  0  2  0  0  3  0  0  0  0  0  0
  186.1660  178.1810  143.6750 C   0  0  0  0  0  0  0  0  0  0  0  0
  188.4690  177.4440  146.5020 C   0  0  0  0  0  3  0  0  0  0  0  0
  183.0550  179.2120  145.4680 N   0  0  0  0  0  2  0  0  0  0  0  0
  188.4840  177.4120  143.6840 C   0  0  0  0  0  3  0  0  0  0  0  0
  189.6260  177.1850  144.3250 C   0  0  0  0  0  3  0  0  0  0  0  0
  187.2940  177.6810  145.9060 C   0  0  0  0  0  0  0  0  0  0  0  0
  187.2340  177.7700  144.4110 C   0  0  0  0  0  0  0  0  0  0  0  0
  187.5390  178.2250  140.1240 C   0  0  0  0  0  0  0  0  0  0  0  0
  185.1790  178.7550  140.0270 C   0  0  0  0  0  2  0  0  0  0  0  0
  188.7900  177.9310  139.4920 N   0  0  0  0  0  2  0  0  0  0  0  0
  187.4560  178.2040  141.5940 C   0  0  0  0  0  3  0  0  0  0  0  0
  186.4630  178.4120  139.4150 N   0  0  0  0  0  0  0  0  0  0  0  0
  186.2620  178.1720  142.1950 C   0  0  0  0  0  0  0  0  0  0  0  0
  185.0080  178.0470  141.3720 C   0  0  0  0  0  2  0  0  0  0  0  0
  188.5450  176.0420  137.2910 N   0  0  0  0  0  2  0  0  0  0  0  0
  189.1360  177.1780  137.1210 C   0  0  0  0  0  0  0  0  0  0  0  0
  189.0710  178.1880  138.1370 N   0  0  0  0  0  2  0  0  0  0  0  0
  188.4980  177.7060  134.7860 C   0  0  0  0  0  1  0  0  0  0  0  0
  190.5930  176.4550  135.2580 C   0  0  0  0  0  1  0  0  0  0  0  0
  189.6460  177.5270  135.7630 C   0  0  0  0  0  3  0  0  0  0  0  0
  192.4770  175.7610  148.4260 O   0  0  0  0  0  0  0  0  0  0  0  0
  192.8050  175.5760  147.0700 C   0  0  0  0  0  2  0  0  0  0  0  0
  190.9660  177.1200  146.4150 C   0  0  0  0  0  3  0  0  0  0  0  0
  190.8490  177.4510  147.9030 C   0  0  0  0  0  2  0  0  0  0  0  0
  191.5540  175.7210  146.2030 C   0  0  0  0  0  2  0  0  0  0  0  0
  192.1760  177.1260  148.5860 C   0  0  0  0  0  2  0  0  0  0  0  0
  181.5000  179.0060  143.6050 C   0  0  0  0  0  2  0  0  0  0  0  0
  179.8330  179.2070  139.5060 C   0  0  0  0  0  2  0  0  0  0  0  0
  181.2540  179.3630  142.1470 C   0  0  2  0  0  3  0  0  0  0  0  0
  179.8190  180.5430  140.2310 C   0  0  0  0  0  2  0  0  0  0  0  0
  181.1210  178.4550  139.8210 C   0  0  1  0  0  3  0  0  0  0  0  0
  179.6810  180.2800  142.0280 S   0  0  0  0  0  0  0  0  0  0  0  0
  181.1880  178.0970  141.3000 C   0  0  0  0  0  2  0  0  0  0  0  0
  180.6560  175.8590  138.6350 C   0  0  0  0  0  0  0  0  0  0  0  0
  181.1790  177.2430  139.0260 N   0  0  0  0  0  0  0  0  0  0  0  0
  179.8320  174.9160  138.7570 O   0  0  0  0  0  0  0  0  0  0  0  0
  181.7960  176.4250  138.0810 C   0  0  1  0  0  3  0  0  0  0  0  0
  183.0330  175.7890  138.6890 C   0  0  0  0  0  2  0  0  0  0  0  0
  184.5470  176.5360  136.8350 C   0  0  0  0  0  2  0  0  0  0  0  0
  183.9870  175.4510  137.6450 N   0  0  0  0  0  0  0  0  0  0  0  0
  184.5280  174.1250  137.5910 C   0  0  0  0  0  3  0  0  0  0  0  0
  185.7050  174.7490  135.5590 C   0  0  0  0  0  3  0  0  0  0  0  0
  185.3090  176.0200  135.6420 C   0  0  0  0  0  3  0  0  0  0  0  0
  185.3540  173.7770  136.6050 C   0  0  0  0  0  3  0  0  0  0  0  0
  1 30  1  0  0  0  0
  1  9  1  0  0  0  0
  2  3  2  0  0  0  0
  4  6  2  0  0  0  0
  5  7  1  0  0  0  0
  5  4  1  0  0  0  0
  6 10  1  0  0  0  0
  6  2  1  0  0  0  0
  7 34  1  6  0  0  0
  7 10  1  0  0  0  0
  8  4  1  0  0  0  0
  8 14  2  0  0  0  0
 11 12  2  0  0  0  0
 11 14  1  0  0  0  0
 12  1  1  0  0  0  0
 13  9  2  0  0  0  0
 13  3  1  0  0  0  0
 14 13  1  0  0  0  0
 15 18  1  0  0  0  0
 16 21  1  0  0  0  0
 17 15  1  0  0  0  0
 18 20  2  0  0  0  0
 19 16  1  0  0  0  0
 19 15  2  0  0  0  0
 20  8  1  0  0  0  0
 21 20  1  0  0  0  0
 23 22  2  0  0  0  0
 23 24  1  0  0  0  0
 24 17  1  0  0  0  0
 25 27  1  0  0  0  0
 26 27  1  0  0  0  0
 27 23  1  0  0  0  0
 28 33  1  0  0  0  0
 29 28  1  0  0  0  0
 30 31  1  0  0  0  0
 31 33  1  0  0  0  0
 32 30  1  0  0  0  0
 32 29  1  0  0  0  0
 35 38  1  0  0  0  0
 35 37  1  0  0  0  0
 36 34  1  1  0  0  0
 37 39  1  0  0  0  0
 38 42  1  6  0  0  0
 38 40  1  0  0  0  0
 39 36  1  0  0  0  0
 40 36  1  0  0  0  0
 41 43  2  0  0  0  0
 41 42  1  0  0  0  0
 44 41  1  0  0  0  0
 44 45  1  1  0  0  0
 44 42  1  0  0  0  0
 46 47  1  0  0  0  0
 47 45  1  0  0  0  0
 48 47  1  0  0  0  0
 49 50  2  0  0  0  0
 49 51  1  0  0  0  0
 50 46  1  0  0  0  0
 51 48  2  0  0  0  0
M  END
>  <MODEL>
5

>  <REMARK>
 VINA RESULT:      -8.2      3.448      8.484
  Name = 
  9 active torsions:
  status: ('A' for Active; 'I' for Inactive)
    1  A    between atoms: N_3  and  C_19
    2  A    between atoms: C_13  and  C_29
    3  A    between atoms: C_14  and  N_16
    4  A    between atoms: C_14  and  CA_26
    5  A    between atoms: N_15  and  C_31
    6  A    between atoms: C_24  and  C_41
    7  A    between atoms: C_28  and  C_41
    8  A    between atoms: C_33  and  C_49
    9  A    between atoms: N_37  and  N_39
                            x       y       z     vdW  Elec       q    Type
                         _______ _______ _______ _____ _____    ______ ____

>  <TORSDO>
F 9

$$$$
=
 OpenBabel11032419233D

 51 58  0  0  1  0  0  0  0  0999 V2000
  190.1690  177.4260  143.3190 N   0  0  0  0  0  0  0  0  0  0  0  0
  186.7970  178.5750  139.9450 C   0  0  0  0  0  3  0  0  0  0  0  0
  187.3300  178.3580  141.1340 C   0  0  0  0  0  3  0  0  0  0  0  0
  188.5670  177.8180  138.3350 C   0  0  0  0  0  0  0  0  0  0  0  0
  188.7930  177.9190  136.8540 C   0  0  0  0  0  2  0  0  0  0  0  0
  187.4240  178.4180  138.6400 C   0  0  0  0  0  0  0  0  0  0  0  0
  187.5720  178.6550  136.3210 C   0  0  2  0  0  3  0  0  0  0  0  0
  189.5180  177.0670  139.2050 C   0  0  0  0  0  0  0  0  0  0  0  0
  188.9760  178.0000  142.7650 C   0  0  0  0  0  3  0  0  0  0  0  0
  186.7690  178.9320  137.4950 N   0  0  0  0  0  2  0  0  0  0  0  0
  190.7270  176.4180  141.2250 C   0  0  0  0  0  3  0  0  0  0  0  0
  190.9900  176.5760  142.5180 C   0  0  0  0  0  3  0  0  0  0  0  0
  188.6670  177.8750  141.4690 C   0  0  0  0  0  0  0  0  0  0  0  0
  189.5950  177.1240  140.5620 C   0  0  0  0  0  0  0  0  0  0  0  0
  192.7780  175.5980  137.8950 C   0  0  0  0  0  0  0  0  0  0  0  0
  190.9990  174.9570  136.3820 C   0  0  0  0  0  2  0  0  0  0  0  0
  194.1370  175.5330  138.3370 N   0  0  0  0  0  2  0  0  0  0  0  0
  191.8110  176.4020  138.6620 C   0  0  0  0  0  3  0  0  0  0  0  0
  192.3710  174.8820  136.8860 N   0  0  0  0  0  0  0  0  0  0  0  0
  190.4990  176.2410  138.4590 C   0  0  0  0  0  0  0  0  0  0  0  0
  190.0070  175.1670  137.5280 C   0  0  0  0  0  2  0  0  0  0  0  0
  196.2630  173.7590  139.2350 N   0  0  0  0  0  2  0  0  0  0  0  0
  196.3350  174.3430  138.0850 C   0  0  0  0  0  0  0  0  0  0  0  0
  195.2000  175.0440  137.5560 N   0  0  0  0  0  2  0  0  0  0  0  0
  198.7760  173.9270  138.0190 C   0  0  0  0  0  1  0  0  0  0  0  0
  197.6640  175.1440  136.1590 C   0  0  0  0  0  1  0  0  0  0  0  0
  197.5030  174.0540  137.2020 C   0  0  0  0  0  3  0  0  0  0  0  0
  190.3800  176.7780  147.4160 O   0  0  0  0  0  0  0  0  0  0  0  0
  191.6210  176.7470  146.7540 C   0  0  0  0  0  2  0  0  0  0  0  0
  190.5490  177.6680  144.7050 C   0  0  0  0  0  3  0  0  0  0  0  0
  189.3140  177.8980  145.5750 C   0  0  0  0  0  2  0  0  0  0  0  0
  191.4110  176.5270  145.2550 C   0  0  0  0  0  2  0  0  0  0  0  0
  189.7490  177.9770  147.0370 C   0  0  0  0  0  2  0  0  0  0  0  0
  186.8140  177.7410  135.3720 C   0  0  0  0  0  2  0  0  0  0  0  0
  183.0090  175.6560  136.2630 C   0  0  0  0  0  2  0  0  0  0  0  0
  185.6810  177.0150  136.0810 C   0  0  2  0  0  3  0  0  0  0  0  0
  184.2420  174.8190  136.5650 C   0  0  0  0  0  2  0  0  0  0  0  0
  183.2500  177.1060  136.6630 C   0  0  1  0  0  3  0  0  0  0  0  0
  185.6110  175.2990  135.4630 S   0  0  0  0  0  0  0  0  0  0  0  0
  184.3560  177.7210  135.8150 C   0  0  0  0  0  2  0  0  0  0  0  0
  181.1300  178.8160  135.6920 C   0  0  0  0  0  0  0  0  0  0  0  0
  182.0270  177.8660  136.4880 N   0  0  0  0  0  0  0  0  0  0  0  0
  180.8980  179.5210  134.6770 O   0  0  0  0  0  0  0  0  0  0  0  0
  180.7990  178.3350  136.9510 C   0  0  1  0  0  3  0  0  0  0  0  0
  181.0280  179.4170  137.9910 C   0  0  0  0  0  2  0  0  0  0  0  0
  180.5480  179.8690  140.4100 C   0  0  0  0  0  2  0  0  0  0  0  0
  180.7260  178.9080  139.3190 N   0  0  0  0  0  0  0  0  0  0  0  0
  180.3790  177.5270  139.4790 C   0  0  0  0  0  3  0  0  0  0  0  0
  180.2890  177.8860  141.8810 C   0  0  0  0  0  3  0  0  0  0  0  0
  180.4990  179.1970  141.7580 C   0  0  0  0  0  3  0  0  0  0  0  0
  180.1620  177.0260  140.6940 C   0  0  0  0  0  3  0  0  0  0  0  0
  1 30  1  0  0  0  0
  2  3  2  0  0  0  0
  3 13  1  0  0  0  0
  4  6  2  0  0  0  0
  4  8  1  0  0  0  0
  5  4  1  0  0  0  0
  6  2  1  0  0  0  0
  7 34  1  6  0  0  0
  7  5  1  0  0  0  0
  7 10  1  0  0  0  0
  8 14  2  0  0  0  0
  9  1  1  0  0  0  0
 10  6  1  0  0  0  0
 11 12  2  0  0  0  0
 12  1  1  0  0  0  0
 13  9  2  0  0  0  0
 14 11  1  0  0  0  0
 14 13  1  0  0  0  0
 15 17  1  0  0  0  0
 15 18  1  0  0  0  0
 16 19  1  0  0  0  0
 16 21  1  0  0  0  0
 19 15  2  0  0  0  0
 20 18  2  0  0  0  0
 20  8  1  0  0  0  0
 21 20  1  0  0  0  0
 23 22  2  0  0  0  0
 24 23  1  0  0  0  0
 24 17  1  0  0  0  0
 26 27  1  0  0  0  0
 27 25  1  0  0  0  0
 27 23  1  0  0  0  0
 29 28  1  0  0  0  0
 30 32  1  0  0  0  0
 30 31  1  0  0  0  0
 31 33  1  0  0  0  0
 32 29  1  0  0  0  0
 33 28  1  0  0  0  0
 35 37  1  0  0  0  0
 35 38  1  0  0  0  0
 36 34  1  6  0  0  0
 38 40  1  6  0  0  0
 39 36  1  0  0  0  0
 39 37  1  0  0  0  0
 40 36  1  0  0  0  0
 41 42  1  0  0  0  0
 41 44  1  0  0  0  0
 42 38  1  0  0  0  0
 42 44  1  0  0  0  0
 43 41  2  0  0  0  0
 44 45  1  1  0  0  0
 45 47  1  0  0  0  0
 46 50  1  0  0  0  0
 47 48  1  0  0  0  0
 47 46  1  0  0  0  0
 48 51  2  0  0  0  0
 50 49  2  0  0  0  0
 51 49  1  0  0  0  0
M  END
>  <MODEL>
6

>  <REMARK>
 VINA RESULT:      -7.7      2.994      6.977
  Name = 
  9 active torsions:
  status: ('A' for Active; 'I' for Inactive)
    1  A    between atoms: N_3  and  C_19
    2  A    between atoms: C_13  and  C_29
    3  A    between atoms: C_14  and  N_16
    4  A    between atoms: C_14  and  CA_26
    5  A    between atoms: N_15  and  C_31
    6  A    between atoms: C_24  and  C_41
    7  A    between atoms: C_28  and  C_41
    8  A    between atoms: C_33  and  C_49
    9  A    between atoms: N_37  and  N_39
                            x       y       z     vdW  Elec       q    Type
                         _______ _______ _______ _____ _____    ______ ____

>  <TORSDO>
F 9

$$$$
=
 OpenBabel11032419233D

 51 58  0  0  1  0  0  0  0  0999 V2000
  194.0540  174.9470  136.5400 N   0  0  0  0  0  0  0  0  0  0  0  0
  189.5770  174.4560  134.5940 C   0  0  0  0  0  3  0  0  0  0  0  0
  190.8960  174.4580  134.6720 C   0  0  0  0  0  3  0  0  0  0  0  0
  188.8320  175.4330  136.7820 C   0  0  0  0  0  0  0  0  0  0  0  0
  187.5270  175.5770  137.5110 C   0  0  0  0  0  2  0  0  0  0  0  0
  188.6170  174.8150  135.6280 C   0  0  0  0  0  0  0  0  0  0  0  0
  186.4900  174.9680  136.5790 C   0  0  2  0  0  3  0  0  0  0  0  0
  190.0900  176.0060  137.3420 C   0  0  0  0  0  0  0  0  0  0  0  0
  193.0320  174.5010  135.6350 C   0  0  0  0  0  3  0  0  0  0  0  0
  187.2470  174.5150  135.4300 N   0  0  0  0  0  2  0  0  0  0  0  0
  192.4820  176.2800  137.7510 C   0  0  0  0  0  3  0  0  0  0  0  0
  193.7410  175.9020  137.5540 C   0  0  0  0  0  3  0  0  0  0  0  0
  191.7490  174.8490  135.7910 C   0  0  0  0  0  0  0  0  0  0  0  0
  191.3600  175.7210  136.9470 C   0  0  0  0  0  0  0  0  0  0  0  0
  189.8260  177.4040  140.8740 C   0  0  0  0  0  0  0  0  0  0  0  0
  188.6780  178.9200  139.3750 C   0  0  0  0  0  2  0  0  0  0  0  0
  190.3320  177.0570  142.1670 N   0  0  0  0  0  2  0  0  0  0  0  0
  190.0660  176.4940  139.7420 C   0  0  0  0  0  3  0  0  0  0  0  0
  189.2440  178.5520  140.6730 N   0  0  0  0  0  0  0  0  0  0  0  0
  189.8790  176.9230  138.4890 C   0  0  0  0  0  0  0  0  0  0  0  0
  189.5280  178.3630  138.2310 C   0  0  0  0  0  2  0  0  0  0  0  0
  188.4770  175.9930  144.1410 N   0  0  0  0  0  2  0  0  0  0  0  0
  188.8710  177.2210  144.2040 C   0  0  0  0  0  0  0  0  0  0  0  0
  189.9390  177.6830  143.3640 N   0  0  0  0  0  2  0  0  0  0  0  0
  189.2350  177.8290  146.5780 C   0  0  0  0  0  1  0  0  0  0  0  0
  186.9360  177.7980  145.6320 C   0  0  0  0  0  1  0  0  0  0  0  0
  188.3980  178.0720  145.3350 C   0  0  0  0  0  3  0  0  0  0  0  0
  198.1610  174.8660  137.1530 O   0  0  0  0  0  0  0  0  0  0  0  0
  197.4750  173.7350  137.6310 C   0  0  0  0  0  2  0  0  0  0  0  0
  195.4250  174.4680  136.4250 C   0  0  0  0  0  3  0  0  0  0  0  0
  196.3140  175.5190  135.7590 C   0  0  0  0  0  2  0  0  0  0  0  0
  195.9870  174.0490  137.7880 C   0  0  0  0  0  2  0  0  0  0  0  0
  197.7650  175.0440  135.8140 C   0  0  0  0  0  2  0  0  0  0  0  0
  185.5000  176.0440  136.1630 C   0  0  0  0  0  2  0  0  0  0  0  0
  181.0820  175.9190  136.4560 C   0  0  0  0  0  2  0  0  0  0  0  0
  184.0620  175.5740  136.3230 C   0  0  2  0  0  3  0  0  0  0  0  0
  181.6380  175.0610  135.3310 C   0  0  0  0  0  2  0  0  0  0  0  0
  181.9780  175.8160  137.6840 C   0  0  1  0  0  3  0  0  0  0  0  0
  183.2060  175.7620  134.7230 S   0  0  0  0  0  0  0  0  0  0  0  0
  183.3560  176.3970  137.3950 C   0  0  0  0  0  2  0  0  0  0  0  0
  180.1750  177.2060  139.4660 C   0  0  0  0  0  0  0  0  0  0  0  0
  181.3710  176.5360  138.7870 N   0  0  0  0  0  0  0  0  0  0  0  0
  178.9610  177.5350  139.4870 O   0  0  0  0  0  0  0  0  0  0  0  0
  181.4520  177.2020  140.0090 C   0  0  1  0  0  3  0  0  0  0  0  0
  182.1010  178.5590  139.8070 C   0  0  0  0  0  2  0  0  0  0  0  0
  184.5450  179.0850  140.0100 C   0  0  0  0  0  2  0  0  0  0  0  0
  183.2860  178.6770  140.6400 N   0  0  0  0  0  0  0  0  0  0  0  0
  183.1500  178.6280  142.0660 C   0  0  0  0  0  3  0  0  0  0  0  0
  185.5700  178.7540  142.2460 C   0  0  0  0  0  3  0  0  0  0  0  0
  185.7240  178.9140  140.9310 C   0  0  0  0  0  3  0  0  0  0  0  0
  184.2290  178.6690  142.8460 C   0  0  0  0  0  3  0  0  0  0  0  0
  1 12  1  0  0  0  0
  2  3  2  0  0  0  0
  2  6  1  0  0  0  0
  3 13  1  0  0  0  0
  4  8  1  0  0  0  0
  4  5  1  0  0  0  0
  6  4  2  0  0  0  0
  7 34  1  6  0  0  0
  7  5  1  0  0  0  0
  8 20  1  0  0  0  0
  9 13  2  0  0  0  0
  9  1  1  0  0  0  0
 10  6  1  0  0  0  0
 10  7  1  0  0  0  0
 12 11  2  0  0  0  0
 13 14  1  0  0  0  0
 14  8  2  0  0  0  0
 14 11  1  0  0  0  0
 15 17  1  0  0  0  0
 16 19  1  0  0  0  0
 17 24  1  0  0  0  0
 18 15  1  0  0  0  0
 19 15  2  0  0  0  0
 20 18  2  0  0  0  0
 21 20  1  0  0  0  0
 21 16  1  0  0  0  0
 22 23  2  0  0  0  0
 23 27  1  0  0  0  0
 24 23  1  0  0  0  0
 27 26  1  0  0  0  0
 27 25  1  0  0  0  0
 28 29  1  0  0  0  0
 29 32  1  0  0  0  0
 30  1  1  0  0  0  0
 30 32  1  0  0  0  0
 31 33  1  0  0  0  0
 31 30  1  0  0  0  0
 33 28  1  0  0  0  0
 36 34  1  6  0  0  0
 36 40  1  0  0  0  0
 37 35  1  0  0  0  0
 38 35  1  6  0  0  0
 38 42  1  0  0  0  0
 39 37  1  0  0  0  0
 39 36  1  0  0  0  0
 40 38  1  0  0  0  0
 41 43  2  0  0  0  0
 41 44  1  0  0  0  0
 42 41  1  0  0  0  0
 42 44  1  0  0  0  0
 44 45  1  6  0  0  0
 45 47  1  0  0  0  0
 46 47  1  0  0  0  0
 46 50  1  0  0  0  0
 47 48  1  0  0  0  0
 48 51  2  0  0  0  0
 49 51  1  0  0  0  0
 50 49  2  0  0  0  0
M  END
>  <MODEL>
7

>  <REMARK>
 VINA RESULT:      -7.6      1.472      2.115
  Name = 
  9 active torsions:
  status: ('A' for Active; 'I' for Inactive)
    1  A    between atoms: N_3  and  C_19
    2  A    between atoms: C_13  and  C_29
    3  A    between atoms: C_14  and  N_16
    4  A    between atoms: C_14  and  CA_26
    5  A    between atoms: N_15  and  C_31
    6  A    between atoms: C_24  and  C_41
    7  A    between atoms: C_28  and  C_41
    8  A    between atoms: C_33  and  C_49
    9  A    between atoms: N_37  and  N_39
                            x       y       z     vdW  Elec       q    Type
                         _______ _______ _______ _____ _____    ______ ____

>  <TORSDO>
F 9

$$$$
=
 OpenBabel11032419233D

 51 58  0  0  1  0  0  0  0  0999 V2000
  190.4500  177.1350  145.8030 N   0  0  0  0  0  0  0  0  0  0  0  0
  191.8740  177.4660  141.1190 C   0  0  0  0  0  3  0  0  0  0  0  0
  191.9590  177.4500  142.4370 C   0  0  0  0  0  3  0  0  0  0  0  0
  189.4060  177.4120  140.6650 C   0  0  0  0  0  0  0  0  0  0  0  0
  188.5350  177.2170  139.4580 C   0  0  0  0  0  2  0  0  0  0  0  0
  190.6780  177.3410  140.2970 C   0  0  0  0  0  0  0  0  0  0  0  0
  189.5060  177.0500  138.2980 C   0  0  2  0  0  3  0  0  0  0  0  0
  188.8090  177.7070  142.0000 C   0  0  0  0  0  0  0  0  0  0  0  0
  191.3290  177.1040  144.6690 C   0  0  0  0  0  3  0  0  0  0  0  0
  190.8200  177.1380  138.9030 N   0  0  0  0  0  2  0  0  0  0  0  0
  188.6110  177.8080  144.4320 C   0  0  0  0  0  3  0  0  0  0  0  0
  189.0970  177.5640  145.6450 C   0  0  0  0  0  3  0  0  0  0  0  0
  190.8900  177.3370  143.4270 C   0  0  0  0  0  0  0  0  0  0  0  0
  189.4370  177.6310  143.2050 C   0  0  0  0  0  0  0  0  0  0  0  0
  185.4170  179.0080  140.8610 C   0  0  0  0  0  0  0  0  0  0  0  0
  185.3170  178.6290  143.2500 C   0  0  0  0  0  2  0  0  0  0  0  0
  184.8000  179.3410  139.6130 N   0  0  0  0  0  2  0  0  0  0  0  0
  186.8450  178.6480  140.8810 C   0  0  0  0  0  3  0  0  0  0  0  0
  184.7110  178.9270  141.9510 N   0  0  0  0  0  0  0  0  0  0  0  0
  187.3660  178.0470  141.9570 C   0  0  0  0  0  0  0  0  0  0  0  0
  186.4750  177.6410  143.0990 C   0  0  0  0  0  2  0  0  0  0  0  0
  182.2240  178.0030  139.4040 N   0  0  0  0  0  2  0  0  0  0  0  0
  182.3260  179.2730  139.1860 C   0  0  0  0  0  0  0  0  0  0  0  0
  183.5450  179.9640  139.4930 N   0  0  0  0  0  2  0  0  0  0  0  0
  180.4370  179.5360  137.6060 C   0  0  0  0  0  1  0  0  0  0  0  0
  181.4150  181.5260  138.7300 C   0  0  0  0  0  1  0  0  0  0  0  0
  181.0910  180.0510  138.8750 C   0  0  0  0  0  3  0  0  0  0  0  0
  193.0650  176.8630  149.0180 O   0  0  0  0  0  0  0  0  0  0  0  0
  191.8720  177.5570  149.2910 C   0  0  0  0  0  2  0  0  0  0  0  0
  190.9190  176.7650  147.1320 C   0  0  0  0  0  3  0  0  0  0  0  0
  192.1410  175.8520  147.0420 C   0  0  0  0  0  2  0  0  0  0  0  0
  191.2130  178.0030  147.9850 C   0  0  0  0  0  2  0  0  0  0  0  0
  192.6960  175.6310  148.4490 C   0  0  0  0  0  2  0  0  0  0  0  0
  189.3070  178.1900  137.3120 C   0  0  0  0  0  2  0  0  0  0  0  0
  186.3130  176.2720  134.6710 C   0  0  0  0  0  2  0  0  0  0  0  0
  188.5070  177.7450  136.0970 C   0  0  2  0  0  3  0  0  0  0  0  0
  186.3000  177.7900  134.5960 C   0  0  0  0  0  2  0  0  0  0  0  0
  187.7460  175.7650  134.7720 C   0  0  1  0  0  3  0  0  0  0  0  0
  186.8480  178.5000  136.1820 S   0  0  0  0  0  0  0  0  0  0  0  0
  188.3890  176.2250  136.0740 C   0  0  0  0  0  2  0  0  0  0  0  0
  187.0420  172.9610  134.7520 C   0  0  0  0  0  0  0  0  0  0  0  0
  187.7510  174.3160  134.7150 N   0  0  0  0  0  0  0  0  0  0  0  0
  185.9970  172.2650  134.8450 O   0  0  0  0  0  0  0  0  0  0  0  0
  188.4190  173.0940  134.6480 C   0  0  1  0  0  3  0  0  0  0  0  0
  189.0670  172.7950  135.9890 C   0  0  0  0  0  2  0  0  0  0  0  0
  191.1590  173.3610  134.7270 C   0  0  0  0  0  2  0  0  0  0  0  0
  190.4390  173.2770  136.0000 N   0  0  0  0  0  0  0  0  0  0  0  0
  190.9630  173.8730  137.1940 C   0  0  0  0  0  3  0  0  0  0  0  0
  193.1150  174.0720  136.0810 C   0  0  0  0  0  3  0  0  0  0  0  0
  192.6290  173.6250  134.9220 C   0  0  0  0  0  3  0  0  0  0  0  0
  192.2360  174.2620  137.2460 C   0  0  0  0  0  3  0  0  0  0  0  0
  1 30  1  0  0  0  0
  2  3  2  0  0  0  0
  3 13  1  0  0  0  0
  4  8  1  0  0  0  0
  5  4  1  0  0  0  0
  6  4  2  0  0  0  0
  6  2  1  0  0  0  0
  7 34  1  6  0  0  0
  7 10  1  0  0  0  0
  7  5  1  0  0  0  0
  8 14  2  0  0  0  0
  9  1  1  0  0  0  0
 10  6  1  0  0  0  0
 11 12  2  0  0  0  0
 12  1  1  0  0  0  0
 13  9  2  0  0  0  0
 14 13  1  0  0  0  0
 14 11  1  0  0  0  0
 15 18  1  0  0  0  0
 15 19  2  0  0  0  0
 17 15  1  0  0  0  0
 18 20  2  0  0  0  0
 19 16  1  0  0  0  0
 20  8  1  0  0  0  0
 20 21  1  0  0  0  0
 21 16  1  0  0  0  0
 23 22  2  0  0  0  0
 23 24  1  0  0  0  0
 24 17  1  0  0  0  0
 25 27  1  0  0  0  0
 26 27  1  0  0  0  0
 27 23  1  0  0  0  0
 28 29  1  0  0  0  0
 30 32  1  0  0  0  0
 31 30  1  0  0  0  0
 31 33  1  0  0  0  0
 32 29  1  0  0  0  0
 33 28  1  0  0  0  0
 36 39  1  0  0  0  0
 36 34  1  1  0  0  0
 37 35  1  0  0  0  0
 37 39  1  0  0  0  0
 38 35  1  1  0  0  0
 38 40  1  0  0  0  0
 40 36  1  0  0  0  0
 41 43  2  0  0  0  0
 42 41  1  0  0  0  0
 42 38  1  0  0  0  0
 44 42  1  0  0  0  0
 44 41  1  0  0  0  0
 44 45  1  1  0  0  0
 45 47  1  0  0  0  0
 46 50  1  0  0  0  0
 46 47  1  0  0  0  0
 47 48  1  0  0  0  0
 48 51  2  0  0  0  0
 49 51  1  0  0  0  0
 50 49  2  0  0  0  0
M  END
>  <MODEL>
8

>  <REMARK>
 VINA RESULT:      -7.3      3.290      9.103
  Name = 
  9 active torsions:
  status: ('A' for Active; 'I' for Inactive)
    1  A    between atoms: N_3  and  C_19
    2  A    between atoms: C_13  and  C_29
    3  A    between atoms: C_14  and  N_16
    4  A    between atoms: C_14  and  CA_26
    5  A    between atoms: N_15  and  C_31
    6  A    between atoms: C_24  and  C_41
    7  A    between atoms: C_28  and  C_41
    8  A    between atoms: C_33  and  C_49
    9  A    between atoms: N_37  and  N_39
                            x       y       z     vdW  Elec       q    Type
                         _______ _______ _______ _____ _____    ______ ____

>  <TORSDO>
F 9

$$$$
=
 OpenBabel11032419233D

 51 58  0  0  1  0  0  0  0  0999 V2000
  190.5720  177.1240  146.0930 N   0  0  0  0  0  0  0  0  0  0  0  0
  192.0040  177.4030  141.4090 C   0  0  0  0  0  3  0  0  0  0  0  0
  192.0870  177.4020  142.7270 C   0  0  0  0  0  3  0  0  0  0  0  0
  189.5380  177.3380  140.9510 C   0  0  0  0  0  0  0  0  0  0  0  0
  188.6690  177.1260  139.7440 C   0  0  0  0  0  2  0  0  0  0  0  0
  190.8100  177.2650  140.5860 C   0  0  0  0  0  0  0  0  0  0  0  0
  189.6430  176.9480  138.5880 C   0  0  2  0  0  3  0  0  0  0  0  0
  188.9380  177.6470  142.2810 C   0  0  0  0  0  0  0  0  0  0  0  0
  191.4540  177.0810  144.9620 C   0  0  0  0  0  3  0  0  0  0  0  0
  190.9550  177.0460  139.1950 N   0  0  0  0  0  2  0  0  0  0  0  0
  188.7340  177.7770  144.7110 C   0  0  0  0  0  3  0  0  0  0  0  0
  189.2190  177.5480  145.9280 C   0  0  0  0  0  3  0  0  0  0  0  0
  191.0160  177.2990  143.7160 C   0  0  0  0  0  0  0  0  0  0  0  0
  189.5630  177.5870  143.4880 C   0  0  0  0  0  0  0  0  0  0  0  0
  185.5580  178.9890  141.1510 C   0  0  0  0  0  0  0  0  0  0  0  0
  185.4220  178.4970  143.5180 C   0  0  0  0  0  2  0  0  0  0  0  0
  184.9600  179.3790  139.9110 N   0  0  0  0  0  2  0  0  0  0  0  0
  186.9870  178.6330  141.1770 C   0  0  0  0  0  3  0  0  0  0  0  0
  184.8350  178.8530  142.2250 N   0  0  0  0  0  0  0  0  0  0  0  0
  187.4940  177.9840  142.2310 C   0  0  0  0  0  0  0  0  0  0  0  0
  186.5870  177.5210  143.3380 C   0  0  0  0  0  2  0  0  0  0  0  0
  182.7450  178.5130  138.2320 N   0  0  0  0  0  2  0  0  0  0  0  0
  182.7180  179.6660  138.8130 C   0  0  0  0  0  0  0  0  0  0  0  0
  183.7030  180.0020  139.8010 N   0  0  0  0  0  2  0  0  0  0  0  0
  180.5560  180.3400  139.8160 C   0  0  0  0  0  1  0  0  0  0  0  0
  180.8030  180.2100  137.3460 C   0  0  0  0  0  1  0  0  0  0  0  0
  181.5100  180.5270  138.6500 C   0  0  0  0  0  3  0  0  0  0  0  0
  193.1890  176.8780  149.3090 O   0  0  0  0  0  0  0  0  0  0  0  0
  192.0030  177.5880  149.5720 C   0  0  0  0  0  2  0  0  0  0  0  0
  191.0400  176.7710  147.4280 C   0  0  0  0  0  3  0  0  0  0  0  0
  192.2530  175.8440  147.3510 C   0  0  0  0  0  2  0  0  0  0  0  0
  191.3470  178.0200  148.2610 C   0  0  0  0  0  2  0  0  0  0  0  0
  192.8080  175.6400  148.7600 C   0  0  0  0  0  2  0  0  0  0  0  0
  189.4430  178.0760  137.5890 C   0  0  0  0  0  2  0  0  0  0  0  0
  186.2360  176.3290  135.0830 C   0  0  0  0  0  2  0  0  0  0  0  0
  188.5960  177.6310  136.4060 C   0  0  2  0  0  3  0  0  0  0  0  0
  186.4170  177.8240  134.8760 C   0  0  0  0  0  2  0  0  0  0  0  0
  187.5920  175.6550  135.2470 C   0  0  1  0  0  3  0  0  0  0  0  0
  187.0470  178.5950  136.4020 S   0  0  0  0  0  0  0  0  0  0  0  0
  188.2850  176.1420  136.5130 C   0  0  0  0  0  2  0  0  0  0  0  0
  187.8760  172.7850  135.0430 C   0  0  0  0  0  0  0  0  0  0  0  0
  187.4130  174.2170  135.3160 N   0  0  0  0  0  0  0  0  0  0  0  0
  188.7170  171.9650  134.5940 O   0  0  0  0  0  0  0  0  0  0  0  0
  186.6540  173.0900  135.6260 C   0  0  1  0  0  3  0  0  0  0  0  0
  185.5420  172.9300  134.6040 C   0  0  0  0  0  2  0  0  0  0  0  0
  184.4030  171.6720  136.4510 C   0  0  0  0  0  2  0  0  0  0  0  0
  184.3110  172.5260  135.2630 N   0  0  0  0  0  0  0  0  0  0  0  0
  183.0770  173.1510  134.8900 C   0  0  0  0  0  3  0  0  0  0  0  0
  181.9210  171.6540  136.4160 C   0  0  0  0  0  3  0  0  0  0  0  0
  183.0610  171.1290  136.8660 C   0  0  0  0  0  3  0  0  0  0  0  0
  181.9290  172.7500  135.4350 C   0  0  0  0  0  3  0  0  0  0  0  0
  1 30  1  0  0  0  0
  2  3  2  0  0  0  0
  3 13  1  0  0  0  0
  4  8  1  0  0  0  0
  5  4  1  0  0  0  0
  6  4  2  0  0  0  0
  6  2  1  0  0  0  0
  7 34  1  6  0  0  0
  7 10  1  0  0  0  0
  7  5  1  0  0  0  0
  8 14  2  0  0  0  0
  9  1  1  0  0  0  0
 10  6  1  0  0  0  0
 11 12  2  0  0  0  0
 12  1  1  0  0  0  0
 13  9  2  0  0  0  0
 14 13  1  0  0  0  0
 14 11  1  0  0  0  0
 15 18  1  0  0  0  0
 15 19  2  0  0  0  0
 17 15  1  0  0  0  0
 18 20  2  0  0  0  0
 19 16  1  0  0  0  0
 20  8  1  0  0  0  0
 20 21  1  0  0  0  0
 21 16  1  0  0  0  0
 22 23  2  0  0  0  0
 23 24  1  0  0  0  0
 24 17  1  0  0  0  0
 26 27  1  0  0  0  0
 27 23  1  0  0  0  0
 27 25  1  0  0  0  0
 28 29  1  0  0  0  0
 30 32  1  0  0  0  0
 31 30  1  0  0  0  0
 31 33  1  0  0  0  0
 32 29  1  0  0  0  0
 33 28  1  0  0  0  0
 36 40  1  0  0  0  0
 36 34  1  1  0  0  0
 37 35  1  0  0  0  0
 37 39  1  0  0  0  0
 38 35  1  1  0  0  0
 38 42  1  0  0  0  0
 38 40  1  0  0  0  0
 39 36  1  0  0  0  0
 41 42  1  0  0  0  0
 41 44  1  0  0  0  0
 42 44  1  0  0  0  0
 43 41  2  0  0  0  0
 44 45  1  6  0  0  0
 45 47  1  0  0  0  0
 46 50  1  0  0  0  0
 47 46  1  0  0  0  0
 48 47  1  0  0  0  0
 48 51  2  0  0  0  0
 49 50  2  0  0  0  0
 51 49  1  0  0  0  0
M  END
>  <MODEL>
9

>  <REMARK>
 VINA RESULT:      -7.0      3.871      9.037
  Name = 
  9 active torsions:
  status: ('A' for Active; 'I' for Inactive)
    1  A    between atoms: N_3  and  C_19
    2  A    between atoms: C_13  and  C_29
    3  A    between atoms: C_14  and  N_16
    4  A    between atoms: C_14  and  CA_26
    5  A    between atoms: N_15  and  C_31
    6  A    between atoms: C_24  and  C_41
    7  A    between atoms: C_28  and  C_41
    8  A    between atoms: C_33  and  C_49
    9  A    between atoms: N_37  and  N_39
                            x       y       z     vdW  Elec       q    Type
                         _______ _______ _______ _____ _____    ______ ____

>  <TORSDO>
F 9

$$$$
