=
 OpenBabel11042411363D

 35 40  0  0  1  0  0  0  0  0999 V2000
  187.3430  178.0690  142.1540 S   0  0  0  0  0  0  0  0  0  0  0  0
  185.1300  179.0750  141.0100 C   0  0  1  0  0  3  0  0  0  0  0  0
  185.8000  178.1670  143.1100 C   0  0  2  0  0  3  0  0  0  0  0  0
  184.8890  179.1030  142.4510 N   0  0  0  0  0  2  0  0  0  0  0  0
  186.3150  178.1800  140.6780 C   0  0  1  0  0  3  0  0  0  0  0  0
  182.1820  179.0670  138.5680 C   0  0  0  0  0  0  0  0  0  0  0  0
  181.6020  177.8450  138.9290 C   0  0  0  0  0  3  0  0  0  0  0  0
  183.9510  180.7050  138.9130 O   0  0  0  0  0  1  0  0  0  0  0  0
  183.8950  178.6820  140.2530 C   0  0  0  0  0  0  0  0  0  0  0  0
  182.1740  177.0740  139.9390 C   0  0  0  0  0  3  0  0  0  0  0  0
  183.2950  177.5060  140.5720 N   0  0  0  0  0  0  0  0  0  0  0  0
  183.3470  179.4940  139.2400 C   0  0  0  0  0  0  0  0  0  0  0  0
  181.2980  179.3750  136.2580 N   0  0  0  0  0  0  0  0  0  0  0  0
  180.7250  180.4250  135.6350 C   0  0  0  0  0  3  0  0  0  0  0  0
  181.5480  179.8600  137.4910 C   0  0  0  0  0  0  0  0  0  0  0  0
  180.6340  181.4890  136.4540 N   0  0  0  0  0  0  0  0  0  0  0  0
  181.1490  181.1370  137.6190 N   0  0  0  0  0  2  0  0  0  0  0  0
  186.0730  178.5990  144.5560 C   0  0  1  0  0  3  0  0  0  0  0  0
  184.1010  178.9210  145.9210 N   0  0  0  0  0  2  0  0  0  0  0  0
  184.9440  179.4250  145.0980 C   0  0  0  0  0  3  0  0  0  0  0  0
  186.2470  177.3710  145.4440 C   0  0  0  0  0  2  0  0  0  0  0  0
  189.8290  177.3760  146.6800 C   0  0  0  0  0  3  0  0  0  0  0  0
  188.3890  178.1370  148.4740 C   0  0  0  0  0  3  0  0  0  0  0  0
  187.2740  177.9820  147.6460 C   0  0  0  0  0  3  0  0  0  0  0  0
  187.4340  177.5210  146.3340 C   0  0  0  0  0  0  0  0  0  0  0  0
  188.7130  177.2200  145.8520 C   0  0  0  0  0  3  0  0  0  0  0  0
  189.6660  177.8340  147.9920 C   0  0  0  0  0  3  0  0  0  0  0  0
  187.0650  178.6480  139.5080 N   0  0  0  0  0  2  0  0  0  0  0  0
  188.7730  177.2770  138.4720 C   0  0  2  0  0  3  0  0  0  0  0  0
  189.1970  178.7270  138.3540 C   0  0  0  0  0  2  0  0  0  0  0  0
  188.4670  178.2520  139.5920 C   0  0  1  0  0  3  0  0  0  0  0  0
  189.9190  176.4710  138.8500 N   0  0  0  0  0  2  0  0  0  0  0  0
  191.7740  175.3290  137.8540 C   0  0  0  0  0  2  0  0  0  0  0  0
  190.8040  176.4330  137.7000 C   0  0  2  0  0  3  0  0  0  0  0  0
  192.1250  176.6620  138.1280 O   0  0  0  0  0  0  0  0  0  0  0  0
  1  3  1  0  0  0  0
  2  9  1  6  0  0  0
  2  4  1  0  0  0  0
  3 18  1  1  0  0  0
  4  3  1  0  0  0  0
  5 28  1  6  0  0  0
  5  2  1  0  0  0  0
  5  1  1  0  0  0  0
  6  7  2  0  0  0  0
  6 12  1  0  0  0  0
  7 10  1  0  0  0  0
  8 12  1  0  0  0  0
  9 11  1  0  0  0  0
 10 11  2  0  0  0  0
 12  9  2  0  0  0  0
 13 15  2  0  0  0  0
 14 13  1  0  0  0  0
 14 16  2  0  0  0  0
 15 17  1  0  0  0  0
 15  6  1  0  0  0  0
 16 17  1  0  0  0  0
 18 20  1  1  0  0  0
 18 21  1  0  0  0  0
 20 19  2  0  0  0  0
 21 25  1  0  0  0  0
 22 27  1  0  0  0  0
 24 23  1  0  0  0  0
 25 24  2  0  0  0  0
 26 25  1  0  0  0  0
 26 22  2  0  0  0  0
 27 23  2  0  0  0  0
 29 32  1  1  0  0  0
 29 31  1  0  0  0  0
 30 29  1  0  0  0  0
 30 31  1  0  0  0  0
 31 28  1  6  0  0  0
 33 35  1  0  0  0  0
 34 33  1  0  0  0  0
 34 35  1  0  0  0  0
 34 32  1  1  0  0  0
M  END
>  <MODEL>
1

>  <REMARK>
 VINA RESULT:      -8.2      0.000      0.000
  Name = 
  10 active torsions:
  status: ('A' for Active; 'I' for Inactive)
    1  A    between atoms: C_6  and  N_18
    2  A    between atoms: C_7  and  C_22
    3  A    between atoms: C_10  and  C_12
    4  A    between atoms: C_10  and  C_16
    5  A    between atoms: C_13  and  C_16
    6  A    between atoms: C_16  and  C_21
    7  A    between atoms: C_17  and  C_19
    8  A    between atoms: N_18  and  C_20
    9  A    between atoms: C_25  and  N_26
   10  A    between atoms: N_26  and  C_34
                            x       y       z     vdW  Elec       q    Type
                         _______ _______ _______ _____ _____    ______ ____

>  <TORSDO>
F 10

$$$$
=
 OpenBabel11042411363D

 35 40  0  0  1  0  0  0  0  0999 V2000
  189.7030  177.1200  140.9340 S   0  0  0  0  0  0  0  0  0  0  0  0
  187.5000  178.6440  141.1440 C   0  0  1  0  0  3  0  0  0  0  0  0
  188.5380  176.8350  142.2990 C   0  0  2  0  0  3  0  0  0  0  0  0
  187.6800  178.0110  142.4490 N   0  0  0  0  0  2  0  0  0  0  0  0
  188.3470  177.9520  140.0870 C   0  0  1  0  0  3  0  0  0  0  0  0
  183.6760  178.7640  141.2880 C   0  0  0  0  0  0  0  0  0  0  0  0
  183.4080  178.8200  139.9150 C   0  0  0  0  0  3  0  0  0  0  0  0
  185.3280  178.6440  143.0750 O   0  0  0  0  0  1  0  0  0  0  0  0
  186.0520  178.7060  140.7580 C   0  0  0  0  0  0  0  0  0  0  0  0
  184.4580  178.8150  138.9990 C   0  0  0  0  0  3  0  0  0  0  0  0
  185.7420  178.7580  139.4360 N   0  0  0  0  0  0  0  0  0  0  0  0
  185.0190  178.7050  141.7180 C   0  0  0  0  0  0  0  0  0  0  0  0
  181.2490  178.6900  141.8450 N   0  0  0  0  0  0  0  0  0  0  0  0
  180.5820  178.7270  143.0160 C   0  0  0  0  0  3  0  0  0  0  0  0
  182.5370  178.7700  142.2330 C   0  0  0  0  0  0  0  0  0  0  0  0
  181.4280  178.8240  144.0580 N   0  0  0  0  0  0  0  0  0  0  0  0
  182.6560  178.8510  143.5690 N   0  0  0  0  0  2  0  0  0  0  0  0
  189.2810  176.5320  143.6060 C   0  0  1  0  0  3  0  0  0  0  0  0
  191.5990  176.0400  144.0930 N   0  0  0  0  0  2  0  0  0  0  0  0
  190.5820  175.8330  143.3410 C   0  0  0  0  0  3  0  0  0  0  0  0
  189.5690  177.8290  144.3550 C   0  0  0  0  0  2  0  0  0  0  0  0
  189.1710  177.6550  148.1190 C   0  0  0  0  0  3  0  0  0  0  0  0
  186.9850  177.9660  147.1230 C   0  0  0  0  0  3  0  0  0  0  0  0
  187.5640  177.9680  145.8500 C   0  0  0  0  0  3  0  0  0  0  0  0
  188.9480  177.8110  145.7100 C   0  0  0  0  0  0  0  0  0  0  0  0
  189.7510  177.6560  146.8460 C   0  0  0  0  0  3  0  0  0  0  0  0
  187.7880  177.8100  148.2570 C   0  0  0  0  0  3  0  0  0  0  0  0
  188.8180  178.8750  139.0490 N   0  0  0  0  0  2  0  0  0  0  0  0
  188.1850  177.6390  137.0630 C   0  0  2  0  0  3  0  0  0  0  0  0
  188.9560  178.8680  136.6270 C   0  0  0  0  0  2  0  0  0  0  0  0
  189.3430  178.1450  137.8990 C   0  0  1  0  0  3  0  0  0  0  0  0
  188.6280  176.4940  136.2890 N   0  0  0  0  0  2  0  0  0  0  0  0
  187.1360  175.2520  134.8850 C   0  0  0  0  0  2  0  0  0  0  0  0
  187.5300  175.5430  136.2790 C   0  0  2  0  0  3  0  0  0  0  0  0
  186.4060  176.1470  135.6860 O   0  0  0  0  0  0  0  0  0  0  0  0
  1  3  1  0  0  0  0
  2  9  1  6  0  0  0
  2  4  1  0  0  0  0
  3  4  1  0  0  0  0
  3 18  1  1  0  0  0
  5 28  1  6  0  0  0
  5  1  1  0  0  0  0
  5  2  1  0  0  0  0
  6 12  1  0  0  0  0
  6 15  1  0  0  0  0
  7  6  2  0  0  0  0
  9 12  2  0  0  0  0
 10 11  2  0  0  0  0
 10  7  1  0  0  0  0
 11  9  1  0  0  0  0
 12  8  1  0  0  0  0
 13 15  2  0  0  0  0
 13 14  1  0  0  0  0
 14 16  2  0  0  0  0
 15 17  1  0  0  0  0
 17 16  1  0  0  0  0
 18 20  1  6  0  0  0
 18 21  1  0  0  0  0
 20 19  2  0  0  0  0
 21 25  1  0  0  0  0
 22 27  1  0  0  0  0
 23 27  2  0  0  0  0
 24 23  1  0  0  0  0
 25 24  2  0  0  0  0
 25 26  1  0  0  0  0
 26 22  2  0  0  0  0
 29 32  1  6  0  0  0
 29 31  1  0  0  0  0
 30 29  1  0  0  0  0
 30 31  1  0  0  0  0
 31 28  1  1  0  0  0
 33 35  1  0  0  0  0
 33 34  1  0  0  0  0
 34 32  1  6  0  0  0
 35 34  1  0  0  0  0
M  END
>  <MODEL>
2

>  <REMARK>
 VINA RESULT:      -7.5      2.867      4.125
  Name = 
  10 active torsions:
  status: ('A' for Active; 'I' for Inactive)
    1  A    between atoms: C_6  and  N_18
    2  A    between atoms: C_7  and  C_22
    3  A    between atoms: C_10  and  C_12
    4  A    between atoms: C_10  and  C_16
    5  A    between atoms: C_13  and  C_16
    6  A    between atoms: C_16  and  C_21
    7  A    between atoms: C_17  and  C_19
    8  A    between atoms: N_18  and  C_20
    9  A    between atoms: C_25  and  N_26
   10  A    between atoms: N_26  and  C_34
                            x       y       z     vdW  Elec       q    Type
                         _______ _______ _______ _____ _____    ______ ____

>  <TORSDO>
F 10

$$$$
=
 OpenBabel11042411363D

 35 40  0  0  1  0  0  0  0  0999 V2000
  187.6410  177.1560  144.1630 S   0  0  0  0  0  0  0  0  0  0  0  0
  188.0520  178.2330  141.7360 C   0  0  1  0  0  3  0  0  0  0  0  0
  186.2180  177.6180  143.1300 C   0  0  2  0  0  3  0  0  0  0  0  0
  186.6660  178.5380  142.0840 N   0  0  0  0  0  2  0  0  0  0  0  0
  188.6110  177.1480  142.6430 C   0  0  1  0  0  3  0  0  0  0  0  0
  189.3440  176.8350  138.4140 C   0  0  0  0  0  0  0  0  0  0  0  0
  188.3300  177.3040  137.5710 C   0  0  0  0  0  3  0  0  0  0  0  0
  190.2660  176.6840  140.6650 O   0  0  0  0  0  1  0  0  0  0  0  0
  188.1890  177.8830  140.2840 C   0  0  0  0  0  0  0  0  0  0  0  0
  187.2760  178.0500  138.0960 C   0  0  0  0  0  3  0  0  0  0  0  0
  187.2300  178.3200  139.4260 N   0  0  0  0  0  0  0  0  0  0  0  0
  189.2740  177.1290  139.7930 C   0  0  0  0  0  0  0  0  0  0  0  0
  191.5420  176.6020  137.2630 N   0  0  0  0  0  0  0  0  0  0  0  0
  192.2570  175.5270  136.8750 C   0  0  0  0  0  3  0  0  0  0  0  0
  190.4480  176.0470  137.8230 C   0  0  0  0  0  0  0  0  0  0  0  0
  191.6240  174.3810  137.1870 N   0  0  0  0  0  0  0  0  0  0  0  0
  190.4900  174.7040  137.7830 N   0  0  0  0  0  2  0  0  0  0  0  0
  185.1060  178.2510  143.9740 C   0  0  1  0  0  3  0  0  0  0  0  0
  184.9560  178.8990  146.3000 N   0  0  0  0  0  2  0  0  0  0  0  0
  185.6560  178.8640  145.2280 C   0  0  0  0  0  3  0  0  0  0  0  0
  184.3970  179.3370  143.1720 C   0  0  0  0  0  2  0  0  0  0  0  0
  181.1310  178.4130  141.4870 C   0  0  0  0  0  3  0  0  0  0  0  0
  180.7530  178.5690  143.8750 C   0  0  0  0  0  3  0  0  0  0  0  0
  182.0970  178.9030  144.0670 C   0  0  0  0  0  3  0  0  0  0  0  0
  182.9590  178.9960  142.9680 C   0  0  0  0  0  0  0  0  0  0  0  0
  182.4750  178.7490  141.6780 C   0  0  0  0  0  3  0  0  0  0  0  0
  180.2700  178.3230  142.5860 C   0  0  0  0  0  3  0  0  0  0  0  0
  190.0470  177.3060  142.8950 N   0  0  0  0  0  2  0  0  0  0  0  0
  191.6360  177.2140  144.7220 C   0  0  2  0  0  3  0  0  0  0  0  0
  191.4990  178.6600  144.2890 C   0  0  0  0  0  2  0  0  0  0  0  0
  190.2920  177.7460  144.2650 C   0  0  1  0  0  3  0  0  0  0  0  0
  191.6480  177.1460  146.1710 N   0  0  0  0  0  2  0  0  0  0  0  0
  191.6250  175.4240  147.8360 C   0  0  0  0  0  2  0  0  0  0  0  0
  192.1690  175.8380  146.5260 C   0  0  2  0  0  3  0  0  0  0  0  0
  192.9220  175.9490  147.7090 O   0  0  0  0  0  0  0  0  0  0  0  0
  2  9  1  6  0  0  0
  2  4  1  0  0  0  0
  2  5  1  0  0  0  0
  3 18  1  1  0  0  0
  3  1  1  0  0  0  0
  4  3  1  0  0  0  0
  5 28  1  1  0  0  0
  5  1  1  0  0  0  0
  6 12  1  0  0  0  0
  7 10  1  0  0  0  0
  7  6  2  0  0  0  0
 10 11  2  0  0  0  0
 11  9  1  0  0  0  0
 12  9  2  0  0  0  0
 12  8  1  0  0  0  0
 13 15  2  0  0  0  0
 14 16  2  0  0  0  0
 14 13  1  0  0  0  0
 15  6  1  0  0  0  0
 16 17  1  0  0  0  0
 17 15  1  0  0  0  0
 18 21  1  6  0  0  0
 18 20  1  0  0  0  0
 20 19  2  0  0  0  0
 22 26  2  0  0  0  0
 22 27  1  0  0  0  0
 23 24  1  0  0  0  0
 25 21  1  0  0  0  0
 25 24  2  0  0  0  0
 26 25  1  0  0  0  0
 27 23  2  0  0  0  0
 29 32  1  1  0  0  0
 30 29  1  0  0  0  0
 31 28  1  6  0  0  0
 31 30  1  0  0  0  0
 31 29  1  0  0  0  0
 34 32  1  1  0  0  0
 34 35  1  0  0  0  0
 34 33  1  0  0  0  0
 35 33  1  0  0  0  0
M  END
>  <MODEL>
3

>  <REMARK>
 VINA RESULT:      -7.4      3.463      7.330
  Name = 
  10 active torsions:
  status: ('A' for Active; 'I' for Inactive)
    1  A    between atoms: C_6  and  N_18
    2  A    between atoms: C_7  and  C_22
    3  A    between atoms: C_10  and  C_12
    4  A    between atoms: C_10  and  C_16
    5  A    between atoms: C_13  and  C_16
    6  A    between atoms: C_16  and  C_21
    7  A    between atoms: C_17  and  C_19
    8  A    between atoms: N_18  and  C_20
    9  A    between atoms: C_25  and  N_26
   10  A    between atoms: N_26  and  C_34
                            x       y       z     vdW  Elec       q    Type
                         _______ _______ _______ _____ _____    ______ ____

>  <TORSDO>
F 10

$$$$
=
 OpenBabel11042411363D

 35 40  0  0  1  0  0  0  0  0999 V2000
  187.2990  179.0070  140.9150 S   0  0  0  0  0  0  0  0  0  0  0  0
  189.0770  177.1440  140.1490 C   0  0  1  0  0  3  0  0  0  0  0  0
  188.3630  178.2140  142.1570 C   0  0  2  0  0  3  0  0  0  0  0  0
  188.9190  176.9830  141.5930 N   0  0  0  0  0  2  0  0  0  0  0  0
  188.5100  178.4780  139.6890 C   0  0  1  0  0  3  0  0  0  0  0  0
  192.2240  176.0690  138.2530 C   0  0  0  0  0  0  0  0  0  0  0  0
  193.1860  176.6920  139.0570 C   0  0  0  0  0  3  0  0  0  0  0  0
  189.8740  175.5960  137.8220 O   0  0  0  0  0  1  0  0  0  0  0  0
  190.5050  176.9600  139.7280 C   0  0  0  0  0  0  0  0  0  0  0  0
  192.7920  177.4270  140.1730 C   0  0  0  0  0  3  0  0  0  0  0  0
  191.4750  177.5430  140.4810 N   0  0  0  0  0  0  0  0  0  0  0  0
  190.8610  176.2040  138.5930 C   0  0  0  0  0  0  0  0  0  0  0  0
  193.0830  175.8640  135.9240 N   0  0  0  0  0  0  0  0  0  0  0  0
  193.3990  174.7980  135.1600 C   0  0  0  0  0  3  0  0  0  0  0  0
  192.6780  175.2950  137.0760 C   0  0  0  0  0  0  0  0  0  0  0  0
  193.1940  173.6440  135.8220 N   0  0  0  0  0  0  0  0  0  0  0  0
  192.7430  173.9540  137.0250 N   0  0  0  0  0  2  0  0  0  0  0  0
  187.5850  177.9200  143.4450 C   0  0  1  0  0  3  0  0  0  0  0  0
  185.1920  178.1090  143.7510 N   0  0  0  0  0  2  0  0  0  0  0  0
  186.1660  177.5350  143.1470 C   0  0  0  0  0  3  0  0  0  0  0  0
  188.2490  176.7790  144.2080 C   0  0  0  0  0  2  0  0  0  0  0  0
  187.7410  178.0460  147.7430 C   0  0  0  0  0  3  0  0  0  0  0  0
  190.0480  177.3480  147.4940 C   0  0  0  0  0  3  0  0  0  0  0  0
  189.7990  176.9950  146.1640 C   0  0  0  0  0  3  0  0  0  0  0  0
  188.5210  177.1700  145.6210 C   0  0  0  0  0  0  0  0  0  0  0  0
  187.4920  177.6940  146.4130 C   0  0  0  0  0  3  0  0  0  0  0  0
  189.0200  177.8730  148.2830 C   0  0  0  0  0  3  0  0  0  0  0  0
  187.9460  178.4150  138.3370 N   0  0  0  0  0  2  0  0  0  0  0  0
  185.6850  177.9730  137.5840 C   0  0  2  0  0  3  0  0  0  0  0  0
  186.6270  177.0910  136.7900 C   0  0  0  0  0  2  0  0  0  0  0  0
  186.9160  177.3850  138.2460 C   0  0  1  0  0  3  0  0  0  0  0  0
  184.5230  177.2000  137.9800 N   0  0  0  0  0  2  0  0  0  0  0  0
  182.1360  177.3550  138.1000 C   0  0  0  0  0  2  0  0  0  0  0  0
  183.3980  178.1180  138.0120 C   0  0  2  0  0  3  0  0  0  0  0  0
  182.5890  177.8920  136.8830 O   0  0  0  0  0  0  0  0  0  0  0  0
  1  3  1  0  0  0  0
  2  9  1  1  0  0  0
  2  4  1  0  0  0  0
  3 18  1  1  0  0  0
  4  3  1  0  0  0  0
  5 28  1  6  0  0  0
  5  2  1  0  0  0  0
  5  1  1  0  0  0  0
  6 12  2  0  0  0  0
  6  7  1  0  0  0  0
  7 10  2  0  0  0  0
  8 12  1  0  0  0  0
  9 11  2  0  0  0  0
 10 11  1  0  0  0  0
 12  9  1  0  0  0  0
 13 15  2  0  0  0  0
 14 16  2  0  0  0  0
 14 13  1  0  0  0  0
 15  6  1  0  0  0  0
 16 17  1  0  0  0  0
 17 15  1  0  0  0  0
 18 20  1  6  0  0  0
 18 21  1  0  0  0  0
 20 19  2  0  0  0  0
 21 25  1  0  0  0  0
 22 27  1  0  0  0  0
 23 27  2  0  0  0  0
 24 23  1  0  0  0  0
 25 24  2  0  0  0  0
 25 26  1  0  0  0  0
 26 22  2  0  0  0  0
 29 32  1  1  0  0  0
 29 31  1  0  0  0  0
 30 29  1  0  0  0  0
 30 31  1  0  0  0  0
 31 28  1  6  0  0  0
 34 32  1  6  0  0  0
 34 33  1  0  0  0  0
 35 34  1  0  0  0  0
 35 33  1  0  0  0  0
M  END
>  <MODEL>
4

>  <REMARK>
 VINA RESULT:      -7.3      2.438      7.393
  Name = 
  10 active torsions:
  status: ('A' for Active; 'I' for Inactive)
    1  A    between atoms: C_6  and  N_18
    2  A    between atoms: C_7  and  C_22
    3  A    between atoms: C_10  and  C_12
    4  A    between atoms: C_10  and  C_16
    5  A    between atoms: C_13  and  C_16
    6  A    between atoms: C_16  and  C_21
    7  A    between atoms: C_17  and  C_19
    8  A    between atoms: N_18  and  C_20
    9  A    between atoms: C_25  and  N_26
   10  A    between atoms: N_26  and  C_34
                            x       y       z     vdW  Elec       q    Type
                         _______ _______ _______ _____ _____    ______ ____

>  <TORSDO>
F 10

$$$$
=
 OpenBabel11042411363D

 35 40  0  0  1  0  0  0  0  0999 V2000
  187.4900  177.9190  142.4780 S   0  0  0  0  0  0  0  0  0  0  0  0
  185.6140  179.3680  141.2110 C   0  0  1  0  0  3  0  0  0  0  0  0
  185.9170  178.2830  143.3130 C   0  0  2  0  0  3  0  0  0  0  0  0
  185.2590  179.3970  142.6280 N   0  0  0  0  0  2  0  0  0  0  0  0
  186.6330  178.2730  140.9320 C   0  0  1  0  0  3  0  0  0  0  0  0
  182.2980  178.1910  139.7030 C   0  0  0  0  0  0  0  0  0  0  0  0
  182.1920  179.1190  138.6610 C   0  0  0  0  0  3  0  0  0  0  0  0
  183.5650  177.3450  141.6040 O   0  0  0  0  0  1  0  0  0  0  0  0
  184.3980  179.2440  140.3420 C   0  0  0  0  0  0  0  0  0  0  0  0
  183.1820  180.0810  138.4790 C   0  0  0  0  0  3  0  0  0  0  0  0
  184.2520  180.1220  139.3150 N   0  0  0  0  0  0  0  0  0  0  0  0
  183.4190  178.2530  140.5580 C   0  0  0  0  0  0  0  0  0  0  0  0
  180.1840  177.3340  140.7050 N   0  0  0  0  0  0  0  0  0  0  0  0
  179.4840  176.1970  140.5200 C   0  0  0  0  0  3  0  0  0  0  0  0
  181.2280  177.1820  139.8660 C   0  0  0  0  0  0  0  0  0  0  0  0
  180.0770  175.4000  139.6120 N   0  0  0  0  0  0  0  0  0  0  0  0
  181.1710  176.0160  139.2000 N   0  0  0  0  0  2  0  0  0  0  0  0
  186.1410  178.6090  144.7940 C   0  0  1  0  0  3  0  0  0  0  0  0
  184.1860  178.6260  146.2190 N   0  0  0  0  0  2  0  0  0  0  0  0
  184.9320  179.2640  145.3950 C   0  0  0  0  0  3  0  0  0  0  0  0
  186.4390  177.3310  145.5710 C   0  0  0  0  0  2  0  0  0  0  0  0
  190.0160  177.3030  146.8200 C   0  0  0  0  0  3  0  0  0  0  0  0
  188.6020  178.2550  148.5420 C   0  0  0  0  0  3  0  0  0  0  0  0
  187.4830  178.0760  147.7230 C   0  0  0  0  0  3  0  0  0  0  0  0
  187.6290  177.5080  146.4520 C   0  0  0  0  0  0  0  0  0  0  0  0
  188.8970  177.1230  146.0010 C   0  0  0  0  0  3  0  0  0  0  0  0
  189.8680  177.8690  148.0910 C   0  0  0  0  0  3  0  0  0  0  0  0
  187.5560  178.6240  139.8480 N   0  0  0  0  0  2  0  0  0  0  0  0
  186.7070  178.1760  137.6230 C   0  0  2  0  0  3  0  0  0  0  0  0
  188.2200  178.1720  137.5590 C   0  0  0  0  0  2  0  0  0  0  0  0
  187.5150  177.6280  138.7820 C   0  0  1  0  0  3  0  0  0  0  0  0
  186.1900  177.0670  136.8420 N   0  0  0  0  0  2  0  0  0  0  0  0
  184.1740  175.8540  136.3940 C   0  0  0  0  0  2  0  0  0  0  0  0
  184.8180  176.8570  137.2670 C   0  0  2  0  0  3  0  0  0  0  0  0
  183.9520  177.2310  136.2230 O   0  0  0  0  0  0  0  0  0  0  0  0
  1  3  1  0  0  0  0
  2  9  1  6  0  0  0
  2  4  1  0  0  0  0
  3 18  1  1  0  0  0
  4  3  1  0  0  0  0
  5 28  1  6  0  0  0
  5  2  1  0  0  0  0
  5  1  1  0  0  0  0
  6 15  1  0  0  0  0
  6 12  1  0  0  0  0
  7  6  2  0  0  0  0
  9 12  2  0  0  0  0
 10  7  1  0  0  0  0
 10 11  2  0  0  0  0
 11  9  1  0  0  0  0
 12  8  1  0  0  0  0
 14 13  1  0  0  0  0
 15 13  2  0  0  0  0
 16 14  2  0  0  0  0
 17 16  1  0  0  0  0
 17 15  1  0  0  0  0
 18 20  1  1  0  0  0
 18 21  1  0  0  0  0
 20 19  2  0  0  0  0
 21 25  1  0  0  0  0
 22 27  1  0  0  0  0
 24 23  1  0  0  0  0
 25 24  2  0  0  0  0
 26 25  1  0  0  0  0
 26 22  2  0  0  0  0
 27 23  2  0  0  0  0
 29 32  1  6  0  0  0
 29 31  1  0  0  0  0
 30 29  1  0  0  0  0
 30 31  1  0  0  0  0
 31 28  1  1  0  0  0
 33 34  1  0  0  0  0
 34 32  1  6  0  0  0
 35 33  1  0  0  0  0
 35 34  1  0  0  0  0
M  END
>  <MODEL>
5

>  <REMARK>
 VINA RESULT:      -7.2      2.517      3.393
  Name = 
  10 active torsions:
  status: ('A' for Active; 'I' for Inactive)
    1  A    between atoms: C_6  and  N_18
    2  A    between atoms: C_7  and  C_22
    3  A    between atoms: C_10  and  C_12
    4  A    between atoms: C_10  and  C_16
    5  A    between atoms: C_13  and  C_16
    6  A    between atoms: C_16  and  C_21
    7  A    between atoms: C_17  and  C_19
    8  A    between atoms: N_18  and  C_20
    9  A    between atoms: C_25  and  N_26
   10  A    between atoms: N_26  and  C_34
                            x       y       z     vdW  Elec       q    Type
                         _______ _______ _______ _____ _____    ______ ____

>  <TORSDO>
F 10

$$$$
=
 OpenBabel11042411363D

 35 40  0  0  1  0  0  0  0  0999 V2000
  186.5030  179.0030  141.4930 S   0  0  0  0  0  0  0  0  0  0  0  0
  187.2080  177.4990  143.6060 C   0  0  1  0  0  3  0  0  0  0  0  0
  185.2600  178.5740  142.7470 C   0  0  2  0  0  3  0  0  0  0  0  0
  185.7490  177.4430  143.5380 N   0  0  0  0  0  2  0  0  0  0  0  0
  187.7450  178.6330  142.7460 C   0  0  1  0  0  3  0  0  0  0  0  0
  189.3500  177.2260  146.7660 C   0  0  0  0  0  0  0  0  0  0  0  0
  188.4610  177.8010  147.6820 C   0  0  0  0  0  3  0  0  0  0  0  0
  189.8120  176.5450  144.4730 O   0  0  0  0  0  1  0  0  0  0  0  0
  187.6890  177.5860  145.0230 C   0  0  0  0  0  0  0  0  0  0  0  0
  187.2140  178.2510  147.2550 C   0  0  0  0  0  3  0  0  0  0  0  0
  186.8590  178.1340  145.9490 N   0  0  0  0  0  0  0  0  0  0  0  0
  188.9590  177.1150  145.4150 C   0  0  0  0  0  0  0  0  0  0  0  0
  191.1510  175.5230  147.0190 N   0  0  0  0  0  0  0  0  0  0  0  0
  192.3500  175.5500  147.6360 C   0  0  0  0  0  3  0  0  0  0  0  0
  190.6660  176.7580  147.2550 C   0  0  0  0  0  0  0  0  0  0  0  0
  192.5750  176.7440  148.2140 N   0  0  0  0  0  0  0  0  0  0  0  0
  191.5200  177.5050  147.9750 N   0  0  0  0  0  2  0  0  0  0  0  0
  183.9110  178.2420  142.0980 C   0  0  1  0  0  3  0  0  0  0  0  0
  181.6650  179.0890  142.4000 N   0  0  0  0  0  2  0  0  0  0  0  0
  182.7680  178.7250  142.9410 C   0  0  0  0  0  3  0  0  0  0  0  0
  183.8160  178.9010  140.7260 C   0  0  0  0  0  2  0  0  0  0  0  0
  184.2670  177.0250  137.4650 C   0  0  0  0  0  3  0  0  0  0  0  0
  182.6720  175.8230  138.8360 C   0  0  0  0  0  3  0  0  0  0  0  0
  182.8030  176.7900  139.8370 C   0  0  0  0  0  3  0  0  0  0  0  0
  183.6640  177.8780  139.6520 C   0  0  0  0  0  0  0  0  0  0  0  0
  184.3970  177.9930  138.4660 C   0  0  0  0  0  3  0  0  0  0  0  0
  183.4040  175.9400  137.6500 C   0  0  0  0  0  3  0  0  0  0  0  0
  189.0550  178.3260  142.1620 N   0  0  0  0  0  2  0  0  0  0  0  0
  189.7220  177.8840  139.8750 C   0  0  2  0  0  3  0  0  0  0  0  0
  190.2860  176.7840  140.7510 C   0  0  0  0  0  2  0  0  0  0  0  0
  188.9280  177.3760  141.0620 C   0  0  1  0  0  3  0  0  0  0  0  0
  189.1800  177.3010  138.6610 N   0  0  0  0  0  2  0  0  0  0  0  0
  188.1360  178.2760  136.7380 C   0  0  0  0  0  2  0  0  0  0  0  0
  189.3250  178.2970  137.6150 C   0  0  2  0  0  3  0  0  0  0  0  0
  189.3380  177.6510  136.3650 O   0  0  0  0  0  0  0  0  0  0  0  0
  1  5  1  0  0  0  0
  1  3  1  0  0  0  0
  2  9  1  1  0  0  0
  3 18  1  6  0  0  0
  3  4  1  0  0  0  0
  4  2  1  0  0  0  0
  5 28  1  6  0  0  0
  5  2  1  0  0  0  0
  6 15  1  0  0  0  0
  6  7  1  0  0  0  0
  8 12  1  0  0  0  0
  9 12  1  0  0  0  0
  9 11  2  0  0  0  0
 10  7  2  0  0  0  0
 11 10  1  0  0  0  0
 12  6  2  0  0  0  0
 13 15  2  0  0  0  0
 13 14  1  0  0  0  0
 14 16  2  0  0  0  0
 15 17  1  0  0  0  0
 17 16  1  0  0  0  0
 18 21  1  6  0  0  0
 18 20  1  0  0  0  0
 19 20  2  0  0  0  0
 22 27  2  0  0  0  0
 22 26  1  0  0  0  0
 23 24  2  0  0  0  0
 25 24  1  0  0  0  0
 25 21  1  0  0  0  0
 26 25  2  0  0  0  0
 27 23  1  0  0  0  0
 29 32  1  6  0  0  0
 29 30  1  0  0  0  0
 29 31  1  0  0  0  0
 30 31  1  0  0  0  0
 31 28  1  1  0  0  0
 33 34  1  0  0  0  0
 34 32  1  1  0  0  0
 35 33  1  0  0  0  0
 35 34  1  0  0  0  0
M  END
>  <MODEL>
6

>  <REMARK>
 VINA RESULT:      -7.2      3.279      8.608
  Name = 
  10 active torsions:
  status: ('A' for Active; 'I' for Inactive)
    1  A    between atoms: C_6  and  N_18
    2  A    between atoms: C_7  and  C_22
    3  A    between atoms: C_10  and  C_12
    4  A    between atoms: C_10  and  C_16
    5  A    between atoms: C_13  and  C_16
    6  A    between atoms: C_16  and  C_21
    7  A    between atoms: C_17  and  C_19
    8  A    between atoms: N_18  and  C_20
    9  A    between atoms: C_25  and  N_26
   10  A    between atoms: N_26  and  C_34
                            x       y       z     vdW  Elec       q    Type
                         _______ _______ _______ _____ _____    ______ ____

>  <TORSDO>
F 10

$$$$
=
 OpenBabel11042411363D

 35 40  0  0  1  0  0  0  0  0999 V2000
  187.5180  177.9430  142.3390 S   0  0  0  0  0  0  0  0  0  0  0  0
  185.5900  179.3480  141.1010 C   0  0  1  0  0  3  0  0  0  0  0  0
  185.9580  178.2880  143.2050 C   0  0  2  0  0  3  0  0  0  0  0  0
  185.2660  179.3840  142.5250 N   0  0  0  0  0  2  0  0  0  0  0  0
  186.6210  178.2680  140.8090 C   0  0  1  0  0  3  0  0  0  0  0  0
  182.2500  178.1170  139.6930 C   0  0  0  0  0  0  0  0  0  0  0  0
  182.1190  179.0150  138.6270 C   0  0  0  0  0  3  0  0  0  0  0  0
  183.5580  177.3300  141.5920 O   0  0  0  0  0  1  0  0  0  0  0  0
  184.3570  179.1960  140.2610 C   0  0  0  0  0  0  0  0  0  0  0  0
  183.1020  179.9760  138.3990 C   0  0  0  0  0  3  0  0  0  0  0  0
  184.1880  180.0440  139.2120 N   0  0  0  0  0  0  0  0  0  0  0  0
  183.3870  178.2070  140.5230 C   0  0  0  0  0  0  0  0  0  0  0  0
  181.2620  175.8430  139.4520 N   0  0  0  0  0  0  0  0  0  0  0  0
  180.1000  175.3050  139.8740 C   0  0  0  0  0  3  0  0  0  0  0  0
  181.1870  177.1100  139.9050 C   0  0  0  0  0  0  0  0  0  0  0  0
  179.3620  176.2060  140.5490 N   0  0  0  0  0  0  0  0  0  0  0  0
  180.0430  177.3390  140.5710 N   0  0  0  0  0  2  0  0  0  0  0  0
  186.2080  178.6320  144.6780 C   0  0  1  0  0  3  0  0  0  0  0  0
  184.1930  178.7590  146.0110 N   0  0  0  0  0  2  0  0  0  0  0  0
  185.0430  179.3680  145.2700 C   0  0  0  0  0  3  0  0  0  0  0  0
  186.4350  177.3550  145.4810 C   0  0  0  0  0  2  0  0  0  0  0  0
  189.9830  177.2800  146.8070 C   0  0  0  0  0  3  0  0  0  0  0  0
  188.5310  178.1710  148.5300 C   0  0  0  0  0  3  0  0  0  0  0  0
  187.4310  178.0220  147.6800 C   0  0  0  0  0  3  0  0  0  0  0  0
  187.6050  177.4990  146.3940 C   0  0  0  0  0  0  0  0  0  0  0  0
  188.8830  177.1300  145.9580 C   0  0  0  0  0  3  0  0  0  0  0  0
  189.8070  177.8010  148.0940 C   0  0  0  0  0  3  0  0  0  0  0  0
  187.5140  178.6250  139.7020 N   0  0  0  0  0  2  0  0  0  0  0  0
  188.6300  177.5240  137.8550 C   0  0  2  0  0  3  0  0  0  0  0  0
  189.6910  178.0420  138.8040 C   0  0  0  0  0  2  0  0  0  0  0  0
  188.3840  177.5080  139.3500 C   0  0  1  0  0  3  0  0  0  0  0  0
  188.9860  176.1850  137.4210 N   0  0  0  0  0  2  0  0  0  0  0  0
  189.9980  175.5250  135.3530 C   0  0  0  0  0  2  0  0  0  0  0  0
  190.1700  176.3140  136.5900 C   0  0  2  0  0  3  0  0  0  0  0  0
  190.7600  175.0460  136.4330 O   0  0  0  0  0  0  0  0  0  0  0  0
  1  3  1  0  0  0  0
  2  9  1  6  0  0  0
  2  4  1  0  0  0  0
  3 18  1  1  0  0  0
  4  3  1  0  0  0  0
  5 28  1  6  0  0  0
  5  2  1  0  0  0  0
  5  1  1  0  0  0  0
  6 15  1  0  0  0  0
  6 12  1  0  0  0  0
  7  6  2  0  0  0  0
  9 12  2  0  0  0  0
 10  7  1  0  0  0  0
 10 11  2  0  0  0  0
 11  9  1  0  0  0  0
 12  8  1  0  0  0  0
 13 14  1  0  0  0  0
 13 15  2  0  0  0  0
 14 16  2  0  0  0  0
 15 17  1  0  0  0  0
 16 17  1  0  0  0  0
 18 20  1  1  0  0  0
 18 21  1  0  0  0  0
 20 19  2  0  0  0  0
 21 25  1  0  0  0  0
 22 27  1  0  0  0  0
 24 23  1  0  0  0  0
 25 24  2  0  0  0  0
 26 25  1  0  0  0  0
 26 22  2  0  0  0  0
 27 23  2  0  0  0  0
 29 32  1  1  0  0  0
 29 30  1  0  0  0  0
 29 31  1  0  0  0  0
 30 31  1  0  0  0  0
 31 28  1  6  0  0  0
 33 35  1  0  0  0  0
 33 34  1  0  0  0  0
 34 32  1  1  0  0  0
 35 34  1  0  0  0  0
M  END
>  <MODEL>
7

>  <REMARK>
 VINA RESULT:      -7.2      1.844      2.526
  Name = 
  10 active torsions:
  status: ('A' for Active; 'I' for Inactive)
    1  A    between atoms: C_6  and  N_18
    2  A    between atoms: C_7  and  C_22
    3  A    between atoms: C_10  and  C_12
    4  A    between atoms: C_10  and  C_16
    5  A    between atoms: C_13  and  C_16
    6  A    between atoms: C_16  and  C_21
    7  A    between atoms: C_17  and  C_19
    8  A    between atoms: N_18  and  C_20
    9  A    between atoms: C_25  and  N_26
   10  A    between atoms: N_26  and  C_34
                            x       y       z     vdW  Elec       q    Type
                         _______ _______ _______ _____ _____    ______ ____

>  <TORSDO>
F 10

$$$$
=
 OpenBabel11042411363D

 35 40  0  0  1  0  0  0  0  0999 V2000
  188.2970  178.2360  139.8980 S   0  0  0  0  0  0  0  0  0  0  0  0
  188.7070  176.8220  142.1460 C   0  0  1  0  0  3  0  0  0  0  0  0
  187.3410  178.6270  141.3940 C   0  0  2  0  0  3  0  0  0  0  0  0
  187.4230  177.4980  142.3210 N   0  0  0  0  0  2  0  0  0  0  0  0
  189.4850  177.4330  140.9910 C   0  0  1  0  0  3  0  0  0  0  0  0
  189.7310  177.1260  145.8220 C   0  0  0  0  0  0  0  0  0  0  0  0
  191.0750  176.7550  145.7050 C   0  0  0  0  0  3  0  0  0  0  0  0
  187.5870  177.5240  144.7350 O   0  0  0  0  0  1  0  0  0  0  0  0
  189.4990  176.8110  143.4200 C   0  0  0  0  0  0  0  0  0  0  0  0
  191.6020  176.4250  144.4580 C   0  0  0  0  0  3  0  0  0  0  0  0
  190.8110  176.4610  143.3550 N   0  0  0  0  0  0  0  0  0  0  0  0
  188.9290  177.1560  144.6620 C   0  0  0  0  0  0  0  0  0  0  0  0
  187.9730  177.1270  147.5880 N   0  0  0  0  0  0  0  0  0  0  0  0
  187.9360  177.6360  148.8370 C   0  0  0  0  0  3  0  0  0  0  0  0
  189.2050  177.4700  147.1620 C   0  0  0  0  0  0  0  0  0  0  0  0
  189.0910  178.2540  149.1460 N   0  0  0  0  0  0  0  0  0  0  0  0
  189.8890  178.1510  148.0970 N   0  0  0  0  0  2  0  0  0  0  0  0
  185.8820  178.9460  141.0490 C   0  0  1  0  0  3  0  0  0  0  0  0
  184.6650  179.6800  139.0910 N   0  0  0  0  0  2  0  0  0  0  0  0
  185.6890  179.0730  139.5670 C   0  0  0  0  0  3  0  0  0  0  0  0
  184.9690  177.8380  141.5650 C   0  0  0  0  0  2  0  0  0  0  0  0
  181.7090  179.1190  143.0090 C   0  0  0  0  0  3  0  0  0  0  0  0
  183.3820  179.1150  144.7610 C   0  0  0  0  0  3  0  0  0  0  0  0
  184.3280  178.6220  143.8570 C   0  0  0  0  0  3  0  0  0  0  0  0
  183.9660  178.3790  142.5270 C   0  0  0  0  0  0  0  0  0  0  0  0
  182.6550  178.6270  142.1040 C   0  0  0  0  0  3  0  0  0  0  0  0
  182.0730  179.3630  144.3380 C   0  0  0  0  0  3  0  0  0  0  0  0
  190.3160  176.4500  140.2880 N   0  0  0  0  0  2  0  0  0  0  0  0
  191.5230  175.8840  138.2650 C   0  0  2  0  0  3  0  0  0  0  0  0
  190.0400  175.7930  137.9700 C   0  0  0  0  0  2  0  0  0  0  0  0
  190.5590  176.8600  138.9090 C   0  0  1  0  0  3  0  0  0  0  0  0
  192.1930  176.5440  137.1590 N   0  0  0  0  0  2  0  0  0  0  0  0
  194.0850  176.0940  135.7610 C   0  0  0  0  0  2  0  0  0  0  0  0
  193.5590  176.0520  137.1410 C   0  0  2  0  0  3  0  0  0  0  0  0
  193.6200  174.8990  136.3370 O   0  0  0  0  0  0  0  0  0  0  0  0
  1  5  1  0  0  0  0
  1  3  1  0  0  0  0
  2  4  1  0  0  0  0
  2  9  1  1  0  0  0
  3 18  1  6  0  0  0
  3  4  1  0  0  0  0
  5 28  1  6  0  0  0
  5  2  1  0  0  0  0
  6 15  1  0  0  0  0
  7  6  1  0  0  0  0
  9 12  1  0  0  0  0
 10  7  2  0  0  0  0
 11  9  2  0  0  0  0
 11 10  1  0  0  0  0
 12  8  1  0  0  0  0
 12  6  2  0  0  0  0
 13 14  1  0  0  0  0
 14 16  2  0  0  0  0
 15 13  2  0  0  0  0
 15 17  1  0  0  0  0
 17 16  1  0  0  0  0
 18 20  1  6  0  0  0
 18 21  1  0  0  0  0
 19 20  2  0  0  0  0
 21 25  1  0  0  0  0
 22 27  1  0  0  0  0
 24 23  1  0  0  0  0
 25 24  2  0  0  0  0
 26 25  1  0  0  0  0
 26 22  2  0  0  0  0
 27 23  2  0  0  0  0
 29 32  1  6  0  0  0
 29 31  1  0  0  0  0
 30 29  1  0  0  0  0
 30 31  1  0  0  0  0
 31 28  1  1  0  0  0
 33 35  1  0  0  0  0
 33 34  1  0  0  0  0
 34 32  1  6  0  0  0
 35 34  1  0  0  0  0
M  END
>  <MODEL>
8

>  <REMARK>
 VINA RESULT:      -7.1      3.069      7.812
  Name = 
  10 active torsions:
  status: ('A' for Active; 'I' for Inactive)
    1  A    between atoms: C_6  and  N_18
    2  A    between atoms: C_7  and  C_22
    3  A    between atoms: C_10  and  C_12
    4  A    between atoms: C_10  and  C_16
    5  A    between atoms: C_13  and  C_16
    6  A    between atoms: C_16  and  C_21
    7  A    between atoms: C_17  and  C_19
    8  A    between atoms: N_18  and  C_20
    9  A    between atoms: C_25  and  N_26
   10  A    between atoms: N_26  and  C_34
                            x       y       z     vdW  Elec       q    Type
                         _______ _______ _______ _____ _____    ______ ____

>  <TORSDO>
F 10

$$$$
=
 OpenBabel11042411363D

 35 40  0  0  1  0  0  0  0  0999 V2000
  187.2500  176.7390  144.5410 S   0  0  0  0  0  0  0  0  0  0  0  0
  188.5100  177.8920  142.4660 C   0  0  1  0  0  3  0  0  0  0  0  0
  186.2770  177.5030  143.2090 C   0  0  2  0  0  3  0  0  0  0  0  0
  187.1410  178.4020  142.4430 N   0  0  0  0  0  2  0  0  0  0  0  0
  188.6150  176.6690  143.3660 C   0  0  1  0  0  3  0  0  0  0  0  0
  188.8020  177.6490  138.6570 C   0  0  0  0  0  0  0  0  0  0  0  0
  190.0730  177.0690  138.5730 C   0  0  0  0  0  3  0  0  0  0  0  0
  187.0010  178.5020  140.0590 O   0  0  0  0  0  1  0  0  0  0  0  0
  189.0190  177.6220  141.0820 C   0  0  0  0  0  0  0  0  0  0  0  0
  190.7850  176.7770  139.7340 C   0  0  0  0  0  3  0  0  0  0  0  0
  190.2480  177.0560  140.9500 N   0  0  0  0  0  0  0  0  0  0  0  0
  188.2640  177.9300  139.9310 C   0  0  0  0  0  0  0  0  0  0  0  0
  187.5510  176.9940  136.6050 N   0  0  0  0  0  0  0  0  0  0  0  0
  186.9930  177.7130  135.6090 C   0  0  0  0  0  3  0  0  0  0  0  0
  188.0740  177.9450  137.4030 C   0  0  0  0  0  0  0  0  0  0  0  0
  187.1720  179.0330  135.8010 N   0  0  0  0  0  0  0  0  0  0  0  0
  187.8490  179.1810  136.9270 N   0  0  0  0  0  2  0  0  0  0  0  0
  185.0660  178.2560  143.7720 C   0  0  1  0  0  3  0  0  0  0  0  0
  184.5990  178.9920  146.0290 N   0  0  0  0  0  2  0  0  0  0  0  0
  185.4160  178.9760  145.0410 C   0  0  0  0  0  3  0  0  0  0  0  0
  184.5690  179.2780  142.7540 C   0  0  0  0  0  2  0  0  0  0  0  0
  182.2820  177.6270  140.2240 C   0  0  0  0  0  3  0  0  0  0  0  0
  180.9270  178.5400  142.0130 C   0  0  0  0  0  3  0  0  0  0  0  0
  182.0800  179.0090  142.6480 C   0  0  0  0  0  3  0  0  0  0  0  0
  183.3360  178.7910  142.0700 C   0  0  0  0  0  0  0  0  0  0  0  0
  183.4360  178.0970  140.8590 C   0  0  0  0  0  3  0  0  0  0  0  0
  181.0270  177.8480  140.8010 C   0  0  0  0  0  3  0  0  0  0  0  0
  189.9190  176.5660  144.0280 N   0  0  0  0  0  2  0  0  0  0  0  0
  190.2140  176.9600  146.4000 C   0  0  2  0  0  3  0  0  0  0  0  0
  191.4420  177.4800  145.6800 C   0  0  0  0  0  2  0  0  0  0  0  0
  190.0770  177.6080  145.0370 C   0  0  1  0  0  3  0  0  0  0  0  0
  189.8140  177.9140  147.4180 N   0  0  0  0  0  2  0  0  0  0  0  0
  187.5410  178.2890  148.0740 C   0  0  0  0  0  2  0  0  0  0  0  0
  188.6730  177.3390  148.1080 C   0  0  2  0  0  3  0  0  0  0  0  0
  188.3510  178.1470  149.2140 O   0  0  0  0  0  0  0  0  0  0  0  0
  2  9  1  6  0  0  0
  2  5  1  0  0  0  0
  3 18  1  1  0  0  0
  3  1  1  0  0  0  0
  4  2  1  0  0  0  0
  4  3  1  0  0  0  0
  5 28  1  1  0  0  0
  5  1  1  0  0  0  0
  6 12  1  0  0  0  0
  7  6  2  0  0  0  0
  7 10  1  0  0  0  0
 10 11  2  0  0  0  0
 11  9  1  0  0  0  0
 12  8  1  0  0  0  0
 12  9  2  0  0  0  0
 13 15  2  0  0  0  0
 14 16  2  0  0  0  0
 14 13  1  0  0  0  0
 15  6  1  0  0  0  0
 16 17  1  0  0  0  0
 17 15  1  0  0  0  0
 18 21  1  6  0  0  0
 18 20  1  0  0  0  0
 20 19  2  0  0  0  0
 22 27  2  0  0  0  0
 22 26  1  0  0  0  0
 23 24  2  0  0  0  0
 25 24  1  0  0  0  0
 25 21  1  0  0  0  0
 26 25  2  0  0  0  0
 27 23  1  0  0  0  0
 29 32  1  1  0  0  0
 30 29  1  0  0  0  0
 31 28  1  6  0  0  0
 31 30  1  0  0  0  0
 31 29  1  0  0  0  0
 33 34  1  0  0  0  0
 33 35  1  0  0  0  0
 34 32  1  6  0  0  0
 34 35  1  0  0  0  0
M  END
>  <MODEL>
9

>  <REMARK>
 VINA RESULT:      -7.1      3.097      7.018
  Name = 
  10 active torsions:
  status: ('A' for Active; 'I' for Inactive)
    1  A    between atoms: C_6  and  N_18
    2  A    between atoms: C_7  and  C_22
    3  A    between atoms: C_10  and  C_12
    4  A    between atoms: C_10  and  C_16
    5  A    between atoms: C_13  and  C_16
    6  A    between atoms: C_16  and  C_21
    7  A    between atoms: C_17  and  C_19
    8  A    between atoms: N_18  and  C_20
    9  A    between atoms: C_25  and  N_26
   10  A    between atoms: N_26  and  C_34
                            x       y       z     vdW  Elec       q    Type
                         _______ _______ _______ _____ _____    ______ ____

>  <TORSDO>
F 10

$$$$
