=
 OpenBabel11042413013D

 40 44  0  0  1  0  0  0  0  0999 V2000
  188.1160  176.9600  142.6290 N   0  0  0  0  0  0  0  0  0  0  0  0
  186.6970  177.3640  144.3800 C   0  0  2  0  0  3  0  0  0  0  0  0
  187.4320  178.1470  142.3120 C   0  0  0  0  0  0  0  0  0  0  0  0
  187.7120  176.4260  143.8630 N   0  0  0  0  0  2  0  0  0  0  0  0
  187.6470  178.8230  141.2710 O   0  0  0  0  0  0  0  0  0  0  0  0
  186.4680  178.4980  143.3620 C   0  0  1  0  0  3  0  0  0  0  0  0
  185.0590  178.4650  142.8410 C   0  0  0  0  0  0  0  0  0  0  0  0
  182.5090  178.3930  141.8830 N   0  0  0  0  0  0  0  0  0  0  0  0
  184.7930  177.9260  141.6200 N   0  0  0  0  0  0  0  0  0  0  0  0
  182.7420  178.9300  143.0810 N   0  0  0  0  0  0  0  0  0  0  0  0
  183.2610  177.3100  139.8670 N   0  0  0  0  0  1  0  0  0  0  0  0
  184.2110  179.5870  144.9430 C   0  0  0  0  0  1  0  0  0  0  0  0
  183.9980  178.9840  143.5960 C   0  0  0  0  0  0  0  0  0  0  0  0
  183.5250  177.8860  141.1400 C   0  0  0  0  0  0  0  0  0  0  0  0
  187.1120  177.9110  145.7440 C   0  0  0  0  0  2  0  0  0  0  0  0
  188.0190  177.3560  148.0020 C   0  0  2  0  0  3  0  0  0  0  0  0
  189.1950  177.4830  147.0430 C   0  0  1  0  0  0  0  0  0  0  0  0
  187.8870  176.8870  146.5680 C   0  0  2  0  0  3  0  0  0  0  0  0
  188.9810  178.5180  148.1290 C   0  0  0  0  0  2  0  0  0  0  0  0
  190.1920  176.4130  147.4460 C   0  0  0  0  0  2  0  0  0  0  0  0
  191.5290  177.5270  145.6190 N   0  0  0  0  0  1  0  0  0  0  0  0
  191.4400  176.5420  146.6420 C   0  0  0  0  0  0  0  0  0  0  0  0
  192.4260  175.8000  146.8880 O   0  0  0  0  0  0  0  0  0  0  0  0
  189.1720  176.3880  141.7990 C   0  0  0  0  0  2  0  0  0  0  0  0
  190.5230  177.0110  142.1010 C   0  0  0  0  0  2  0  0  0  0  0  0
  191.2540  177.2970  140.8040 C   0  0  0  0  0  2  0  0  0  0  0  0
  190.3450  177.0270  139.6200 C   0  0  0  0  0  2  0  0  0  0  0  0
  189.0640  178.3720  137.9180 C   0  0  0  0  0  0  0  0  0  0  0  0
  188.1940  177.2640  137.6630 N   0  0  0  0  0  2  0  0  0  0  0  0
  188.9090  179.4590  137.3010 O   0  0  0  0  0  0  0  0  0  0  0  0
  190.1150  178.2550  138.8770 N   0  0  0  0  0  2  0  0  0  0  0  0
  185.9290  178.4930  138.3980 O   0  0  0  0  0  1  0  0  0  0  0  0
  187.5250  177.4020  135.2040 C   0  0  0  0  0  1  0  0  0  0  0  0
  185.8560  178.0420  137.0780 C   0  0  1  0  0  3  0  0  0  0  0  0
  187.1230  177.3040  136.6720 C   0  0  2  0  0  0  0  0  0  0  0  0
  185.8840  176.5140  137.0690 C   0  0  2  0  0  3  0  0  0  0  0  0
  185.0880  176.0030  135.8770 C   0  0  0  0  0  2  0  0  0  0  0  0
  184.3570  174.8740  136.2500 O   0  0  0  0  0  0  0  0  0  0  0  0
  184.9080  172.9980  137.6050 C   0  0  0  0  0  1  0  0  0  0  0  0
  184.8850  174.5090  137.4900 C   0  0  0  0  0  2  0  0  0  0  0  0
  1  4  1  0  0  0  0
  2 15  1  1  0  0  0
  3  1  1  0  0  0  0
  3  6  1  0  0  0  0
  4  2  1  0  0  0  0
  5  3  2  0  0  0  0
  6  7  1  6  0  0  0
  6  2  1  0  0  0  0
  7 13  1  0  0  0  0
  8 10  1  0  0  0  0
  9  7  2  0  0  0  0
 10 13  2  0  0  0  0
 11 14  1  0  0  0  0
 13 12  1  0  0  0  0
 14  9  1  0  0  0  0
 14  8  2  0  0  0  0
 16 19  1  6  0  0  0
 17 20  1  1  0  0  0
 17 16  1  0  0  0  0
 17 19  1  0  0  0  0
 18 15  1  6  0  0  0
 18 17  1  0  0  0  0
 18 16  1  0  0  0  0
 21 22  1  0  0  0  0
 22 23  2  0  0  0  0
 22 20  1  0  0  0  0
 24 25  1  0  0  0  0
 24  1  1  0  0  0  0
 26 25  1  0  0  0  0
 27 26  1  0  0  0  0
 28 31  1  0  0  0  0
 29 28  1  0  0  0  0
 30 28  2  0  0  0  0
 31 27  1  0  0  0  0
 34 32  1  1  0  0  0
 35 33  1  6  0  0  0
 35 36  1  0  0  0  0
 35 34  1  0  0  0  0
 35 29  1  0  0  0  0
 36 37  1  6  0  0  0
 36 34  1  0  0  0  0
 37 38  1  0  0  0  0
 38 40  1  0  0  0  0
 40 39  1  0  0  0  0
M  END
>  <MODEL>
1

>  <REMARK>
 VINA RESULT:      -7.7      0.000      0.000
  Name = 
  14 active torsions:
  status: ('A' for Active; 'I' for Inactive)
    1  A    between atoms: O_1  and  C_3
    2  A    between atoms: O_1  and  C_38
    3  A    between atoms: N_2  and  C_21
    4  A    between atoms: C_3  and  C_31
    5  A    between atoms: C_5  and  C_16
    6  A    between atoms: C_5  and  C_29
    7  A    between atoms: C_6  and  C_39
    8  A    between atoms: N_8  and  C_30
    9  A    between atoms: C_9  and  C_11
   10  A    between atoms: C_9  and  C_35
   11  A    between atoms: C_14  and  C_18
   12  A    between atoms: C_14  and  C_22
   13  A    between atoms: C_18  and  N_37
   14  A    between atoms: C_21  and  C_22
                            x       y       z     vdW  Elec       q    Type
                         _______ _______ _______ _____ _____    ______ ____

>  <TORSDO>
F 14

$$$$
=
 OpenBabel11042413013D

 40 44  0  0  1  0  0  0  0  0999 V2000
  187.7310  177.9980  141.9240 N   0  0  0  0  0  0  0  0  0  0  0  0
  185.6880  178.9320  142.3710 C   0  0  2  0  0  3  0  0  0  0  0  0
  187.1260  177.1740  142.8900 C   0  0  0  0  0  0  0  0  0  0  0  0
  186.9190  179.0880  141.5720 N   0  0  0  0  0  2  0  0  0  0  0  0
  187.6510  176.1190  143.3380 O   0  0  0  0  0  0  0  0  0  0  0  0
  185.8080  177.6900  143.2750 C   0  0  1  0  0  3  0  0  0  0  0  0
  185.7800  178.0870  144.7250 C   0  0  0  0  0  0  0  0  0  0  0  0
  185.7500  178.8050  147.3530 N   0  0  0  0  0  0  0  0  0  0  0  0
  186.8990  177.9620  145.4890 N   0  0  0  0  0  0  0  0  0  0  0  0
  184.6390  178.9360  146.6270 N   0  0  0  0  0  0  0  0  0  0  0  0
  188.0680  178.1930  147.5820 N   0  0  0  0  0  1  0  0  0  0  0  0
  183.3500  178.7600  144.5380 C   0  0  0  0  0  1  0  0  0  0  0  0
  184.6120  178.5900  145.3130 C   0  0  0  0  0  0  0  0  0  0  0  0
  186.8890  178.3200  146.7980 C   0  0  0  0  0  0  0  0  0  0  0  0
  184.4620  178.8490  141.4640 C   0  0  0  0  0  2  0  0  0  0  0  0
  184.0220  179.6880  139.1550 C   0  0  2  0  0  3  0  0  0  0  0  0
  183.6590  178.2100  139.1940 C   0  0  1  0  0  0  0  0  0  0  0  0
  184.8380  178.7240  139.9900 C   0  0  2  0  0  3  0  0  0  0  0  0
  182.5740  179.2580  139.0530 C   0  0  0  0  0  2  0  0  0  0  0  0
  184.0860  177.6300  137.8580 C   0  0  0  0  0  2  0  0  0  0  0  0
  183.3940  175.6880  136.4040 N   0  0  0  0  0  1  0  0  0  0  0  0
  183.5540  176.2480  137.7020 C   0  0  0  0  0  0  0  0  0  0  0  0
  183.2720  175.5640  138.7210 O   0  0  0  0  0  0  0  0  0  0  0  0
  189.0250  177.7130  141.3110 C   0  0  0  0  0  2  0  0  0  0  0  0
  190.1650  177.8860  142.2990 C   0  0  0  0  0  2  0  0  0  0  0  0
  191.4140  177.2200  141.7590 C   0  0  0  0  0  2  0  0  0  0  0  0
  191.4950  177.4010  140.2540 C   0  0  0  0  0  2  0  0  0  0  0  0
  190.4330  176.0430  138.4170 C   0  0  0  0  0  0  0  0  0  0  0  0
  189.8300  177.2180  137.8650 N   0  0  0  0  0  2  0  0  0  0  0  0
  190.2510  174.9190  137.8780 O   0  0  0  0  0  0  0  0  0  0  0  0
  191.2490  176.1340  139.5860 N   0  0  0  0  0  2  0  0  0  0  0  0
  187.6650  178.7940  137.9520 O   0  0  0  0  0  1  0  0  0  0  0  0
  189.6120  176.9790  135.3340 C   0  0  0  0  0  1  0  0  0  0  0  0
  187.7550  178.1220  136.7300 C   0  0  1  0  0  3  0  0  0  0  0  0
  188.9580  177.1920  136.6950 C   0  0  2  0  0  0  0  0  0  0  0  0
  187.5740  176.6230  136.9700 C   0  0  2  0  0  3  0  0  0  0  0  0
  186.9270  175.9920  135.7440 C   0  0  0  0  0  2  0  0  0  0  0  0
  186.9720  174.6020  135.8530 O   0  0  0  0  0  0  0  0  0  0  0  0
  185.8440  173.1180  137.3310 C   0  0  0  0  0  1  0  0  0  0  0  0
  186.7190  174.3480  137.2030 C   0  0  0  0  0  2  0  0  0  0  0  0
  1  3  1  0  0  0  0
  2 15  1  6  0  0  0
  2  6  1  0  0  0  0
  3  6  1  0  0  0  0
  3  5  2  0  0  0  0
  4  1  1  0  0  0  0
  4  2  1  0  0  0  0
  6  7  1  1  0  0  0
  7 13  1  0  0  0  0
  7  9  2  0  0  0  0
  9 14  1  0  0  0  0
 10  8  1  0  0  0  0
 12 13  1  0  0  0  0
 13 10  2  0  0  0  0
 14  8  2  0  0  0  0
 14 11  1  0  0  0  0
 16 19  1  1  0  0  0
 16 17  1  0  0  0  0
 16 18  1  0  0  0  0
 17 20  1  6  0  0  0
 17 18  1  0  0  0  0
 18 15  1  1  0  0  0
 19 17  1  0  0  0  0
 21 22  1  0  0  0  0
 22 20  1  0  0  0  0
 22 23  2  0  0  0  0
 24  1  1  0  0  0  0
 24 25  1  0  0  0  0
 26 25  1  0  0  0  0
 27 26  1  0  0  0  0
 28 31  1  0  0  0  0
 29 28  1  0  0  0  0
 30 28  2  0  0  0  0
 31 27  1  0  0  0  0
 34 36  1  0  0  0  0
 34 32  1  1  0  0  0
 35 33  1  6  0  0  0
 35 34  1  0  0  0  0
 35 36  1  0  0  0  0
 35 29  1  0  0  0  0
 36 37  1  6  0  0  0
 37 38  1  0  0  0  0
 38 40  1  0  0  0  0
 40 39  1  0  0  0  0
M  END
>  <MODEL>
2

>  <REMARK>
 VINA RESULT:      -7.2      2.433      5.707
  Name = 
  14 active torsions:
  status: ('A' for Active; 'I' for Inactive)
    1  A    between atoms: O_1  and  C_3
    2  A    between atoms: O_1  and  C_38
    3  A    between atoms: N_2  and  C_21
    4  A    between atoms: C_3  and  C_31
    5  A    between atoms: C_5  and  C_16
    6  A    between atoms: C_5  and  C_29
    7  A    between atoms: C_6  and  C_39
    8  A    between atoms: N_8  and  C_30
    9  A    between atoms: C_9  and  C_11
   10  A    between atoms: C_9  and  C_35
   11  A    between atoms: C_14  and  C_18
   12  A    between atoms: C_14  and  C_22
   13  A    between atoms: C_18  and  N_37
   14  A    between atoms: C_21  and  C_22
                            x       y       z     vdW  Elec       q    Type
                         _______ _______ _______ _____ _____    ______ ____

>  <TORSDO>
F 14

$$$$
=
 OpenBabel11042413013D

 40 44  0  0  1  0  0  0  0  0999 V2000
  183.6590  178.2710  138.7070 N   0  0  0  0  0  0  0  0  0  0  0  0
  181.9770  179.6930  139.3340 C   0  0  2  0  0  3  0  0  0  0  0  0
  182.8170  177.5310  139.5560 C   0  0  0  0  0  0  0  0  0  0  0  0
  183.2150  179.5920  138.5370 N   0  0  0  0  0  2  0  0  0  0  0  0
  182.9960  176.3140  139.8330 O   0  0  0  0  0  0  0  0  0  0  0  0
  181.7040  178.3530  140.0440 C   0  0  1  0  0  3  0  0  0  0  0  0
  181.7650  178.5230  141.5370 C   0  0  0  0  0  0  0  0  0  0  0  0
  181.8950  178.8370  144.2400 N   0  0  0  0  0  0  0  0  0  0  0  0
  182.9640  178.6940  142.1570 N   0  0  0  0  0  0  0  0  0  0  0  0
  180.7070  178.6680  143.6580 N   0  0  0  0  0  0  0  0  0  0  0  0
  184.2930  179.0420  144.1350 N   0  0  0  0  0  1  0  0  0  0  0  0
  179.2490  178.3290  141.7040 C   0  0  0  0  0  1  0  0  0  0  0  0
  180.5980  178.5090  142.3130 C   0  0  0  0  0  0  0  0  0  0  0  0
  183.0330  178.8530  143.5020 C   0  0  0  0  0  0  0  0  0  0  0  0
  180.8000  180.1100  138.4550 C   0  0  0  0  0  2  0  0  0  0  0  0
  178.9330  181.7480  138.2030 C   0  0  2  0  0  3  0  0  0  0  0  0
  180.1460  182.3030  137.4690 C   0  0  1  0  0  0  0  0  0  0  0  0
  180.3250  181.5290  138.7570 C   0  0  2  0  0  3  0  0  0  0  0  0
  178.9350  181.8310  136.6910 C   0  0  0  0  0  2  0  0  0  0  0  0
  180.1390  183.8020  137.7050 C   0  0  0  0  0  2  0  0  0  0  0  0
  181.0730  184.8210  135.5940 N   0  0  0  0  0  1  0  0  0  0  0  0
  181.2530  184.4470  136.9550 C   0  0  0  0  0  0  0  0  0  0  0  0
  182.3430  184.6890  137.5350 O   0  0  0  0  0  0  0  0  0  0  0  0
  184.8220  177.7080  138.0280 C   0  0  0  0  0  2  0  0  0  0  0  0
  186.0580  178.5690  138.2240 C   0  0  0  0  0  2  0  0  0  0  0  0
  187.2780  177.6840  138.3720 C   0  0  0  0  0  2  0  0  0  0  0  0
  188.1700  178.2020  139.4860 C   0  0  0  0  0  2  0  0  0  0  0  0
  188.0800  178.1230  142.0030 C   0  0  0  0  0  0  0  0  0  0  0  0
  189.5000  177.9590  142.0710 N   0  0  0  0  0  2  0  0  0  0  0  0
  187.3910  178.1640  143.0560 O   0  0  0  0  0  0  0  0  0  0  0  0
  187.4300  178.2440  140.7370 N   0  0  0  0  0  2  0  0  0  0  0  0
  190.4790  175.5160  142.5780 O   0  0  0  0  0  1  0  0  0  0  0  0
  191.0240  178.9870  143.8410 C   0  0  0  0  0  1  0  0  0  0  0  0
  190.8160  176.4180  143.5900 C   0  0  1  0  0  3  0  0  0  0  0  0
  190.2240  177.7950  143.3280 C   0  0  2  0  0  0  0  0  0  0  0  0
  189.5430  176.8560  144.3140 C   0  0  2  0  0  3  0  0  0  0  0  0
  189.8730  177.1670  145.7670 C   0  0  0  0  0  2  0  0  0  0  0  0
  188.8050  176.7890  146.5830 O   0  0  0  0  0  0  0  0  0  0  0  0
  188.1830  177.9490  148.5640 C   0  0  0  0  0  1  0  0  0  0  0  0
  188.2790  177.9940  147.0520 C   0  0  0  0  0  2  0  0  0  0  0  0
  1  3  1  0  0  0  0
  2 15  1  6  0  0  0
  2  6  1  0  0  0  0
  3  5  2  0  0  0  0
  3  6  1  0  0  0  0
  4  1  1  0  0  0  0
  4  2  1  0  0  0  0
  6  7  1  1  0  0  0
  7  9  2  0  0  0  0
  7 13  1  0  0  0  0
  9 14  1  0  0  0  0
 10  8  1  0  0  0  0
 12 13  1  0  0  0  0
 13 10  2  0  0  0  0
 14 11  1  0  0  0  0
 14  8  2  0  0  0  0
 16 19  1  6  0  0  0
 16 18  1  0  0  0  0
 17 20  1  1  0  0  0
 17 16  1  0  0  0  0
 17 18  1  0  0  0  0
 18 15  1  6  0  0  0
 19 17  1  0  0  0  0
 21 22  1  0  0  0  0
 22 23  2  0  0  0  0
 22 20  1  0  0  0  0
 24 25  1  0  0  0  0
 24  1  1  0  0  0  0
 25 26  1  0  0  0  0
 26 27  1  0  0  0  0
 27 31  1  0  0  0  0
 28 29  1  0  0  0  0
 28 30  2  0  0  0  0
 29 35  1  0  0  0  0
 31 28  1  0  0  0  0
 34 32  1  6  0  0  0
 34 36  1  0  0  0  0
 35 34  1  0  0  0  0
 35 33  1  1  0  0  0
 35 36  1  0  0  0  0
 36 37  1  1  0  0  0
 37 38  1  0  0  0  0
 38 40  1  0  0  0  0
 40 39  1  0  0  0  0
M  END
>  <MODEL>
3

>  <REMARK>
 VINA RESULT:      -7.0      3.912      9.085
  Name = 
  14 active torsions:
  status: ('A' for Active; 'I' for Inactive)
    1  A    between atoms: O_1  and  C_3
    2  A    between atoms: O_1  and  C_38
    3  A    between atoms: N_2  and  C_21
    4  A    between atoms: C_3  and  C_31
    5  A    between atoms: C_5  and  C_16
    6  A    between atoms: C_5  and  C_29
    7  A    between atoms: C_6  and  C_39
    8  A    between atoms: N_8  and  C_30
    9  A    between atoms: C_9  and  C_11
   10  A    between atoms: C_9  and  C_35
   11  A    between atoms: C_14  and  C_18
   12  A    between atoms: C_14  and  C_22
   13  A    between atoms: C_18  and  N_37
   14  A    between atoms: C_21  and  C_22
                            x       y       z     vdW  Elec       q    Type
                         _______ _______ _______ _____ _____    ______ ____

>  <TORSDO>
F 14

$$$$
=
 OpenBabel11042413013D

 40 44  0  0  1  0  0  0  0  0999 V2000
  187.0650  178.2230  137.2230 N   0  0  0  0  0  0  0  0  0  0  0  0
  185.1000  177.9340  138.3640 C   0  0  2  0  0  3  0  0  0  0  0  0
  186.1570  177.6670  136.3040 C   0  0  0  0  0  0  0  0  0  0  0  0
  186.4940  178.4020  138.4930 N   0  0  0  0  0  2  0  0  0  0  0  0
  186.4330  177.4430  135.0950 O   0  0  0  0  0  0  0  0  0  0  0  0
  184.8560  177.4130  136.9340 C   0  0  1  0  0  3  0  0  0  0  0  0
  184.5360  175.9450  136.9530 C   0  0  0  0  0  0  0  0  0  0  0  0
  183.9740  173.2790  136.9970 N   0  0  0  0  0  0  0  0  0  0  0  0
  185.5050  175.0380  137.2550 N   0  0  0  0  0  0  0  0  0  0  0  0
  183.0070  174.1470  136.6950 N   0  0  0  0  0  0  0  0  0  0  0  0
  186.2480  172.7740  137.6060 N   0  0  0  0  0  1  0  0  0  0  0  0
  182.1310  176.4180  136.3280 C   0  0  0  0  0  1  0  0  0  0  0  0
  183.2450  175.4840  136.6640 C   0  0  0  0  0  0  0  0  0  0  0  0
  185.2290  173.7100  137.2790 C   0  0  0  0  0  0  0  0  0  0  0  0
  184.1200  179.0460  138.7290 C   0  0  0  0  0  2  0  0  0  0  0  0
  183.2650  177.5530  140.5370 C   0  0  2  0  0  3  0  0  0  0  0  0
  182.2040  178.6090  140.2610 C   0  0  1  0  0  0  0  0  0  0  0  0
  183.6720  178.9680  140.1860 C   0  0  2  0  0  3  0  0  0  0  0  0
  181.9570  177.1640  139.8810 C   0  0  0  0  0  2  0  0  0  0  0  0
  181.5990  178.9700  141.6060 C   0  0  0  0  0  2  0  0  0  0  0  0
  179.9040  180.6110  142.4990 N   0  0  0  0  0  1  0  0  0  0  0  0
  180.3990  179.8320  141.4170 C   0  0  0  0  0  0  0  0  0  0  0  0
  179.8400  179.8940  140.2910 O   0  0  0  0  0  0  0  0  0  0  0  0
  188.4240  178.6290  136.8760 C   0  0  0  0  0  2  0  0  0  0  0  0
  189.4250  177.5170  137.1360 C   0  0  0  0  0  2  0  0  0  0  0  0
  190.1810  177.8020  138.4180 C   0  0  0  0  0  2  0  0  0  0  0  0
  189.7800  176.8100  139.4940 C   0  0  0  0  0  2  0  0  0  0  0  0
  189.0570  177.7390  141.7220 C   0  0  0  0  0  0  0  0  0  0  0  0
  190.3600  177.5070  142.2670 N   0  0  0  0  0  2  0  0  0  0  0  0
  188.1490  178.2440  142.4330 O   0  0  0  0  0  0  0  0  0  0  0  0
  188.7750  177.3980  140.3640 N   0  0  0  0  0  2  0  0  0  0  0  0
  191.6520  175.5800  143.6070 O   0  0  0  0  0  1  0  0  0  0  0  0
  191.0480  179.2420  144.0070 C   0  0  0  0  0  1  0  0  0  0  0  0
  191.4800  176.7190  144.3970 C   0  0  1  0  0  3  0  0  0  0  0  0
  190.7060  177.7990  143.6550 C   0  0  2  0  0  0  0  0  0  0  0  0
  189.9880  176.9190  144.6680 C   0  0  2  0  0  3  0  0  0  0  0  0
  189.8080  177.5860  146.0240 C   0  0  0  0  0  2  0  0  0  0  0  0
  188.6020  178.2870  146.0460 O   0  0  0  0  0  0  0  0  0  0  0  0
  186.2880  177.7700  146.2450 C   0  0  0  0  0  1  0  0  0  0  0  0
  187.6380  177.3360  145.7080 C   0  0  0  0  0  2  0  0  0  0  0  0
  1  4  1  0  0  0  0
  2  4  1  0  0  0  0
  2 15  1  6  0  0  0
  3  6  1  0  0  0  0
  3  1  1  0  0  0  0
  5  3  2  0  0  0  0
  6  7  1  1  0  0  0
  6  2  1  0  0  0  0
  7  9  2  0  0  0  0
  8 14  2  0  0  0  0
  9 14  1  0  0  0  0
 10  8  1  0  0  0  0
 12 13  1  0  0  0  0
 13 10  2  0  0  0  0
 13  7  1  0  0  0  0
 14 11  1  0  0  0  0
 16 19  1  6  0  0  0
 17 16  1  0  0  0  0
 17 20  1  1  0  0  0
 18 15  1  6  0  0  0
 18 17  1  0  0  0  0
 18 16  1  0  0  0  0
 19 17  1  0  0  0  0
 22 20  1  0  0  0  0
 22 21  1  0  0  0  0
 23 22  2  0  0  0  0
 24 25  1  0  0  0  0
 24  1  1  0  0  0  0
 25 26  1  0  0  0  0
 26 27  1  0  0  0  0
 27 31  1  0  0  0  0
 28 29  1  0  0  0  0
 28 30  2  0  0  0  0
 29 35  1  0  0  0  0
 31 28  1  0  0  0  0
 34 32  1  6  0  0  0
 34 36  1  0  0  0  0
 35 33  1  1  0  0  0
 35 34  1  0  0  0  0
 35 36  1  0  0  0  0
 36 37  1  1  0  0  0
 37 38  1  0  0  0  0
 40 38  1  0  0  0  0
 40 39  1  0  0  0  0
M  END
>  <MODEL>
4

>  <REMARK>
 VINA RESULT:      -6.9      2.687      8.149
  Name = 
  14 active torsions:
  status: ('A' for Active; 'I' for Inactive)
    1  A    between atoms: O_1  and  C_3
    2  A    between atoms: O_1  and  C_38
    3  A    between atoms: N_2  and  C_21
    4  A    between atoms: C_3  and  C_31
    5  A    between atoms: C_5  and  C_16
    6  A    between atoms: C_5  and  C_29
    7  A    between atoms: C_6  and  C_39
    8  A    between atoms: N_8  and  C_30
    9  A    between atoms: C_9  and  C_11
   10  A    between atoms: C_9  and  C_35
   11  A    between atoms: C_14  and  C_18
   12  A    between atoms: C_14  and  C_22
   13  A    between atoms: C_18  and  N_37
   14  A    between atoms: C_21  and  C_22
                            x       y       z     vdW  Elec       q    Type
                         _______ _______ _______ _____ _____    ______ ____

>  <TORSDO>
F 14

$$$$
=
 OpenBabel11042413013D

 40 44  0  0  1  0  0  0  0  0999 V2000
  188.3970  177.4740  142.0360 N   0  0  0  0  0  0  0  0  0  0  0  0
  186.7140  178.9370  142.5570 C   0  0  2  0  0  3  0  0  0  0  0  0
  187.5820  176.8150  142.9740 C   0  0  0  0  0  0  0  0  0  0  0  0
  187.9360  178.7680  141.7460 N   0  0  0  0  0  2  0  0  0  0  0  0
  187.7790  175.6340  143.3660 O   0  0  0  0  0  0  0  0  0  0  0  0
  186.4710  177.6720  143.4030 C   0  0  1  0  0  3  0  0  0  0  0  0
  186.5620  177.9910  144.8690 C   0  0  0  0  0  0  0  0  0  0  0  0
  186.7480  178.5660  147.5260 N   0  0  0  0  0  0  0  0  0  0  0  0
  187.7290  177.7910  145.5400 N   0  0  0  0  0  0  0  0  0  0  0  0
  185.5920  178.7680  146.8920 N   0  0  0  0  0  0  0  0  0  0  0  0
  189.0550  177.8740  147.5490 N   0  0  0  0  0  1  0  0  0  0  0  0
  184.1480  178.7440  144.8990 C   0  0  0  0  0  1  0  0  0  0  0  0
  185.4570  178.4950  145.5680 C   0  0  0  0  0  0  0  0  0  0  0  0
  187.8260  178.0780  146.8630 C   0  0  0  0  0  0  0  0  0  0  0  0
  185.5140  179.2550  141.6670 C   0  0  0  0  0  2  0  0  0  0  0  0
  183.8070  177.8600  140.4980 C   0  0  2  0  0  3  0  0  0  0  0  0
  183.0710  178.8560  141.3830 C   0  0  1  0  0  0  0  0  0  0  0  0
  184.3790  178.2500  141.8440 C   0  0  2  0  0  3  0  0  0  0  0  0
  183.0110  178.9870  139.8750 C   0  0  0  0  0  2  0  0  0  0  0  0
  181.8730  178.1190  141.9520 C   0  0  0  0  0  2  0  0  0  0  0  0
  180.5030  178.6350  144.0070 N   0  0  0  0  0  1  0  0  0  0  0  0
  181.0270  179.0490  142.7510 C   0  0  0  0  0  0  0  0  0  0  0  0
  180.8010  180.2130  142.3280 O   0  0  0  0  0  0  0  0  0  0  0  0
  189.5520  176.8560  141.3910 C   0  0  0  0  0  2  0  0  0  0  0  0
  189.9240  177.5710  140.1040 C   0  0  0  0  0  2  0  0  0  0  0  0
  191.1740  176.9460  139.5170 C   0  0  0  0  0  2  0  0  0  0  0  0
  191.0140  176.7650  138.0180 C   0  0  0  0  0  2  0  0  0  0  0  0
  188.8900  175.6330  137.2730 C   0  0  0  0  0  0  0  0  0  0  0  0
  188.2620  176.9010  137.0590 N   0  0  0  0  0  2  0  0  0  0  0  0
  188.2620  174.5650  137.0510 O   0  0  0  0  0  0  0  0  0  0  0  0
  190.2370  175.5680  137.7420 N   0  0  0  0  0  2  0  0  0  0  0  0
  186.7360  178.6250  138.4290 O   0  0  0  0  0  1  0  0  0  0  0  0
  186.5990  176.8950  135.1230 C   0  0  0  0  0  1  0  0  0  0  0  0
  186.0290  178.0540  137.3680 C   0  0  1  0  0  3  0  0  0  0  0  0
  186.8790  177.0410  136.6150 C   0  0  2  0  0  0  0  0  0  0  0  0
  185.8530  176.5580  137.6310 C   0  0  2  0  0  3  0  0  0  0  0  0
  184.5530  176.0850  136.9970 C   0  0  0  0  0  2  0  0  0  0  0  0
  183.8390  175.3090  137.9110 O   0  0  0  0  0  0  0  0  0  0  0  0
  184.6060  173.0820  137.5810 C   0  0  0  0  0  1  0  0  0  0  0  0
  183.5650  174.1240  137.2260 C   0  0  0  0  0  2  0  0  0  0  0  0
  1  3  1  0  0  0  0
  2 15  1  6  0  0  0
  2  6  1  0  0  0  0
  3  5  2  0  0  0  0
  3  6  1  0  0  0  0
  4  1  1  0  0  0  0
  4  2  1  0  0  0  0
  6  7  1  1  0  0  0
  7  9  2  0  0  0  0
  7 13  1  0  0  0  0
  9 14  1  0  0  0  0
 10  8  1  0  0  0  0
 12 13  1  0  0  0  0
 13 10  2  0  0  0  0
 14  8  2  0  0  0  0
 14 11  1  0  0  0  0
 16 19  1  6  0  0  0
 16 17  1  0  0  0  0
 16 18  1  0  0  0  0
 17 18  1  0  0  0  0
 17 20  1  1  0  0  0
 18 15  1  6  0  0  0
 19 17  1  0  0  0  0
 20 22  1  0  0  0  0
 22 21  1  0  0  0  0
 23 22  2  0  0  0  0
 24  1  1  0  0  0  0
 25 24  1  0  0  0  0
 26 25  1  0  0  0  0
 27 26  1  0  0  0  0
 28 31  1  0  0  0  0
 29 28  1  0  0  0  0
 30 28  2  0  0  0  0
 31 27  1  0  0  0  0
 34 36  1  0  0  0  0
 34 32  1  1  0  0  0
 35 33  1  6  0  0  0
 35 29  1  0  0  0  0
 35 34  1  0  0  0  0
 35 36  1  0  0  0  0
 36 37  1  6  0  0  0
 37 38  1  0  0  0  0
 40 39  1  0  0  0  0
 40 38  1  0  0  0  0
M  END
>  <MODEL>
5

>  <REMARK>
 VINA RESULT:      -6.9      2.224      5.452
  Name = 
  14 active torsions:
  status: ('A' for Active; 'I' for Inactive)
    1  A    between atoms: O_1  and  C_3
    2  A    between atoms: O_1  and  C_38
    3  A    between atoms: N_2  and  C_21
    4  A    between atoms: C_3  and  C_31
    5  A    between atoms: C_5  and  C_16
    6  A    between atoms: C_5  and  C_29
    7  A    between atoms: C_6  and  C_39
    8  A    between atoms: N_8  and  C_30
    9  A    between atoms: C_9  and  C_11
   10  A    between atoms: C_9  and  C_35
   11  A    between atoms: C_14  and  C_18
   12  A    between atoms: C_14  and  C_22
   13  A    between atoms: C_18  and  N_37
   14  A    between atoms: C_21  and  C_22
                            x       y       z     vdW  Elec       q    Type
                         _______ _______ _______ _____ _____    ______ ____

>  <TORSDO>
F 14

$$$$
=
 OpenBabel11042413013D

 40 44  0  0  1  0  0  0  0  0999 V2000
  188.7570  177.4110  141.8490 N   0  0  0  0  0  0  0  0  0  0  0  0
  187.1430  177.8190  143.4210 C   0  0  2  0  0  3  0  0  0  0  0  0
  188.9190  176.4270  142.8400 C   0  0  0  0  0  0  0  0  0  0  0  0
  187.7060  178.2950  142.1420 N   0  0  0  0  0  2  0  0  0  0  0  0
  189.7780  175.5070  142.7800 O   0  0  0  0  0  0  0  0  0  0  0  0
  187.9440  176.6020  143.9230 C   0  0  1  0  0  3  0  0  0  0  0  0
  188.6260  176.9180  145.2250 C   0  0  0  0  0  0  0  0  0  0  0  0
  189.8800  177.4900  147.5750 N   0  0  0  0  0  0  0  0  0  0  0  0
  189.9770  176.7940  145.3370 N   0  0  0  0  0  0  0  0  0  0  0  0
  188.5550  177.6170  147.4930 N   0  0  0  0  0  0  0  0  0  0  0  0
  192.0180  176.9550  146.6040 N   0  0  0  0  0  1  0  0  0  0  0  0
  186.4100  177.5060  146.2910 C   0  0  0  0  0  1  0  0  0  0  0  0
  187.8910  177.3430  146.3400 C   0  0  0  0  0  0  0  0  0  0  0  0
  190.6050  177.0790  146.5050 C   0  0  0  0  0  0  0  0  0  0  0  0
  185.6600  177.4890  143.2700 C   0  0  0  0  0  2  0  0  0  0  0  0
  184.5900  179.6060  144.0490 C   0  0  2  0  0  3  0  0  0  0  0  0
  183.4890  178.6810  143.5480 C   0  0  1  0  0  0  0  0  0  0  0  0
  184.8350  178.7050  142.8560 C   0  0  2  0  0  3  0  0  0  0  0  0
  183.6100  178.9930  145.0260 C   0  0  0  0  0  2  0  0  0  0  0  0
  182.4740  179.5640  142.8470 C   0  0  0  0  0  2  0  0  0  0  0  0
  180.1800  178.6720  143.4000 N   0  0  0  0  0  1  0  0  0  0  0  0
  181.2650  178.7730  142.4850 C   0  0  0  0  0  0  0  0  0  0  0  0
  181.1900  178.2190  141.3580 O   0  0  0  0  0  0  0  0  0  0  0  0
  189.5500  177.4650  140.6240 C   0  0  0  0  0  2  0  0  0  0  0  0
  191.0360  177.5520  140.9200 C   0  0  0  0  0  2  0  0  0  0  0  0
  191.8260  177.1620  139.6870 C   0  0  0  0  0  2  0  0  0  0  0  0
  191.0910  176.0810  138.9140 C   0  0  0  0  0  2  0  0  0  0  0  0
  189.9220  176.7140  136.7750 C   0  0  0  0  0  0  0  0  0  0  0  0
  188.6610  176.7600  137.4500 N   0  0  0  0  0  2  0  0  0  0  0  0
  189.9950  176.9670  135.5430 O   0  0  0  0  0  0  0  0  0  0  0  0
  191.1110  176.3830  137.4930 N   0  0  0  0  0  2  0  0  0  0  0  0
  188.0990  179.3500  137.0510 O   0  0  0  0  0  1  0  0  0  0  0  0
  186.9250  176.0690  135.7130 C   0  0  0  0  0  1  0  0  0  0  0  0
  187.1110  178.5260  136.5060 C   0  0  1  0  0  3  0  0  0  0  0  0
  187.4040  177.0570  136.7700 C   0  0  2  0  0  0  0  0  0  0  0  0
  186.3920  177.7920  137.6380 C   0  0  2  0  0  3  0  0  0  0  0  0
  184.9480  177.5320  137.2310 C   0  0  0  0  0  2  0  0  0  0  0  0
  184.1910  177.2210  138.3610 O   0  0  0  0  0  0  0  0  0  0  0  0
  183.7350  179.3700  139.2730 C   0  0  0  0  0  1  0  0  0  0  0  0
  183.2230  178.2260  138.4210 C   0  0  0  0  0  2  0  0  0  0  0  0
  1  4  1  0  0  0  0
  1  3  1  0  0  0  0
  2 15  1  6  0  0  0
  2  6  1  0  0  0  0
  3  6  1  0  0  0  0
  4  2  1  0  0  0  0
  5  3  2  0  0  0  0
  6  7  1  1  0  0  0
  7  9  2  0  0  0  0
  7 13  1  0  0  0  0
  9 14  1  0  0  0  0
 10  8  1  0  0  0  0
 12 13  1  0  0  0  0
 13 10  2  0  0  0  0
 14 11  1  0  0  0  0
 14  8  2  0  0  0  0
 16 19  1  1  0  0  0
 17 20  1  6  0  0  0
 17 16  1  0  0  0  0
 17 19  1  0  0  0  0
 18 15  1  1  0  0  0
 18 17  1  0  0  0  0
 18 16  1  0  0  0  0
 22 20  1  0  0  0  0
 22 21  1  0  0  0  0
 23 22  2  0  0  0  0
 24 25  1  0  0  0  0
 24  1  1  0  0  0  0
 26 25  1  0  0  0  0
 27 26  1  0  0  0  0
 28 29  1  0  0  0  0
 28 31  1  0  0  0  0
 30 28  2  0  0  0  0
 31 27  1  0  0  0  0
 34 35  1  0  0  0  0
 34 32  1  1  0  0  0
 34 36  1  0  0  0  0
 35 33  1  6  0  0  0
 35 29  1  0  0  0  0
 35 36  1  0  0  0  0
 36 37  1  6  0  0  0
 37 38  1  0  0  0  0
 38 40  1  0  0  0  0
 40 39  1  0  0  0  0
M  END
>  <MODEL>
6

>  <REMARK>
 VINA RESULT:      -6.8      2.177      5.632
  Name = 
  14 active torsions:
  status: ('A' for Active; 'I' for Inactive)
    1  A    between atoms: O_1  and  C_3
    2  A    between atoms: O_1  and  C_38
    3  A    between atoms: N_2  and  C_21
    4  A    between atoms: C_3  and  C_31
    5  A    between atoms: C_5  and  C_16
    6  A    between atoms: C_5  and  C_29
    7  A    between atoms: C_6  and  C_39
    8  A    between atoms: N_8  and  C_30
    9  A    between atoms: C_9  and  C_11
   10  A    between atoms: C_9  and  C_35
   11  A    between atoms: C_14  and  C_18
   12  A    between atoms: C_14  and  C_22
   13  A    between atoms: C_18  and  N_37
   14  A    between atoms: C_21  and  C_22
                            x       y       z     vdW  Elec       q    Type
                         _______ _______ _______ _____ _____    ______ ____

>  <TORSDO>
F 14

$$$$
=
 OpenBabel11042413013D

 40 44  0  0  1  0  0  0  0  0999 V2000
  183.6560  178.0720  139.4520 N   0  0  0  0  0  0  0  0  0  0  0  0
  184.4420  176.8100  137.7110 C   0  0  2  0  0  3  0  0  0  0  0  0
  184.4460  178.9330  138.6710 C   0  0  0  0  0  0  0  0  0  0  0  0
  183.6180  176.7680  138.9350 N   0  0  0  0  0  2  0  0  0  0  0  0
  184.6050  180.1580  138.9200 O   0  0  0  0  0  0  0  0  0  0  0  0
  185.0280  178.2230  137.5260 C   0  0  1  0  0  3  0  0  0  0  0  0
  186.5280  178.1880  137.6110 C   0  0  0  0  0  0  0  0  0  0  0  0
  189.2460  178.1200  137.7840 N   0  0  0  0  0  0  0  0  0  0  0  0
  187.1440  178.1660  138.8240 N   0  0  0  0  0  0  0  0  0  0  0  0
  188.6680  178.1440  136.5830 N   0  0  0  0  0  0  0  0  0  0  0  0
  189.1270  178.0980  140.1900 N   0  0  0  0  0  1  0  0  0  0  0  0
  186.7130  178.1950  135.0890 C   0  0  0  0  0  1  0  0  0  0  0  0
  187.3160  178.1770  136.4520 C   0  0  0  0  0  0  0  0  0  0  0  0
  188.4970  178.1310  138.9150 C   0  0  0  0  0  0  0  0  0  0  0  0
  183.6250  176.3790  136.4940 C   0  0  0  0  0  2  0  0  0  0  0  0
  183.4800  173.9950  135.7670 C   0  0  2  0  0  3  0  0  0  0  0  0
  184.7210  174.1450  136.6370 C   0  0  1  0  0  0  0  0  0  0  0  0
  184.3050  175.2630  135.7050 C   0  0  2  0  0  3  0  0  0  0  0  0
  183.5280  173.3590  137.1400 C   0  0  0  0  0  2  0  0  0  0  0  0
  185.7860  173.2580  136.0190 C   0  0  0  0  0  2  0  0  0  0  0  0
  187.5330  174.7210  137.1020 N   0  0  0  0  0  1  0  0  0  0  0  0
  187.0760  173.4220  136.7440 C   0  0  0  0  0  0  0  0  0  0  0  0
  187.7490  172.4080  137.0670 O   0  0  0  0  0  0  0  0  0  0  0  0
  182.9070  178.5040  140.6290 C   0  0  0  0  0  2  0  0  0  0  0  0
  183.5810  178.0610  141.9160 C   0  0  0  0  0  2  0  0  0  0  0  0
  184.7200  179.0040  142.2460 C   0  0  0  0  0  2  0  0  0  0  0  0
  186.0180  178.2300  142.3830 C   0  0  0  0  0  2  0  0  0  0  0  0
  187.6020  177.7980  144.2940 C   0  0  0  0  0  0  0  0  0  0  0  0
  188.7300  177.9580  143.4260 N   0  0  0  0  0  2  0  0  0  0  0  0
  187.7700  177.5390  145.5150 O   0  0  0  0  0  0  0  0  0  0  0  0
  186.2760  177.9330  143.7820 N   0  0  0  0  0  2  0  0  0  0  0  0
  189.9920  175.7280  142.6460 O   0  0  0  0  0  1  0  0  0  0  0  0
  190.9510  179.0630  144.0220 C   0  0  0  0  0  1  0  0  0  0  0  0
  190.8360  176.5540  143.3910 C   0  0  1  0  0  3  0  0  0  0  0  0
  190.1090  177.8000  143.8750 C   0  0  2  0  0  0  0  0  0  0  0  0
  190.3190  176.6320  144.8280 C   0  0  2  0  0  3  0  0  0  0  0  0
  191.4930  176.8310  145.7760 C   0  0  0  0  0  2  0  0  0  0  0  0
  191.0190  177.1040  147.0600 O   0  0  0  0  0  0  0  0  0  0  0  0
  192.5420  175.2900  147.2770 C   0  0  0  0  0  1  0  0  0  0  0  0
  191.9720  176.5440  147.9110 C   0  0  0  0  0  2  0  0  0  0  0  0
  1 24  1  0  0  0  0
  2 15  1  6  0  0  0
  2  4  1  0  0  0  0
  3  5  2  0  0  0  0
  3  1  1  0  0  0  0
  4  1  1  0  0  0  0
  6  7  1  1  0  0  0
  6  2  1  0  0  0  0
  6  3  1  0  0  0  0
  7  9  2  0  0  0  0
  8 14  2  0  0  0  0
  9 14  1  0  0  0  0
 10  8  1  0  0  0  0
 12 13  1  0  0  0  0
 13 10  2  0  0  0  0
 13  7  1  0  0  0  0
 14 11  1  0  0  0  0
 16 17  1  0  0  0  0
 16 19  1  1  0  0  0
 17 20  1  6  0  0  0
 17 19  1  0  0  0  0
 18 16  1  0  0  0  0
 18 15  1  1  0  0  0
 18 17  1  0  0  0  0
 20 22  1  0  0  0  0
 22 23  2  0  0  0  0
 22 21  1  0  0  0  0
 24 25  1  0  0  0  0
 25 26  1  0  0  0  0
 26 27  1  0  0  0  0
 27 31  1  0  0  0  0
 28 30  2  0  0  0  0
 29 35  1  0  0  0  0
 29 28  1  0  0  0  0
 31 28  1  0  0  0  0
 34 32  1  6  0  0  0
 34 35  1  0  0  0  0
 34 36  1  0  0  0  0
 35 33  1  1  0  0  0
 35 36  1  0  0  0  0
 36 37  1  1  0  0  0
 37 38  1  0  0  0  0
 38 40  1  0  0  0  0
 39 40  1  0  0  0  0
M  END
>  <MODEL>
7

>  <REMARK>
 VINA RESULT:      -6.8      2.285      8.923
  Name = 
  14 active torsions:
  status: ('A' for Active; 'I' for Inactive)
    1  A    between atoms: O_1  and  C_3
    2  A    between atoms: O_1  and  C_38
    3  A    between atoms: N_2  and  C_21
    4  A    between atoms: C_3  and  C_31
    5  A    between atoms: C_5  and  C_16
    6  A    between atoms: C_5  and  C_29
    7  A    between atoms: C_6  and  C_39
    8  A    between atoms: N_8  and  C_30
    9  A    between atoms: C_9  and  C_11
   10  A    between atoms: C_9  and  C_35
   11  A    between atoms: C_14  and  C_18
   12  A    between atoms: C_14  and  C_22
   13  A    between atoms: C_18  and  N_37
   14  A    between atoms: C_21  and  C_22
                            x       y       z     vdW  Elec       q    Type
                         _______ _______ _______ _____ _____    ______ ____

>  <TORSDO>
F 14

$$$$
=
 OpenBabel11042413013D

 40 44  0  0  1  0  0  0  0  0999 V2000
  184.2820  179.2630  141.9730 N   0  0  0  0  0  0  0  0  0  0  0  0
  184.5660  178.9330  139.7250 C   0  0  2  0  0  3  0  0  0  0  0  0
  183.1210  178.6100  141.5240 C   0  0  0  0  0  0  0  0  0  0  0  0
  185.1960  179.5000  140.9340 N   0  0  0  0  0  2  0  0  0  0  0  0
  182.1730  178.2660  142.2800 O   0  0  0  0  0  0  0  0  0  0  0  0
  183.1790  178.3630  140.0780 C   0  0  1  0  0  3  0  0  0  0  0  0
  182.0980  179.1150  139.3530 C   0  0  0  0  0  0  0  0  0  0  0  0
  180.1530  180.4930  138.0340 N   0  0  0  0  0  0  0  0  0  0  0  0
  182.2790  180.4230  139.0220 N   0  0  0  0  0  0  0  0  0  0  0  0
  179.9490  179.2130  138.3490 N   0  0  0  0  0  0  0  0  0  0  0  0
  181.5210  182.4750  138.0160 N   0  0  0  0  0  1  0  0  0  0  0  0
  180.6250  177.0600  139.3300 C   0  0  0  0  0  1  0  0  0  0  0  0
  180.8930  178.4900  139.0050 C   0  0  0  0  0  0  0  0  0  0  0  0
  181.3140  181.1120  138.3640 C   0  0  0  0  0  0  0  0  0  0  0  0
  185.4640  177.8700  139.0960 C   0  0  0  0  0  2  0  0  0  0  0  0
  184.7050  177.2630  136.7970 C   0  0  2  0  0  3  0  0  0  0  0  0
  186.1560  176.8260  136.9410 C   0  0  1  0  0  0  0  0  0  0  0  0
  185.6760  178.1000  137.6020 C   0  0  2  0  0  3  0  0  0  0  0  0
  185.0540  175.7900  136.8470 C   0  0  0  0  0  2  0  0  0  0  0  0
  186.8190  177.0950  135.6030 C   0  0  0  0  0  2  0  0  0  0  0  0
  188.8010  175.5630  135.8970 N   0  0  0  0  0  1  0  0  0  0  0  0
  188.2890  176.8750  135.7030 C   0  0  0  0  0  0  0  0  0  0  0  0
  189.0790  177.8470  135.5850 O   0  0  0  0  0  0  0  0  0  0  0  0
  184.5340  179.5960  143.3720 C   0  0  0  0  0  2  0  0  0  0  0  0
  184.9050  178.3670  144.1830 C   0  0  0  0  0  2  0  0  0  0  0  0
  185.5370  178.7920  145.4940 C   0  0  0  0  0  2  0  0  0  0  0  0
  186.8190  178.0160  145.7330 C   0  0  0  0  0  2  0  0  0  0  0  0
  188.2370  176.7460  144.0840 C   0  0  0  0  0  0  0  0  0  0  0  0
  189.3900  177.5120  144.4490 N   0  0  0  0  0  2  0  0  0  0  0  0
  188.3210  175.8480  143.2050 O   0  0  0  0  0  0  0  0  0  0  0  0
  186.9800  176.9920  144.7140 N   0  0  0  0  0  2  0  0  0  0  0  0
  190.8810  179.7180  144.1530 O   0  0  0  0  0  1  0  0  0  0  0  0
  191.4320  176.0260  144.0830 C   0  0  0  0  0  1  0  0  0  0  0  0
  191.5570  178.5840  143.6970 C   0  0  1  0  0  3  0  0  0  0  0  0
  190.6950  177.3360  143.8210 C   0  0  2  0  0  0  0  0  0  0  0  0
  190.8300  178.0270  142.4720 C   0  0  2  0  0  3  0  0  0  0  0  0
  191.8380  177.3570  141.5500 C   0  0  0  0  0  2  0  0  0  0  0  0
  191.2180  177.0090  140.3500 O   0  0  0  0  0  0  0  0  0  0  0  0
  189.4300  177.9390  139.0850 C   0  0  0  0  0  1  0  0  0  0  0  0
  189.9280  177.5320  140.4580 C   0  0  0  0  0  2  0  0  0  0  0  0
  1 24  1  0  0  0  0
  2 15  1  1  0  0  0
  2  6  1  0  0  0  0
  2  4  1  0  0  0  0
  3  1  1  0  0  0  0
  3  5  2  0  0  0  0
  4  1  1  0  0  0  0
  6  7  1  6  0  0  0
  6  3  1  0  0  0  0
  8 10  1  0  0  0  0
  8 14  2  0  0  0  0
  9  7  2  0  0  0  0
 10 13  2  0  0  0  0
 11 14  1  0  0  0  0
 13 12  1  0  0  0  0
 13  7  1  0  0  0  0
 14  9  1  0  0  0  0
 16 19  1  1  0  0  0
 16 17  1  0  0  0  0
 16 18  1  0  0  0  0
 17 20  1  6  0  0  0
 17 18  1  0  0  0  0
 18 15  1  1  0  0  0
 19 17  1  0  0  0  0
 20 22  1  0  0  0  0
 22 21  1  0  0  0  0
 23 22  2  0  0  0  0
 24 25  1  0  0  0  0
 25 26  1  0  0  0  0
 26 27  1  0  0  0  0
 28 29  1  0  0  0  0
 28 31  1  0  0  0  0
 30 28  2  0  0  0  0
 31 27  1  0  0  0  0
 34 35  1  0  0  0  0
 34 32  1  1  0  0  0
 35 33  1  1  0  0  0
 35 29  1  0  0  0  0
 36 37  1  6  0  0  0
 36 34  1  0  0  0  0
 36 35  1  0  0  0  0
 38 40  1  0  0  0  0
 38 37  1  0  0  0  0
 39 40  1  0  0  0  0
M  END
>  <MODEL>
8

>  <REMARK>
 VINA RESULT:      -6.8      2.663      7.737
  Name = 
  14 active torsions:
  status: ('A' for Active; 'I' for Inactive)
    1  A    between atoms: O_1  and  C_3
    2  A    between atoms: O_1  and  C_38
    3  A    between atoms: N_2  and  C_21
    4  A    between atoms: C_3  and  C_31
    5  A    between atoms: C_5  and  C_16
    6  A    between atoms: C_5  and  C_29
    7  A    between atoms: C_6  and  C_39
    8  A    between atoms: N_8  and  C_30
    9  A    between atoms: C_9  and  C_11
   10  A    between atoms: C_9  and  C_35
   11  A    between atoms: C_14  and  C_18
   12  A    between atoms: C_14  and  C_22
   13  A    between atoms: C_18  and  N_37
   14  A    between atoms: C_21  and  C_22
                            x       y       z     vdW  Elec       q    Type
                         _______ _______ _______ _____ _____    ______ ____

>  <TORSDO>
F 14

$$$$
=
 OpenBabel11042413013D

 40 44  0  0  1  0  0  0  0  0999 V2000
  191.7090  176.9770  140.0260 N   0  0  0  0  0  0  0  0  0  0  0  0
  190.9490  176.1720  138.0210 C   0  0  2  0  0  3  0  0  0  0  0  0
  192.7670  177.1360  139.1150 C   0  0  0  0  0  0  0  0  0  0  0  0
  190.5800  176.3890  139.4330 N   0  0  0  0  0  2  0  0  0  0  0  0
  193.8710  177.6680  139.4090 O   0  0  0  0  0  0  0  0  0  0  0  0
  192.4020  176.6290  137.7870 C   0  0  1  0  0  3  0  0  0  0  0  0
  193.2660  175.4640  137.3910 C   0  0  0  0  0  0  0  0  0  0  0  0
  194.8320  173.3470  136.6930 N   0  0  0  0  0  0  0  0  0  0  0  0
  193.9520  174.7690  138.3390 N   0  0  0  0  0  0  0  0  0  0  0  0
  194.1730  174.0130  135.7450 N   0  0  0  0  0  0  0  0  0  0  0  0
  195.4350  172.9890  138.9980 N   0  0  0  0  0  1  0  0  0  0  0  0
  192.6560  175.7850  134.9580 C   0  0  0  0  0  1  0  0  0  0  0  0
  193.3800  175.0740  136.0500 C   0  0  0  0  0  0  0  0  0  0  0  0
  194.7320  173.7130  137.9960 C   0  0  0  0  0  0  0  0  0  0  0  0
  189.9780  176.8950  137.0910 C   0  0  0  0  0  2  0  0  0  0  0  0
  187.5980  177.1170  136.3740 C   0  0  2  0  0  3  0  0  0  0  0  0
  187.8040  178.0050  137.5940 C   0  0  1  0  0  0  0  0  0  0  0  0
  188.5210  176.6760  137.4890 C   0  0  2  0  0  3  0  0  0  0  0  0
  187.5650  178.6240  136.2320 C   0  0  0  0  0  2  0  0  0  0  0  0
  186.5340  177.9010  138.4180 C   0  0  0  0  0  2  0  0  0  0  0  0
  185.5860  179.0320  140.4640 N   0  0  0  0  0  1  0  0  0  0  0  0
  186.7180  178.5740  139.7340 C   0  0  0  0  0  0  0  0  0  0  0  0
  187.8730  178.7110  140.2150 O   0  0  0  0  0  0  0  0  0  0  0  0
  191.7570  177.4330  141.4120 C   0  0  0  0  0  2  0  0  0  0  0  0
  190.4360  177.2040  142.1250 C   0  0  0  0  0  2  0  0  0  0  0  0
  190.2020  178.3120  143.1320 C   0  0  0  0  0  2  0  0  0  0  0  0
  191.4490  178.5330  143.9680 C   0  0  0  0  0  2  0  0  0  0  0  0
  190.3300  177.3060  145.8610 C   0  0  0  0  0  0  0  0  0  0  0  0
  189.0860  177.9570  145.5790 N   0  0  0  0  0  2  0  0  0  0  0  0
  190.4150  176.4780  146.8070 O   0  0  0  0  0  0  0  0  0  0  0  0
  191.4850  177.5880  145.0710 N   0  0  0  0  0  2  0  0  0  0  0  0
  187.1580  176.4900  144.4350 O   0  0  0  0  0  1  0  0  0  0  0  0
  188.0340  177.6310  147.8800 C   0  0  0  0  0  1  0  0  0  0  0  0
  186.8040  176.8710  145.7310 C   0  0  1  0  0  3  0  0  0  0  0  0
  187.8770  177.7420  146.3670 C   0  0  2  0  0  0  0  0  0  0  0  0
  186.6320  178.3890  145.7780 C   0  0  2  0  0  3  0  0  0  0  0  0
  185.5860  178.7450  146.8240 C   0  0  0  0  0  2  0  0  0  0  0  0
  184.3370  178.8730  146.2140 O   0  0  0  0  0  0  0  0  0  0  0  0
  183.4490  179.0450  144.0130 C   0  0  0  0  0  1  0  0  0  0  0  0
  184.6200  179.3410  144.9300 C   0  0  0  0  0  2  0  0  0  0  0  0
  1 24  1  0  0  0  0
  2 15  1  6  0  0  0
  2  4  1  0  0  0  0
  3  5  2  0  0  0  0
  3  1  1  0  0  0  0
  4  1  1  0  0  0  0
  6  7  1  1  0  0  0
  6  2  1  0  0  0  0
  6  3  1  0  0  0  0
  7  9  2  0  0  0  0
  8 14  2  0  0  0  0
 10 13  2  0  0  0  0
 10  8  1  0  0  0  0
 12 13  1  0  0  0  0
 13  7  1  0  0  0  0
 14  9  1  0  0  0  0
 14 11  1  0  0  0  0
 16 19  1  6  0  0  0
 16 18  1  0  0  0  0
 16 17  1  0  0  0  0
 17 20  1  1  0  0  0
 18 15  1  6  0  0  0
 18 17  1  0  0  0  0
 19 17  1  0  0  0  0
 20 22  1  0  0  0  0
 22 23  2  0  0  0  0
 22 21  1  0  0  0  0
 24 25  1  0  0  0  0
 25 26  1  0  0  0  0
 26 27  1  0  0  0  0
 27 31  1  0  0  0  0
 28 30  2  0  0  0  0
 29 28  1  0  0  0  0
 29 35  1  0  0  0  0
 31 28  1  0  0  0  0
 34 32  1  6  0  0  0
 34 36  1  0  0  0  0
 34 35  1  0  0  0  0
 35 33  1  1  0  0  0
 36 35  1  0  0  0  0
 36 37  1  1  0  0  0
 38 37  1  0  0  0  0
 39 40  1  0  0  0  0
 40 38  1  0  0  0  0
M  END
>  <MODEL>
9

>  <REMARK>
 VINA RESULT:      -6.7      3.343      9.438
  Name = 
  14 active torsions:
  status: ('A' for Active; 'I' for Inactive)
    1  A    between atoms: O_1  and  C_3
    2  A    between atoms: O_1  and  C_38
    3  A    between atoms: N_2  and  C_21
    4  A    between atoms: C_3  and  C_31
    5  A    between atoms: C_5  and  C_16
    6  A    between atoms: C_5  and  C_29
    7  A    between atoms: C_6  and  C_39
    8  A    between atoms: N_8  and  C_30
    9  A    between atoms: C_9  and  C_11
   10  A    between atoms: C_9  and  C_35
   11  A    between atoms: C_14  and  C_18
   12  A    between atoms: C_14  and  C_22
   13  A    between atoms: C_18  and  N_37
   14  A    between atoms: C_21  and  C_22
                            x       y       z     vdW  Elec       q    Type
                         _______ _______ _______ _____ _____    ______ ____

>  <TORSDO>
F 14

$$$$
