=
 OpenBabel11042412583D

 42 47  0  0  1  0  0  0  0  0999 V2000
  186.0990  177.4840  137.2580 C   0  0  1  0  0  3  0  0  0  0  0  0
  180.5450  176.3770  138.0340 C   0  0  0  0  0  1  0  0  0  0  0  0
  182.8620  176.3100  138.8740 C   0  0  0  0  0  2  0  0  0  0  0  0
  184.4350  178.6900  138.4120 C   0  0  2  0  0  3  0  0  0  0  0  0
  182.5300  179.4210  139.5660 C   0  0  0  0  0  2  0  0  0  0  0  0
  181.4750  178.5120  138.9540 C   0  0  0  0  0  0  0  0  0  0  0  0
  180.3390  179.0290  138.7690 O   0  0  0  0  0  0  0  0  0  0  0  0
  183.8600  178.7430  139.7530 C   0  0  2  0  0  3  0  0  0  0  0  0
  183.9600  176.5040  137.8130 C   0  0  0  0  0  2  0  0  0  0  0  0
  185.0530  177.3760  138.2960 N   0  0  0  0  0  0  0  0  0  0  0  0
  185.0370  179.5610  139.4370 N   0  0  0  0  0  2  0  0  0  0  0  0
  181.6770  177.1190  138.5710 N   0  0  0  0  0  0  0  0  0  0  0  0
  188.8970  179.1590  138.7330 C   0  0  0  0  0  2  0  0  0  0  0  0
  187.8760  179.4690  136.5880 O   0  0  0  0  0  1  0  0  0  0  0  0
  188.8110  178.0430  139.7580 C   0  0  2  0  0  3  0  0  0  0  0  0
  188.4780  178.5220  137.4270 C   0  0  2  0  0  3  0  0  0  0  0  0
  187.6700  177.1510  139.3050 C   0  0  0  0  0  2  0  0  0  0  0  0
  187.5460  177.3680  137.8010 C   0  0  1  0  0  3  0  0  0  0  0  0
  188.5290  178.5920  141.1520 C   0  0  0  0  0  2  0  0  0  0  0  0
  187.1780  177.4030  142.9030 C   0  0  0  0  0  2  0  0  0  0  0  0
  187.5000  177.3560  144.3920 C   0  0  0  0  0  2  0  0  0  0  0  0
  189.5080  177.7800  143.2320 N   0  0  1  0  0  0  0  0  0  0  0  0
  188.9790  177.0640  144.3720 C   0  0  1  0  0  3  0  0  0  0  0  0
  189.7850  177.4070  145.5850 C   0  0  0  0  0  0  0  0  0  0  0  0
  189.2620  177.7280  146.6440 O   0  0  0  0  0  0  0  0  0  0  0  0
  190.8160  177.2050  142.9350 C   0  0  0  0  0  2  0  0  0  0  0  0
  191.2830  177.2640  145.4690 C   0  0  2  0  0  3  0  0  0  0  0  0
  188.5340  177.4810  142.1940 C   0  0  2  0  0  3  0  0  0  0  0  0
  191.7890  177.6280  144.0510 C   0  0  0  0  0  2  0  0  0  0  0  0
  191.6510  175.9500  145.7790 O   0  0  0  0  0  0  0  0  0  0  0  0
  192.1020  176.0060  147.1010 C   0  0  0  0  0  1  0  0  0  0  0  0
  187.0000  174.7050  137.1580 O   0  0  0  0  0  0  0  0  0  0  0  0
  186.4730  175.2040  136.1240 C   0  0  0  0  0  0  0  0  0  0  0  0
  185.9220  176.5310  136.1540 N   0  0  0  0  0  2  0  0  0  0  0  0
  186.4180  174.3860  134.8610 C   0  0  1  0  0  3  0  0  0  0  0  0
  186.6070  172.9070  135.1570 C   0  0  0  0  0  2  0  0  0  0  0  0
  185.2270  173.4120  134.7730 C   0  0  1  0  0  3  0  0  0  0  0  0
  184.3020  173.4030  135.9970 C   0  0  1  0  0  3  0  0  0  0  0  0
  182.9770  173.5300  135.5700 O   0  0  0  0  0  1  0  0  0  0  0  0
  184.4460  172.1100  136.7820 C   0  0  0  0  0  2  0  0  0  0  0  0
  183.0920  171.4350  136.9610 C   0  0  0  0  0  2  0  0  0  0  0  0
  183.0340  170.2950  136.1590 O   0  0  0  0  0  1  0  0  0  0  0  0
  1 34  1  6  0  0  0
  1 10  1  0  0  0  0
  2 12  1  0  0  0  0
  4 11  1  1  0  0  0
  4  8  1  0  0  0  0
  6  5  1  0  0  0  0
  7  6  2  0  0  0  0
  8  5  1  6  0  0  0
  9 10  1  0  0  0  0
  9  3  1  0  0  0  0
 10  4  1  0  0  0  0
 11  8  1  0  0  0  0
 12  3  1  0  0  0  0
 12  6  1  0  0  0  0
 13 15  1  0  0  0  0
 15 19  1  1  0  0  0
 16 14  1  6  0  0  0
 16 18  1  0  0  0  0
 16 13  1  0  0  0  0
 17 15  1  0  0  0  0
 18  1  1  1  0  0  0
 18 17  1  0  0  0  0
 20 21  1  0  0  0  0
 22 26  1  6  0  0  0
 22 23  1  0  0  0  0
 23 21  1  1  0  0  0
 23 24  1  0  0  0  0
 24 25  2  0  0  0  0
 26 29  1  0  0  0  0
 27 24  1  0  0  0  0
 27 30  1  6  0  0  0
 28 19  1  6  0  0  0
 28 20  1  0  0  0  0
 28 22  1  0  0  0  0
 29 27  1  0  0  0  0
 30 31  1  0  0  0  0
 33 34  1  0  0  0  0
 33 32  2  0  0  0  0
 35 36  1  0  0  0  0
 35 33  1  1  0  0  0
 37 35  1  0  0  0  0
 37 36  1  0  0  0  0
 37 38  1  1  0  0  0
 38 39  1  6  0  0  0
 38 40  1  0  0  0  0
 40 41  1  0  0  0  0
 42 41  1  0  0  0  0
M  END
>  <MODEL>
1

>  <REMARK>
 VINA RESULT:      -7.0      0.000      0.000
  Name = 
  10 active torsions:
  status: ('A' for Active; 'I' for Inactive)
    1  A    between atoms: C_6  and  C_10
    2  A    between atoms: C_6  and  C_42
    3  A    between atoms: C_8  and  C_21
    4  A    between atoms: C_10  and  C_22
    5  A    between atoms: C_14  and  C_16
    6  A    between atoms: C_14  and  C_37
    7  A    between atoms: O_20  and  C_36
    8  A    between atoms: C_24  and  N_26
    9  A    between atoms: C_24  and  C_32
   10  A    between atoms: C_24  and  N_38
                            x       y       z     vdW  Elec       q    Type
                         _______ _______ _______ _____ _____    ______ ____

>  <TORSDO>
F 10

$$$$
=
 OpenBabel11042412583D

 42 47  0  0  1  0  0  0  0  0999 V2000
  188.1010  177.7050  141.2300 C   0  0  1  0  0  3  0  0  0  0  0  0
  184.1060  180.3400  144.3560 C   0  0  0  0  0  1  0  0  0  0  0  0
  184.8350  178.3730  143.0630 C   0  0  0  0  0  2  0  0  0  0  0  0
  187.5560  177.5110  143.5150 C   0  0  2  0  0  3  0  0  0  0  0  0
  186.5500  177.5220  145.6330 C   0  0  0  0  0  2  0  0  0  0  0  0
  185.6590  178.7480  145.5040 C   0  0  0  0  0  0  0  0  0  0  0  0
  185.5380  179.4540  146.5420 O   0  0  0  0  0  0  0  0  0  0  0  0
  186.6550  176.7300  144.3580 C   0  0  2  0  0  3  0  0  0  0  0  0
  186.0430  178.5960  142.1370 C   0  0  0  0  0  2  0  0  0  0  0  0
  186.9910  177.4590  142.1730 N   0  0  0  0  0  0  0  0  0  0  0  0
  187.9900  176.2060  144.0460 N   0  0  0  0  0  2  0  0  0  0  0  0
  184.9530  179.1580  144.2960 N   0  0  0  0  0  0  0  0  0  0  0  0
  187.1060  177.3420  137.8120 C   0  0  0  0  0  2  0  0  0  0  0  0
  189.1770  176.7810  138.8780 O   0  0  0  0  0  1  0  0  0  0  0  0
  185.9400  178.2170  138.2330 C   0  0  2  0  0  3  0  0  0  0  0  0
  188.2750  177.8270  138.6390 C   0  0  2  0  0  3  0  0  0  0  0  0
  186.1710  178.5400  139.6980 C   0  0  0  0  0  2  0  0  0  0  0  0
  187.6740  178.4110  139.9180 C   0  0  1  0  0  3  0  0  0  0  0  0
  184.6100  177.4900  138.0580 C   0  0  0  0  0  2  0  0  0  0  0  0
  182.9880  176.5360  139.7190 C   0  0  0  0  0  2  0  0  0  0  0  0
  181.4970  176.8490  139.7840 C   0  0  0  0  0  2  0  0  0  0  0  0
  182.5680  178.6520  138.7070 N   0  0  1  0  0  0  0  0  0  0  0  0
  181.4970  178.3490  139.6310 C   0  0  1  0  0  3  0  0  0  0  0  0
  180.2400  179.0130  139.1620 C   0  0  0  0  0  0  0  0  0  0  0  0
  179.1760  178.4120  139.0890 O   0  0  0  0  0  0  0  0  0  0  0  0
  182.8690  180.0720  138.8530 C   0  0  0  0  0  2  0  0  0  0  0  0
  180.3250  180.4880  138.8540 C   0  0  2  0  0  3  0  0  0  0  0  0
  183.6510  177.8140  139.1960 C   0  0  2  0  0  3  0  0  0  0  0  0
  181.6980  180.8730  138.2520 C   0  0  0  0  0  2  0  0  0  0  0  0
  180.0990  181.2210  140.0240 O   0  0  0  0  0  0  0  0  0  0  0  0
  179.0950  182.1340  139.6880 C   0  0  0  0  0  1  0  0  0  0  0  0
  190.8490  176.7740  141.5860 O   0  0  0  0  0  0  0  0  0  0  0  0
  190.5280  177.8980  142.0670 C   0  0  0  0  0  0  0  0  0  0  0  0
  189.2190  178.4440  141.8310 N   0  0  0  0  0  2  0  0  0  0  0  0
  191.5360  178.6630  142.8820 C   0  0  1  0  0  3  0  0  0  0  0  0
  190.9010  179.2430  144.1350 C   0  0  0  0  0  2  0  0  0  0  0  0
  191.8410  178.0580  144.2670 C   0  0  1  0  0  3  0  0  0  0  0  0
  191.0470  176.7910  144.6120 C   0  0  1  0  0  3  0  0  0  0  0  0
  191.8400  175.6690  144.3550 O   0  0  0  0  0  1  0  0  0  0  0  0
  190.6390  176.7830  146.0760 C   0  0  0  0  0  2  0  0  0  0  0  0
  191.7270  176.1480  146.9340 C   0  0  0  0  0  2  0  0  0  0  0  0
  192.0440  177.0050  147.9880 O   0  0  0  0  0  1  0  0  0  0  0  0
  1 34  1  1  0  0  0
  1 10  1  0  0  0  0
  3 12  1  0  0  0  0
  4 11  1  6  0  0  0
  4  8  1  0  0  0  0
  6  5  1  0  0  0  0
  6  7  2  0  0  0  0
  8  5  1  1  0  0  0
  9 10  1  0  0  0  0
  9  3  1  0  0  0  0
 10  4  1  0  0  0  0
 11  8  1  0  0  0  0
 12  2  1  0  0  0  0
 12  6  1  0  0  0  0
 13 15  1  0  0  0  0
 13 16  1  0  0  0  0
 15 19  1  1  0  0  0
 15 17  1  0  0  0  0
 16 14  1  1  0  0  0
 16 18  1  0  0  0  0
 17 18  1  0  0  0  0
 18  1  1  1  0  0  0
 20 21  1  0  0  0  0
 22 26  1  1  0  0  0
 22 28  1  0  0  0  0
 22 23  1  0  0  0  0
 23 21  1  6  0  0  0
 24 23  1  0  0  0  0
 25 24  2  0  0  0  0
 27 24  1  0  0  0  0
 27 30  1  1  0  0  0
 28 19  1  6  0  0  0
 28 20  1  0  0  0  0
 29 26  1  0  0  0  0
 29 27  1  0  0  0  0
 31 30  1  0  0  0  0
 32 33  2  0  0  0  0
 34 33  1  0  0  0  0
 35 33  1  6  0  0  0
 35 36  1  0  0  0  0
 35 37  1  0  0  0  0
 36 37  1  0  0  0  0
 37 38  1  6  0  0  0
 38 39  1  1  0  0  0
 38 40  1  0  0  0  0
 40 41  1  0  0  0  0
 41 42  1  0  0  0  0
M  END
>  <MODEL>
2

>  <REMARK>
 VINA RESULT:      -6.9      3.150      9.089
  Name = 
  10 active torsions:
  status: ('A' for Active; 'I' for Inactive)
    1  A    between atoms: C_6  and  C_10
    2  A    between atoms: C_6  and  C_42
    3  A    between atoms: C_8  and  C_21
    4  A    between atoms: C_10  and  C_22
    5  A    between atoms: C_14  and  C_16
    6  A    between atoms: C_14  and  C_37
    7  A    between atoms: O_20  and  C_36
    8  A    between atoms: C_24  and  N_26
    9  A    between atoms: C_24  and  C_32
   10  A    between atoms: C_24  and  N_38
                            x       y       z     vdW  Elec       q    Type
                         _______ _______ _______ _____ _____    ______ ____

>  <TORSDO>
F 10

$$$$
=
 OpenBabel11042412583D

 42 47  0  0  1  0  0  0  0  0999 V2000
  187.6390  178.2530  139.7040 C   0  0  1  0  0  3  0  0  0  0  0  0
  188.9100  177.6030  145.2380 C   0  0  0  0  0  1  0  0  0  0  0  0
  188.5090  176.6060  143.0200 C   0  0  0  0  0  2  0  0  0  0  0  0
  189.7150  177.9850  140.7860 C   0  0  2  0  0  3  0  0  0  0  0  0
  191.4840  177.5160  142.2520 C   0  0  0  0  0  2  0  0  0  0  0  0
  190.7900  177.7230  143.5900 C   0  0  0  0  0  0  0  0  0  0  0  0
  191.4900  178.2440  144.5000 O   0  0  0  0  0  0  0  0  0  0  0  0
  190.5900  176.8960  141.2120 C   0  0  2  0  0  3  0  0  0  0  0  0
  187.8010  177.5140  142.0010 C   0  0  0  0  0  2  0  0  0  0  0  0
  188.3880  177.3990  140.6480 N   0  0  0  0  0  0  0  0  0  0  0  0
  190.7230  177.4440  139.8570 N   0  0  0  0  0  2  0  0  0  0  0  0
  189.4060  177.3740  143.8890 N   0  0  0  0  0  0  0  0  0  0  0  0
  189.5150  177.5610  136.7370 C   0  0  0  0  0  2  0  0  0  0  0  0
  189.0700  179.6500  137.8210 O   0  0  0  0  0  1  0  0  0  0  0  0
  188.8820  176.1870  136.8580 C   0  0  2  0  0  3  0  0  0  0  0  0
  188.4670  178.5200  137.2540 C   0  0  2  0  0  3  0  0  0  0  0  0
  187.9800  176.2520  138.0770 C   0  0  0  0  0  2  0  0  0  0  0  0
  187.6200  177.7230  138.2480 C   0  0  1  0  0  3  0  0  0  0  0  0
  189.9400  175.1050  137.0420 C   0  0  0  0  0  2  0  0  0  0  0  0
  190.9740  174.5890  134.8130 C   0  0  0  0  0  2  0  0  0  0  0  0
  192.2950  173.8590  134.5950 C   0  0  0  0  0  2  0  0  0  0  0  0
  192.3430  174.8100  136.7510 N   0  0  1  0  0  0  0  0  0  0  0  0
  193.1840  174.5340  135.6070 C   0  0  1  0  0  3  0  0  0  0  0  0
  194.4140  173.8130  136.0630 C   0  0  0  0  0  0  0  0  0  0  0  0
  194.8170  172.8000  135.5070 O   0  0  0  0  0  0  0  0  0  0  0  0
  193.0340  175.8090  137.5590 C   0  0  0  0  0  2  0  0  0  0  0  0
  195.1860  174.4380  137.2000 C   0  0  2  0  0  3  0  0  0  0  0  0
  191.1400  175.3460  136.1340 C   0  0  2  0  0  3  0  0  0  0  0  0
  194.2500  175.1340  138.2190 C   0  0  0  0  0  2  0  0  0  0  0  0
  196.1000  175.3650  136.6870 O   0  0  0  0  0  0  0  0  0  0  0  0
  197.3430  174.7300  136.7760 C   0  0  0  0  0  1  0  0  0  0  0  0
  185.3940  179.0950  138.0300 O   0  0  0  0  0  0  0  0  0  0  0  0
  185.2210  179.0280  139.2800 C   0  0  0  0  0  0  0  0  0  0  0  0
  186.2600  178.5220  140.1340 N   0  0  0  0  0  2  0  0  0  0  0  0
  183.9060  179.4740  139.8630 C   0  0  1  0  0  3  0  0  0  0  0  0
  182.8500  179.6250  138.7800 C   0  0  0  0  0  2  0  0  0  0  0  0
  182.7620  178.4490  139.7370 C   0  0  1  0  0  3  0  0  0  0  0  0
  183.1300  177.1490  139.0100 C   0  0  1  0  0  3  0  0  0  0  0  0
  182.7850  176.0600  139.8160 O   0  0  0  0  0  1  0  0  0  0  0  0
  182.3940  177.0360  137.6850 C   0  0  0  0  0  2  0  0  0  0  0  0
  183.3740  176.7960  136.5430 C   0  0  0  0  0  2  0  0  0  0  0  0
  184.4800  176.0940  137.0220 O   0  0  0  0  0  1  0  0  0  0  0  0
  1 34  1  1  0  0  0
  1 10  1  0  0  0  0
  3 12  1  0  0  0  0
  4 11  1  6  0  0  0
  4  8  1  0  0  0  0
  5  6  1  0  0  0  0
  6 12  1  0  0  0  0
  6  7  2  0  0  0  0
  8  5  1  1  0  0  0
  9  3  1  0  0  0  0
 10  4  1  0  0  0  0
 10  9  1  0  0  0  0
 11  8  1  0  0  0  0
 12  2  1  0  0  0  0
 13 15  1  0  0  0  0
 13 16  1  0  0  0  0
 15 19  1  1  0  0  0
 15 17  1  0  0  0  0
 16 14  1  1  0  0  0
 16 18  1  0  0  0  0
 17 18  1  0  0  0  0
 18  1  1  1  0  0  0
 20 28  1  0  0  0  0
 21 20  1  0  0  0  0
 22 26  1  1  0  0  0
 23 21  1  6  0  0  0
 23 24  1  0  0  0  0
 23 22  1  0  0  0  0
 24 27  1  0  0  0  0
 25 24  2  0  0  0  0
 26 29  1  0  0  0  0
 27 30  1  6  0  0  0
 27 29  1  0  0  0  0
 28 22  1  0  0  0  0
 28 19  1  1  0  0  0
 30 31  1  0  0  0  0
 32 33  2  0  0  0  0
 33 34  1  0  0  0  0
 35 33  1  6  0  0  0
 36 37  1  0  0  0  0
 36 35  1  0  0  0  0
 37 38  1  6  0  0  0
 37 35  1  0  0  0  0
 38 39  1  1  0  0  0
 40 38  1  0  0  0  0
 41 42  1  0  0  0  0
 41 40  1  0  0  0  0
M  END
>  <MODEL>
3

>  <REMARK>
 VINA RESULT:      -6.9      4.049      7.553
  Name = 
  10 active torsions:
  status: ('A' for Active; 'I' for Inactive)
    1  A    between atoms: C_6  and  C_10
    2  A    between atoms: C_6  and  C_42
    3  A    between atoms: C_8  and  C_21
    4  A    between atoms: C_10  and  C_22
    5  A    between atoms: C_14  and  C_16
    6  A    between atoms: C_14  and  C_37
    7  A    between atoms: O_20  and  C_36
    8  A    between atoms: C_24  and  N_26
    9  A    between atoms: C_24  and  C_32
   10  A    between atoms: C_24  and  N_38
                            x       y       z     vdW  Elec       q    Type
                         _______ _______ _______ _____ _____    ______ ____

>  <TORSDO>
F 10

$$$$
=
 OpenBabel11042412583D

 42 47  0  0  1  0  0  0  0  0999 V2000
  188.7610  176.1170  137.6860 C   0  0  1  0  0  3  0  0  0  0  0  0
  193.7970  173.4830  137.0730 C   0  0  0  0  0  1  0  0  0  0  0  0
  191.4160  173.6800  136.4680 C   0  0  0  0  0  2  0  0  0  0  0  0
  190.4430  176.3700  136.0540 C   0  0  2  0  0  3  0  0  0  0  0  0
  192.2620  176.1370  134.5940 C   0  0  0  0  0  2  0  0  0  0  0  0
  193.1910  175.2880  135.4490 C   0  0  0  0  0  0  0  0  0  0  0  0
  194.4220  175.5430  135.3480 O   0  0  0  0  0  0  0  0  0  0  0  0
  190.8100  175.7850  134.7680 C   0  0  2  0  0  3  0  0  0  0  0  0
  190.5510  174.5110  137.4310 C   0  0  0  0  0  2  0  0  0  0  0  0
  189.5960  175.3840  136.7130 N   0  0  0  0  0  0  0  0  0  0  0  0
  189.8840  176.9220  134.8080 N   0  0  0  0  0  2  0  0  0  0  0  0
  192.7710  174.2280  136.3570 N   0  0  0  0  0  0  0  0  0  0  0  0
  188.8170  178.1480  140.6310 C   0  0  0  0  0  2  0  0  0  0  0  0
  187.3470  178.2220  138.7410 O   0  0  0  0  0  1  0  0  0  0  0  0
  190.1670  177.4910  140.8550 C   0  0  2  0  0  3  0  0  0  0  0  0
  188.6920  178.2780  139.1300 C   0  0  2  0  0  3  0  0  0  0  0  0
  190.3840  176.5730  139.6660 C   0  0  0  0  0  2  0  0  0  0  0  0
  189.5390  177.1510  138.5370 C   0  0  1  0  0  3  0  0  0  0  0  0
  190.1820  176.6880  142.1510 C   0  0  0  0  0  2  0  0  0  0  0  0
  191.4530  177.5090  144.1550 C   0  0  0  0  0  2  0  0  0  0  0  0
  191.0400  177.3120  145.6090 C   0  0  0  0  0  2  0  0  0  0  0  0
  189.0980  177.1670  144.2820 N   0  0  1  0  0  0  0  0  0  0  0  0
  189.5740  177.6570  145.5570 C   0  0  1  0  0  3  0  0  0  0  0  0
  188.6850  177.1410  146.6450 C   0  0  0  0  0  0  0  0  0  0  0  0
  189.1330  176.6240  147.6590 O   0  0  0  0  0  0  0  0  0  0  0  0
  187.8270  177.8330  144.0150 C   0  0  0  0  0  2  0  0  0  0  0  0
  187.2020  177.3580  146.4700 C   0  0  2  0  0  3  0  0  0  0  0  0
  190.1420  177.6040  143.3690 C   0  0  2  0  0  3  0  0  0  0  0  0
  186.7760  177.2610  144.9850 C   0  0  0  0  0  2  0  0  0  0  0  0
  186.8510  178.6110  146.9820 O   0  0  0  0  0  0  0  0  0  0  0  0
  185.5060  178.7760  146.6380 C   0  0  0  0  0  1  0  0  0  0  0  0
  186.3620  174.8370  136.6110 O   0  0  0  0  0  0  0  0  0  0  0  0
  186.4900  176.0860  136.4740 C   0  0  0  0  0  0  0  0  0  0  0  0
  187.6000  176.7760  137.0720 N   0  0  0  0  0  2  0  0  0  0  0  0
  185.4580  176.8460  135.6830 C   0  0  1  0  0  3  0  0  0  0  0  0
  184.1780  176.0400  135.5360 C   0  0  0  0  0  2  0  0  0  0  0  0
  184.1940  177.2330  136.4750 C   0  0  1  0  0  3  0  0  0  0  0  0
  184.1680  176.7570  137.9330 C   0  0  1  0  0  3  0  0  0  0  0  0
  183.9860  177.8610  138.7720 O   0  0  0  0  0  1  0  0  0  0  0  0
  183.0380  175.7680  138.1660 C   0  0  0  0  0  2  0  0  0  0  0  0
  182.4020  175.9890  139.5330 C   0  0  0  0  0  2  0  0  0  0  0  0
  181.1070  175.4690  139.5300 O   0  0  0  0  0  1  0  0  0  0  0  0
  1 34  1  6  0  0  0
  3  9  1  0  0  0  0
  4 11  1  6  0  0  0
  4 10  1  0  0  0  0
  5  6  1  0  0  0  0
  6 12  1  0  0  0  0
  7  6  2  0  0  0  0
  8  5  1  6  0  0  0
  8 11  1  0  0  0  0
  8  4  1  0  0  0  0
 10  9  1  0  0  0  0
 10  1  1  0  0  0  0
 12  3  1  0  0  0  0
 12  2  1  0  0  0  0
 13 15  1  0  0  0  0
 15 19  1  1  0  0  0
 16 14  1  1  0  0  0
 16 13  1  0  0  0  0
 17 15  1  0  0  0  0
 18  1  1  1  0  0  0
 18 16  1  0  0  0  0
 18 17  1  0  0  0  0
 20 21  1  0  0  0  0
 22 26  1  6  0  0  0
 22 23  1  0  0  0  0
 23 21  1  1  0  0  0
 23 24  1  0  0  0  0
 24 25  2  0  0  0  0
 26 29  1  0  0  0  0
 27 24  1  0  0  0  0
 27 30  1  6  0  0  0
 28 19  1  6  0  0  0
 28 20  1  0  0  0  0
 28 22  1  0  0  0  0
 29 27  1  0  0  0  0
 31 30  1  0  0  0  0
 33 32  2  0  0  0  0
 33 34  1  0  0  0  0
 35 33  1  1  0  0  0
 35 37  1  0  0  0  0
 36 35  1  0  0  0  0
 36 37  1  0  0  0  0
 37 38  1  1  0  0  0
 38 40  1  0  0  0  0
 38 39  1  1  0  0  0
 40 41  1  0  0  0  0
 42 41  1  0  0  0  0
M  END
>  <MODEL>
4

>  <REMARK>
 VINA RESULT:      -6.6      3.218      6.142
  Name = 
  10 active torsions:
  status: ('A' for Active; 'I' for Inactive)
    1  A    between atoms: C_6  and  C_10
    2  A    between atoms: C_6  and  C_42
    3  A    between atoms: C_8  and  C_21
    4  A    between atoms: C_10  and  C_22
    5  A    between atoms: C_14  and  C_16
    6  A    between atoms: C_14  and  C_37
    7  A    between atoms: O_20  and  C_36
    8  A    between atoms: C_24  and  N_26
    9  A    between atoms: C_24  and  C_32
   10  A    between atoms: C_24  and  N_38
                            x       y       z     vdW  Elec       q    Type
                         _______ _______ _______ _____ _____    ______ ____

>  <TORSDO>
F 10

$$$$
=
 OpenBabel11042412583D

 42 47  0  0  1  0  0  0  0  0999 V2000
  190.6790  176.2430  138.9530 C   0  0  1  0  0  3  0  0  0  0  0  0
  186.7910  175.5410  134.8210 C   0  0  0  0  0  1  0  0  0  0  0  0
  187.3400  175.6760  137.2200 C   0  0  0  0  0  2  0  0  0  0  0  0
  189.1790  177.7740  137.9720 C   0  0  2  0  0  3  0  0  0  0  0  0
  187.4250  178.8580  136.8560 C   0  0  0  0  0  2  0  0  0  0  0  0
  187.1130  177.8310  135.7780 C   0  0  0  0  0  0  0  0  0  0  0  0
  186.7890  178.2950  134.6510 O   0  0  0  0  0  0  0  0  0  0  0  0
  187.8090  178.2380  138.1720 C   0  0  2  0  0  3  0  0  0  0  0  0
  188.8300  175.5200  137.5720 C   0  0  0  0  0  2  0  0  0  0  0  0
  189.2580  176.4720  138.6210 N   0  0  0  0  0  0  0  0  0  0  0  0
  188.9080  178.8980  138.8870 N   0  0  0  0  0  2  0  0  0  0  0  0
  187.1610  176.3840  135.9490 N   0  0  0  0  0  0  0  0  0  0  0  0
  191.4330  178.1330  141.8960 C   0  0  0  0  0  2  0  0  0  0  0  0
  192.6980  177.8580  139.8800 O   0  0  0  0  0  1  0  0  0  0  0  0
  190.2630  177.3670  142.4850 C   0  0  2  0  0  3  0  0  0  0  0  0
  192.0870  177.1660  140.9340 C   0  0  2  0  0  3  0  0  0  0  0  0
  189.7790  176.4390  141.3850 C   0  0  0  0  0  2  0  0  0  0  0  0
  190.9790  176.2180  140.4720 C   0  0  1  0  0  3  0  0  0  0  0  0
  189.1420  178.3100  142.9100 C   0  0  0  0  0  2  0  0  0  0  0  0
  186.7000  177.8510  143.2690 C   0  0  0  0  0  2  0  0  0  0  0  0
  185.8920  178.2580  144.4960 C   0  0  0  0  0  2  0  0  0  0  0  0
  188.1580  178.1330  145.1330 N   0  0  1  0  0  0  0  0  0  0  0  0
  186.8210  177.8620  145.6150 C   0  0  1  0  0  3  0  0  0  0  0  0
  186.6390  178.5110  146.9510 C   0  0  0  0  0  0  0  0  0  0  0  0
  185.6570  179.1940  147.2130 O   0  0  0  0  0  0  0  0  0  0  0  0
  189.0790  177.3930  145.9900 C   0  0  0  0  0  2  0  0  0  0  0  0
  187.6890  178.2230  147.9960 C   0  0  2  0  0  3  0  0  0  0  0  0
  188.1200  177.5930  143.7830 C   0  0  2  0  0  3  0  0  0  0  0  0
  189.0980  178.0750  147.3710 C   0  0  0  0  0  2  0  0  0  0  0  0
  187.3510  177.0530  148.6840 O   0  0  0  0  0  0  0  0  0  0  0  0
  188.4430  176.2000  148.5000 C   0  0  0  0  0  1  0  0  0  0  0  0
  192.4400  176.0900  136.6240 O   0  0  0  0  0  0  0  0  0  0  0  0
  192.0150  175.0130  137.1290 C   0  0  0  0  0  0  0  0  0  0  0  0
  191.2310  175.0310  138.3330 N   0  0  0  0  0  2  0  0  0  0  0  0
  192.3500  173.7070  136.4580 C   0  0  1  0  0  3  0  0  0  0  0  0
  193.3360  173.9130  135.3200 C   0  0  0  0  0  2  0  0  0  0  0  0
  193.8190  173.2630  136.6040 C   0  0  1  0  0  3  0  0  0  0  0  0
  194.7180  174.2350  137.3810 C   0  0  1  0  0  3  0  0  0  0  0  0
  194.9710  173.7090  138.6510 O   0  0  0  0  0  1  0  0  0  0  0  0
  196.0400  174.4500  136.6630 C   0  0  0  0  0  2  0  0  0  0  0  0
  196.0640  175.8080  135.9730 C   0  0  0  0  0  2  0  0  0  0  0  0
  197.3390  176.3630  136.0880 O   0  0  0  0  0  1  0  0  0  0  0  0
  1 34  1  1  0  0  0
  2 12  1  0  0  0  0
  3  9  1  0  0  0  0
  4  8  1  0  0  0  0
  4 10  1  0  0  0  0
  4 11  1  1  0  0  0
  6 12  1  0  0  0  0
  6  5  1  0  0  0  0
  7  6  2  0  0  0  0
  8  5  1  6  0  0  0
  8 11  1  0  0  0  0
  9 10  1  0  0  0  0
 10  1  1  0  0  0  0
 12  3  1  0  0  0  0
 13 15  1  0  0  0  0
 15 19  1  6  0  0  0
 16 14  1  6  0  0  0
 16 13  1  0  0  0  0
 17 15  1  0  0  0  0
 18  1  1  6  0  0  0
 18 16  1  0  0  0  0
 18 17  1  0  0  0  0
 20 28  1  0  0  0  0
 20 21  1  0  0  0  0
 22 23  1  0  0  0  0
 22 26  1  1  0  0  0
 23 21  1  6  0  0  0
 23 24  1  0  0  0  0
 24 25  2  0  0  0  0
 24 27  1  0  0  0  0
 26 29  1  0  0  0  0
 27 30  1  6  0  0  0
 28 19  1  6  0  0  0
 28 22  1  0  0  0  0
 29 27  1  0  0  0  0
 31 30  1  0  0  0  0
 32 33  2  0  0  0  0
 33 34  1  0  0  0  0
 35 37  1  0  0  0  0
 35 33  1  1  0  0  0
 36 35  1  0  0  0  0
 36 37  1  0  0  0  0
 37 38  1  1  0  0  0
 38 39  1  1  0  0  0
 40 38  1  0  0  0  0
 41 42  1  0  0  0  0
 41 40  1  0  0  0  0
M  END
>  <MODEL>
5

>  <REMARK>
 VINA RESULT:      -6.5      4.318      6.420
  Name = 
  10 active torsions:
  status: ('A' for Active; 'I' for Inactive)
    1  A    between atoms: C_6  and  C_10
    2  A    between atoms: C_6  and  C_42
    3  A    between atoms: C_8  and  C_21
    4  A    between atoms: C_10  and  C_22
    5  A    between atoms: C_14  and  C_16
    6  A    between atoms: C_14  and  C_37
    7  A    between atoms: O_20  and  C_36
    8  A    between atoms: C_24  and  N_26
    9  A    between atoms: C_24  and  C_32
   10  A    between atoms: C_24  and  N_38
                            x       y       z     vdW  Elec       q    Type
                         _______ _______ _______ _____ _____    ______ ____

>  <TORSDO>
F 10

$$$$
=
 OpenBabel11042412583D

 42 47  0  0  1  0  0  0  0  0999 V2000
  182.7690  176.7560  137.7720 C   0  0  1  0  0  3  0  0  0  0  0  0
  180.7590  178.5470  142.8140 C   0  0  0  0  0  1  0  0  0  0  0  0
  182.4980  178.6320  141.0700 C   0  0  0  0  0  2  0  0  0  0  0  0
  181.5410  178.6840  138.3430 C   0  0  2  0  0  3  0  0  0  0  0  0
  180.5030  180.5020  139.4000 C   0  0  0  0  0  2  0  0  0  0  0  0
  180.2480  179.9070  140.7760 C   0  0  0  0  0  0  0  0  0  0  0  0
  179.1680  180.2480  141.3340 O   0  0  0  0  0  0  0  0  0  0  0  0
  181.8020  180.0500  138.7910 C   0  0  2  0  0  3  0  0  0  0  0  0
  182.4920  177.4650  140.0670 C   0  0  0  0  0  2  0  0  0  0  0  0
  182.7350  177.9200  138.6800 N   0  0  0  0  0  0  0  0  0  0  0  0
  181.7600  179.7550  137.3540 N   0  0  0  0  0  2  0  0  0  0  0  0
  181.1370  178.9910  141.4810 N   0  0  0  0  0  0  0  0  0  0  0  0
  185.5040  177.0210  135.4800 C   0  0  0  0  0  2  0  0  0  0  0  0
  183.2740  176.2220  135.1250 O   0  0  0  0  0  1  0  0  0  0  0  0
  186.3150  177.2740  136.7380 C   0  0  2  0  0  3  0  0  0  0  0  0
  184.4280  176.0460  135.9000 C   0  0  2  0  0  3  0  0  0  0  0  0
  185.3340  177.1740  137.8910 C   0  0  0  0  0  2  0  0  0  0  0  0
  184.1970  176.2900  137.3920 C   0  0  1  0  0  3  0  0  0  0  0  0
  186.9590  178.6560  136.7120 C   0  0  0  0  0  2  0  0  0  0  0  0
  189.0700  177.8020  135.6550 C   0  0  0  0  0  2  0  0  0  0  0  0
  190.0120  176.7690  136.2630 C   0  0  0  0  0  2  0  0  0  0  0  0
  188.8190  177.7840  138.0250 N   0  0  1  0  0  0  0  0  0  0  0  0
  190.1240  177.2610  137.6830 C   0  0  1  0  0  3  0  0  0  0  0  0
  190.5570  176.2900  138.7380 C   0  0  0  0  0  0  0  0  0  0  0  0
  191.0020  175.1850  138.4600 O   0  0  0  0  0  0  0  0  0  0  0  0
  188.9920  178.6280  139.2030 C   0  0  0  0  0  2  0  0  0  0  0  0
  190.4910  176.7670  140.1680 C   0  0  2  0  0  3  0  0  0  0  0  0
  188.4740  178.5600  136.8450 C   0  0  2  0  0  3  0  0  0  0  0  0
  189.2900  177.7140  140.4060 C   0  0  0  0  0  2  0  0  0  0  0  0
  191.6830  177.4240  140.4940 O   0  0  0  0  0  0  0  0  0  0  0  0
  191.6780  177.5030  141.8910 C   0  0  0  0  0  1  0  0  0  0  0  0
  180.3640  175.5780  136.5980 O   0  0  0  0  0  0  0  0  0  0  0  0
  180.7730  175.1310  137.7060 C   0  0  0  0  0  0  0  0  0  0  0  0
  182.0050  175.6050  138.2750 N   0  0  0  0  0  2  0  0  0  0  0  0
  179.9590  174.0860  138.4210 C   0  0  1  0  0  3  0  0  0  0  0  0
  179.0070  173.3850  137.4650 C   0  0  0  0  0  2  0  0  0  0  0  0
  180.2280  172.6370  137.9690 C   0  0  1  0  0  3  0  0  0  0  0  0
  181.2580  172.4870  136.8420 C   0  0  1  0  0  3  0  0  0  0  0  0
  182.2140  171.5400  137.2180 O   0  0  0  0  0  1  0  0  0  0  0  0
  180.5950  172.0340  135.5520 C   0  0  0  0  0  2  0  0  0  0  0  0
  180.7170  170.5240  135.3850 C   0  0  0  0  0  2  0  0  0  0  0  0
  179.5320  169.9160  135.7980 O   0  0  0  0  0  1  0  0  0  0  0  0
  1 34  1  1  0  0  0
  1 10  1  0  0  0  0
  3 12  1  0  0  0  0
  4 11  1  6  0  0  0
  4 10  1  0  0  0  0
  4  8  1  0  0  0  0
  5  6  1  0  0  0  0
  6  7  2  0  0  0  0
  6 12  1  0  0  0  0
  8  5  1  6  0  0  0
  9  3  1  0  0  0  0
 10  9  1  0  0  0  0
 11  8  1  0  0  0  0
 12  2  1  0  0  0  0
 13 16  1  0  0  0  0
 13 15  1  0  0  0  0
 15 19  1  6  0  0  0
 15 17  1  0  0  0  0
 16 14  1  6  0  0  0
 16 18  1  0  0  0  0
 18  1  1  6  0  0  0
 18 17  1  0  0  0  0
 20 21  1  0  0  0  0
 20 28  1  0  0  0  0
 22 26  1  1  0  0  0
 23 21  1  6  0  0  0
 23 22  1  0  0  0  0
 23 24  1  0  0  0  0
 24 27  1  0  0  0  0
 25 24  2  0  0  0  0
 26 29  1  0  0  0  0
 27 29  1  0  0  0  0
 27 30  1  6  0  0  0
 28 19  1  6  0  0  0
 28 22  1  0  0  0  0
 30 31  1  0  0  0  0
 32 33  2  0  0  0  0
 33 34  1  0  0  0  0
 35 33  1  6  0  0  0
 36 37  1  0  0  0  0
 36 35  1  0  0  0  0
 37 38  1  6  0  0  0
 37 35  1  0  0  0  0
 38 39  1  1  0  0  0
 40 38  1  0  0  0  0
 41 40  1  0  0  0  0
 41 42  1  0  0  0  0
M  END
>  <MODEL>
6

>  <REMARK>
 VINA RESULT:      -6.5      3.069      5.040
  Name = 
  10 active torsions:
  status: ('A' for Active; 'I' for Inactive)
    1  A    between atoms: C_6  and  C_10
    2  A    between atoms: C_6  and  C_42
    3  A    between atoms: C_8  and  C_21
    4  A    between atoms: C_10  and  C_22
    5  A    between atoms: C_14  and  C_16
    6  A    between atoms: C_14  and  C_37
    7  A    between atoms: O_20  and  C_36
    8  A    between atoms: C_24  and  N_26
    9  A    between atoms: C_24  and  C_32
   10  A    between atoms: C_24  and  N_38
                            x       y       z     vdW  Elec       q    Type
                         _______ _______ _______ _____ _____    ______ ____

>  <TORSDO>
F 10

$$$$
=
 OpenBabel11042412583D

 42 47  0  0  1  0  0  0  0  0999 V2000
  186.1070  176.2450  137.2400 C   0  0  1  0  0  3  0  0  0  0  0  0
  191.1800  175.9460  134.6230 C   0  0  0  0  0  1  0  0  0  0  0  0
  189.2980  177.3010  135.4600 C   0  0  0  0  0  2  0  0  0  0  0  0
  188.2880  176.5730  138.0680 C   0  0  2  0  0  3  0  0  0  0  0  0
  190.5770  176.9790  138.3800 C   0  0  0  0  0  2  0  0  0  0  0  0
  191.1330  176.4160  137.0810 C   0  0  0  0  0  0  0  0  0  0  0  0
  192.2440  175.8250  137.1660 O   0  0  0  0  0  0  0  0  0  0  0  0
  189.2490  177.6650  138.2080 C   0  0  2  0  0  3  0  0  0  0  0  0
  188.0060  176.5260  135.7700 C   0  0  0  0  0  2  0  0  0  0  0  0
  187.3650  176.9880  137.0200 N   0  0  0  0  0  0  0  0  0  0  0  0
  188.2680  177.4220  139.2720 N   0  0  0  0  0  2  0  0  0  0  0  0
  190.4890  176.5060  135.7750 N   0  0  0  0  0  0  0  0  0  0  0  0
  183.3840  177.2550  139.3300 C   0  0  0  0  0  2  0  0  0  0  0  0
  183.8580  175.1220  138.3480 O   0  0  0  0  0  1  0  0  0  0  0  0
  183.9060  178.6520  139.0510 C   0  0  2  0  0  3  0  0  0  0  0  0
  183.6510  176.4780  138.0610 C   0  0  2  0  0  3  0  0  0  0  0  0
  185.0910  178.4730  138.1190 C   0  0  0  0  0  2  0  0  0  0  0  0
  184.8580  177.1480  137.4030 C   0  0  1  0  0  3  0  0  0  0  0  0
  184.3470  179.3450  140.3360 C   0  0  0  0  0  2  0  0  0  0  0  0
  182.7280  178.7970  142.1740 C   0  0  0  0  0  2  0  0  0  0  0  0
  182.9920  178.9590  143.6670 C   0  0  0  0  0  2  0  0  0  0  0  0
  185.0750  178.7470  142.5840 N   0  0  1  0  0  0  0  0  0  0  0  0
  184.3760  178.3750  143.7940 C   0  0  1  0  0  3  0  0  0  0  0  0
  185.2030  178.7640  144.9800 C   0  0  0  0  0  0  0  0  0  0  0  0
  184.7300  179.3730  145.9300 O   0  0  0  0  0  0  0  0  0  0  0  0
  186.2390  177.8740  142.4770 C   0  0  0  0  0  2  0  0  0  0  0  0
  186.6390  178.3010  144.9880 C   0  0  2  0  0  3  0  0  0  0  0  0
  184.0880  178.4660  141.5530 C   0  0  2  0  0  3  0  0  0  0  0  0
  187.2490  178.2880  143.5640 C   0  0  0  0  0  2  0  0  0  0  0  0
  186.7120  177.0190  145.5450 O   0  0  0  0  0  0  0  0  0  0  0  0
  187.4780  177.1750  146.7040 C   0  0  0  0  0  1  0  0  0  0  0  0
  186.5370  173.3590  137.4260 O   0  0  0  0  0  0  0  0  0  0  0  0
  186.1620  173.8420  136.3200 C   0  0  0  0  0  0  0  0  0  0  0  0
  185.8400  175.2380  136.2040 N   0  0  0  0  0  2  0  0  0  0  0  0
  186.0480  172.9330  135.1240 C   0  0  1  0  0  3  0  0  0  0  0  0
  185.7700  171.5000  135.5500 C   0  0  0  0  0  2  0  0  0  0  0  0
  184.6530  172.3110  134.9170 C   0  0  1  0  0  3  0  0  0  0  0  0
  183.6090  172.6880  135.9760 C   0  0  1  0  0  3  0  0  0  0  0  0
  182.6990  173.5930  135.4210 O   0  0  0  0  0  1  0  0  0  0  0  0
  182.8520  171.4620  136.4580 C   0  0  0  0  0  2  0  0  0  0  0  0
  181.5390  171.8640  137.1190 C   0  0  0  0  0  2  0  0  0  0  0  0
  180.4980  171.1090  136.5770 O   0  0  0  0  0  1  0  0  0  0  0  0
  1 34  1  6  0  0  0
  2 12  1  0  0  0  0
  3  9  1  0  0  0  0
  3 12  1  0  0  0  0
  4  8  1  0  0  0  0
  4 11  1  1  0  0  0
  6  7  2  0  0  0  0
  6  5  1  0  0  0  0
  8  5  1  1  0  0  0
  8 11  1  0  0  0  0
  9 10  1  0  0  0  0
 10  1  1  0  0  0  0
 10  4  1  0  0  0  0
 12  6  1  0  0  0  0
 15 13  1  0  0  0  0
 15 19  1  1  0  0  0
 16 14  1  1  0  0  0
 16 13  1  0  0  0  0
 17 15  1  0  0  0  0
 18  1  1  1  0  0  0
 18 16  1  0  0  0  0
 18 17  1  0  0  0  0
 20 21  1  0  0  0  0
 22 26  1  6  0  0  0
 22 23  1  0  0  0  0
 23 21  1  1  0  0  0
 23 24  1  0  0  0  0
 24 27  1  0  0  0  0
 24 25  2  0  0  0  0
 26 29  1  0  0  0  0
 27 30  1  6  0  0  0
 28 19  1  6  0  0  0
 28 20  1  0  0  0  0
 28 22  1  0  0  0  0
 29 27  1  0  0  0  0
 30 31  1  0  0  0  0
 33 32  2  0  0  0  0
 34 33  1  0  0  0  0
 35 36  1  0  0  0  0
 35 33  1  1  0  0  0
 37 35  1  0  0  0  0
 37 36  1  0  0  0  0
 37 38  1  1  0  0  0
 38 39  1  6  0  0  0
 38 40  1  0  0  0  0
 40 41  1  0  0  0  0
 42 41  1  0  0  0  0
M  END
>  <MODEL>
7

>  <REMARK>
 VINA RESULT:      -6.5      2.713      5.231
  Name = 
  10 active torsions:
  status: ('A' for Active; 'I' for Inactive)
    1  A    between atoms: C_6  and  C_10
    2  A    between atoms: C_6  and  C_42
    3  A    between atoms: C_8  and  C_21
    4  A    between atoms: C_10  and  C_22
    5  A    between atoms: C_14  and  C_16
    6  A    between atoms: C_14  and  C_37
    7  A    between atoms: O_20  and  C_36
    8  A    between atoms: C_24  and  N_26
    9  A    between atoms: C_24  and  C_32
   10  A    between atoms: C_24  and  N_38
                            x       y       z     vdW  Elec       q    Type
                         _______ _______ _______ _____ _____    ______ ____

>  <TORSDO>
F 10

$$$$
=
 OpenBabel11042412583D

 42 47  0  0  1  0  0  0  0  0999 V2000
  184.2200  179.0200  139.0890 C   0  0  1  0  0  3  0  0  0  0  0  0
  180.8170  178.0660  134.5970 C   0  0  0  0  0  1  0  0  0  0  0  0
  181.2760  177.8130  137.0060 C   0  0  0  0  0  2  0  0  0  0  0  0
  182.2990  180.1620  138.3430 C   0  0  2  0  0  3  0  0  0  0  0  0
  180.2880  180.8420  137.3470 C   0  0  0  0  0  2  0  0  0  0  0  0
  180.3440  180.0480  136.0500 C   0  0  0  0  0  0  0  0  0  0  0  0
  179.8900  180.6290  135.0270 O   0  0  0  0  0  0  0  0  0  0  0  0
  180.8510  180.0940  138.5240 C   0  0  2  0  0  3  0  0  0  0  0  0
  182.7290  178.0740  137.4370 C   0  0  0  0  0  2  0  0  0  0  0  0
  182.8070  178.8440  138.6990 N   0  0  0  0  0  0  0  0  0  0  0  0
  181.6600  180.8910  139.4530 N   0  0  0  0  0  2  0  0  0  0  0  0
  180.8760  178.6980  135.9070 N   0  0  0  0  0  0  0  0  0  0  0  0
  184.6260  177.8130  142.4330 C   0  0  0  0  0  2  0  0  0  0  0  0
  182.7590  177.6180  140.9450 O   0  0  0  0  0  1  0  0  0  0  0  0
  185.8520  178.7080  142.4290 C   0  0  2  0  0  3  0  0  0  0  0  0
  183.6150  178.5340  141.5710 C   0  0  2  0  0  3  0  0  0  0  0  0
  185.8710  179.3780  141.0670 C   0  0  0  0  0  2  0  0  0  0  0  0
  184.4260  179.3750  140.5830 C   0  0  1  0  0  3  0  0  0  0  0  0
  187.1280  177.8990  142.6360 C   0  0  0  0  0  2  0  0  0  0  0  0
  186.0500  177.8260  144.9020 C   0  0  0  0  0  2  0  0  0  0  0  0
  186.7380  178.1510  146.2230 C   0  0  0  0  0  2  0  0  0  0  0  0
  188.4020  177.5160  144.6790 N   0  0  1  0  0  0  0  0  0  0  0  0
  188.0410  177.4080  146.0760 C   0  0  1  0  0  3  0  0  0  0  0  0
  189.2020  177.8370  146.9180 C   0  0  0  0  0  0  0  0  0  0  0  0
  189.0750  178.6270  147.8440 O   0  0  0  0  0  0  0  0  0  0  0  0
  189.4020  176.4870  144.4150 C   0  0  0  0  0  2  0  0  0  0  0  0
  190.5320  177.1890  146.6230 C   0  0  2  0  0  3  0  0  0  0  0  0
  187.1430  177.2350  144.0070 C   0  0  2  0  0  3  0  0  0  0  0  0
  190.7120  176.9030  145.1110 C   0  0  0  0  0  2  0  0  0  0  0  0
  190.6400  175.9970  147.3460 O   0  0  0  0  0  0  0  0  0  0  0  0
  192.0040  175.6900  147.3310 C   0  0  0  0  0  1  0  0  0  0  0  0
  186.5470  178.9920  137.3190 O   0  0  0  0  0  0  0  0  0  0  0  0
  186.1400  177.8940  137.7950 C   0  0  0  0  0  0  0  0  0  0  0  0
  185.0650  177.8670  138.7480 N   0  0  0  0  0  2  0  0  0  0  0  0
  186.8020  176.6140  137.3570 C   0  0  1  0  0  3  0  0  0  0  0  0
  188.0280  176.8960  136.5050 C   0  0  0  0  0  2  0  0  0  0  0  0
  188.2170  176.3920  137.9250 C   0  0  1  0  0  3  0  0  0  0  0  0
  188.7440  177.5230  138.8190 C   0  0  1  0  0  3  0  0  0  0  0  0
  188.6800  177.1160  140.1550 O   0  0  0  0  0  1  0  0  0  0  0  0
  190.1840  177.8660  138.4760 C   0  0  0  0  0  2  0  0  0  0  0  0
  191.1380  176.8260  139.0530 C   0  0  0  0  0  2  0  0  0  0  0  0
  192.0630  176.4560  138.0770 O   0  0  0  0  0  1  0  0  0  0  0  0
  1 34  1  1  0  0  0
  2 12  1  0  0  0  0
  3  9  1  0  0  0  0
  4  8  1  0  0  0  0
  4 10  1  0  0  0  0
  4 11  1  1  0  0  0
  6  5  1  0  0  0  0
  7  6  2  0  0  0  0
  8  5  1  6  0  0  0
  8 11  1  0  0  0  0
  9 10  1  0  0  0  0
 10  1  1  0  0  0  0
 12  6  1  0  0  0  0
 12  3  1  0  0  0  0
 15 13  1  0  0  0  0
 15 19  1  6  0  0  0
 16 14  1  6  0  0  0
 16 13  1  0  0  0  0
 17 15  1  0  0  0  0
 18  1  1  6  0  0  0
 18 17  1  0  0  0  0
 18 16  1  0  0  0  0
 20 21  1  0  0  0  0
 22 26  1  6  0  0  0
 22 23  1  0  0  0  0
 23 21  1  6  0  0  0
 23 24  1  0  0  0  0
 24 25  2  0  0  0  0
 26 29  1  0  0  0  0
 27 24  1  0  0  0  0
 27 30  1  1  0  0  0
 28 19  1  6  0  0  0
 28 22  1  0  0  0  0
 28 20  1  0  0  0  0
 29 27  1  0  0  0  0
 31 30  1  0  0  0  0
 32 33  2  0  0  0  0
 33 34  1  0  0  0  0
 35 33  1  1  0  0  0
 35 37  1  0  0  0  0
 36 35  1  0  0  0  0
 36 37  1  0  0  0  0
 37 38  1  1  0  0  0
 38 39  1  1  0  0  0
 40 38  1  0  0  0  0
 40 41  1  0  0  0  0
 42 41  1  0  0  0  0
M  END
>  <MODEL>
8

>  <REMARK>
 VINA RESULT:      -6.5      2.956      4.478
  Name = 
  10 active torsions:
  status: ('A' for Active; 'I' for Inactive)
    1  A    between atoms: C_6  and  C_10
    2  A    between atoms: C_6  and  C_42
    3  A    between atoms: C_8  and  C_21
    4  A    between atoms: C_10  and  C_22
    5  A    between atoms: C_14  and  C_16
    6  A    between atoms: C_14  and  C_37
    7  A    between atoms: O_20  and  C_36
    8  A    between atoms: C_24  and  N_26
    9  A    between atoms: C_24  and  C_32
   10  A    between atoms: C_24  and  N_38
                            x       y       z     vdW  Elec       q    Type
                         _______ _______ _______ _____ _____    ______ ____

>  <TORSDO>
F 10

$$$$
=
 OpenBabel11042412583D

 42 47  0  0  1  0  0  0  0  0999 V2000
  185.4610  177.6930  138.6390 C   0  0  1  0  0  3  0  0  0  0  0  0
  189.5430  174.1170  136.8430 C   0  0  0  0  0  1  0  0  0  0  0  0
  187.5180  175.4400  136.3670 C   0  0  0  0  0  2  0  0  0  0  0  0
  187.4700  178.1070  137.4780 C   0  0  2  0  0  3  0  0  0  0  0  0
  189.4300  178.0050  136.1950 C   0  0  0  0  0  2  0  0  0  0  0  0
  189.8600  176.5720  136.4680 C   0  0  0  0  0  0  0  0  0  0  0  0
  191.1020  176.3770  136.5670 O   0  0  0  0  0  0  0  0  0  0  0  0
  187.9370  178.1670  136.0950 C   0  0  2  0  0  3  0  0  0  0  0  0
  186.7300  175.9160  137.5990 C   0  0  0  0  0  2  0  0  0  0  0  0
  186.2520  177.3080  137.4510 N   0  0  0  0  0  0  0  0  0  0  0  0
  187.3880  179.3720  136.7270 N   0  0  0  0  0  2  0  0  0  0  0  0
  188.9620  175.4340  136.6240 N   0  0  0  0  0  0  0  0  0  0  0  0
  186.3800  178.4050  142.0220 C   0  0  0  0  0  2  0  0  0  0  0  0
  184.2140  178.3170  141.0050 O   0  0  0  0  0  1  0  0  0  0  0  0
  187.7810  178.4970  141.4460 C   0  0  2  0  0  3  0  0  0  0  0  0
  185.4750  178.9240  140.9290 C   0  0  2  0  0  3  0  0  0  0  0  0
  187.6330  178.2530  139.9550 C   0  0  0  0  0  2  0  0  0  0  0  0
  186.2010  178.6440  139.6120 C   0  0  1  0  0  3  0  0  0  0  0  0
  188.7030  177.4490  142.0620 C   0  0  0  0  0  2  0  0  0  0  0  0
  191.0550  177.8660  142.8360 C   0  0  0  0  0  2  0  0  0  0  0  0
  191.6800  177.3120  144.1110 C   0  0  0  0  0  2  0  0  0  0  0  0
  189.3430  177.3510  144.4120 N   0  0  1  0  0  0  0  0  0  0  0  0
  190.5880  177.5630  145.1180 C   0  0  1  0  0  3  0  0  0  0  0  0
  190.5840  176.7530  146.3770 C   0  0  0  0  0  0  0  0  0  0  0  0
  191.5300  176.0460  146.6970 O   0  0  0  0  0  0  0  0  0  0  0  0
  188.2900  177.9760  145.2060 C   0  0  0  0  0  2  0  0  0  0  0  0
  189.3840  176.9060  147.2800 C   0  0  2  0  0  3  0  0  0  0  0  0
  189.5690  178.0540  143.1600 C   0  0  2  0  0  3  0  0  0  0  0  0
  188.0800  177.1280  146.4750 C   0  0  0  0  0  2  0  0  0  0  0  0
  189.5910  177.9820  148.1500 O   0  0  0  0  0  0  0  0  0  0  0  0
  188.3730  178.1450  148.8160 C   0  0  0  0  0  1  0  0  0  0  0  0
  182.9670  176.2550  138.1310 O   0  0  0  0  0  0  0  0  0  0  0  0
  182.9820  177.5070  137.9680 C   0  0  0  0  0  0  0  0  0  0  0  0
  184.1530  178.2720  138.3020 N   0  0  0  0  0  2  0  0  0  0  0  0
  181.7540  178.1920  137.4300 C   0  0  1  0  0  3  0  0  0  0  0  0
  180.5040  177.3760  137.7120 C   0  0  0  0  0  2  0  0  0  0  0  0
  180.7460  178.6490  138.5020 C   0  0  1  0  0  3  0  0  0  0  0  0
  181.1340  178.3070  139.9470 C   0  0  1  0  0  3  0  0  0  0  0  0
  181.1950  179.4860  140.6960 O   0  0  0  0  0  1  0  0  0  0  0  0
  180.1160  177.3730  140.5800 C   0  0  0  0  0  2  0  0  0  0  0  0
  179.3530  178.0810  141.6920 C   0  0  0  0  0  2  0  0  0  0  0  0
  179.6800  177.5040  142.9190 O   0  0  0  0  0  1  0  0  0  0  0  0
  1 34  1  6  0  0  0
  3 12  1  0  0  0  0
  3  9  1  0  0  0  0
  4 11  1  6  0  0  0
  5  6  1  0  0  0  0
  6  7  2  0  0  0  0
  6 12  1  0  0  0  0
  8  5  1  1  0  0  0
  8 11  1  0  0  0  0
  8  4  1  0  0  0  0
 10  4  1  0  0  0  0
 10  9  1  0  0  0  0
 10  1  1  0  0  0  0
 12  2  1  0  0  0  0
 15 13  1  0  0  0  0
 15 19  1  1  0  0  0
 16 14  1  6  0  0  0
 16 13  1  0  0  0  0
 17 15  1  0  0  0  0
 18  1  1  1  0  0  0
 18 17  1  0  0  0  0
 18 16  1  0  0  0  0
 20 28  1  0  0  0  0
 20 21  1  0  0  0  0
 22 23  1  0  0  0  0
 22 26  1  1  0  0  0
 23 21  1  6  0  0  0
 23 24  1  0  0  0  0
 24 25  2  0  0  0  0
 24 27  1  0  0  0  0
 26 29  1  0  0  0  0
 27 30  1  1  0  0  0
 28 19  1  6  0  0  0
 28 22  1  0  0  0  0
 29 27  1  0  0  0  0
 30 31  1  0  0  0  0
 33 32  2  0  0  0  0
 33 34  1  0  0  0  0
 35 36  1  0  0  0  0
 35 33  1  1  0  0  0
 35 37  1  0  0  0  0
 36 37  1  0  0  0  0
 37 38  1  1  0  0  0
 38 40  1  0  0  0  0
 38 39  1  1  0  0  0
 40 41  1  0  0  0  0
 41 42  1  0  0  0  0
M  END
>  <MODEL>
9

>  <REMARK>
 VINA RESULT:      -6.4      2.450      5.580
  Name = 
  10 active torsions:
  status: ('A' for Active; 'I' for Inactive)
    1  A    between atoms: C_6  and  C_10
    2  A    between atoms: C_6  and  C_42
    3  A    between atoms: C_8  and  C_21
    4  A    between atoms: C_10  and  C_22
    5  A    between atoms: C_14  and  C_16
    6  A    between atoms: C_14  and  C_37
    7  A    between atoms: O_20  and  C_36
    8  A    between atoms: C_24  and  N_26
    9  A    between atoms: C_24  and  C_32
   10  A    between atoms: C_24  and  N_38
                            x       y       z     vdW  Elec       q    Type
                         _______ _______ _______ _____ _____    ______ ____

>  <TORSDO>
F 10

$$$$
