=
 OpenBabel11032419263D

 30 35  0  0  1  0  0  0  0  0999 V2000
  182.3420  178.9430  143.2990 C   0  0  0  0  0  2  0  0  0  0  0  0
  183.4790  178.4030  141.0280 C   0  0  0  0  0  3  0  0  0  0  0  0
  186.1650  178.2800  145.0410 C   0  0  0  0  0  0  0  0  0  0  0  0
  185.5550  178.6220  147.1560 C   0  0  0  0  0  3  0  0  0  0  0  0
  181.1670  178.8130  141.2310 O   0  0  0  0  0  0  0  0  0  0  0  0
  185.1070  178.5920  145.8370 C   0  0  0  0  0  0  0  0  0  0  0  0
  183.7010  178.6900  143.8930 C   0  0  0  0  0  0  0  0  0  0  0  0
  183.8450  178.8090  145.2930 C   0  0  0  0  0  3  0  0  0  0  0  0
  187.3460  177.8070  142.8780 C   0  0  1  0  0  3  0  0  0  0  0  0
  182.2760  178.7130  141.8160 C   0  0  0  0  0  0  0  0  0  0  0  0
  187.8140  176.3880  143.2170 C   0  0  0  0  0  2  0  0  0  0  0  0
  186.0920  178.1450  143.6670 C   0  0  0  0  0  0  0  0  0  0  0  0
  184.8270  178.3610  143.0710 C   0  0  0  0  0  0  0  0  0  0  0  0
  186.9180  178.3010  147.0480 C   0  0  0  0  0  0  0  0  0  0  0  0
  188.5990  177.5660  143.7480 C   0  0  2  0  0  0  0  0  0  0  0  0
  188.4910  177.7370  145.2040 N   0  0  0  0  0  2  0  0  0  0  0  0
  187.2580  178.0970  145.7600 N   0  0  0  0  0  0  0  0  0  0  0  0
  184.6640  178.2440  141.6110 C   0  0  0  0  0  3  0  0  0  0  0  0
  188.6020  178.1020  149.0760 C   0  0  0  0  0  3  0  0  0  0  0  0
  187.8320  178.1920  148.1540 C   0  0  0  0  0  0  0  0  0  0  0  0
  189.9670  177.7290  143.1150 C   0  0  0  0  0  2  0  0  0  0  0  0
  190.2580  176.5590  142.1940 C   0  0  0  0  0  2  0  0  0  0  0  0
  191.7540  177.3220  140.5080 O   0  0  0  0  0  0  0  0  0  0  0  0
  189.4940  177.2420  139.8910 N   0  0  0  0  0  2  0  0  0  0  0  0
  190.5640  177.0540  140.8250 C   0  0  0  0  0  0  0  0  0  0  0  0
  188.5400  179.0000  136.9500 C   0  0  0  0  0  2  0  0  0  0  0  0
  189.6640  177.7480  138.5330 C   0  0  1  0  0  3  0  0  0  0  0  0
  189.1640  176.7460  137.5110 C   0  0  0  0  0  2  0  0  0  0  0  0
  188.3830  177.5610  136.5070 C   0  0  0  0  0  2  0  0  0  0  0  0
  188.9300  178.9930  138.3510 N   0  0  0  0  0  2  0  0  0  0  0  0
  1  7  1  0  0  0  0
  2 18  2  0  0  0  0
  2 10  1  0  0  0  0
  3 17  1  0  0  0  0
  3  6  1  0  0  0  0
  5 10  2  0  0  0  0
  6  4  1  0  0  0  0
  7  8  1  0  0  0  0
  8  6  2  0  0  0  0
  9 11  1  1  0  0  0
  9 12  1  0  0  0  0
  9 15  1  0  0  0  0
 10  1  1  0  0  0  0
 11 15  1  0  0  0  0
 12  3  2  0  0  0  0
 13 12  1  0  0  0  0
 13  7  2  0  0  0  0
 14  4  2  0  0  0  0
 14 20  1  0  0  0  0
 15 21  1  6  0  0  0
 15 16  1  0  0  0  0
 16 17  1  0  0  0  0
 17 14  1  0  0  0  0
 18 13  1  0  0  0  0
 20 19  3  0  0  0  0
 22 21  1  0  0  0  0
 23 25  2  0  0  0  0
 24 25  1  0  0  0  0
 25 22  1  0  0  0  0
 26 30  1  0  0  0  0
 27 24  1  1  0  0  0
 28 27  1  0  0  0  0
 29 26  1  0  0  0  0
 29 28  1  0  0  0  0
 30 27  1  0  0  0  0
M  END
>  <MODEL>
1

>  <REMARK>
 VINA RESULT:     -10.6      0.000      0.000
  Name = 
  5 active torsions:
  status: ('A' for Active; 'I' for Inactive)
    1  A    between atoms: C_7  and  C_13
    2  A    between atoms: C_7  and  C_24
    3  A    between atoms: C_13  and  C_17
    4  A    between atoms: C_15  and  N_16
    5  A    between atoms: C_23  and  C_29
                            x       y       z     vdW  Elec       q    Type
                         _______ _______ _______ _____ _____    ______ ____

>  <TORSDO>
F 5

$$$$
=
 OpenBabel11032419263D

 30 35  0  0  1  0  0  0  0  0999 V2000
  183.9640  178.6050  145.6540 C   0  0  0  0  0  2  0  0  0  0  0  0
  183.9780  178.7880  143.0650 C   0  0  0  0  0  3  0  0  0  0  0  0
  188.0850  177.6090  145.3170 C   0  0  0  0  0  0  0  0  0  0  0  0
  188.4620  177.3020  147.4910 C   0  0  0  0  0  3  0  0  0  0  0  0
  182.0170  179.0360  144.3500 O   0  0  0  0  0  0  0  0  0  0  0  0
  187.4970  177.6380  146.5440 C   0  0  0  0  0  0  0  0  0  0  0  0
  185.4160  178.2420  145.5080 C   0  0  0  0  0  0  0  0  0  0  0  0
  186.1500  177.9560  146.6810 C   0  0  0  0  0  3  0  0  0  0  0  0
  188.1900  177.8260  142.8200 C   0  0  1  0  0  3  0  0  0  0  0  0
  183.2560  178.8120  144.3460 C   0  0  0  0  0  0  0  0  0  0  0  0
  188.6240  176.3880  142.5160 C   0  0  0  0  0  2  0  0  0  0  0  0
  187.4250  177.8750  144.1310 C   0  0  0  0  0  0  0  0  0  0  0  0
  186.0530  178.2070  144.2260 C   0  0  0  0  0  0  0  0  0  0  0  0
  189.6150  177.0760  146.7220 C   0  0  0  0  0  0  0  0  0  0  0  0
  189.6650  177.3910  142.9590 C   0  0  2  0  0  0  0  0  0  0  0  0
  190.2000  177.1290  144.3030 N   0  0  0  0  0  2  0  0  0  0  0  0
  189.3570  177.2670  145.4120 N   0  0  0  0  0  0  0  0  0  0  0  0
  185.2780  178.5110  143.0090 C   0  0  0  0  0  3  0  0  0  0  0  0
  191.9700  176.3560  147.6810 C   0  0  0  0  0  3  0  0  0  0  0  0
  190.8960  176.6870  147.2460 C   0  0  0  0  0  0  0  0  0  0  0  0
  190.6450  177.7810  141.8700 C   0  0  0  0  0  2  0  0  0  0  0  0
  191.1080  176.5470  141.1190 C   0  0  0  0  0  2  0  0  0  0  0  0
  190.8360  175.6160  138.9450 O   0  0  0  0  0  0  0  0  0  0  0  0
  189.7790  177.6780  139.3000 N   0  0  0  0  0  2  0  0  0  0  0  0
  190.5720  176.5660  139.7320 C   0  0  0  0  0  0  0  0  0  0  0  0
  187.7500  179.1600  136.7830 C   0  0  0  0  0  2  0  0  0  0  0  0
  189.2230  177.8240  137.9600 C   0  0  1  0  0  3  0  0  0  0  0  0
  187.9690  176.9890  137.7950 C   0  0  0  0  0  2  0  0  0  0  0  0
  186.9890  177.8840  137.0740 C   0  0  0  0  0  2  0  0  0  0  0  0
  188.8840  179.2150  137.6910 N   0  0  0  0  0  2  0  0  0  0  0  0
  2 10  1  0  0  0  0
  3 17  1  0  0  0  0
  3  6  1  0  0  0  0
  6  8  2  0  0  0  0
  6  4  1  0  0  0  0
  7  1  1  0  0  0  0
  7  8  1  0  0  0  0
  9 11  1  6  0  0  0
  9 15  1  0  0  0  0
  9 12  1  0  0  0  0
 10  5  2  0  0  0  0
 10  1  1  0  0  0  0
 11 15  1  0  0  0  0
 12 13  1  0  0  0  0
 12  3  2  0  0  0  0
 13  7  2  0  0  0  0
 14 20  1  0  0  0  0
 14  4  2  0  0  0  0
 15 21  1  6  0  0  0
 15 16  1  0  0  0  0
 16 17  1  0  0  0  0
 17 14  1  0  0  0  0
 18  2  2  0  0  0  0
 18 13  1  0  0  0  0
 20 19  3  0  0  0  0
 22 21  1  0  0  0  0
 23 25  2  0  0  0  0
 24 25  1  0  0  0  0
 25 22  1  0  0  0  0
 26 29  1  0  0  0  0
 26 30  1  0  0  0  0
 27 24  1  1  0  0  0
 28 27  1  0  0  0  0
 29 28  1  0  0  0  0
 30 27  1  0  0  0  0
M  END
>  <MODEL>
2

>  <REMARK>
 VINA RESULT:     -10.4      1.605      2.174
  Name = 
  5 active torsions:
  status: ('A' for Active; 'I' for Inactive)
    1  A    between atoms: C_7  and  C_13
    2  A    between atoms: C_7  and  C_24
    3  A    between atoms: C_13  and  C_17
    4  A    between atoms: C_15  and  N_16
    5  A    between atoms: C_23  and  C_29
                            x       y       z     vdW  Elec       q    Type
                         _______ _______ _______ _____ _____    ______ ____

>  <TORSDO>
F 5

$$$$
=
 OpenBabel11032419263D

 30 35  0  0  1  0  0  0  0  0999 V2000
  190.1290  176.7640  147.7040 C   0  0  0  0  0  2  0  0  0  0  0  0
  191.9300  176.5060  145.8510 C   0  0  0  0  0  3  0  0  0  0  0  0
  187.4500  177.7650  144.5570 C   0  0  0  0  0  0  0  0  0  0  0  0
  185.6640  178.1350  145.8370 C   0  0  0  0  0  3  0  0  0  0  0  0
  192.4220  176.2880  148.1460 O   0  0  0  0  0  0  0  0  0  0  0  0
  187.0080  177.7680  145.8440 C   0  0  0  0  0  0  0  0  0  0  0  0
  189.2040  177.1280  146.5750 C   0  0  0  0  0  0  0  0  0  0  0  0
  187.8660  177.4500  146.8920 C   0  0  0  0  0  3  0  0  0  0  0  0
  189.1190  177.4760  142.7070 C   0  0  1  0  0  3  0  0  0  0  0  0
  191.5470  176.5160  147.2710 C   0  0  0  0  0  0  0  0  0  0  0  0
  189.0550  178.9060  142.1610 C   0  0  0  0  0  2  0  0  0  0  0  0
  188.7450  177.4620  144.1790 C   0  0  0  0  0  0  0  0  0  0  0  0
  189.6490  177.1280  145.2140 C   0  0  0  0  0  0  0  0  0  0  0  0
  185.3870  178.3430  144.4770 C   0  0  0  0  0  0  0  0  0  0  0  0
  187.9790  177.9200  141.7640 C   0  0  2  0  0  0  0  0  0  0  0  0
  186.6630  178.2230  142.3430 N   0  0  0  0  0  2  0  0  0  0  0  0
  186.4830  178.1140  143.7270 N   0  0  0  0  0  0  0  0  0  0  0  0
  191.0480  176.7860  144.8960 C   0  0  0  0  0  3  0  0  0  0  0  0
  183.0480  179.0900  143.4970 C   0  0  0  0  0  3  0  0  0  0  0  0
  184.1140  178.7530  143.9450 C   0  0  0  0  0  0  0  0  0  0  0  0
  188.0350  177.5030  140.3080 C   0  0  0  0  0  2  0  0  0  0  0  0
  188.6420  178.6120  139.4700 C   0  0  0  0  0  2  0  0  0  0  0  0
  189.4190  178.4450  137.2270 O   0  0  0  0  0  0  0  0  0  0  0  0
  190.4360  176.9900  138.7590 N   0  0  0  0  0  2  0  0  0  0  0  0
  189.5140  178.0320  138.4140 C   0  0  0  0  0  0  0  0  0  0  0  0
  192.5610  174.3870  137.5940 C   0  0  0  0  0  2  0  0  0  0  0  0
  191.3210  176.3250  137.8090 C   0  0  1  0  0  3  0  0  0  0  0  0
  192.7610  176.7460  138.0170 C   0  0  0  0  0  2  0  0  0  0  0  0
  193.5640  175.4700  137.9310 C   0  0  0  0  0  2  0  0  0  0  0  0
  191.2410  174.8780  137.9580 N   0  0  0  0  0  2  0  0  0  0  0  0
  2 10  1  0  0  0  0
  3  6  1  0  0  0  0
  4  6  1  0  0  0  0
  6  8  2  0  0  0  0
  7  8  1  0  0  0  0
  7  1  1  0  0  0  0
  9 11  1  1  0  0  0
  9 12  1  0  0  0  0
 10  1  1  0  0  0  0
 10  5  2  0  0  0  0
 12  3  2  0  0  0  0
 12 13  1  0  0  0  0
 13  7  2  0  0  0  0
 14  4  2  0  0  0  0
 15 21  1  6  0  0  0
 15 11  1  0  0  0  0
 15 16  1  0  0  0  0
 15  9  1  0  0  0  0
 16 17  1  0  0  0  0
 17 14  1  0  0  0  0
 17  3  1  0  0  0  0
 18 13  1  0  0  0  0
 18  2  2  0  0  0  0
 19 20  3  0  0  0  0
 20 14  1  0  0  0  0
 22 21  1  0  0  0  0
 23 25  2  0  0  0  0
 25 24  1  0  0  0  0
 25 22  1  0  0  0  0
 26 29  1  0  0  0  0
 26 30  1  0  0  0  0
 27 30  1  0  0  0  0
 27 28  1  0  0  0  0
 27 24  1  1  0  0  0
 29 28  1  0  0  0  0
M  END
>  <MODEL>
3

>  <REMARK>
 VINA RESULT:      -9.9      2.773      5.617
  Name = 
  5 active torsions:
  status: ('A' for Active; 'I' for Inactive)
    1  A    between atoms: C_7  and  C_13
    2  A    between atoms: C_7  and  C_24
    3  A    between atoms: C_13  and  C_17
    4  A    between atoms: C_15  and  N_16
    5  A    between atoms: C_23  and  C_29
                            x       y       z     vdW  Elec       q    Type
                         _______ _______ _______ _____ _____    ______ ____

>  <TORSDO>
F 5

$$$$
=
 OpenBabel11032419263D

 30 35  0  0  1  0  0  0  0  0999 V2000
  184.5910  178.5880  145.7410 C   0  0  0  0  0  2  0  0  0  0  0  0
  184.6240  178.6490  143.1460 C   0  0  0  0  0  3  0  0  0  0  0  0
  188.6510  177.3510  145.4740 C   0  0  0  0  0  0  0  0  0  0  0  0
  189.0040  177.1260  147.6630 C   0  0  0  0  0  3  0  0  0  0  0  0
  182.6760  179.0650  144.4070 O   0  0  0  0  0  0  0  0  0  0  0  0
  188.0620  177.4700  146.6950 C   0  0  0  0  0  0  0  0  0  0  0  0
  186.0220  178.1390  145.6200 C   0  0  0  0  0  0  0  0  0  0  0  0
  186.7340  177.8680  146.8090 C   0  0  0  0  0  3  0  0  0  0  0  0
  188.7770  177.4450  142.9700 C   0  0  1  0  0  3  0  0  0  0  0  0
  183.9000  178.7730  144.4200 C   0  0  0  0  0  0  0  0  0  0  0  0
  189.1300  175.9730  142.7370 C   0  0  0  0  0  2  0  0  0  0  0  0
  188.0110  177.5970  144.2740 C   0  0  0  0  0  0  0  0  0  0  0  0
  186.6600  178.0090  144.3450 C   0  0  0  0  0  0  0  0  0  0  0  0
  190.1440  176.8000  146.9110 C   0  0  0  0  0  0  0  0  0  0  0  0
  190.2250  176.9350  143.1380 C   0  0  2  0  0  0  0  0  0  0  0  0
  190.7390  176.7070  144.4960 N   0  0  0  0  0  2  0  0  0  0  0  0
  189.9020  176.9440  145.5930 N   0  0  0  0  0  0  0  0  0  0  0  0
  185.9060  178.2980  143.1110 C   0  0  0  0  0  3  0  0  0  0  0  0
  192.4500  175.9990  147.9260 C   0  0  0  0  0  3  0  0  0  0  0  0
  191.4000  176.3650  147.4610 C   0  0  0  0  0  0  0  0  0  0  0  0
  191.2280  177.2190  142.0380 C   0  0  0  0  0  2  0  0  0  0  0  0
  190.5760  177.0430  140.6800 C   0  0  0  0  0  2  0  0  0  0  0  0
  192.7850  177.3100  139.8320 O   0  0  0  0  0  0  0  0  0  0  0  0
  191.2800  176.2190  138.4030 N   0  0  0  0  0  2  0  0  0  0  0  0
  191.6200  176.8680  139.6350 C   0  0  0  0  0  0  0  0  0  0  0  0
  192.2930  175.0160  135.2130 C   0  0  0  0  0  2  0  0  0  0  0  0
  192.2060  176.0150  137.2950 C   0  0  1  0  0  3  0  0  0  0  0  0
  193.0210  174.7520  137.4900 C   0  0  0  0  0  2  0  0  0  0  0  0
  193.0290  174.0730  136.1410 C   0  0  0  0  0  2  0  0  0  0  0  0
  191.4840  175.9030  136.0350 N   0  0  0  0  0  2  0  0  0  0  0  0
  2 10  1  0  0  0  0
  3 17  1  0  0  0  0
  3  6  1  0  0  0  0
  5 10  2  0  0  0  0
  6  8  2  0  0  0  0
  6  4  1  0  0  0  0
  7  1  1  0  0  0  0
  7  8  1  0  0  0  0
  9 11  1  6  0  0  0
  9 15  1  0  0  0  0
  9 12  1  0  0  0  0
 10  1  1  0  0  0  0
 11 15  1  0  0  0  0
 12 13  1  0  0  0  0
 12  3  2  0  0  0  0
 13  7  2  0  0  0  0
 14 20  1  0  0  0  0
 14  4  2  0  0  0  0
 15 21  1  6  0  0  0
 15 16  1  0  0  0  0
 16 17  1  0  0  0  0
 17 14  1  0  0  0  0
 18  2  2  0  0  0  0
 18 13  1  0  0  0  0
 20 19  3  0  0  0  0
 22 21  1  0  0  0  0
 24 25  1  0  0  0  0
 25 23  2  0  0  0  0
 25 22  1  0  0  0  0
 26 30  1  0  0  0  0
 26 29  1  0  0  0  0
 27 28  1  0  0  0  0
 27 24  1  1  0  0  0
 29 28  1  0  0  0  0
 30 27  1  0  0  0  0
M  END
>  <MODEL>
4

>  <REMARK>
 VINA RESULT:      -9.9      2.464      3.222
  Name = 
  5 active torsions:
  status: ('A' for Active; 'I' for Inactive)
    1  A    between atoms: C_7  and  C_13
    2  A    between atoms: C_7  and  C_24
    3  A    between atoms: C_13  and  C_17
    4  A    between atoms: C_15  and  N_16
    5  A    between atoms: C_23  and  C_29
                            x       y       z     vdW  Elec       q    Type
                         _______ _______ _______ _____ _____    ______ ____

>  <TORSDO>
F 5

$$$$
=
 OpenBabel11032419263D

 30 35  0  0  1  0  0  0  0  0999 V2000
  190.1690  176.8190  147.7180 C   0  0  0  0  0  2  0  0  0  0  0  0
  192.0380  176.4160  145.9620 C   0  0  0  0  0  3  0  0  0  0  0  0
  187.6390  177.6660  144.4060 C   0  0  0  0  0  0  0  0  0  0  0  0
  185.8110  178.1470  145.5860 C   0  0  0  0  0  3  0  0  0  0  0  0
  192.4320  176.3340  148.2840 O   0  0  0  0  0  0  0  0  0  0  0  0
  187.1470  177.7580  145.6710 C   0  0  0  0  0  0  0  0  0  0  0  0
  189.2980  177.1280  146.5320 C   0  0  0  0  0  0  0  0  0  0  0  0
  187.9550  177.4920  146.7720 C   0  0  0  0  0  3  0  0  0  0  0  0
  189.3770  177.2340  142.6490 C   0  0  1  0  0  3  0  0  0  0  0  0
  191.5980  176.5210  147.3610 C   0  0  0  0  0  0  0  0  0  0  0  0
  189.3630  178.6280  142.0130 C   0  0  0  0  0  2  0  0  0  0  0  0
  188.9430  177.3190  144.1020 C   0  0  0  0  0  0  0  0  0  0  0  0
  189.7980  177.0350  145.1920 C   0  0  0  0  0  0  0  0  0  0  0  0
  185.5930  178.2740  144.2040 C   0  0  0  0  0  0  0  0  0  0  0  0
  188.2850  177.6380  141.6330 C   0  0  2  0  0  0  0  0  0  0  0  0
  186.9520  177.9980  142.1370 N   0  0  0  0  0  2  0  0  0  0  0  0
  186.7140  177.9790  143.5170 N   0  0  0  0  0  0  0  0  0  0  0  0
  191.2010  176.6500  144.9550 C   0  0  0  0  0  3  0  0  0  0  0  0
  183.3140  179.0020  143.0820 C   0  0  0  0  0  3  0  0  0  0  0  0
  184.3510  178.6700  143.5960 C   0  0  0  0  0  0  0  0  0  0  0  0
  188.3910  177.1290  140.2100 C   0  0  0  0  0  2  0  0  0  0  0  0
  188.5680  178.2920  139.2520 C   0  0  0  0  0  2  0  0  0  0  0  0
  187.3210  178.7540  137.2780 O   0  0  0  0  0  0  0  0  0  0  0  0
  186.0630  178.5730  139.2470 N   0  0  0  0  0  2  0  0  0  0  0  0
  187.2980  178.5460  138.5210 C   0  0  0  0  0  0  0  0  0  0  0  0
  182.7970  179.9740  139.0950 C   0  0  0  0  0  2  0  0  0  0  0  0
  184.7590  178.8390  138.6480 C   0  0  1  0  0  3  0  0  0  0  0  0
  183.7550  177.7690  139.0270 C   0  0  0  0  0  2  0  0  0  0  0  0
  182.4900  178.5170  139.3720 C   0  0  0  0  0  2  0  0  0  0  0  0
  184.2430  180.1280  139.0900 N   0  0  0  0  0  2  0  0  0  0  0  0
  2 10  1  0  0  0  0
  3  6  1  0  0  0  0
  4  6  1  0  0  0  0
  6  8  2  0  0  0  0
  7  8  1  0  0  0  0
  7  1  1  0  0  0  0
  9 11  1  1  0  0  0
  9 12  1  0  0  0  0
 10  1  1  0  0  0  0
 10  5  2  0  0  0  0
 12  3  2  0  0  0  0
 12 13  1  0  0  0  0
 13  7  2  0  0  0  0
 14  4  2  0  0  0  0
 15 21  1  6  0  0  0
 15 11  1  0  0  0  0
 15 16  1  0  0  0  0
 15  9  1  0  0  0  0
 16 17  1  0  0  0  0
 17 14  1  0  0  0  0
 17  3  1  0  0  0  0
 18 13  1  0  0  0  0
 18  2  2  0  0  0  0
 19 20  3  0  0  0  0
 20 14  1  0  0  0  0
 22 21  1  0  0  0  0
 23 25  2  0  0  0  0
 25 24  1  0  0  0  0
 25 22  1  0  0  0  0
 26 29  1  0  0  0  0
 27 28  1  0  0  0  0
 27 30  1  0  0  0  0
 27 24  1  1  0  0  0
 28 29  1  0  0  0  0
 30 26  1  0  0  0  0
M  END
>  <MODEL>
5

>  <REMARK>
 VINA RESULT:      -9.8      2.835      5.937
  Name = 
  5 active torsions:
  status: ('A' for Active; 'I' for Inactive)
    1  A    between atoms: C_7  and  C_13
    2  A    between atoms: C_7  and  C_24
    3  A    between atoms: C_13  and  C_17
    4  A    between atoms: C_15  and  N_16
    5  A    between atoms: C_23  and  C_29
                            x       y       z     vdW  Elec       q    Type
                         _______ _______ _______ _____ _____    ______ ____

>  <TORSDO>
F 5

$$$$
=
 OpenBabel11032419263D

 30 35  0  0  1  0  0  0  0  0999 V2000
  192.0280  176.3450  145.7780 C   0  0  0  0  0  2  0  0  0  0  0  0
  190.3780  176.8490  147.7190 C   0  0  0  0  0  3  0  0  0  0  0  0
  188.8840  177.5490  143.1790 C   0  0  0  0  0  0  0  0  0  0  0  0
  189.9680  177.1840  141.2660 C   0  0  0  0  0  3  0  0  0  0  0  0
  192.5210  175.9340  148.0730 O   0  0  0  0  0  0  0  0  0  0  0  0
  190.0670  177.1260  142.6550 C   0  0  0  0  0  0  0  0  0  0  0  0
  190.8960  176.7620  144.8790 C   0  0  0  0  0  0  0  0  0  0  0  0
  191.1090  176.7210  143.4840 C   0  0  0  0  0  3  0  0  0  0  0  0
  187.2560  178.1150  145.0010 C   0  0  1  0  0  3  0  0  0  0  0  0
  191.6750  176.3480  147.2390 C   0  0  0  0  0  0  0  0  0  0  0  0
  186.1570  177.1280  144.5960 C   0  0  0  0  0  2  0  0  0  0  0  0
  188.6100  177.6100  144.5320 C   0  0  0  0  0  0  0  0  0  0  0  0
  189.6450  177.2130  145.4110 C   0  0  0  0  0  0  0  0  0  0  0  0
  188.6630  177.6550  141.0480 C   0  0  0  0  0  0  0  0  0  0  0  0
  186.2690  178.4440  143.8600 C   0  0  2  0  0  0  0  0  0  0  0  0
  186.7260  178.3040  142.4700 N   0  0  0  0  0  2  0  0  0  0  0  0
  188.0320  177.8650  142.2210 N   0  0  0  0  0  0  0  0  0  0  0  0
  189.4370  177.2540  146.8700 C   0  0  0  0  0  3  0  0  0  0  0  0
  187.5760  178.0610  138.6740 C   0  0  0  0  0  3  0  0  0  0  0  0
  188.0690  177.8770  139.7580 C   0  0  0  0  0  0  0  0  0  0  0  0
  185.1290  179.4030  144.1380 C   0  0  0  0  0  2  0  0  0  0  0  0
  183.8250  178.6380  144.2660 C   0  0  0  0  0  2  0  0  0  0  0  0
  181.8000  179.3610  143.2450 O   0  0  0  0  0  0  0  0  0  0  0  0
  183.4610  178.6090  141.7720 N   0  0  0  0  0  2  0  0  0  0  0  0
  182.9630  178.9030  143.0830 C   0  0  0  0  0  0  0  0  0  0  0  0
  182.0750  177.6360  138.6440 C   0  0  0  0  0  2  0  0  0  0  0  0
  182.7020  178.7980  140.5400 C   0  0  1  0  0  3  0  0  0  0  0  0
  183.5850  179.3340  139.4310 C   0  0  0  0  0  2  0  0  0  0  0  0
  183.2120  178.5340  138.2060 C   0  0  0  0  0  2  0  0  0  0  0  0
  182.1220  177.5380  140.0950 N   0  0  0  0  0  2  0  0  0  0  0  0
  1 10  1  0  0  0  0
  3 12  1  0  0  0  0
  4  6  1  0  0  0  0
  6  3  2  0  0  0  0
  6  8  1  0  0  0  0
  7 13  1  0  0  0  0
  7  1  1  0  0  0  0
  8  7  2  0  0  0  0
  9 11  1  1  0  0  0
 10  2  1  0  0  0  0
 10  5  2  0  0  0  0
 12  9  1  0  0  0  0
 12 13  2  0  0  0  0
 13 18  1  0  0  0  0
 14  4  2  0  0  0  0
 14 17  1  0  0  0  0
 15 21  1  1  0  0  0
 15 11  1  0  0  0  0
 15  9  1  0  0  0  0
 16 15  1  0  0  0  0
 17 16  1  0  0  0  0
 17  3  1  0  0  0  0
 18  2  2  0  0  0  0
 19 20  3  0  0  0  0
 20 14  1  0  0  0  0
 21 22  1  0  0  0  0
 24 25  1  0  0  0  0
 25 23  2  0  0  0  0
 25 22  1  0  0  0  0
 26 30  1  0  0  0  0
 27 24  1  1  0  0  0
 28 27  1  0  0  0  0
 29 26  1  0  0  0  0
 29 28  1  0  0  0  0
 30 27  1  0  0  0  0
M  END
>  <MODEL>
6

>  <REMARK>
 VINA RESULT:      -9.1      2.937      7.299
  Name = 
  5 active torsions:
  status: ('A' for Active; 'I' for Inactive)
    1  A    between atoms: C_7  and  C_13
    2  A    between atoms: C_7  and  C_24
    3  A    between atoms: C_13  and  C_17
    4  A    between atoms: C_15  and  N_16
    5  A    between atoms: C_23  and  C_29
                            x       y       z     vdW  Elec       q    Type
                         _______ _______ _______ _____ _____    ______ ____

>  <TORSDO>
F 5

$$$$
=
 OpenBabel11032419263D

 30 35  0  0  1  0  0  0  0  0999 V2000
  189.9780  176.9380  147.5600 C   0  0  0  0  0  2  0  0  0  0  0  0
  191.8440  176.6720  145.7750 C   0  0  0  0  0  3  0  0  0  0  0  0
  187.3810  177.7870  144.3000 C   0  0  0  0  0  0  0  0  0  0  0  0
  185.5460  178.1510  145.5110 C   0  0  0  0  0  3  0  0  0  0  0  0
  192.2640  176.5300  148.0900 O   0  0  0  0  0  0  0  0  0  0  0  0
  186.8980  177.8160  145.5720 C   0  0  0  0  0  0  0  0  0  0  0  0
  189.0820  177.2490  146.3920 C   0  0  0  0  0  0  0  0  0  0  0  0
  187.7270  177.5480  146.6560 C   0  0  0  0  0  3  0  0  0  0  0  0
  189.1170  177.4870  142.5140 C   0  0  1  0  0  3  0  0  0  0  0  0
  191.4140  176.7120  147.1810 C   0  0  0  0  0  0  0  0  0  0  0  0
  189.0390  178.8990  141.9260 C   0  0  0  0  0  2  0  0  0  0  0  0
  188.6950  177.5050  143.9730 C   0  0  0  0  0  0  0  0  0  0  0  0
  189.5720  177.2210  145.0460 C   0  0  0  0  0  0  0  0  0  0  0  0
  185.3090  178.3140  144.1370 C   0  0  0  0  0  0  0  0  0  0  0  0
  187.9990  177.8770  141.5230 C   0  0  2  0  0  0  0  0  0  0  0  0
  186.6580  178.1650  142.0500 N   0  0  0  0  0  2  0  0  0  0  0  0
  186.4350  178.0900  143.4300 N   0  0  0  0  0  0  0  0  0  0  0  0
  190.9870  176.9040  144.7840 C   0  0  0  0  0  3  0  0  0  0  0  0
  182.9870  178.9870  143.0680 C   0  0  0  0  0  3  0  0  0  0  0  0
  184.0460  178.6780  143.5530 C   0  0  0  0  0  0  0  0  0  0  0  0
  188.1120  177.4210  140.0820 C   0  0  0  0  0  2  0  0  0  0  0  0
  188.7590  178.5050  139.2400 C   0  0  0  0  0  2  0  0  0  0  0  0
  189.2000  178.9010  136.9350 O   0  0  0  0  0  0  0  0  0  0  0  0
  188.0180  176.9330  137.4130 N   0  0  0  0  0  2  0  0  0  0  0  0
  188.6890  178.1390  137.8000 C   0  0  0  0  0  0  0  0  0  0  0  0
  186.8150  174.8210  134.8170 C   0  0  0  0  0  2  0  0  0  0  0  0
  187.8590  176.4840  136.0350 C   0  0  1  0  0  3  0  0  0  0  0  0
  188.9620  175.5210  135.6440 C   0  0  0  0  0  2  0  0  0  0  0  0
  188.2690  174.4070  134.8960 C   0  0  0  0  0  2  0  0  0  0  0  0
  186.5800  175.8110  135.8570 N   0  0  0  0  0  2  0  0  0  0  0  0
  2 10  1  0  0  0  0
  3  6  1  0  0  0  0
  4  6  1  0  0  0  0
  6  8  2  0  0  0  0
  7  8  1  0  0  0  0
  7  1  1  0  0  0  0
  9 11  1  1  0  0  0
  9 12  1  0  0  0  0
 10  1  1  0  0  0  0
 10  5  2  0  0  0  0
 12  3  2  0  0  0  0
 12 13  1  0  0  0  0
 13  7  2  0  0  0  0
 14  4  2  0  0  0  0
 15 21  1  6  0  0  0
 15 11  1  0  0  0  0
 15 16  1  0  0  0  0
 15  9  1  0  0  0  0
 16 17  1  0  0  0  0
 17 14  1  0  0  0  0
 17  3  1  0  0  0  0
 18 13  1  0  0  0  0
 18  2  2  0  0  0  0
 19 20  3  0  0  0  0
 20 14  1  0  0  0  0
 22 21  1  0  0  0  0
 23 25  2  0  0  0  0
 24 25  1  0  0  0  0
 25 22  1  0  0  0  0
 26 29  1  0  0  0  0
 26 30  1  0  0  0  0
 27 24  1  1  0  0  0
 28 27  1  0  0  0  0
 29 28  1  0  0  0  0
 30 27  1  0  0  0  0
M  END
>  <MODEL>
7

>  <REMARK>
 VINA RESULT:      -9.1      2.738      5.536
  Name = 
  5 active torsions:
  status: ('A' for Active; 'I' for Inactive)
    1  A    between atoms: C_7  and  C_13
    2  A    between atoms: C_7  and  C_24
    3  A    between atoms: C_13  and  C_17
    4  A    between atoms: C_15  and  N_16
    5  A    between atoms: C_23  and  C_29
                            x       y       z     vdW  Elec       q    Type
                         _______ _______ _______ _____ _____    ______ ____

>  <TORSDO>
F 5

$$$$
=
 OpenBabel11032419263D

 30 35  0  0  1  0  0  0  0  0999 V2000
  186.5650  178.1960  147.3000 C   0  0  0  0  0  2  0  0  0  0  0  0
  189.0350  177.4040  147.1990 C   0  0  0  0  0  3  0  0  0  0  0  0
  186.7030  178.2220  143.0490 C   0  0  0  0  0  0  0  0  0  0  0  0
  184.6230  178.9530  142.7220 C   0  0  0  0  0  3  0  0  0  0  0  0
  187.9280  177.8740  149.2270 O   0  0  0  0  0  0  0  0  0  0  0  0
  185.5640  178.6050  143.6890 C   0  0  0  0  0  0  0  0  0  0  0  0
  186.6420  178.2100  145.7980 C   0  0  0  0  0  0  0  0  0  0  0  0
  185.4950  178.6110  145.0780 C   0  0  0  0  0  3  0  0  0  0  0  0
  189.0660  177.4010  142.8720 C   0  0  1  0  0  3  0  0  0  0  0  0
  187.8580  177.8330  147.9710 C   0  0  0  0  0  0  0  0  0  0  0  0
  189.6360  178.6060  142.1160 C   0  0  0  0  0  2  0  0  0  0  0  0
  187.8590  177.8220  143.6920 C   0  0  0  0  0  0  0  0  0  0  0  0
  187.8310  177.8090  145.1060 C   0  0  0  0  0  0  0  0  0  0  0  0
  185.3050  178.7500  141.5110 C   0  0  0  0  0  0  0  0  0  0  0  0
  188.8810  177.5470  141.3450 C   0  0  2  0  0  0  0  0  0  0  0  0
  187.5820  178.0060  140.8330 N   0  0  0  0  0  2  0  0  0  0  0  0
  186.5590  178.3100  141.7390 N   0  0  0  0  0  0  0  0  0  0  0  0
  189.0210  177.3890  145.8690 C   0  0  0  0  0  3  0  0  0  0  0  0
  184.2920  179.1840  139.1090 C   0  0  0  0  0  3  0  0  0  0  0  0
  184.7550  178.9840  140.2030 C   0  0  0  0  0  0  0  0  0  0  0  0
  189.7530  176.7180  140.4240 C   0  0  0  0  0  2  0  0  0  0  0  0
  190.4840  177.6200  139.4470 C   0  0  0  0  0  2  0  0  0  0  0  0
  190.8560  176.7610  137.2590 O   0  0  0  0  0  0  0  0  0  0  0  0
  188.7350  177.6850  137.6340 N   0  0  0  0  0  2  0  0  0  0  0  0
  190.0540  177.3170  138.0560 C   0  0  0  0  0  0  0  0  0  0  0  0
  186.2020  177.4800  135.1450 C   0  0  0  0  0  2  0  0  0  0  0  0
  188.2080  177.4670  136.2910 C   0  0  1  0  0  3  0  0  0  0  0  0
  187.8640  176.0080  136.0690 C   0  0  0  0  0  2  0  0  0  0  0  0
  186.5250  176.0180  135.3690 C   0  0  0  0  0  2  0  0  0  0  0  0
  187.0050  178.2590  136.0740 N   0  0  0  0  0  2  0  0  0  0  0  0
  1 10  1  0  0  0  0
  2 10  1  0  0  0  0
  3  6  2  0  0  0  0
  3 12  1  0  0  0  0
  4  6  1  0  0  0  0
  6  8  1  0  0  0  0
  7  1  1  0  0  0  0
  8  7  2  0  0  0  0
  9 11  1  1  0  0  0
  9 12  1  0  0  0  0
 10  5  2  0  0  0  0
 12 13  2  0  0  0  0
 13  7  1  0  0  0  0
 13 18  1  0  0  0  0
 14 17  1  0  0  0  0
 14  4  2  0  0  0  0
 15 21  1  6  0  0  0
 15 11  1  0  0  0  0
 15  9  1  0  0  0  0
 16 15  1  0  0  0  0
 16 17  1  0  0  0  0
 17  3  1  0  0  0  0
 18  2  2  0  0  0  0
 19 20  3  0  0  0  0
 20 14  1  0  0  0  0
 22 21  1  0  0  0  0
 23 25  2  0  0  0  0
 24 25  1  0  0  0  0
 25 22  1  0  0  0  0
 26 29  1  0  0  0  0
 26 30  1  0  0  0  0
 27 24  1  1  0  0  0
 28 27  1  0  0  0  0
 29 28  1  0  0  0  0
 30 27  1  0  0  0  0
M  END
>  <MODEL>
8

>  <REMARK>
 VINA RESULT:      -8.8      2.591      4.990
  Name = 
  5 active torsions:
  status: ('A' for Active; 'I' for Inactive)
    1  A    between atoms: C_7  and  C_13
    2  A    between atoms: C_7  and  C_24
    3  A    between atoms: C_13  and  C_17
    4  A    between atoms: C_15  and  N_16
    5  A    between atoms: C_23  and  C_29
                            x       y       z     vdW  Elec       q    Type
                         _______ _______ _______ _____ _____    ______ ____

>  <TORSDO>
F 5

$$$$
=
 OpenBabel11032419263D

 30 35  0  0  1  0  0  0  0  0999 V2000
  186.7470  178.2100  147.3500 C   0  0  0  0  0  2  0  0  0  0  0  0
  189.2040  177.3870  147.1880 C   0  0  0  0  0  3  0  0  0  0  0  0
  186.7750  178.2230  143.0970 C   0  0  0  0  0  0  0  0  0  0  0  0
  184.6960  178.9790  142.8210 C   0  0  0  0  0  3  0  0  0  0  0  0
  188.1560  177.8760  149.2420 O   0  0  0  0  0  0  0  0  0  0  0  0
  185.6580  178.6220  143.7650 C   0  0  0  0  0  0  0  0  0  0  0  0
  186.7850  178.2190  145.8460 C   0  0  0  0  0  0  0  0  0  0  0  0
  185.6250  178.6320  145.1560 C   0  0  0  0  0  3  0  0  0  0  0  0
  189.1230  177.3730  142.8610 C   0  0  1  0  0  3  0  0  0  0  0  0
  188.0530  177.8320  147.9880 C   0  0  0  0  0  0  0  0  0  0  0  0
  189.6870  178.5690  142.0870 C   0  0  0  0  0  2  0  0  0  0  0  0
  187.9430  177.8110  143.7110 C   0  0  0  0  0  0  0  0  0  0  0  0
  187.9510  177.8010  145.1250 C   0  0  0  0  0  0  0  0  0  0  0  0
  185.3440  178.7640  141.5940 C   0  0  0  0  0  0  0  0  0  0  0  0
  188.9000  177.5170  141.3390 C   0  0  2  0  0  0  0  0  0  0  0  0
  187.5940  177.9910  140.8600 N   0  0  0  0  0  2  0  0  0  0  0  0
  186.5980  178.3090  141.7910 N   0  0  0  0  0  0  0  0  0  0  0  0
  189.1550  177.3690  145.8580 C   0  0  0  0  0  3  0  0  0  0  0  0
  184.2720  179.2010  139.2180 C   0  0  0  0  0  3  0  0  0  0  0  0
  184.7630  179.0010  140.3000 C   0  0  0  0  0  0  0  0  0  0  0  0
  189.7380  176.6750  140.3980 C   0  0  0  0  0  2  0  0  0  0  0  0
  190.1710  177.5040  139.2030 C   0  0  0  0  0  2  0  0  0  0  0  0
  190.3700  176.7910  136.9410 O   0  0  0  0  0  0  0  0  0  0  0  0
  191.6130  175.5590  138.5020 N   0  0  0  0  0  2  0  0  0  0  0  0
  190.7160  176.6170  138.1410 C   0  0  0  0  0  0  0  0  0  0  0  0
  192.8770  174.4880  135.3540 C   0  0  0  0  0  2  0  0  0  0  0  0
  192.1890  174.6080  137.5570 C   0  0  1  0  0  3  0  0  0  0  0  0
  191.1080  173.8240  136.8420 C   0  0  0  0  0  2  0  0  0  0  0  0
  191.5310  173.7950  135.3930 C   0  0  0  0  0  2  0  0  0  0  0  0
  192.9910  175.3000  136.5560 N   0  0  0  0  0  2  0  0  0  0  0  0
  1 10  1  0  0  0  0
  2 10  1  0  0  0  0
  3 12  2  0  0  0  0
  3  6  1  0  0  0  0
  4  6  1  0  0  0  0
  6  8  2  0  0  0  0
  7  1  1  0  0  0  0
  8  7  1  0  0  0  0
  9 11  1  1  0  0  0
  9 12  1  0  0  0  0
 10  5  2  0  0  0  0
 12 13  1  0  0  0  0
 13  7  2  0  0  0  0
 13 18  1  0  0  0  0
 14 17  1  0  0  0  0
 14  4  2  0  0  0  0
 15 21  1  6  0  0  0
 15 11  1  0  0  0  0
 15  9  1  0  0  0  0
 16 15  1  0  0  0  0
 16 17  1  0  0  0  0
 17  3  1  0  0  0  0
 18  2  2  0  0  0  0
 19 20  3  0  0  0  0
 20 14  1  0  0  0  0
 22 21  1  0  0  0  0
 23 25  2  0  0  0  0
 25 24  1  0  0  0  0
 25 22  1  0  0  0  0
 26 29  1  0  0  0  0
 26 30  1  0  0  0  0
 27 24  1  1  0  0  0
 28 27  1  0  0  0  0
 29 28  1  0  0  0  0
 30 27  1  0  0  0  0
M  END
>  <MODEL>
9

>  <REMARK>
 VINA RESULT:      -8.5      2.945      5.331
  Name = 
  5 active torsions:
  status: ('A' for Active; 'I' for Inactive)
    1  A    between atoms: C_7  and  C_13
    2  A    between atoms: C_7  and  C_24
    3  A    between atoms: C_13  and  C_17
    4  A    between atoms: C_15  and  N_16
    5  A    between atoms: C_23  and  C_29
                            x       y       z     vdW  Elec       q    Type
                         _______ _______ _______ _____ _____    ______ ____

>  <TORSDO>
F 5

$$$$
