=
 OpenBabel11042410453D

 38 40  0  0  1  0  0  0  0  0999 V2000
  188.3730  177.7870  142.7840 C   0  0  0  0  0  0  0  0  0  0  0  0
  187.8530  177.6700  145.1730 C   0  0  0  0  0  0  0  0  0  0  0  0
  187.2780  177.0280  147.4610 O   0  0  0  0  0  1  0  0  0  0  0  0
  190.1650  177.7430  144.4100 C   0  0  0  0  0  3  0  0  0  0  0  0
  185.0030  178.5430  144.1580 C   0  0  0  0  0  0  0  0  0  0  0  0
  189.8030  177.7220  146.8380 C   0  0  0  0  0  1  0  0  0  0  0  0
  186.7950  177.4950  146.2390 C   0  0  1  0  0  3  0  0  0  0  0  0
  189.7370  177.7600  143.0870 C   0  0  0  0  0  3  0  0  0  0  0  0
  185.9840  177.9450  143.4560 C   0  0  0  0  0  3  0  0  0  0  0  0
  187.4170  177.7900  143.8280 C   0  0  0  0  0  0  0  0  0  0  0  0
  189.2450  177.7050  145.4550 C   0  0  0  0  0  0  0  0  0  0  0  0
  185.1960  179.1880  145.4720 C   0  0  0  0  0  3  0  0  0  0  0  0
  186.0180  178.7460  146.4200 C   0  0  0  0  0  3  0  0  0  0  0  0
  183.4070  178.6060  142.2670 C   0  0  0  0  0  3  0  0  0  0  0  0
  183.6590  178.6820  143.5760 C   0  0  0  0  0  3  0  0  0  0  0  0
  181.1880  179.3380  142.3970 O   0  0  0  0  0  0  0  0  0  0  0  0
  182.0530  178.7390  141.7020 C   0  0  0  0  0  0  0  0  0  0  0  0
  181.8650  178.1760  137.8690 C   0  0  0  0  0  1  0  0  0  0  0  0
  182.1320  178.8410  139.1400 N   0  0  0  0  0  0  0  0  0  0  0  0
  181.6850  178.2170  140.3580 C   0  0  0  0  0  0  0  0  0  0  0  0
  180.9710  177.1790  140.2830 O   0  0  0  0  0  0  0  0  0  0  0  0
  182.7560  180.1660  139.1500 C   0  0  0  0  0  2  0  0  0  0  0  0
  184.1490  180.0780  139.1130 O   0  0  0  0  0  1  0  0  0  0  0  0
  187.9400  177.7760  141.3420 C   0  0  1  0  0  3  0  0  0  0  0  0
  186.8250  178.7770  141.0790 C   0  0  0  0  0  1  0  0  0  0  0  0
  189.0760  178.0680  140.4810 N   0  0  0  0  0  2  0  0  0  0  0  0
  190.6660  176.4430  139.6080 C   0  0  0  0  0  1  0  0  0  0  0  0
  189.2360  176.9580  139.5520 C   0  0  2  0  0  3  0  0  0  0  0  0
  187.0410  178.6210  137.6300 N   0  0  0  0  0  2  0  0  0  0  0  0
  189.0970  179.5240  137.1340 C   0  0  0  0  0  1  0  0  0  0  0  0
  188.3500  178.7660  138.1230 N   0  0  0  0  0  0  0  0  0  0  0  0
  187.9360  175.0590  137.3370 C   0  0  0  0  0  1  0  0  0  0  0  0
  188.8900  177.3950  138.1290 C   0  0  2  0  0  3  0  0  0  0  0  0
  186.7540  177.2770  137.3110 C   0  0  0  0  0  0  0  0  0  0  0  0
  187.8080  176.5280  137.5640 C   0  0  0  0  0  0  0  0  0  0  0  0
  184.6290  176.2700  137.5800 O   0  0  0  0  0  0  0  0  0  0  0  0
  185.0710  177.0440  135.4440 N   0  0  0  0  0  1  0  0  0  0  0  0
  185.4390  176.8430  136.8030 C   0  0  0  0  0  0  0  0  0  0  0  0
  1  8  2  0  0  0  0
  1 10  1  0  0  0  0
  2 11  1  0  0  0  0
  2  7  1  0  0  0  0
  4 11  2  0  0  0  0
  5 12  1  0  0  0  0
  7 13  1  0  0  0  0
  7  3  1  1  0  0  0
  8  4  1  0  0  0  0
  9 10  1  0  0  0  0
  9  5  2  0  0  0  0
 10  2  2  0  0  0  0
 11  6  1  0  0  0  0
 12 13  2  0  0  0  0
 14 15  2  0  0  0  0
 15  5  1  0  0  0  0
 17 14  1  0  0  0  0
 17 16  2  0  0  0  0
 18 19  1  0  0  0  0
 19 22  1  0  0  0  0
 19 20  1  0  0  0  0
 20 17  1  0  0  0  0
 21 20  2  0  0  0  0
 23 22  1  0  0  0  0
 24 25  1  1  0  0  0
 24  1  1  0  0  0  0
 26 24  1  0  0  0  0
 28 27  1  6  0  0  0
 28 26  1  0  0  0  0
 29 31  1  0  0  0  0
 30 31  1  0  0  0  0
 31 33  1  0  0  0  0
 32 35  1  0  0  0  0
 33 28  1  1  0  0  0
 34 35  2  0  0  0  0
 34 29  1  0  0  0  0
 35 33  1  0  0  0  0
 37 38  1  0  0  0  0
 38 34  1  0  0  0  0
 38 36  2  0  0  0  0
M  END
>  <MODEL>
1

>  <REMARK>
 VINA RESULT:      -9.2      0.000      0.000
  Name = 
  9 active torsions:
  status: ('A' for Active; 'I' for Inactive)
    1  A    between atoms: C_2  and  C_26
    2  A    between atoms: C_3  and  C_4
    3  A    between atoms: C_3  and  N_34
    4  A    between atoms: C_7  and  N_11
    5  A    between atoms: C_19  and  C_20
    6  A    between atoms: C_21  and  C_26
    7  A    between atoms: C_23  and  C_37
    8  A    between atoms: N_34  and  C_37
    9  A    between atoms: C_35  and  C_36
                            x       y       z     vdW  Elec       q    Type
                         _______ _______ _______ _____ _____    ______ ____

>  <TORSDO>
F 9

$$$$
=
 OpenBabel11042410453D

 38 40  0  0  1  0  0  0  0  0999 V2000
  184.3170  178.6420  142.6610 C   0  0  0  0  0  0  0  0  0  0  0  0
  185.8000  178.3730  144.5890 C   0  0  0  0  0  0  0  0  0  0  0  0
  187.3770  178.6290  146.4400 O   0  0  0  0  0  1  0  0  0  0  0  0
  183.4030  178.6750  144.9020 C   0  0  0  0  0  3  0  0  0  0  0  0
  187.7790  177.3190  142.3780 C   0  0  0  0  0  0  0  0  0  0  0  0
  184.7470  178.3250  146.9270 C   0  0  0  0  0  1  0  0  0  0  0  0
  187.2200  178.2780  145.0990 C   0  0  1  0  0  3  0  0  0  0  0  0
  183.2290  178.7870  143.5270 C   0  0  0  0  0  3  0  0  0  0  0  0
  186.7060  178.1170  142.2160 C   0  0  0  0  0  3  0  0  0  0  0  0
  185.6070  178.3860  143.1830 C   0  0  0  0  0  0  0  0  0  0  0  0
  184.6700  178.4630  145.4440 C   0  0  0  0  0  0  0  0  0  0  0  0
  188.0510  176.5290  143.5950 C   0  0  0  0  0  3  0  0  0  0  0  0
  187.7860  176.9310  144.8350 C   0  0  0  0  0  3  0  0  0  0  0  0
  189.9920  177.4840  141.2820 C   0  0  0  0  0  3  0  0  0  0  0  0
  188.7120  177.1040  141.2620 C   0  0  0  0  0  3  0  0  0  0  0  0
  192.1240  177.5720  140.3220 O   0  0  0  0  0  0  0  0  0  0  0  0
  190.9160  177.2530  140.1570 C   0  0  0  0  0  0  0  0  0  0  0  0
  189.5670  176.7950  136.5490 C   0  0  0  0  0  1  0  0  0  0  0  0
  189.8150  177.4170  137.8460 N   0  0  0  0  0  0  0  0  0  0  0  0
  190.4800  176.6520  138.8680 C   0  0  0  0  0  0  0  0  0  0  0  0
  190.7200  175.4310  138.6550 O   0  0  0  0  0  0  0  0  0  0  0  0
  189.2990  178.7610  138.1180 C   0  0  0  0  0  2  0  0  0  0  0  0
  188.1110  179.0030  137.4260 O   0  0  0  0  0  1  0  0  0  0  0  0
  184.1020  178.7970  141.1780 C   0  0  1  0  0  3  0  0  0  0  0  0
  183.7690  177.4700  140.5140 C   0  0  0  0  0  1  0  0  0  0  0  0
  183.0330  179.7530  140.9300 N   0  0  0  0  0  2  0  0  0  0  0  0
  182.4660  179.8290  138.5630 C   0  0  0  0  0  1  0  0  0  0  0  0
  182.1560  179.1950  139.9100 C   0  0  2  0  0  3  0  0  0  0  0  0
  180.0490  180.6120  142.1080 N   0  0  0  0  0  2  0  0  0  0  0  0
  179.3910  181.3830  140.0430 C   0  0  0  0  0  1  0  0  0  0  0  0
  180.4930  180.7960  140.7850 N   0  0  0  0  0  0  0  0  0  0  0  0
  180.2650  177.0250  141.2960 C   0  0  0  0  0  1  0  0  0  0  0  0
  180.6900  179.4280  140.2750 C   0  0  2  0  0  3  0  0  0  0  0  0
  179.9350  179.2430  142.4300 C   0  0  0  0  0  0  0  0  0  0  0  0
  180.2780  178.5140  141.3870 C   0  0  0  0  0  0  0  0  0  0  0  0
  179.6710  177.5600  144.0720 O   0  0  0  0  0  0  0  0  0  0  0  0
  178.9310  179.6590  144.7070 N   0  0  0  0  0  1  0  0  0  0  0  0
  179.5190  178.7720  143.7640 C   0  0  0  0  0  0  0  0  0  0  0  0
  1 10  2  0  0  0  0
  1  8  1  0  0  0  0
  2  7  1  0  0  0  0
  2 11  2  0  0  0  0
  4 11  1  0  0  0  0
  5 12  1  0  0  0  0
  7  3  1  1  0  0  0
  8  4  2  0  0  0  0
  9  5  2  0  0  0  0
  9 10  1  0  0  0  0
 10  2  1  0  0  0  0
 11  6  1  0  0  0  0
 12 13  2  0  0  0  0
 13  7  1  0  0  0  0
 15 14  2  0  0  0  0
 15  5  1  0  0  0  0
 17 16  2  0  0  0  0
 17 14  1  0  0  0  0
 18 19  1  0  0  0  0
 19 22  1  0  0  0  0
 19 20  1  0  0  0  0
 20 17  1  0  0  0  0
 21 20  2  0  0  0  0
 23 22  1  0  0  0  0
 24 25  1  1  0  0  0
 24  1  1  0  0  0  0
 26 24  1  0  0  0  0
 28 27  1  6  0  0  0
 28 26  1  0  0  0  0
 29 34  1  0  0  0  0
 30 31  1  0  0  0  0
 31 29  1  0  0  0  0
 32 35  1  0  0  0  0
 33 28  1  1  0  0  0
 33 31  1  0  0  0  0
 33 35  1  0  0  0  0
 34 38  1  0  0  0  0
 35 34  2  0  0  0  0
 38 36  2  0  0  0  0
 38 37  1  0  0  0  0
M  END
>  <MODEL>
2

>  <REMARK>
 VINA RESULT:      -8.7      2.733      7.110
  Name = 
  9 active torsions:
  status: ('A' for Active; 'I' for Inactive)
    1  A    between atoms: C_2  and  C_26
    2  A    between atoms: C_3  and  C_4
    3  A    between atoms: C_3  and  N_34
    4  A    between atoms: C_7  and  N_11
    5  A    between atoms: C_19  and  C_20
    6  A    between atoms: C_21  and  C_26
    7  A    between atoms: C_23  and  C_37
    8  A    between atoms: N_34  and  C_37
    9  A    between atoms: C_35  and  C_36
                            x       y       z     vdW  Elec       q    Type
                         _______ _______ _______ _____ _____    ______ ____

>  <TORSDO>
F 9

$$$$
=
 OpenBabel11042410453D

 38 40  0  0  1  0  0  0  0  0999 V2000
  185.0510  178.2970  142.8200 C   0  0  0  0  0  0  0  0  0  0  0  0
  182.7080  178.5160  142.1470 C   0  0  0  0  0  0  0  0  0  0  0  0
  180.3570  178.2030  141.5540 O   0  0  0  0  0  1  0  0  0  0  0  0
  183.3930  179.0170  144.4300 C   0  0  0  0  0  3  0  0  0  0  0  0
  183.9750  178.4360  139.2640 C   0  0  0  0  0  0  0  0  0  0  0  0
  181.0270  179.3740  143.8840 C   0  0  0  0  0  1  0  0  0  0  0  0
  181.6650  178.2910  141.0760 C   0  0  1  0  0  3  0  0  0  0  0  0
  184.7050  178.6720  144.1210 C   0  0  0  0  0  3  0  0  0  0  0  0
  184.5050  177.9790  140.4150 C   0  0  0  0  0  3  0  0  0  0  0  0
  184.0620  178.2630  141.8080 C   0  0  0  0  0  0  0  0  0  0  0  0
  182.3940  178.9520  143.4610 C   0  0  0  0  0  0  0  0  0  0  0  0
  182.8170  179.3490  139.1890 C   0  0  0  0  0  3  0  0  0  0  0  0
  181.7720  179.3190  140.0110 C   0  0  0  0  0  3  0  0  0  0  0  0
  185.8790  177.7000  137.8650 C   0  0  0  0  0  3  0  0  0  0  0  0
  184.6170  178.1200  137.9800 C   0  0  0  0  0  3  0  0  0  0  0  0
  185.8540  177.6590  135.5260 O   0  0  0  0  0  0  0  0  0  0  0  0
  186.5030  177.3790  136.5700 C   0  0  0  0  0  0  0  0  0  0  0  0
  190.3210  176.7490  136.8340 C   0  0  0  0  0  1  0  0  0  0  0  0
  189.0540  177.4730  136.8200 N   0  0  0  0  0  0  0  0  0  0  0  0
  187.8540  176.7670  136.4560 C   0  0  0  0  0  0  0  0  0  0  0  0
  187.9490  175.5780  136.0420 O   0  0  0  0  0  0  0  0  0  0  0  0
  189.0390  178.9150  137.0780 C   0  0  0  0  0  2  0  0  0  0  0  0
  189.0480  179.1910  138.4460 O   0  0  0  0  0  1  0  0  0  0  0  0
  186.4730  177.9010  142.5230 C   0  0  1  0  0  3  0  0  0  0  0  0
  187.1600  178.9040  141.6090 C   0  0  0  0  0  1  0  0  0  0  0  0
  187.2220  177.7750  143.7650 N   0  0  0  0  0  2  0  0  0  0  0  0
  188.8850  176.0190  143.4760 C   0  0  0  0  0  1  0  0  0  0  0  0
  188.6150  177.5150  143.4280 C   0  0  2  0  0  3  0  0  0  0  0  0
  191.7600  177.7620  144.5770 N   0  0  0  0  0  2  0  0  0  0  0  0
  191.1760  179.8890  143.9260 C   0  0  0  0  0  1  0  0  0  0  0  0
  190.8610  178.4800  143.7670 N   0  0  0  0  0  0  0  0  0  0  0  0
  188.7650  176.9730  146.5720 C   0  0  0  0  0  1  0  0  0  0  0  0
  189.5460  178.2490  144.3910 C   0  0  2  0  0  3  0  0  0  0  0  0
  191.0990  177.1380  145.6560 C   0  0  0  0  0  0  0  0  0  0  0  0
  189.8110  177.4100  145.6030 C   0  0  0  0  0  0  0  0  0  0  0  0
  192.1930  175.1440  146.3110 O   0  0  0  0  0  0  0  0  0  0  0  0
  192.0400  176.7530  147.9660 N   0  0  0  0  0  1  0  0  0  0  0  0
  191.8040  176.2960  146.6410 C   0  0  0  0  0  0  0  0  0  0  0  0
  1  8  1  0  0  0  0
  2 11  2  0  0  0  0
  5  9  2  0  0  0  0
  7  3  1  1  0  0  0
  7  2  1  0  0  0  0
  8  4  2  0  0  0  0
  9 10  1  0  0  0  0
 10  2  1  0  0  0  0
 10  1  2  0  0  0  0
 11  6  1  0  0  0  0
 11  4  1  0  0  0  0
 12  5  1  0  0  0  0
 12 13  2  0  0  0  0
 13  7  1  0  0  0  0
 14 15  2  0  0  0  0
 15  5  1  0  0  0  0
 16 17  2  0  0  0  0
 17 14  1  0  0  0  0
 19 18  1  0  0  0  0
 19 22  1  0  0  0  0
 20 17  1  0  0  0  0
 20 19  1  0  0  0  0
 21 20  2  0  0  0  0
 22 23  1  0  0  0  0
 24 25  1  6  0  0  0
 24  1  1  0  0  0  0
 24 26  1  0  0  0  0
 28 27  1  1  0  0  0
 28 26  1  0  0  0  0
 29 34  1  0  0  0  0
 31 30  1  0  0  0  0
 31 33  1  0  0  0  0
 31 29  1  0  0  0  0
 33 28  1  6  0  0  0
 33 35  1  0  0  0  0
 34 38  1  0  0  0  0
 35 34  2  0  0  0  0
 35 32  1  0  0  0  0
 36 38  2  0  0  0  0
 38 37  1  0  0  0  0
M  END
>  <MODEL>
3

>  <REMARK>
 VINA RESULT:      -8.6      2.615      7.326
  Name = 
  9 active torsions:
  status: ('A' for Active; 'I' for Inactive)
    1  A    between atoms: C_2  and  C_26
    2  A    between atoms: C_3  and  C_4
    3  A    between atoms: C_3  and  N_34
    4  A    between atoms: C_7  and  N_11
    5  A    between atoms: C_19  and  C_20
    6  A    between atoms: C_21  and  C_26
    7  A    between atoms: C_23  and  C_37
    8  A    between atoms: N_34  and  C_37
    9  A    between atoms: C_35  and  C_36
                            x       y       z     vdW  Elec       q    Type
                         _______ _______ _______ _____ _____    ______ ____

>  <TORSDO>
F 9

$$$$
=
 OpenBabel11042410453D

 38 40  0  0  1  0  0  0  0  0999 V2000
  185.4910  178.6540  144.1250 C   0  0  0  0  0  0  0  0  0  0  0  0
  187.6050  177.9540  145.1390 C   0  0  0  0  0  0  0  0  0  0  0  0
  189.8290  177.7800  146.1400 O   0  0  0  0  0  1  0  0  0  0  0  0
  185.6080  178.2300  146.5050 C   0  0  0  0  0  3  0  0  0  0  0  0
  188.3500  177.3510  142.1380 C   0  0  0  0  0  0  0  0  0  0  0  0
  187.6280  177.4330  147.6500 C   0  0  0  0  0  1  0  0  0  0  0  0
  189.0890  177.7230  144.9590 C   0  0  1  0  0  3  0  0  0  0  0  0
  184.8880  178.6340  145.3860 C   0  0  0  0  0  3  0  0  0  0  0  0
  187.4020  178.1870  142.6050 C   0  0  0  0  0  3  0  0  0  0  0  0
  186.8450  178.2670  143.9830 C   0  0  0  0  0  0  0  0  0  0  0  0
  186.9530  177.8830  146.3980 C   0  0  0  0  0  0  0  0  0  0  0  0
  189.0180  176.3170  142.9520 C   0  0  0  0  0  3  0  0  0  0  0  0
  189.3410  176.4520  144.2360 C   0  0  0  0  0  3  0  0  0  0  0  0
  188.6930  178.4560  139.9510 C   0  0  0  0  0  3  0  0  0  0  0  0
  188.7010  177.3580  140.7110 C   0  0  0  0  0  3  0  0  0  0  0  0
  188.9220  179.5220  137.8810 O   0  0  0  0  0  0  0  0  0  0  0  0
  189.0570  178.4460  138.5230 C   0  0  0  0  0  0  0  0  0  0  0  0
  189.3410  175.2520  136.3410 C   0  0  0  0  0  1  0  0  0  0  0  0
  188.7290  176.3210  137.1240 N   0  0  0  0  0  0  0  0  0  0  0  0
  189.5830  177.2370  137.8340 C   0  0  0  0  0  0  0  0  0  0  0  0
  190.8260  177.0180  137.8570 O   0  0  0  0  0  0  0  0  0  0  0  0
  187.2720  176.3830  137.2560 C   0  0  0  0  0  2  0  0  0  0  0  0
  186.6960  177.1260  136.2240 O   0  0  0  0  0  1  0  0  0  0  0  0
  184.6940  179.1240  142.9360 C   0  0  1  0  0  3  0  0  0  0  0  0
  185.5790  179.3760  141.7260 C   0  0  0  0  0  1  0  0  0  0  0  0
  183.6740  178.1390  142.6030 N   0  0  0  0  0  2  0  0  0  0  0  0
  181.4880  178.6110  143.5660 C   0  0  0  0  0  1  0  0  0  0  0  0
  182.4190  178.8450  142.3860 C   0  0  2  0  0  3  0  0  0  0  0  0
  182.7110  178.6500  139.0470 N   0  0  0  0  0  2  0  0  0  0  0  0
  182.2690  176.5050  139.7500 C   0  0  0  0  0  1  0  0  0  0  0  0
  182.7560  177.8070  140.1730 N   0  0  0  0  0  0  0  0  0  0  0  0
  180.0440  180.3830  140.9050 C   0  0  0  0  0  1  0  0  0  0  0  0
  181.7560  178.3760  141.0920 C   0  0  2  0  0  3  0  0  0  0  0  0
  181.7450  179.6660  139.2000 C   0  0  0  0  0  0  0  0  0  0  0  0
  181.1470  179.5350  140.3670 C   0  0  0  0  0  0  0  0  0  0  0  0
  181.9150  181.8820  138.3850 O   0  0  0  0  0  0  0  0  0  0  0  0
  180.8310  180.4070  136.9670 N   0  0  0  0  0  1  0  0  0  0  0  0
  181.5150  180.7050  138.1780 C   0  0  0  0  0  0  0  0  0  0  0  0
  1  8  1  0  0  0  0
  2 11  2  0  0  0  0
  5  9  2  0  0  0  0
  5 12  1  0  0  0  0
  7  2  1  0  0  0  0
  7  3  1  1  0  0  0
  8  4  2  0  0  0  0
  9 10  1  0  0  0  0
 10  1  2  0  0  0  0
 10  2  1  0  0  0  0
 11  4  1  0  0  0  0
 11  6  1  0  0  0  0
 12 13  2  0  0  0  0
 13  7  1  0  0  0  0
 14 15  2  0  0  0  0
 15  5  1  0  0  0  0
 16 17  2  0  0  0  0
 17 14  1  0  0  0  0
 18 19  1  0  0  0  0
 19 22  1  0  0  0  0
 19 20  1  0  0  0  0
 20 21  2  0  0  0  0
 20 17  1  0  0  0  0
 23 22  1  0  0  0  0
 24 25  1  6  0  0  0
 24  1  1  0  0  0  0
 26 24  1  0  0  0  0
 28 26  1  0  0  0  0
 28 27  1  1  0  0  0
 29 34  1  0  0  0  0
 29 31  1  0  0  0  0
 30 31  1  0  0  0  0
 31 33  1  0  0  0  0
 33 28  1  1  0  0  0
 34 35  2  0  0  0  0
 35 32  1  0  0  0  0
 35 33  1  0  0  0  0
 37 38  1  0  0  0  0
 38 36  2  0  0  0  0
 38 34  1  0  0  0  0
M  END
>  <MODEL>
4

>  <REMARK>
 VINA RESULT:      -8.4      2.108      6.121
  Name = 
  9 active torsions:
  status: ('A' for Active; 'I' for Inactive)
    1  A    between atoms: C_2  and  C_26
    2  A    between atoms: C_3  and  C_4
    3  A    between atoms: C_3  and  N_34
    4  A    between atoms: C_7  and  N_11
    5  A    between atoms: C_19  and  C_20
    6  A    between atoms: C_21  and  C_26
    7  A    between atoms: C_23  and  C_37
    8  A    between atoms: N_34  and  C_37
    9  A    between atoms: C_35  and  C_36
                            x       y       z     vdW  Elec       q    Type
                         _______ _______ _______ _____ _____    ______ ____

>  <TORSDO>
F 9

$$$$
=
 OpenBabel11042410453D

 38 40  0  0  1  0  0  0  0  0999 V2000
  185.3320  178.6250  143.7470 C   0  0  0  0  0  0  0  0  0  0  0  0
  187.3520  177.9900  144.9730 C   0  0  0  0  0  0  0  0  0  0  0  0
  189.4760  177.8830  146.1810 O   0  0  0  0  0  1  0  0  0  0  0  0
  185.2330  178.2770  146.1400 C   0  0  0  0  0  3  0  0  0  0  0  0
  188.3790  177.3050  142.0760 C   0  0  0  0  0  0  0  0  0  0  0  0
  187.1490  177.5490  147.4920 C   0  0  0  0  0  1  0  0  0  0  0  0
  188.8490  177.7780  144.9390 C   0  0  1  0  0  3  0  0  0  0  0  0
  184.6150  178.6340  144.9460 C   0  0  0  0  0  3  0  0  0  0  0  0
  187.3820  178.1400  142.4250 C   0  0  0  0  0  3  0  0  0  0  0  0
  186.6980  178.2550  143.7430 C   0  0  0  0  0  0  0  0  0  0  0  0
  186.5870  177.9490  146.1690 C   0  0  0  0  0  0  0  0  0  0  0  0
  188.9820  176.3080  142.9810 C   0  0  0  0  0  3  0  0  0  0  0  0
  189.1830  176.4890  144.2840 C   0  0  0  0  0  3  0  0  0  0  0  0
  188.7530  178.3000  139.8410 C   0  0  0  0  0  3  0  0  0  0  0  0
  188.8620  177.2730  140.6870 C   0  0  0  0  0  3  0  0  0  0  0  0
  188.9720  179.2270  137.7040 O   0  0  0  0  0  0  0  0  0  0  0  0
  189.2500  178.2530  138.4540 C   0  0  0  0  0  0  0  0  0  0  0  0
  190.3870  175.0750  136.5440 C   0  0  0  0  0  1  0  0  0  0  0  0
  189.4950  176.0530  137.1580 N   0  0  0  0  0  0  0  0  0  0  0  0
  190.0670  177.1270  137.9290 C   0  0  0  0  0  0  0  0  0  0  0  0
  191.3090  177.1220  138.1520 O   0  0  0  0  0  0  0  0  0  0  0  0
  188.0450  175.8730  137.0670 C   0  0  0  0  0  2  0  0  0  0  0  0
  187.5470  176.3360  135.8480 O   0  0  0  0  0  1  0  0  0  0  0  0
  184.6420  179.0440  142.4750 C   0  0  1  0  0  3  0  0  0  0  0  0
  185.6300  179.2400  141.3350 C   0  0  0  0  0  1  0  0  0  0  0  0
  183.6480  178.0490  142.0990 N   0  0  0  0  0  2  0  0  0  0  0  0
  181.3510  178.6320  142.6550 C   0  0  0  0  0  1  0  0  0  0  0  0
  182.4640  178.7500  141.6250 C   0  0  2  0  0  3  0  0  0  0  0  0
  183.0710  176.4670  139.2390 N   0  0  0  0  0  2  0  0  0  0  0  0
  180.8710  176.1590  139.8370 C   0  0  0  0  0  1  0  0  0  0  0  0
  182.1430  176.7140  140.2680 N   0  0  0  0  0  0  0  0  0  0  0  0
  182.9960  180.1230  138.7900 C   0  0  0  0  0  1  0  0  0  0  0  0
  182.0020  178.1810  140.2850 C   0  0  2  0  0  3  0  0  0  0  0  0
  183.4810  177.6640  138.6140 C   0  0  0  0  0  0  0  0  0  0  0  0
  182.8700  178.6870  139.1750 C   0  0  0  0  0  0  0  0  0  0  0  0
  185.5920  178.2410  137.7120 O   0  0  0  0  0  0  0  0  0  0  0  0
  184.1870  177.1220  136.2520 N   0  0  0  0  0  1  0  0  0  0  0  0
  184.4740  177.6910  137.5240 C   0  0  0  0  0  0  0  0  0  0  0  0
  1  8  1  0  0  0  0
  2 11  2  0  0  0  0
  4 11  1  0  0  0  0
  5  9  2  0  0  0  0
  5 12  1  0  0  0  0
  7  2  1  0  0  0  0
  7  3  1  1  0  0  0
  8  4  2  0  0  0  0
  9 10  1  0  0  0  0
 10  1  2  0  0  0  0
 10  2  1  0  0  0  0
 11  6  1  0  0  0  0
 12 13  2  0  0  0  0
 13  7  1  0  0  0  0
 14 15  2  0  0  0  0
 15  5  1  0  0  0  0
 16 17  2  0  0  0  0
 17 14  1  0  0  0  0
 18 19  1  0  0  0  0
 19 20  1  0  0  0  0
 20 21  2  0  0  0  0
 20 17  1  0  0  0  0
 22 19  1  0  0  0  0
 23 22  1  0  0  0  0
 24 25  1  6  0  0  0
 24  1  1  0  0  0  0
 26 24  1  0  0  0  0
 28 26  1  0  0  0  0
 28 27  1  1  0  0  0
 29 31  1  0  0  0  0
 30 31  1  0  0  0  0
 31 33  1  0  0  0  0
 32 35  1  0  0  0  0
 33 28  1  1  0  0  0
 34 35  2  0  0  0  0
 34 29  1  0  0  0  0
 35 33  1  0  0  0  0
 37 38  1  0  0  0  0
 38 36  2  0  0  0  0
 38 34  1  0  0  0  0
M  END
>  <MODEL>
5

>  <REMARK>
 VINA RESULT:      -8.3      2.156      5.907
  Name = 
  9 active torsions:
  status: ('A' for Active; 'I' for Inactive)
    1  A    between atoms: C_2  and  C_26
    2  A    between atoms: C_3  and  C_4
    3  A    between atoms: C_3  and  N_34
    4  A    between atoms: C_7  and  N_11
    5  A    between atoms: C_19  and  C_20
    6  A    between atoms: C_21  and  C_26
    7  A    between atoms: C_23  and  C_37
    8  A    between atoms: N_34  and  C_37
    9  A    between atoms: C_35  and  C_36
                            x       y       z     vdW  Elec       q    Type
                         _______ _______ _______ _____ _____    ______ ____

>  <TORSDO>
F 9

$$$$
=
 OpenBabel11042410453D

 38 40  0  0  1  0  0  0  0  0999 V2000
  189.2190  177.2120  141.7150 C   0  0  0  0  0  0  0  0  0  0  0  0
  187.7140  177.7420  139.8590 C   0  0  0  0  0  0  0  0  0  0  0  0
  186.0630  177.7560  138.0560 O   0  0  0  0  0  1  0  0  0  0  0  0
  187.1120  178.3230  142.1470 C   0  0  0  0  0  3  0  0  0  0  0  0
  190.3150  177.2120  138.1630 C   0  0  0  0  0  0  0  0  0  0  0  0
  185.5440  179.0030  140.3850 C   0  0  0  0  0  1  0  0  0  0  0  0
  187.4090  177.5930  138.3860 C   0  0  1  0  0  3  0  0  0  0  0  0
  188.2900  177.7490  142.6120 C   0  0  0  0  0  3  0  0  0  0  0  0
  190.0340  176.7780  139.4070 C   0  0  0  0  0  3  0  0  0  0  0  0
  188.9600  177.2480  140.3250 C   0  0  0  0  0  0  0  0  0  0  0  0
  186.8160  178.3340  140.7850 C   0  0  0  0  0  0  0  0  0  0  0  0
  189.5760  178.2870  137.4730 C   0  0  0  0  0  3  0  0  0  0  0  0
  188.2660  178.4950  137.5760 C   0  0  0  0  0  3  0  0  0  0  0  0
  192.5550  176.1650  138.0530 C   0  0  0  0  0  3  0  0  0  0  0  0
  191.4860  176.6880  137.4460 C   0  0  0  0  0  3  0  0  0  0  0  0
  194.4210  176.4590  136.6730 O   0  0  0  0  0  0  0  0  0  0  0  0
  193.7170  175.6360  137.3170 C   0  0  0  0  0  0  0  0  0  0  0  0
  195.1890  172.1930  138.3290 C   0  0  0  0  0  1  0  0  0  0  0  0
  195.0030  173.6400  138.2870 N   0  0  0  0  0  0  0  0  0  0  0  0
  194.0880  174.1960  137.3250 C   0  0  0  0  0  0  0  0  0  0  0  0
  193.5670  173.4290  136.4680 O   0  0  0  0  0  0  0  0  0  0  0  0
  195.8170  174.5020  139.1470 C   0  0  0  0  0  2  0  0  0  0  0  0
  197.0050  174.8790  138.5180 O   0  0  0  0  0  1  0  0  0  0  0  0
  190.4720  176.5710  142.2510 C   0  0  1  0  0  3  0  0  0  0  0  0
  191.6800  177.4830  142.1040 C   0  0  0  0  0  1  0  0  0  0  0  0
  190.2890  176.2190  143.6520 N   0  0  0  0  0  2  0  0  0  0  0  0
  192.0560  174.6930  144.3430 C   0  0  0  0  0  1  0  0  0  0  0  0
  191.6030  176.1430  144.2740 C   0  0  2  0  0  3  0  0  0  0  0  0
  190.1660  176.0140  147.3060 N   0  0  0  0  0  2  0  0  0  0  0  0
  192.4300  175.8840  147.6940 C   0  0  0  0  0  1  0  0  0  0  0  0
  191.3930  175.7000  146.6930 N   0  0  0  0  0  0  0  0  0  0  0  0
  190.1800  178.9040  145.0210 C   0  0  0  0  0  1  0  0  0  0  0  0
  191.5700  176.7510  145.6760 C   0  0  2  0  0  3  0  0  0  0  0  0
  189.6000  177.1860  146.7610 C   0  0  0  0  0  0  0  0  0  0  0  0
  190.3920  177.6630  145.8220 C   0  0  0  0  0  0  0  0  0  0  0  0
  187.3040  177.6580  146.4310 O   0  0  0  0  0  0  0  0  0  0  0  0
  188.1470  178.3250  148.4810 N   0  0  0  0  0  1  0  0  0  0  0  0
  188.2990  177.7210  147.2030 C   0  0  0  0  0  0  0  0  0  0  0  0
  1 24  1  0  0  0  0
  1  8  1  0  0  0  0
  2 10  1  0  0  0  0
  2 11  2  0  0  0  0
  4  8  2  0  0  0  0
  5  9  2  0  0  0  0
  6 11  1  0  0  0  0
  7  3  1  1  0  0  0
  7  2  1  0  0  0  0
  9 10  1  0  0  0  0
 10  1  2  0  0  0  0
 11  4  1  0  0  0  0
 12 13  2  0  0  0  0
 12  5  1  0  0  0  0
 13  7  1  0  0  0  0
 15 14  2  0  0  0  0
 15  5  1  0  0  0  0
 16 17  2  0  0  0  0
 17 20  1  0  0  0  0
 17 14  1  0  0  0  0
 19 18  1  0  0  0  0
 19 22  1  0  0  0  0
 20 19  1  0  0  0  0
 21 20  2  0  0  0  0
 23 22  1  0  0  0  0
 24 25  1  1  0  0  0
 24 26  1  0  0  0  0
 26 28  1  0  0  0  0
 28 27  1  1  0  0  0
 31 29  1  0  0  0  0
 31 30  1  0  0  0  0
 32 35  1  0  0  0  0
 33 28  1  6  0  0  0
 33 35  1  0  0  0  0
 33 31  1  0  0  0  0
 34 38  1  0  0  0  0
 34 29  1  0  0  0  0
 35 34  2  0  0  0  0
 36 38  2  0  0  0  0
 38 37  1  0  0  0  0
M  END
>  <MODEL>
6

>  <REMARK>
 VINA RESULT:      -8.0      4.506      9.568
  Name = 
  9 active torsions:
  status: ('A' for Active; 'I' for Inactive)
    1  A    between atoms: C_2  and  C_26
    2  A    between atoms: C_3  and  C_4
    3  A    between atoms: C_3  and  N_34
    4  A    between atoms: C_7  and  N_11
    5  A    between atoms: C_19  and  C_20
    6  A    between atoms: C_21  and  C_26
    7  A    between atoms: C_23  and  C_37
    8  A    between atoms: N_34  and  C_37
    9  A    between atoms: C_35  and  C_36
                            x       y       z     vdW  Elec       q    Type
                         _______ _______ _______ _____ _____    ______ ____

>  <TORSDO>
F 9

$$$$
=
 OpenBabel11042410453D

 38 40  0  0  1  0  0  0  0  0999 V2000
  183.1900  178.9100  143.0930 C   0  0  0  0  0  0  0  0  0  0  0  0
  181.6710  178.2880  141.2790 C   0  0  0  0  0  0  0  0  0  0  0  0
  180.2990  177.1650  139.5950 O   0  0  0  0  0  1  0  0  0  0  0  0
  180.8070  178.7940  143.5000 C   0  0  0  0  0  3  0  0  0  0  0  0
  184.1890  178.9650  139.5130 C   0  0  0  0  0  0  0  0  0  0  0  0
  179.1520  178.2770  141.7620 C   0  0  0  0  0  1  0  0  0  0  0  0
  181.5200  177.7860  139.8610 C   0  0  1  0  0  3  0  0  0  0  0  0
  182.1010  179.0020  143.9650 C   0  0  0  0  0  3  0  0  0  0  0  0
  184.1570  178.6370  140.8190 C   0  0  0  0  0  3  0  0  0  0  0  0
  182.9800  178.5990  141.7290 C   0  0  0  0  0  0  0  0  0  0  0  0
  180.5770  178.4460  142.1700 C   0  0  0  0  0  0  0  0  0  0  0  0
  183.0070  179.3740  138.7310 C   0  0  0  0  0  3  0  0  0  0  0  0
  181.7840  178.8730  138.8860 C   0  0  0  0  0  3  0  0  0  0  0  0
  185.8820  178.1300  137.9130 C   0  0  0  0  0  3  0  0  0  0  0  0
  185.4750  179.0380  138.8030 C   0  0  0  0  0  3  0  0  0  0  0  0
  187.5670  179.3710  136.8650 O   0  0  0  0  0  0  0  0  0  0  0  0
  187.1710  178.2230  137.2040 C   0  0  0  0  0  0  0  0  0  0  0  0
  189.5600  175.1860  137.5460 C   0  0  0  0  0  1  0  0  0  0  0  0
  188.8950  176.4440  137.8710 N   0  0  0  0  0  0  0  0  0  0  0  0
  188.0110  177.0340  136.8990 C   0  0  0  0  0  0  0  0  0  0  0  0
  187.9310  176.5110  135.7530 O   0  0  0  0  0  0  0  0  0  0  0  0
  189.2120  177.1310  139.1250 C   0  0  0  0  0  2  0  0  0  0  0  0
  190.5550  177.5070  139.1780 O   0  0  0  0  0  1  0  0  0  0  0  0
  184.5820  179.1130  143.6330 C   0  0  1  0  0  3  0  0  0  0  0  0
  184.5640  179.5770  145.0810 C   0  0  0  0  0  1  0  0  0  0  0  0
  185.3410  177.8760  143.5220 N   0  0  0  0  0  2  0  0  0  0  0  0
  187.4570  177.9290  142.3180 C   0  0  0  0  0  1  0  0  0  0  0  0
  186.7550  178.2020  143.6400 C   0  0  2  0  0  3  0  0  0  0  0  0
  189.0090  178.2300  146.1290 N   0  0  0  0  0  2  0  0  0  0  0  0
  187.0470  177.5040  147.0860 C   0  0  0  0  0  1  0  0  0  0  0  0
  187.6130  178.2180  145.9540 N   0  0  0  0  0  0  0  0  0  0  0  0
  189.0290  176.0030  143.1950 C   0  0  0  0  0  1  0  0  0  0  0  0
  187.4040  177.3850  144.7570 C   0  0  2  0  0  3  0  0  0  0  0  0
  189.6590  177.4490  145.1510 C   0  0  0  0  0  0  0  0  0  0  0  0
  188.7650  176.9200  144.3420 C   0  0  0  0  0  0  0  0  0  0  0  0
  191.7580  177.8400  144.1300 O   0  0  0  0  0  0  0  0  0  0  0  0
  191.8450  176.5900  146.0760 N   0  0  0  0  0  1  0  0  0  0  0  0
  191.1270  177.3160  145.0860 C   0  0  0  0  0  0  0  0  0  0  0  0
  1 24  1  0  0  0  0
  1  8  1  0  0  0  0
  2 10  1  0  0  0  0
  2 11  2  0  0  0  0
  4  8  2  0  0  0  0
  5  9  2  0  0  0  0
  6 11  1  0  0  0  0
  7  3  1  1  0  0  0
  7  2  1  0  0  0  0
  9 10  1  0  0  0  0
 10  1  2  0  0  0  0
 11  4  1  0  0  0  0
 12 13  2  0  0  0  0
 12  5  1  0  0  0  0
 13  7  1  0  0  0  0
 14 15  2  0  0  0  0
 15  5  1  0  0  0  0
 16 17  2  0  0  0  0
 17 14  1  0  0  0  0
 18 19  1  0  0  0  0
 19 22  1  0  0  0  0
 20 17  1  0  0  0  0
 20 19  1  0  0  0  0
 21 20  2  0  0  0  0
 22 23  1  0  0  0  0
 24 25  1  1  0  0  0
 26 24  1  0  0  0  0
 26 28  1  0  0  0  0
 28 27  1  6  0  0  0
 31 29  1  0  0  0  0
 31 30  1  0  0  0  0
 32 35  1  0  0  0  0
 33 28  1  6  0  0  0
 33 31  1  0  0  0  0
 34 29  1  0  0  0  0
 35 33  1  0  0  0  0
 35 34  2  0  0  0  0
 36 38  2  0  0  0  0
 38 34  1  0  0  0  0
 38 37  1  0  0  0  0
M  END
>  <MODEL>
7

>  <REMARK>
 VINA RESULT:      -7.9      2.773      7.681
  Name = 
  9 active torsions:
  status: ('A' for Active; 'I' for Inactive)
    1  A    between atoms: C_2  and  C_26
    2  A    between atoms: C_3  and  C_4
    3  A    between atoms: C_3  and  N_34
    4  A    between atoms: C_7  and  N_11
    5  A    between atoms: C_19  and  C_20
    6  A    between atoms: C_21  and  C_26
    7  A    between atoms: C_23  and  C_37
    8  A    between atoms: N_34  and  C_37
    9  A    between atoms: C_35  and  C_36
                            x       y       z     vdW  Elec       q    Type
                         _______ _______ _______ _____ _____    ______ ____

>  <TORSDO>
F 9

$$$$
=
 OpenBabel11042410453D

 38 40  0  0  1  0  0  0  0  0999 V2000
  184.3710  178.8010  142.5690 C   0  0  0  0  0  0  0  0  0  0  0  0
  185.7670  178.3930  144.5370 C   0  0  0  0  0  0  0  0  0  0  0  0
  187.2510  178.5150  146.4760 O   0  0  0  0  0  1  0  0  0  0  0  0
  183.3540  178.6380  144.7590 C   0  0  0  0  0  3  0  0  0  0  0  0
  187.8640  177.5480  142.3440 C   0  0  0  0  0  0  0  0  0  0  0  0
  184.6070  178.1400  146.8110 C   0  0  0  0  0  1  0  0  0  0  0  0
  187.1630  178.2730  145.1050 C   0  0  1  0  0  3  0  0  0  0  0  0
  183.2420  178.8600  143.3910 C   0  0  0  0  0  3  0  0  0  0  0  0
  186.7870  178.3440  142.1980 C   0  0  0  0  0  3  0  0  0  0  0  0
  185.6390  178.5190  143.1300 C   0  0  0  0  0  0  0  0  0  0  0  0
  184.5970  178.3980  145.3410 C   0  0  0  0  0  0  0  0  0  0  0  0
  188.0910  176.6650  143.5040 C   0  0  0  0  0  3  0  0  0  0  0  0
  187.7620  176.9600  144.7590 C   0  0  0  0  0  3  0  0  0  0  0  0
  188.6960  177.9930  140.0560 C   0  0  0  0  0  3  0  0  0  0  0  0
  188.8510  177.4380  141.2600 C   0  0  0  0  0  3  0  0  0  0  0  0
  190.8570  177.4990  139.3090 O   0  0  0  0  0  0  0  0  0  0  0  0
  189.7010  177.8790  138.9840 C   0  0  0  0  0  0  0  0  0  0  0  0
  188.9710  177.4950  135.1940 C   0  0  0  0  0  1  0  0  0  0  0  0
  189.4410  177.1620  136.5350 N   0  0  0  0  0  0  0  0  0  0  0  0
  189.3950  178.1730  137.5580 C   0  0  0  0  0  0  0  0  0  0  0  0
  189.0650  179.3490  137.2380 O   0  0  0  0  0  0  0  0  0  0  0  0
  190.0400  175.8500  136.7900 C   0  0  0  0  0  2  0  0  0  0  0  0
  189.0850  174.9250  137.2150 O   0  0  0  0  0  1  0  0  0  0  0  0
  184.2220  179.0750  141.0950 C   0  0  1  0  0  3  0  0  0  0  0  0
  184.9230  178.0210  140.2520 C   0  0  0  0  0  1  0  0  0  0  0  0
  182.8120  179.1300  140.7410 N   0  0  0  0  0  2  0  0  0  0  0  0
  182.3000  180.3900  138.7210 C   0  0  0  0  0  1  0  0  0  0  0  0
  182.7060  179.0400  139.2920 C   0  0  2  0  0  3  0  0  0  0  0  0
  181.8210  175.8150  139.5970 N   0  0  0  0  0  2  0  0  0  0  0  0
  179.9500  177.0210  140.1750 C   0  0  0  0  0  1  0  0  0  0  0  0
  181.3940  177.0830  140.0310 N   0  0  0  0  0  0  0  0  0  0  0  0
  182.6370  177.5640  136.4600 C   0  0  0  0  0  1  0  0  0  0  0  0
  181.6870  177.9730  138.8930 C   0  0  2  0  0  3  0  0  0  0  0  0
  182.3220  175.8600  138.2790 C   0  0  0  0  0  0  0  0  0  0  0  0
  182.2450  177.0920  137.8190 C   0  0  0  0  0  0  0  0  0  0  0  0
  182.1380  174.0330  136.7860 O   0  0  0  0  0  0  0  0  0  0  0  0
  184.1900  174.2210  137.8390 N   0  0  0  0  0  1  0  0  0  0  0  0
  182.8640  174.6720  137.5930 C   0  0  0  0  0  0  0  0  0  0  0  0
  1 10  2  0  0  0  0
  1  8  1  0  0  0  0
  2  7  1  0  0  0  0
  2 11  2  0  0  0  0
  4 11  1  0  0  0  0
  5 12  1  0  0  0  0
  7  3  1  1  0  0  0
  8  4  2  0  0  0  0
  9  5  2  0  0  0  0
  9 10  1  0  0  0  0
 10  2  1  0  0  0  0
 11  6  1  0  0  0  0
 12 13  2  0  0  0  0
 13  7  1  0  0  0  0
 14 15  2  0  0  0  0
 15  5  1  0  0  0  0
 17 16  2  0  0  0  0
 17 14  1  0  0  0  0
 18 19  1  0  0  0  0
 19 22  1  0  0  0  0
 19 20  1  0  0  0  0
 20 17  1  0  0  0  0
 21 20  2  0  0  0  0
 22 23  1  0  0  0  0
 24 25  1  6  0  0  0
 24  1  1  0  0  0  0
 26 24  1  0  0  0  0
 28 27  1  1  0  0  0
 28 26  1  0  0  0  0
 29 31  1  0  0  0  0
 31 30  1  0  0  0  0
 32 35  1  0  0  0  0
 33 28  1  1  0  0  0
 33 31  1  0  0  0  0
 34 29  1  0  0  0  0
 35 34  2  0  0  0  0
 35 33  1  0  0  0  0
 36 38  2  0  0  0  0
 38 37  1  0  0  0  0
 38 34  1  0  0  0  0
M  END
>  <MODEL>
8

>  <REMARK>
 VINA RESULT:      -7.8      2.562      6.116
  Name = 
  9 active torsions:
  status: ('A' for Active; 'I' for Inactive)
    1  A    between atoms: C_2  and  C_26
    2  A    between atoms: C_3  and  C_4
    3  A    between atoms: C_3  and  N_34
    4  A    between atoms: C_7  and  N_11
    5  A    between atoms: C_19  and  C_20
    6  A    between atoms: C_21  and  C_26
    7  A    between atoms: C_23  and  C_37
    8  A    between atoms: N_34  and  C_37
    9  A    between atoms: C_35  and  C_36
                            x       y       z     vdW  Elec       q    Type
                         _______ _______ _______ _____ _____    ______ ____

>  <TORSDO>
F 9

$$$$
=
 OpenBabel11042410453D

 38 40  0  0  1  0  0  0  0  0999 V2000
  185.6350  178.6640  142.0610 C   0  0  0  0  0  0  0  0  0  0  0  0
  187.3330  178.0420  143.7090 C   0  0  0  0  0  0  0  0  0  0  0  0
  189.1180  177.9510  145.3790 O   0  0  0  0  0  1  0  0  0  0  0  0
  184.9910  178.2230  144.3520 C   0  0  0  0  0  3  0  0  0  0  0  0
  189.0360  177.4990  141.1160 C   0  0  0  0  0  0  0  0  0  0  0  0
  186.5620  177.4990  146.0940 C   0  0  0  0  0  1  0  0  0  0  0  0
  188.8040  177.8750  144.0210 C   0  0  1  0  0  3  0  0  0  0  0  0
  184.6570  178.6070  143.0580 C   0  0  0  0  0  3  0  0  0  0  0  0
  187.9540  178.2910  141.2460 C   0  0  0  0  0  3  0  0  0  0  0  0
  186.9760  178.3350  142.3680 C   0  0  0  0  0  0  0  0  0  0  0  0
  186.3120  177.9330  144.6890 C   0  0  0  0  0  0  0  0  0  0  0  0
  189.4460  176.4850  142.1060 C   0  0  0  0  0  3  0  0  0  0  0  0
  189.3300  176.6220  143.4250 C   0  0  0  0  0  3  0  0  0  0  0  0
  190.4970  176.4840  139.3950 C   0  0  0  0  0  3  0  0  0  0  0  0
  189.8310  177.5350  139.8790 C   0  0  0  0  0  3  0  0  0  0  0  0
  190.6920  176.9240  137.1060 O   0  0  0  0  0  0  0  0  0  0  0  0
  191.2820  176.5360  138.1490 C   0  0  0  0  0  0  0  0  0  0  0  0
  194.6440  174.8590  137.1850 C   0  0  0  0  0  1  0  0  0  0  0  0
  193.2040  175.0520  137.3220 N   0  0  0  0  0  0  0  0  0  0  0  0
  192.7230  176.1710  138.0900 C   0  0  0  0  0  0  0  0  0  0  0  0
  193.5560  176.8790  138.7200 O   0  0  0  0  0  0  0  0  0  0  0  0
  192.2820  174.0580  136.7680 C   0  0  0  0  0  2  0  0  0  0  0  0
  192.9380  172.8660  136.4580 O   0  0  0  0  0  1  0  0  0  0  0  0
  185.2470  179.1120  140.6760 C   0  0  1  0  0  3  0  0  0  0  0  0
  185.8830  178.2420  139.6030 C   0  0  0  0  0  1  0  0  0  0  0  0
  183.7980  179.0870  140.5350 N   0  0  0  0  0  2  0  0  0  0  0  0
  182.9810  180.4890  138.7190 C   0  0  0  0  0  1  0  0  0  0  0  0
  183.4830  179.1080  139.1140 C   0  0  2  0  0  3  0  0  0  0  0  0
  182.5180  175.9270  139.5860 N   0  0  0  0  0  2  0  0  0  0  0  0
  180.6890  177.2100  140.1320 C   0  0  0  0  0  1  0  0  0  0  0  0
  182.1320  177.2260  139.9640 N   0  0  0  0  0  0  0  0  0  0  0  0
  183.3310  177.5030  136.3570 C   0  0  0  0  0  1  0  0  0  0  0  0
  182.4300  178.0520  138.7810 C   0  0  2  0  0  3  0  0  0  0  0  0
  183.0000  175.8960  138.2600 C   0  0  0  0  0  0  0  0  0  0  0  0
  182.9480  177.1060  137.7430 C   0  0  0  0  0  0  0  0  0  0  0  0
  184.7390  174.4340  137.5960 O   0  0  0  0  0  0  0  0  0  0  0  0
  182.6090  173.7300  137.0240 N   0  0  0  0  0  1  0  0  0  0  0  0
  183.4990  174.6620  137.6240 C   0  0  0  0  0  0  0  0  0  0  0  0
  1 10  2  0  0  0  0
  1  8  1  0  0  0  0
  2  7  1  0  0  0  0
  2 11  2  0  0  0  0
  4 11  1  0  0  0  0
  5  9  2  0  0  0  0
  5 12  1  0  0  0  0
  7  3  1  1  0  0  0
  8  4  2  0  0  0  0
  9 10  1  0  0  0  0
 10  2  1  0  0  0  0
 11  6  1  0  0  0  0
 12 13  2  0  0  0  0
 13  7  1  0  0  0  0
 14 15  2  0  0  0  0
 15  5  1  0  0  0  0
 16 17  2  0  0  0  0
 17 14  1  0  0  0  0
 18 19  1  0  0  0  0
 19 20  1  0  0  0  0
 20 17  1  0  0  0  0
 20 21  2  0  0  0  0
 22 19  1  0  0  0  0
 23 22  1  0  0  0  0
 24 25  1  6  0  0  0
 24  1  1  0  0  0  0
 26 24  1  0  0  0  0
 28 27  1  1  0  0  0
 28 26  1  0  0  0  0
 29 31  1  0  0  0  0
 31 30  1  0  0  0  0
 32 35  1  0  0  0  0
 33 28  1  1  0  0  0
 33 31  1  0  0  0  0
 34 29  1  0  0  0  0
 35 34  2  0  0  0  0
 35 33  1  0  0  0  0
 36 38  2  0  0  0  0
 37 38  1  0  0  0  0
 38 34  1  0  0  0  0
M  END
>  <MODEL>
9

>  <REMARK>
 VINA RESULT:      -7.6      3.184      7.039
  Name = 
  9 active torsions:
  status: ('A' for Active; 'I' for Inactive)
    1  A    between atoms: C_2  and  C_26
    2  A    between atoms: C_3  and  C_4
    3  A    between atoms: C_3  and  N_34
    4  A    between atoms: C_7  and  N_11
    5  A    between atoms: C_19  and  C_20
    6  A    between atoms: C_21  and  C_26
    7  A    between atoms: C_23  and  C_37
    8  A    between atoms: N_34  and  C_37
    9  A    between atoms: C_35  and  C_36
                            x       y       z     vdW  Elec       q    Type
                         _______ _______ _______ _____ _____    ______ ____

>  <TORSDO>
F 9

$$$$
