=
 OpenBabel11032420203D

 32 36  0  0  1  0  0  0  0  0999 V2000
  178.9310  179.2470  138.7890 C   0  0  0  0  0  2  0  0  0  0  0  0
  181.2990  178.0000  141.2540 C   0  0  1  0  0  3  0  0  0  0  0  0
  180.9620  178.7590  143.5160 O   0  0  0  0  0  0  0  0  0  0  0  0
  185.5390  178.6870  143.6060 C   0  0  0  0  0  0  0  0  0  0  0  0
  182.7240  178.2890  137.2540 O   0  0  0  0  0  1  0  0  0  0  0  0
  180.3870  178.6930  136.7130 C   0  0  0  0  0  2  0  0  0  0  0  0
  181.4920  177.6710  137.0270 C   0  0  2  0  0  3  0  0  0  0  0  0
  180.0240  179.7050  137.8130 C   0  0  2  0  0  3  0  0  0  0  0  0
  179.3750  178.1890  139.6890 N   0  0  0  0  0  2  0  0  0  0  0  0
  180.0720  178.8090  140.8030 C   0  0  1  0  0  3  0  0  0  0  0  0
  180.1090  175.8400  137.8420 C   0  0  0  0  0  3  0  0  0  0  0  0
  183.9590  179.2450  144.2260 S   0  0  0  0  0  0  0  0  0  0  0  0
  181.9680  176.4780  139.3350 C   0  0  0  0  0  2  0  0  0  0  0  0
  183.7580  177.5030  140.6000 C   0  0  0  0  0  2  0  0  0  0  0  0
  183.2330  178.2960  142.8600 C   0  0  2  0  0  3  0  0  0  0  0  0
  179.1120  179.0040  141.9780 C   0  0  0  0  0  2  0  0  0  0  0  0
  181.1270  176.6760  138.0980 C   0  0  0  0  0  0  0  0  0  0  0  0
  185.5730  178.2760  142.1750 C   0  0  1  0  0  3  0  0  0  0  0  0
  182.3230  177.7490  140.1040 C   0  0  2  0  0  3  0  0  0  0  0  0
  178.9570  179.7590  144.3430 C   0  0  0  0  0  1  0  0  0  0  0  0
  186.5010  178.5410  144.3410 O   0  0  0  0  0  0  0  0  0  0  0  0
  179.8880  179.5980  143.1600 C   0  0  1  0  0  3  0  0  0  0  0  0
  184.1560  178.4870  141.6790 C   0  0  1  0  0  3  0  0  0  0  0  0
  186.4460  179.0990  141.4630 O   0  0  0  0  0  1  0  0  0  0  0  0
  181.8700  178.8070  142.4430 C   0  0  1  0  0  3  0  0  0  0  0  0
  181.2120  180.4250  138.4630 C   0  0  2  0  0  3  0  0  0  0  0  0
  180.7290  181.5620  139.2650 N   0  0  0  0  0  2  0  0  0  0  0  0
  181.4590  181.8110  138.0120 C   0  0  2  0  0  3  0  0  0  0  0  0
  180.9870  183.6180  136.4550 N   0  0  0  0  0  1  0  0  0  0  0  0
  180.4920  182.3520  136.9650 C   0  0  0  0  0  2  0  0  0  0  0  0
  179.6850  174.7520  138.7770 C   0  0  0  0  0  2  0  0  0  0  0  0
  179.3550  173.5060  137.9830 C   0  0  0  0  0  1  0  0  0  0  0  0
  1  9  1  0  0  0  0
  2 25  1  0  0  0  0
  4 12  1  0  0  0  0
  4 21  2  0  0  0  0
  6  7  1  0  0  0  0
  6  8  1  0  0  0  0
  7  5  1  0  0  0  0
  7 17  1  0  0  0  0
  8 26  1  0  0  0  0
  8  1  1  0  0  0  0
  9 10  1  0  0  0  0
 10  2  1  0  0  0  0
 10 16  1  0  0  0  0
 11 17  2  0  0  0  0
 11 31  1  0  0  0  0
 13 19  1  0  0  0  0
 14 23  1  0  0  0  0
 15 12  1  0  0  0  0
 16 22  1  0  0  0  0
 17 13  1  0  0  0  0
 18  4  1  0  0  0  0
 19 14  1  0  0  0  0
 19  2  1  0  0  0  0
 22  3  1  0  0  0  0
 22 20  1  0  0  0  0
 23 18  1  0  0  0  0
 23 15  1  0  0  0  0
 24 18  1  0  0  0  0
 25 15  1  0  0  0  0
 25  3  1  0  0  0  0
 26 27  1  0  0  0  0
 28 26  1  0  0  0  0
 28 27  1  0  0  0  0
 29 30  1  0  0  0  0
 30 28  1  0  0  0  0
 32 31  1  0  0  0  0
M  END
>  <MODEL>
1

>  <REMARK>
 VINA RESULT:      -5.9      0.000      0.000
  Name = 
  3 active torsions:
  status: ('A' for Active; 'I' for Inactive)
    1  A    between atoms: C_7  and  C_11
    2  A    between atoms: C_9  and  C_27
    3  A    between atoms: C_14  and  C_18
                            x       y       z     vdW  Elec       q    Type
                         _______ _______ _______ _____ _____    ______ ____

>  <TORSDO>
F 3

$$$$
=
 OpenBabel11032420203D

 32 36  0  0  1  0  0  0  0  0999 V2000
  179.4880  179.1240  139.6970 C   0  0  0  0  0  2  0  0  0  0  0  0
  182.8290  177.7330  140.0740 C   0  0  1  0  0  3  0  0  0  0  0  0
  183.9390  178.2110  142.1590 O   0  0  0  0  0  0  0  0  0  0  0  0
  187.6480  178.3730  139.4780 C   0  0  0  0  0  0  0  0  0  0  0  0
  181.5700  178.5500  136.0920 O   0  0  0  0  0  1  0  0  0  0  0  0
  179.3890  178.8880  137.1150 C   0  0  0  0  0  2  0  0  0  0  0  0
  180.4330  177.8980  136.5750 C   0  0  2  0  0  3  0  0  0  0  0  0
  179.7870  179.7480  138.3260 C   0  0  2  0  0  3  0  0  0  0  0  0
  180.3570  177.9960  140.0130 N   0  0  0  0  0  2  0  0  0  0  0  0
  181.5990  178.5220  140.5520 C   0  0  1  0  0  3  0  0  0  0  0  0
  179.7720  175.9150  137.8240 C   0  0  0  0  0  3  0  0  0  0  0  0
  186.7730  178.7720  140.9840 S   0  0  0  0  0  0  0  0  0  0  0  0
  182.1700  176.4760  137.9690 C   0  0  0  0  0  2  0  0  0  0  0  0
  184.3870  177.4450  138.0230 C   0  0  0  0  0  2  0  0  0  0  0  0
  185.3470  177.9470  140.2220 C   0  0  2  0  0  3  0  0  0  0  0  0
  181.5440  178.5310  142.0810 C   0  0  0  0  0  2  0  0  0  0  0  0
  180.7600  176.7700  137.5190 C   0  0  0  0  0  0  0  0  0  0  0  0
  186.8030  178.1300  138.2750 C   0  0  1  0  0  3  0  0  0  0  0  0
  182.9490  177.6690  138.5200 C   0  0  2  0  0  3  0  0  0  0  0  0
  182.8620  179.0030  144.1370 C   0  0  0  0  0  1  0  0  0  0  0  0
  188.8540  178.1960  139.4640 O   0  0  0  0  0  0  0  0  0  0  0  0
  182.8890  179.0270  142.6240 C   0  0  1  0  0  3  0  0  0  0  0  0
  185.3790  178.3200  138.7580 C   0  0  1  0  0  3  0  0  0  0  0  0
  187.0940  179.0730  137.2900 O   0  0  0  0  0  1  0  0  0  0  0  0
  184.0220  178.4290  140.7720 C   0  0  1  0  0  3  0  0  0  0  0  0
  181.1450  180.4520  138.2170 C   0  0  2  0  0  3  0  0  0  0  0  0
  181.1920  181.5950  139.1440 N   0  0  0  0  0  2  0  0  0  0  0  0
  181.1210  181.8340  137.6940 C   0  0  2  0  0  3  0  0  0  0  0  0
  179.6390  183.7580  137.8110 N   0  0  0  0  0  1  0  0  0  0  0  0
  179.7460  182.3890  137.3400 C   0  0  0  0  0  2  0  0  0  0  0  0
  179.9660  174.7070  138.6840 C   0  0  0  0  0  2  0  0  0  0  0  0
  178.9830  174.7450  139.8340 C   0  0  0  0  0  1  0  0  0  0  0  0
  1  9  1  0  0  0  0
  2 10  1  0  0  0  0
  2 25  1  0  0  0  0
  3 22  1  0  0  0  0
  4 12  1  0  0  0  0
  5  7  1  0  0  0  0
  6  8  1  0  0  0  0
  7  6  1  0  0  0  0
  7 17  1  0  0  0  0
  8  1  1  0  0  0  0
  9 10  1  0  0  0  0
 10 16  1  0  0  0  0
 11 31  1  0  0  0  0
 13 19  1  0  0  0  0
 14 19  1  0  0  0  0
 14 23  1  0  0  0  0
 15 25  1  0  0  0  0
 15 12  1  0  0  0  0
 16 22  1  0  0  0  0
 17 11  2  0  0  0  0
 17 13  1  0  0  0  0
 18 23  1  0  0  0  0
 18  4  1  0  0  0  0
 19  2  1  0  0  0  0
 21  4  2  0  0  0  0
 22 20  1  0  0  0  0
 23 15  1  0  0  0  0
 24 18  1  0  0  0  0
 25  3  1  0  0  0  0
 26  8  1  0  0  0  0
 26 27  1  0  0  0  0
 28 26  1  0  0  0  0
 28 27  1  0  0  0  0
 30 28  1  0  0  0  0
 30 29  1  0  0  0  0
 31 32  1  0  0  0  0
M  END
>  <MODEL>
2

>  <REMARK>
 VINA RESULT:      -5.3      1.949      2.579
  Name = 
  3 active torsions:
  status: ('A' for Active; 'I' for Inactive)
    1  A    between atoms: C_7  and  C_11
    2  A    between atoms: C_9  and  C_27
    3  A    between atoms: C_14  and  C_18
                            x       y       z     vdW  Elec       q    Type
                         _______ _______ _______ _____ _____    ______ ____

>  <TORSDO>
F 3

$$$$
=
 OpenBabel11032420203D

 32 36  0  0  1  0  0  0  0  0999 V2000
  182.0200  177.3710  136.4170 C   0  0  0  0  0  2  0  0  0  0  0  0
  182.9940  179.1260  139.4510 C   0  0  1  0  0  3  0  0  0  0  0  0
  185.3120  178.9320  140.0810 O   0  0  0  0  0  0  0  0  0  0  0  0
  183.5610  178.9450  144.3120 C   0  0  0  0  0  0  0  0  0  0  0  0
  178.9340  177.8710  139.2260 O   0  0  0  0  0  1  0  0  0  0  0  0
  179.4700  177.3900  136.9020 C   0  0  0  0  0  2  0  0  0  0  0  0
  179.0810  178.4380  137.9580 C   0  0  2  0  0  3  0  0  0  0  0  0
  180.8200  176.6750  137.0770 C   0  0  2  0  0  3  0  0  0  0  0  0
  182.4060  178.6040  137.0920 N   0  0  0  0  0  2  0  0  0  0  0  0
  183.2610  178.2550  138.2130 C   0  0  1  0  0  3  0  0  0  0  0  0
  179.9440  180.4340  136.8620 C   0  0  0  0  0  3  0  0  0  0  0  0
  184.8650  178.5770  143.1470 S   0  0  0  0  0  0  0  0  0  0  0  0
  180.6790  180.1380  139.1990 C   0  0  0  0  0  2  0  0  0  0  0  0
  181.3260  179.4110  141.4150 C   0  0  0  0  0  2  0  0  0  0  0  0
  183.7240  179.1870  141.8740 C   0  0  2  0  0  3  0  0  0  0  0  0
  184.7310  178.3600  137.8050 C   0  0  0  0  0  2  0  0  0  0  0  0
  179.9560  179.6650  137.9610 C   0  0  0  0  0  0  0  0  0  0  0  0
  182.1810  179.0030  143.7540 C   0  0  1  0  0  3  0  0  0  0  0  0
  181.5080  179.0790  139.9240 C   0  0  2  0  0  3  0  0  0  0  0  0
  187.0680  178.1920  138.6420 C   0  0  0  0  0  1  0  0  0  0  0  0
  183.8010  179.2440  145.4700 O   0  0  0  0  0  0  0  0  0  0  0  0
  185.6090  178.0510  139.0230 C   0  0  1  0  0  3  0  0  0  0  0  0
  182.3490  178.7050  142.2770 C   0  0  1  0  0  3  0  0  0  0  0  0
  181.3860  178.0200  144.3430 O   0  0  0  0  0  1  0  0  0  0  0  0
  184.0080  178.6150  140.5020 C   0  0  1  0  0  3  0  0  0  0  0  0
  181.0900  176.1090  138.4770 C   0  0  2  0  0  3  0  0  0  0  0  0
  182.1850  175.1270  138.4170 N   0  0  0  0  0  2  0  0  0  0  0  0
  180.8080  174.6700  138.6620 C   0  0  2  0  0  3  0  0  0  0  0  0
  180.3910  172.4970  137.6560 N   0  0  0  0  0  1  0  0  0  0  0  0
  180.2960  173.9280  137.4340 C   0  0  0  0  0  2  0  0  0  0  0  0
  180.7000  181.7200  136.7500 C   0  0  0  0  0  2  0  0  0  0  0  0
  180.4330  182.3450  135.3980 C   0  0  0  0  0  1  0  0  0  0  0  0
  1  8  1  0  0  0  0
  1  9  1  0  0  0  0
  2 19  1  0  0  0  0
  2 25  1  0  0  0  0
  3 25  1  0  0  0  0
  4 21  2  0  0  0  0
  6  8  1  0  0  0  0
  6  7  1  0  0  0  0
  7 17  1  0  0  0  0
  7  5  1  0  0  0  0
  8 26  1  0  0  0  0
  9 10  1  0  0  0  0
 10  2  1  0  0  0  0
 11 17  2  0  0  0  0
 12  4  1  0  0  0  0
 13 19  1  0  0  0  0
 14 23  1  0  0  0  0
 15 23  1  0  0  0  0
 15 12  1  0  0  0  0
 16 10  1  0  0  0  0
 16 22  1  0  0  0  0
 17 13  1  0  0  0  0
 18  4  1  0  0  0  0
 18 24  1  0  0  0  0
 19 14  1  0  0  0  0
 20 22  1  0  0  0  0
 22  3  1  0  0  0  0
 23 18  1  0  0  0  0
 25 15  1  0  0  0  0
 26 28  1  0  0  0  0
 27 26  1  0  0  0  0
 27 28  1  0  0  0  0
 30 29  1  0  0  0  0
 30 28  1  0  0  0  0
 31 11  1  0  0  0  0
 32 31  1  0  0  0  0
M  END
>  <MODEL>
3

>  <REMARK>
 VINA RESULT:      -5.3      2.307      5.368
  Name = 
  3 active torsions:
  status: ('A' for Active; 'I' for Inactive)
    1  A    between atoms: C_7  and  C_11
    2  A    between atoms: C_9  and  C_27
    3  A    between atoms: C_14  and  C_18
                            x       y       z     vdW  Elec       q    Type
                         _______ _______ _______ _____ _____    ______ ____

>  <TORSDO>
F 3

$$$$
=
 OpenBabel11032420203D

 32 36  0  0  1  0  0  0  0  0999 V2000
  182.6820  180.5090  138.7280 C   0  0  0  0  0  2  0  0  0  0  0  0
  182.7790  176.8750  138.8500 C   0  0  1  0  0  3  0  0  0  0  0  0
  184.3640  175.8130  137.3770 O   0  0  0  0  0  0  0  0  0  0  0  0
  181.0720  172.6470  137.0610 C   0  0  0  0  0  0  0  0  0  0  0  0
  179.0670  178.6920  139.8660 O   0  0  0  0  0  1  0  0  0  0  0  0
  180.3580  180.7540  139.8570 C   0  0  0  0  0  2  0  0  0  0  0  0
  179.9380  179.4860  140.6170 C   0  0  2  0  0  3  0  0  0  0  0  0
  181.1570  180.5700  138.5570 C   0  0  2  0  0  3  0  0  0  0  0  0
  183.1370  179.2800  139.3670 N   0  0  0  0  0  2  0  0  0  0  0  0
  183.2380  178.2520  138.3460 C   0  0  1  0  0  3  0  0  0  0  0  0
  181.8220  179.3070  142.1490 C   0  0  0  0  0  3  0  0  0  0  0  0
  182.5360  173.4660  136.4450 S   0  0  0  0  0  0  0  0  0  0  0  0
  181.3140  177.2460  140.8900 C   0  0  0  0  0  2  0  0  0  0  0  0
  180.6360  175.5050  139.3530 C   0  0  0  0  0  2  0  0  0  0  0  0
  182.3520  174.5820  137.8640 C   0  0  2  0  0  3  0  0  0  0  0  0
  184.6740  178.1680  137.8270 C   0  0  0  0  0  2  0  0  0  0  0  0
  181.0880  178.7060  141.2000 C   0  0  0  0  0  0  0  0  0  0  0  0
  180.1880  173.4610  137.9410 C   0  0  1  0  0  3  0  0  0  0  0  0
  181.3210  176.8800  139.4070 C   0  0  2  0  0  3  0  0  0  0  0  0
  186.1940  176.9140  136.3090 C   0  0  0  0  0  1  0  0  0  0  0  0
  180.8710  171.4600  136.8670 O   0  0  0  0  0  0  0  0  0  0  0  0
  184.7670  177.0340  136.8010 C   0  0  1  0  0  3  0  0  0  0  0  0
  180.8670  174.8130  138.0260 C   0  0  1  0  0  3  0  0  0  0  0  0
  178.9310  173.6030  137.3540 O   0  0  0  0  0  1  0  0  0  0  0  0
  182.9870  175.9370  137.6360 C   0  0  1  0  0  3  0  0  0  0  0  0
  180.5760  179.5530  137.5650 C   0  0  2  0  0  3  0  0  0  0  0  0
  181.1830  179.7470  136.2380 N   0  0  0  0  0  2  0  0  0  0  0  0
  179.7740  180.1110  136.4560 C   0  0  2  0  0  3  0  0  0  0  0  0
  180.2680  182.1550  135.2360 N   0  0  0  0  0  1  0  0  0  0  0  0
  179.6360  181.6290  136.4320 C   0  0  0  0  0  2  0  0  0  0  0  0
  182.9440  178.6300  142.8710 C   0  0  0  0  0  2  0  0  0  0  0  0
  182.8980  179.0050  144.3370 C   0  0  0  0  0  1  0  0  0  0  0  0
  1  9  1  0  0  0  0
  2 19  1  0  0  0  0
  3 25  1  0  0  0  0
  4 18  1  0  0  0  0
  5  7  1  0  0  0  0
  6  7  1  0  0  0  0
  7 17  1  0  0  0  0
  8  1  1  0  0  0  0
  8  6  1  0  0  0  0
 10  2  1  0  0  0  0
 10  9  1  0  0  0  0
 11 31  1  0  0  0  0
 12  4  1  0  0  0  0
 12 15  1  0  0  0  0
 13 17  1  0  0  0  0
 14 19  1  0  0  0  0
 15 23  1  0  0  0  0
 16 10  1  0  0  0  0
 17 11  2  0  0  0  0
 18 23  1  0  0  0  0
 19 13  1  0  0  0  0
 20 22  1  0  0  0  0
 21  4  2  0  0  0  0
 22  3  1  0  0  0  0
 22 16  1  0  0  0  0
 23 14  1  0  0  0  0
 24 18  1  0  0  0  0
 25 15  1  0  0  0  0
 25  2  1  0  0  0  0
 26  8  1  0  0  0  0
 27 28  1  0  0  0  0
 27 26  1  0  0  0  0
 28 26  1  0  0  0  0
 29 30  1  0  0  0  0
 30 28  1  0  0  0  0
 31 32  1  0  0  0  0
M  END
>  <MODEL>
4

>  <REMARK>
 VINA RESULT:      -5.1      3.154      6.259
  Name = 
  3 active torsions:
  status: ('A' for Active; 'I' for Inactive)
    1  A    between atoms: C_7  and  C_11
    2  A    between atoms: C_9  and  C_27
    3  A    between atoms: C_14  and  C_18
                            x       y       z     vdW  Elec       q    Type
                         _______ _______ _______ _____ _____    ______ ____

>  <TORSDO>
F 3

$$$$
=
 OpenBabel11032420203D

 32 36  0  0  1  0  0  0  0  0999 V2000
  180.7500  177.1350  136.5220 C   0  0  0  0  0  2  0  0  0  0  0  0
  183.8240  178.6380  137.7590 C   0  0  1  0  0  3  0  0  0  0  0  0
  185.8620  177.8630  136.7330 O   0  0  0  0  0  0  0  0  0  0  0  0
  187.5190  178.4120  140.9660 C   0  0  0  0  0  0  0  0  0  0  0  0
  180.5750  178.4720  140.5030 O   0  0  0  0  0  1  0  0  0  0  0  0
  179.2810  177.8230  138.5480 C   0  0  0  0  0  2  0  0  0  0  0  0
  179.9120  178.9560  139.3730 C   0  0  2  0  0  3  0  0  0  0  0  0
  180.2300  176.7860  137.9250 C   0  0  2  0  0  3  0  0  0  0  0  0
  181.7030  178.2390  136.5240 N   0  0  0  0  0  2  0  0  0  0  0  0
  183.0140  177.7020  136.8480 C   0  0  1  0  0  3  0  0  0  0  0  0
  180.1230  180.6390  137.6260 C   0  0  0  0  0  3  0  0  0  0  0  0
  187.5800  177.6970  139.3300 S   0  0  0  0  0  0  0  0  0  0  0  0
  182.1910  180.2090  138.9030 C   0  0  0  0  0  2  0  0  0  0  0  0
  184.0360  179.3840  140.2330 C   0  0  0  0  0  2  0  0  0  0  0  0
  186.0090  178.5560  139.0350 C   0  0  2  0  0  3  0  0  0  0  0  0
  183.7940  177.4160  135.5640 C   0  0  0  0  0  2  0  0  0  0  0  0
  180.7490  179.9150  138.5660 C   0  0  0  0  0  0  0  0  0  0  0  0
  186.1700  178.8140  141.4550 C   0  0  1  0  0  3  0  0  0  0  0  0
  183.0870  178.9860  139.0900 C   0  0  2  0  0  3  0  0  0  0  0  0
  185.9910  176.6650  134.6710 C   0  0  0  0  0  1  0  0  0  0  0  0
  188.5330  178.6620  141.5950 O   0  0  0  0  0  0  0  0  0  0  0  0
  185.1940  176.9140  135.9340 C   0  0  1  0  0  3  0  0  0  0  0  0
  185.2270  178.4530  140.3240 C   0  0  1  0  0  3  0  0  0  0  0  0
  185.8380  178.0820  142.5940 O   0  0  0  0  0  1  0  0  0  0  0  0
  185.1710  177.9020  137.9570 C   0  0  1  0  0  3  0  0  0  0  0  0
  181.2790  176.1980  138.8770 C   0  0  2  0  0  3  0  0  0  0  0  0
  181.8390  174.9630  138.3020 N   0  0  0  0  0  2  0  0  0  0  0  0
  180.9530  174.8860  139.4740 C   0  0  2  0  0  3  0  0  0  0  0  0
  179.8510  173.0360  138.3460 N   0  0  0  0  0  1  0  0  0  0  0  0
  179.6180  174.2790  139.0590 C   0  0  0  0  0  2  0  0  0  0  0  0
  180.8090  181.6830  136.8010 C   0  0  0  0  0  2  0  0  0  0  0  0
  180.3430  181.5750  135.3650 C   0  0  0  0  0  1  0  0  0  0  0  0
  1  9  1  0  0  0  0
  1  8  1  0  0  0  0
  2 25  1  0  0  0  0
  2 19  1  0  0  0  0
  3 25  1  0  0  0  0
  4 18  1  0  0  0  0
  4 21  2  0  0  0  0
  6  7  1  0  0  0  0
  7  5  1  0  0  0  0
  8  6  1  0  0  0  0
  8 26  1  0  0  0  0
  9 10  1  0  0  0  0
 10  2  1  0  0  0  0
 11 17  2  0  0  0  0
 12  4  1  0  0  0  0
 13 19  1  0  0  0  0
 14 23  1  0  0  0  0
 15 12  1  0  0  0  0
 15 23  1  0  0  0  0
 16 22  1  0  0  0  0
 16 10  1  0  0  0  0
 17 13  1  0  0  0  0
 17  7  1  0  0  0  0
 18 24  1  0  0  0  0
 19 14  1  0  0  0  0
 20 22  1  0  0  0  0
 22  3  1  0  0  0  0
 23 18  1  0  0  0  0
 25 15  1  0  0  0  0
 26 28  1  0  0  0  0
 27 26  1  0  0  0  0
 27 28  1  0  0  0  0
 29 30  1  0  0  0  0
 30 28  1  0  0  0  0
 31 11  1  0  0  0  0
 32 31  1  0  0  0  0
M  END
>  <MODEL>
5

>  <REMARK>
 VINA RESULT:      -4.8      2.716      5.846
  Name = 
  3 active torsions:
  status: ('A' for Active; 'I' for Inactive)
    1  A    between atoms: C_7  and  C_11
    2  A    between atoms: C_9  and  C_27
    3  A    between atoms: C_14  and  C_18
                            x       y       z     vdW  Elec       q    Type
                         _______ _______ _______ _____ _____    ______ ____

>  <TORSDO>
F 3

$$$$
=
 OpenBabel11032420203D

 32 36  0  0  1  0  0  0  0  0999 V2000
  182.8840  176.1950  135.2120 C   0  0  0  0  0  2  0  0  0  0  0  0
  183.2410  178.4600  138.0370 C   0  0  1  0  0  3  0  0  0  0  0  0
  185.4440  178.5960  139.0050 O   0  0  0  0  0  0  0  0  0  0  0  0
  183.0730  179.0410  142.8970 C   0  0  0  0  0  0  0  0  0  0  0  0
  179.3760  176.7770  137.4520 O   0  0  0  0  0  1  0  0  0  0  0  0
  180.2980  176.0240  135.3310 C   0  0  0  0  0  2  0  0  0  0  0  0
  179.6700  177.1680  136.1440 C   0  0  2  0  0  3  0  0  0  0  0  0
  181.6570  175.4830  135.8010 C   0  0  2  0  0  3  0  0  0  0  0  0
  183.0640  177.5460  135.7310 N   0  0  0  0  0  2  0  0  0  0  0  0
  183.7630  177.4510  137.0020 C   0  0  1  0  0  3  0  0  0  0  0  0
  180.5270  179.0620  134.8770 C   0  0  0  0  0  3  0  0  0  0  0  0
  184.5640  178.6440  141.9960 S   0  0  0  0  0  0  0  0  0  0  0  0
  180.9190  179.1830  137.3100 C   0  0  0  0  0  2  0  0  0  0  0  0
  181.2760  178.8540  139.6810 C   0  0  0  0  0  2  0  0  0  0  0  0
  183.5860  178.9440  140.4980 C   0  0  2  0  0  3  0  0  0  0  0  0
  185.2650  177.6460  136.7900 C   0  0  0  0  0  2  0  0  0  0  0  0
  180.4330  178.4650  136.0750 C   0  0  0  0  0  0  0  0  0  0  0  0
  181.7940  178.8760  142.1510 C   0  0  1  0  0  3  0  0  0  0  0  0
  181.7090  178.3300  138.3010 C   0  0  2  0  0  3  0  0  0  0  0  0
  187.4520  177.8400  137.9580 C   0  0  0  0  0  1  0  0  0  0  0  0
  183.1090  179.5270  144.0150 O   0  0  0  0  0  0  0  0  0  0  0  0
  185.9680  177.6070  138.1510 C   0  0  1  0  0  3  0  0  0  0  0  0
  182.2090  178.3870  140.7780 C   0  0  1  0  0  3  0  0  0  0  0  0
  181.0000  177.9130  142.7720 O   0  0  0  0  0  1  0  0  0  0  0  0
  184.1210  178.2120  139.2860 C   0  0  1  0  0  3  0  0  0  0  0  0
  181.7550  175.1550  137.2970 C   0  0  2  0  0  3  0  0  0  0  0  0
  182.9470  174.3300  137.5520 N   0  0  0  0  0  2  0  0  0  0  0  0
  181.6070  173.7310  137.6620 C   0  0  2  0  0  3  0  0  0  0  0  0
  182.0400  171.5020  136.7940 N   0  0  0  0  0  1  0  0  0  0  0  0
  181.3890  172.7660  136.5030 C   0  0  0  0  0  2  0  0  0  0  0  0
  181.1860  180.3890  134.6700 C   0  0  0  0  0  2  0  0  0  0  0  0
  180.1300  181.4710  134.6040 C   0  0  0  0  0  1  0  0  0  0  0  0
  1  9  1  0  0  0  0
  1  8  1  0  0  0  0
  2 19  1  0  0  0  0
  2 25  1  0  0  0  0
  3 25  1  0  0  0  0
  4 21  2  0  0  0  0
  6  8  1  0  0  0  0
  6  7  1  0  0  0  0
  7  5  1  0  0  0  0
  8 26  1  0  0  0  0
  9 10  1  0  0  0  0
 10  2  1  0  0  0  0
 11 17  2  0  0  0  0
 12  4  1  0  0  0  0
 13 19  1  0  0  0  0
 14 23  1  0  0  0  0
 15 23  1  0  0  0  0
 15 12  1  0  0  0  0
 16 10  1  0  0  0  0
 16 22  1  0  0  0  0
 17  7  1  0  0  0  0
 17 13  1  0  0  0  0
 18 24  1  0  0  0  0
 18  4  1  0  0  0  0
 19 14  1  0  0  0  0
 20 22  1  0  0  0  0
 22  3  1  0  0  0  0
 23 18  1  0  0  0  0
 25 15  1  0  0  0  0
 26 27  1  0  0  0  0
 26 28  1  0  0  0  0
 27 28  1  0  0  0  0
 30 29  1  0  0  0  0
 30 28  1  0  0  0  0
 31 11  1  0  0  0  0
 32 31  1  0  0  0  0
M  END
>  <MODEL>
6

>  <REMARK>
 VINA RESULT:      -4.5      2.955      5.932
  Name = 
  3 active torsions:
  status: ('A' for Active; 'I' for Inactive)
    1  A    between atoms: C_7  and  C_11
    2  A    between atoms: C_9  and  C_27
    3  A    between atoms: C_14  and  C_18
                            x       y       z     vdW  Elec       q    Type
                         _______ _______ _______ _____ _____    ______ ____

>  <TORSDO>
F 3

$$$$
=
 OpenBabel11032420203D

 32 36  0  0  1  0  0  0  0  0999 V2000
  182.6860  177.7310  135.8590 C   0  0  0  0  0  2  0  0  0  0  0  0
  180.2570  178.3790  138.4890 C   0  0  1  0  0  3  0  0  0  0  0  0
  179.4040  180.6300  138.6040 O   0  0  0  0  0  0  0  0  0  0  0  0
  179.4700  179.8080  143.1070 C   0  0  0  0  0  0  0  0  0  0  0  0
  183.0620  175.2680  139.2440 O   0  0  0  0  0  1  0  0  0  0  0  0
  183.6250  175.5440  136.8930 C   0  0  0  0  0  2  0  0  0  0  0  0
  182.6790  174.9370  137.9420 C   0  0  2  0  0  3  0  0  0  0  0  0
  183.7000  177.0770  136.8090 C   0  0  2  0  0  3  0  0  0  0  0  0
  181.3160  177.6680  136.3550 N   0  0  0  0  0  2  0  0  0  0  0  0
  181.1200  178.7710  137.2790 C   0  0  1  0  0  3  0  0  0  0  0  0
  180.6920  174.6620  136.5620 C   0  0  0  0  0  3  0  0  0  0  0  0
  179.4490  180.9180  141.7080 S   0  0  0  0  0  0  0  0  0  0  0  0
  180.3150  175.8490  138.6930 C   0  0  0  0  0  2  0  0  0  0  0  0
  180.3810  177.1190  140.7520 C   0  0  0  0  0  2  0  0  0  0  0  0
  179.5480  179.4240  140.6840 C   0  0  2  0  0  3  0  0  0  0  0  0
  180.4930  179.9610  136.5510 C   0  0  0  0  0  2  0  0  0  0  0  0
  181.2170  175.1920  137.6770 C   0  0  0  0  0  0  0  0  0  0  0  0
  180.0570  178.4600  142.8650 C   0  0  1  0  0  3  0  0  0  0  0  0
  180.8290  177.1620  139.2810 C   0  0  2  0  0  3  0  0  0  0  0  0
  179.5780  182.2530  136.8600 C   0  0  0  0  0  1  0  0  0  0  0  0
  178.9310  180.0950  144.1630 O   0  0  0  0  0  0  0  0  0  0  0  0
  180.2360  181.0840  137.5620 C   0  0  1  0  0  3  0  0  0  0  0  0
  180.4780  178.4790  141.4090 C   0  0  1  0  0  3  0  0  0  0  0  0
  181.1780  178.2750  143.6750 O   0  0  0  0  0  1  0  0  0  0  0  0
  180.1540  179.6800  139.3200 C   0  0  1  0  0  3  0  0  0  0  0  0
  183.8940  177.8020  138.1470 C   0  0  2  0  0  3  0  0  0  0  0  0
  184.3590  179.1780  137.9080 N   0  0  0  0  0  2  0  0  0  0  0  0
  185.2810  178.1860  138.4840 C   0  0  2  0  0  3  0  0  0  0  0  0
  187.2070  178.9670  137.2220 N   0  0  0  0  0  1  0  0  0  0  0  0
  186.3420  177.8240  137.4510 C   0  0  0  0  0  2  0  0  0  0  0  0
  179.2420  174.7670  136.2070 C   0  0  0  0  0  2  0  0  0  0  0  0
  179.1050  175.0340  134.7230 C   0  0  0  0  0  1  0  0  0  0  0  0
  1  9  1  0  0  0  0
  1  8  1  0  0  0  0
  2 19  1  0  0  0  0
  2 25  1  0  0  0  0
  3 25  1  0  0  0  0
  4 21  2  0  0  0  0
  6  7  1  0  0  0  0
  7  5  1  0  0  0  0
  8  6  1  0  0  0  0
  8 26  1  0  0  0  0
  9 10  1  0  0  0  0
 10  2  1  0  0  0  0
 11 17  2  0  0  0  0
 12  4  1  0  0  0  0
 13 19  1  0  0  0  0
 14 23  1  0  0  0  0
 15 23  1  0  0  0  0
 15 12  1  0  0  0  0
 16 10  1  0  0  0  0
 16 22  1  0  0  0  0
 17  7  1  0  0  0  0
 17 13  1  0  0  0  0
 18  4  1  0  0  0  0
 18 24  1  0  0  0  0
 19 14  1  0  0  0  0
 20 22  1  0  0  0  0
 22  3  1  0  0  0  0
 23 18  1  0  0  0  0
 25 15  1  0  0  0  0
 26 28  1  0  0  0  0
 27 26  1  0  0  0  0
 27 28  1  0  0  0  0
 29 30  1  0  0  0  0
 30 28  1  0  0  0  0
 31 11  1  0  0  0  0
 32 31  1  0  0  0  0
M  END
>  <MODEL>
7

>  <REMARK>
 VINA RESULT:      -4.2      2.924      4.832
  Name = 
  3 active torsions:
  status: ('A' for Active; 'I' for Inactive)
    1  A    between atoms: C_7  and  C_11
    2  A    between atoms: C_9  and  C_27
    3  A    between atoms: C_14  and  C_18
                            x       y       z     vdW  Elec       q    Type
                         _______ _______ _______ _____ _____    ______ ____

>  <TORSDO>
F 3

$$$$
=
 OpenBabel11032420203D

 32 36  0  0  1  0  0  0  0  0999 V2000
  182.4460  177.6800  137.0740 C   0  0  0  0  0  2  0  0  0  0  0  0
  184.5740  179.0020  139.7130 C   0  0  1  0  0  3  0  0  0  0  0  0
  186.9380  178.6120  139.4540 O   0  0  0  0  0  0  0  0  0  0  0  0
  186.7810  178.2030  144.0110 C   0  0  0  0  0  0  0  0  0  0  0  0
  180.5930  177.9950  140.8330 O   0  0  0  0  0  1  0  0  0  0  0  0
  180.2400  177.7730  138.4360 C   0  0  0  0  0  2  0  0  0  0  0  0
  180.3410  178.7040  139.6550 C   0  0  2  0  0  3  0  0  0  0  0  0
  181.4940  176.9730  138.0490 C   0  0  2  0  0  3  0  0  0  0  0  0
  183.1550  178.8010  137.6800 N   0  0  0  0  0  2  0  0  0  0  0  0
  184.3120  178.2740  138.3840 C   0  0  1  0  0  3  0  0  0  0  0  0
  180.9450  180.7700  138.5190 C   0  0  0  0  0  3  0  0  0  0  0  0
  187.5570  177.9130  142.4280 S   0  0  0  0  0  0  0  0  0  0  0  0
  182.4190  180.1550  140.4000 C   0  0  0  0  0  2  0  0  0  0  0  0
  183.7280  179.1330  142.1600 C   0  0  0  0  0  2  0  0  0  0  0  0
  186.1050  178.7310  141.7110 C   0  0  2  0  0  3  0  0  0  0  0  0
  185.5510  178.3520  137.4910 C   0  0  0  0  0  2  0  0  0  0  0  0
  181.2700  179.8740  139.4630 C   0  0  0  0  0  0  0  0  0  0  0  0
  185.3050  178.4000  143.9900 C   0  0  1  0  0  3  0  0  0  0  0  0
  183.3480  178.9750  140.6780 C   0  0  2  0  0  3  0  0  0  0  0  0
  188.0060  177.9620  137.4190 C   0  0  0  0  0  1  0  0  0  0  0  0
  187.4360  178.3470  145.0300 O   0  0  0  0  0  0  0  0  0  0  0  0
  186.7660  177.8530  138.2800 C   0  0  1  0  0  3  0  0  0  0  0  0
  184.9190  178.2750  142.5300 C   0  0  1  0  0  3  0  0  0  0  0  0
  184.6790  177.3950  144.7280 O   0  0  0  0  0  1  0  0  0  0  0  0
  185.8390  178.3150  140.2790 C   0  0  1  0  0  3  0  0  0  0  0  0
  182.1820  176.2280  139.2000 C   0  0  2  0  0  3  0  0  0  0  0  0
  183.0350  175.1550  138.6630 N   0  0  0  0  0  2  0  0  0  0  0  0
  181.7970  174.8130  139.3820 C   0  0  2  0  0  3  0  0  0  0  0  0
  179.6790  173.6480  139.1170 N   0  0  0  0  0  1  0  0  0  0  0  0
  180.7730  174.2690  138.3920 C   0  0  0  0  0  2  0  0  0  0  0  0
  181.7300  182.0190  138.2680 C   0  0  0  0  0  2  0  0  0  0  0  0
  180.8570  183.0260  137.5480 C   0  0  0  0  0  1  0  0  0  0  0  0
  1  9  1  0  0  0  0
  1  8  1  0  0  0  0
  2 25  1  0  0  0  0
  2 19  1  0  0  0  0
  3 25  1  0  0  0  0
  4 21  2  0  0  0  0
  6  7  1  0  0  0  0
  7  5  1  0  0  0  0
  8  6  1  0  0  0  0
  8 26  1  0  0  0  0
  9 10  1  0  0  0  0
 10  2  1  0  0  0  0
 11 17  2  0  0  0  0
 12  4  1  0  0  0  0
 13 19  1  0  0  0  0
 14 23  1  0  0  0  0
 15 12  1  0  0  0  0
 15 23  1  0  0  0  0
 16 22  1  0  0  0  0
 16 10  1  0  0  0  0
 17  7  1  0  0  0  0
 17 13  1  0  0  0  0
 18  4  1  0  0  0  0
 18 24  1  0  0  0  0
 19 14  1  0  0  0  0
 20 22  1  0  0  0  0
 22  3  1  0  0  0  0
 23 18  1  0  0  0  0
 25 15  1  0  0  0  0
 26 28  1  0  0  0  0
 27 26  1  0  0  0  0
 27 28  1  0  0  0  0
 30 29  1  0  0  0  0
 30 28  1  0  0  0  0
 31 11  1  0  0  0  0
 32 31  1  0  0  0  0
M  END
>  <MODEL>
8

>  <REMARK>
 VINA RESULT:      -3.7      2.471      5.625
  Name = 
  3 active torsions:
  status: ('A' for Active; 'I' for Inactive)
    1  A    between atoms: C_7  and  C_11
    2  A    between atoms: C_9  and  C_27
    3  A    between atoms: C_14  and  C_18
                            x       y       z     vdW  Elec       q    Type
                         _______ _______ _______ _____ _____    ______ ____

>  <TORSDO>
F 3

$$$$
=
 OpenBabel11032420203D

 32 36  0  0  1  0  0  0  0  0999 V2000
  179.2020  178.1130  138.9460 C   0  0  0  0  0  2  0  0  0  0  0  0
  181.7920  176.4370  137.0170 C   0  0  1  0  0  3  0  0  0  0  0  0
  181.8140  174.0310  137.1510 O   0  0  0  0  0  0  0  0  0  0  0  0
  186.3470  174.6400  136.9270 C   0  0  0  0  0  0  0  0  0  0  0  0
  182.6810  180.3880  138.3270 O   0  0  0  0  0  1  0  0  0  0  0  0
  180.3250  180.4520  138.9280 C   0  0  0  0  0  2  0  0  0  0  0  0
  181.3910  180.5840  137.8280 C   0  0  2  0  0  3  0  0  0  0  0  0
  180.1820  179.0860  139.6170 C   0  0  2  0  0  3  0  0  0  0  0  0
  179.6920  177.5960  137.6730 N   0  0  0  0  0  2  0  0  0  0  0  0
  180.5720  176.4750  137.9520 C   0  0  1  0  0  3  0  0  0  0  0  0
  180.0120  180.0800  135.8860 C   0  0  0  0  0  3  0  0  0  0  0  0
  184.9060  173.6700  137.3430 S   0  0  0  0  0  0  0  0  0  0  0  0
  182.0930  178.7640  136.0460 C   0  0  0  0  0  2  0  0  0  0  0  0
  184.1020  177.5530  136.6440 C   0  0  0  0  0  2  0  0  0  0  0  0
  183.9400  175.1130  136.8160 C   0  0  2  0  0  3  0  0  0  0  0  0
  179.7950  175.1610  137.8520 C   0  0  0  0  0  2  0  0  0  0  0  0
  181.1080  179.7670  136.5930 C   0  0  0  0  0  0  0  0  0  0  0  0
  186.1600  176.1180  136.9150 C   0  0  1  0  0  3  0  0  0  0  0  0
  182.6330  177.7510  137.0550 C   0  0  2  0  0  3  0  0  0  0  0  0
  180.0110  172.6850  137.9490 C   0  0  0  0  0  1  0  0  0  0  0  0
  187.3880  174.1190  136.5620 O   0  0  0  0  0  0  0  0  0  0  0  0
  180.7600  173.9930  138.0850 C   0  0  1  0  0  3  0  0  0  0  0  0
  184.7070  176.3260  137.2910 C   0  0  1  0  0  3  0  0  0  0  0  0
  186.9820  176.7110  137.8730 O   0  0  0  0  0  1  0  0  0  0  0  0
  182.5710  175.1760  137.4590 C   0  0  1  0  0  3  0  0  0  0  0  0
  181.4920  178.4530  140.1030 C   0  0  2  0  0  3  0  0  0  0  0  0
  181.2000  177.3630  141.0490 N   0  0  0  0  0  2  0  0  0  0  0  0
  181.7990  178.6150  141.5400 C   0  0  2  0  0  3  0  0  0  0  0  0
  180.8130  178.9320  143.7390 N   0  0  0  0  0  1  0  0  0  0  0  0
  180.7670  179.3810  142.3590 C   0  0  0  0  0  2  0  0  0  0  0  0
  179.6460  179.4090  134.6000 C   0  0  0  0  0  2  0  0  0  0  0  0
  178.9310  178.1090  134.8960 C   0  0  0  0  0  1  0  0  0  0  0  0
  1  8  1  0  0  0  0
  2 19  1  0  0  0  0
  2 25  1  0  0  0  0
  2 10  1  0  0  0  0
  3 25  1  0  0  0  0
  3 22  1  0  0  0  0
  4 12  1  0  0  0  0
  6  8  1  0  0  0  0
  7  5  1  0  0  0  0
  7  6  1  0  0  0  0
  8 26  1  0  0  0  0
  9 10  1  0  0  0  0
  9  1  1  0  0  0  0
 11 17  2  0  0  0  0
 13 17  1  0  0  0  0
 13 19  1  0  0  0  0
 14 19  1  0  0  0  0
 14 23  1  0  0  0  0
 15 23  1  0  0  0  0
 15 12  1  0  0  0  0
 15 25  1  0  0  0  0
 16 10  1  0  0  0  0
 16 22  1  0  0  0  0
 17  7  1  0  0  0  0
 18  4  1  0  0  0  0
 18 23  1  0  0  0  0
 18 24  1  0  0  0  0
 20 22  1  0  0  0  0
 21  4  2  0  0  0  0
 26 27  1  0  0  0  0
 26 28  1  0  0  0  0
 27 28  1  0  0  0  0
 28 30  1  0  0  0  0
 30 29  1  0  0  0  0
 31 32  1  0  0  0  0
 31 11  1  0  0  0  0
M  END
>  <MODEL>
9

>  <REMARK>
 VINA RESULT:      -3.7      3.209      5.602
  Name = 
  3 active torsions:
  status: ('A' for Active; 'I' for Inactive)
    1  A    between atoms: C_7  and  C_11
    2  A    between atoms: C_9  and  C_27
    3  A    between atoms: C_14  and  C_18
                            x       y       z     vdW  Elec       q    Type
                         _______ _______ _______ _____ _____    ______ ____

>  <TORSDO>
F 3

$$$$
