=
 OpenBabel11032419093D

 42 48  0  0  1  0  0  0  0  0999 V2000
  184.2250  178.2370  142.2910 C   0  0  0  0  0  0  0  0  0  0  0  0
  183.7950  178.6720  143.5560 C   0  0  0  0  0  3  0  0  0  0  0  0
  183.3000  178.1770  141.2200 C   0  0  0  0  0  0  0  0  0  0  0  0
  182.4610  179.0240  143.7740 C   0  0  0  0  0  3  0  0  0  0  0  0
  181.9590  178.5220  141.4630 C   0  0  0  0  0  3  0  0  0  0  0  0
  181.5330  178.9340  142.7300 C   0  0  0  0  0  0  0  0  0  0  0  0
  183.4770  175.4120  137.2500 C   0  0  1  0  0  0  0  0  0  0  0  0
  184.2620  173.2780  136.4240 C   0  0  1  0  0  0  0  0  0  0  0  0
  183.7090  177.7900  139.8420 C   0  0  0  0  0  0  0  0  0  0  0  0
  184.9340  177.4740  136.8320 C   0  0  0  0  0  2  0  0  0  0  0  0
  184.8940  175.9510  136.9350 C   0  0  0  0  0  2  0  0  0  0  0  0
  183.9040  172.0650  137.3550 C   0  0  1  0  0  3  0  0  0  0  0  0
  183.1690  171.2730  135.6670 C   0  0  2  0  0  3  0  0  0  0  0  0
  182.9140  175.6290  138.6300 C   0  0  0  0  0  3  0  0  0  0  0  0
  182.5670  175.5310  136.0810 C   0  0  1  0  0  3  0  0  0  0  0  0
  182.6180  172.3830  134.8000 C   0  0  0  0  0  2  0  0  0  0  0  0
  182.6890  171.4530  136.9730 O   0  0  0  0  0  0  0  0  0  0  0  0
  185.5120  178.0990  138.0980 C   0  0  0  0  0  2  0  0  0  0  0  0
  183.4010  173.6270  135.2290 C   0  0  1  0  0  3  0  0  0  0  0  0
  183.2620  176.6920  139.2930 C   0  0  0  0  0  0  0  0  0  0  0  0
  184.4190  178.7640  138.9410 C   0  0  0  0  0  2  0  0  0  0  0  0
  182.9320  174.1140  136.5710 C   0  0  1  0  0  0  0  0  0  0  0  0
  184.5030  171.8150  136.0420 C   0  0  1  0  0  3  0  0  0  0  0  0
  180.8590  177.3190  136.2990 C   0  0  0  0  0  1  0  0  0  0  0  0
  181.1160  175.8330  136.4350 C   0  0  0  0  0  2  0  0  0  0  0  0
  180.0930  179.3190  142.9260 C   0  0  1  0  0  3  0  0  0  0  0  0
  179.5530  178.8470  144.2730 C   0  0  0  0  0  1  0  0  0  0  0  0
  179.6100  181.2060  141.6950 O   0  0  0  0  0  0  0  0  0  0  0  0
  179.8960  180.7430  142.7580 N   0  0  0  0  0  0  0  0  0  0  0  0
  185.5820  177.8190  142.1060 N   0  0  0  0  0  2  0  0  0  0  0  0
  186.7000  178.7430  141.9750 C   0  0  0  0  0  2  0  0  0  0  0  0
  187.9840  178.0620  142.4190 C   0  0  0  0  0  2  0  0  0  0  0  0
  187.6990  176.9300  143.3980 C   0  0  0  0  0  2  0  0  0  0  0  0
  187.7750  177.4120  144.8400 C   0  0  0  0  0  2  0  0  0  0  0  0
  189.1440  178.0030  145.1520 C   0  0  0  0  0  2  0  0  0  0  0  0
  190.1870  176.9080  145.3550 C   0  0  0  0  0  3  0  0  0  0  0  0
  191.2840  177.0040  144.3410 C   0  0  0  0  0  0  0  0  0  0  0  0
  191.7250  178.1340  144.0080 O   0  0  0  0  0  1  0  0  0  0  0  0
  191.8170  175.8570  143.7640 O   0  0  0  0  0  0  0  0  0  0  0  0
  191.9500  176.6720  146.9380 O   0  0  0  0  0  0  0  0  0  0  0  0
  189.9390  177.3450  147.8080 O   0  0  0  0  0  1  0  0  0  0  0  0
  190.7410  176.9610  146.7400 C   0  0  0  0  0  0  0  0  0  0  0  0
  1  2  1  0  0  0  0
  2  4  2  0  0  0  0
  3  5  1  0  0  0  0
  3  1  2  0  0  0  0
  5  6  2  0  0  0  0
  6 26  1  0  0  0  0
  6  4  1  0  0  0  0
  7 11  1  6  0  0  0
  7 14  1  0  0  0  0
  8 22  1  0  0  0  0
  8 12  1  0  0  0  0
  9  3  1  0  0  0  0
 10 11  1  0  0  0  0
 10 18  1  0  0  0  0
 13 23  1  0  0  0  0
 13 17  1  0  0  0  0
 14 20  2  0  0  0  0
 15 25  1  0  0  0  0
 15 22  1  0  0  0  0
 15  7  1  0  0  0  0
 16 19  1  0  0  0  0
 16 13  1  0  0  0  0
 17 12  1  0  0  0  0
 18 21  1  0  0  0  0
 19  8  1  0  0  0  0
 19 22  1  0  0  0  0
 20  9  2  0  0  0  0
 21  9  1  0  0  0  0
 22  7  1  0  0  0  0
 23  8  1  0  0  0  0
 23 12  1  0  0  0  0
 24 25  1  0  0  0  0
 26 27  1  0  0  0  0
 28 29  2  0  0  0  0
 29 26  1  0  0  0  0
 30  1  1  0  0  0  0
 31 30  1  0  0  0  0
 31 32  1  0  0  0  0
 32 33  1  0  0  0  0
 33 34  1  0  0  0  0
 34 35  1  0  0  0  0
 35 36  1  0  0  0  0
 36 42  1  0  0  0  0
 37 36  1  0  0  0  0
 38 37  1  0  0  0  0
 39 37  2  0  0  0  0
 42 40  2  0  0  0  0
 42 41  1  0  0  0  0
M  END
>  <MODEL>
1

>  <REMARK>
 VINA RESULT:      -8.0      0.000      0.000
  Name = 
  13 active torsions:
  status: ('A' for Active; 'I' for Inactive)
    1  A    between atoms: C_1  and  C_18
    2  A    between atoms: C_1  and  C_21
    3  A    between atoms: C_3  and  C_5
    4  A    between atoms: C_3  and  C_16
    5  A    between atoms: C_3  and  C_34
    6  A    between atoms: C_6  and  N_24
    7  A    between atoms: C_8  and  C_23
    8  A    between atoms: C_15  and  C_29
    9  A    between atoms: C_16  and  C_41
   10  A    between atoms: C_18  and  C_41
   11  A    between atoms: C_21  and  N_24
   12  A    between atoms: N_25  and  C_31
   13  A    between atoms: C_31  and  C_38
                            x       y       z     vdW  Elec       q    Type
                         _______ _______ _______ _____ _____    ______ ____

>  <TORSDO>
F 13

$$$$
=
 OpenBabel11032419093D

 42 48  0  0  1  0  0  0  0  0999 V2000
  184.0290  178.3560  142.4200 C   0  0  0  0  0  0  0  0  0  0  0  0
  183.5390  178.7790  143.6660 C   0  0  0  0  0  3  0  0  0  0  0  0
  183.1560  178.3060  141.3050 C   0  0  0  0  0  0  0  0  0  0  0  0
  182.1960  179.1290  143.8240 C   0  0  0  0  0  3  0  0  0  0  0  0
  181.8040  178.6480  141.4880 C   0  0  0  0  0  3  0  0  0  0  0  0
  181.3190  179.0480  142.7370 C   0  0  0  0  0  0  0  0  0  0  0  0
  183.5540  175.5580  137.3400 C   0  0  1  0  0  0  0  0  0  0  0  0
  184.4150  173.4430  136.5420 C   0  0  1  0  0  0  0  0  0  0  0  0
  183.6290  177.9320  139.9450 C   0  0  0  0  0  0  0  0  0  0  0  0
  184.9850  177.6510  136.9880 C   0  0  0  0  0  2  0  0  0  0  0  0
  184.9720  176.1260  137.0850 C   0  0  0  0  0  2  0  0  0  0  0  0
  184.0440  172.2200  137.4540 C   0  0  1  0  0  3  0  0  0  0  0  0
  183.3960  171.4190  135.7350 C   0  0  2  0  0  3  0  0  0  0  0  0
  182.9290  175.7590  138.6960 C   0  0  0  0  0  3  0  0  0  0  0  0
  182.6910  175.6620  136.1340 C   0  0  1  0  0  3  0  0  0  0  0  0
  182.8600  172.5210  134.8490 C   0  0  0  0  0  2  0  0  0  0  0  0
  182.8590  171.5850  137.0210 O   0  0  0  0  0  0  0  0  0  0  0  0
  185.4970  178.2830  138.2790 C   0  0  0  0  0  2  0  0  0  0  0  0
  183.5990  173.7780  135.3120 C   0  0  1  0  0  3  0  0  0  0  0  0
  183.2280  176.8270  139.3750 C   0  0  0  0  0  0  0  0  0  0  0  0
  184.3570  178.9230  139.0760 C   0  0  0  0  0  2  0  0  0  0  0  0
  183.0650  174.2510  136.6350 C   0  0  1  0  0  0  0  0  0  0  0  0
  184.7020  171.9860  136.1670 C   0  0  1  0  0  3  0  0  0  0  0  0
  180.9120  177.3940  136.1690 C   0  0  0  0  0  1  0  0  0  0  0  0
  181.2210  175.9340  136.4280 C   0  0  0  0  0  2  0  0  0  0  0  0
  179.8710  179.4310  142.8690 C   0  0  1  0  0  3  0  0  0  0  0  0
  179.2730  178.9610  144.1910 C   0  0  0  0  0  1  0  0  0  0  0  0
  179.3260  181.3020  141.6380 O   0  0  0  0  0  0  0  0  0  0  0  0
  179.6780  180.8540  142.6890 N   0  0  0  0  0  0  0  0  0  0  0  0
  185.3940  177.9410  142.2940 N   0  0  0  0  0  2  0  0  0  0  0  0
  186.4440  178.3320  143.2230 C   0  0  0  0  0  2  0  0  0  0  0  0
  186.6630  177.2270  144.2450 C   0  0  0  0  0  2  0  0  0  0  0  0
  186.7460  177.7900  145.6580 C   0  0  0  0  0  2  0  0  0  0  0  0
  188.1130  177.5320  146.2780 C   0  0  0  0  0  2  0  0  0  0  0  0
  189.1020  177.0200  145.2370 C   0  0  0  0  0  2  0  0  0  0  0  0
  190.4640  177.6910  145.3900 C   0  0  0  0  0  3  0  0  0  0  0  0
  191.5340  176.6910  145.6950 C   0  0  0  0  0  0  0  0  0  0  0  0
  192.0770  176.6880  146.8300 O   0  0  0  0  0  1  0  0  0  0  0  0
  191.9330  175.7660  144.7370 O   0  0  0  0  0  0  0  0  0  0  0  0
  191.9120  179.0640  144.0920 O   0  0  0  0  0  1  0  0  0  0  0  0
  189.9170  178.5350  143.0980 O   0  0  0  0  0  0  0  0  0  0  0  0
  190.8040  178.4730  144.1650 C   0  0  0  0  0  0  0  0  0  0  0  0
  1  2  1  0  0  0  0
  2  4  2  0  0  0  0
  3  5  1  0  0  0  0
  3  1  2  0  0  0  0
  5  6  2  0  0  0  0
  6 26  1  0  0  0  0
  6  4  1  0  0  0  0
  7 11  1  6  0  0  0
  7 14  1  0  0  0  0
  8 22  1  0  0  0  0
  8 12  1  0  0  0  0
  9  3  1  0  0  0  0
 10 11  1  0  0  0  0
 10 18  1  0  0  0  0
 13 23  1  0  0  0  0
 13 17  1  0  0  0  0
 14 20  2  0  0  0  0
 15 25  1  0  0  0  0
 15 22  1  0  0  0  0
 15  7  1  0  0  0  0
 16 19  1  0  0  0  0
 16 13  1  0  0  0  0
 17 12  1  0  0  0  0
 18 21  1  0  0  0  0
 19  8  1  0  0  0  0
 19 22  1  0  0  0  0
 20  9  2  0  0  0  0
 21  9  1  0  0  0  0
 22  7  1  0  0  0  0
 23  8  1  0  0  0  0
 23 12  1  0  0  0  0
 24 25  1  0  0  0  0
 26 27  1  0  0  0  0
 28 29  2  0  0  0  0
 29 26  1  0  0  0  0
 30  1  1  0  0  0  0
 30 31  1  0  0  0  0
 31 32  1  0  0  0  0
 32 33  1  0  0  0  0
 33 34  1  0  0  0  0
 35 36  1  0  0  0  0
 35 34  1  0  0  0  0
 36 37  1  0  0  0  0
 37 38  1  0  0  0  0
 39 37  2  0  0  0  0
 40 42  1  0  0  0  0
 41 42  2  0  0  0  0
 42 36  1  0  0  0  0
M  END
>  <MODEL>
2

>  <REMARK>
 VINA RESULT:      -8.0      0.747      1.375
  Name = 
  13 active torsions:
  status: ('A' for Active; 'I' for Inactive)
    1  A    between atoms: C_1  and  C_18
    2  A    between atoms: C_1  and  C_21
    3  A    between atoms: C_3  and  C_5
    4  A    between atoms: C_3  and  C_16
    5  A    between atoms: C_3  and  C_34
    6  A    between atoms: C_6  and  N_24
    7  A    between atoms: C_8  and  C_23
    8  A    between atoms: C_15  and  C_29
    9  A    between atoms: C_16  and  C_41
   10  A    between atoms: C_18  and  C_41
   11  A    between atoms: C_21  and  N_24
   12  A    between atoms: N_25  and  C_31
   13  A    between atoms: C_31  and  C_38
                            x       y       z     vdW  Elec       q    Type
                         _______ _______ _______ _____ _____    ______ ____

>  <TORSDO>
F 13

$$$$
=
 OpenBabel11032419093D

 42 48  0  0  1  0  0  0  0  0999 V2000
  184.2060  178.2590  142.2340 C   0  0  0  0  0  0  0  0  0  0  0  0
  183.7900  178.6980  143.5010 C   0  0  0  0  0  3  0  0  0  0  0  0
  183.2670  178.1870  141.1750 C   0  0  0  0  0  0  0  0  0  0  0  0
  182.4580  179.0430  143.7360 C   0  0  0  0  0  3  0  0  0  0  0  0
  181.9260  178.5250  141.4350 C   0  0  0  0  0  3  0  0  0  0  0  0
  181.5160  178.9410  142.7050 C   0  0  0  0  0  0  0  0  0  0  0  0
  183.3970  175.4070  137.2140 C   0  0  1  0  0  0  0  0  0  0  0  0
  184.1720  173.2700  136.3870 C   0  0  1  0  0  0  0  0  0  0  0  0
  183.6590  177.7960  139.7940 C   0  0  0  0  0  0  0  0  0  0  0  0
  184.8470  177.4680  136.7710 C   0  0  0  0  0  2  0  0  0  0  0  0
  184.8090  175.9450  136.8800 C   0  0  0  0  0  2  0  0  0  0  0  0
  183.8270  172.0610  137.3270 C   0  0  1  0  0  3  0  0  0  0  0  0
  183.0710  171.2620  135.6510 C   0  0  2  0  0  3  0  0  0  0  0  0
  182.8500  175.6290  138.6010 C   0  0  0  0  0  3  0  0  0  0  0  0
  182.4720  175.5210  136.0560 C   0  0  1  0  0  3  0  0  0  0  0  0
  182.5100  172.3680  134.7870 C   0  0  0  0  0  2  0  0  0  0  0  0
  182.6070  171.4460  136.9630 O   0  0  0  0  0  0  0  0  0  0  0  0
  185.4410  178.0990  138.0280 C   0  0  0  0  0  2  0  0  0  0  0  0
  183.2970  173.6140  135.2010 C   0  0  1  0  0  3  0  0  0  0  0  0
  183.2060  176.6950  139.2550 C   0  0  0  0  0  0  0  0  0  0  0  0
  184.3580  178.7660  138.8810 C   0  0  0  0  0  2  0  0  0  0  0  0
  182.8440  174.1060  136.5470 C   0  0  1  0  0  0  0  0  0  0  0  0
  184.4100  171.8050  136.0080 C   0  0  1  0  0  3  0  0  0  0  0  0
  180.3330  176.4970  135.2610 C   0  0  0  0  0  1  0  0  0  0  0  0
  181.0250  175.8240  136.4270 C   0  0  0  0  0  2  0  0  0  0  0  0
  180.0760  179.3180  142.9190 C   0  0  1  0  0  3  0  0  0  0  0  0
  179.5440  178.8080  144.2560 C   0  0  0  0  0  1  0  0  0  0  0  0
  179.6040  181.2390  141.7370 O   0  0  0  0  0  0  0  0  0  0  0  0
  179.8750  180.7450  142.7910 N   0  0  0  0  0  0  0  0  0  0  0  0
  185.5630  177.8500  142.0310 N   0  0  0  0  0  2  0  0  0  0  0  0
  186.6760  178.7800  141.9080 C   0  0  0  0  0  2  0  0  0  0  0  0
  187.9650  178.0990  142.3430 C   0  0  0  0  0  2  0  0  0  0  0  0
  187.6790  176.8390  143.1490 C   0  0  0  0  0  2  0  0  0  0  0  0
  188.1490  176.9840  144.5900 C   0  0  0  0  0  2  0  0  0  0  0  0
  187.4670  178.1620  145.2760 C   0  0  0  0  0  2  0  0  0  0  0  0
  186.9030  177.7610  146.6360 C   0  0  0  0  0  3  0  0  0  0  0  0
  187.9650  177.7680  147.6900 C   0  0  0  0  0  0  0  0  0  0  0  0
  187.6890  177.3780  148.8540 O   0  0  0  0  0  1  0  0  0  0  0  0
  189.2520  178.2030  147.3950 O   0  0  0  0  0  0  0  0  0  0  0  0
  184.5860  178.2640  146.8520 O   0  0  0  0  0  0  0  0  0  0  0  0
  186.0130  179.9040  147.5760 O   0  0  0  0  0  1  0  0  0  0  0  0
  185.7700  178.6540  147.0190 C   0  0  0  0  0  0  0  0  0  0  0  0
  1  2  1  0  0  0  0
  2  4  2  0  0  0  0
  3  5  1  0  0  0  0
  3  1  2  0  0  0  0
  5  6  2  0  0  0  0
  6 26  1  0  0  0  0
  6  4  1  0  0  0  0
  7 11  1  6  0  0  0
  7 14  1  0  0  0  0
  8 22  1  0  0  0  0
  8 12  1  0  0  0  0
  9  3  1  0  0  0  0
 10 11  1  0  0  0  0
 10 18  1  0  0  0  0
 13 23  1  0  0  0  0
 13 17  1  0  0  0  0
 14 20  2  0  0  0  0
 15 25  1  0  0  0  0
 15 22  1  0  0  0  0
 15  7  1  0  0  0  0
 16 19  1  0  0  0  0
 16 13  1  0  0  0  0
 17 12  1  0  0  0  0
 18 21  1  0  0  0  0
 19  8  1  0  0  0  0
 19 22  1  0  0  0  0
 20  9  2  0  0  0  0
 21  9  1  0  0  0  0
 22  7  1  0  0  0  0
 23  8  1  0  0  0  0
 23 12  1  0  0  0  0
 24 25  1  0  0  0  0
 26 27  1  0  0  0  0
 28 29  2  0  0  0  0
 29 26  1  0  0  0  0
 30  1  1  0  0  0  0
 31 30  1  0  0  0  0
 31 32  1  0  0  0  0
 32 33  1  0  0  0  0
 33 34  1  0  0  0  0
 34 35  1  0  0  0  0
 35 36  1  0  0  0  0
 36 42  1  0  0  0  0
 36 37  1  0  0  0  0
 37 38  1  0  0  0  0
 39 37  2  0  0  0  0
 40 42  2  0  0  0  0
 42 41  1  0  0  0  0
M  END
>  <MODEL>
3

>  <REMARK>
 VINA RESULT:      -7.9      1.429      2.255
  Name = 
  13 active torsions:
  status: ('A' for Active; 'I' for Inactive)
    1  A    between atoms: C_1  and  C_18
    2  A    between atoms: C_1  and  C_21
    3  A    between atoms: C_3  and  C_5
    4  A    between atoms: C_3  and  C_16
    5  A    between atoms: C_3  and  C_34
    6  A    between atoms: C_6  and  N_24
    7  A    between atoms: C_8  and  C_23
    8  A    between atoms: C_15  and  C_29
    9  A    between atoms: C_16  and  C_41
   10  A    between atoms: C_18  and  C_41
   11  A    between atoms: C_21  and  N_24
   12  A    between atoms: N_25  and  C_31
   13  A    between atoms: C_31  and  C_38
                            x       y       z     vdW  Elec       q    Type
                         _______ _______ _______ _____ _____    ______ ____

>  <TORSDO>
F 13

$$$$
=
 OpenBabel11032419093D

 42 48  0  0  1  0  0  0  0  0999 V2000
  184.0490  178.3100  142.4670 C   0  0  0  0  0  0  0  0  0  0  0  0
  183.5570  178.7200  143.7170 C   0  0  0  0  0  3  0  0  0  0  0  0
  183.1810  178.2840  141.3480 C   0  0  0  0  0  0  0  0  0  0  0  0
  182.2170  179.0810  143.8730 C   0  0  0  0  0  3  0  0  0  0  0  0
  181.8320  178.6380  141.5280 C   0  0  0  0  0  3  0  0  0  0  0  0
  181.3440  179.0250  142.7800 C   0  0  0  0  0  0  0  0  0  0  0  0
  183.5970  175.5730  137.3590 C   0  0  1  0  0  0  0  0  0  0  0  0
  184.4680  173.4690  136.5430 C   0  0  1  0  0  0  0  0  0  0  0  0
  183.6580  177.9240  139.9850 C   0  0  0  0  0  0  0  0  0  0  0  0
  185.0180  177.6750  137.0270 C   0  0  0  0  0  2  0  0  0  0  0  0
  185.0120  176.1500  137.1110 C   0  0  0  0  0  2  0  0  0  0  0  0
  184.1020  172.2370  137.4440 C   0  0  1  0  0  3  0  0  0  0  0  0
  183.4590  171.4480  135.7170 C   0  0  2  0  0  3  0  0  0  0  0  0
  182.9690  175.7600  138.7150 C   0  0  0  0  0  3  0  0  0  0  0  0
  182.7350  175.6840  136.1530 C   0  0  1  0  0  3  0  0  0  0  0  0
  182.9190  172.5550  134.8400 C   0  0  0  0  0  2  0  0  0  0  0  0
  182.9200  171.6000  137.0040 O   0  0  0  0  0  0  0  0  0  0  0  0
  185.5270  178.2990  138.3240 C   0  0  0  0  0  2  0  0  0  0  0  0
  183.6520  173.8110  135.3160 C   0  0  1  0  0  3  0  0  0  0  0  0
  183.2630  176.8220  139.4050 C   0  0  0  0  0  0  0  0  0  0  0  0
  184.3820  178.9260  139.1260 C   0  0  0  0  0  2  0  0  0  0  0  0
  183.1140  174.2710  136.6420 C   0  0  1  0  0  0  0  0  0  0  0  0
  184.7620  172.0170  136.1550 C   0  0  1  0  0  3  0  0  0  0  0  0
  180.7770  177.1110  135.6100 C   0  0  0  0  0  1  0  0  0  0  0  0
  181.2630  175.9470  136.4470 C   0  0  0  0  0  2  0  0  0  0  0  0
  179.9000  179.4210  142.9100 C   0  0  1  0  0  3  0  0  0  0  0  0
  179.3020  178.9740  144.2410 C   0  0  0  0  0  1  0  0  0  0  0  0
  179.4570  181.2870  141.6320 O   0  0  0  0  0  0  0  0  0  0  0  0
  179.7180  180.8420  142.7100 N   0  0  0  0  0  0  0  0  0  0  0  0
  185.4100  177.8820  142.3430 N   0  0  0  0  0  2  0  0  0  0  0  0
  186.4690  178.2870  143.2560 C   0  0  0  0  0  2  0  0  0  0  0  0
  186.9430  177.0860  144.0590 C   0  0  0  0  0  2  0  0  0  0  0  0
  188.4640  177.0040  144.0840 C   0  0  0  0  0  2  0  0  0  0  0  0
  189.0040  176.3390  142.8240 C   0  0  0  0  0  2  0  0  0  0  0  0
  189.7800  177.3320  141.9670 C   0  0  0  0  0  2  0  0  0  0  0  0
  189.5300  177.0940  140.4810 C   0  0  0  0  0  3  0  0  0  0  0  0
  188.9260  178.2980  139.8300 C   0  0  0  0  0  0  0  0  0  0  0  0
  188.1120  179.0100  140.4730 O   0  0  0  0  0  1  0  0  0  0  0  0
  189.2540  178.6360  138.5210 O   0  0  0  0  0  0  0  0  0  0  0  0
  191.8660  177.3020  140.0670 O   0  0  0  0  0  1  0  0  0  0  0  0
  190.8030  175.6620  138.8700 O   0  0  0  0  0  0  0  0  0  0  0  0
  190.7950  176.7000  139.7930 C   0  0  0  0  0  0  0  0  0  0  0  0
  1  2  1  0  0  0  0
  2  4  2  0  0  0  0
  3  5  1  0  0  0  0
  3  1  2  0  0  0  0
  5  6  2  0  0  0  0
  6 26  1  0  0  0  0
  6  4  1  0  0  0  0
  7 11  1  6  0  0  0
  7 14  1  0  0  0  0
  8 22  1  0  0  0  0
  8 12  1  0  0  0  0
  9  3  1  0  0  0  0
 10 11  1  0  0  0  0
 10 18  1  0  0  0  0
 13 23  1  0  0  0  0
 13 17  1  0  0  0  0
 14 20  2  0  0  0  0
 15 25  1  0  0  0  0
 15 22  1  0  0  0  0
 15  7  1  0  0  0  0
 16 19  1  0  0  0  0
 16 13  1  0  0  0  0
 17 12  1  0  0  0  0
 18 21  1  0  0  0  0
 19  8  1  0  0  0  0
 19 22  1  0  0  0  0
 20  9  2  0  0  0  0
 21  9  1  0  0  0  0
 22  7  1  0  0  0  0
 23  8  1  0  0  0  0
 23 12  1  0  0  0  0
 24 25  1  0  0  0  0
 26 27  1  0  0  0  0
 28 29  2  0  0  0  0
 29 26  1  0  0  0  0
 30  1  1  0  0  0  0
 30 31  1  0  0  0  0
 31 32  1  0  0  0  0
 32 33  1  0  0  0  0
 34 33  1  0  0  0  0
 35 34  1  0  0  0  0
 36 35  1  0  0  0  0
 37 38  1  0  0  0  0
 37 36  1  0  0  0  0
 39 37  2  0  0  0  0
 41 42  2  0  0  0  0
 42 40  1  0  0  0  0
 42 36  1  0  0  0  0
M  END
>  <MODEL>
4

>  <REMARK>
 VINA RESULT:      -7.6      2.051      2.791
  Name = 
  13 active torsions:
  status: ('A' for Active; 'I' for Inactive)
    1  A    between atoms: C_1  and  C_18
    2  A    between atoms: C_1  and  C_21
    3  A    between atoms: C_3  and  C_5
    4  A    between atoms: C_3  and  C_16
    5  A    between atoms: C_3  and  C_34
    6  A    between atoms: C_6  and  N_24
    7  A    between atoms: C_8  and  C_23
    8  A    between atoms: C_15  and  C_29
    9  A    between atoms: C_16  and  C_41
   10  A    between atoms: C_18  and  C_41
   11  A    between atoms: C_21  and  N_24
   12  A    between atoms: N_25  and  C_31
   13  A    between atoms: C_31  and  C_38
                            x       y       z     vdW  Elec       q    Type
                         _______ _______ _______ _____ _____    ______ ____

>  <TORSDO>
F 13

$$$$
=
 OpenBabel11032419093D

 42 48  0  0  1  0  0  0  0  0999 V2000
  185.4060  178.7540  140.4150 C   0  0  0  0  0  0  0  0  0  0  0  0
  186.6620  178.5160  140.9980 C   0  0  0  0  0  3  0  0  0  0  0  0
  184.2460  178.7520  141.2280 C   0  0  0  0  0  0  0  0  0  0  0  0
  186.7770  178.2550  142.3650 C   0  0  0  0  0  3  0  0  0  0  0  0
  184.3810  178.4730  142.6000 C   0  0  0  0  0  3  0  0  0  0  0  0
  185.6320  178.2170  143.1690 C   0  0  0  0  0  0  0  0  0  0  0  0
  181.0190  180.8370  138.2830 C   0  0  1  0  0  0  0  0  0  0  0  0
  180.0690  182.9770  137.6750 C   0  0  1  0  0  0  0  0  0  0  0  0
  182.8970  179.0650  140.6830 C   0  0  0  0  0  0  0  0  0  0  0  0
  179.7320  179.3750  139.9430 C   0  0  0  0  0  2  0  0  0  0  0  0
  179.9570  180.7880  139.4080 C   0  0  0  0  0  2  0  0  0  0  0  0
  181.1360  184.1040  137.4410 C   0  0  1  0  0  3  0  0  0  0  0  0
  180.1670  184.3530  135.7040 C   0  0  2  0  0  3  0  0  0  0  0  0
  182.4660  180.6270  138.6470 C   0  0  0  0  0  3  0  0  0  0  0  0
  180.5100  180.2500  137.0150 C   0  0  1  0  0  3  0  0  0  0  0  0
  179.6460  183.0130  135.2350 C   0  0  0  0  0  2  0  0  0  0  0  0
  181.5100  184.1970  136.0810 O   0  0  0  0  0  0  0  0  0  0  0  0
  180.4420  179.1690  141.2780 C   0  0  0  0  0  2  0  0  0  0  0  0
  179.4930  182.1910  136.5170 C   0  0  1  0  0  3  0  0  0  0  0  0
  182.7570  179.8530  139.6510 C   0  0  0  0  0  0  0  0  0  0  0  0
  181.6840  178.2870  141.1170 C   0  0  0  0  0  2  0  0  0  0  0  0
  180.8370  181.7590  137.0330 C   0  0  1  0  0  0  0  0  0  0  0  0
  179.7300  184.3660  137.1270 C   0  0  1  0  0  3  0  0  0  0  0  0
  181.4490  178.0240  136.4440 C   0  0  0  0  0  1  0  0  0  0  0  0
  181.5600  179.5130  136.1920 C   0  0  0  0  0  2  0  0  0  0  0  0
  185.7210  177.9530  144.6460 C   0  0  1  0  0  3  0  0  0  0  0  0
  187.1670  177.8560  145.1240 C   0  0  0  0  0  1  0  0  0  0  0  0
  185.0750  178.9940  146.5990 O   0  0  0  0  0  0  0  0  0  0  0  0
  184.9880  178.9410  145.4080 N   0  0  0  0  0  0  0  0  0  0  0  0
  185.3040  178.9560  139.0010 N   0  0  0  0  0  2  0  0  0  0  0  0
  185.1740  177.8720  138.0390 C   0  0  0  0  0  2  0  0  0  0  0  0
  186.5520  177.4350  137.5670 C   0  0  0  0  0  2  0  0  0  0  0  0
  187.3860  178.6280  137.1190 C   0  0  0  0  0  2  0  0  0  0  0  0
  188.7050  178.6980  137.8760 C   0  0  0  0  0  2  0  0  0  0  0  0
  189.1080  177.3290  138.4090 C   0  0  0  0  0  2  0  0  0  0  0  0
  190.5710  177.3110  138.8420 C   0  0  0  0  0  3  0  0  0  0  0  0
  190.7000  177.1580  140.3250 C   0  0  0  0  0  0  0  0  0  0  0  0
  189.7270  176.7190  140.9910 O   0  0  0  0  0  1  0  0  0  0  0  0
  191.8830  177.4970  140.9710 O   0  0  0  0  0  0  0  0  0  0  0  0
  192.2610  176.5290  137.3580 O   0  0  0  0  0  0  0  0  0  0  0  0
  190.9840  174.8950  138.3320 O   0  0  0  0  0  1  0  0  0  0  0  0
  191.3150  176.2290  138.1310 C   0  0  0  0  0  0  0  0  0  0  0  0
  1  2  2  0  0  0  0
  1  3  1  0  0  0  0
  2  4  1  0  0  0  0
  3  5  2  0  0  0  0
  4  6  2  0  0  0  0
  5  6  1  0  0  0  0
  6 26  1  0  0  0  0
  7 14  1  1  0  0  0
  7 11  1  0  0  0  0
  9 21  1  0  0  0  0
  9  3  1  0  0  0  0
 10 18  1  0  0  0  0
 11 10  1  0  0  0  0
 12  8  1  0  0  0  0
 13 17  1  0  0  0  0
 13 23  1  0  0  0  0
 14 20  2  0  0  0  0
 15 22  1  0  0  0  0
 15  7  1  0  0  0  0
 16 13  1  0  0  0  0
 16 19  1  0  0  0  0
 17 12  1  0  0  0  0
 19 22  1  0  0  0  0
 19  8  1  0  0  0  0
 20  9  2  0  0  0  0
 21 18  1  0  0  0  0
 22  8  1  0  0  0  0
 22  7  1  0  0  0  0
 23 12  1  0  0  0  0
 23  8  1  0  0  0  0
 25 24  1  0  0  0  0
 25 15  1  0  0  0  0
 26 27  1  0  0  0  0
 26 29  1  0  0  0  0
 29 28  2  0  0  0  0
 30  1  1  0  0  0  0
 31 30  1  0  0  0  0
 32 31  1  0  0  0  0
 33 32  1  0  0  0  0
 33 34  1  0  0  0  0
 34 35  1  0  0  0  0
 35 36  1  0  0  0  0
 36 37  1  0  0  0  0
 37 39  2  0  0  0  0
 37 38  1  0  0  0  0
 40 42  2  0  0  0  0
 42 41  1  0  0  0  0
 42 36  1  0  0  0  0
M  END
>  <MODEL>
5

>  <REMARK>
 VINA RESULT:      -7.4      3.870      7.121
  Name = 
  13 active torsions:
  status: ('A' for Active; 'I' for Inactive)
    1  A    between atoms: C_1  and  C_18
    2  A    between atoms: C_1  and  C_21
    3  A    between atoms: C_3  and  C_5
    4  A    between atoms: C_3  and  C_16
    5  A    between atoms: C_3  and  C_34
    6  A    between atoms: C_6  and  N_24
    7  A    between atoms: C_8  and  C_23
    8  A    between atoms: C_15  and  C_29
    9  A    between atoms: C_16  and  C_41
   10  A    between atoms: C_18  and  C_41
   11  A    between atoms: C_21  and  N_24
   12  A    between atoms: N_25  and  C_31
   13  A    between atoms: C_31  and  C_38
                            x       y       z     vdW  Elec       q    Type
                         _______ _______ _______ _____ _____    ______ ____

>  <TORSDO>
F 13

$$$$
=
 OpenBabel11032419093D

 42 48  0  0  1  0  0  0  0  0999 V2000
  187.2430  177.8790  143.4290 C   0  0  0  0  0  0  0  0  0  0  0  0
  186.4320  177.8750  144.5760 C   0  0  0  0  0  3  0  0  0  0  0  0
  188.6280  177.6090  143.5490 C   0  0  0  0  0  0  0  0  0  0  0  0
  186.9810  177.6310  145.8360 C   0  0  0  0  0  3  0  0  0  0  0  0
  189.1640  177.3800  144.8290 C   0  0  0  0  0  3  0  0  0  0  0  0
  188.3550  177.3980  145.9690 C   0  0  0  0  0  0  0  0  0  0  0  0
  189.8040  176.9150  138.9050 C   0  0  1  0  0  0  0  0  0  0  0  0
  189.9280  175.2210  137.1830 C   0  0  1  0  0  0  0  0  0  0  0  0
  189.5260  177.5310  142.3650 C   0  0  0  0  0  0  0  0  0  0  0  0
  191.9470  177.5020  140.1750 C   0  0  0  0  0  2  0  0  0  0  0  0
  191.2200  176.4570  139.3300 C   0  0  0  0  0  2  0  0  0  0  0  0
  188.6440  174.3240  137.0790 C   0  0  1  0  0  3  0  0  0  0  0  0
  188.7240  174.8210  135.1390 C   0  0  2  0  0  3  0  0  0  0  0  0
  188.7230  176.9790  139.9520 C   0  0  0  0  0  3  0  0  0  0  0  0
  189.8540  177.9770  137.8650 C   0  0  1  0  0  3  0  0  0  0  0  0
  189.2800  176.2220  135.0120 C   0  0  0  0  0  2  0  0  0  0  0  0
  187.7290  174.8280  136.1280 O   0  0  0  0  0  0  0  0  0  0  0  0
  191.9190  177.1330  141.6550 C   0  0  0  0  0  2  0  0  0  0  0  0
  190.1250  176.4140  136.2730 C   0  0  1  0  0  3  0  0  0  0  0  0
  189.0500  177.2570  141.1800 C   0  0  0  0  0  0  0  0  0  0  0  0
  190.9460  178.0240  142.4330 C   0  0  0  0  0  2  0  0  0  0  0  0
  189.2460  176.6120  137.4770 C   0  0  1  0  0  0  0  0  0  0  0  0
  189.6990  174.1920  136.0720 C   0  0  1  0  0  3  0  0  0  0  0  0
  187.6730  178.7190  136.9380 C   0  0  0  0  0  1  0  0  0  0  0  0
  188.7440  179.0170  137.9670 C   0  0  0  0  0  2  0  0  0  0  0  0
  188.9760  177.1170  147.3090 C   0  0  1  0  0  3  0  0  0  0  0  0
  190.4470  176.7300  147.1880 C   0  0  0  0  0  1  0  0  0  0  0  0
  187.9260  178.2390  149.0270 O   0  0  0  0  0  0  0  0  0  0  0  0
  188.8060  178.2300  148.2180 N   0  0  0  0  0  0  0  0  0  0  0  0
  186.6710  178.1950  142.1540 N   0  0  0  0  0  2  0  0  0  0  0  0
  185.7310  179.2860  141.9400 C   0  0  0  0  0  2  0  0  0  0  0  0
  184.8490  178.9760  140.7410 C   0  0  0  0  0  2  0  0  0  0  0  0
  183.4340  178.6160  141.1750 C   0  0  0  0  0  2  0  0  0  0  0  0
  182.9210  177.3910  140.4300 C   0  0  0  0  0  2  0  0  0  0  0  0
  181.4560  177.5550  140.0430 C   0  0  0  0  0  2  0  0  0  0  0  0
  180.7090  178.4180  141.0560 C   0  0  0  0  0  3  0  0  0  0  0  0
  180.0120  179.5620  140.3890 C   0  0  0  0  0  0  0  0  0  0  0  0
  179.1560  179.3330  139.4970 O   0  0  0  0  0  0  0  0  0  0  0  0
  180.3030  180.8730  140.7470 O   0  0  0  0  0  1  0  0  0  0  0  0
  179.3060  178.0180  142.9370 O   0  0  0  0  0  1  0  0  0  0  0  0
  179.3060  176.3660  141.3500 O   0  0  0  0  0  0  0  0  0  0  0  0
  179.7420  177.5910  141.8370 C   0  0  0  0  0  0  0  0  0  0  0  0
  1  3  2  0  0  0  0
  1  2  1  0  0  0  0
  2  4  2  0  0  0  0
  3  5  1  0  0  0  0
  4  6  1  0  0  0  0
  5  6  2  0  0  0  0
  6 26  1  0  0  0  0
  7 11  1  1  0  0  0
  7 14  1  0  0  0  0
  8 22  1  0  0  0  0
  9 21  1  0  0  0  0
  9  3  1  0  0  0  0
 10 18  1  0  0  0  0
 11 10  1  0  0  0  0
 12  8  1  0  0  0  0
 13 23  1  0  0  0  0
 13 17  1  0  0  0  0
 14 20  2  0  0  0  0
 15 25  1  0  0  0  0
 15  7  1  0  0  0  0
 16 13  1  0  0  0  0
 16 19  1  0  0  0  0
 17 12  1  0  0  0  0
 18 21  1  0  0  0  0
 19  8  1  0  0  0  0
 19 22  1  0  0  0  0
 20  9  2  0  0  0  0
 22 15  1  0  0  0  0
 22  7  1  0  0  0  0
 23 12  1  0  0  0  0
 23  8  1  0  0  0  0
 24 25  1  0  0  0  0
 26 29  1  0  0  0  0
 27 26  1  0  0  0  0
 29 28  2  0  0  0  0
 30  1  1  0  0  0  0
 31 30  1  0  0  0  0
 32 33  1  0  0  0  0
 32 31  1  0  0  0  0
 34 33  1  0  0  0  0
 35 34  1  0  0  0  0
 35 36  1  0  0  0  0
 36 42  1  0  0  0  0
 37 39  1  0  0  0  0
 37 36  1  0  0  0  0
 38 37  2  0  0  0  0
 41 42  2  0  0  0  0
 42 40  1  0  0  0  0
M  END
>  <MODEL>
6

>  <REMARK>
 VINA RESULT:      -7.4      3.713      8.220
  Name = 
  13 active torsions:
  status: ('A' for Active; 'I' for Inactive)
    1  A    between atoms: C_1  and  C_18
    2  A    between atoms: C_1  and  C_21
    3  A    between atoms: C_3  and  C_5
    4  A    between atoms: C_3  and  C_16
    5  A    between atoms: C_3  and  C_34
    6  A    between atoms: C_6  and  N_24
    7  A    between atoms: C_8  and  C_23
    8  A    between atoms: C_15  and  C_29
    9  A    between atoms: C_16  and  C_41
   10  A    between atoms: C_18  and  C_41
   11  A    between atoms: C_21  and  N_24
   12  A    between atoms: N_25  and  C_31
   13  A    between atoms: C_31  and  C_38
                            x       y       z     vdW  Elec       q    Type
                         _______ _______ _______ _____ _____    ______ ____

>  <TORSDO>
F 13

$$$$
=
 OpenBabel11032419093D

 42 48  0  0  1  0  0  0  0  0999 V2000
  187.3060  177.8930  143.4340 C   0  0  0  0  0  0  0  0  0  0  0  0
  186.4800  177.8910  144.5700 C   0  0  0  0  0  3  0  0  0  0  0  0
  188.6900  177.6250  143.5730 C   0  0  0  0  0  0  0  0  0  0  0  0
  187.0130  177.6490  145.8380 C   0  0  0  0  0  3  0  0  0  0  0  0
  189.2090  177.3970  144.8600 C   0  0  0  0  0  3  0  0  0  0  0  0
  188.3850  177.4170  145.9900 C   0  0  0  0  0  0  0  0  0  0  0  0
  189.9310  176.8950  138.9510 C   0  0  1  0  0  0  0  0  0  0  0  0
  190.0980  175.1830  137.2500 C   0  0  1  0  0  0  0  0  0  0  0  0
  189.6030  177.5450  142.4000 C   0  0  0  0  0  0  0  0  0  0  0  0
  192.0510  177.5230  140.2410 C   0  0  0  0  0  2  0  0  0  0  0  0
  191.3480  176.4600  139.3980 C   0  0  0  0  0  2  0  0  0  0  0  0
  188.8270  174.2690  137.1400 C   0  0  1  0  0  3  0  0  0  0  0  0
  188.9240  174.7460  135.1960 C   0  0  2  0  0  3  0  0  0  0  0  0
  188.8360  176.9570  139.9840 C   0  0  0  0  0  3  0  0  0  0  0  0
  189.9800  177.9460  137.9000 C   0  0  1  0  0  3  0  0  0  0  0  0
  189.4640  176.1520  135.0600 C   0  0  0  0  0  2  0  0  0  0  0  0
  187.9170  174.7510  136.1730 O   0  0  0  0  0  0  0  0  0  0  0  0
  192.0090  177.1690  141.7240 C   0  0  0  0  0  2  0  0  0  0  0  0
  190.2910  176.3690  136.3290 C   0  0  1  0  0  3  0  0  0  0  0  0
  189.1450  177.2510  141.2130 C   0  0  0  0  0  0  0  0  0  0  0  0
  191.0160  178.0570  142.4800 C   0  0  0  0  0  2  0  0  0  0  0  0
  189.3950  176.5690  137.5200 C   0  0  1  0  0  0  0  0  0  0  0  0
  189.8950  174.1400  136.1470 C   0  0  1  0  0  3  0  0  0  0  0  0
  187.8840  178.7470  136.8380 C   0  0  0  0  0  1  0  0  0  0  0  0
  188.8560  178.9720  137.9770 C   0  0  0  0  0  2  0  0  0  0  0  0
  188.9890  177.1390  147.3380 C   0  0  1  0  0  3  0  0  0  0  0  0
  190.4650  176.7670  147.2380 C   0  0  0  0  0  1  0  0  0  0  0  0
  188.0600  178.1560  149.1850 O   0  0  0  0  0  0  0  0  0  0  0  0
  188.7940  178.2480  148.2470 N   0  0  0  0  0  0  0  0  0  0  0  0
  186.7510  178.2070  142.1510 N   0  0  0  0  0  2  0  0  0  0  0  0
  185.7350  179.2270  141.9400 C   0  0  0  0  0  2  0  0  0  0  0  0
  184.5490  178.6270  141.2000 C   0  0  0  0  0  2  0  0  0  0  0  0
  184.4250  179.2040  139.7960 C   0  0  0  0  0  2  0  0  0  0  0  0
  184.7730  178.1660  138.7380 C   0  0  0  0  0  2  0  0  0  0  0  0
  183.6130  177.9530  137.7720 C   0  0  0  0  0  2  0  0  0  0  0  0
  183.8510  176.7380  136.8810 C   0  0  0  0  0  3  0  0  0  0  0  0
  183.7890  175.4650  137.6650 C   0  0  0  0  0  0  0  0  0  0  0  0
  182.8040  175.2450  138.4170 O   0  0  0  0  0  1  0  0  0  0  0  0
  184.8090  174.5250  137.5720 O   0  0  0  0  0  0  0  0  0  0  0  0
  182.2310  177.7580  135.4660 O   0  0  0  0  0  1  0  0  0  0  0  0
  182.6770  175.5560  135.0120 O   0  0  0  0  0  0  0  0  0  0  0  0
  182.8710  176.7140  135.7550 C   0  0  0  0  0  0  0  0  0  0  0  0
  1  3  2  0  0  0  0
  1  2  1  0  0  0  0
  2  4  2  0  0  0  0
  3  5  1  0  0  0  0
  4  6  1  0  0  0  0
  5  6  2  0  0  0  0
  6 26  1  0  0  0  0
  7 11  1  1  0  0  0
  7 14  1  0  0  0  0
  8 22  1  0  0  0  0
  9 21  1  0  0  0  0
  9  3  1  0  0  0  0
 10 18  1  0  0  0  0
 11 10  1  0  0  0  0
 12  8  1  0  0  0  0
 13 23  1  0  0  0  0
 13 17  1  0  0  0  0
 14 20  2  0  0  0  0
 15 25  1  0  0  0  0
 15  7  1  0  0  0  0
 16 13  1  0  0  0  0
 16 19  1  0  0  0  0
 17 12  1  0  0  0  0
 18 21  1  0  0  0  0
 19  8  1  0  0  0  0
 19 22  1  0  0  0  0
 20  9  2  0  0  0  0
 22 15  1  0  0  0  0
 22  7  1  0  0  0  0
 23 12  1  0  0  0  0
 23  8  1  0  0  0  0
 24 25  1  0  0  0  0
 26 29  1  0  0  0  0
 27 26  1  0  0  0  0
 29 28  2  0  0  0  0
 30  1  1  0  0  0  0
 31 30  1  0  0  0  0
 32 31  1  0  0  0  0
 33 32  1  0  0  0  0
 34 33  1  0  0  0  0
 35 34  1  0  0  0  0
 36 37  1  0  0  0  0
 36 35  1  0  0  0  0
 37 38  1  0  0  0  0
 39 37  2  0  0  0  0
 40 42  1  0  0  0  0
 41 42  2  0  0  0  0
 42 36  1  0  0  0  0
M  END
>  <MODEL>
7

>  <REMARK>
 VINA RESULT:      -7.3      3.455      8.242
  Name = 
  13 active torsions:
  status: ('A' for Active; 'I' for Inactive)
    1  A    between atoms: C_1  and  C_18
    2  A    between atoms: C_1  and  C_21
    3  A    between atoms: C_3  and  C_5
    4  A    between atoms: C_3  and  C_16
    5  A    between atoms: C_3  and  C_34
    6  A    between atoms: C_6  and  N_24
    7  A    between atoms: C_8  and  C_23
    8  A    between atoms: C_15  and  C_29
    9  A    between atoms: C_16  and  C_41
   10  A    between atoms: C_18  and  C_41
   11  A    between atoms: C_21  and  N_24
   12  A    between atoms: N_25  and  C_31
   13  A    between atoms: C_31  and  C_38
                            x       y       z     vdW  Elec       q    Type
                         _______ _______ _______ _____ _____    ______ ____

>  <TORSDO>
F 13

$$$$
=
 OpenBabel11032419093D

 42 48  0  0  1  0  0  0  0  0999 V2000
  184.3880  178.5860  142.8920 C   0  0  0  0  0  0  0  0  0  0  0  0
  183.0250  178.8120  143.1420 C   0  0  0  0  0  3  0  0  0  0  0  0
  184.8620  178.5750  141.5570 C   0  0  0  0  0  0  0  0  0  0  0  0
  182.1280  179.0040  142.0890 C   0  0  0  0  0  3  0  0  0  0  0  0
  183.9410  178.7560  140.5100 C   0  0  0  0  0  3  0  0  0  0  0  0
  182.5820  178.9600  140.7660 C   0  0  0  0  0  0  0  0  0  0  0  0
  188.6970  177.4390  138.8300 C   0  0  1  0  0  0  0  0  0  0  0  0
  189.8270  175.5770  137.7780 C   0  0  1  0  0  0  0  0  0  0  0  0
  186.3050  178.4090  141.2310 C   0  0  0  0  0  0  0  0  0  0  0  0
  189.5630  178.2490  141.0980 C   0  0  0  0  0  2  0  0  0  0  0  0
  189.5030  177.0900  140.1040 C   0  0  0  0  0  2  0  0  0  0  0  0
  188.8710  174.6200  136.9810 C   0  0  1  0  0  3  0  0  0  0  0  0
  190.1840  174.9090  135.4950 C   0  0  2  0  0  3  0  0  0  0  0  0
  187.2000  177.5680  138.9370 C   0  0  0  0  0  3  0  0  0  0  0  0
  189.4340  178.3840  137.9500 C   0  0  1  0  0  3  0  0  0  0  0  0
  190.7430  176.3110  135.5970 C   0  0  0  0  0  2  0  0  0  0  0  0
  188.7880  174.9800  135.6180 O   0  0  0  0  0  0  0  0  0  0  0  0
  188.5870  178.0390  142.2520 C   0  0  0  0  0  2  0  0  0  0  0  0
  190.6000  176.6730  137.0770 C   0  0  1  0  0  3  0  0  0  0  0  0
  186.6820  177.9890  140.0520 C   0  0  0  0  0  0  0  0  0  0  0  0
  187.3740  178.9670  142.1310 C   0  0  0  0  0  2  0  0  0  0  0  0
  189.1640  176.9610  137.4170 C   0  0  1  0  0  0  0  0  0  0  0  0
  190.3210  174.4260  136.8960 C   0  0  1  0  0  3  0  0  0  0  0  0
  187.8000  178.6690  136.1030 C   0  0  0  0  0  1  0  0  0  0  0  0
  188.5500  179.3800  137.2090 C   0  0  0  0  0  2  0  0  0  0  0  0
  181.6470  179.1770  139.6090 C   0  0  1  0  0  3  0  0  0  0  0  0
  182.1250  180.2960  138.6880 C   0  0  0  0  0  1  0  0  0  0  0  0
  180.7440  177.9410  137.8860 O   0  0  0  0  0  0  0  0  0  0  0  0
  181.4250  177.9540  138.8680 N   0  0  0  0  0  0  0  0  0  0  0  0
  185.2790  178.3280  143.9830 N   0  0  0  0  0  2  0  0  0  0  0  0
  184.9880  178.6850  145.3640 C   0  0  0  0  0  2  0  0  0  0  0  0
  186.1840  178.3550  146.2430 C   0  0  0  0  0  2  0  0  0  0  0  0
  187.2140  177.5270  145.4860 C   0  0  0  0  0  2  0  0  0  0  0  0
  188.3750  177.1280  146.3870 C   0  0  0  0  0  2  0  0  0  0  0  0
  189.6720  177.7910  145.9400 C   0  0  0  0  0  2  0  0  0  0  0  0
  190.6840  176.7570  145.4550 C   0  0  0  0  0  3  0  0  0  0  0  0
  191.4480  177.2560  144.2690 C   0  0  0  0  0  0  0  0  0  0  0  0
  191.6800  176.4800  143.3070 O   0  0  0  0  0  0  0  0  0  0  0  0
  191.9030  178.5690  144.2210 O   0  0  0  0  0  1  0  0  0  0  0  0
  192.3530  175.3650  146.4270 O   0  0  0  0  0  0  0  0  0  0  0  0
  191.6810  177.1330  147.7210 O   0  0  0  0  0  1  0  0  0  0  0  0
  191.6130  176.3740  146.5590 C   0  0  0  0  0  0  0  0  0  0  0  0
  1  2  1  0  0  0  0
  1 30  1  0  0  0  0
  3  1  2  0  0  0  0
  4  2  2  0  0  0  0
  5  6  2  0  0  0  0
  5  3  1  0  0  0  0
  6  4  1  0  0  0  0
  7 14  1  1  0  0  0
  7 11  1  0  0  0  0
  9  3  1  0  0  0  0
  9 21  1  0  0  0  0
 10 18  1  0  0  0  0
 11 10  1  0  0  0  0
 12  8  1  0  0  0  0
 13 16  1  0  0  0  0
 13 17  1  0  0  0  0
 13 23  1  0  0  0  0
 14 20  2  0  0  0  0
 15  7  1  0  0  0  0
 16 19  1  0  0  0  0
 17 12  1  0  0  0  0
 19 22  1  0  0  0  0
 19  8  1  0  0  0  0
 20  9  2  0  0  0  0
 21 18  1  0  0  0  0
 22  8  1  0  0  0  0
 22 15  1  0  0  0  0
 22  7  1  0  0  0  0
 23 12  1  0  0  0  0
 23  8  1  0  0  0  0
 24 25  1  0  0  0  0
 25 15  1  0  0  0  0
 26  6  1  0  0  0  0
 27 26  1  0  0  0  0
 28 29  2  0  0  0  0
 29 26  1  0  0  0  0
 30 31  1  0  0  0  0
 31 32  1  0  0  0  0
 33 32  1  0  0  0  0
 33 34  1  0  0  0  0
 35 34  1  0  0  0  0
 36 35  1  0  0  0  0
 36 42  1  0  0  0  0
 37 36  1  0  0  0  0
 38 37  2  0  0  0  0
 39 37  1  0  0  0  0
 40 42  2  0  0  0  0
 42 41  1  0  0  0  0
M  END
>  <MODEL>
8

>  <REMARK>
 VINA RESULT:      -7.1      3.508      4.826
  Name = 
  13 active torsions:
  status: ('A' for Active; 'I' for Inactive)
    1  A    between atoms: C_1  and  C_18
    2  A    between atoms: C_1  and  C_21
    3  A    between atoms: C_3  and  C_5
    4  A    between atoms: C_3  and  C_16
    5  A    between atoms: C_3  and  C_34
    6  A    between atoms: C_6  and  N_24
    7  A    between atoms: C_8  and  C_23
    8  A    between atoms: C_15  and  C_29
    9  A    between atoms: C_16  and  C_41
   10  A    between atoms: C_18  and  C_41
   11  A    between atoms: C_21  and  N_24
   12  A    between atoms: N_25  and  C_31
   13  A    between atoms: C_31  and  C_38
                            x       y       z     vdW  Elec       q    Type
                         _______ _______ _______ _____ _____    ______ ____

>  <TORSDO>
F 13

$$$$
=
 OpenBabel11032419093D

 42 48  0  0  1  0  0  0  0  0999 V2000
  189.0160  177.6930  139.2460 C   0  0  0  0  0  0  0  0  0  0  0  0
  190.1280  177.6870  140.1040 C   0  0  0  0  0  3  0  0  0  0  0  0
  189.0840  177.0080  138.0080 C   0  0  0  0  0  0  0  0  0  0  0  0
  191.3060  177.0320  139.7410 C   0  0  0  0  0  3  0  0  0  0  0  0
  190.2840  176.3660  137.6540 C   0  0  0  0  0  3  0  0  0  0  0  0
  191.3940  176.3820  138.5040 C   0  0  0  0  0  0  0  0  0  0  0  0
  184.9850  175.1790  136.1930 C   0  0  1  0  0  0  0  0  0  0  0  0
  184.0800  173.2520  135.0450 C   0  0  1  0  0  0  0  0  0  0  0  0
  187.9180  176.9190  137.0870 C   0  0  0  0  0  0  0  0  0  0  0  0
  185.6140  177.2290  134.7950 C   0  0  0  0  0  2  0  0  0  0  0  0
  185.3600  175.7220  134.7930 C   0  0  0  0  0  2  0  0  0  0  0  0
  184.5160  171.8780  135.6660 C   0  0  1  0  0  3  0  0  0  0  0  0
  182.5480  171.5040  135.6630 C   0  0  2  0  0  3  0  0  0  0  0  0
  186.0570  175.1080  137.2490 C   0  0  0  0  0  3  0  0  0  0  0  0
  183.6130  175.5860  136.5950 C   0  0  1  0  0  3  0  0  0  0  0  0
  181.7990  172.7970  135.8990 C   0  0  0  0  0  2  0  0  0  0  0  0
  183.5770  171.4090  136.6120 O   0  0  0  0  0  0  0  0  0  0  0  0
  187.1080  177.5390  134.7740 C   0  0  0  0  0  2  0  0  0  0  0  0
  182.7530  173.8860  135.4030 C   0  0  1  0  0  3  0  0  0  0  0  0
  187.0160  175.9860  137.2340 C   0  0  0  0  0  0  0  0  0  0  0  0
  187.5910  178.0410  136.1380 C   0  0  0  0  0  2  0  0  0  0  0  0
  183.8860  174.0830  136.3710 C   0  0  1  0  0  0  0  0  0  0  0  0
  183.5110  171.9010  134.6010 C   0  0  1  0  0  3  0  0  0  0  0  0
  183.4430  177.3480  138.3350 C   0  0  0  0  0  1  0  0  0  0  0  0
  183.4430  175.8550  138.0860 C   0  0  0  0  0  2  0  0  0  0  0  0
  192.6420  175.6540  138.0880 C   0  0  1  0  0  3  0  0  0  0  0  0
  192.3300  174.3970  137.2820 C   0  0  0  0  0  1  0  0  0  0  0  0
  194.5870  176.1140  136.9400 O   0  0  0  0  0  0  0  0  0  0  0  0
  193.5470  176.5220  137.3660 N   0  0  0  0  0  0  0  0  0  0  0  0
  187.8400  178.4250  139.6090 N   0  0  0  0  0  2  0  0  0  0  0  0
  187.3920  178.6010  140.9830 C   0  0  0  0  0  2  0  0  0  0  0  0
  185.8720  178.6100  141.0310 C   0  0  0  0  0  2  0  0  0  0  0  0
  185.3640  179.2550  142.3130 C   0  0  0  0  0  2  0  0  0  0  0  0
  185.1540  178.2200  143.4100 C   0  0  0  0  0  2  0  0  0  0  0  0
  185.8880  178.6130  144.6860 C   0  0  0  0  0  2  0  0  0  0  0  0
  186.7800  177.4790  145.1840 C   0  0  0  0  0  3  0  0  0  0  0  0
  187.9980  177.3270  144.3280 C   0  0  0  0  0  0  0  0  0  0  0  0
  188.0350  176.4230  143.4550 O   0  0  0  0  0  0  0  0  0  0  0  0
  189.0880  178.1750  144.4900 O   0  0  0  0  0  1  0  0  0  0  0  0
  186.6900  178.6850  147.2350 O   0  0  0  0  0  0  0  0  0  0  0  0
  188.0110  176.8140  147.2600 O   0  0  0  0  0  1  0  0  0  0  0  0
  187.1600  177.6990  146.6110 C   0  0  0  0  0  0  0  0  0  0  0  0
  1 30  1  0  0  0  0
  1  2  1  0  0  0  0
  3  1  2  0  0  0  0
  4  2  2  0  0  0  0
  5  3  1  0  0  0  0
  5  6  2  0  0  0  0
  6  4  1  0  0  0  0
  7 11  1  6  0  0  0
  7 22  1  0  0  0  0
  7 15  1  0  0  0  0
  7 14  1  0  0  0  0
  8 19  1  0  0  0  0
  8 12  1  0  0  0  0
  8 22  1  0  0  0  0
  9 20  2  0  0  0  0
  9  3  1  0  0  0  0
 11 10  1  0  0  0  0
 12 17  1  0  0  0  0
 13 16  1  0  0  0  0
 13 17  1  0  0  0  0
 15 25  1  0  0  0  0
 18 10  1  0  0  0  0
 18 21  1  0  0  0  0
 19 16  1  0  0  0  0
 19 22  1  0  0  0  0
 20 14  2  0  0  0  0
 21  9  1  0  0  0  0
 22 15  1  0  0  0  0
 23  8  1  0  0  0  0
 23 13  1  0  0  0  0
 23 12  1  0  0  0  0
 25 24  1  0  0  0  0
 26  6  1  0  0  0  0
 27 26  1  0  0  0  0
 28 29  2  0  0  0  0
 29 26  1  0  0  0  0
 30 31  1  0  0  0  0
 31 32  1  0  0  0  0
 32 33  1  0  0  0  0
 33 34  1  0  0  0  0
 34 35  1  0  0  0  0
 35 36  1  0  0  0  0
 36 42  1  0  0  0  0
 37 39  1  0  0  0  0
 37 36  1  0  0  0  0
 38 37  2  0  0  0  0
 42 40  2  0  0  0  0
 42 41  1  0  0  0  0
M  END
>  <MODEL>
9

>  <REMARK>
 VINA RESULT:      -6.9      3.353      6.291
  Name = 
  13 active torsions:
  status: ('A' for Active; 'I' for Inactive)
    1  A    between atoms: C_1  and  C_18
    2  A    between atoms: C_1  and  C_21
    3  A    between atoms: C_3  and  C_5
    4  A    between atoms: C_3  and  C_16
    5  A    between atoms: C_3  and  C_34
    6  A    between atoms: C_6  and  N_24
    7  A    between atoms: C_8  and  C_23
    8  A    between atoms: C_15  and  C_29
    9  A    between atoms: C_16  and  C_41
   10  A    between atoms: C_18  and  C_41
   11  A    between atoms: C_21  and  N_24
   12  A    between atoms: N_25  and  C_31
   13  A    between atoms: C_31  and  C_38
                            x       y       z     vdW  Elec       q    Type
                         _______ _______ _______ _____ _____    ______ ____

>  <TORSDO>
F 13

$$$$
