=
 OpenBabel11032421253D

 34 39  0  0  1  0  0  0  0  0999 V2000
  191.9960  175.5270  137.1400 C   0  0  0  0  0  0  0  0  0  0  0  0
  187.7250  178.7900  136.7670 C   0  0  0  0  0  2  0  0  0  0  0  0
  189.7500  174.7320  136.2560 N   0  0  0  0  0  2  0  0  0  0  0  0
  191.1710  174.8560  136.1130 C   0  0  0  0  0  0  0  0  0  0  0  0
  193.2410  174.3930  134.8150 C   0  0  0  0  0  2  0  0  0  0  0  0
  193.2740  175.8130  136.8940 C   0  0  0  0  0  3  0  0  0  0  0  0
  186.3090  175.9530  136.4810 C   0  0  0  0  0  0  0  0  0  0  0  0
  187.5080  175.2720  137.0600 C   0  0  2  0  0  3  0  0  0  0  0  0
  188.9110  175.6390  136.9360 N   0  0  2  0  0  0  0  0  0  0  0  0
  186.4330  178.3380  137.3240 C   0  0  0  0  0  2  0  0  0  0  0  0
  185.8900  177.1870  136.6020 N   0  0  0  0  0  0  0  0  0  0  0  0
  191.7510  174.3450  135.0220 C   0  0  0  0  0  3  0  0  0  0  0  0
  189.4080  176.9400  137.2860 C   0  0  2  0  0  3  0  0  0  0  0  0
  185.3640  174.9530  136.1340 N   0  0  0  0  0  0  0  0  0  0  0  0
  193.8660  175.4200  135.6500 N   0  0  0  0  0  0  0  0  0  0  0  0
  191.3980  175.8950  138.4510 C   0  0  0  0  0  2  0  0  0  0  0  0
  195.2270  175.8280  135.3600 C   0  0  0  0  0  1  0  0  0  0  0  0
  190.4940  177.1140  138.3200 C   0  0  2  0  0  3  0  0  0  0  0  0
  185.8490  173.8190  136.5110 C   0  0  0  0  0  3  0  0  0  0  0  0
  188.6690  177.9540  136.9930 C   0  0  0  0  0  2  0  0  0  0  0  0
  187.1880  173.9800  137.0690 C   0  0  0  0  0  2  0  0  0  0  0  0
  190.8410  177.6070  141.0620 S   0  0  0  0  0  0  0  0  0  0  0  0
  189.9240  177.4420  139.6640 C   0  0  0  0  0  0  0  0  0  0  0  0
  188.6030  177.6070  139.9060 N   0  0  0  0  0  0  0  0  0  0  0  0
  188.3520  177.8750  141.2150 C   0  0  0  0  0  3  0  0  0  0  0  0
  189.4900  177.9100  142.0150 C   0  0  0  0  0  0  0  0  0  0  0  0
  190.9790  177.1760  145.3210 N   0  0  0  0  0  0  0  0  0  0  0  0
  189.5330  178.1910  143.4820 C   0  0  1  0  0  3  0  0  0  0  0  0
  189.5540  176.6420  144.4290 S   0  0  0  0  0  0  0  0  0  0  0  0
  190.7060  178.9850  143.8180 N   0  0  0  0  0  2  0  0  0  0  0  0
  191.6700  178.0860  144.4280 C   0  0  0  0  0  2  0  0  0  0  0  0
  191.8420  176.0170  145.4870 C   0  0  0  0  0  2  0  0  0  0  0  0
  191.6980  176.9360  147.7350 N   0  0  0  0  0  1  0  0  0  0  0  0
  192.1610  175.8020  146.9570 C   0  0  0  0  0  2  0  0  0  0  0  0
  1 16  1  0  0  0  0
  2 20  1  0  0  0  0
  2 10  1  0  0  0  0
  4  3  1  0  0  0  0
  4  1  1  0  0  0  0
  5 12  1  0  0  0  0
  5 15  1  0  0  0  0
  6  1  2  0  0  0  0
  7 11  2  0  0  0  0
  7  8  1  0  0  0  0
  8 21  1  6  0  0  0
  9  3  1  6  0  0  0
  9  8  1  0  0  0  0
  9 13  1  0  0  0  0
 11 10  1  0  0  0  0
 12  4  2  0  0  0  0
 13 20  1  1  0  0  0
 13 18  1  0  0  0  0
 14  7  1  0  0  0  0
 14 19  2  0  0  0  0
 15  6  1  0  0  0  0
 17 15  1  0  0  0  0
 18 16  1  0  0  0  0
 18 23  1  1  0  0  0
 19 21  1  0  0  0  0
 22 26  1  0  0  0  0
 23 24  2  0  0  0  0
 23 22  1  0  0  0  0
 24 25  1  0  0  0  0
 25 26  2  0  0  0  0
 27 32  1  0  0  0  0
 28 26  1  6  0  0  0
 28 30  1  0  0  0  0
 28 29  1  0  0  0  0
 29 27  1  0  0  0  0
 30 31  1  0  0  0  0
 31 27  1  0  0  0  0
 32 34  1  0  0  0  0
 34 33  1  0  0  0  0
M  END
>  <MODEL>
1

>  <REMARK>
 VINA RESULT:      -7.6      0.000      0.000
  Name = 
  4 active torsions:
  status: ('A' for Active; 'I' for Inactive)
    1  A    between atoms: N_3  and  C_30
    2  A    between atoms: C_8  and  C_27
    3  A    between atoms: C_14  and  C_31
    4  A    between atoms: C_15  and  C_30
                            x       y       z     vdW  Elec       q    Type
                         _______ _______ _______ _____ _____    ______ ____

>  <TORSDO>
F 4

$$$$
=
 OpenBabel11032421253D

 34 39  0  0  1  0  0  0  0  0999 V2000
  180.7740  180.5350  137.4160 C   0  0  0  0  0  0  0  0  0  0  0  0
  184.8840  179.1140  140.5960 C   0  0  0  0  0  2  0  0  0  0  0  0
  180.5660  180.4420  139.9470 N   0  0  0  0  0  2  0  0  0  0  0  0
  180.4020  181.1470  138.7100 C   0  0  0  0  0  0  0  0  0  0  0  0
  179.6510  183.1760  137.4840 C   0  0  0  0  0  2  0  0  0  0  0  0
  180.8080  181.2740  136.3090 C   0  0  0  0  0  3  0  0  0  0  0  0
  182.4550  178.8320  142.6340 C   0  0  0  0  0  0  0  0  0  0  0  0
  181.4800  178.7940  141.5010 C   0  0  2  0  0  3  0  0  0  0  0  0
  181.5540  179.4710  140.2150 N   0  0  2  0  0  0  0  0  0  0  0  0
  184.6600  178.0870  141.6340 C   0  0  0  0  0  2  0  0  0  0  0  0
  183.7310  178.5390  142.6700 N   0  0  0  0  0  0  0  0  0  0  0  0
  179.8970  182.3850  138.7400 C   0  0  0  0  0  3  0  0  0  0  0  0
  182.6770  179.3400  139.3300 C   0  0  2  0  0  3  0  0  0  0  0  0
  181.7180  178.7760  143.8460 N   0  0  0  0  0  0  0  0  0  0  0  0
  180.4300  182.6550  136.3600 N   0  0  0  0  0  0  0  0  0  0  0  0
  181.1210  179.0900  137.3490 C   0  0  0  0  0  2  0  0  0  0  0  0
  180.5700  183.4680  135.1670 C   0  0  0  0  0  1  0  0  0  0  0  0
  182.5090  178.8320  137.9180 C   0  0  2  0  0  3  0  0  0  0  0  0
  180.4750  178.6400  143.5330 C   0  0  0  0  0  3  0  0  0  0  0  0
  183.8490  179.2990  139.8640 C   0  0  0  0  0  2  0  0  0  0  0  0
  180.2900  178.6700  142.0860 C   0  0  0  0  0  2  0  0  0  0  0  0
  183.7500  176.6760  136.6150 S   0  0  0  0  0  0  0  0  0  0  0  0
  182.8090  177.3690  137.8230 C   0  0  0  0  0  0  0  0  0  0  0  0
  182.3250  176.4400  138.6790 N   0  0  0  0  0  0  0  0  0  0  0  0
  182.7310  175.1840  138.3540 C   0  0  0  0  0  3  0  0  0  0  0  0
  183.5360  175.1230  137.2200 C   0  0  0  0  0  0  0  0  0  0  0  0
  186.5720  173.3190  136.1240 N   0  0  0  0  0  0  0  0  0  0  0  0
  184.1390  173.8920  136.6280 C   0  0  1  0  0  3  0  0  0  0  0  0
  185.3510  174.3250  135.3470 S   0  0  0  0  0  0  0  0  0  0  0  0
  184.7840  173.0900  137.6580 N   0  0  0  0  0  2  0  0  0  0  0  0
  186.2160  173.3000  137.5290 C   0  0  0  0  0  2  0  0  0  0  0  0
  187.8400  174.0250  136.0230 C   0  0  0  0  0  2  0  0  0  0  0  0
  189.8190  174.1380  137.4350 N   0  0  0  0  0  1  0  0  0  0  0  0
  188.9400  173.2360  136.7130 C   0  0  0  0  0  2  0  0  0  0  0  0
  1  4  1  0  0  0  0
  2 10  1  0  0  0  0
  4 12  2  0  0  0  0
  4  3  1  0  0  0  0
  5 12  1  0  0  0  0
  6 15  1  0  0  0  0
  6  1  2  0  0  0  0
  7 11  2  0  0  0  0
  7 14  1  0  0  0  0
  8 21  1  1  0  0  0
  8  7  1  0  0  0  0
  9  3  1  1  0  0  0
  9  8  1  0  0  0  0
 10 11  1  0  0  0  0
 13 20  1  1  0  0  0
 13  9  1  0  0  0  0
 15  5  1  0  0  0  0
 16  1  1  0  0  0  0
 16 18  1  0  0  0  0
 17 15  1  0  0  0  0
 18 23  1  1  0  0  0
 18 13  1  0  0  0  0
 19 14  2  0  0  0  0
 20  2  1  0  0  0  0
 21 19  1  0  0  0  0
 22 26  1  0  0  0  0
 22 23  1  0  0  0  0
 23 24  2  0  0  0  0
 25 24  1  0  0  0  0
 26 25  2  0  0  0  0
 27 31  1  0  0  0  0
 28 26  1  1  0  0  0
 28 30  1  0  0  0  0
 29 27  1  0  0  0  0
 29 28  1  0  0  0  0
 31 30  1  0  0  0  0
 32 27  1  0  0  0  0
 32 34  1  0  0  0  0
 34 33  1  0  0  0  0
M  END
>  <MODEL>
2

>  <REMARK>
 VINA RESULT:      -6.9      5.683     10.338
  Name = 
  4 active torsions:
  status: ('A' for Active; 'I' for Inactive)
    1  A    between atoms: N_3  and  C_30
    2  A    between atoms: C_8  and  C_27
    3  A    between atoms: C_14  and  C_31
    4  A    between atoms: C_15  and  C_30
                            x       y       z     vdW  Elec       q    Type
                         _______ _______ _______ _____ _____    ______ ____

>  <TORSDO>
F 4

$$$$
=
 OpenBabel11032421253D

 34 39  0  0  1  0  0  0  0  0999 V2000
  189.3930  177.5850  141.3830 C   0  0  0  0  0  0  0  0  0  0  0  0
  189.3150  178.9410  136.1700 C   0  0  0  0  0  2  0  0  0  0  0  0
  190.5360  176.1850  139.5970 N   0  0  0  0  0  2  0  0  0  0  0  0
  190.5770  176.8760  140.8530 C   0  0  0  0  0  0  0  0  0  0  0  0
  191.8310  177.5310  142.8970 C   0  0  0  0  0  2  0  0  0  0  0  0
  189.5080  178.3870  142.4410 C   0  0  0  0  0  3  0  0  0  0  0  0
  190.2480  175.9050  135.9610 C   0  0  0  0  0  0  0  0  0  0  0  0
  189.7580  175.6360  137.3490 C   0  0  2  0  0  3  0  0  0  0  0  0
  189.7310  176.5340  138.4930 N   0  0  2  0  0  0  0  0  0  0  0  0
  188.9310  177.9200  135.1740 C   0  0  0  0  0  2  0  0  0  0  0  0
  189.9000  176.8260  135.0990 N   0  0  0  0  0  0  0  0  0  0  0  0
  191.7170  176.8690  141.5510 C   0  0  0  0  0  3  0  0  0  0  0  0
  189.0980  177.8230  138.4560 C   0  0  2  0  0  3  0  0  0  0  0  0
  190.8400  174.7120  135.4690 N   0  0  0  0  0  0  0  0  0  0  0  0
  190.7730  178.5220  143.1000 N   0  0  0  0  0  0  0  0  0  0  0  0
  188.0670  177.4120  140.7320 C   0  0  0  0  0  2  0  0  0  0  0  0
  190.9030  179.4760  144.1850 C   0  0  0  0  0  1  0  0  0  0  0  0
  187.9940  178.1840  139.4210 C   0  0  2  0  0  3  0  0  0  0  0  0
  190.6780  173.8030  136.3690 C   0  0  0  0  0  3  0  0  0  0  0  0
  189.2160  178.5090  137.3720 C   0  0  0  0  0  2  0  0  0  0  0  0
  190.0290  174.3490  137.5570 C   0  0  0  0  0  2  0  0  0  0  0  0
  186.2870  176.7730  137.6950 S   0  0  0  0  0  0  0  0  0  0  0  0
  186.6440  177.9780  138.8110 C   0  0  0  0  0  0  0  0  0  0  0  0
  185.5710  178.7620  139.0640 N   0  0  0  0  0  0  0  0  0  0  0  0
  184.4740  178.3720  138.3620 C   0  0  0  0  0  3  0  0  0  0  0  0
  184.6900  177.2720  137.5370 C   0  0  0  0  0  0  0  0  0  0  0  0
  183.3440  174.1510  136.0780 N   0  0  0  0  0  0  0  0  0  0  0  0
  183.6790  176.6110  136.6600 C   0  0  1  0  0  3  0  0  0  0  0  0
  184.4740  175.4030  135.5620 S   0  0  0  0  0  0  0  0  0  0  0  0
  182.6600  175.9470  137.4610 N   0  0  0  0  0  2  0  0  0  0  0  0
  182.9480  174.5230  137.4220 C   0  0  0  0  0  2  0  0  0  0  0  0
  184.0980  172.9120  136.1930 C   0  0  0  0  0  2  0  0  0  0  0  0
  186.1780  172.7920  137.4520 N   0  0  0  0  0  1  0  0  0  0  0  0
  184.7310  172.8040  137.5700 C   0  0  0  0  0  2  0  0  0  0  0  0
  1  6  2  0  0  0  0
  2 20  1  0  0  0  0
  3  4  1  0  0  0  0
  4  1  1  0  0  0  0
  4 12  2  0  0  0  0
  5 15  1  0  0  0  0
  6 15  1  0  0  0  0
  7  8  1  0  0  0  0
  8 21  1  1  0  0  0
  8  9  1  0  0  0  0
  9  3  1  6  0  0  0
 10  2  1  0  0  0  0
 11 10  1  0  0  0  0
 11  7  2  0  0  0  0
 12  5  1  0  0  0  0
 13 20  1  6  0  0  0
 13  9  1  0  0  0  0
 13 18  1  0  0  0  0
 14  7  1  0  0  0  0
 14 19  2  0  0  0  0
 15 17  1  0  0  0  0
 16  1  1  0  0  0  0
 18 23  1  6  0  0  0
 18 16  1  0  0  0  0
 19 21  1  0  0  0  0
 22 23  1  0  0  0  0
 23 24  2  0  0  0  0
 25 24  1  0  0  0  0
 26 22  1  0  0  0  0
 26 25  2  0  0  0  0
 27 32  1  0  0  0  0
 27 31  1  0  0  0  0
 28 30  1  0  0  0  0
 28 26  1  1  0  0  0
 29 27  1  0  0  0  0
 29 28  1  0  0  0  0
 31 30  1  0  0  0  0
 32 34  1  0  0  0  0
 33 34  1  0  0  0  0
M  END
>  <MODEL>
3

>  <REMARK>
 VINA RESULT:      -6.3      2.867      7.196
  Name = 
  4 active torsions:
  status: ('A' for Active; 'I' for Inactive)
    1  A    between atoms: N_3  and  C_30
    2  A    between atoms: C_8  and  C_27
    3  A    between atoms: C_14  and  C_31
    4  A    between atoms: C_15  and  C_30
                            x       y       z     vdW  Elec       q    Type
                         _______ _______ _______ _____ _____    ______ ____

>  <TORSDO>
F 4

$$$$
=
 OpenBabel11032421253D

 34 39  0  0  1  0  0  0  0  0999 V2000
  184.6810  178.7720  142.7070 C   0  0  0  0  0  0  0  0  0  0  0  0
  182.0000  175.5940  139.2820 C   0  0  0  0  0  2  0  0  0  0  0  0
  182.2600  179.2010  142.0650 N   0  0  0  0  0  2  0  0  0  0  0  0
  183.2710  179.0340  143.0680 C   0  0  0  0  0  0  0  0  0  0  0  0
  183.9230  179.0020  145.4670 C   0  0  0  0  0  2  0  0  0  0  0  0
  185.5590  178.4170  143.6450 C   0  0  0  0  0  3  0  0  0  0  0  0
  180.0930  178.1420  139.3150 C   0  0  0  0  0  0  0  0  0  0  0  0
  181.1930  178.9850  139.8800 C   0  0  2  0  0  3  0  0  0  0  0  0
  182.2580  178.5970  140.7910 N   0  0  2  0  0  0  0  0  0  0  0  0
  181.2640  176.2140  138.1620 C   0  0  0  0  0  2  0  0  0  0  0  0
  180.1410  177.0330  138.6220 N   0  0  0  0  0  0  0  0  0  0  0  0
  182.9170  179.1220  144.3540 C   0  0  0  0  0  3  0  0  0  0  0  0
  183.1530  177.5060  140.5230 C   0  0  2  0  0  3  0  0  0  0  0  0
  178.9340  178.9530  139.2060 N   0  0  0  0  0  0  0  0  0  0  0  0
  185.1480  178.3400  145.0150 N   0  0  0  0  0  0  0  0  0  0  0  0
  185.1230  178.8960  141.2930 C   0  0  0  0  0  2  0  0  0  0  0  0
  186.0900  177.8550  146.0050 C   0  0  0  0  0  1  0  0  0  0  0  0
  184.6470  177.7120  140.4630 C   0  0  2  0  0  3  0  0  0  0  0  0
  179.2650  180.1470  139.5650 C   0  0  0  0  0  3  0  0  0  0  0  0
  182.6540  176.4540  139.9700 C   0  0  0  0  0  2  0  0  0  0  0  0
  180.6540  180.1950  140.0100 C   0  0  0  0  0  2  0  0  0  0  0  0
  186.7380  177.8770  138.5960 S   0  0  0  0  0  0  0  0  0  0  0  0
  185.1210  177.8850  139.0540 C   0  0  0  0  0  0  0  0  0  0  0  0
  184.3000  178.1010  138.0010 N   0  0  0  0  0  0  0  0  0  0  0  0
  184.9890  178.2470  136.8370 C   0  0  0  0  0  3  0  0  0  0  0  0
  186.3700  178.1540  136.9790 C   0  0  0  0  0  0  0  0  0  0  0  0
  189.5940  177.0370  135.5520 N   0  0  0  0  0  0  0  0  0  0  0  0
  187.3810  178.2600  135.8860 C   0  0  1  0  0  3  0  0  0  0  0  0
  189.0580  178.3720  136.5730 S   0  0  0  0  0  0  0  0  0  0  0  0
  187.2950  177.1130  134.9940 N   0  0  0  0  0  2  0  0  0  0  0  0
  188.4090  176.2370  135.3150 C   0  0  0  0  0  2  0  0  0  0  0  0
  190.4970  176.2210  136.3490 C   0  0  0  0  0  2  0  0  0  0  0  0
  190.7990  175.6310  138.6910 N   0  0  0  0  0  1  0  0  0  0  0  0
  189.8150  175.7810  137.6340 C   0  0  0  0  0  2  0  0  0  0  0  0
  1  4  1  0  0  0  0
  1  6  2  0  0  0  0
  2 20  1  0  0  0  0
  3  4  1  0  0  0  0
  4 12  2  0  0  0  0
  6 15  1  0  0  0  0
  7  8  1  0  0  0  0
  8 21  1  1  0  0  0
  8  9  1  0  0  0  0
  9  3  1  1  0  0  0
 10 11  1  0  0  0  0
 10  2  1  0  0  0  0
 11  7  2  0  0  0  0
 12  5  1  0  0  0  0
 13 20  1  6  0  0  0
 13  9  1  0  0  0  0
 14  7  1  0  0  0  0
 14 19  2  0  0  0  0
 15  5  1  0  0  0  0
 15 17  1  0  0  0  0
 16  1  1  0  0  0  0
 18 23  1  6  0  0  0
 18 13  1  0  0  0  0
 18 16  1  0  0  0  0
 19 21  1  0  0  0  0
 22 23  1  0  0  0  0
 24 23  2  0  0  0  0
 25 26  2  0  0  0  0
 25 24  1  0  0  0  0
 26 22  1  0  0  0  0
 27 32  1  0  0  0  0
 27 29  1  0  0  0  0
 28 29  1  0  0  0  0
 28 26  1  1  0  0  0
 30 31  1  0  0  0  0
 30 28  1  0  0  0  0
 31 27  1  0  0  0  0
 32 34  1  0  0  0  0
 34 33  1  0  0  0  0
M  END
>  <MODEL>
4

>  <REMARK>
 VINA RESULT:      -6.2      4.720      9.044
  Name = 
  4 active torsions:
  status: ('A' for Active; 'I' for Inactive)
    1  A    between atoms: N_3  and  C_30
    2  A    between atoms: C_8  and  C_27
    3  A    between atoms: C_14  and  C_31
    4  A    between atoms: C_15  and  C_30
                            x       y       z     vdW  Elec       q    Type
                         _______ _______ _______ _____ _____    ______ ____

>  <TORSDO>
F 4

$$$$
=
 OpenBabel11032421253D

 34 39  0  0  1  0  0  0  0  0999 V2000
  181.1730  179.0560  140.9850 C   0  0  0  0  0  0  0  0  0  0  0  0
  179.7250  176.4730  136.4840 C   0  0  0  0  0  2  0  0  0  0  0  0
  180.2420  180.2730  138.9580 N   0  0  0  0  0  2  0  0  0  0  0  0
  180.2220  180.0040  140.3660 C   0  0  0  0  0  0  0  0  0  0  0  0
  179.2610  180.4410  142.6170 C   0  0  0  0  0  2  0  0  0  0  0  0
  181.0060  178.6660  142.2480 C   0  0  0  0  0  3  0  0  0  0  0  0
  179.8670  179.4660  135.4100 C   0  0  0  0  0  0  0  0  0  0  0  0
  180.6890  179.8740  136.5910 C   0  0  2  0  0  3  0  0  0  0  0  0
  180.6380  179.3660  137.9530 N   0  0  2  0  0  0  0  0  0  0  0  0
  180.2250  176.9690  135.1860 C   0  0  0  0  0  2  0  0  0  0  0  0
  179.6960  178.2920  134.8550 N   0  0  0  0  0  0  0  0  0  0  0  0
  179.3200  180.6340  141.1260 C   0  0  0  0  0  3  0  0  0  0  0  0
  180.7700  177.9710  138.2690 C   0  0  2  0  0  3  0  0  0  0  0  0
  179.6320  180.6220  134.6210 N   0  0  0  0  0  0  0  0  0  0  0  0
  179.9330  179.2070  143.0260 N   0  0  0  0  0  0  0  0  0  0  0  0
  182.3170  178.5260  140.1950 C   0  0  0  0  0  2  0  0  0  0  0  0
  179.7070  178.6960  144.3640 C   0  0  0  0  0  1  0  0  0  0  0  0
  181.8540  177.4750  139.1950 C   0  0  2  0  0  3  0  0  0  0  0  0
  180.2750  181.5970  135.1680 C   0  0  0  0  0  3  0  0  0  0  0  0
  180.2070  177.1290  137.4730 C   0  0  0  0  0  2  0  0  0  0  0  0
  180.9230  181.1710  136.4050 C   0  0  0  0  0  2  0  0  0  0  0  0
  184.3520  177.9310  137.9980 S   0  0  0  0  0  0  0  0  0  0  0  0
  183.0400  176.9750  138.4330 C   0  0  0  0  0  0  0  0  0  0  0  0
  183.1690  175.7070  137.9790 N   0  0  0  0  0  0  0  0  0  0  0  0
  184.3300  175.5230  137.2960 C   0  0  0  0  0  3  0  0  0  0  0  0
  185.1210  176.6650  137.2030 C   0  0  0  0  0  0  0  0  0  0  0  0
  188.6650  177.7090  137.3720 N   0  0  0  0  0  0  0  0  0  0  0  0
  186.4490  176.7690  136.5290 C   0  0  1  0  0  3  0  0  0  0  0  0
  187.1650  178.4200  136.7760 S   0  0  0  0  0  0  0  0  0  0  0  0
  187.3650  175.7590  137.0390 N   0  0  0  0  0  2  0  0  0  0  0  0
  188.2840  176.4310  137.9410 C   0  0  0  0  0  2  0  0  0  0  0  0
  189.1260  178.5380  138.4750 C   0  0  0  0  0  2  0  0  0  0  0  0
  187.7720  178.7140  140.4890 N   0  0  0  0  0  1  0  0  0  0  0  0
  188.7590  177.9000  139.8040 C   0  0  0  0  0  2  0  0  0  0  0  0
  1  6  2  0  0  0  0
  2 20  1  0  0  0  0
  3  4  1  0  0  0  0
  4  1  1  0  0  0  0
  4 12  2  0  0  0  0
  5 15  1  0  0  0  0
  6 15  1  0  0  0  0
  7  8  1  0  0  0  0
  8 21  1  1  0  0  0
  8  9  1  0  0  0  0
  9 13  1  0  0  0  0
  9  3  1  6  0  0  0
 10  2  1  0  0  0  0
 11 10  1  0  0  0  0
 11  7  2  0  0  0  0
 12  5  1  0  0  0  0
 13 20  1  6  0  0  0
 13 18  1  0  0  0  0
 14 19  2  0  0  0  0
 14  7  1  0  0  0  0
 15 17  1  0  0  0  0
 16  1  1  0  0  0  0
 18 23  1  6  0  0  0
 18 16  1  0  0  0  0
 19 21  1  0  0  0  0
 22 23  1  0  0  0  0
 24 23  2  0  0  0  0
 25 24  1  0  0  0  0
 26 25  2  0  0  0  0
 26 22  1  0  0  0  0
 27 31  1  0  0  0  0
 27 32  1  0  0  0  0
 28 29  1  0  0  0  0
 28 30  1  0  0  0  0
 28 26  1  1  0  0  0
 29 27  1  0  0  0  0
 30 31  1  0  0  0  0
 32 34  1  0  0  0  0
 34 33  1  0  0  0  0
M  END
>  <MODEL>
5

>  <REMARK>
 VINA RESULT:      -6.2      5.838     10.020
  Name = 
  4 active torsions:
  status: ('A' for Active; 'I' for Inactive)
    1  A    between atoms: N_3  and  C_30
    2  A    between atoms: C_8  and  C_27
    3  A    between atoms: C_14  and  C_31
    4  A    between atoms: C_15  and  C_30
                            x       y       z     vdW  Elec       q    Type
                         _______ _______ _______ _____ _____    ______ ____

>  <TORSDO>
F 4

$$$$
=
 OpenBabel11032421253D

 34 39  0  0  1  0  0  0  0  0999 V2000
  181.9410  178.9550  137.4900 C   0  0  0  0  0  0  0  0  0  0  0  0
  187.3020  178.4400  137.6130 C   0  0  0  0  0  2  0  0  0  0  0  0
  183.3110  179.4890  139.5620 N   0  0  0  0  0  2  0  0  0  0  0  0
  182.3220  179.8620  138.5940 C   0  0  0  0  0  0  0  0  0  0  0  0
  180.6600  181.5100  137.7570 C   0  0  0  0  0  2  0  0  0  0  0  0
  181.1800  179.3980  136.4900 C   0  0  0  0  0  3  0  0  0  0  0  0
  186.6700  178.6280  140.7270 C   0  0  0  0  0  0  0  0  0  0  0  0
  185.2340  178.2930  140.4780 C   0  0  2  0  0  3  0  0  0  0  0  0
  184.4080  178.6320  139.3290 N   0  0  2  0  0  0  0  0  0  0  0  0
  187.9210  177.6980  138.7310 C   0  0  0  0  0  2  0  0  0  0  0  0
  187.7390  178.3760  140.0150 N   0  0  0  0  0  0  0  0  0  0  0  0
  181.7380  181.0590  138.7040 C   0  0  0  0  0  3  0  0  0  0  0  0
  184.7780  178.3060  137.9810 C   0  0  2  0  0  3  0  0  0  0  0  0
  186.8290  178.8610  142.1180 N   0  0  0  0  0  0  0  0  0  0  0  0
  180.6840  180.7410  136.5110 N   0  0  0  0  0  0  0  0  0  0  0  0
  182.4150  177.5450  137.4870 C   0  0  0  0  0  2  0  0  0  0  0  0
  179.9420  181.2350  135.3670 C   0  0  0  0  0  1  0  0  0  0  0  0
  183.8860  177.4610  137.1040 C   0  0  2  0  0  3  0  0  0  0  0  0
  185.6910  178.6290  142.6790 C   0  0  0  0  0  3  0  0  0  0  0  0
  186.0230  178.4190  137.6660 C   0  0  0  0  0  2  0  0  0  0  0  0
  184.6740  178.2960  141.6860 C   0  0  0  0  0  2  0  0  0  0  0  0
  185.4580  175.3750  136.0730 S   0  0  0  0  0  0  0  0  0  0  0  0
  184.3090  176.0260  137.1130 C   0  0  0  0  0  0  0  0  0  0  0  0
  183.7860  175.0880  137.9360 N   0  0  0  0  0  0  0  0  0  0  0  0
  184.3290  173.8600  137.7220 C   0  0  0  0  0  3  0  0  0  0  0  0
  185.2840  173.8300  136.7100 C   0  0  0  0  0  0  0  0  0  0  0  0
  188.3970  172.4570  135.2580 N   0  0  0  0  0  0  0  0  0  0  0  0
  186.0580  172.6350  136.2580 C   0  0  1  0  0  3  0  0  0  0  0  0
  186.8180  172.9390  134.6380 S   0  0  0  0  0  0  0  0  0  0  0  0
  187.0910  172.2960  137.2270 N   0  0  0  0  0  2  0  0  0  0  0  0
  188.3570  172.7510  136.6780 C   0  0  0  0  0  2  0  0  0  0  0  0
  189.3820  173.3530  134.6730 C   0  0  0  0  0  2  0  0  0  0  0  0
  189.3100  175.7850  134.7270 N   0  0  0  0  0  1  0  0  0  0  0  0
  189.5380  174.5980  135.5300 C   0  0  0  0  0  2  0  0  0  0  0  0
  1  4  1  0  0  0  0
  2 20  1  0  0  0  0
  2 10  1  0  0  0  0
  4 12  2  0  0  0  0
  4  3  1  0  0  0  0
  5 12  1  0  0  0  0
  6 15  1  0  0  0  0
  6  1  2  0  0  0  0
  7 14  1  0  0  0  0
  8  7  1  0  0  0  0
  8 21  1  1  0  0  0
  9  3  1  6  0  0  0
  9  8  1  0  0  0  0
 10 11  1  0  0  0  0
 11  7  2  0  0  0  0
 13 20  1  1  0  0  0
 13  9  1  0  0  0  0
 14 19  2  0  0  0  0
 15  5  1  0  0  0  0
 16  1  1  0  0  0  0
 17 15  1  0  0  0  0
 18 23  1  1  0  0  0
 18 16  1  0  0  0  0
 18 13  1  0  0  0  0
 21 19  1  0  0  0  0
 22 26  1  0  0  0  0
 22 23  1  0  0  0  0
 23 24  2  0  0  0  0
 25 24  1  0  0  0  0
 26 25  2  0  0  0  0
 27 31  1  0  0  0  0
 28 26  1  1  0  0  0
 28 30  1  0  0  0  0
 29 27  1  0  0  0  0
 29 28  1  0  0  0  0
 31 30  1  0  0  0  0
 32 27  1  0  0  0  0
 32 34  1  0  0  0  0
 33 34  1  0  0  0  0
M  END
>  <MODEL>
6

>  <REMARK>
 VINA RESULT:      -6.2      4.283      9.326
  Name = 
  4 active torsions:
  status: ('A' for Active; 'I' for Inactive)
    1  A    between atoms: N_3  and  C_30
    2  A    between atoms: C_8  and  C_27
    3  A    between atoms: C_14  and  C_31
    4  A    between atoms: C_15  and  C_30
                            x       y       z     vdW  Elec       q    Type
                         _______ _______ _______ _____ _____    ______ ____

>  <TORSDO>
F 4

$$$$
=
 OpenBabel11032421253D

 34 39  0  0  1  0  0  0  0  0999 V2000
  192.3930  175.5220  136.9880 C   0  0  0  0  0  0  0  0  0  0  0  0
  187.5090  177.7610  136.5940 C   0  0  0  0  0  2  0  0  0  0  0  0
  190.3600  174.2190  136.1980 N   0  0  0  0  0  2  0  0  0  0  0  0
  191.7170  174.6410  136.0120 C   0  0  0  0  0  0  0  0  0  0  0  0
  193.8160  174.5790  134.6810 C   0  0  0  0  0  2  0  0  0  0  0  0
  193.5740  176.0660  136.6970 C   0  0  0  0  0  3  0  0  0  0  0  0
  186.7400  174.6750  136.4630 C   0  0  0  0  0  0  0  0  0  0  0  0
  188.0680  174.2970  137.0380 C   0  0  2  0  0  3  0  0  0  0  0  0
  189.3540  174.9540  136.8620 N   0  0  2  0  0  0  0  0  0  0  0  0
  186.3550  177.0670  137.2020 C   0  0  0  0  0  2  0  0  0  0  0  0
  186.0640  175.7930  136.5430 N   0  0  0  0  0  0  0  0  0  0  0  0
  192.3760  174.2190  134.9280 C   0  0  0  0  0  3  0  0  0  0  0  0
  189.5630  176.3460  137.1440 C   0  0  2  0  0  3  0  0  0  0  0  0
  186.0290  173.4790  136.1830 N   0  0  0  0  0  0  0  0  0  0  0  0
  194.2170  175.7540  135.4560 N   0  0  0  0  0  0  0  0  0  0  0  0
  191.7520  175.8130  138.2990 C   0  0  0  0  0  2  0  0  0  0  0  0
  195.4510  176.4330  135.1120 C   0  0  0  0  0  1  0  0  0  0  0  0
  190.6020  176.7990  138.1410 C   0  0  2  0  0  3  0  0  0  0  0  0
  186.7550  172.4960  136.5930 C   0  0  0  0  0  3  0  0  0  0  0  0
  188.6160  177.1610  136.8280 C   0  0  0  0  0  2  0  0  0  0  0  0
  188.0370  172.9680  137.1090 C   0  0  0  0  0  2  0  0  0  0  0  0
  189.0150  178.3750  139.8380 S   0  0  0  0  0  0  0  0  0  0  0  0
  189.9960  177.0570  139.4840 C   0  0  0  0  0  0  0  0  0  0  0  0
  190.2020  176.2770  140.5700 N   0  0  0  0  0  0  0  0  0  0  0  0
  189.5540  176.7490  141.6690 C   0  0  0  0  0  3  0  0  0  0  0  0
  188.8390  177.9220  141.4470 C   0  0  0  0  0  0  0  0  0  0  0  0
  185.5420  178.5070  143.0170 N   0  0  0  0  0  0  0  0  0  0  0  0
  188.0240  178.6660  142.4520 C   0  0  1  0  0  3  0  0  0  0  0  0
  186.4710  179.2480  141.7140 S   0  0  0  0  0  0  0  0  0  0  0  0
  187.7310  177.8210  143.6020 N   0  0  0  0  0  2  0  0  0  0  0  0
  186.3480  177.3930  143.4770 C   0  0  0  0  0  2  0  0  0  0  0  0
  184.3430  177.9380  142.4210 C   0  0  0  0  0  2  0  0  0  0  0  0
  182.8900  178.6710  144.2310 N   0  0  0  0  0  1  0  0  0  0  0  0
  183.1230  178.7600  142.8010 C   0  0  0  0  0  2  0  0  0  0  0  0
  1 16  1  0  0  0  0
  2 20  1  0  0  0  0
  2 10  1  0  0  0  0
  4  3  1  0  0  0  0
  4  1  1  0  0  0  0
  5 12  1  0  0  0  0
  5 15  1  0  0  0  0
  6  1  2  0  0  0  0
  7 11  2  0  0  0  0
  7  8  1  0  0  0  0
  8 21  1  6  0  0  0
  9  3  1  6  0  0  0
  9  8  1  0  0  0  0
  9 13  1  0  0  0  0
 11 10  1  0  0  0  0
 12  4  2  0  0  0  0
 13 20  1  1  0  0  0
 13 18  1  0  0  0  0
 14  7  1  0  0  0  0
 14 19  2  0  0  0  0
 15  6  1  0  0  0  0
 17 15  1  0  0  0  0
 18 16  1  0  0  0  0
 18 23  1  1  0  0  0
 19 21  1  0  0  0  0
 22 26  1  0  0  0  0
 23 22  1  0  0  0  0
 23 24  2  0  0  0  0
 24 25  1  0  0  0  0
 26 25  2  0  0  0  0
 27 31  1  0  0  0  0
 28 26  1  6  0  0  0
 28 30  1  0  0  0  0
 29 28  1  0  0  0  0
 29 27  1  0  0  0  0
 31 30  1  0  0  0  0
 32 34  1  0  0  0  0
 32 27  1  0  0  0  0
 34 33  1  0  0  0  0
M  END
>  <MODEL>
7

>  <REMARK>
 VINA RESULT:      -6.1      2.392      3.462
  Name = 
  4 active torsions:
  status: ('A' for Active; 'I' for Inactive)
    1  A    between atoms: N_3  and  C_30
    2  A    between atoms: C_8  and  C_27
    3  A    between atoms: C_14  and  C_31
    4  A    between atoms: C_15  and  C_30
                            x       y       z     vdW  Elec       q    Type
                         _______ _______ _______ _____ _____    ______ ____

>  <TORSDO>
F 4

$$$$
=
 OpenBabel11032421253D

 34 39  0  0  1  0  0  0  0  0999 V2000
  189.3570  177.6130  141.5150 C   0  0  0  0  0  0  0  0  0  0  0  0
  189.1320  179.0980  136.3420 C   0  0  0  0  0  2  0  0  0  0  0  0
  190.4610  176.2670  139.6650 N   0  0  0  0  0  2  0  0  0  0  0  0
  190.5310  176.9260  140.9360 C   0  0  0  0  0  0  0  0  0  0  0  0
  191.8350  177.5390  142.9620 C   0  0  0  0  0  2  0  0  0  0  0  0
  189.4950  178.3890  142.5900 C   0  0  0  0  0  3  0  0  0  0  0  0
  190.0780  176.0750  136.0320 C   0  0  0  0  0  0  0  0  0  0  0  0
  189.6270  175.7680  137.4250 C   0  0  2  0  0  3  0  0  0  0  0  0
  189.6240  176.6370  138.5910 N   0  0  2  0  0  0  0  0  0  0  0  0
  188.7280  178.1000  135.3310 C   0  0  0  0  0  2  0  0  0  0  0  0
  189.7010  177.0150  135.2020 N   0  0  0  0  0  0  0  0  0  0  0  0
  191.6890  176.9090  141.6030 C   0  0  0  0  0  3  0  0  0  0  0  0
  188.9820  177.9220  138.6040 C   0  0  2  0  0  3  0  0  0  0  0  0
  190.6640  174.8990  135.4950 N   0  0  0  0  0  0  0  0  0  0  0  0
  190.7760  178.5170  143.2180 N   0  0  0  0  0  0  0  0  0  0  0  0
  188.0150  177.4470  140.8950 C   0  0  0  0  0  2  0  0  0  0  0  0
  190.9290  179.4440  144.3220 C   0  0  0  0  0  1  0  0  0  0  0  0
  187.9030  178.2510  139.6070 C   0  0  2  0  0  3  0  0  0  0  0  0
  190.5320  173.9670  136.3750 C   0  0  0  0  0  3  0  0  0  0  0  0
  189.0670  178.6360  137.5350 C   0  0  0  0  0  2  0  0  0  0  0  0
  189.9120  174.4790  137.5930 C   0  0  0  0  0  2  0  0  0  0  0  0
  185.1230  178.6280  139.7280 S   0  0  0  0  0  0  0  0  0  0  0  0
  186.5380  178.0510  139.0280 C   0  0  0  0  0  0  0  0  0  0  0  0
  186.2900  177.3540  137.8950 N   0  0  0  0  0  0  0  0  0  0  0  0
  184.9630  177.3050  137.6030 C   0  0  0  0  0  3  0  0  0  0  0  0
  184.1550  177.9640  138.5260 C   0  0  0  0  0  0  0  0  0  0  0  0
  180.9810  178.6520  140.2960 N   0  0  0  0  0  0  0  0  0  0  0  0
  182.6680  178.0910  138.4680 C   0  0  1  0  0  3  0  0  0  0  0  0
  181.8950  177.2100  139.8540 S   0  0  0  0  0  0  0  0  0  0  0  0
  182.2710  179.4920  138.4980 N   0  0  0  0  0  2  0  0  0  0  0  0
  181.7830  179.7690  139.8380 C   0  0  0  0  0  2  0  0  0  0  0  0
  180.9600  178.7200  141.7490 C   0  0  0  0  0  2  0  0  0  0  0  0
  179.6810  177.8780  143.6400 N   0  0  0  0  0  1  0  0  0  0  0  0
  179.5800  178.3600  142.2740 C   0  0  0  0  0  2  0  0  0  0  0  0
  1  6  2  0  0  0  0
  2 20  1  0  0  0  0
  3  4  1  0  0  0  0
  4  1  1  0  0  0  0
  4 12  2  0  0  0  0
  5 15  1  0  0  0  0
  6 15  1  0  0  0  0
  7  8  1  0  0  0  0
  8 21  1  1  0  0  0
  8  9  1  0  0  0  0
  9 13  1  0  0  0  0
  9  3  1  6  0  0  0
 10  2  1  0  0  0  0
 11 10  1  0  0  0  0
 11  7  2  0  0  0  0
 12  5  1  0  0  0  0
 13 20  1  6  0  0  0
 13 18  1  0  0  0  0
 14  7  1  0  0  0  0
 14 19  2  0  0  0  0
 15 17  1  0  0  0  0
 16  1  1  0  0  0  0
 18 23  1  6  0  0  0
 18 16  1  0  0  0  0
 19 21  1  0  0  0  0
 23 22  1  0  0  0  0
 24 23  2  0  0  0  0
 25 24  1  0  0  0  0
 25 26  2  0  0  0  0
 26 22  1  0  0  0  0
 27 32  1  0  0  0  0
 28 30  1  0  0  0  0
 28 26  1  1  0  0  0
 28 29  1  0  0  0  0
 29 27  1  0  0  0  0
 30 31  1  0  0  0  0
 31 27  1  0  0  0  0
 32 34  1  0  0  0  0
 34 33  1  0  0  0  0
M  END
>  <MODEL>
8

>  <REMARK>
 VINA RESULT:      -6.1      3.830      7.067
  Name = 
  4 active torsions:
  status: ('A' for Active; 'I' for Inactive)
    1  A    between atoms: N_3  and  C_30
    2  A    between atoms: C_8  and  C_27
    3  A    between atoms: C_14  and  C_31
    4  A    between atoms: C_15  and  C_30
                            x       y       z     vdW  Elec       q    Type
                         _______ _______ _______ _____ _____    ______ ____

>  <TORSDO>
F 4

$$$$
=
 OpenBabel11032421253D

 34 39  0  0  1  0  0  0  0  0999 V2000
  181.4620  181.2170  137.9530 C   0  0  0  0  0  0  0  0  0  0  0  0
  181.8460  176.1970  139.8710 C   0  0  0  0  0  2  0  0  0  0  0  0
  181.1850  179.1710  136.4720 N   0  0  0  0  0  2  0  0  0  0  0  0
  180.7070  180.4350  136.9500 C   0  0  0  0  0  0  0  0  0  0  0  0
  179.0030  182.2440  136.8840 C   0  0  0  0  0  2  0  0  0  0  0  0
  180.9050  182.2790  138.5330 C   0  0  0  0  0  3  0  0  0  0  0  0
  182.1090  175.6420  136.7480 C   0  0  0  0  0  0  0  0  0  0  0  0
  182.4440  177.0780  136.4980 C   0  0  2  0  0  3  0  0  0  0  0  0
  181.9710  178.2580  137.2070 N   0  0  2  0  0  0  0  0  0  0  0  0
  182.7190  175.2320  139.1710 C   0  0  0  0  0  2  0  0  0  0  0  0
  182.2320  174.9140  137.8290 N   0  0  0  0  0  0  0  0  0  0  0  0
  179.5530  180.9060  136.4680 C   0  0  0  0  0  3  0  0  0  0  0  0
  182.0970  178.4150  138.6280 C   0  0  2  0  0  3  0  0  0  0  0  0
  182.0670  174.9790  135.4930 N   0  0  0  0  0  0  0  0  0  0  0  0
  179.5910  182.6980  138.1450 N   0  0  0  0  0  0  0  0  0  0  0  0
  182.8440  180.8140  138.3250 C   0  0  0  0  0  2  0  0  0  0  0  0
  178.9630  183.7930  138.8590 C   0  0  0  0  0  1  0  0  0  0  0  0
  182.8360  179.5880  139.2270 C   0  0  2  0  0  3  0  0  0  0  0  0
  182.4050  175.8390  134.5940 C   0  0  0  0  0  3  0  0  0  0  0  0
  181.9080  177.3690  139.3580 C   0  0  0  0  0  2  0  0  0  0  0  0
  182.6240  177.1570  135.1810 C   0  0  0  0  0  2  0  0  0  0  0  0
  185.3340  178.5370  138.4930 S   0  0  0  0  0  0  0  0  0  0  0  0
  184.2460  179.2290  139.5720 C   0  0  0  0  0  0  0  0  0  0  0  0
  184.7900  179.3890  140.8000 N   0  0  0  0  0  0  0  0  0  0  0  0
  186.0800  178.9620  140.8500 C   0  0  0  0  0  3  0  0  0  0  0  0
  186.5530  178.4470  139.6460 C   0  0  0  0  0  0  0  0  0  0  0  0
  189.1870  177.5760  137.2000 N   0  0  0  0  0  0  0  0  0  0  0  0
  187.9250  177.9160  139.3900 C   0  0  1  0  0  3  0  0  0  0  0  0
  187.9010  176.7060  138.0360 S   0  0  0  0  0  0  0  0  0  0  0  0
  188.8420  178.9980  139.0620 N   0  0  0  0  0  2  0  0  0  0  0  0
  189.0560  178.9560  137.6250 C   0  0  0  0  0  2  0  0  0  0  0  0
  188.8770  177.5440  135.7800 C   0  0  0  0  0  2  0  0  0  0  0  0
  186.7960  178.5460  135.0130 N   0  0  0  0  0  1  0  0  0  0  0  0
  187.3850  177.3420  135.5690 C   0  0  0  0  0  2  0  0  0  0  0  0
  1 16  1  0  0  0  0
  1  6  2  0  0  0  0
  3  4  1  0  0  0  0
  4  1  1  0  0  0  0
  5 15  1  0  0  0  0
  7 11  2  0  0  0  0
  8 21  1  6  0  0  0
  8  7  1  0  0  0  0
  8  9  1  0  0  0  0
  9  3  1  1  0  0  0
  9 13  1  0  0  0  0
 10  2  1  0  0  0  0
 11 10  1  0  0  0  0
 12  5  1  0  0  0  0
 12  4  2  0  0  0  0
 13 18  1  0  0  0  0
 13 20  1  6  0  0  0
 14  7  1  0  0  0  0
 15  6  1  0  0  0  0
 15 17  1  0  0  0  0
 16 18  1  0  0  0  0
 18 23  1  6  0  0  0
 19 21  1  0  0  0  0
 19 14  2  0  0  0  0
 20  2  1  0  0  0  0
 22 23  1  0  0  0  0
 22 26  1  0  0  0  0
 23 24  2  0  0  0  0
 24 25  1  0  0  0  0
 26 25  2  0  0  0  0
 27 31  1  0  0  0  0
 27 29  1  0  0  0  0
 28 26  1  6  0  0  0
 29 28  1  0  0  0  0
 30 28  1  0  0  0  0
 31 30  1  0  0  0  0
 32 27  1  0  0  0  0
 33 34  1  0  0  0  0
 34 32  1  0  0  0  0
M  END
>  <MODEL>
9

>  <REMARK>
 VINA RESULT:      -6.0      4.833      9.319
  Name = 
  4 active torsions:
  status: ('A' for Active; 'I' for Inactive)
    1  A    between atoms: N_3  and  C_30
    2  A    between atoms: C_8  and  C_27
    3  A    between atoms: C_14  and  C_31
    4  A    between atoms: C_15  and  C_30
                            x       y       z     vdW  Elec       q    Type
                         _______ _______ _______ _____ _____    ______ ____

>  <TORSDO>
F 4

$$$$
