=
 OpenBabel11032421013D

 46 50  0  0  1  0  0  0  0  0999 V2000
  184.6120  178.5140  147.0500 O   0  0  0  0  0  1  0  0  0  0  0  0
  187.6470  177.5830  145.2380 C   0  0  0  0  0  3  0  0  0  0  0  0
  186.8220  178.2000  146.0800 C   0  0  0  0  0  3  0  0  0  0  0  0
  185.3720  178.4080  145.8900 C   0  0  0  0  0  0  0  0  0  0  0  0
  187.1950  176.9400  143.9690 C   0  0  1  0  0  3  0  0  0  0  0  0
  184.7600  178.5600  144.6920 C   0  0  0  0  0  0  0  0  0  0  0  0
  186.5420  177.9250  143.0560 C   0  0  0  0  0  3  0  0  0  0  0  0
  185.4510  178.6050  143.3870 C   0  0  0  0  0  3  0  0  0  0  0  0
  183.2940  178.8490  144.6510 C   0  0  0  0  0  2  0  0  0  0  0  0
  182.8100  178.9200  143.2070 C   0  0  0  0  0  2  0  0  0  0  0  0
  181.3240  179.2440  143.1430 C   0  0  0  0  0  2  0  0  0  0  0  0
  180.6530  178.4430  142.0360 C   0  0  0  0  0  2  0  0  0  0  0  0
  180.8070  178.8090  139.5410 C   0  0  0  0  0  0  0  0  0  0  0  0
  179.5650  181.3090  139.8070 C   0  0  0  0  0  0  0  0  0  0  0  0
  180.4330  179.2820  140.8160 C   0  0  0  0  0  0  0  0  0  0  0  0
  180.5590  179.6020  138.4110 C   0  0  0  0  0  3  0  0  0  0  0  0
  179.9430  180.8470  138.5440 C   0  0  0  0  0  3  0  0  0  0  0  0
  178.9520  182.5460  139.9390 O   0  0  0  0  0  1  0  0  0  0  0  0
  179.8040  180.5250  140.9380 C   0  0  0  0  0  3  0  0  0  0  0  0
  181.4620  177.4590  139.3850 C   0  0  2  0  0  3  0  0  0  0  0  0
  183.9540  178.0470  139.5160 C   0  0  0  0  0  2  0  0  0  0  0  0
  182.7920  177.5430  138.6900 C   0  0  0  0  0  0  0  0  0  0  0  0
  182.9050  177.1060  137.4150 C   0  0  0  0  0  3  0  0  0  0  0  0
  185.4090  176.8490  137.3060 C   0  0  0  0  0  2  0  0  0  0  0  0
  185.9710  178.0810  138.0150 C   0  0  0  0  0  2  0  0  0  0  0  0
  184.9080  178.9240  138.7250 C   0  0  0  0  0  2  0  0  0  0  0  0
  184.1370  177.1840  136.5420 C   0  0  0  0  0  2  0  0  0  0  0  0
  180.6140  176.5440  138.7490 O   0  0  0  0  0  0  0  0  0  0  0  0
  180.4890  175.4850  139.6460 C   0  0  0  0  0  1  0  0  0  0  0  0
  188.3470  176.2190  143.2690 C   0  0  0  0  0  2  0  0  0  0  0  0
  189.5980  177.0520  143.2100 C   0  0  0  0  0  3  0  0  0  0  0  0
  190.3220  177.1960  142.0950 C   0  0  0  0  0  3  0  0  0  0  0  0
  189.9580  176.5420  140.7890 C   0  0  1  0  0  3  0  0  0  0  0  0
  189.1160  177.3370  139.8740 C   0  0  2  0  0  3  0  0  0  0  0  0
  190.5740  177.2890  139.6790 N   0  0  2  0  0  0  0  0  0  0  0  0
  188.7200  178.7250  140.3640 C   0  0  0  0  0  1  0  0  0  0  0  0
  189.5820  176.4900  137.3060 S   0  0  0  0  0  0  0  0  0  0  0  0
  190.2550  175.0810  136.3450 C   0  0  2  0  0  3  0  0  0  0  0  0
  192.7650  174.2790  137.7880 O   0  0  0  0  0  1  0  0  0  0  0  0
  192.2190  176.6050  138.0220 C   0  0  0  0  0  2  0  0  0  0  0  0
  192.1400  174.2810  135.0750 O   0  0  0  0  0  1  0  0  0  0  0  0
  191.7030  175.3280  135.8900 C   0  0  2  0  0  3  0  0  0  0  0  0
  192.6510  175.4810  137.0840 C   0  0  2  0  0  3  0  0  0  0  0  0
  190.8420  176.3320  138.6170 C   0  0  1  0  0  3  0  0  0  0  0  0
  189.3950  174.6740  135.3020 O   0  0  0  0  0  0  0  0  0  0  0  0
  188.6120  175.7680  134.9020 C   0  0  0  0  0  1  0  0  0  0  0  0
  2  3  2  0  0  0  0
  4  3  1  0  0  0  0
  4  1  1  0  0  0  0
  5 30  1  6  0  0  0
  5  2  1  0  0  0  0
  6  4  2  0  0  0  0
  7  8  2  0  0  0  0
  7  5  1  0  0  0  0
  8  6  1  0  0  0  0
  9  6  1  0  0  0  0
 10  9  1  0  0  0  0
 11 10  1  0  0  0  0
 12 11  1  0  0  0  0
 13 15  1  0  0  0  0
 14 18  1  0  0  0  0
 14 19  1  0  0  0  0
 15 19  2  0  0  0  0
 15 12  1  0  0  0  0
 16 17  1  0  0  0  0
 16 13  2  0  0  0  0
 17 14  2  0  0  0  0
 20 28  1  6  0  0  0
 20 13  1  0  0  0  0
 22 20  1  0  0  0  0
 22 21  1  0  0  0  0
 23 22  2  0  0  0  0
 24 25  1  0  0  0  0
 25 26  1  0  0  0  0
 26 21  1  0  0  0  0
 27 24  1  0  0  0  0
 27 23  1  0  0  0  0
 28 29  1  0  0  0  0
 31 30  1  0  0  0  0
 32 31  2  0  0  0  0
 33 32  1  1  0  0  0
 34 36  1  1  0  0  0
 34 33  1  0  0  0  0
 35 44  1  6  0  0  0
 35 34  1  0  0  0  0
 35 33  1  0  0  0  0
 37 44  1  0  0  0  0
 38 45  1  6  0  0  0
 38 37  1  0  0  0  0
 42 41  1  6  0  0  0
 42 38  1  0  0  0  0
 42 43  1  0  0  0  0
 43 39  1  1  0  0  0
 43 40  1  0  0  0  0
 44 40  1  6  0  0  0
 46 45  1  0  0  0  0
M  END
>  <MODEL>
1

>  <REMARK>
 VINA RESULT:      -8.4      0.000      0.000
  Name = 
  13 active torsions:
  status: ('A' for Active; 'I' for Inactive)
    1  A    between atoms: C_2  and  C_7
    2  A    between atoms: C_2  and  C_18
    3  A    between atoms: C_3  and  O_20
    4  A    between atoms: C_6  and  C_27
    5  A    between atoms: C_7  and  C_12
    6  A    between atoms: C_10  and  C_42
    7  A    between atoms: C_11  and  C_27
    8  A    between atoms: C_12  and  C_24
    9  A    between atoms: C_24  and  C_40
   10  A    between atoms: C_27  and  O_41
   11  A    between atoms: N_28  and  C_38
   12  A    between atoms: C_30  and  C_35
   13  A    between atoms: C_35  and  C_36
                            x       y       z     vdW  Elec       q    Type
                         _______ _______ _______ _____ _____    ______ ____

>  <TORSDO>
F 13

$$$$
=
 OpenBabel11032421013D

 46 50  0  0  1  0  0  0  0  0999 V2000
  188.9980  177.9360  147.0830 O   0  0  0  0  0  1  0  0  0  0  0  0
  185.6610  178.2240  145.6180 C   0  0  0  0  0  3  0  0  0  0  0  0
  186.6520  177.8810  146.4380 C   0  0  0  0  0  3  0  0  0  0  0  0
  188.0710  177.7100  146.0700 C   0  0  0  0  0  0  0  0  0  0  0  0
  185.8650  178.5540  144.1760 C   0  0  1  0  0  3  0  0  0  0  0  0
  188.5150  177.2970  144.8590 C   0  0  0  0  0  0  0  0  0  0  0  0
  186.4660  177.4090  143.4310 C   0  0  0  0  0  3  0  0  0  0  0  0
  187.6510  176.8920  143.7320 C   0  0  0  0  0  3  0  0  0  0  0  0
  189.9800  177.0850  144.6510 C   0  0  0  0  0  2  0  0  0  0  0  0
  190.4940  177.9970  143.5430 C   0  0  0  0  0  2  0  0  0  0  0  0
  190.8990  177.1940  142.3150 C   0  0  0  0  0  2  0  0  0  0  0  0
  189.9500  177.4770  141.1580 C   0  0  0  0  0  2  0  0  0  0  0  0
  189.7980  177.0690  138.6700 C   0  0  0  0  0  0  0  0  0  0  0  0
  192.5610  176.6080  138.5530 C   0  0  0  0  0  0  0  0  0  0  0  0
  190.5760  177.1280  139.8450 C   0  0  0  0  0  0  0  0  0  0  0  0
  190.4160  176.7720  137.4470 C   0  0  0  0  0  3  0  0  0  0  0  0
  191.7910  176.5400  137.3890 C   0  0  0  0  0  3  0  0  0  0  0  0
  193.9280  176.3790  138.4950 O   0  0  0  0  0  1  0  0  0  0  0  0
  191.9560  176.9070  139.7750 C   0  0  0  0  0  3  0  0  0  0  0  0
  188.3130  177.3300  138.7200 C   0  0  2  0  0  3  0  0  0  0  0  0
  187.0900  175.6500  137.2180 C   0  0  0  0  0  2  0  0  0  0  0  0
  187.6370  177.0470  137.4080 C   0  0  0  0  0  0  0  0  0  0  0  0
  187.4830  178.0470  136.5090 C   0  0  0  0  0  3  0  0  0  0  0  0
  185.6790  177.0210  135.0810 C   0  0  0  0  0  2  0  0  0  0  0  0
  186.0810  175.5550  134.9160 C   0  0  0  0  0  2  0  0  0  0  0  0
  187.2600  175.1350  135.7990 C   0  0  0  0  0  2  0  0  0  0  0  0
  186.9010  177.9270  135.1190 C   0  0  0  0  0  2  0  0  0  0  0  0
  188.0310  178.6270  139.1660 O   0  0  0  0  0  0  0  0  0  0  0  0
  186.8370  178.5120  139.8750 C   0  0  0  0  0  1  0  0  0  0  0  0
  184.5630  179.0160  143.5220 C   0  0  0  0  0  2  0  0  0  0  0  0
  183.4890  179.3260  144.5290 C   0  0  0  0  0  3  0  0  0  0  0  0
  182.2050  179.0020  144.3430 C   0  0  0  0  0  3  0  0  0  0  0  0
  181.7050  178.2940  143.1120 C   0  0  1  0  0  3  0  0  0  0  0  0
  180.2440  178.3040  142.9020 C   0  0  2  0  0  3  0  0  0  0  0  0
  181.0970  179.2740  142.1970 N   0  0  2  0  0  0  0  0  0  0  0  0
  179.4200  179.0320  143.9570 C   0  0  0  0  0  1  0  0  0  0  0  0
  181.1000  180.1410  139.6460 S   0  0  0  0  0  0  0  0  0  0  0  0
  181.3110  179.0370  138.1980 C   0  0  2  0  0  3  0  0  0  0  0  0
  182.0080  176.3530  139.3550 O   0  0  0  0  0  1  0  0  0  0  0  0
  182.7050  178.2030  140.7180 C   0  0  0  0  0  2  0  0  0  0  0  0
  182.8460  177.6060  137.0150 O   0  0  0  0  0  1  0  0  0  0  0  0
  182.6890  178.3530  138.1840 C   0  0  2  0  0  3  0  0  0  0  0  0
  182.8790  177.4450  139.4040 C   0  0  2  0  0  3  0  0  0  0  0  0
  181.2990  178.7780  140.8440 C   0  0  1  0  0  3  0  0  0  0  0  0
  180.9810  179.6690  136.9800 O   0  0  0  0  0  0  0  0  0  0  0  0
  180.7890  181.0400  137.2140 C   0  0  0  0  0  1  0  0  0  0  0  0
  2  3  2  0  0  0  0
  4  3  1  0  0  0  0
  4  1  1  0  0  0  0
  5 30  1  6  0  0  0
  5  2  1  0  0  0  0
  6  4  2  0  0  0  0
  7  8  2  0  0  0  0
  7  5  1  0  0  0  0
  8  6  1  0  0  0  0
  9  6  1  0  0  0  0
 10  9  1  0  0  0  0
 11 10  1  0  0  0  0
 12 11  1  0  0  0  0
 13 20  1  0  0  0  0
 13 15  1  0  0  0  0
 14 19  1  0  0  0  0
 15 12  1  0  0  0  0
 16 13  2  0  0  0  0
 17 16  1  0  0  0  0
 17 14  2  0  0  0  0
 18 14  1  0  0  0  0
 19 15  2  0  0  0  0
 20 28  1  6  0  0  0
 21 22  1  0  0  0  0
 22 20  1  0  0  0  0
 23 22  2  0  0  0  0
 24 27  1  0  0  0  0
 25 24  1  0  0  0  0
 25 26  1  0  0  0  0
 26 21  1  0  0  0  0
 27 23  1  0  0  0  0
 28 29  1  0  0  0  0
 30 31  1  0  0  0  0
 32 31  2  0  0  0  0
 33 32  1  1  0  0  0
 34 33  1  0  0  0  0
 34 36  1  1  0  0  0
 35 44  1  6  0  0  0
 35 34  1  0  0  0  0
 35 33  1  0  0  0  0
 37 44  1  0  0  0  0
 38 45  1  6  0  0  0
 38 37  1  0  0  0  0
 42 41  1  6  0  0  0
 42 38  1  0  0  0  0
 42 43  1  0  0  0  0
 43 39  1  6  0  0  0
 43 40  1  0  0  0  0
 44 40  1  1  0  0  0
 45 46  1  0  0  0  0
M  END
>  <MODEL>
2

>  <REMARK>
 VINA RESULT:      -8.1      2.871      8.381
  Name = 
  13 active torsions:
  status: ('A' for Active; 'I' for Inactive)
    1  A    between atoms: C_2  and  C_7
    2  A    between atoms: C_2  and  C_18
    3  A    between atoms: C_3  and  O_20
    4  A    between atoms: C_6  and  C_27
    5  A    between atoms: C_7  and  C_12
    6  A    between atoms: C_10  and  C_42
    7  A    between atoms: C_11  and  C_27
    8  A    between atoms: C_12  and  C_24
    9  A    between atoms: C_24  and  C_40
   10  A    between atoms: C_27  and  O_41
   11  A    between atoms: N_28  and  C_38
   12  A    between atoms: C_30  and  C_35
   13  A    between atoms: C_35  and  C_36
                            x       y       z     vdW  Elec       q    Type
                         _______ _______ _______ _____ _____    ______ ____

>  <TORSDO>
F 13

$$$$
=
 OpenBabel11032421013D

 46 50  0  0  1  0  0  0  0  0999 V2000
  191.6510  177.8740  145.4210 O   0  0  0  0  0  1  0  0  0  0  0  0
  188.1510  177.4060  146.3680 C   0  0  0  0  0  3  0  0  0  0  0  0
  189.4780  177.2990  146.3540 C   0  0  0  0  0  3  0  0  0  0  0  0
  190.3540  177.4360  145.1730 C   0  0  0  0  0  0  0  0  0  0  0  0
  187.3420  177.7520  145.1610 C   0  0  1  0  0  3  0  0  0  0  0  0
  190.0050  177.1130  143.9060 C   0  0  0  0  0  0  0  0  0  0  0  0
  187.5350  176.7540  144.0680 C   0  0  0  0  0  3  0  0  0  0  0  0
  188.7150  176.5120  143.5090 C   0  0  0  0  0  3  0  0  0  0  0  0
  191.0220  177.2220  142.8160 C   0  0  0  0  0  2  0  0  0  0  0  0
  190.5180  176.5350  141.5520 C   0  0  0  0  0  2  0  0  0  0  0  0
  191.0500  177.2260  140.3040 C   0  0  0  0  0  2  0  0  0  0  0  0
  190.1820  176.8890  139.1000 C   0  0  0  0  0  2  0  0  0  0  0  0
  190.4210  176.2760  136.6610 C   0  0  0  0  0  0  0  0  0  0  0  0
  193.2050  176.1050  136.9530 C   0  0  0  0  0  0  0  0  0  0  0  0
  191.0170  176.5080  137.9180 C   0  0  0  0  0  0  0  0  0  0  0  0
  191.2310  175.9520  135.5620 C   0  0  0  0  0  3  0  0  0  0  0  0
  192.6170  175.8650  135.7090 C   0  0  0  0  0  3  0  0  0  0  0  0
  194.5810  176.0200  137.0970 O   0  0  0  0  0  1  0  0  0  0  0  0
  192.4080  176.4310  138.0510 C   0  0  0  0  0  3  0  0  0  0  0  0
  188.9260  176.3800  136.4890 C   0  0  2  0  0  3  0  0  0  0  0  0
  188.8320  173.8540  136.9190 C   0  0  0  0  0  2  0  0  0  0  0  0
  188.2910  175.0550  136.1750 C   0  0  0  0  0  0  0  0  0  0  0  0
  187.2420  175.0050  135.3230 C   0  0  0  0  0  3  0  0  0  0  0  0
  186.3320  172.7400  135.9460 C   0  0  0  0  0  2  0  0  0  0  0  0
  187.5590  171.8430  136.1060 C   0  0  0  0  0  2  0  0  0  0  0  0
  188.8890  172.6020  136.0620 C   0  0  0  0  0  2  0  0  0  0  0  0
  186.5350  173.7600  134.8360 C   0  0  0  0  0  2  0  0  0  0  0  0
  188.5820  177.3460  135.5370 O   0  0  0  0  0  0  0  0  0  0  0  0
  188.3720  178.5140  136.2680 C   0  0  0  0  0  1  0  0  0  0  0  0
  185.8620  177.9090  145.5100 C   0  0  0  0  0  2  0  0  0  0  0  0
  185.3350  179.2800  145.1850 C   0  0  0  0  0  3  0  0  0  0  0  0
  184.6520  179.5490  144.0680 C   0  0  0  0  0  3  0  0  0  0  0  0
  184.3390  178.5090  143.0250 C   0  0  1  0  0  3  0  0  0  0  0  0
  182.9090  178.2310  142.7910 C   0  0  2  0  0  3  0  0  0  0  0  0
  183.6390  179.1430  141.8960 N   0  0  2  0  0  0  0  0  0  0  0  0
  181.9230  179.0340  143.6310 C   0  0  0  0  0  1  0  0  0  0  0  0
  182.5550  177.4210  140.1310 S   0  0  0  0  0  0  0  0  0  0  0  0
  183.5010  176.6230  138.7780 C   0  0  2  0  0  3  0  0  0  0  0  0
  186.1920  177.9580  138.8100 O   0  0  0  0  0  1  0  0  0  0  0  0
  184.4090  179.3600  139.5970 C   0  0  0  0  0  2  0  0  0  0  0  0
  184.6590  176.9910  136.6970 O   0  0  0  0  0  1  0  0  0  0  0  0
  184.0380  177.6460  137.7630 C   0  0  2  0  0  3  0  0  0  0  0  0
  185.0270  178.6200  138.4140 C   0  0  2  0  0  3  0  0  0  0  0  0
  183.9920  178.3930  140.7000 C   0  0  1  0  0  3  0  0  0  0  0  0
  182.8000  175.5510  138.1840 O   0  0  0  0  0  0  0  0  0  0  0  0
  181.4770  175.5530  138.6540 C   0  0  0  0  0  1  0  0  0  0  0  0
  3  2  2  0  0  0  0
  4  1  1  0  0  0  0
  4  3  1  0  0  0  0
  5 30  1  1  0  0  0
  5  2  1  0  0  0  0
  6  4  2  0  0  0  0
  7  5  1  0  0  0  0
  8  6  1  0  0  0  0
  8  7  2  0  0  0  0
  9  6  1  0  0  0  0
 10  9  1  0  0  0  0
 11 10  1  0  0  0  0
 12 11  1  0  0  0  0
 13 15  1  0  0  0  0
 14 18  1  0  0  0  0
 14 19  1  0  0  0  0
 15 19  2  0  0  0  0
 15 12  1  0  0  0  0
 16 17  1  0  0  0  0
 16 13  2  0  0  0  0
 17 14  2  0  0  0  0
 20 28  1  6  0  0  0
 20 13  1  0  0  0  0
 22 20  1  0  0  0  0
 22 21  1  0  0  0  0
 23 22  2  0  0  0  0
 24 25  1  0  0  0  0
 26 25  1  0  0  0  0
 26 21  1  0  0  0  0
 27 23  1  0  0  0  0
 27 24  1  0  0  0  0
 28 29  1  0  0  0  0
 31 30  1  0  0  0  0
 32 31  2  0  0  0  0
 33 32  1  1  0  0  0
 34 33  1  0  0  0  0
 34 36  1  1  0  0  0
 35 44  1  6  0  0  0
 35 34  1  0  0  0  0
 35 33  1  0  0  0  0
 37 44  1  0  0  0  0
 38 45  1  6  0  0  0
 38 37  1  0  0  0  0
 42 41  1  6  0  0  0
 42 43  1  0  0  0  0
 42 38  1  0  0  0  0
 43 39  1  1  0  0  0
 43 40  1  0  0  0  0
 44 40  1  6  0  0  0
 45 46  1  0  0  0  0
M  END
>  <MODEL>
3

>  <REMARK>
 VINA RESULT:      -8.0      3.019      8.257
  Name = 
  13 active torsions:
  status: ('A' for Active; 'I' for Inactive)
    1  A    between atoms: C_2  and  C_7
    2  A    between atoms: C_2  and  C_18
    3  A    between atoms: C_3  and  O_20
    4  A    between atoms: C_6  and  C_27
    5  A    between atoms: C_7  and  C_12
    6  A    between atoms: C_10  and  C_42
    7  A    between atoms: C_11  and  C_27
    8  A    between atoms: C_12  and  C_24
    9  A    between atoms: C_24  and  C_40
   10  A    between atoms: C_27  and  O_41
   11  A    between atoms: N_28  and  C_38
   12  A    between atoms: C_30  and  C_35
   13  A    between atoms: C_35  and  C_36
                            x       y       z     vdW  Elec       q    Type
                         _______ _______ _______ _____ _____    ______ ____

>  <TORSDO>
F 13

$$$$
=
 OpenBabel11032421013D

 46 50  0  0  1  0  0  0  0  0999 V2000
  191.6640  178.0220  145.3910 O   0  0  0  0  0  1  0  0  0  0  0  0
  188.1520  177.1610  145.9260 C   0  0  0  0  0  3  0  0  0  0  0  0
  189.4820  177.1000  145.9470 C   0  0  0  0  0  3  0  0  0  0  0  0
  190.3980  177.6660  144.9370 C   0  0  0  0  0  0  0  0  0  0  0  0
  187.3790  177.8880  144.8760 C   0  0  1  0  0  3  0  0  0  0  0  0
  190.1150  177.8000  143.6200 C   0  0  0  0  0  0  0  0  0  0  0  0
  187.6590  177.3450  143.5140 C   0  0  0  0  0  3  0  0  0  0  0  0
  188.8700  177.3450  142.9700 C   0  0  0  0  0  3  0  0  0  0  0  0
  191.1710  178.3120  142.6940 C   0  0  0  0  0  2  0  0  0  0  0  0
  191.7860  177.1620  141.9050 C   0  0  0  0  0  2  0  0  0  0  0  0
  191.6880  177.4110  140.4060 C   0  0  0  0  0  2  0  0  0  0  0  0
  190.7200  176.4260  139.7660 C   0  0  0  0  0  2  0  0  0  0  0  0
  190.4210  176.1830  137.2700 C   0  0  0  0  0  0  0  0  0  0  0  0
  189.0160  178.6080  137.1790 C   0  0  0  0  0  0  0  0  0  0  0  0
  190.2230  176.9320  138.4490 C   0  0  0  0  0  0  0  0  0  0  0  0
  189.9160  176.6650  136.0530 C   0  0  0  0  0  3  0  0  0  0  0  0
  189.2190  177.8740  136.0080 C   0  0  0  0  0  3  0  0  0  0  0  0
  188.3220  179.8080  137.1340 O   0  0  0  0  0  1  0  0  0  0  0  0
  189.5120  178.1350  138.3950 C   0  0  0  0  0  3  0  0  0  0  0  0
  191.1620  174.8700  137.3100 C   0  0  2  0  0  3  0  0  0  0  0  0
  193.5460  173.9880  137.6420 C   0  0  0  0  0  2  0  0  0  0  0  0
  192.6310  175.0320  137.0420 C   0  0  0  0  0  0  0  0  0  0  0  0
  193.0540  176.0320  136.2360 C   0  0  0  0  0  3  0  0  0  0  0  0
  195.3540  175.1590  135.6940 C   0  0  0  0  0  2  0  0  0  0  0  0
  195.8990  174.6140  137.0140 C   0  0  0  0  0  2  0  0  0  0  0  0
  194.8600  174.5650  138.1380 C   0  0  0  0  0  2  0  0  0  0  0  0
  194.4890  176.3900  135.9200 C   0  0  0  0  0  2  0  0  0  0  0  0
  190.5900  173.9270  136.4470 O   0  0  0  0  0  0  0  0  0  0  0  0
  189.4070  173.5380  137.0730 C   0  0  0  0  0  1  0  0  0  0  0  0
  185.8810  177.8750  145.1790 C   0  0  0  0  0  2  0  0  0  0  0  0
  185.2390  179.2200  144.9760 C   0  0  0  0  0  3  0  0  0  0  0  0
  184.4330  179.4910  143.9440 C   0  0  0  0  0  3  0  0  0  0  0  0
  184.0850  178.4800  142.8840 C   0  0  1  0  0  3  0  0  0  0  0  0
  182.6490  178.3150  142.5870 C   0  0  2  0  0  3  0  0  0  0  0  0
  183.4860  179.1680  141.7290 N   0  0  2  0  0  0  0  0  0  0  0  0
  181.6940  179.1930  143.3880 C   0  0  0  0  0  1  0  0  0  0  0  0
  182.4140  177.3550  140.0500 S   0  0  0  0  0  0  0  0  0  0  0  0
  183.3470  176.5490  138.6930 C   0  0  2  0  0  3  0  0  0  0  0  0
  185.9890  177.9780  138.6040 O   0  0  0  0  0  1  0  0  0  0  0  0
  184.1810  179.3410  139.4030 C   0  0  0  0  0  2  0  0  0  0  0  0
  184.4310  176.8920  136.5690 O   0  0  0  0  0  1  0  0  0  0  0  0
  183.8180  177.5590  137.6320 C   0  0  2  0  0  3  0  0  0  0  0  0
  184.7900  178.5860  138.2240 C   0  0  2  0  0  3  0  0  0  0  0  0
  183.8310  178.3940  140.5450 C   0  0  1  0  0  3  0  0  0  0  0  0
  182.6680  175.4360  138.1530 O   0  0  0  0  0  0  0  0  0  0  0  0
  181.4150  175.8520  137.6760 C   0  0  0  0  0  1  0  0  0  0  0  0
  2  3  2  0  0  0  0
  4  1  1  0  0  0  0
  4  3  1  0  0  0  0
  5 30  1  1  0  0  0
  5  2  1  0  0  0  0
  6  4  2  0  0  0  0
  7  5  1  0  0  0  0
  8  7  2  0  0  0  0
  8  6  1  0  0  0  0
  9  6  1  0  0  0  0
 10  9  1  0  0  0  0
 11 10  1  0  0  0  0
 12 11  1  0  0  0  0
 13 20  1  0  0  0  0
 13 15  1  0  0  0  0
 14 19  1  0  0  0  0
 15 12  1  0  0  0  0
 16 13  2  0  0  0  0
 17 16  1  0  0  0  0
 17 14  2  0  0  0  0
 18 14  1  0  0  0  0
 19 15  2  0  0  0  0
 20 28  1  6  0  0  0
 21 26  1  0  0  0  0
 22 20  1  0  0  0  0
 22 21  1  0  0  0  0
 23 22  2  0  0  0  0
 24 27  1  0  0  0  0
 24 25  1  0  0  0  0
 25 26  1  0  0  0  0
 27 23  1  0  0  0  0
 28 29  1  0  0  0  0
 31 30  1  0  0  0  0
 32 31  2  0  0  0  0
 33 32  1  1  0  0  0
 34 33  1  0  0  0  0
 34 36  1  1  0  0  0
 35 44  1  6  0  0  0
 35 34  1  0  0  0  0
 35 33  1  0  0  0  0
 37 44  1  0  0  0  0
 38 45  1  6  0  0  0
 38 37  1  0  0  0  0
 42 41  1  6  0  0  0
 42 43  1  0  0  0  0
 42 38  1  0  0  0  0
 43 39  1  1  0  0  0
 43 40  1  0  0  0  0
 44 40  1  6  0  0  0
 46 45  1  0  0  0  0
M  END
>  <MODEL>
4

>  <REMARK>
 VINA RESULT:      -7.9      2.972      8.393
  Name = 
  13 active torsions:
  status: ('A' for Active; 'I' for Inactive)
    1  A    between atoms: C_2  and  C_7
    2  A    between atoms: C_2  and  C_18
    3  A    between atoms: C_3  and  O_20
    4  A    between atoms: C_6  and  C_27
    5  A    between atoms: C_7  and  C_12
    6  A    between atoms: C_10  and  C_42
    7  A    between atoms: C_11  and  C_27
    8  A    between atoms: C_12  and  C_24
    9  A    between atoms: C_24  and  C_40
   10  A    between atoms: C_27  and  O_41
   11  A    between atoms: N_28  and  C_38
   12  A    between atoms: C_30  and  C_35
   13  A    between atoms: C_35  and  C_36
                            x       y       z     vdW  Elec       q    Type
                         _______ _______ _______ _____ _____    ______ ____

>  <TORSDO>
F 13

$$$$
=
 OpenBabel11032421013D

 46 50  0  0  1  0  0  0  0  0999 V2000
  184.7350  178.6280  147.0160 O   0  0  0  0  0  1  0  0  0  0  0  0
  187.6680  177.4840  145.1590 C   0  0  0  0  0  3  0  0  0  0  0  0
  186.8990  178.1700  146.0010 C   0  0  0  0  0  3  0  0  0  0  0  0
  185.4570  178.4450  145.8410 C   0  0  0  0  0  0  0  0  0  0  0  0
  187.1500  176.8230  143.9240 C   0  0  1  0  0  3  0  0  0  0  0  0
  184.8210  178.5880  144.6550 C   0  0  0  0  0  0  0  0  0  0  0  0
  186.5230  177.8100  142.9960 C   0  0  0  0  0  3  0  0  0  0  0  0
  185.4760  178.5550  143.3320 C   0  0  0  0  0  3  0  0  0  0  0  0
  183.3710  178.9500  144.6410 C   0  0  0  0  0  2  0  0  0  0  0  0
  182.8240  178.8940  143.2190 C   0  0  0  0  0  2  0  0  0  0  0  0
  181.3310  179.1870  143.1930 C   0  0  0  0  0  2  0  0  0  0  0  0
  180.6140  178.2120  142.2700 C   0  0  0  0  0  2  0  0  0  0  0  0
  180.5590  177.9250  139.7610 C   0  0  0  0  0  0  0  0  0  0  0  0
  180.0770  180.6690  139.4350 C   0  0  0  0  0  0  0  0  0  0  0  0
  180.4830  178.7700  140.8880 C   0  0  0  0  0  0  0  0  0  0  0  0
  180.3990  178.4700  138.4780 C   0  0  0  0  0  3  0  0  0  0  0  0
  180.1620  179.8360  138.3160 C   0  0  0  0  0  3  0  0  0  0  0  0
  179.8410  182.0250  139.2740 O   0  0  0  0  0  1  0  0  0  0  0  0
  180.2320  180.1350  140.7160 C   0  0  0  0  0  3  0  0  0  0  0  0
  180.8020  176.4460  139.9250 C   0  0  2  0  0  3  0  0  0  0  0  0
  180.5540  175.4540  137.5740 C   0  0  0  0  0  2  0  0  0  0  0  0
  181.4620  175.8360  138.7210 C   0  0  0  0  0  0  0  0  0  0  0  0
  182.8100  175.7280  138.6850 C   0  0  0  0  0  3  0  0  0  0  0  0
  183.1160  175.4060  136.2050 C   0  0  0  0  0  2  0  0  0  0  0  0
  182.0050  174.4450  135.7840 C   0  0  0  0  0  2  0  0  0  0  0  0
  180.9770  174.1680  136.8860 C   0  0  0  0  0  2  0  0  0  0  0  0
  183.6330  175.0760  137.5970 C   0  0  0  0  0  2  0  0  0  0  0  0
  179.6260  175.7630  140.2590 O   0  0  0  0  0  0  0  0  0  0  0  0
  180.0440  174.4880  140.6340 C   0  0  0  0  0  1  0  0  0  0  0  0
  188.2440  176.0220  143.2200 C   0  0  0  0  0  2  0  0  0  0  0  0
  189.6280  176.4620  143.6180 C   0  0  0  0  0  3  0  0  0  0  0  0
  190.4090  177.2030  142.8250 C   0  0  0  0  0  3  0  0  0  0  0  0
  189.9840  177.6730  141.4590 C   0  0  1  0  0  3  0  0  0  0  0  0
  191.0590  177.8280  140.4600 C   0  0  2  0  0  3  0  0  0  0  0  0
  190.2350  176.6080  140.4740 N   0  0  2  0  0  0  0  0  0  0  0  0
  192.4680  177.4880  140.9320 C   0  0  0  0  0  1  0  0  0  0  0  0
  188.2350  178.2470  139.7230 S   0  0  0  0  0  0  0  0  0  0  0  0
  187.1200  177.9080  138.3080 C   0  0  2  0  0  3  0  0  0  0  0  0
  188.2910  175.4980  136.9490 O   0  0  0  0  0  1  0  0  0  0  0  0
  189.9180  176.8580  138.0750 C   0  0  0  0  0  2  0  0  0  0  0  0
  186.9760  177.7200  135.9100 O   0  0  0  0  0  1  0  0  0  0  0  0
  187.8750  177.8760  136.9680 C   0  0  2  0  0  3  0  0  0  0  0  0
  188.9120  176.7490  136.9320 C   0  0  2  0  0  3  0  0  0  0  0  0
  189.2300  176.7460  139.4310 C   0  0  1  0  0  3  0  0  0  0  0  0
  185.9830  178.7460  138.2980 O   0  0  0  0  0  0  0  0  0  0  0  0
  185.4500  178.8070  139.5950 C   0  0  0  0  0  1  0  0  0  0  0  0
  2  3  2  0  0  0  0
  4  3  1  0  0  0  0
  4  1  1  0  0  0  0
  5 30  1  6  0  0  0
  5  2  1  0  0  0  0
  6  4  2  0  0  0  0
  7  8  2  0  0  0  0
  7  5  1  0  0  0  0
  8  6  1  0  0  0  0
  9  6  1  0  0  0  0
 10  9  1  0  0  0  0
 11 10  1  0  0  0  0
 12 11  1  0  0  0  0
 13 20  1  0  0  0  0
 13 15  1  0  0  0  0
 14 19  1  0  0  0  0
 15 12  1  0  0  0  0
 16 13  2  0  0  0  0
 17 16  1  0  0  0  0
 17 14  2  0  0  0  0
 18 14  1  0  0  0  0
 19 15  2  0  0  0  0
 20 28  1  6  0  0  0
 21 22  1  0  0  0  0
 22 20  1  0  0  0  0
 23 22  2  0  0  0  0
 24 27  1  0  0  0  0
 25 24  1  0  0  0  0
 25 26  1  0  0  0  0
 26 21  1  0  0  0  0
 27 23  1  0  0  0  0
 28 29  1  0  0  0  0
 30 31  1  0  0  0  0
 32 31  2  0  0  0  0
 33 32  1  1  0  0  0
 34 35  1  0  0  0  0
 34 36  1  1  0  0  0
 34 33  1  0  0  0  0
 35 44  1  6  0  0  0
 35 33  1  0  0  0  0
 38 45  1  6  0  0  0
 38 37  1  0  0  0  0
 42 41  1  6  0  0  0
 42 38  1  0  0  0  0
 43 39  1  1  0  0  0
 43 42  1  0  0  0  0
 43 40  1  0  0  0  0
 44 40  1  6  0  0  0
 44 37  1  0  0  0  0
 45 46  1  0  0  0  0
M  END
>  <MODEL>
5

>  <REMARK>
 VINA RESULT:      -7.8      1.760      2.865
  Name = 
  13 active torsions:
  status: ('A' for Active; 'I' for Inactive)
    1  A    between atoms: C_2  and  C_7
    2  A    between atoms: C_2  and  C_18
    3  A    between atoms: C_3  and  O_20
    4  A    between atoms: C_6  and  C_27
    5  A    between atoms: C_7  and  C_12
    6  A    between atoms: C_10  and  C_42
    7  A    between atoms: C_11  and  C_27
    8  A    between atoms: C_12  and  C_24
    9  A    between atoms: C_24  and  C_40
   10  A    between atoms: C_27  and  O_41
   11  A    between atoms: N_28  and  C_38
   12  A    between atoms: C_30  and  C_35
   13  A    between atoms: C_35  and  C_36
                            x       y       z     vdW  Elec       q    Type
                         _______ _______ _______ _____ _____    ______ ____

>  <TORSDO>
F 13

$$$$
=
 OpenBabel11032421013D

 46 50  0  0  1  0  0  0  0  0999 V2000
  189.0230  177.8670  146.4150 O   0  0  0  0  0  1  0  0  0  0  0  0
  185.5120  178.3110  145.5000 C   0  0  0  0  0  3  0  0  0  0  0  0
  186.6070  177.8810  146.1220 C   0  0  0  0  0  3  0  0  0  0  0  0
  187.9550  177.7530  145.5320 C   0  0  0  0  0  0  0  0  0  0  0  0
  185.5060  178.7980  144.0880 C   0  0  1  0  0  3  0  0  0  0  0  0
  188.2090  177.4770  144.2310 C   0  0  0  0  0  0  0  0  0  0  0  0
  185.9740  177.7430  143.1420 C   0  0  0  0  0  3  0  0  0  0  0  0
  187.1830  177.1970  143.2070 C   0  0  0  0  0  3  0  0  0  0  0  0
  189.6240  177.2910  143.7860 C   0  0  0  0  0  2  0  0  0  0  0  0
  189.8230  177.8820  142.3950 C   0  0  0  0  0  2  0  0  0  0  0  0
  190.0130  176.7860  141.3560 C   0  0  0  0  0  2  0  0  0  0  0  0
  189.4330  177.2190  140.0160 C   0  0  0  0  0  2  0  0  0  0  0  0
  189.8350  176.6920  137.5790 C   0  0  0  0  0  0  0  0  0  0  0  0
  192.5790  176.3870  138.0740 C   0  0  0  0  0  0  0  0  0  0  0  0
  190.3410  176.8480  138.8870 C   0  0  0  0  0  0  0  0  0  0  0  0
  190.7140  176.3770  136.5320 C   0  0  0  0  0  3  0  0  0  0  0  0
  192.0800  176.2230  136.7790 C   0  0  0  0  0  3  0  0  0  0  0  0
  193.9350  176.2350  138.3190 O   0  0  0  0  0  1  0  0  0  0  0  0
  191.7120  176.7050  139.1220 C   0  0  0  0  0  3  0  0  0  0  0  0
  188.3640  176.8690  137.2990 C   0  0  2  0  0  3  0  0  0  0  0  0
  188.5230  174.3510  136.8460 C   0  0  0  0  0  2  0  0  0  0  0  0
  187.6530  175.5580  137.1150 C   0  0  0  0  0  0  0  0  0  0  0  0
  186.3110  175.5020  137.2700 C   0  0  0  0  0  3  0  0  0  0  0  0
  186.0530  173.0160  137.5890 C   0  0  0  0  0  2  0  0  0  0  0  0
  186.9880  172.3790  136.5620 C   0  0  0  0  0  2  0  0  0  0  0  0
  187.9030  173.3830  135.8540 C   0  0  0  0  0  2  0  0  0  0  0  0
  185.4280  174.2940  137.0500 C   0  0  0  0  0  2  0  0  0  0  0  0
  188.1440  177.7230  136.2100 O   0  0  0  0  0  0  0  0  0  0  0  0
  187.7820  178.9430  136.7770 C   0  0  0  0  0  1  0  0  0  0  0  0
  184.1300  179.3280  143.6880 C   0  0  0  0  0  2  0  0  0  0  0  0
  183.0680  179.0030  144.7040 C   0  0  0  0  0  3  0  0  0  0  0  0
  181.8260  178.6420  144.3660 C   0  0  0  0  0  3  0  0  0  0  0  0
  181.3650  178.5220  142.9380 C   0  0  1  0  0  3  0  0  0  0  0  0
  179.9200  178.7060  142.7020 C   0  0  2  0  0  3  0  0  0  0  0  0
  180.8520  179.8230  142.4780 N   0  0  2  0  0  0  0  0  0  0  0  0
  179.0710  178.9980  143.9330 C   0  0  0  0  0  1  0  0  0  0  0  0
  182.1370  178.4900  140.5220 S   0  0  0  0  0  0  0  0  0  0  0  0
  182.2620  179.0910  138.7950 C   0  0  2  0  0  3  0  0  0  0  0  0
  180.4630  181.4940  138.6710 O   0  0  0  0  0  1  0  0  0  0  0  0
  179.7810  179.8610  140.2930 C   0  0  0  0  0  2  0  0  0  0  0  0
  181.0370  179.5430  136.7700 O   0  0  0  0  0  1  0  0  0  0  0  0
  180.8870  179.1830  138.1110 C   0  0  2  0  0  3  0  0  0  0  0  0
  179.9740  180.1930  138.8160 C   0  0  2  0  0  3  0  0  0  0  0  0
  181.1060  179.9010  141.0480 C   0  0  1  0  0  3  0  0  0  0  0  0
  183.2220  178.3820  138.0410 O   0  0  0  0  0  0  0  0  0  0  0  0
  184.4630  178.4600  138.6930 C   0  0  0  0  0  1  0  0  0  0  0  0
  2  3  2  0  0  0  0
  4  3  1  0  0  0  0
  4  1  1  0  0  0  0
  5 30  1  6  0  0  0
  5  2  1  0  0  0  0
  6  4  2  0  0  0  0
  7  8  2  0  0  0  0
  7  5  1  0  0  0  0
  8  6  1  0  0  0  0
  9  6  1  0  0  0  0
 10  9  1  0  0  0  0
 11 10  1  0  0  0  0
 12 11  1  0  0  0  0
 13 15  1  0  0  0  0
 14 18  1  0  0  0  0
 14 19  1  0  0  0  0
 15 19  2  0  0  0  0
 15 12  1  0  0  0  0
 16 17  1  0  0  0  0
 16 13  2  0  0  0  0
 17 14  2  0  0  0  0
 20 28  1  6  0  0  0
 20 13  1  0  0  0  0
 21 22  1  0  0  0  0
 22 23  2  0  0  0  0
 22 20  1  0  0  0  0
 25 24  1  0  0  0  0
 26 25  1  0  0  0  0
 26 21  1  0  0  0  0
 27 23  1  0  0  0  0
 27 24  1  0  0  0  0
 28 29  1  0  0  0  0
 30 31  1  0  0  0  0
 32 31  2  0  0  0  0
 33 32  1  1  0  0  0
 34 33  1  0  0  0  0
 34 36  1  1  0  0  0
 35 44  1  6  0  0  0
 35 34  1  0  0  0  0
 35 33  1  0  0  0  0
 37 44  1  0  0  0  0
 38 45  1  6  0  0  0
 38 37  1  0  0  0  0
 42 41  1  6  0  0  0
 42 38  1  0  0  0  0
 42 43  1  0  0  0  0
 43 39  1  1  0  0  0
 43 40  1  0  0  0  0
 44 40  1  6  0  0  0
 45 46  1  0  0  0  0
M  END
>  <MODEL>
6

>  <REMARK>
 VINA RESULT:      -7.7      2.737      8.822
  Name = 
  13 active torsions:
  status: ('A' for Active; 'I' for Inactive)
    1  A    between atoms: C_2  and  C_7
    2  A    between atoms: C_2  and  C_18
    3  A    between atoms: C_3  and  O_20
    4  A    between atoms: C_6  and  C_27
    5  A    between atoms: C_7  and  C_12
    6  A    between atoms: C_10  and  C_42
    7  A    between atoms: C_11  and  C_27
    8  A    between atoms: C_12  and  C_24
    9  A    between atoms: C_24  and  C_40
   10  A    between atoms: C_27  and  O_41
   11  A    between atoms: N_28  and  C_38
   12  A    between atoms: C_30  and  C_35
   13  A    between atoms: C_35  and  C_36
                            x       y       z     vdW  Elec       q    Type
                         _______ _______ _______ _____ _____    ______ ____

>  <TORSDO>
F 13

$$$$
=
 OpenBabel11032421013D

 46 50  0  0  1  0  0  0  0  0999 V2000
  179.1390  176.7310  140.5200 O   0  0  0  0  0  1  0  0  0  0  0  0
  181.1150  174.5830  138.3190 C   0  0  0  0  0  3  0  0  0  0  0  0
  180.3100  174.9790  139.3020 C   0  0  0  0  0  3  0  0  0  0  0  0
  180.3450  176.2860  139.9870 C   0  0  0  0  0  0  0  0  0  0  0  0
  182.1620  175.4580  137.7110 C   0  0  1  0  0  3  0  0  0  0  0  0
  181.4580  177.0320  140.1800 C   0  0  0  0  0  0  0  0  0  0  0  0
  183.1570  175.9100  138.7270 C   0  0  0  0  0  3  0  0  0  0  0  0
  182.8260  176.6310  139.7930 C   0  0  0  0  0  3  0  0  0  0  0  0
  181.3630  178.2990  140.9680 C   0  0  0  0  0  2  0  0  0  0  0  0
  182.7350  178.9520  141.0870 C   0  0  0  0  0  2  0  0  0  0  0  0
  183.2870  178.8130  142.4990 C   0  0  0  0  0  2  0  0  0  0  0  0
  184.7990  178.6350  142.4630 C   0  0  0  0  0  2  0  0  0  0  0  0
  186.6640  177.8740  143.9870 C   0  0  0  0  0  0  0  0  0  0  0  0
  185.0550  178.3540  146.2330 C   0  0  0  0  0  0  0  0  0  0  0  0
  185.3440  178.3450  143.8260 C   0  0  0  0  0  0  0  0  0  0  0  0
  187.1600  177.6420  145.2780 C   0  0  0  0  0  3  0  0  0  0  0  0
  186.3580  177.8780  146.3960 C   0  0  0  0  0  3  0  0  0  0  0  0
  184.2590  178.5900  147.3440 O   0  0  0  0  0  1  0  0  0  0  0  0
  184.5520  178.5920  144.9530 C   0  0  0  0  0  3  0  0  0  0  0  0
  187.5430  177.6280  142.7870 C   0  0  2  0  0  3  0  0  0  0  0  0
  189.7050  178.5190  143.8380 C   0  0  0  0  0  2  0  0  0  0  0  0
  188.9750  177.3770  143.1670 C   0  0  0  0  0  0  0  0  0  0  0  0
  189.5120  176.1520  142.9670 C   0  0  0  0  0  3  0  0  0  0  0  0
  191.4980  176.3340  144.5060 C   0  0  0  0  0  2  0  0  0  0  0  0
  192.0550  177.7390  144.2810 C   0  0  0  0  0  2  0  0  0  0  0  0
  191.1580  178.6260  143.4120 C   0  0  0  0  0  2  0  0  0  0  0  0
  190.9460  175.7450  143.2170 C   0  0  0  0  0  2  0  0  0  0  0  0
  187.4400  178.6630  141.8500 O   0  0  0  0  0  0  0  0  0  0  0  0
  188.0610  178.1730  140.7030 C   0  0  0  0  0  1  0  0  0  0  0  0
  182.8500  174.7660  136.5350 C   0  0  0  0  0  2  0  0  0  0  0  0
  182.9820  173.2800  136.7350 C   0  0  0  0  0  3  0  0  0  0  0  0
  184.0930  172.7080  137.2090 C   0  0  0  0  0  3  0  0  0  0  0  0
  185.3220  173.4890  137.5910 C   0  0  1  0  0  3  0  0  0  0  0  0
  186.5960  173.0280  137.0060 C   0  0  2  0  0  3  0  0  0  0  0  0
  185.8700  174.1550  136.3970 N   0  0  2  0  0  0  0  0  0  0  0  0
  186.5110  171.8190  136.0820 C   0  0  0  0  0  1  0  0  0  0  0  0
  188.3080  175.2880  136.5570 S   0  0  0  0  0  0  0  0  0  0  0  0
  188.6270  176.9050  137.3580 C   0  0  2  0  0  3  0  0  0  0  0  0
  185.9070  178.0150  137.9890 O   0  0  0  0  0  1  0  0  0  0  0  0
  185.9380  176.5660  136.0750 C   0  0  0  0  0  2  0  0  0  0  0  0
  188.2630  179.2830  137.2170 O   0  0  0  0  0  1  0  0  0  0  0  0
  187.9100  178.0610  136.6400 C   0  0  2  0  0  3  0  0  0  0  0  0
  186.3870  177.8920  136.6820 C   0  0  2  0  0  3  0  0  0  0  0  0
  186.5090  175.3820  136.8480 C   0  0  1  0  0  3  0  0  0  0  0  0
  190.0020  177.1410  137.5780 O   0  0  0  0  0  0  0  0  0  0  0  0
  190.4820  176.2100  138.5120 C   0  0  0  0  0  1  0  0  0  0  0  0
  2  3  2  0  0  0  0
  3  4  1  0  0  0  0
  4  6  2  0  0  0  0
  4  1  1  0  0  0  0
  5 30  1  6  0  0  0
  5  2  1  0  0  0  0
  5  7  1  0  0  0  0
  6  9  1  0  0  0  0
  7  8  2  0  0  0  0
  8  6  1  0  0  0  0
  9 10  1  0  0  0  0
 10 11  1  0  0  0  0
 12 11  1  0  0  0  0
 12 15  1  0  0  0  0
 13 16  1  0  0  0  0
 14 17  1  0  0  0  0
 14 18  1  0  0  0  0
 15 13  2  0  0  0  0
 15 19  1  0  0  0  0
 16 17  2  0  0  0  0
 19 14  2  0  0  0  0
 20 28  1  6  0  0  0
 20 22  1  0  0  0  0
 20 13  1  0  0  0  0
 22 21  1  0  0  0  0
 23 22  2  0  0  0  0
 23 27  1  0  0  0  0
 25 24  1  0  0  0  0
 26 21  1  0  0  0  0
 26 25  1  0  0  0  0
 27 24  1  0  0  0  0
 29 28  1  0  0  0  0
 30 31  1  0  0  0  0
 31 32  2  0  0  0  0
 33 32  1  6  0  0  0
 34 36  1  6  0  0  0
 34 33  1  0  0  0  0
 35 44  1  1  0  0  0
 35 34  1  0  0  0  0
 35 33  1  0  0  0  0
 37 44  1  0  0  0  0
 37 38  1  0  0  0  0
 38 45  1  6  0  0  0
 40 43  1  0  0  0  0
 42 43  1  0  0  0  0
 42 41  1  1  0  0  0
 42 38  1  0  0  0  0
 43 39  1  1  0  0  0
 44 40  1  6  0  0  0
 45 46  1  0  0  0  0
M  END
>  <MODEL>
7

>  <REMARK>
 VINA RESULT:      -7.6      2.618      7.319
  Name = 
  13 active torsions:
  status: ('A' for Active; 'I' for Inactive)
    1  A    between atoms: C_2  and  C_7
    2  A    between atoms: C_2  and  C_18
    3  A    between atoms: C_3  and  O_20
    4  A    between atoms: C_6  and  C_27
    5  A    between atoms: C_7  and  C_12
    6  A    between atoms: C_10  and  C_42
    7  A    between atoms: C_11  and  C_27
    8  A    between atoms: C_12  and  C_24
    9  A    between atoms: C_24  and  C_40
   10  A    between atoms: C_27  and  O_41
   11  A    between atoms: N_28  and  C_38
   12  A    between atoms: C_30  and  C_35
   13  A    between atoms: C_35  and  C_36
                            x       y       z     vdW  Elec       q    Type
                         _______ _______ _______ _____ _____    ______ ____

>  <TORSDO>
F 13

$$$$
=
 OpenBabel11032421013D

 46 50  0  0  1  0  0  0  0  0999 V2000
  179.7910  178.3180  142.5760 O   0  0  0  0  0  1  0  0  0  0  0  0
  183.0660  179.2010  143.9390 C   0  0  0  0  0  3  0  0  0  0  0  0
  181.7800  179.2730  143.6020 C   0  0  0  0  0  3  0  0  0  0  0  0
  181.1430  178.6190  142.4420 C   0  0  0  0  0  0  0  0  0  0  0  0
  184.0630  178.3700  143.2010 C   0  0  1  0  0  3  0  0  0  0  0  0
  181.7560  178.3570  141.2640 C   0  0  0  0  0  0  0  0  0  0  0  0
  184.1680  178.7820  141.7700 C   0  0  0  0  0  3  0  0  0  0  0  0
  183.1430  178.7380  140.9280 C   0  0  0  0  0  3  0  0  0  0  0  0
  180.9650  177.7660  140.1430 C   0  0  0  0  0  2  0  0  0  0  0  0
  181.8970  177.2430  139.0560 C   0  0  0  0  0  2  0  0  0  0  0  0
  181.9760  175.7230  139.0860 C   0  0  0  0  0  2  0  0  0  0  0  0
  181.4800  175.1390  137.7700 C   0  0  0  0  0  2  0  0  0  0  0  0
  182.6520  176.3100  135.8630 C   0  0  0  0  0  0  0  0  0  0  0  0
  180.3760  177.8800  135.3970 C   0  0  0  0  0  0  0  0  0  0  0  0
  181.5100  176.1610  136.6780 C   0  0  0  0  0  0  0  0  0  0  0  0
  182.6410  177.2520  134.8250 C   0  0  0  0  0  3  0  0  0  0  0  0
  181.5090  178.0350  134.5940 C   0  0  0  0  0  3  0  0  0  0  0  0
  179.2510  178.6570  135.1670 O   0  0  0  0  0  1  0  0  0  0  0  0
  180.3760  176.9410  136.4300 C   0  0  0  0  0  3  0  0  0  0  0  0
  183.8760  175.4590  136.0960 C   0  0  2  0  0  3  0  0  0  0  0  0
  186.2630  176.1280  135.4370 C   0  0  0  0  0  2  0  0  0  0  0  0
  185.0990  176.2820  136.3900 C   0  0  0  0  0  0  0  0  0  0  0  0
  185.0790  177.1580  137.4210 C   0  0  0  0  0  3  0  0  0  0  0  0
  187.0390  178.5950  136.7580 C   0  0  0  0  0  2  0  0  0  0  0  0
  188.1090  177.6170  136.2720 C   0  0  0  0  0  2  0  0  0  0  0  0
  187.6100  176.1750  136.1340 C   0  0  0  0  0  2  0  0  0  0  0  0
  186.2330  178.0050  137.9060 C   0  0  0  0  0  2  0  0  0  0  0  0
  184.1020  174.5770  135.0320 O   0  0  0  0  0  0  0  0  0  0  0  0
  183.9820  173.3050  135.5880 C   0  0  0  0  0  1  0  0  0  0  0  0
  185.4290  178.4020  143.8860 C   0  0  0  0  0  2  0  0  0  0  0  0
  185.3220  178.3950  145.3870 C   0  0  0  0  0  3  0  0  0  0  0  0
  186.3890  178.3110  146.1900 C   0  0  0  0  0  3  0  0  0  0  0  0
  187.8000  178.2180  145.6750 C   0  0  1  0  0  3  0  0  0  0  0  0
  188.7990  177.6610  146.6090 C   0  0  2  0  0  3  0  0  0  0  0  0
  188.1930  176.8020  145.5780 N   0  0  2  0  0  0  0  0  0  0  0  0
  188.2770  177.2460  147.9790 C   0  0  0  0  0  1  0  0  0  0  0  0
  188.4020  177.3600  142.9520 S   0  0  0  0  0  0  0  0  0  0  0  0
  189.8550  176.9060  141.9290 C   0  0  2  0  0  3  0  0  0  0  0  0
  191.8910  175.8680  143.8780 O   0  0  0  0  0  1  0  0  0  0  0  0
  190.3980  177.4960  144.8180 C   0  0  0  0  0  2  0  0  0  0  0  0
  192.1930  177.3260  141.5260 O   0  0  0  0  0  1  0  0  0  0  0  0
  191.1370  177.6170  142.3930 C   0  0  2  0  0  3  0  0  0  0  0  0
  191.5190  177.2140  143.8220 C   0  0  2  0  0  3  0  0  0  0  0  0
  189.1440  176.6960  144.4820 C   0  0  1  0  0  3  0  0  0  0  0  0
  189.6060  177.0340  140.5450 O   0  0  0  0  0  0  0  0  0  0  0  0
  188.7420  178.1190  140.3340 C   0  0  0  0  0  1  0  0  0  0  0  0
  3  2  2  0  0  0  0
  4  1  1  0  0  0  0
  4  3  1  0  0  0  0
  5 30  1  1  0  0  0
  5  2  1  0  0  0  0
  6  4  2  0  0  0  0
  7  5  1  0  0  0  0
  8  6  1  0  0  0  0
  8  7  2  0  0  0  0
  9  6  1  0  0  0  0
 10 11  1  0  0  0  0
 10  9  1  0  0  0  0
 12 11  1  0  0  0  0
 13 20  1  0  0  0  0
 13 15  1  0  0  0  0
 14 19  1  0  0  0  0
 15 12  1  0  0  0  0
 16 13  2  0  0  0  0
 17 16  1  0  0  0  0
 17 14  2  0  0  0  0
 18 14  1  0  0  0  0
 19 15  2  0  0  0  0
 20 28  1  6  0  0  0
 20 22  1  0  0  0  0
 21 26  1  0  0  0  0
 21 22  1  0  0  0  0
 22 23  2  0  0  0  0
 23 27  1  0  0  0  0
 24 27  1  0  0  0  0
 25 24  1  0  0  0  0
 26 25  1  0  0  0  0
 28 29  1  0  0  0  0
 30 31  1  0  0  0  0
 31 32  2  0  0  0  0
 33 32  1  1  0  0  0
 33 34  1  0  0  0  0
 34 36  1  1  0  0  0
 35 44  1  6  0  0  0
 35 33  1  0  0  0  0
 35 34  1  0  0  0  0
 37 44  1  0  0  0  0
 38 45  1  6  0  0  0
 38 42  1  0  0  0  0
 38 37  1  0  0  0  0
 42 41  1  6  0  0  0
 42 43  1  0  0  0  0
 43 39  1  6  0  0  0
 43 40  1  0  0  0  0
 44 40  1  1  0  0  0
 46 45  1  0  0  0  0
M  END
>  <MODEL>
8

>  <REMARK>
 VINA RESULT:      -7.6      3.028      5.369
  Name = 
  13 active torsions:
  status: ('A' for Active; 'I' for Inactive)
    1  A    between atoms: C_2  and  C_7
    2  A    between atoms: C_2  and  C_18
    3  A    between atoms: C_3  and  O_20
    4  A    between atoms: C_6  and  C_27
    5  A    between atoms: C_7  and  C_12
    6  A    between atoms: C_10  and  C_42
    7  A    between atoms: C_11  and  C_27
    8  A    between atoms: C_12  and  C_24
    9  A    between atoms: C_24  and  C_40
   10  A    between atoms: C_27  and  O_41
   11  A    between atoms: N_28  and  C_38
   12  A    between atoms: C_30  and  C_35
   13  A    between atoms: C_35  and  C_36
                            x       y       z     vdW  Elec       q    Type
                         _______ _______ _______ _____ _____    ______ ____

>  <TORSDO>
F 13

$$$$
=
 OpenBabel11032421013D

 46 50  0  0  1  0  0  0  0  0999 V2000
  182.8470  179.0380  145.5970 O   0  0  0  0  0  1  0  0  0  0  0  0
  186.4410  178.3850  145.4740 C   0  0  0  0  0  3  0  0  0  0  0  0
  185.2760  178.9790  145.7220 C   0  0  0  0  0  3  0  0  0  0  0  0
  184.0460  178.8630  144.9140 C   0  0  0  0  0  0  0  0  0  0  0  0
  186.6550  177.4370  144.3400 C   0  0  1  0  0  3  0  0  0  0  0  0
  184.0120  178.6640  143.5760 C   0  0  0  0  0  0  0  0  0  0  0  0
  186.3820  178.0860  143.0240 C   0  0  0  0  0  3  0  0  0  0  0  0
  185.1980  178.5930  142.6990 C   0  0  0  0  0  3  0  0  0  0  0  0
  182.6940  178.6510  142.8710 C   0  0  0  0  0  2  0  0  0  0  0  0
  182.8830  178.2970  141.4010 C   0  0  0  0  0  2  0  0  0  0  0  0
  182.1220  179.2610  140.5020 C   0  0  0  0  0  2  0  0  0  0  0  0
  182.8720  179.4740  139.1950 C   0  0  0  0  0  2  0  0  0  0  0  0
  181.4550  179.4000  137.1050 C   0  0  0  0  0  0  0  0  0  0  0  0
  180.8650  182.1280  137.3810 C   0  0  0  0  0  0  0  0  0  0  0  0
  182.0050  180.1400  138.1740 C   0  0  0  0  0  0  0  0  0  0  0  0
  180.6180  180.0420  136.1810 C   0  0  0  0  0  3  0  0  0  0  0  0
  180.3260  181.4010  136.3170 C   0  0  0  0  0  3  0  0  0  0  0  0
  180.5750  183.4770  137.5160 O   0  0  0  0  0  1  0  0  0  0  0  0
  181.6960  181.4970  138.3090 C   0  0  0  0  0  3  0  0  0  0  0  0
  181.7520  177.9290  136.9570 C   0  0  2  0  0  3  0  0  0  0  0  0
  181.7680  175.8700  138.4850 C   0  0  0  0  0  2  0  0  0  0  0  0
  181.0350  177.0930  137.9790 C   0  0  0  0  0  0  0  0  0  0  0  0
  179.8320  177.4990  138.4450 C   0  0  0  0  0  3  0  0  0  0  0  0
  179.7270  176.1020  140.5390 C   0  0  0  0  0  2  0  0  0  0  0  0
  180.2490  174.7250  140.1310 C   0  0  0  0  0  2  0  0  0  0  0  0
  180.8490  174.6850  138.7220 C   0  0  0  0  0  2  0  0  0  0  0  0
  178.9400  176.7510  139.4100 C   0  0  0  0  0  2  0  0  0  0  0  0
  183.1300  177.6770  136.9700 O   0  0  0  0  0  0  0  0  0  0  0  0
  183.4140  177.1620  135.7070 C   0  0  0  0  0  1  0  0  0  0  0  0
  188.0580  176.8330  144.3760 C   0  0  0  0  0  2  0  0  0  0  0  0
  189.0420  177.7020  145.1120 C   0  0  0  0  0  3  0  0  0  0  0  0
  190.1480  178.1910  144.5410 C   0  0  0  0  0  3  0  0  0  0  0  0
  190.5180  177.9240  143.1060 C   0  0  1  0  0  3  0  0  0  0  0  0
  191.3690  176.7430  142.8620 C   0  0  2  0  0  3  0  0  0  0  0  0
  189.9120  176.6550  142.6720 N   0  0  2  0  0  0  0  0  0  0  0  0
  191.7650  175.9360  144.0920 C   0  0  0  0  0  1  0  0  0  0  0  0
  188.6010  178.2340  140.9280 S   0  0  0  0  0  0  0  0  0  0  0  0
  188.4690  177.8780  139.1340 C   0  0  2  0  0  3  0  0  0  0  0  0
  190.2890  175.5330  138.6680 O   0  0  0  0  0  1  0  0  0  0  0  0
  190.9670  176.9320  140.4970 C   0  0  0  0  0  2  0  0  0  0  0  0
  189.6840  177.7230  137.0590 O   0  0  0  0  0  1  0  0  0  0  0  0
  189.8400  177.8940  138.4370 C   0  0  2  0  0  3  0  0  0  0  0  0
  190.7670  176.8050  138.9890 C   0  0  2  0  0  3  0  0  0  0  0  0
  189.6480  176.7740  141.2460 C   0  0  1  0  0  3  0  0  0  0  0  0
  187.4970  178.6740  138.4910 O   0  0  0  0  0  0  0  0  0  0  0  0
  186.3800  177.8790  138.1910 C   0  0  0  0  0  1  0  0  0  0  0  0
  2  3  2  0  0  0  0
  4  1  1  0  0  0  0
  4  3  1  0  0  0  0
  5 30  1  6  0  0  0
  5  2  1  0  0  0  0
  6  4  2  0  0  0  0
  7  5  1  0  0  0  0
  8  7  2  0  0  0  0
  8  6  1  0  0  0  0
  9  6  1  0  0  0  0
 10  9  1  0  0  0  0
 11 10  1  0  0  0  0
 12 11  1  0  0  0  0
 13 15  1  0  0  0  0
 14 18  1  0  0  0  0
 14 19  1  0  0  0  0
 15 19  2  0  0  0  0
 15 12  1  0  0  0  0
 16 17  1  0  0  0  0
 16 13  2  0  0  0  0
 17 14  2  0  0  0  0
 20 28  1  1  0  0  0
 20 13  1  0  0  0  0
 20 22  1  0  0  0  0
 21 26  1  0  0  0  0
 22 23  2  0  0  0  0
 22 21  1  0  0  0  0
 23 27  1  0  0  0  0
 25 24  1  0  0  0  0
 26 25  1  0  0  0  0
 27 24  1  0  0  0  0
 29 28  1  0  0  0  0
 30 31  1  0  0  0  0
 32 31  2  0  0  0  0
 33 32  1  1  0  0  0
 34 33  1  0  0  0  0
 34 36  1  1  0  0  0
 35 44  1  6  0  0  0
 35 34  1  0  0  0  0
 35 33  1  0  0  0  0
 37 44  1  0  0  0  0
 38 45  1  6  0  0  0
 38 37  1  0  0  0  0
 42 41  1  6  0  0  0
 42 43  1  0  0  0  0
 42 38  1  0  0  0  0
 43 39  1  1  0  0  0
 43 40  1  0  0  0  0
 44 40  1  6  0  0  0
 46 45  1  0  0  0  0
M  END
>  <MODEL>
9

>  <REMARK>
 VINA RESULT:      -7.5      2.148      3.509
  Name = 
  13 active torsions:
  status: ('A' for Active; 'I' for Inactive)
    1  A    between atoms: C_2  and  C_7
    2  A    between atoms: C_2  and  C_18
    3  A    between atoms: C_3  and  O_20
    4  A    between atoms: C_6  and  C_27
    5  A    between atoms: C_7  and  C_12
    6  A    between atoms: C_10  and  C_42
    7  A    between atoms: C_11  and  C_27
    8  A    between atoms: C_12  and  C_24
    9  A    between atoms: C_24  and  C_40
   10  A    between atoms: C_27  and  O_41
   11  A    between atoms: N_28  and  C_38
   12  A    between atoms: C_30  and  C_35
   13  A    between atoms: C_35  and  C_36
                            x       y       z     vdW  Elec       q    Type
                         _______ _______ _______ _____ _____    ______ ____

>  <TORSDO>
F 13

$$$$
