=
 OpenBabel11032420353D

 69 77  0  0  1  0  0  0  0  0999 V2000
  188.3780  177.2730  137.3510 C   0  0  1  0  0  3  0  0  0  0  0  0
  187.2690  176.5720  136.5650 C   0  0  2  0  0  3  0  0  0  0  0  0
  187.6520  175.2040  135.9800 C   0  0  0  0  0  2  0  0  0  0  0  0
  186.5120  174.1860  135.9550 C   0  0  0  0  0  2  0  0  0  0  0  0
  185.9360  173.9720  137.3470 C   0  0  0  0  0  2  0  0  0  0  0  0
  183.5160  174.5570  137.7910 C   0  0  0  0  0  3  0  0  0  0  0  0
  181.7700  173.0220  137.1210 C   0  0  0  0  0  3  0  0  0  0  0  0
  182.1560  174.2390  137.6890 C   0  0  0  0  0  0  0  0  0  0  0  0
  184.0720  172.4540  136.7960 N   0  0  0  0  0  0  0  0  0  0  0  0
  182.3710  170.8690  136.1430 N   0  0  0  0  0  1  0  0  0  0  0  0
  182.7510  172.1270  136.6880 C   0  0  0  0  0  0  0  0  0  0  0  0
  184.4740  173.6440  137.3300 C   0  0  0  0  0  0  0  0  0  0  0  0
  179.5450  174.0230  139.7400 O   0  0  0  0  0  0  0  0  0  0  0  0
  180.0240  174.9950  139.0990 C   0  0  0  0  0  0  0  0  0  0  0  0
  180.8660  176.9930  136.7230 N   0  0  0  0  0  1  0  0  0  0  0  0
  181.1700  175.1430  138.1800 N   0  0  0  0  0  0  0  0  0  0  0  0
  179.5200  176.7280  138.9290 S   0  0  0  0  0  0  0  0  0  0  0  0
  181.0110  176.5760  138.1070 C   0  0  2  0  0  3  0  0  0  0  0  0
  186.6480  177.5320  135.5580 C   0  0  0  0  0  2  0  0  0  0  0  0
  184.3800  176.7790  135.5540 O   0  0  0  0  0  0  0  0  0  0  0  0
  184.4160  177.8070  134.5940 C   0  0  0  0  0  2  0  0  0  0  0  0
  185.5410  176.8620  134.7650 C   0  0  1  0  0  3  0  0  0  0  0  0
  187.8570  178.5030  138.0720 C   0  0  0  0  0  2  0  0  0  0  0  0
  184.2720  178.4880  140.2270 C   0  0  0  0  0  0  0  0  0  0  0  0
  183.2310  178.3240  140.9170 O   0  0  0  0  0  0  0  0  0  0  0  0
  185.5800  178.8010  140.8540 C   0  0  0  0  0  0  0  0  0  0  0  0
  184.2020  178.3040  138.7350 C   0  0  2  0  0  3  0  0  0  0  0  0
  186.7050  178.7510  140.0280 O   0  0  0  0  0  0  0  0  0  0  0  0
  186.6420  178.1470  138.7860 N   0  0  0  0  0  0  0  0  0  0  0  0
  185.5130  178.7180  138.0570 C   0  0  0  0  0  2  0  0  0  0  0  0
  185.7480  179.1400  142.1370 C   0  0  0  0  0  3  0  0  0  0  0  0
  183.1600  179.0500  138.2120 F   0  0  0  0  0  0  0  0  0  0  0  0
  184.6450  179.2800  143.1370 C   0  0  2  0  0  3  0  0  0  0  0  0
  184.8310  180.4500  143.8690 O   0  0  0  0  0  1  0  0  0  0  0  0
  184.6680  178.0890  144.0780 C   0  0  0  0  0  2  0  0  0  0  0  0
  185.2370  178.4710  145.4360 C   0  0  0  0  0  2  0  0  0  0  0  0
  190.4620  176.0410  140.9770 F   0  0  0  0  0  0  0  0  0  0  0  0
  187.4870  177.6310  144.6990 C   0  0  1  0  0  3  0  0  0  0  0  0
  186.4250  177.6050  145.8160 C   0  0  1  0  0  3  0  0  0  0  0  0
  188.8930  178.0390  145.1960 C   0  0  1  0  0  3  0  0  0  0  0  0
  190.6740  176.8520  142.0440 C   0  0  0  0  0  0  0  0  0  0  0  0
  192.0870  178.3760  143.2280 N   0  0  0  0  0  0  0  0  0  0  0  0
  189.2820  177.2620  146.4610 C   0  0  0  0  0  2  0  0  0  0  0  0
  187.5580  176.2650  144.0160 C   0  0  0  0  0  2  0  0  0  0  0  0
  188.4860  176.3050  142.9330 O   0  0  0  0  0  0  0  0  0  0  0  0
  189.7000  176.9930  143.0360 C   0  0  0  0  0  0  0  0  0  0  0  0
  188.2120  177.3060  147.5560 C   0  0  0  0  0  2  0  0  0  0  0  0
  186.9710  178.1020  147.1560 C   0  0  0  0  0  2  0  0  0  0  0  0
  189.9320  177.8550  144.1220 C   0  0  0  0  0  0  0  0  0  0  0  0
  191.8730  177.5580  142.1610 C   0  0  0  0  0  3  0  0  0  0  0  0
  191.1520  178.5370  144.2010 C   0  0  0  0  0  3  0  0  0  0  0  0
  189.0400  176.4090  138.2640 O   0  0  0  0  0  0  0  0  0  0  0  0
  190.2200  175.7430  137.9180 C   0  0  0  0  0  0  0  0  0  0  0  0
  190.4020  174.5400  138.2580 O   0  0  0  0  0  0  0  0  0  0  0  0
  191.4160  176.0510  135.7170 C   0  0  0  0  0  2  0  0  0  0  0  0
  193.7790  176.5360  136.9830 C   0  0  0  0  0  2  0  0  0  0  0  0
  192.6050  176.4480  137.9490 C   0  0  0  0  0  2  0  0  0  0  0  0
  191.2830  176.4990  137.1810 C   0  0  2  0  0  3  0  0  0  0  0  0
  193.8130  175.3560  136.1080 N   0  0  0  0  0  0  0  0  0  0  0  0
  192.4920  174.9690  135.5690 C   0  0  0  0  0  2  0  0  0  0  0  0
  194.6690  175.6830  134.9750 C   0  0  0  0  0  2  0  0  0  0  0  0
  196.0630  175.1160  135.1880 C   0  0  0  0  0  2  0  0  0  0  0  0
  195.9860  173.8970  135.9770 N   0  0  0  0  0  2  0  0  0  0  0  0
  198.1970  171.3040  136.5480 C   0  0  0  0  0  3  0  0  0  0  0  0
  199.0800  172.3360  136.0100 N   0  0  0  0  0  0  0  0  0  0  0  0
  196.8390  171.6580  136.1080 C   0  0  0  0  0  0  0  0  0  0  0  0
  198.2570  173.3360  135.3160 C   0  0  0  0  0  2  0  0  0  0  0  0
  195.8530  170.9810  136.3580 O   0  0  0  0  0  0  0  0  0  0  0  0
  196.8000  172.8940  135.3100 C   0  0  2  0  0  3  0  0  0  0  0  0
  1 23  1  1  0  0  0
  1 52  1  0  0  0  0
  2 19  1  6  0  0  0
  2  1  1  0  0  0  0
  3  2  1  0  0  0  0
  4  3  1  0  0  0  0
  4  5  1  0  0  0  0
  7  8  2  0  0  0  0
  8  6  1  0  0  0  0
  8 16  1  0  0  0  0
  9 12  1  0  0  0  0
 10 11  1  0  0  0  0
 11  9  2  0  0  0  0
 11  7  1  0  0  0  0
 12  5  1  0  0  0  0
 12  6  2  0  0  0  0
 14 13  2  0  0  0  0
 16 14  1  0  0  0  0
 17 14  1  0  0  0  0
 18 15  1  6  0  0  0
 18 16  1  0  0  0  0
 18 17  1  0  0  0  0
 21 22  1  0  0  0  0
 21 20  1  0  0  0  0
 22 20  1  0  0  0  0
 22 19  1  1  0  0  0
 23 29  1  0  0  0  0
 24 26  1  0  0  0  0
 24 25  2  0  0  0  0
 26 31  2  0  0  0  0
 27 32  1  6  0  0  0
 27 24  1  0  0  0  0
 28 26  1  0  0  0  0
 29 28  1  0  0  0  0
 30 27  1  0  0  0  0
 30 29  1  0  0  0  0
 31 33  1  0  0  0  0
 33 34  1  1  0  0  0
 33 35  1  0  0  0  0
 35 36  1  0  0  0  0
 37 41  1  0  0  0  0
 38 44  1  1  0  0  0
 38 40  1  0  0  0  0
 38 39  1  0  0  0  0
 39 36  1  6  0  0  0
 39 48  1  0  0  0  0
 40 43  1  1  0  0  0
 41 50  2  0  0  0  0
 41 46  1  0  0  0  0
 42 51  2  0  0  0  0
 43 47  1  0  0  0  0
 45 46  1  0  0  0  0
 45 44  1  0  0  0  0
 46 49  2  0  0  0  0
 48 47  1  0  0  0  0
 49 51  1  0  0  0  0
 49 40  1  0  0  0  0
 50 42  1  0  0  0  0
 53 54  2  0  0  0  0
 53 52  1  0  0  0  0
 55 58  1  0  0  0  0
 56 57  1  0  0  0  0
 58 53  1  1  0  0  0
 58 57  1  0  0  0  0
 59 56  1  0  0  0  0
 60 55  1  0  0  0  0
 60 59  1  0  0  0  0
 61 62  1  0  0  0  0
 61 59  1  0  0  0  0
 62 63  1  0  0  0  0
 65 64  2  0  0  0  0
 66 68  2  0  0  0  0
 66 64  1  0  0  0  0
 67 65  1  0  0  0  0
 69 67  1  0  0  0  0
 69 63  1  1  0  0  0
 69 66  1  0  0  0  0
M  END
>  <MODEL>
1

>  <REMARK>
 VINA RESULT:      -7.8      0.000      0.000
  Name = 
  21 active torsions:
  status: ('A' for Active; 'I' for Inactive)
    1  A    between atoms: C_8  and  C_9
    2  A    between atoms: C_8  and  C_37
    3  A    between atoms: C_9  and  C_11
    4  A    between atoms: C_10  and  C_56
    5  A    between atoms: C_10  and  N_66
    6  A    between atoms: C_15  and  C_54
    7  A    between atoms: C_15  and  C_62
    8  A    between atoms: C_18  and  C_51
    9  A    between atoms: C_18  and  C_65
   10  A    between atoms: C_20  and  N_42
   11  A    between atoms: O_26  and  C_27
   12  A    between atoms: O_26  and  C_45
   13  A    between atoms: C_27  and  C_33
   14  A    between atoms: C_37  and  C_59
   15  A    between atoms: N_39  and  C_41
   16  A    between atoms: C_41  and  C_45
   17  A    between atoms: C_45  and  C_51
   18  A    between atoms: C_48  and  C_51
   19  A    between atoms: C_48  and  C_54
   20  A    between atoms: C_56  and  N_64
   21  A    between atoms: N_66  and  C_67
                            x       y       z     vdW  Elec       q    Type
                         _______ _______ _______ _____ _____    ______ ____

>  <TORSDO>
F 21

$$$$
=
 OpenBabel11032420353D

 69 77  0  0  1  0  0  0  0  0999 V2000
  188.0440  177.6720  140.9490 C   0  0  1  0  0  3  0  0  0  0  0  0
  189.0840  177.5340  142.0630 C   0  0  2  0  0  3  0  0  0  0  0  0
  190.0160  178.7430  142.2360 C   0  0  0  0  0  2  0  0  0  0  0  0
  191.4640  178.3830  142.5680 C   0  0  0  0  0  2  0  0  0  0  0  0
  191.8720  178.9440  143.9220 C   0  0  0  0  0  2  0  0  0  0  0  0
  189.8610  178.4410  145.3710 C   0  0  0  0  0  3  0  0  0  0  0  0
  190.0300  176.7740  147.1170 C   0  0  0  0  0  3  0  0  0  0  0  0
  189.2690  177.7060  146.4060 C   0  0  0  0  0  0  0  0  0  0  0  0
  191.9410  177.3360  145.7910 N   0  0  0  0  0  0  0  0  0  0  0  0
  192.1740  175.6920  147.5440 N   0  0  0  0  0  1  0  0  0  0  0  0
  191.3810  176.6100  146.8020 C   0  0  0  0  0  0  0  0  0  0  0  0
  191.2150  178.2380  145.0690 C   0  0  0  0  0  0  0  0  0  0  0  0
  187.5770  178.2620  149.2170 O   0  0  0  0  0  0  0  0  0  0  0  0
  187.1980  178.1680  148.0200 C   0  0  0  0  0  0  0  0  0  0  0  0
  186.4340  177.0000  145.1220 N   0  0  0  0  0  1  0  0  0  0  0  0
  187.9010  177.9210  146.7450 N   0  0  0  0  0  0  0  0  0  0  0  0
  185.5660  178.2370  147.2350 S   0  0  0  0  0  0  0  0  0  0  0  0
  186.7080  178.1500  145.9670 C   0  0  2  0  0  3  0  0  0  0  0  0
  189.8060  176.1980  141.9480 C   0  0  0  0  0  2  0  0  0  0  0  0
  190.3250  174.1720  143.1050 O   0  0  0  0  0  0  0  0  0  0  0  0
  191.2880  175.0960  143.5530 C   0  0  0  0  0  2  0  0  0  0  0  0
  189.8880  175.4960  143.2910 C   0  0  1  0  0  3  0  0  0  0  0  0
  187.6660  179.1230  140.7170 C   0  0  0  0  0  2  0  0  0  0  0  0
  183.5960  178.5660  141.5040 C   0  0  0  0  0  0  0  0  0  0  0  0
  182.3480  178.5510  141.6740 O   0  0  0  0  0  0  0  0  0  0  0  0
  184.2050  178.2570  140.1860 C   0  0  0  0  0  0  0  0  0  0  0  0
  184.4900  178.9620  142.6470 C   0  0  2  0  0  3  0  0  0  0  0  0
  185.5720  178.5090  140.0460 O   0  0  0  0  0  0  0  0  0  0  0  0
  186.2440  179.2830  140.9740 N   0  0  0  0  0  0  0  0  0  0  0  0
  185.9680  178.7470  142.3040 C   0  0  0  0  0  2  0  0  0  0  0  0
  183.5430  177.7450  139.1420 C   0  0  0  0  0  3  0  0  0  0  0  0
  184.1710  178.2280  143.7770 F   0  0  0  0  0  0  0  0  0  0  0  0
  182.0930  177.3810  139.1430 C   0  0  2  0  0  3  0  0  0  0  0  0
  181.9570  176.0260  139.4360 O   0  0  0  0  0  1  0  0  0  0  0  0
  181.5060  177.6600  137.7700 C   0  0  0  0  0  2  0  0  0  0  0  0
  182.5980  177.9510  136.7530 C   0  0  0  0  0  2  0  0  0  0  0  0
  188.6570  174.5230  134.6010 F   0  0  0  0  0  0  0  0  0  0  0  0
  184.0560  176.1330  135.8130 C   0  0  1  0  0  3  0  0  0  0  0  0
  182.6990  176.8570  135.7040 C   0  0  1  0  0  3  0  0  0  0  0  0
  183.9250  174.6000  135.9630 C   0  0  1  0  0  3  0  0  0  0  0  0
  187.5890  173.9140  135.1760 C   0  0  0  0  0  0  0  0  0  0  0  0
  186.6480  172.0180  136.2910 N   0  0  0  0  0  0  0  0  0  0  0  0
  182.9480  174.0220  134.9310 C   0  0  0  0  0  2  0  0  0  0  0  0
  184.9200  176.4600  134.5950 C   0  0  0  0  0  2  0  0  0  0  0  0
  186.2040  175.8530  134.7270 O   0  0  0  0  0  0  0  0  0  0  0  0
  186.3520  174.5610  135.2430 C   0  0  0  0  0  0  0  0  0  0  0  0
  181.6000  174.7480  134.8950 C   0  0  0  0  0  2  0  0  0  0  0  0
  181.5130  175.9090  135.8850 C   0  0  0  0  0  2  0  0  0  0  0  0
  185.2640  173.9200  135.8620 C   0  0  0  0  0  0  0  0  0  0  0  0
  187.7170  172.6310  135.7100 C   0  0  0  0  0  3  0  0  0  0  0  0
  185.4370  172.6300  136.3760 C   0  0  0  0  0  3  0  0  0  0  0  0
  188.4560  177.0670  139.7320 O   0  0  0  0  0  0  0  0  0  0  0  0
  188.7630  177.8310  138.6010 C   0  0  0  0  0  0  0  0  0  0  0  0
  187.8850  178.5640  138.0640 O   0  0  0  0  0  0  0  0  0  0  0  0
  190.1690  176.8340  136.7580 C   0  0  0  0  0  2  0  0  0  0  0  0
  192.2870  176.5160  138.4440 C   0  0  0  0  0  2  0  0  0  0  0  0
  191.1450  177.2980  139.0800 C   0  0  0  0  0  2  0  0  0  0  0  0
  190.1360  177.7230  138.0110 C   0  0  2  0  0  3  0  0  0  0  0  0
  191.7910  175.2530  137.8780 N   0  0  0  0  0  0  0  0  0  0  0  0
  190.5290  175.3890  137.1190 C   0  0  0  0  0  2  0  0  0  0  0  0
  192.8070  174.7670  136.9530 C   0  0  0  0  0  2  0  0  0  0  0  0
  193.8910  174.0180  137.7100 C   0  0  0  0  0  2  0  0  0  0  0  0
  195.2000  174.5380  137.3450 N   0  0  0  0  0  2  0  0  0  0  0  0
  198.3980  173.2320  137.3280 C   0  0  0  0  0  3  0  0  0  0  0  0
  197.5820  172.0210  137.3650 N   0  0  0  0  0  0  0  0  0  0  0  0
  197.5400  174.3190  137.8250 C   0  0  0  0  0  0  0  0  0  0  0  0
  196.2300  172.3860  137.8090 C   0  0  0  0  0  2  0  0  0  0  0  0
  197.9230  175.4710  137.9580 O   0  0  0  0  0  0  0  0  0  0  0  0
  196.1850  173.8630  138.1740 C   0  0  2  0  0  3  0  0  0  0  0  0
  1 23  1  6  0  0  0
  1  2  1  0  0  0  0
  2 19  1  6  0  0  0
  2  3  1  0  0  0  0
  3  4  1  0  0  0  0
  4  5  1  0  0  0  0
  5 12  1  0  0  0  0
  6  8  1  0  0  0  0
  8 16  1  0  0  0  0
  8  7  2  0  0  0  0
  9 11  2  0  0  0  0
 11  7  1  0  0  0  0
 11 10  1  0  0  0  0
 12  6  2  0  0  0  0
 12  9  1  0  0  0  0
 14 13  2  0  0  0  0
 16 14  1  0  0  0  0
 17 14  1  0  0  0  0
 18 15  1  6  0  0  0
 18 16  1  0  0  0  0
 18 17  1  0  0  0  0
 20 22  1  0  0  0  0
 20 21  1  0  0  0  0
 22 19  1  6  0  0  0
 22 21  1  0  0  0  0
 23 29  1  0  0  0  0
 24 25  2  0  0  0  0
 24 27  1  0  0  0  0
 26 24  1  0  0  0  0
 27 32  1  1  0  0  0
 28 26  1  0  0  0  0
 28 29  1  0  0  0  0
 29 30  1  0  0  0  0
 30 27  1  0  0  0  0
 31 33  1  0  0  0  0
 31 26  2  0  0  0  0
 33 34  1  6  0  0  0
 35 33  1  0  0  0  0
 36 35  1  0  0  0  0
 37 41  1  0  0  0  0
 38 44  1  6  0  0  0
 38 40  1  0  0  0  0
 39 38  1  0  0  0  0
 39 48  1  0  0  0  0
 39 36  1  1  0  0  0
 40 43  1  6  0  0  0
 41 46  2  0  0  0  0
 41 50  1  0  0  0  0
 42 51  1  0  0  0  0
 44 45  1  0  0  0  0
 45 46  1  0  0  0  0
 46 49  1  0  0  0  0
 47 43  1  0  0  0  0
 47 48  1  0  0  0  0
 49 40  1  0  0  0  0
 49 51  2  0  0  0  0
 50 42  2  0  0  0  0
 52  1  1  0  0  0  0
 53 52  1  0  0  0  0
 54 53  2  0  0  0  0
 55 60  1  0  0  0  0
 55 58  1  0  0  0  0
 56 57  1  0  0  0  0
 58 53  1  1  0  0  0
 58 57  1  0  0  0  0
 59 56  1  0  0  0  0
 60 59  1  0  0  0  0
 61 62  1  0  0  0  0
 61 59  1  0  0  0  0
 63 62  1  0  0  0  0
 64 65  2  0  0  0  0
 64 66  1  0  0  0  0
 65 67  1  0  0  0  0
 66 68  2  0  0  0  0
 66 69  1  0  0  0  0
 67 69  1  0  0  0  0
 69 63  1  6  0  0  0
M  END
>  <MODEL>
2

>  <REMARK>
 VINA RESULT:      -6.8      2.855      8.284
  Name = 
  21 active torsions:
  status: ('A' for Active; 'I' for Inactive)
    1  A    between atoms: C_8  and  C_9
    2  A    between atoms: C_8  and  C_37
    3  A    between atoms: C_9  and  C_11
    4  A    between atoms: C_10  and  C_56
    5  A    between atoms: C_10  and  N_66
    6  A    between atoms: C_15  and  C_54
    7  A    between atoms: C_15  and  C_62
    8  A    between atoms: C_18  and  C_51
    9  A    between atoms: C_18  and  C_65
   10  A    between atoms: C_20  and  N_42
   11  A    between atoms: O_26  and  C_27
   12  A    between atoms: O_26  and  C_45
   13  A    between atoms: C_27  and  C_33
   14  A    between atoms: C_37  and  C_59
   15  A    between atoms: N_39  and  C_41
   16  A    between atoms: C_41  and  C_45
   17  A    between atoms: C_45  and  C_51
   18  A    between atoms: C_48  and  C_51
   19  A    between atoms: C_48  and  C_54
   20  A    between atoms: C_56  and  N_64
   21  A    between atoms: N_66  and  C_67
                            x       y       z     vdW  Elec       q    Type
                         _______ _______ _______ _____ _____    ______ ____

>  <TORSDO>
F 21

$$$$
=
 OpenBabel11032420353D

 69 77  0  0  1  0  0  0  0  0999 V2000
  184.1690  177.6370  138.0530 C   0  0  1  0  0  3  0  0  0  0  0  0
  183.6210  177.5420  136.6290 C   0  0  2  0  0  3  0  0  0  0  0  0
  182.3860  178.4120  136.3470 C   0  0  0  0  0  2  0  0  0  0  0  0
  181.0570  177.7710  136.7430 C   0  0  0  0  0  2  0  0  0  0  0  0
  180.6580  176.6810  135.7590 C   0  0  0  0  0  2  0  0  0  0  0  0
  180.5590  174.1540  135.7560 C   0  0  0  0  0  3  0  0  0  0  0  0
  179.9550  172.9770  137.7820 C   0  0  0  0  0  3  0  0  0  0  0  0
  180.3450  172.9510  136.4410 C   0  0  0  0  0  0  0  0  0  0  0  0
  179.9680  175.3690  137.7300 N   0  0  0  0  0  0  0  0  0  0  0  0
  179.3220  174.2460  139.7670 N   0  0  0  0  0  1  0  0  0  0  0  0
  179.7560  174.2070  138.4130 C   0  0  0  0  0  0  0  0  0  0  0  0
  180.3680  175.3710  136.4250 C   0  0  0  0  0  0  0  0  0  0  0  0
  178.9310  169.9450  136.6320 O   0  0  0  0  0  0  0  0  0  0  0  0
  179.8450  170.3910  135.8900 C   0  0  0  0  0  0  0  0  0  0  0  0
  182.6730  171.4880  134.8210 N   0  0  0  0  0  1  0  0  0  0  0  0
  180.5070  171.7050  135.7670 N   0  0  0  0  0  0  0  0  0  0  0  0
  180.8720  169.6280  134.6060 S   0  0  0  0  0  0  0  0  0  0  0  0
  181.2500  171.2950  134.6000 C   0  0  2  0  0  3  0  0  0  0  0  0
  183.4650  176.0830  136.2190 C   0  0  0  0  0  2  0  0  0  0  0  0
  184.7590  174.1650  136.8160 O   0  0  0  0  0  0  0  0  0  0  0  0
  184.6520  174.1010  135.4150 C   0  0  0  0  0  2  0  0  0  0  0  0
  184.8110  175.3880  136.1250 C   0  0  1  0  0  3  0  0  0  0  0  0
  183.6160  176.5350  138.9370 C   0  0  0  0  0  2  0  0  0  0  0  0
  182.1140  179.0480  141.9250 C   0  0  0  0  0  0  0  0  0  0  0  0
  181.5980  179.6650  142.8940 O   0  0  0  0  0  0  0  0  0  0  0  0
  183.4050  178.3280  142.0610 C   0  0  0  0  0  0  0  0  0  0  0  0
  181.3790  178.9890  140.6140 C   0  0  2  0  0  3  0  0  0  0  0  0
  183.7830  177.5020  141.0000 O   0  0  0  0  0  0  0  0  0  0  0  0
  182.8690  177.1410  140.0280 N   0  0  0  0  0  0  0  0  0  0  0  0
  182.2400  178.3560  139.5160 C   0  0  0  0  0  2  0  0  0  0  0  0
  184.2270  178.4290  143.1120 C   0  0  0  0  0  3  0  0  0  0  0  0
  181.0020  180.2630  140.2220 F   0  0  0  0  0  0  0  0  0  0  0  0
  183.9900  179.2990  144.3040 C   0  0  2  0  0  3  0  0  0  0  0  0
  184.8390  180.4010  144.2480 O   0  0  0  0  0  1  0  0  0  0  0  0
  184.2770  178.5060  145.5670 C   0  0  0  0  0  2  0  0  0  0  0  0
  185.5460  178.9950  146.2470 C   0  0  0  0  0  2  0  0  0  0  0  0
  189.7460  176.3650  140.9060 F   0  0  0  0  0  0  0  0  0  0  0  0
  187.5140  177.8960  145.1370 C   0  0  1  0  0  3  0  0  0  0  0  0
  186.5850  177.8940  146.3670 C   0  0  1  0  0  3  0  0  0  0  0  0
  189.0140  177.9820  145.4990 C   0  0  1  0  0  3  0  0  0  0  0  0
  190.2130  176.9680  142.0290 C   0  0  0  0  0  0  0  0  0  0  0  0
  191.9980  178.0450  143.2020 N   0  0  0  0  0  0  0  0  0  0  0  0
  189.3780  176.9790  146.6020 C   0  0  0  0  0  2  0  0  0  0  0  0
  187.2590  176.6500  144.2900 C   0  0  0  0  0  2  0  0  0  0  0  0
  188.0630  176.6840  143.1120 O   0  0  0  0  0  0  0  0  0  0  0  0
  189.3880  177.1320  143.1440 C   0  0  0  0  0  0  0  0  0  0  0  0
  188.4520  177.0490  147.8200 C   0  0  0  0  0  2  0  0  0  0  0  0
  187.3470  178.0950  147.6780 C   0  0  0  0  0  2  0  0  0  0  0  0
  189.8860  177.7780  144.2900 C   0  0  0  0  0  0  0  0  0  0  0  0
  191.5280  177.4350  142.0790 C   0  0  0  0  0  3  0  0  0  0  0  0
  191.2130  178.2230  144.2970 C   0  0  0  0  0  3  0  0  0  0  0  0
  185.5890  177.6430  138.0990 O   0  0  0  0  0  0  0  0  0  0  0  0
  186.3300  178.7640  137.7130 C   0  0  0  0  0  0  0  0  0  0  0  0
  185.8580  179.9270  137.8570 O   0  0  0  0  0  0  0  0  0  0  0  0
  187.6820  177.3780  136.0940 C   0  0  0  0  0  2  0  0  0  0  0  0
  189.9020  177.5740  137.6630 C   0  0  0  0  0  2  0  0  0  0  0  0
  188.7590  178.4540  138.1530 C   0  0  0  0  0  2  0  0  0  0  0  0
  187.6730  178.5560  137.0800 C   0  0  2  0  0  3  0  0  0  0  0  0
  189.4400  176.1930  137.4680 N   0  0  0  0  0  0  0  0  0  0  0  0
  188.1330  176.0870  136.7850 C   0  0  0  0  0  2  0  0  0  0  0  0
  190.4260  175.5210  136.6320 C   0  0  0  0  0  2  0  0  0  0  0  0
  191.7970  175.5790  137.2870 C   0  0  0  0  0  2  0  0  0  0  0  0
  192.8290  175.6720  136.2660 N   0  0  0  0  0  2  0  0  0  0  0  0
  195.5990  173.6080  136.3060 C   0  0  0  0  0  3  0  0  0  0  0  0
  194.9340  173.2370  137.5520 N   0  0  0  0  0  0  0  0  0  0  0  0
  195.0940  174.9440  135.9530 C   0  0  0  0  0  0  0  0  0  0  0  0
  193.9880  174.3040  137.9080 C   0  0  0  0  0  2  0  0  0  0  0  0
  195.4730  175.5700  134.9750 O   0  0  0  0  0  0  0  0  0  0  0  0
  194.1090  175.4560  136.9200 C   0  0  2  0  0  3  0  0  0  0  0  0
  1 52  1  0  0  0  0
  1 23  1  1  0  0  0
  2 19  1  1  0  0  0
  2  1  1  0  0  0  0
  3  2  1  0  0  0  0
  3  4  1  0  0  0  0
  5 12  1  0  0  0  0
  5  4  1  0  0  0  0
  6 12  2  0  0  0  0
  6  8  1  0  0  0  0
  7 11  1  0  0  0  0
  8  7  2  0  0  0  0
  9 11  2  0  0  0  0
 11 10  1  0  0  0  0
 12  9  1  0  0  0  0
 14 13  2  0  0  0  0
 16 14  1  0  0  0  0
 16  8  1  0  0  0  0
 17 14  1  0  0  0  0
 18 17  1  0  0  0  0
 18 15  1  1  0  0  0
 18 16  1  0  0  0  0
 21 22  1  0  0  0  0
 21 20  1  0  0  0  0
 22 19  1  1  0  0  0
 22 20  1  0  0  0  0
 23 29  1  0  0  0  0
 24 26  1  0  0  0  0
 24 25  2  0  0  0  0
 26 31  2  0  0  0  0
 27 32  1  6  0  0  0
 27 24  1  0  0  0  0
 28 26  1  0  0  0  0
 29 28  1  0  0  0  0
 30 29  1  0  0  0  0
 30 27  1  0  0  0  0
 31 33  1  0  0  0  0
 33 34  1  6  0  0  0
 33 35  1  0  0  0  0
 35 36  1  0  0  0  0
 37 41  1  0  0  0  0
 38 44  1  1  0  0  0
 38 40  1  0  0  0  0
 38 39  1  0  0  0  0
 39 36  1  6  0  0  0
 39 48  1  0  0  0  0
 40 43  1  1  0  0  0
 41 50  2  0  0  0  0
 41 46  1  0  0  0  0
 42 51  2  0  0  0  0
 43 47  1  0  0  0  0
 45 46  1  0  0  0  0
 45 44  1  0  0  0  0
 46 49  2  0  0  0  0
 48 47  1  0  0  0  0
 49 51  1  0  0  0  0
 49 40  1  0  0  0  0
 50 42  1  0  0  0  0
 53 54  2  0  0  0  0
 53 52  1  0  0  0  0
 55 60  1  0  0  0  0
 55 58  1  0  0  0  0
 56 57  1  0  0  0  0
 58 53  1  1  0  0  0
 58 57  1  0  0  0  0
 59 56  1  0  0  0  0
 60 59  1  0  0  0  0
 61 62  1  0  0  0  0
 61 59  1  0  0  0  0
 63 62  1  0  0  0  0
 64 65  2  0  0  0  0
 65 67  1  0  0  0  0
 66 64  1  0  0  0  0
 66 69  1  0  0  0  0
 68 66  2  0  0  0  0
 69 63  1  6  0  0  0
 69 67  1  0  0  0  0
M  END
>  <MODEL>
3

>  <REMARK>
 VINA RESULT:      -6.8      2.304      3.856
  Name = 
  21 active torsions:
  status: ('A' for Active; 'I' for Inactive)
    1  A    between atoms: C_8  and  C_9
    2  A    between atoms: C_8  and  C_37
    3  A    between atoms: C_9  and  C_11
    4  A    between atoms: C_10  and  C_56
    5  A    between atoms: C_10  and  N_66
    6  A    between atoms: C_15  and  C_54
    7  A    between atoms: C_15  and  C_62
    8  A    between atoms: C_18  and  C_51
    9  A    between atoms: C_18  and  C_65
   10  A    between atoms: C_20  and  N_42
   11  A    between atoms: O_26  and  C_27
   12  A    between atoms: O_26  and  C_45
   13  A    between atoms: C_27  and  C_33
   14  A    between atoms: C_37  and  C_59
   15  A    between atoms: N_39  and  C_41
   16  A    between atoms: C_41  and  C_45
   17  A    between atoms: C_45  and  C_51
   18  A    between atoms: C_48  and  C_51
   19  A    between atoms: C_48  and  C_54
   20  A    between atoms: C_56  and  N_64
   21  A    between atoms: N_66  and  C_67
                            x       y       z     vdW  Elec       q    Type
                         _______ _______ _______ _____ _____    ______ ____

>  <TORSDO>
F 21

$$$$
=
 OpenBabel11032420353D

 69 77  0  0  1  0  0  0  0  0999 V2000
  188.8050  176.6740  142.2120 C   0  0  1  0  0  3  0  0  0  0  0  0
  190.0900  177.4790  142.4110 C   0  0  2  0  0  3  0  0  0  0  0  0
  191.3560  176.8390  141.8210 C   0  0  0  0  0  2  0  0  0  0  0  0
  191.8100  177.4420  140.4920 C   0  0  0  0  0  2  0  0  0  0  0  0
  191.0290  176.8550  139.3270 C   0  0  0  0  0  2  0  0  0  0  0  0
  193.1880  175.8160  138.5190 C   0  0  0  0  0  3  0  0  0  0  0  0
  193.4290  175.2120  136.1880 C   0  0  0  0  0  3  0  0  0  0  0  0
  193.9510  175.2620  137.4830 C   0  0  0  0  0  0  0  0  0  0  0  0
  191.4320  176.2810  136.9620 N   0  0  0  0  0  0  0  0  0  0  0  0
  191.6350  175.7330  134.6200 N   0  0  0  0  0  1  0  0  0  0  0  0
  192.1610  175.7440  135.9410 C   0  0  0  0  0  0  0  0  0  0  0  0
  191.9120  176.3240  138.2400 C   0  0  0  0  0  0  0  0  0  0  0  0
  196.9770  175.7500  136.1880 O   0  0  0  0  0  0  0  0  0  0  0  0
  196.5840  175.0210  137.1360 C   0  0  0  0  0  0  0  0  0  0  0  0
  195.2100  172.6550  138.8270 N   0  0  0  0  0  1  0  0  0  0  0  0
  195.2630  174.7680  137.7450 N   0  0  0  0  0  0  0  0  0  0  0  0
  197.4360  173.8520  138.2280 S   0  0  0  0  0  0  0  0  0  0  0  0
  195.8310  173.9680  138.8040 C   0  0  2  0  0  3  0  0  0  0  0  0
  190.2250  177.9080  143.8660 C   0  0  0  0  0  2  0  0  0  0  0  0
  191.8340  177.7680  145.6270 O   0  0  0  0  0  0  0  0  0  0  0  0
  190.7870  176.9190  146.0320 C   0  0  0  0  0  2  0  0  0  0  0  0
  191.2030  177.0230  144.6160 C   0  0  1  0  0  3  0  0  0  0  0  0
  188.0130  176.5620  143.5020 C   0  0  0  0  0  2  0  0  0  0  0  0
  184.7510  179.1270  144.0290 C   0  0  0  0  0  0  0  0  0  0  0  0
  183.8530  180.0080  144.0910 O   0  0  0  0  0  0  0  0  0  0  0  0
  184.8820  178.2320  142.8520 C   0  0  0  0  0  0  0  0  0  0  0  0
  185.7510  179.0150  145.1470 C   0  0  2  0  0  3  0  0  0  0  0  0
  186.0310  177.4410  142.7840 O   0  0  0  0  0  0  0  0  0  0  0  0
  187.1160  177.7030  143.6000 N   0  0  0  0  0  0  0  0  0  0  0  0
  186.6440  177.7800  144.9800 C   0  0  0  0  0  2  0  0  0  0  0  0
  183.9760  178.1240  141.8730 C   0  0  0  0  0  3  0  0  0  0  0  0
  185.0970  178.9450  146.3660 F   0  0  0  0  0  0  0  0  0  0  0  0
  182.6810  178.8660  141.8190 C   0  0  2  0  0  3  0  0  0  0  0  0
  181.7920  178.3110  142.7370 O   0  0  0  0  0  1  0  0  0  0  0  0
  182.0960  178.7530  140.4220 C   0  0  0  0  0  2  0  0  0  0  0  0
  183.0380  179.3400  139.3820 C   0  0  0  0  0  2  0  0  0  0  0  0
  183.5530  172.4030  137.2160 F   0  0  0  0  0  0  0  0  0  0  0  0
  182.6000  177.2660  138.0340 C   0  0  1  0  0  3  0  0  0  0  0  0
  182.7550  178.8000  137.9920 C   0  0  1  0  0  3  0  0  0  0  0  0
  181.2750  176.7640  137.4160 C   0  0  1  0  0  3  0  0  0  0  0  0
  182.4090  173.1340  137.1970 C   0  0  0  0  0  0  0  0  0  0  0  0
  180.0230  173.2290  137.0650 N   0  0  0  0  0  0  0  0  0  0  0  0
  181.0140  177.4190  136.0530 C   0  0  0  0  0  2  0  0  0  0  0  0
  183.7820  176.6050  137.3260 C   0  0  0  0  0  2  0  0  0  0  0  0
  183.6820  175.1850  137.4260 O   0  0  0  0  0  0  0  0  0  0  0  0
  182.4550  174.5280  137.2950 C   0  0  0  0  0  0  0  0  0  0  0  0
  181.1350  178.9450  136.0770 C   0  0  0  0  0  2  0  0  0  0  0  0
  181.5070  179.5000  137.4510 C   0  0  0  0  0  2  0  0  0  0  0  0
  181.2560  175.2640  137.2950 C   0  0  0  0  0  0  0  0  0  0  0  0
  181.1720  172.4990  137.0800 C   0  0  0  0  0  3  0  0  0  0  0  0
  180.0390  174.5840  137.1680 C   0  0  0  0  0  3  0  0  0  0  0  0
  187.9860  177.1900  141.1720 O   0  0  0  0  0  0  0  0  0  0  0  0
  188.2150  178.4520  140.6160 C   0  0  0  0  0  0  0  0  0  0  0  0
  188.7830  179.3570  141.2890 O   0  0  0  0  0  0  0  0  0  0  0  0
  186.8240  177.6050  138.6880 C   0  0  0  0  0  2  0  0  0  0  0  0
  188.5860  178.6180  136.8730 C   0  0  0  0  0  2  0  0  0  0  0  0
  188.9080  179.0410  138.3000 C   0  0  0  0  0  2  0  0  0  0  0  0
  187.7300  178.7240  139.2240 C   0  0  2  0  0  3  0  0  0  0  0  0
  188.4340  177.1590  136.7920 N   0  0  0  0  0  0  0  0  0  0  0  0
  187.6340  176.5760  137.8910 C   0  0  0  0  0  2  0  0  0  0  0  0
  187.7410  176.8660  135.5440 C   0  0  0  0  0  2  0  0  0  0  0  0
  187.2290  175.4350  135.5510 C   0  0  0  0  0  2  0  0  0  0  0  0
  188.3500  174.5080  135.5420 N   0  0  0  0  0  2  0  0  0  0  0  0
  187.1150  171.2870  135.3400 C   0  0  0  0  0  3  0  0  0  0  0  0
  188.5290  171.0830  135.0370 N   0  0  0  0  0  0  0  0  0  0  0  0
  186.8380  172.7050  135.0680 C   0  0  0  0  0  0  0  0  0  0  0  0
  189.1130  172.3770  134.6550 C   0  0  0  0  0  2  0  0  0  0  0  0
  185.7320  173.2100  135.1860 O   0  0  0  0  0  0  0  0  0  0  0  0
  188.0260  173.4420  134.6070 C   0  0  2  0  0  3  0  0  0  0  0  0
  1  2  1  0  0  0  0
  1 23  1  1  0  0  0
  2  3  1  1  0  0  0
  2 19  1  0  0  0  0
  4  3  1  0  0  0  0
  5  4  1  0  0  0  0
  7  8  1  0  0  0  0
  8 16  1  0  0  0  0
  8  6  2  0  0  0  0
  9 12  2  0  0  0  0
 10 11  1  0  0  0  0
 11  7  2  0  0  0  0
 11  9  1  0  0  0  0
 12  6  1  0  0  0  0
 12  5  1  0  0  0  0
 13 14  2  0  0  0  0
 14 16  1  0  0  0  0
 14 17  1  0  0  0  0
 16 18  1  0  0  0  0
 17 18  1  0  0  0  0
 18 15  1  6  0  0  0
 20 21  1  0  0  0  0
 22 19  1  6  0  0  0
 22 20  1  0  0  0  0
 22 21  1  0  0  0  0
 23 29  1  0  0  0  0
 24 25  2  0  0  0  0
 24 27  1  0  0  0  0
 26 24  1  0  0  0  0
 27 32  1  1  0  0  0
 28 26  1  0  0  0  0
 28 29  1  0  0  0  0
 29 30  1  0  0  0  0
 30 27  1  0  0  0  0
 31 26  2  0  0  0  0
 33 31  1  0  0  0  0
 33 34  1  1  0  0  0
 35 33  1  0  0  0  0
 36 35  1  0  0  0  0
 38 44  1  6  0  0  0
 39 38  1  0  0  0  0
 39 36  1  1  0  0  0
 40 43  1  6  0  0  0
 40 38  1  0  0  0  0
 41 37  1  0  0  0  0
 41 46  1  0  0  0  0
 42 50  1  0  0  0  0
 42 51  2  0  0  0  0
 43 47  1  0  0  0  0
 44 45  1  0  0  0  0
 46 45  1  0  0  0  0
 47 48  1  0  0  0  0
 48 39  1  0  0  0  0
 49 46  2  0  0  0  0
 49 40  1  0  0  0  0
 50 41  2  0  0  0  0
 51 49  1  0  0  0  0
 52  1  1  0  0  0  0
 53 52  1  0  0  0  0
 53 54  2  0  0  0  0
 55 58  1  0  0  0  0
 56 57  1  0  0  0  0
 57 58  1  0  0  0  0
 58 53  1  1  0  0  0
 59 56  1  0  0  0  0
 59 60  1  0  0  0  0
 60 55  1  0  0  0  0
 61 62  1  0  0  0  0
 61 59  1  0  0  0  0
 63 62  1  0  0  0  0
 65 64  2  0  0  0  0
 66 68  2  0  0  0  0
 66 64  1  0  0  0  0
 67 65  1  0  0  0  0
 69 67  1  0  0  0  0
 69 66  1  0  0  0  0
 69 63  1  1  0  0  0
M  END
>  <MODEL>
4

>  <REMARK>
 VINA RESULT:      -6.4      3.423      9.539
  Name = 
  21 active torsions:
  status: ('A' for Active; 'I' for Inactive)
    1  A    between atoms: C_8  and  C_9
    2  A    between atoms: C_8  and  C_37
    3  A    between atoms: C_9  and  C_11
    4  A    between atoms: C_10  and  C_56
    5  A    between atoms: C_10  and  N_66
    6  A    between atoms: C_15  and  C_54
    7  A    between atoms: C_15  and  C_62
    8  A    between atoms: C_18  and  C_51
    9  A    between atoms: C_18  and  C_65
   10  A    between atoms: C_20  and  N_42
   11  A    between atoms: O_26  and  C_27
   12  A    between atoms: O_26  and  C_45
   13  A    between atoms: C_27  and  C_33
   14  A    between atoms: C_37  and  C_59
   15  A    between atoms: N_39  and  C_41
   16  A    between atoms: C_41  and  C_45
   17  A    between atoms: C_45  and  C_51
   18  A    between atoms: C_48  and  C_51
   19  A    between atoms: C_48  and  C_54
   20  A    between atoms: C_56  and  N_64
   21  A    between atoms: N_66  and  C_67
                            x       y       z     vdW  Elec       q    Type
                         _______ _______ _______ _____ _____    ______ ____

>  <TORSDO>
F 21

$$$$
=
 OpenBabel11032420353D

 69 77  0  0  1  0  0  0  0  0999 V2000
  189.3040  176.7920  141.3970 C   0  0  1  0  0  3  0  0  0  0  0  0
  190.5970  177.5700  141.6450 C   0  0  2  0  0  3  0  0  0  0  0  0
  191.8860  176.8300  141.2550 C   0  0  0  0  0  2  0  0  0  0  0  0
  192.5410  177.3330  139.9690 C   0  0  0  0  0  2  0  0  0  0  0  0
  191.6090  177.1720  138.7790 C   0  0  0  0  0  2  0  0  0  0  0  0
  193.3110  175.4840  137.9720 C   0  0  0  0  0  3  0  0  0  0  0  0
  192.8830  174.2220  135.9530 C   0  0  0  0  0  3  0  0  0  0  0  0
  193.7010  174.5060  137.0490 C   0  0  0  0  0  0  0  0  0  0  0  0
  191.3330  175.8900  136.6890 N   0  0  0  0  0  0  0  0  0  0  0  0
  190.8750  174.6860  134.6470 N   0  0  0  0  0  1  0  0  0  0  0  0
  191.6970  174.9400  135.7800 C   0  0  0  0  0  0  0  0  0  0  0  0
  192.1060  176.1730  137.7790 C   0  0  0  0  0  0  0  0  0  0  0  0
  195.8410  174.0350  139.5530 O   0  0  0  0  0  0  0  0  0  0  0  0
  195.8550  173.6360  138.3590 C   0  0  0  0  0  0  0  0  0  0  0  0
  196.0820  173.5460  135.1520 N   0  0  0  0  0  1  0  0  0  0  0  0
  194.9390  173.8170  137.2150 N   0  0  0  0  0  0  0  0  0  0  0  0
  197.0430  172.6620  137.3980 S   0  0  0  0  0  0  0  0  0  0  0  0
  195.6830  172.8970  136.3890 C   0  0  2  0  0  3  0  0  0  0  0  0
  190.6060  178.1440  143.0560 C   0  0  0  0  0  2  0  0  0  0  0  0
  191.8560  178.3330  145.0840 O   0  0  0  0  0  0  0  0  0  0  0  0
  191.4840  176.9780  145.0190 C   0  0  0  0  0  2  0  0  0  0  0  0
  191.8600  177.7400  143.8090 C   0  0  1  0  0  3  0  0  0  0  0  0
  188.7260  176.2470  142.6890 C   0  0  0  0  0  2  0  0  0  0  0  0
  185.9880  178.5550  144.8520 C   0  0  0  0  0  0  0  0  0  0  0  0
  185.2270  179.3820  145.4200 O   0  0  0  0  0  0  0  0  0  0  0  0
  185.7000  178.0420  143.4890 C   0  0  0  0  0  0  0  0  0  0  0  0
  187.2500  178.1190  145.5460 C   0  0  2  0  0  3  0  0  0  0  0  0
  186.7070  177.3020  142.8670 O   0  0  0  0  0  0  0  0  0  0  0  0
  187.9980  177.3120  143.3620 N   0  0  0  0  0  0  0  0  0  0  0  0
  187.9450  176.9850  144.7850 C   0  0  0  0  0  2  0  0  0  0  0  0
  184.5480  178.2260  142.8340 C   0  0  0  0  0  3  0  0  0  0  0  0
  186.9640  177.6990  146.8330 F   0  0  0  0  0  0  0  0  0  0  0  0
  183.3620  178.9550  143.3760 C   0  0  2  0  0  3  0  0  0  0  0  0
  182.7870  178.2060  144.4000 O   0  0  0  0  0  1  0  0  0  0  0  0
  182.3450  179.1520  142.2650 C   0  0  0  0  0  2  0  0  0  0  0  0
  180.9410  179.3140  142.8270 C   0  0  0  0  0  2  0  0  0  0  0  0
  179.2010  184.2760  137.7830 F   0  0  0  0  0  0  0  0  0  0  0  0
  180.0810  180.2560  140.6620 C   0  0  1  0  0  3  0  0  0  0  0  0
  179.8800  179.1800  141.7480 C   0  0  1  0  0  3  0  0  0  0  0  0
  180.1870  179.6750  139.2330 C   0  0  1  0  0  3  0  0  0  0  0  0
  179.6770  183.0350  137.5120 C   0  0  0  0  0  0  0  0  0  0  0  0
  180.6740  181.4980  135.9740 N   0  0  0  0  0  0  0  0  0  0  0  0
  179.0700  178.6590  138.9610 C   0  0  0  0  0  2  0  0  0  0  0  0
  178.9420  181.2730  140.7210 C   0  0  0  0  0  2  0  0  0  0  0  0
  179.1610  182.3110  139.7680 O   0  0  0  0  0  0  0  0  0  0  0  0
  179.6600  182.0370  138.4900 C   0  0  0  0  0  0  0  0  0  0  0  0
  178.9430  177.5870  140.0470 C   0  0  0  0  0  2  0  0  0  0  0  0
  179.9470  177.7590  141.1860 C   0  0  0  0  0  2  0  0  0  0  0  0
  180.1780  180.7630  138.1930 C   0  0  0  0  0  0  0  0  0  0  0  0
  180.1920  182.7420  136.2480 C   0  0  0  0  0  3  0  0  0  0  0  0
  180.6770  180.5130  136.9100 C   0  0  0  0  0  3  0  0  0  0  0  0
  188.3270  177.5530  140.7000 O   0  0  0  0  0  0  0  0  0  0  0  0
  188.6410  178.2580  139.5340 C   0  0  0  0  0  0  0  0  0  0  0  0
  189.0390  179.4550  139.5940 O   0  0  0  0  0  0  0  0  0  0  0  0
  187.5620  178.3960  137.2570 C   0  0  0  0  0  2  0  0  0  0  0  0
  187.1080  175.7090  137.2260 C   0  0  0  0  0  2  0  0  0  0  0  0
  187.9600  176.1450  138.4110 C   0  0  0  0  0  2  0  0  0  0  0  0
  188.4490  177.5810  138.2110 C   0  0  2  0  0  3  0  0  0  0  0  0
  185.8800  176.5130  137.1520 N   0  0  0  0  0  0  0  0  0  0  0  0
  186.0960  177.9600  137.3630 C   0  0  0  0  0  2  0  0  0  0  0  0
  185.3320  176.3430  135.8130 C   0  0  0  0  0  2  0  0  0  0  0  0
  183.8130  176.3630  135.8600 C   0  0  0  0  0  2  0  0  0  0  0  0
  183.3020  175.0030  135.9240 N   0  0  0  0  0  2  0  0  0  0  0  0
  180.3650  174.1650  137.5400 C   0  0  0  0  0  3  0  0  0  0  0  0
  180.3690  173.2240  136.4230 N   0  0  0  0  0  0  0  0  0  0  0  0
  181.2560  175.2680  137.1490 C   0  0  0  0  0  0  0  0  0  0  0  0
  181.3050  173.7180  135.4030 C   0  0  0  0  0  2  0  0  0  0  0  0
  181.4540  176.2510  137.8460 O   0  0  0  0  0  0  0  0  0  0  0  0
  181.8540  175.0760  135.8180 C   0  0  2  0  0  3  0  0  0  0  0  0
  1  2  1  0  0  0  0
  1 23  1  1  0  0  0
  2  3  1  1  0  0  0
  2 19  1  0  0  0  0
  4  3  1  0  0  0  0
  5  4  1  0  0  0  0
  7  8  1  0  0  0  0
  8 16  1  0  0  0  0
  8  6  2  0  0  0  0
  9 12  2  0  0  0  0
 10 11  1  0  0  0  0
 11  7  2  0  0  0  0
 11  9  1  0  0  0  0
 12  6  1  0  0  0  0
 12  5  1  0  0  0  0
 14 13  2  0  0  0  0
 16 14  1  0  0  0  0
 17 14  1  0  0  0  0
 18 15  1  6  0  0  0
 18 16  1  0  0  0  0
 18 17  1  0  0  0  0
 21 20  1  0  0  0  0
 22 19  1  6  0  0  0
 22 21  1  0  0  0  0
 22 20  1  0  0  0  0
 23 29  1  0  0  0  0
 24 25  2  0  0  0  0
 24 27  1  0  0  0  0
 26 24  1  0  0  0  0
 27 32  1  1  0  0  0
 28 29  1  0  0  0  0
 28 26  1  0  0  0  0
 29 30  1  0  0  0  0
 30 27  1  0  0  0  0
 31 33  1  0  0  0  0
 31 26  2  0  0  0  0
 33 34  1  1  0  0  0
 35 36  1  0  0  0  0
 35 33  1  0  0  0  0
 38 44  1  6  0  0  0
 38 39  1  0  0  0  0
 39 36  1  1  0  0  0
 40 43  1  6  0  0  0
 40 38  1  0  0  0  0
 41 37  1  0  0  0  0
 41 46  1  0  0  0  0
 42 50  1  0  0  0  0
 42 51  2  0  0  0  0
 43 47  1  0  0  0  0
 45 44  1  0  0  0  0
 46 45  1  0  0  0  0
 47 48  1  0  0  0  0
 48 39  1  0  0  0  0
 49 46  2  0  0  0  0
 49 40  1  0  0  0  0
 50 41  2  0  0  0  0
 51 49  1  0  0  0  0
 52  1  1  0  0  0  0
 53 54  2  0  0  0  0
 53 52  1  0  0  0  0
 55 60  1  0  0  0  0
 55 58  1  0  0  0  0
 56 57  1  0  0  0  0
 58 57  1  0  0  0  0
 58 53  1  1  0  0  0
 59 56  1  0  0  0  0
 59 60  1  0  0  0  0
 61 62  1  0  0  0  0
 61 59  1  0  0  0  0
 62 63  1  0  0  0  0
 65 64  2  0  0  0  0
 66 64  1  0  0  0  0
 66 68  2  0  0  0  0
 67 69  1  0  0  0  0
 67 65  1  0  0  0  0
 69 63  1  1  0  0  0
 69 66  1  0  0  0  0
M  END
>  <MODEL>
5

>  <REMARK>
 VINA RESULT:      -6.2      3.763     10.586
  Name = 
  21 active torsions:
  status: ('A' for Active; 'I' for Inactive)
    1  A    between atoms: C_8  and  C_9
    2  A    between atoms: C_8  and  C_37
    3  A    between atoms: C_9  and  C_11
    4  A    between atoms: C_10  and  C_56
    5  A    between atoms: C_10  and  N_66
    6  A    between atoms: C_15  and  C_54
    7  A    between atoms: C_15  and  C_62
    8  A    between atoms: C_18  and  C_51
    9  A    between atoms: C_18  and  C_65
   10  A    between atoms: C_20  and  N_42
   11  A    between atoms: O_26  and  C_27
   12  A    between atoms: O_26  and  C_45
   13  A    between atoms: C_27  and  C_33
   14  A    between atoms: C_37  and  C_59
   15  A    between atoms: N_39  and  C_41
   16  A    between atoms: C_41  and  C_45
   17  A    between atoms: C_45  and  C_51
   18  A    between atoms: C_48  and  C_51
   19  A    between atoms: C_48  and  C_54
   20  A    between atoms: C_56  and  N_64
   21  A    between atoms: N_66  and  C_67
                            x       y       z     vdW  Elec       q    Type
                         _______ _______ _______ _____ _____    ______ ____

>  <TORSDO>
F 21

$$$$
=
 OpenBabel11032420353D

 69 77  0  0  1  0  0  0  0  0999 V2000
  189.7310  177.6130  143.1220 C   0  0  1  0  0  3  0  0  0  0  0  0
  190.7570  176.6200  142.5730 C   0  0  2  0  0  3  0  0  0  0  0  0
  190.6880  176.3850  141.0560 C   0  0  0  0  0  2  0  0  0  0  0  0
  191.4440  177.4180  140.2210 C   0  0  0  0  0  2  0  0  0  0  0  0
  192.8260  176.9100  139.8390 C   0  0  0  0  0  2  0  0  0  0  0  0
  193.9980  175.6580  137.9800 C   0  0  0  0  0  3  0  0  0  0  0  0
  192.8490  175.2680  135.8870 C   0  0  0  0  0  3  0  0  0  0  0  0
  193.9790  175.1090  136.6920 C   0  0  0  0  0  0  0  0  0  0  0  0
  191.7980  176.5290  137.6290 N   0  0  0  0  0  0  0  0  0  0  0  0
  190.6210  176.2020  135.5470 N   0  0  0  0  0  1  0  0  0  0  0  0
  191.7620  176.0000  136.3710 C   0  0  0  0  0  0  0  0  0  0  0  0
  192.8840  176.3700  138.4420 C   0  0  0  0  0  0  0  0  0  0  0  0
  194.5350  172.0880  135.4110 O   0  0  0  0  0  0  0  0  0  0  0  0
  195.3100  173.0550  135.6320 C   0  0  0  0  0  0  0  0  0  0  0  0
  197.1410  175.2510  137.1050 N   0  0  0  0  0  1  0  0  0  0  0  0
  195.1170  174.4060  136.1960 N   0  0  0  0  0  0  0  0  0  0  0  0
  197.0950  173.2790  135.4150 S   0  0  0  0  0  0  0  0  0  0  0  0
  196.4740  174.7960  135.8970 C   0  0  2  0  0  3  0  0  0  0  0  0
  190.7540  175.3440  143.4060 C   0  0  0  0  0  2  0  0  0  0  0  0
  192.0550  175.9480  145.3170 O   0  0  0  0  0  0  0  0  0  0  0  0
  191.8000  174.5740  145.4780 C   0  0  0  0  0  2  0  0  0  0  0  0
  192.0650  175.1660  144.1490 C   0  0  1  0  0  3  0  0  0  0  0  0
  190.2980  178.4200  144.2740 C   0  0  0  0  0  2  0  0  0  0  0  0
  186.8990  178.1670  146.6990 C   0  0  0  0  0  0  0  0  0  0  0  0
  185.8970  178.2550  147.4570 O   0  0  0  0  0  0  0  0  0  0  0  0
  186.8360  178.5820  145.2750 C   0  0  0  0  0  0  0  0  0  0  0  0
  188.2080  177.6840  147.2620 C   0  0  2  0  0  3  0  0  0  0  0  0
  188.0470  178.6470  144.5820 O   0  0  0  0  0  0  0  0  0  0  0  0
  189.2500  178.6260  145.2610 N   0  0  0  0  0  0  0  0  0  0  0  0
  189.2500  177.4740  146.1590 C   0  0  0  0  0  2  0  0  0  0  0  0
  185.7090  178.8780  144.6170 C   0  0  0  0  0  3  0  0  0  0  0  0
  188.0210  176.4950  147.9480 F   0  0  0  0  0  0  0  0  0  0  0  0
  184.3350  178.8160  145.2020 C   0  0  2  0  0  3  0  0  0  0  0  0
  184.0420  177.5020  145.5560 O   0  0  0  0  0  1  0  0  0  0  0  0
  183.3300  179.2940  144.1690 C   0  0  0  0  0  2  0  0  0  0  0  0
  183.6440  178.7300  142.7920 C   0  0  0  0  0  2  0  0  0  0  0  0
  182.8920  175.7200  136.2000 F   0  0  0  0  0  0  0  0  0  0  0  0
  182.5080  177.8700  140.7230 C   0  0  1  0  0  3  0  0  0  0  0  0
  182.5070  178.9610  141.8120 C   0  0  1  0  0  3  0  0  0  0  0  0
  181.1550  177.1370  140.5840 C   0  0  1  0  0  3  0  0  0  0  0  0
  182.0170  175.5610  137.2240 C   0  0  0  0  0  0  0  0  0  0  0  0
  180.2030  174.3610  138.2220 N   0  0  0  0  0  0  0  0  0  0  0  0
  179.9870  178.1310  140.5240 C   0  0  0  0  0  2  0  0  0  0  0  0
  182.9040  178.4800  139.3780 C   0  0  0  0  0  2  0  0  0  0  0  0
  182.9790  177.4630  138.3810 O   0  0  0  0  0  0  0  0  0  0  0  0
  182.0410  176.4260  138.3220 C   0  0  0  0  0  0  0  0  0  0  0  0
  180.0080  179.1640  141.6550 C   0  0  0  0  0  2  0  0  0  0  0  0
  181.1970  178.9990  142.6010 C   0  0  0  0  0  2  0  0  0  0  0  0
  181.1390  176.2300  139.3830 C   0  0  0  0  0  0  0  0  0  0  0  0
  181.0800  174.5260  137.1930 C   0  0  0  0  0  3  0  0  0  0  0  0
  180.2130  175.1840  139.3040 C   0  0  0  0  0  3  0  0  0  0  0  0
  189.2090  178.4770  142.1220 O   0  0  0  0  0  0  0  0  0  0  0  0
  188.0330  178.1720  141.4310 C   0  0  0  0  0  0  0  0  0  0  0  0
  187.2010  177.3510  141.9090 O   0  0  0  0  0  0  0  0  0  0  0  0
  186.5440  178.2580  139.3950 C   0  0  0  0  0  2  0  0  0  0  0  0
  188.6850  178.6370  137.7520 C   0  0  0  0  0  2  0  0  0  0  0  0
  189.0610  178.6960  139.2270 C   0  0  0  0  0  2  0  0  0  0  0  0
  187.8020  178.8010  140.0900 C   0  0  2  0  0  3  0  0  0  0  0  0
  187.9330  177.4080  137.4620 N   0  0  0  0  0  0  0  0  0  0  0  0
  186.8910  177.0910  138.4630 C   0  0  0  0  0  2  0  0  0  0  0  0
  187.2650  177.6020  136.1820 C   0  0  0  0  0  2  0  0  0  0  0  0
  186.0210  176.7330  136.1010 C   0  0  0  0  0  2  0  0  0  0  0  0
  186.2790  175.5770  135.2560 N   0  0  0  0  0  2  0  0  0  0  0  0
  187.2430  172.2880  135.6870 C   0  0  0  0  0  3  0  0  0  0  0  0
  185.9120  172.1340  135.1040 N   0  0  0  0  0  0  0  0  0  0  0  0
  187.2870  173.6430  136.2570 C   0  0  0  0  0  0  0  0  0  0  0  0
  185.1890  173.4050  135.2570 C   0  0  0  0  0  2  0  0  0  0  0  0
  188.2520  174.0900  136.8560 O   0  0  0  0  0  0  0  0  0  0  0  0
  186.0330  174.3880  136.0550 C   0  0  2  0  0  3  0  0  0  0  0  0
  1 23  1  1  0  0  0
  2  3  1  6  0  0  0
  2  1  1  0  0  0  0
  2 19  1  0  0  0  0
  4  3  1  0  0  0  0
  5  4  1  0  0  0  0
  6 12  1  0  0  0  0
  7 11  2  0  0  0  0
  7  8  1  0  0  0  0
  8  6  2  0  0  0  0
  9 12  2  0  0  0  0
 10 11  1  0  0  0  0
 11  9  1  0  0  0  0
 12  5  1  0  0  0  0
 13 14  2  0  0  0  0
 14 16  1  0  0  0  0
 16  8  1  0  0  0  0
 17 14  1  0  0  0  0
 17 18  1  0  0  0  0
 18 16  1  0  0  0  0
 18 15  1  1  0  0  0
 20 21  1  0  0  0  0
 22 19  1  6  0  0  0
 22 20  1  0  0  0  0
 22 21  1  0  0  0  0
 23 29  1  0  0  0  0
 24 27  1  0  0  0  0
 24 25  2  0  0  0  0
 26 24  1  0  0  0  0
 27 32  1  6  0  0  0
 28 29  1  0  0  0  0
 28 26  1  0  0  0  0
 29 30  1  0  0  0  0
 30 27  1  0  0  0  0
 31 33  1  0  0  0  0
 31 26  2  0  0  0  0
 33 34  1  6  0  0  0
 35 33  1  0  0  0  0
 36 35  1  0  0  0  0
 37 41  1  0  0  0  0
 38 44  1  6  0  0  0
 38 39  1  0  0  0  0
 39 48  1  0  0  0  0
 39 36  1  1  0  0  0
 40 43  1  6  0  0  0
 40 38  1  0  0  0  0
 41 46  1  0  0  0  0
 42 51  2  0  0  0  0
 43 47  1  0  0  0  0
 45 44  1  0  0  0  0
 46 45  1  0  0  0  0
 46 49  2  0  0  0  0
 47 48  1  0  0  0  0
 49 40  1  0  0  0  0
 50 41  2  0  0  0  0
 50 42  1  0  0  0  0
 51 49  1  0  0  0  0
 52  1  1  0  0  0  0
 53 54  2  0  0  0  0
 53 52  1  0  0  0  0
 55 58  1  0  0  0  0
 56 57  1  0  0  0  0
 57 58  1  0  0  0  0
 58 53  1  1  0  0  0
 59 56  1  0  0  0  0
 59 60  1  0  0  0  0
 60 55  1  0  0  0  0
 61 59  1  0  0  0  0
 62 61  1  0  0  0  0
 63 62  1  0  0  0  0
 64 66  1  0  0  0  0
 65 67  1  0  0  0  0
 65 64  2  0  0  0  0
 66 68  2  0  0  0  0
 67 69  1  0  0  0  0
 69 63  1  6  0  0  0
 69 66  1  0  0  0  0
M  END
>  <MODEL>
6

>  <REMARK>
 VINA RESULT:      -5.4      3.199      9.563
  Name = 
  21 active torsions:
  status: ('A' for Active; 'I' for Inactive)
    1  A    between atoms: C_8  and  C_9
    2  A    between atoms: C_8  and  C_37
    3  A    between atoms: C_9  and  C_11
    4  A    between atoms: C_10  and  C_56
    5  A    between atoms: C_10  and  N_66
    6  A    between atoms: C_15  and  C_54
    7  A    between atoms: C_15  and  C_62
    8  A    between atoms: C_18  and  C_51
    9  A    between atoms: C_18  and  C_65
   10  A    between atoms: C_20  and  N_42
   11  A    between atoms: O_26  and  C_27
   12  A    between atoms: O_26  and  C_45
   13  A    between atoms: C_27  and  C_33
   14  A    between atoms: C_37  and  C_59
   15  A    between atoms: N_39  and  C_41
   16  A    between atoms: C_41  and  C_45
   17  A    between atoms: C_45  and  C_51
   18  A    between atoms: C_48  and  C_51
   19  A    between atoms: C_48  and  C_54
   20  A    between atoms: C_56  and  N_64
   21  A    between atoms: N_66  and  C_67
                            x       y       z     vdW  Elec       q    Type
                         _______ _______ _______ _____ _____    ______ ____

>  <TORSDO>
F 21

$$$$
=
 OpenBabel11032420353D

 69 77  0  0  1  0  0  0  0  0999 V2000
  190.3070  177.2160  138.8070 C   0  0  1  0  0  3  0  0  0  0  0  0
  191.1370  176.0490  138.2720 C   0  0  2  0  0  3  0  0  0  0  0  0
  192.5300  176.4280  137.7470 C   0  0  0  0  0  2  0  0  0  0  0  0
  193.6120  176.5080  138.8240 C   0  0  0  0  0  2  0  0  0  0  0  0
  193.8970  175.1380  139.4190 C   0  0  0  0  0  2  0  0  0  0  0  0
  195.2040  173.3880  138.1430 C   0  0  0  0  0  3  0  0  0  0  0  0
  197.6060  173.6000  137.9380 C   0  0  0  0  0  3  0  0  0  0  0  0
  196.4250  172.9120  137.6490 C   0  0  0  0  0  0  0  0  0  0  0  0
  196.3550  175.1900  139.2160 N   0  0  0  0  0  0  0  0  0  0  0  0
  198.7540  175.4290  139.0740 N   0  0  0  0  0  1  0  0  0  0  0  0
  197.5540  174.7410  138.7420 C   0  0  0  0  0  0  0  0  0  0  0  0
  195.1850  174.5460  138.9320 C   0  0  0  0  0  0  0  0  0  0  0  0
  198.0690  170.0230  137.8090 O   0  0  0  0  0  0  0  0  0  0  0  0
  197.2180  170.4530  136.9880 C   0  0  0  0  0  0  0  0  0  0  0  0
  195.7870  172.1050  134.6270 N   0  0  0  0  0  1  0  0  0  0  0  0
  196.4650  171.7180  136.8700 N   0  0  0  0  0  0  0  0  0  0  0  0
  196.5010  169.7560  135.4760 S   0  0  0  0  0  0  0  0  0  0  0  0
  195.6700  171.2190  135.7730 C   0  0  2  0  0  3  0  0  0  0  0  0
  190.3100  175.2120  137.3050 C   0  0  0  0  0  2  0  0  0  0  0  0
  190.4320  173.5550  135.5870 O   0  0  0  0  0  0  0  0  0  0  0  0
  190.6780  174.7730  134.9270 C   0  0  0  0  0  2  0  0  0  0  0  0
  191.1900  174.5090  136.2890 C   0  0  1  0  0  3  0  0  0  0  0  0
  189.8010  178.1010  137.6820 C   0  0  0  0  0  2  0  0  0  0  0  0
  185.7050  178.0620  136.8330 C   0  0  0  0  0  0  0  0  0  0  0  0
  184.4730  177.8920  136.6340 O   0  0  0  0  0  0  0  0  0  0  0  0
  186.2390  178.3810  138.1810 C   0  0  0  0  0  0  0  0  0  0  0  0
  186.6670  177.8810  135.6900 C   0  0  2  0  0  3  0  0  0  0  0  0
  187.6260  178.3380  138.3380 O   0  0  0  0  0  0  0  0  0  0  0  0
  188.4250  177.7370  137.3830 N   0  0  0  0  0  0  0  0  0  0  0  0
  188.0870  178.3030  136.0800 C   0  0  0  0  0  2  0  0  0  0  0  0
  185.4890  178.7190  139.2360 C   0  0  0  0  0  3  0  0  0  0  0  0
  186.2520  178.6230  134.5970 F   0  0  0  0  0  0  0  0  0  0  0  0
  184.0010  178.8510  139.2220 C   0  0  2  0  0  3  0  0  0  0  0  0
  183.6560  180.2000  139.2440 O   0  0  0  0  0  1  0  0  0  0  0  0
  183.4260  178.1660  140.4500 C   0  0  0  0  0  2  0  0  0  0  0  0
  182.4620  179.0800  141.1900 C   0  0  0  0  0  2  0  0  0  0  0  0
  179.4580  179.8200  134.5940 F   0  0  0  0  0  0  0  0  0  0  0  0
  180.8720  178.7030  139.2820 C   0  0  1  0  0  3  0  0  0  0  0  0
  181.0170  178.8040  140.8140 C   0  0  1  0  0  3  0  0  0  0  0  0
  180.2030  177.3920  138.8120 C   0  0  1  0  0  3  0  0  0  0  0  0
  179.5340  178.6510  135.2800 C   0  0  0  0  0  0  0  0  0  0  0  0
  179.4260  176.2620  135.3040 N   0  0  0  0  0  0  0  0  0  0  0  0
  178.9310  177.0960  139.6190 C   0  0  0  0  0  2  0  0  0  0  0  0
  180.0820  179.9020  138.7550 C   0  0  0  0  0  2  0  0  0  0  0  0
  180.0080  179.8530  137.3320 O   0  0  0  0  0  0  0  0  0  0  0  0
  179.8030  178.6480  136.6510 C   0  0  0  0  0  0  0  0  0  0  0  0
  179.1420  177.1640  141.1340 C   0  0  0  0  0  2  0  0  0  0  0  0
  180.5720  177.5270  141.5300 C   0  0  0  0  0  2  0  0  0  0  0  0
  179.8980  177.4250  137.3390 C   0  0  0  0  0  0  0  0  0  0  0  0
  179.3460  177.4360  134.6190 C   0  0  0  0  0  3  0  0  0  0  0  0
  179.6940  176.2310  136.6360 C   0  0  0  0  0  3  0  0  0  0  0  0
  189.2270  176.7960  139.6280 O   0  0  0  0  0  0  0  0  0  0  0  0
  189.1240  177.1940  140.9650 C   0  0  0  0  0  0  0  0  0  0  0  0
  188.0030  177.4980  141.4600 O   0  0  0  0  0  0  0  0  0  0  0  0
  190.8980  175.9300  142.2400 C   0  0  0  0  0  2  0  0  0  0  0  0
  191.0610  177.9010  144.1150 C   0  0  0  0  0  2  0  0  0  0  0  0
  190.1790  178.2870  142.9350 C   0  0  0  0  0  2  0  0  0  0  0  0
  190.3760  177.3010  141.7820 C   0  0  2  0  0  3  0  0  0  0  0  0
  190.6460  176.6010  144.6630 N   0  0  0  0  0  0  0  0  0  0  0  0
  190.3670  175.5770  143.6330 C   0  0  0  0  0  2  0  0  0  0  0  0
  191.7440  176.1080  145.4830 C   0  0  0  0  0  2  0  0  0  0  0  0
  191.6060  176.6180  146.9080 C   0  0  0  0  0  2  0  0  0  0  0  0
  190.2430  176.4150  147.3760 N   0  0  0  0  0  2  0  0  0  0  0  0
  187.5470  178.2580  148.5030 C   0  0  0  0  0  3  0  0  0  0  0  0
  187.0810  177.8240  147.1880 N   0  0  0  0  0  0  0  0  0  0  0  0
  189.0140  178.1610  148.4710 C   0  0  0  0  0  0  0  0  0  0  0  0
  188.2480  177.4030  146.3990 C   0  0  0  0  0  2  0  0  0  0  0  0
  189.7300  178.4840  149.4060 O   0  0  0  0  0  0  0  0  0  0  0  0
  189.5260  177.6650  147.1830 C   0  0  2  0  0  3  0  0  0  0  0  0
  1 23  1  6  0  0  0
  1 52  1  0  0  0  0
  2 19  1  6  0  0  0
  2  1  1  0  0  0  0
  3  2  1  0  0  0  0
  3  4  1  0  0  0  0
  4  5  1  0  0  0  0
  6 12  1  0  0  0  0
  7 11  2  0  0  0  0
  8  7  1  0  0  0  0
  8  6  2  0  0  0  0
 11 10  1  0  0  0  0
 11  9  1  0  0  0  0
 12  9  2  0  0  0  0
 12  5  1  0  0  0  0
 14 13  2  0  0  0  0
 16 14  1  0  0  0  0
 16  8  1  0  0  0  0
 17 18  1  0  0  0  0
 17 14  1  0  0  0  0
 18 15  1  6  0  0  0
 18 16  1  0  0  0  0
 20 22  1  0  0  0  0
 21 20  1  0  0  0  0
 21 22  1  0  0  0  0
 22 19  1  1  0  0  0
 24 26  1  0  0  0  0
 25 24  2  0  0  0  0
 26 28  1  0  0  0  0
 26 31  2  0  0  0  0
 27 32  1  6  0  0  0
 27 30  1  0  0  0  0
 27 24  1  0  0  0  0
 29 23  1  0  0  0  0
 29 28  1  0  0  0  0
 30 29  1  0  0  0  0
 33 31  1  0  0  0  0
 33 34  1  1  0  0  0
 33 35  1  0  0  0  0
 35 36  1  0  0  0  0
 37 41  1  0  0  0  0
 38 44  1  1  0  0  0
 38 39  1  0  0  0  0
 39 36  1  6  0  0  0
 39 48  1  0  0  0  0
 40 38  1  0  0  0  0
 40 43  1  1  0  0  0
 41 46  1  0  0  0  0
 42 51  2  0  0  0  0
 43 47  1  0  0  0  0
 45 44  1  0  0  0  0
 46 45  1  0  0  0  0
 46 49  2  0  0  0  0
 47 48  1  0  0  0  0
 49 40  1  0  0  0  0
 50 41  2  0  0  0  0
 50 42  1  0  0  0  0
 51 49  1  0  0  0  0
 52 53  1  0  0  0  0
 53 54  2  0  0  0  0
 55 60  1  0  0  0  0
 56 59  1  0  0  0  0
 57 56  1  0  0  0  0
 58 53  1  1  0  0  0
 58 55  1  0  0  0  0
 58 57  1  0  0  0  0
 59 61  1  0  0  0  0
 60 59  1  0  0  0  0
 61 62  1  0  0  0  0
 62 63  1  0  0  0  0
 65 64  2  0  0  0  0
 66 64  1  0  0  0  0
 66 68  2  0  0  0  0
 67 69  1  0  0  0  0
 67 65  1  0  0  0  0
 69 63  1  1  0  0  0
 69 66  1  0  0  0  0
M  END
>  <MODEL>
7

>  <REMARK>
 VINA RESULT:      -4.8      3.710     10.891
  Name = 
  21 active torsions:
  status: ('A' for Active; 'I' for Inactive)
    1  A    between atoms: C_8  and  C_9
    2  A    between atoms: C_8  and  C_37
    3  A    between atoms: C_9  and  C_11
    4  A    between atoms: C_10  and  C_56
    5  A    between atoms: C_10  and  N_66
    6  A    between atoms: C_15  and  C_54
    7  A    between atoms: C_15  and  C_62
    8  A    between atoms: C_18  and  C_51
    9  A    between atoms: C_18  and  C_65
   10  A    between atoms: C_20  and  N_42
   11  A    between atoms: O_26  and  C_27
   12  A    between atoms: O_26  and  C_45
   13  A    between atoms: C_27  and  C_33
   14  A    between atoms: C_37  and  C_59
   15  A    between atoms: N_39  and  C_41
   16  A    between atoms: C_41  and  C_45
   17  A    between atoms: C_45  and  C_51
   18  A    between atoms: C_48  and  C_51
   19  A    between atoms: C_48  and  C_54
   20  A    between atoms: C_56  and  N_64
   21  A    between atoms: N_66  and  C_67
                            x       y       z     vdW  Elec       q    Type
                         _______ _______ _______ _____ _____    ______ ____

>  <TORSDO>
F 21

$$$$
