=
 OpenBabel11042412043D

 30 36  0  0  1  0  0  0  0  0999 V2000
  189.7530  179.0920  142.1850 C   0  0  0  0  0  2  0  0  0  0  0  0
  186.9330  176.1100  144.9920 C   0  0  0  0  0  2  0  0  0  0  0  0
  187.0340  178.6870  147.7510 C   0  0  2  0  0  3  0  0  0  0  0  0
  188.3090  177.8470  148.0560 C   0  0  0  0  0  1  0  0  0  0  0  0
  186.1100  179.2530  146.0050 C   0  0  2  0  0  3  0  0  0  0  0  0
  186.6470  178.0590  143.3140 C   0  0  0  0  0  2  0  0  0  0  0  0
  192.1230  175.5010  146.9930 C   0  0  0  0  0  3  0  0  0  0  0  0
  187.2880  176.7010  143.6200 C   0  0  1  0  0  3  0  0  0  0  0  0
  191.2520  176.4780  147.4760 C   0  0  0  0  0  3  0  0  0  0  0  0
  189.5100  178.2030  147.0960 C   0  0  0  0  0  2  0  0  0  0  0  0
  191.3520  175.9240  144.7710 N   0  0  0  0  0  0  0  0  0  0  0  0
  192.1600  175.2370  145.6220 C   0  0  0  0  0  3  0  0  0  0  0  0
  189.6260  177.6160  144.2210 C   0  0  1  0  0  3  0  0  0  0  0  0
  190.4790  178.6270  143.4410 C   0  0  0  0  0  2  0  0  0  0  0  0
  188.7970  176.6390  143.3410 C   0  0  2  0  0  3  0  0  0  0  0  0
  185.2440  178.1420  143.9130 C   0  0  0  0  0  2  0  0  0  0  0  0
  185.7960  179.5010  147.4540 C   0  0  0  0  0  2  0  0  0  0  0  0
  189.0710  176.7530  141.8600 C   0  0  0  0  0  3  0  0  0  0  0  0
  185.2710  178.0870  145.4500 C   0  0  1  0  0  3  0  0  0  0  0  0
  186.2940  177.0770  146.0070 C   0  0  2  0  0  3  0  0  0  0  0  0
  188.2990  177.8750  147.3540 C   0  0  2  0  0  0  0  0  0  0  0  0
  190.4280  177.1790  146.5910 C   0  0  0  0  0  0  0  0  0  0  0  0
  187.2040  178.2450  146.3850 C   0  0  2  0  0  0  0  0  0  0  0  0
  190.4850  176.8770  145.2120 C   0  0  0  0  0  0  0  0  0  0  0  0
  189.4840  177.9030  141.3120 C   0  0  0  0  0  0  0  0  0  0  0  0
  189.8060  177.9600  139.8580 C   0  0  0  0  0  2  0  0  0  0  0  0
  187.8870  176.8150  138.1010 O   0  0  0  0  0  1  0  0  0  0  0  0
  188.7720  178.7030  139.1540 N   0  0  0  0  0  2  0  0  0  0  0  0
  187.8390  178.0590  138.2870 C   0  0  0  0  0  0  0  0  0  0  0  0
  186.8690  178.8140  137.6420 O   0  0  0  0  0  0  0  0  0  0  0  0
  1 14  1  0  0  0  0
  3 17  1  6  0  0  0
  5 23  1  0  0  0  0
  5 17  1  1  0  0  0
  6 16  1  0  0  0  0
  7  9  1  0  0  0  0
  8  6  1  1  0  0  0
  8  2  1  0  0  0  0
 10 21  1  0  0  0  0
 11 24  2  0  0  0  0
 11 12  1  0  0  0  0
 12  7  2  0  0  0  0
 13 14  1  6  0  0  0
 13 24  1  0  0  0  0
 15 18  1  6  0  0  0
 15  8  1  0  0  0  0
 15 13  1  0  0  0  0
 19 16  1  6  0  0  0
 19  5  1  0  0  0  0
 19 20  1  0  0  0  0
 20  2  1  6  0  0  0
 20 23  1  0  0  0  0
 21  3  1  0  0  0  0
 21  4  1  1  0  0  0
 22 10  1  0  0  0  0
 22  9  2  0  0  0  0
 23 21  1  0  0  0  0
 23  3  1  0  0  0  0
 24 22  1  0  0  0  0
 25 18  2  0  0  0  0
 25  1  1  0  0  0  0
 26 25  1  0  0  0  0
 27 29  1  0  0  0  0
 28 26  1  0  0  0  0
 29 28  1  0  0  0  0
 30 29  2  0  0  0  0
M  END
>  <MODEL>
1

>  <REMARK>
 VINA RESULT:      -8.9      0.000      0.000
  Name = 
  2 active torsions:
  status: ('A' for Active; 'I' for Inactive)
    1  A    between atoms: C_10  and  N_13
    2  A    between atoms: C_10  and  C_30
                            x       y       z     vdW  Elec       q    Type
                         _______ _______ _______ _____ _____    ______ ____

>  <TORSDO>
F 2

$$$$
=
 OpenBabel11042412043D

 30 36  0  0  1  0  0  0  0  0999 V2000
  190.1290  178.9040  142.1980 C   0  0  0  0  0  2  0  0  0  0  0  0
  187.1010  175.9980  144.8630 C   0  0  0  0  0  2  0  0  0  0  0  0
  186.9330  178.6820  147.5140 C   0  0  2  0  0  3  0  0  0  0  0  0
  188.1840  177.8720  147.9640 C   0  0  0  0  0  1  0  0  0  0  0  0
  186.1620  179.1670  145.6730 C   0  0  2  0  0  3  0  0  0  0  0  0
  186.9460  177.8760  143.0890 C   0  0  0  0  0  2  0  0  0  0  0  0
  192.0990  175.5360  147.3360 C   0  0  0  0  0  3  0  0  0  0  0  0
  187.5700  176.5390  143.5050 C   0  0  1  0  0  3  0  0  0  0  0  0
  191.1790  176.5190  147.7000 C   0  0  0  0  0  3  0  0  0  0  0  0
  189.4620  178.2050  147.1000 C   0  0  0  0  0  2  0  0  0  0  0  0
  191.5230  175.8610  145.0390 N   0  0  0  0  0  0  0  0  0  0  0  0
  192.2600  175.2180  145.9850 C   0  0  0  0  0  3  0  0  0  0  0  0
  189.8370  177.5070  144.2720 C   0  0  1  0  0  3  0  0  0  0  0  0
  190.7460  178.4980  143.5300 C   0  0  0  0  0  2  0  0  0  0  0  0
  189.0980  176.4860  143.3630 C   0  0  2  0  0  3  0  0  0  0  0  0
  185.4940  177.9640  143.5590 C   0  0  0  0  0  2  0  0  0  0  0  0
  185.7190  179.4680  147.0780 C   0  0  0  0  0  2  0  0  0  0  0  0
  189.5010  176.5450  141.9080 C   0  0  0  0  0  3  0  0  0  0  0  0
  185.3860  177.9700  145.0940 C   0  0  1  0  0  3  0  0  0  0  0  0
  186.3650  176.9960  145.7780 C   0  0  2  0  0  3  0  0  0  0  0  0
  188.2360  177.8720  147.2630 C   0  0  2  0  0  0  0  0  0  0  0  0
  190.4310  177.1740  146.7190 C   0  0  0  0  0  0  0  0  0  0  0  0
  187.2280  178.1890  146.1880 C   0  0  2  0  0  0  0  0  0  0  0  0
  190.6120  176.8190  145.3640 C   0  0  0  0  0  0  0  0  0  0  0  0
  189.9500  177.6780  141.3530 C   0  0  0  0  0  0  0  0  0  0  0  0
  190.3990  177.6820  139.9320 C   0  0  0  0  0  2  0  0  0  0  0  0
  192.2320  176.6270  138.0330 O   0  0  0  0  0  1  0  0  0  0  0  0
  190.3620  176.3280  139.4010 N   0  0  0  0  0  2  0  0  0  0  0  0
  191.3190  175.8650  138.4490 C   0  0  0  0  0  0  0  0  0  0  0  0
  191.2420  174.5610  137.9770 O   0  0  0  0  0  0  0  0  0  0  0  0
  1 14  1  0  0  0  0
  3 17  1  6  0  0  0
  5 23  1  0  0  0  0
  5 17  1  1  0  0  0
  6 16  1  0  0  0  0
  7  9  1  0  0  0  0
  8  6  1  1  0  0  0
  8  2  1  0  0  0  0
 10 21  1  0  0  0  0
 11 24  2  0  0  0  0
 11 12  1  0  0  0  0
 12  7  2  0  0  0  0
 13 14  1  6  0  0  0
 13 24  1  0  0  0  0
 15 18  1  6  0  0  0
 15  8  1  0  0  0  0
 15 13  1  0  0  0  0
 19 16  1  6  0  0  0
 19  5  1  0  0  0  0
 19 20  1  0  0  0  0
 20  2  1  6  0  0  0
 20 23  1  0  0  0  0
 21  3  1  0  0  0  0
 21  4  1  1  0  0  0
 22 10  1  0  0  0  0
 22  9  2  0  0  0  0
 23 21  1  0  0  0  0
 23  3  1  0  0  0  0
 24 22  1  0  0  0  0
 25 18  2  0  0  0  0
 25  1  1  0  0  0  0
 26 25  1  0  0  0  0
 27 29  1  0  0  0  0
 28 26  1  0  0  0  0
 29 28  1  0  0  0  0
 30 29  2  0  0  0  0
M  END
>  <MODEL>
2

>  <REMARK>
 VINA RESULT:      -8.8      1.536      1.678
  Name = 
  2 active torsions:
  status: ('A' for Active; 'I' for Inactive)
    1  A    between atoms: C_10  and  N_13
    2  A    between atoms: C_10  and  C_30
                            x       y       z     vdW  Elec       q    Type
                         _______ _______ _______ _____ _____    ______ ____

>  <TORSDO>
F 2

$$$$
=
 OpenBabel11042412043D

 30 36  0  0  1  0  0  0  0  0999 V2000
  192.9070  176.4020  136.7890 C   0  0  0  0  0  2  0  0  0  0  0  0
  188.2950  174.6510  137.4010 C   0  0  0  0  0  2  0  0  0  0  0  0
  186.9370  178.0960  136.6600 C   0  0  2  0  0  3  0  0  0  0  0  0
  187.1640  178.1700  138.1990 C   0  0  0  0  0  1  0  0  0  0  0  0
  187.9510  177.1660  135.1340 C   0  0  2  0  0  3  0  0  0  0  0  0
  190.0080  175.0220  135.4960 C   0  0  0  0  0  2  0  0  0  0  0  0
  189.4340  177.4150  142.1300 C   0  0  0  0  0  3  0  0  0  0  0  0
  189.7330  174.4630  136.8970 C   0  0  1  0  0  3  0  0  0  0  0  0
  188.8550  178.0410  141.0270 C   0  0  0  0  0  3  0  0  0  0  0  0
  188.6820  178.3810  138.5750 C   0  0  0  0  0  2  0  0  0  0  0  0
  190.8630  176.1780  140.6680 N   0  0  0  0  0  0  0  0  0  0  0  0
  190.4490  176.4770  141.9290 C   0  0  0  0  0  3  0  0  0  0  0  0
  190.8220  176.4060  138.2010 C   0  0  1  0  0  3  0  0  0  0  0  0
  192.1960  177.0530  137.9680 C   0  0  0  0  0  2  0  0  0  0  0  0
  190.7690  174.8730  137.9530 C   0  0  2  0  0  3  0  0  0  0  0  0
  188.7860  174.8470  134.5960 C   0  0  0  0  0  2  0  0  0  0  0  0
  186.7170  178.0240  135.1670 C   0  0  0  0  0  2  0  0  0  0  0  0
  192.1110  174.2450  137.6570 C   0  0  0  0  0  3  0  0  0  0  0  0
  187.5840  175.6710  135.0910 C   0  0  1  0  0  3  0  0  0  0  0  0
  187.4260  175.6580  136.6240 C   0  0  2  0  0  3  0  0  0  0  0  0
  187.7150  177.7970  137.9730 C   0  0  2  0  0  0  0  0  0  0  0  0
  189.2910  177.7280  139.7360 C   0  0  0  0  0  0  0  0  0  0  0  0
  187.9710  177.0860  136.6670 C   0  0  2  0  0  0  0  0  0  0  0  0
  190.3120  176.7660  139.5700 C   0  0  0  0  0  0  0  0  0  0  0  0
  193.0990  174.9440  137.0830 C   0  0  0  0  0  0  0  0  0  0  0  0
  194.4290  174.3090  136.8650 C   0  0  0  0  0  2  0  0  0  0  0  0
  195.4720  173.1440  139.2390 O   0  0  0  0  0  0  0  0  0  0  0  0
  195.4180  174.9290  137.7340 N   0  0  0  0  0  2  0  0  0  0  0  0
  195.8990  174.2830  138.9120 C   0  0  0  0  0  0  0  0  0  0  0  0
  196.8450  174.9170  139.7050 O   0  0  0  0  0  1  0  0  0  0  0  0
  1 25  1  0  0  0  0
  1 14  1  0  0  0  0
  3 17  1  6  0  0  0
  3 23  1  0  0  0  0
  3 21  1  0  0  0  0
  5 17  1  1  0  0  0
  5 23  1  0  0  0  0
  8  6  1  6  0  0  0
  8  2  1  0  0  0  0
  8 15  1  0  0  0  0
  9  7  2  0  0  0  0
 10 22  1  0  0  0  0
 11 12  2  0  0  0  0
 12  7  1  0  0  0  0
 13 14  1  1  0  0  0
 13 24  1  0  0  0  0
 15 18  1  6  0  0  0
 15 13  1  0  0  0  0
 16  6  1  0  0  0  0
 19 16  1  1  0  0  0
 19  5  1  0  0  0  0
 19 20  1  0  0  0  0
 20 23  1  0  0  0  0
 20  2  1  1  0  0  0
 21  4  1  1  0  0  0
 21 10  1  0  0  0  0
 22  9  1  0  0  0  0
 23 21  1  0  0  0  0
 24 22  2  0  0  0  0
 24 11  1  0  0  0  0
 25 18  2  0  0  0  0
 26 25  1  0  0  0  0
 26 28  1  0  0  0  0
 28 29  1  0  0  0  0
 29 27  2  0  0  0  0
 29 30  1  0  0  0  0
M  END
>  <MODEL>
3

>  <REMARK>
 VINA RESULT:      -6.9      4.742      8.335
  Name = 
  2 active torsions:
  status: ('A' for Active; 'I' for Inactive)
    1  A    between atoms: C_10  and  N_13
    2  A    between atoms: C_10  and  C_30
                            x       y       z     vdW  Elec       q    Type
                         _______ _______ _______ _____ _____    ______ ____

>  <TORSDO>
F 2

$$$$
=
 OpenBabel11042412043D

 30 36  0  0  1  0  0  0  0  0999 V2000
  185.3050  180.3150  143.7850 C   0  0  0  0  0  2  0  0  0  0  0  0
  187.8460  176.0470  143.5930 C   0  0  0  0  0  2  0  0  0  0  0  0
  191.0490  178.0210  143.2730 C   0  0  2  0  0  3  0  0  0  0  0  0
  190.6140  177.8830  141.7840 C   0  0  0  0  0  1  0  0  0  0  0  0
  190.0050  178.2530  145.0270 C   0  0  2  0  0  3  0  0  0  0  0  0
  187.0670  177.7800  145.3500 C   0  0  0  0  0  2  0  0  0  0  0  0
  187.6130  177.8330  138.2960 C   0  0  0  0  0  3  0  0  0  0  0  0
  186.6920  176.8830  144.1650 C   0  0  1  0  0  3  0  0  0  0  0  0
  188.6470  178.1990  139.1570 C   0  0  0  0  0  3  0  0  0  0  0  0
  189.4550  178.8840  141.4010 C   0  0  0  0  0  2  0  0  0  0  0  0
  186.0490  178.0680  140.0880 N   0  0  0  0  0  0  0  0  0  0  0  0
  186.3060  177.7740  138.7850 C   0  0  0  0  0  3  0  0  0  0  0  0
  186.6910  178.7500  142.3820 C   0  0  1  0  0  3  0  0  0  0  0  0
  186.0170  180.1290  142.4520 C   0  0  0  0  0  2  0  0  0  0  0  0
  185.9000  177.5980  143.0610 C   0  0  2  0  0  3  0  0  0  0  0  0
  188.1130  177.0990  146.2330 C   0  0  0  0  0  2  0  0  0  0  0  0
  191.4730  178.1540  144.7170 C   0  0  0  0  0  2  0  0  0  0  0  0
  184.5290  177.9940  143.5580 C   0  0  0  0  0  3  0  0  0  0  0  0
  189.4460  176.8960  145.4910 C   0  0  1  0  0  3  0  0  0  0  0  0
  189.2670  176.4590  144.0240 C   0  0  2  0  0  3  0  0  0  0  0  0
  190.0050  177.9800  142.1230 C   0  0  2  0  0  0  0  0  0  0  0  0
  188.3700  178.5020  140.4930 C   0  0  0  0  0  0  0  0  0  0  0  0
  189.6460  177.8730  143.5830 C   0  0  2  0  0  0  0  0  0  0  0  0
  187.0380  178.4210  140.9550 C   0  0  0  0  0  0  0  0  0  0  0  0
  184.2580  179.2520  143.9290 C   0  0  0  0  0  0  0  0  0  0  0  0
  182.8770  179.6190  144.3540 C   0  0  0  0  0  2  0  0  0  0  0  0
  180.5400  180.2010  142.8440 O   0  0  0  0  0  1  0  0  0  0  0  0
  181.9330  178.6270  143.8650 N   0  0  0  0  0  2  0  0  0  0  0  0
  180.7790  178.9930  143.1090 C   0  0  0  0  0  0  0  0  0  0  0  0
  179.9100  178.0060  142.6630 O   0  0  0  0  0  0  0  0  0  0  0  0
  1 25  1  0  0  0  0
  3 23  1  0  0  0  0
  3 17  1  1  0  0  0
  5 17  1  6  0  0  0
  5 19  1  0  0  0  0
  6 16  1  0  0  0  0
  7 12  2  0  0  0  0
  7  9  1  0  0  0  0
  8  2  1  6  0  0  0
  8  6  1  0  0  0  0
  9 22  2  0  0  0  0
 10 21  1  0  0  0  0
 11 24  2  0  0  0  0
 12 11  1  0  0  0  0
 13 14  1  6  0  0  0
 13 15  1  0  0  0  0
 14  1  1  0  0  0  0
 15 18  1  1  0  0  0
 15  8  1  0  0  0  0
 18 25  2  0  0  0  0
 19 16  1  6  0  0  0
 20  2  1  1  0  0  0
 20 19  1  0  0  0  0
 21  4  1  6  0  0  0
 21  3  1  0  0  0  0
 21 23  1  0  0  0  0
 22 24  1  0  0  0  0
 22 10  1  0  0  0  0
 23 20  1  0  0  0  0
 23  5  1  0  0  0  0
 24 13  1  0  0  0  0
 25 26  1  0  0  0  0
 27 29  1  0  0  0  0
 28 26  1  0  0  0  0
 29 28  1  0  0  0  0
 30 29  2  0  0  0  0
M  END
>  <MODEL>
4

>  <REMARK>
 VINA RESULT:      -6.3      3.142      6.262
  Name = 
  2 active torsions:
  status: ('A' for Active; 'I' for Inactive)
    1  A    between atoms: C_10  and  N_13
    2  A    between atoms: C_10  and  C_30
                            x       y       z     vdW  Elec       q    Type
                         _______ _______ _______ _____ _____    ______ ____

>  <TORSDO>
F 2

$$$$
=
 OpenBabel11042412043D

 30 36  0  0  1  0  0  0  0  0999 V2000
  184.2440  178.0500  139.6980 C   0  0  0  0  0  2  0  0  0  0  0  0
  179.3110  177.5440  139.3490 C   0  0  0  0  0  2  0  0  0  0  0  0
  179.7220  176.4710  135.7510 C   0  0  2  0  0  3  0  0  0  0  0  0
  179.6200  178.0180  135.6090 C   0  0  0  0  0  1  0  0  0  0  0  0
  180.5540  175.2420  137.1720 C   0  0  2  0  0  3  0  0  0  0  0  0
  181.3880  176.1070  139.9130 C   0  0  0  0  0  2  0  0  0  0  0  0
  180.4550  182.3870  136.7900 C   0  0  0  0  0  3  0  0  0  0  0  0
  180.6090  177.4040  140.1570 C   0  0  1  0  0  3  0  0  0  0  0  0
  180.4460  181.1710  136.1060 C   0  0  0  0  0  3  0  0  0  0  0  0
  180.9660  178.7480  135.9930 C   0  0  0  0  0  2  0  0  0  0  0  0
  181.5110  181.3230  138.6510 N   0  0  0  0  0  0  0  0  0  0  0  0
  180.9990  182.4430  138.0750 C   0  0  0  0  0  3  0  0  0  0  0  0
  182.1040  178.9160  138.6940 C   0  0  1  0  0  3  0  0  0  0  0  0
  183.6360  179.0170  138.6900 C   0  0  0  0  0  2  0  0  0  0  0  0
  181.4660  178.6760  140.0910 C   0  0  2  0  0  3  0  0  0  0  0  0
  180.4320  174.9390  139.6730 C   0  0  0  0  0  2  0  0  0  0  0  0
  179.8190  174.9690  135.8890 C   0  0  0  0  0  2  0  0  0  0  0  0
  182.4490  178.7170  141.2380 C   0  0  0  0  0  3  0  0  0  0  0  0
  179.6130  175.1230  138.3840 C   0  0  1  0  0  3  0  0  0  0  0  0
  179.1360  176.5720  138.1650 C   0  0  2  0  0  3  0  0  0  0  0  0
  179.9980  177.9340  136.1960 C   0  0  2  0  0  0  0  0  0  0  0  0
  180.9770  180.0270  136.7080 C   0  0  0  0  0  0  0  0  0  0  0  0
  180.2070  176.7350  137.0870 C   0  0  2  0  0  0  0  0  0  0  0  0
  181.5100  180.1200  138.0120 C   0  0  0  0  0  0  0  0  0  0  0  0
  183.7370  178.3940  141.0660 C   0  0  0  0  0  0  0  0  0  0  0  0
  184.6900  178.5080  142.2060 C   0  0  0  0  0  2  0  0  0  0  0  0
  185.7090  178.2140  144.8430 O   0  0  0  0  0  0  0  0  0  0  0  0
  183.9640  178.8400  143.4220 N   0  0  0  0  0  2  0  0  0  0  0  0
  184.5410  178.6680  144.7160 C   0  0  0  0  0  0  0  0  0  0  0  0
  183.8060  179.0030  145.8450 O   0  0  0  0  0  1  0  0  0  0  0  0
  1 25  1  0  0  0  0
  3 17  1  6  0  0  0
  3 21  1  0  0  0  0
  3 23  1  0  0  0  0
  5 17  1  6  0  0  0
  5 19  1  0  0  0  0
  6  8  1  0  0  0  0
  7 12  1  0  0  0  0
  8  2  1  6  0  0  0
  9 22  1  0  0  0  0
  9  7  2  0  0  0  0
 10 21  1  0  0  0  0
 10 22  1  0  0  0  0
 12 11  2  0  0  0  0
 13 14  1  1  0  0  0
 13 15  1  0  0  0  0
 14  1  1  0  0  0  0
 15  8  1  0  0  0  0
 15 18  1  1  0  0  0
 16  6  1  0  0  0  0
 19 16  1  1  0  0  0
 20 19  1  0  0  0  0
 20  2  1  1  0  0  0
 21  4  1  1  0  0  0
 21 23  1  0  0  0  0
 22 24  2  0  0  0  0
 23  5  1  0  0  0  0
 23 20  1  0  0  0  0
 24 11  1  0  0  0  0
 24 13  1  0  0  0  0
 25 18  2  0  0  0  0
 25 26  1  0  0  0  0
 26 28  1  0  0  0  0
 28 29  1  0  0  0  0
 29 27  2  0  0  0  0
 29 30  1  0  0  0  0
M  END
>  <MODEL>
5

>  <REMARK>
 VINA RESULT:      -6.1      6.977     10.976
  Name = 
  2 active torsions:
  status: ('A' for Active; 'I' for Inactive)
    1  A    between atoms: C_10  and  N_13
    2  A    between atoms: C_10  and  C_30
                            x       y       z     vdW  Elec       q    Type
                         _______ _______ _______ _____ _____    ______ ____

>  <TORSDO>
F 2

$$$$
