=
 OpenBabel11032419583D

 52 54  0  0  1  0  0  0  0  0999 V2000
  188.7800  178.8780  138.9370 F   0  0  0  0  0  0  0  0  0  0  0  0
  186.7350  178.2880  141.9200 C   0  0  0  0  0  0  0  0  0  0  0  0
  187.5730  177.3940  142.6310 C   0  0  0  0  0  0  0  0  0  0  0  0
  187.1690  178.7770  140.6810 C   0  0  0  0  0  3  0  0  0  0  0  0
  188.8040  177.0160  142.0850 C   0  0  0  0  0  3  0  0  0  0  0  0
  188.3970  178.3890  140.1430 C   0  0  0  0  0  0  0  0  0  0  0  0
  189.2240  177.5020  140.8410 C   0  0  0  0  0  0  0  0  0  0  0  0
  190.4830  177.1170  140.2680 N   0  0  0  0  0  2  0  0  0  0  0  0
  189.6980  175.9560  138.3870 O   0  0  0  0  0  0  0  0  0  0  0  0
  192.0090  176.1100  138.6140 N   0  0  0  0  0  2  0  0  0  0  0  0
  190.6790  176.3710  139.0590 C   0  0  0  0  0  0  0  0  0  0  0  0
  192.2690  175.4120  137.3650 C   0  0  0  0  0  2  0  0  0  0  0  0
  196.0910  172.0830  136.8800 N   0  0  0  0  0  2  0  0  0  0  0  0
  196.0010  174.6070  136.6610 C   0  0  2  0  0  3  0  0  0  0  0  0
  197.9340  173.4040  137.4100 O   0  0  0  0  0  0  0  0  0  0  0  0
  193.9520  173.1220  136.5850 C   0  0  0  0  0  3  0  0  0  0  0  0
  194.1660  176.7310  136.8240 O   0  0  0  0  0  0  0  0  0  0  0  0
  194.0400  170.6920  136.3990 C   0  0  0  0  0  1  0  0  0  0  0  0
  193.7030  175.5700  136.9760 C   0  0  0  0  0  0  0  0  0  0  0  0
  194.6890  172.0140  136.6050 C   0  0  0  0  0  0  0  0  0  0  0  0
  196.7380  173.3490  137.0190 C   0  0  0  0  0  0  0  0  0  0  0  0
  194.5480  174.4200  136.7730 N   0  0  0  0  0  0  0  0  0  0  0  0
  197.1200  176.3540  135.2730 C   0  0  0  0  0  1  0  0  0  0  0  0
  196.3590  175.0410  135.2450 C   0  0  0  0  0  2  0  0  0  0  0  0
  185.3190  179.5490  143.3660 O   0  0  0  0  0  0  0  0  0  0  0  0
  185.4090  178.7160  142.4260 C   0  0  0  0  0  0  0  0  0  0  0  0
  183.8940  178.0630  141.7160 S   0  0  0  0  0  0  0  0  0  0  0  0
  184.0100  179.1310  140.2490 C   0  0  0  0  0  2  0  0  0  0  0  0
  182.6270  178.9650  138.2060 C   0  0  0  0  0  2  0  0  0  0  0  0
  183.3880  177.0120  139.3030 O   0  0  0  0  0  0  0  0  0  0  0  0
  181.9480  177.8000  137.5590 C   0  0  0  0  0  2  0  0  0  0  0  0
  182.4800  176.5950  138.3120 C   0  0  1  0  0  3  0  0  0  0  0  0
  183.7500  178.3330  138.9850 C   0  0  2  0  0  3  0  0  0  0  0  0
  183.1350  175.5930  137.3670 C   0  0  0  0  0  2  0  0  0  0  0  0
  183.7970  174.5790  138.0910 O   0  0  0  0  0  0  0  0  0  0  0  0
  185.0290  174.2820  137.4640 C   0  0  2  0  0  3  0  0  0  0  0  0
  185.2680  175.1220  136.2880 N   0  0  0  0  0  2  0  0  0  0  0  0
  186.4940  175.8710  136.5180 C   0  0  0  0  0  2  0  0  0  0  0  0
  187.2870  178.0580  135.6750 C   0  0  0  0  0  1  0  0  0  0  0  0
  186.2000  177.3610  136.4710 C   0  0  0  0  0  2  0  0  0  0  0  0
  185.1700  172.7910  137.1310 C   0  0  0  0  0  2  0  0  0  0  0  0
  183.8100  172.1530  136.9030 C   0  0  0  0  0  2  0  0  0  0  0  0
  183.9150  171.0100  135.9170 C   0  0  0  0  0  1  0  0  0  0  0  0
  187.2450  176.8960  144.0040 C   0  0  0  0  0  2  0  0  0  0  0  0
  188.1140  177.5690  145.0570 C   0  0  0  0  0  2  0  0  0  0  0  0
  187.5570  177.3280  146.4480 C   0  0  0  0  0  2  0  0  0  0  0  0
  188.6810  176.9640  147.3990 C   0  0  0  0  0  2  0  0  0  0  0  0
  189.8750  177.7290  147.0780 N   0  0  0  0  0  2  0  0  0  0  0  0
  190.6820  175.0620  147.4910 O   0  0  0  0  0  1  0  0  0  0  0  0
  191.2240  176.6100  147.0800 P   0  0  0  0  0  0  0  0  0  0  0  0
  192.2490  177.0660  148.0890 O   0  0  0  0  0  1  0  0  0  0  0  0
  191.9330  176.5740  145.5440 O   0  0  0  0  0  0  0  0  0  0  0  0
  1  6  1  0  0  0  0
  2 26  1  0  0  0  0
  2  3  1  0  0  0  0
  3 44  1  0  0  0  0
  4  2  2  0  0  0  0
  5  3  2  0  0  0  0
  6  4  1  0  0  0  0
  6  7  2  0  0  0  0
  7  5  1  0  0  0  0
  8  7  1  0  0  0  0
  9 11  2  0  0  0  0
 10 11  1  0  0  0  0
 11  8  1  0  0  0  0
 12 10  1  0  0  0  0
 13 21  1  0  0  0  0
 14 24  1  6  0  0  0
 14 22  1  0  0  0  0
 14 21  1  0  0  0  0
 16 20  2  0  0  0  0
 16 22  1  0  0  0  0
 17 19  2  0  0  0  0
 18 20  1  0  0  0  0
 19 12  1  0  0  0  0
 20 13  1  0  0  0  0
 21 15  2  0  0  0  0
 22 19  1  0  0  0  0
 24 23  1  0  0  0  0
 26 25  2  0  0  0  0
 27 26  1  0  0  0  0
 28 27  1  0  0  0  0
 29 33  1  0  0  0  0
 31 29  1  0  0  0  0
 31 32  1  0  0  0  0
 32 34  1  6  0  0  0
 32 30  1  0  0  0  0
 33 30  1  0  0  0  0
 33 28  1  1  0  0  0
 34 35  1  0  0  0  0
 36 41  1  6  0  0  0
 36 35  1  0  0  0  0
 37 38  1  0  0  0  0
 37 36  1  0  0  0  0
 39 40  1  0  0  0  0
 40 38  1  0  0  0  0
 42 41  1  0  0  0  0
 43 42  1  0  0  0  0
 44 45  1  0  0  0  0
 45 46  1  0  0  0  0
 46 47  1  0  0  0  0
 48 50  1  0  0  0  0
 48 47  1  0  0  0  0
 50 49  1  0  0  0  0
 50 51  1  0  0  0  0
 52 50  2  0  0  0  0
M  END
>  <MODEL>
1

>  <REMARK>
 VINA RESULT:      -6.5      0.000      0.000
  Name = 
  22 active torsions:
  status: ('A' for Active; 'I' for Inactive)
    1  A    between atoms: C_5  and  C_10
    2  A    between atoms: C_5  and  C_19
    3  A    between atoms: N_6  and  C_44
    4  A    between atoms: C_8  and  C_40
    5  A    between atoms: C_9  and  C_48
    6  A    between atoms: C_12  and  C_51
    7  A    between atoms: S_13  and  C_37
    8  A    between atoms: S_13  and  C_40
    9  A    between atoms: C_14  and  C_45
   10  A    between atoms: C_14  and  N_50
   11  A    between atoms: N_16  and  C_36
   12  A    between atoms: C_17  and  C_31
   13  A    between atoms: C_19  and  C_45
   14  A    between atoms: N_20  and  C_28
   15  A    between atoms: N_20  and  C_39
   16  A    between atoms: C_28  and  C_48
   17  A    between atoms: C_28  and  O_49
   18  A    between atoms: C_31  and  O_49
   19  A    between atoms: C_33  and  C_36
   20  A    between atoms: C_34  and  C_39
   21  A    between atoms: C_37  and  C_41
   22  A    between atoms: P_42  and  N_50
                            x       y       z     vdW  Elec       q    Type
                         _______ _______ _______ _____ _____    ______ ____

>  <TORSDO>
F 22

$$$$
=
 OpenBabel11032419583D

 52 54  0  0  1  0  0  0  0  0999 V2000
  189.3050  178.6270  138.3980 F   0  0  0  0  0  0  0  0  0  0  0  0
  187.8970  177.7520  141.6660 C   0  0  0  0  0  0  0  0  0  0  0  0
  188.9810  177.0330  142.2260 C   0  0  0  0  0  0  0  0  0  0  0  0
  188.0350  178.2840  140.3770 C   0  0  0  0  0  3  0  0  0  0  0  0
  190.1560  176.8620  141.4870 C   0  0  0  0  0  3  0  0  0  0  0  0
  189.2110  178.1040  139.6460 C   0  0  0  0  0  0  0  0  0  0  0  0
  190.2810  177.3890  140.1950 C   0  0  0  0  0  0  0  0  0  0  0  0
  191.4800  177.2170  139.4240 N   0  0  0  0  0  2  0  0  0  0  0  0
  190.9510  175.1950  138.3580 O   0  0  0  0  0  0  0  0  0  0  0  0
  193.0020  176.1460  137.8070 N   0  0  0  0  0  2  0  0  0  0  0  0
  191.7690  176.1370  138.5250 C   0  0  0  0  0  0  0  0  0  0  0  0
  193.3240  175.1110  136.8370 C   0  0  0  0  0  2  0  0  0  0  0  0
  197.1770  171.8480  137.4920 N   0  0  0  0  0  2  0  0  0  0  0  0
  197.0870  174.2000  136.5500 C   0  0  2  0  0  3  0  0  0  0  0  0
  198.9890  173.2970  137.6940 O   0  0  0  0  0  0  0  0  0  0  0  0
  195.0490  172.7230  136.8210 C   0  0  0  0  0  3  0  0  0  0  0  0
  195.2370  176.2500  136.0170 O   0  0  0  0  0  0  0  0  0  0  0  0
  195.1560  170.3440  137.3480 C   0  0  0  0  0  1  0  0  0  0  0  0
  194.7730  175.1740  136.4790 C   0  0  0  0  0  0  0  0  0  0  0  0
  195.7900  171.6790  137.1910 C   0  0  0  0  0  0  0  0  0  0  0  0
  197.8120  173.1110  137.2860 C   0  0  0  0  0  0  0  0  0  0  0  0
  195.6300  174.0290  136.6520 N   0  0  0  0  0  0  0  0  0  0  0  0
  198.4370  175.3810  134.8140 C   0  0  0  0  0  1  0  0  0  0  0  0
  197.5050  174.2140  135.0850 C   0  0  0  0  0  2  0  0  0  0  0  0
  186.3480  177.2930  143.4200 O   0  0  0  0  0  0  0  0  0  0  0  0
  186.6150  177.9540  142.3820 C   0  0  0  0  0  0  0  0  0  0  0  0
  185.4060  179.1450  141.7950 S   0  0  0  0  0  0  0  0  0  0  0  0
  184.0850  178.4630  142.8430 C   0  0  0  0  0  2  0  0  0  0  0  0
  181.7820  178.9490  143.5970 C   0  0  0  0  0  2  0  0  0  0  0  0
  182.1990  178.2820  141.3660 O   0  0  0  0  0  0  0  0  0  0  0  0
  180.4540  178.7130  142.9490 C   0  0  0  0  0  2  0  0  0  0  0  0
  180.8020  178.2890  141.5350 C   0  0  1  0  0  3  0  0  0  0  0  0
  182.7360  179.0220  142.4350 C   0  0  2  0  0  3  0  0  0  0  0  0
  180.1390  179.1960  140.5040 C   0  0  0  0  0  2  0  0  0  0  0  0
  180.3100  178.6840  139.2010 O   0  0  0  0  0  0  0  0  0  0  0  0
  180.4600  179.7550  138.2910 C   0  0  2  0  0  3  0  0  0  0  0  0
  181.3860  179.4320  137.2020 N   0  0  0  0  0  2  0  0  0  0  0  0
  181.5400  177.9860  137.1640 C   0  0  0  0  0  2  0  0  0  0  0  0
  183.6510  176.7420  136.8210 C   0  0  0  0  0  1  0  0  0  0  0  0
  182.6050  177.6110  136.1480 C   0  0  0  0  0  2  0  0  0  0  0  0
  180.8470  181.0650  138.9890 C   0  0  0  0  0  2  0  0  0  0  0  0
  180.1100  182.2460  138.3800 C   0  0  0  0  0  2  0  0  0  0  0  0
  181.0430  183.0770  137.5270 C   0  0  0  0  0  1  0  0  0  0  0  0
  188.9690  176.5130  143.6310 C   0  0  0  0  0  2  0  0  0  0  0  0
  189.4780  177.5610  144.6100 C   0  0  0  0  0  2  0  0  0  0  0  0
  189.1950  177.1410  146.0410 C   0  0  0  0  0  2  0  0  0  0  0  0
  188.2100  178.1010  146.6780 C   0  0  0  0  0  2  0  0  0  0  0  0
  186.8790  177.5160  146.6910 N   0  0  0  0  0  2  0  0  0  0  0  0
  184.1610  178.2330  146.8760 O   0  0  0  0  0  1  0  0  0  0  0  0
  185.7300  178.8390  146.7060 P   0  0  0  0  0  0  0  0  0  0  0  0
  185.8330  179.6050  145.4100 O   0  0  0  0  0  0  0  0  0  0  0  0
  186.0790  179.8780  147.9950 O   0  0  0  0  0  1  0  0  0  0  0  0
  1  6  1  0  0  0  0
  2  3  1  0  0  0  0
  2 26  1  0  0  0  0
  3 44  1  0  0  0  0
  4  2  2  0  0  0  0
  5  3  2  0  0  0  0
  6  7  2  0  0  0  0
  6  4  1  0  0  0  0
  7  5  1  0  0  0  0
  8  7  1  0  0  0  0
  9 11  2  0  0  0  0
 10 11  1  0  0  0  0
 11  8  1  0  0  0  0
 12 10  1  0  0  0  0
 14 24  1  6  0  0  0
 14 22  1  0  0  0  0
 14 21  1  0  0  0  0
 16 20  2  0  0  0  0
 17 19  2  0  0  0  0
 19 22  1  0  0  0  0
 19 12  1  0  0  0  0
 20 18  1  0  0  0  0
 20 13  1  0  0  0  0
 21 13  1  0  0  0  0
 21 15  2  0  0  0  0
 22 16  1  0  0  0  0
 23 24  1  0  0  0  0
 26 25  2  0  0  0  0
 27 26  1  0  0  0  0
 27 28  1  0  0  0  0
 30 32  1  0  0  0  0
 30 33  1  0  0  0  0
 31 29  1  0  0  0  0
 32 34  1  6  0  0  0
 32 31  1  0  0  0  0
 33 28  1  1  0  0  0
 33 29  1  0  0  0  0
 35 34  1  0  0  0  0
 36 41  1  1  0  0  0
 36 35  1  0  0  0  0
 37 36  1  0  0  0  0
 38 37  1  0  0  0  0
 40 39  1  0  0  0  0
 40 38  1  0  0  0  0
 42 41  1  0  0  0  0
 43 42  1  0  0  0  0
 44 45  1  0  0  0  0
 45 46  1  0  0  0  0
 46 47  1  0  0  0  0
 47 48  1  0  0  0  0
 48 50  1  0  0  0  0
 50 49  1  0  0  0  0
 50 52  1  0  0  0  0
 51 50  2  0  0  0  0
M  END
>  <MODEL>
2

>  <REMARK>
 VINA RESULT:      -6.4      2.849      4.257
  Name = 
  22 active torsions:
  status: ('A' for Active; 'I' for Inactive)
    1  A    between atoms: C_5  and  C_10
    2  A    between atoms: C_5  and  C_19
    3  A    between atoms: N_6  and  C_44
    4  A    between atoms: C_8  and  C_40
    5  A    between atoms: C_9  and  C_48
    6  A    between atoms: C_12  and  C_51
    7  A    between atoms: S_13  and  C_37
    8  A    between atoms: S_13  and  C_40
    9  A    between atoms: C_14  and  C_45
   10  A    between atoms: C_14  and  N_50
   11  A    between atoms: N_16  and  C_36
   12  A    between atoms: C_17  and  C_31
   13  A    between atoms: C_19  and  C_45
   14  A    between atoms: N_20  and  C_28
   15  A    between atoms: N_20  and  C_39
   16  A    between atoms: C_28  and  C_48
   17  A    between atoms: C_28  and  O_49
   18  A    between atoms: C_31  and  O_49
   19  A    between atoms: C_33  and  C_36
   20  A    between atoms: C_34  and  C_39
   21  A    between atoms: C_37  and  C_41
   22  A    between atoms: P_42  and  N_50
                            x       y       z     vdW  Elec       q    Type
                         _______ _______ _______ _____ _____    ______ ____

>  <TORSDO>
F 22

$$$$
=
 OpenBabel11032419583D

 52 54  0  0  1  0  0  0  0  0999 V2000
  185.3640  178.6540  139.1460 F   0  0  0  0  0  0  0  0  0  0  0  0
  182.0670  178.7570  137.5500 C   0  0  0  0  0  0  0  0  0  0  0  0
  182.2690  177.8410  136.4890 C   0  0  0  0  0  0  0  0  0  0  0  0
  183.1250  179.0080  138.4340 C   0  0  0  0  0  3  0  0  0  0  0  0
  183.5100  177.2140  136.3410 C   0  0  0  0  0  3  0  0  0  0  0  0
  184.3610  178.3800  138.2750 C   0  0  0  0  0  0  0  0  0  0  0  0
  184.5640  177.4790  137.2240 C   0  0  0  0  0  0  0  0  0  0  0  0
  185.8440  176.8450  137.0790 N   0  0  0  0  0  2  0  0  0  0  0  0
  187.0160  178.5990  136.0520 O   0  0  0  0  0  0  0  0  0  0  0  0
  188.2300  176.6620  136.4850 N   0  0  0  0  0  2  0  0  0  0  0  0
  187.0260  177.4270  136.5130 C   0  0  0  0  0  0  0  0  0  0  0  0
  189.4740  177.2200  135.9780 C   0  0  0  0  0  2  0  0  0  0  0  0
  193.7150  176.2930  138.6390 N   0  0  0  0  0  2  0  0  0  0  0  0
  192.7060  175.1640  136.6050 C   0  0  2  0  0  3  0  0  0  0  0  0
  195.0620  175.2760  137.0350 O   0  0  0  0  0  0  0  0  0  0  0  0
  191.4060  176.7000  138.1410 C   0  0  0  0  0  3  0  0  0  0  0  0
  190.4670  175.3470  134.9140 O   0  0  0  0  0  0  0  0  0  0  0  0
  192.2290  177.4770  140.3010 C   0  0  0  0  0  1  0  0  0  0  0  0
  190.5150  176.1530  135.8800 C   0  0  0  0  0  0  0  0  0  0  0  0
  192.4230  176.7940  138.9950 C   0  0  0  0  0  0  0  0  0  0  0  0
  193.9010  175.5800  137.4150 C   0  0  0  0  0  0  0  0  0  0  0  0
  191.5550  176.0390  136.8710 N   0  0  0  0  0  0  0  0  0  0  0  0
  192.5630  172.8460  135.6920 C   0  0  0  0  0  1  0  0  0  0  0  0
  192.3400  173.7180  136.9130 C   0  0  0  0  0  2  0  0  0  0  0  0
  180.5630  180.5690  137.1740 O   0  0  0  0  0  0  0  0  0  0  0  0
  180.7860  179.4750  137.7560 C   0  0  0  0  0  0  0  0  0  0  0  0
  179.5160  178.8090  138.8360 S   0  0  0  0  0  0  0  0  0  0  0  0
  179.9580  179.9260  140.2010 C   0  0  0  0  0  2  0  0  0  0  0  0
  179.8900  177.9660  141.7070 C   0  0  0  0  0  2  0  0  0  0  0  0
  180.8790  179.9930  142.4190 O   0  0  0  0  0  0  0  0  0  0  0  0
  180.1950  177.8220  143.1640 C   0  0  0  0  0  2  0  0  0  0  0  0
  180.8190  179.1510  143.5460 C   0  0  1  0  0  3  0  0  0  0  0  0
  180.6920  179.1720  141.2940 C   0  0  2  0  0  3  0  0  0  0  0  0
  182.2050  178.9620  144.1520 C   0  0  0  0  0  2  0  0  0  0  0  0
  183.1480  178.6340  143.1560 O   0  0  0  0  0  0  0  0  0  0  0  0
  184.4510  178.9030  143.6360 C   0  0  2  0  0  3  0  0  0  0  0  0
  185.4280  177.9190  143.1660 N   0  0  0  0  0  2  0  0  0  0  0  0
  186.2850  178.5740  142.1890 C   0  0  0  0  0  2  0  0  0  0  0  0
  187.6850  176.8210  143.2340 C   0  0  0  0  0  1  0  0  0  0  0  0
  187.6720  177.9570  142.2280 C   0  0  0  0  0  2  0  0  0  0  0  0
  184.4920  179.0540  145.1620 C   0  0  0  0  0  2  0  0  0  0  0  0
  185.6750  178.3040  145.7520 C   0  0  0  0  0  2  0  0  0  0  0  0
  185.9810  178.8010  147.1470 C   0  0  0  0  0  1  0  0  0  0  0  0
  181.1730  177.4310  135.5540 C   0  0  0  0  0  2  0  0  0  0  0  0
  180.9820  175.9210  135.5570 C   0  0  0  0  0  2  0  0  0  0  0  0
  180.6090  175.4290  136.9430 C   0  0  0  0  0  2  0  0  0  0  0  0
  181.4320  174.2060  137.2970 C   0  0  0  0  0  2  0  0  0  0  0  0
  182.1500  173.7300  136.1250 N   0  0  0  0  0  2  0  0  0  0  0  0
  183.3490  171.4430  137.2500 O   0  0  0  0  0  1  0  0  0  0  0  0
  183.6440  173.0110  136.6890 P   0  0  0  0  0  0  0  0  0  0  0  0
  184.2090  173.8460  137.8120 O   0  0  0  0  0  1  0  0  0  0  0  0
  184.7630  172.9570  135.4200 O   0  0  0  0  0  0  0  0  0  0  0  0
  2 26  1  0  0  0  0
  2  4  1  0  0  0  0
  3  2  2  0  0  0  0
  5  3  1  0  0  0  0
  5  7  2  0  0  0  0
  6  4  2  0  0  0  0
  6  1  1  0  0  0  0
  7  6  1  0  0  0  0
  8  7  1  0  0  0  0
  9 11  2  0  0  0  0
 10 11  1  0  0  0  0
 11  8  1  0  0  0  0
 12 10  1  0  0  0  0
 13 20  1  0  0  0  0
 14 22  1  0  0  0  0
 14 24  1  1  0  0  0
 14 21  1  0  0  0  0
 15 21  2  0  0  0  0
 16 20  2  0  0  0  0
 17 19  2  0  0  0  0
 19 12  1  0  0  0  0
 19 22  1  0  0  0  0
 20 18  1  0  0  0  0
 21 13  1  0  0  0  0
 22 16  1  0  0  0  0
 23 24  1  0  0  0  0
 25 26  2  0  0  0  0
 26 27  1  0  0  0  0
 27 28  1  0  0  0  0
 29 31  1  0  0  0  0
 30 32  1  0  0  0  0
 31 32  1  0  0  0  0
 32 34  1  6  0  0  0
 33 28  1  6  0  0  0
 33 29  1  0  0  0  0
 33 30  1  0  0  0  0
 35 36  1  0  0  0  0
 35 34  1  0  0  0  0
 36 41  1  1  0  0  0
 37 36  1  0  0  0  0
 38 40  1  0  0  0  0
 38 37  1  0  0  0  0
 40 39  1  0  0  0  0
 41 42  1  0  0  0  0
 42 43  1  0  0  0  0
 44 45  1  0  0  0  0
 44  3  1  0  0  0  0
 45 46  1  0  0  0  0
 46 47  1  0  0  0  0
 48 50  1  0  0  0  0
 48 47  1  0  0  0  0
 50 49  1  0  0  0  0
 50 51  1  0  0  0  0
 52 50  2  0  0  0  0
M  END
>  <MODEL>
3

>  <REMARK>
 VINA RESULT:      -6.3      3.954      7.768
  Name = 
  22 active torsions:
  status: ('A' for Active; 'I' for Inactive)
    1  A    between atoms: C_5  and  C_10
    2  A    between atoms: C_5  and  C_19
    3  A    between atoms: N_6  and  C_44
    4  A    between atoms: C_8  and  C_40
    5  A    between atoms: C_9  and  C_48
    6  A    between atoms: C_12  and  C_51
    7  A    between atoms: S_13  and  C_37
    8  A    between atoms: S_13  and  C_40
    9  A    between atoms: C_14  and  C_45
   10  A    between atoms: C_14  and  N_50
   11  A    between atoms: N_16  and  C_36
   12  A    between atoms: C_17  and  C_31
   13  A    between atoms: C_19  and  C_45
   14  A    between atoms: N_20  and  C_28
   15  A    between atoms: N_20  and  C_39
   16  A    between atoms: C_28  and  C_48
   17  A    between atoms: C_28  and  O_49
   18  A    between atoms: C_31  and  O_49
   19  A    between atoms: C_33  and  C_36
   20  A    between atoms: C_34  and  C_39
   21  A    between atoms: C_37  and  C_41
   22  A    between atoms: P_42  and  N_50
                            x       y       z     vdW  Elec       q    Type
                         _______ _______ _______ _____ _____    ______ ____

>  <TORSDO>
F 22

$$$$
=
 OpenBabel11032419583D

 52 54  0  0  1  0  0  0  0  0999 V2000
  186.0360  178.0860  139.5580 F   0  0  0  0  0  0  0  0  0  0  0  0
  182.4290  178.7160  139.4080 C   0  0  0  0  0  0  0  0  0  0  0  0
  182.1350  178.2050  138.1210 C   0  0  0  0  0  0  0  0  0  0  0  0
  183.7510  178.6580  139.8700 C   0  0  0  0  0  3  0  0  0  0  0  0
  183.1600  177.6630  137.3390 C   0  0  0  0  0  3  0  0  0  0  0  0
  184.7670  178.1190  139.0790 C   0  0  0  0  0  0  0  0  0  0  0  0
  184.4800  177.6190  137.8050 C   0  0  0  0  0  0  0  0  0  0  0  0
  185.5410  177.0700  137.0090 N   0  0  0  0  0  2  0  0  0  0  0  0
  186.9020  178.9730  136.8370 O   0  0  0  0  0  0  0  0  0  0  0  0
  187.6940  177.0400  135.8100 N   0  0  0  0  0  2  0  0  0  0  0  0
  186.7180  177.7570  136.5640 C   0  0  0  0  0  0  0  0  0  0  0  0
  188.9350  177.6680  135.3840 C   0  0  0  0  0  2  0  0  0  0  0  0
  191.7510  176.9840  139.5710 N   0  0  0  0  0  2  0  0  0  0  0  0
  191.9150  176.0070  137.2370 C   0  0  2  0  0  3  0  0  0  0  0  0
  193.8070  176.3810  138.6600 O   0  0  0  0  0  0  0  0  0  0  0  0
  189.8350  177.1340  138.1380 C   0  0  0  0  0  3  0  0  0  0  0  0
  190.6040  176.1040  134.7510 O   0  0  0  0  0  0  0  0  0  0  0  0
  189.5170  177.7250  140.4830 C   0  0  0  0  0  1  0  0  0  0  0  0
  190.0940  176.7750  135.6870 C   0  0  0  0  0  0  0  0  0  0  0  0
  190.3630  177.2530  139.3550 C   0  0  0  0  0  0  0  0  0  0  0  0
  192.5600  176.4710  138.5110 C   0  0  0  0  0  0  0  0  0  0  0  0
  190.6220  176.6730  137.0250 N   0  0  0  0  0  0  0  0  0  0  0  0
  192.8890  173.8000  136.5970 C   0  0  0  0  0  1  0  0  0  0  0  0
  191.7200  174.4960  137.2670 C   0  0  0  0  0  2  0  0  0  0  0  0
  180.8840  180.4350  139.9920 O   0  0  0  0  0  0  0  0  0  0  0  0
  181.3990  179.3240  140.2840 C   0  0  0  0  0  0  0  0  0  0  0  0
  180.8540  178.4980  141.7820 S   0  0  0  0  0  0  0  0  0  0  0  0
  181.9170  179.5210  142.8460 C   0  0  0  0  0  2  0  0  0  0  0  0
  183.1660  178.9540  144.9020 C   0  0  0  0  0  2  0  0  0  0  0  0
  184.2690  179.0320  142.8100 O   0  0  0  0  0  0  0  0  0  0  0  0
  184.6320  178.8210  145.1690 C   0  0  0  0  0  2  0  0  0  0  0  0
  185.2660  178.8830  143.7920 C   0  0  1  0  0  3  0  0  0  0  0  0
  183.0490  178.6940  143.4240 C   0  0  2  0  0  3  0  0  0  0  0  0
  186.1150  177.6470  143.5150 C   0  0  0  0  0  2  0  0  0  0  0  0
  187.4770  177.9910  143.3890 O   0  0  0  0  0  0  0  0  0  0  0  0
  188.2310  177.2850  144.3550 C   0  0  2  0  0  3  0  0  0  0  0  0
  188.3000  177.9990  145.6330 N   0  0  0  0  0  2  0  0  0  0  0  0
  187.8120  177.1030  146.6700 C   0  0  0  0  0  2  0  0  0  0  0  0
  188.2290  178.2900  148.8010 C   0  0  0  0  0  1  0  0  0  0  0  0
  188.7190  177.1840  147.8860 C   0  0  0  0  0  2  0  0  0  0  0  0
  189.6270  176.9060  143.8450 C   0  0  0  0  0  2  0  0  0  0  0  0
  190.7080  177.6420  144.6200 C   0  0  0  0  0  2  0  0  0  0  0  0
  191.5050  176.6780  145.4710 C   0  0  0  0  0  1  0  0  0  0  0  0
  180.7410  178.1310  137.5790 C   0  0  0  0  0  2  0  0  0  0  0  0
  180.6130  177.0290  136.5370 C   0  0  0  0  0  2  0  0  0  0  0  0
  180.5710  175.6640  137.1990 C   0  0  0  0  0  2  0  0  0  0  0  0
  179.2090  175.0300  136.9920 C   0  0  0  0  0  2  0  0  0  0  0  0
  179.3430  173.7920  136.2420 N   0  0  0  0  0  2  0  0  0  0  0  0
  181.6340  172.4300  137.1540 O   0  0  0  0  0  1  0  0  0  0  0  0
  179.9610  172.5800  137.3460 P   0  0  0  0  0  0  0  0  0  0  0  0
  179.3030  171.2540  137.0520 O   0  0  0  0  0  0  0  0  0  0  0  0
  179.6110  173.0330  138.9390 O   0  0  0  0  0  1  0  0  0  0  0  0
  2  4  1  0  0  0  0
  2 26  1  0  0  0  0
  3  2  2  0  0  0  0
  5  7  2  0  0  0  0
  5  3  1  0  0  0  0
  6  1  1  0  0  0  0
  6  4  2  0  0  0  0
  7  6  1  0  0  0  0
  8  7  1  0  0  0  0
 10 11  1  0  0  0  0
 11  9  2  0  0  0  0
 11  8  1  0  0  0  0
 12 19  1  0  0  0  0
 12 10  1  0  0  0  0
 14 24  1  1  0  0  0
 14 21  1  0  0  0  0
 16 20  2  0  0  0  0
 17 19  2  0  0  0  0
 19 22  1  0  0  0  0
 20 13  1  0  0  0  0
 20 18  1  0  0  0  0
 21 15  2  0  0  0  0
 21 13  1  0  0  0  0
 22 14  1  0  0  0  0
 22 16  1  0  0  0  0
 23 24  1  0  0  0  0
 25 26  2  0  0  0  0
 26 27  1  0  0  0  0
 27 28  1  0  0  0  0
 29 31  1  0  0  0  0
 30 33  1  0  0  0  0
 30 32  1  0  0  0  0
 32 34  1  6  0  0  0
 32 31  1  0  0  0  0
 33 28  1  6  0  0  0
 33 29  1  0  0  0  0
 35 34  1  0  0  0  0
 35 36  1  0  0  0  0
 36 41  1  6  0  0  0
 36 37  1  0  0  0  0
 37 38  1  0  0  0  0
 38 40  1  0  0  0  0
 40 39  1  0  0  0  0
 41 42  1  0  0  0  0
 42 43  1  0  0  0  0
 44  3  1  0  0  0  0
 45 46  1  0  0  0  0
 45 44  1  0  0  0  0
 47 46  1  0  0  0  0
 48 47  1  0  0  0  0
 48 50  1  0  0  0  0
 49 50  1  0  0  0  0
 50 52  1  0  0  0  0
 51 50  2  0  0  0  0
M  END
>  <MODEL>
4

>  <REMARK>
 VINA RESULT:      -6.3      3.780      8.605
  Name = 
  22 active torsions:
  status: ('A' for Active; 'I' for Inactive)
    1  A    between atoms: C_5  and  C_10
    2  A    between atoms: C_5  and  C_19
    3  A    between atoms: N_6  and  C_44
    4  A    between atoms: C_8  and  C_40
    5  A    between atoms: C_9  and  C_48
    6  A    between atoms: C_12  and  C_51
    7  A    between atoms: S_13  and  C_37
    8  A    between atoms: S_13  and  C_40
    9  A    between atoms: C_14  and  C_45
   10  A    between atoms: C_14  and  N_50
   11  A    between atoms: N_16  and  C_36
   12  A    between atoms: C_17  and  C_31
   13  A    between atoms: C_19  and  C_45
   14  A    between atoms: N_20  and  C_28
   15  A    between atoms: N_20  and  C_39
   16  A    between atoms: C_28  and  C_48
   17  A    between atoms: C_28  and  O_49
   18  A    between atoms: C_31  and  O_49
   19  A    between atoms: C_33  and  C_36
   20  A    between atoms: C_34  and  C_39
   21  A    between atoms: C_37  and  C_41
   22  A    between atoms: P_42  and  N_50
                            x       y       z     vdW  Elec       q    Type
                         _______ _______ _______ _____ _____    ______ ____

>  <TORSDO>
F 22

$$$$
=
 OpenBabel11032419583D

 52 54  0  0  1  0  0  0  0  0999 V2000
  187.5900  178.8320  137.9840 F   0  0  0  0  0  0  0  0  0  0  0  0
  190.5790  176.7930  137.4080 C   0  0  0  0  0  0  0  0  0  0  0  0
  190.1550  176.0270  136.2950 C   0  0  0  0  0  0  0  0  0  0  0  0
  189.6970  177.7350  137.9540 C   0  0  0  0  0  3  0  0  0  0  0  0
  188.8730  176.2190  135.7690 C   0  0  0  0  0  3  0  0  0  0  0  0
  188.4180  177.9150  137.4250 C   0  0  0  0  0  0  0  0  0  0  0  0
  187.9950  177.1560  136.3280 C   0  0  0  0  0  0  0  0  0  0  0  0
  186.6750  177.3590  135.8010 N   0  0  0  0  0  2  0  0  0  0  0  0
  185.4420  176.1920  137.4200 O   0  0  0  0  0  0  0  0  0  0  0  0
  184.2150  177.2140  135.7270 N   0  0  0  0  0  2  0  0  0  0  0  0
  185.4470  176.8840  136.3680 C   0  0  0  0  0  0  0  0  0  0  0  0
  182.9350  176.8120  136.2890 C   0  0  0  0  0  2  0  0  0  0  0  0
  181.4930  179.0400  140.6340 N   0  0  0  0  0  2  0  0  0  0  0  0
  180.9340  179.5280  138.2100 C   0  0  2  0  0  3  0  0  0  0  0  0
  179.4370  179.9530  140.0340 O   0  0  0  0  0  0  0  0  0  0  0  0
  182.9030  178.1110  138.9340 C   0  0  0  0  0  3  0  0  0  0  0  0
  181.5110  178.5900  135.6230 O   0  0  0  0  0  0  0  0  0  0  0  0
  183.6900  177.9500  141.2370 C   0  0  0  0  0  1  0  0  0  0  0  0
  182.0990  178.0160  136.5780 C   0  0  0  0  0  0  0  0  0  0  0  0
  182.6950  178.3840  140.2200 C   0  0  0  0  0  0  0  0  0  0  0  0
  180.5590  179.5160  139.6640 C   0  0  0  0  0  0  0  0  0  0  0  0
  181.9650  178.5210  137.9210 N   0  0  0  0  0  0  0  0  0  0  0  0
  180.3980  181.6110  136.9450 C   0  0  0  0  0  1  0  0  0  0  0  0
  181.4310  180.9100  137.8070 C   0  0  0  0  0  2  0  0  0  0  0  0
  192.9590  176.9490  137.4050 O   0  0  0  0  0  0  0  0  0  0  0  0
  191.9140  176.6280  138.0310 C   0  0  0  0  0  0  0  0  0  0  0  0
  192.0840  175.9700  139.6930 S   0  0  0  0  0  0  0  0  0  0  0  0
  191.9330  177.6110  140.4600 C   0  0  0  0  0  2  0  0  0  0  0  0
  191.9140  176.9850  142.8520 C   0  0  0  0  0  2  0  0  0  0  0  0
  189.9810  176.6960  141.5210 O   0  0  0  0  0  0  0  0  0  0  0  0
  190.9230  176.2220  143.6710 C   0  0  0  0  0  2  0  0  0  0  0  0
  189.7210  176.0750  142.7570 C   0  0  1  0  0  3  0  0  0  0  0  0
  191.0900  177.5370  141.7190 C   0  0  2  0  0  3  0  0  0  0  0  0
  188.4620  176.6500  143.3950 C   0  0  0  0  0  2  0  0  0  0  0  0
  188.7700  177.7760  144.1870 O   0  0  0  0  0  0  0  0  0  0  0  0
  187.8910  177.8280  145.2930 C   0  0  2  0  0  3  0  0  0  0  0  0
  188.1680  176.7750  146.2720 N   0  0  0  0  0  2  0  0  0  0  0  0
  189.3710  177.1480  146.9990 C   0  0  0  0  0  2  0  0  0  0  0  0
  188.0580  177.8720  148.9670 C   0  0  0  0  0  1  0  0  0  0  0  0
  189.0700  178.3130  147.9260 C   0  0  0  0  0  2  0  0  0  0  0  0
  186.4160  177.8280  144.8670 C   0  0  0  0  0  2  0  0  0  0  0  0
  185.6160  178.8350  145.6760 C   0  0  0  0  0  2  0  0  0  0  0  0
  184.1830  178.8910  145.1930 C   0  0  0  0  0  1  0  0  0  0  0  0
  191.0570  175.0690  135.5790 C   0  0  0  0  0  2  0  0  0  0  0  0
  191.1210  173.7310  136.3000 C   0  0  0  0  0  2  0  0  0  0  0  0
  192.2620  172.8850  135.7640 C   0  0  0  0  0  2  0  0  0  0  0  0
  193.5890  173.5530  136.0680 C   0  0  0  0  0  2  0  0  0  0  0  0
  193.8030  173.6070  137.5050 N   0  0  0  0  0  2  0  0  0  0  0  0
  195.5100  174.9340  139.3120 O   0  0  0  0  0  1  0  0  0  0  0  0
  195.4100  174.2560  137.7660 P   0  0  0  0  0  0  0  0  0  0  0  0
  195.6930  175.3190  136.7330 O   0  0  0  0  0  0  0  0  0  0  0  0
  196.5530  173.0170  137.6160 O   0  0  0  0  0  1  0  0  0  0  0  0
  2  4  1  0  0  0  0
  2 26  1  0  0  0  0
  3  2  2  0  0  0  0
  5  3  1  0  0  0  0
  5  7  2  0  0  0  0
  6  4  2  0  0  0  0
  6  1  1  0  0  0  0
  7  6  1  0  0  0  0
  8  7  1  0  0  0  0
  8 11  1  0  0  0  0
 10 12  1  0  0  0  0
 10 11  1  0  0  0  0
 11  9  2  0  0  0  0
 12 19  1  0  0  0  0
 14 24  1  1  0  0  0
 14 21  1  0  0  0  0
 16 20  2  0  0  0  0
 17 19  2  0  0  0  0
 19 22  1  0  0  0  0
 20 13  1  0  0  0  0
 20 18  1  0  0  0  0
 21 15  2  0  0  0  0
 21 13  1  0  0  0  0
 22 14  1  0  0  0  0
 22 16  1  0  0  0  0
 23 24  1  0  0  0  0
 25 26  2  0  0  0  0
 26 27  1  0  0  0  0
 27 28  1  0  0  0  0
 29 31  1  0  0  0  0
 30 33  1  0  0  0  0
 30 32  1  0  0  0  0
 32 34  1  1  0  0  0
 32 31  1  0  0  0  0
 33 28  1  6  0  0  0
 33 29  1  0  0  0  0
 34 35  1  0  0  0  0
 35 36  1  0  0  0  0
 36 41  1  6  0  0  0
 36 37  1  0  0  0  0
 37 38  1  0  0  0  0
 38 40  1  0  0  0  0
 40 39  1  0  0  0  0
 41 42  1  0  0  0  0
 43 42  1  0  0  0  0
 44  3  1  0  0  0  0
 44 45  1  0  0  0  0
 46 47  1  0  0  0  0
 46 45  1  0  0  0  0
 47 48  1  0  0  0  0
 48 50  1  0  0  0  0
 50 49  1  0  0  0  0
 51 50  2  0  0  0  0
 52 50  1  0  0  0  0
M  END
>  <MODEL>
5

>  <REMARK>
 VINA RESULT:      -6.2      3.319     10.888
  Name = 
  22 active torsions:
  status: ('A' for Active; 'I' for Inactive)
    1  A    between atoms: C_5  and  C_10
    2  A    between atoms: C_5  and  C_19
    3  A    between atoms: N_6  and  C_44
    4  A    between atoms: C_8  and  C_40
    5  A    between atoms: C_9  and  C_48
    6  A    between atoms: C_12  and  C_51
    7  A    between atoms: S_13  and  C_37
    8  A    between atoms: S_13  and  C_40
    9  A    between atoms: C_14  and  C_45
   10  A    between atoms: C_14  and  N_50
   11  A    between atoms: N_16  and  C_36
   12  A    between atoms: C_17  and  C_31
   13  A    between atoms: C_19  and  C_45
   14  A    between atoms: N_20  and  C_28
   15  A    between atoms: N_20  and  C_39
   16  A    between atoms: C_28  and  C_48
   17  A    between atoms: C_28  and  O_49
   18  A    between atoms: C_31  and  O_49
   19  A    between atoms: C_33  and  C_36
   20  A    between atoms: C_34  and  C_39
   21  A    between atoms: C_37  and  C_41
   22  A    between atoms: P_42  and  N_50
                            x       y       z     vdW  Elec       q    Type
                         _______ _______ _______ _____ _____    ______ ____

>  <TORSDO>
F 22

$$$$
=
 OpenBabel11032419583D

 52 54  0  0  1  0  0  0  0  0999 V2000
  189.5750  178.7100  138.4310 F   0  0  0  0  0  0  0  0  0  0  0  0
  188.1230  177.7190  141.6460 C   0  0  0  0  0  0  0  0  0  0  0  0
  189.2100  177.0040  142.2070 C   0  0  0  0  0  0  0  0  0  0  0  0
  188.2750  178.2880  140.3750 C   0  0  0  0  0  3  0  0  0  0  0  0
  190.4010  176.8760  141.4860 C   0  0  0  0  0  3  0  0  0  0  0  0
  189.4680  178.1500  139.6620 C   0  0  0  0  0  0  0  0  0  0  0  0
  190.5410  177.4410  140.2120 C   0  0  0  0  0  0  0  0  0  0  0  0
  191.7570  177.3120  139.4610 N   0  0  0  0  0  2  0  0  0  0  0  0
  191.2900  175.3080  138.3340 O   0  0  0  0  0  0  0  0  0  0  0  0
  193.3310  176.3140  137.8470 N   0  0  0  0  0  2  0  0  0  0  0  0
  192.0850  176.2620  138.5410 C   0  0  0  0  0  0  0  0  0  0  0  0
  193.6920  175.3110  136.8580 C   0  0  0  0  0  2  0  0  0  0  0  0
  194.1180  170.2370  136.8620 N   0  0  0  0  0  2  0  0  0  0  0  0
  195.5270  172.0590  137.9210 C   0  0  2  0  0  3  0  0  0  0  0  0
  195.2700  169.8640  138.8510 O   0  0  0  0  0  0  0  0  0  0  0  0
  193.8660  172.4800  136.0580 C   0  0  0  0  0  3  0  0  0  0  0  0
  195.6420  174.8610  138.1330 O   0  0  0  0  0  0  0  0  0  0  0  0
  192.7970  170.7100  134.7640 C   0  0  0  0  0  1  0  0  0  0  0  0
  194.7210  174.3840  137.4170 C   0  0  0  0  0  0  0  0  0  0  0  0
  193.6280  171.1790  135.9050 C   0  0  0  0  0  0  0  0  0  0  0  0
  194.9680  170.6650  137.9280 C   0  0  0  0  0  0  0  0  0  0  0  0
  194.6720  172.9690  137.1460 N   0  0  0  0  0  0  0  0  0  0  0  0
  197.0860  170.9490  136.3200 C   0  0  0  0  0  1  0  0  0  0  0  0
  196.9370  172.0570  137.3460 C   0  0  0  0  0  2  0  0  0  0  0  0
  186.5770  177.2310  143.3950 O   0  0  0  0  0  0  0  0  0  0  0  0
  186.8240  177.8760  142.3420 C   0  0  0  0  0  0  0  0  0  0  0  0
  185.5650  178.9900  141.7100 S   0  0  0  0  0  0  0  0  0  0  0  0
  184.2440  178.1970  142.6740 C   0  0  0  0  0  2  0  0  0  0  0  0
  182.1990  178.9430  143.8470 C   0  0  0  0  0  2  0  0  0  0  0  0
  182.1320  178.3970  141.5460 O   0  0  0  0  0  0  0  0  0  0  0  0
  180.7620  178.9460  143.4320 C   0  0  0  0  0  2  0  0  0  0  0  0
  180.8000  178.5870  141.9590 C   0  0  1  0  0  3  0  0  0  0  0  0
  182.9460  178.9700  142.5390 C   0  0  2  0  0  3  0  0  0  0  0  0
  180.1200  179.6550  141.1080 C   0  0  0  0  0  2  0  0  0  0  0  0
  179.0980  179.0900  140.3170 O   0  0  0  0  0  0  0  0  0  0  0  0
  179.2880  179.4640  138.9670 C   0  0  2  0  0  3  0  0  0  0  0  0
  179.2900  178.3090  138.0670 N   0  0  0  0  0  2  0  0  0  0  0  0
  180.4490  177.4920  138.3930 C   0  0  0  0  0  2  0  0  0  0  0  0
  180.4570  175.5280  139.8990 C   0  0  0  0  0  1  0  0  0  0  0  0
  180.0290  176.0400  138.5360 C   0  0  0  0  0  2  0  0  0  0  0  0
  180.5380  180.3330  138.7720 C   0  0  0  0  0  2  0  0  0  0  0  0
  180.2160  181.5760  137.9590 C   0  0  0  0  0  2  0  0  0  0  0  0
  181.3860  182.5340  137.9630 C   0  0  0  0  0  1  0  0  0  0  0  0
  189.1810  176.4460  143.5970 C   0  0  0  0  0  2  0  0  0  0  0  0
  189.8030  177.4140  144.5920 C   0  0  0  0  0  2  0  0  0  0  0  0
  189.2660  177.1660  145.9900 C   0  0  0  0  0  2  0  0  0  0  0  0
  188.2240  178.2120  146.3370 C   0  0  0  0  0  2  0  0  0  0  0  0
  186.9670  177.5680  146.6840 N   0  0  0  0  0  2  0  0  0  0  0  0
  185.6980  179.6360  145.2510 O   0  0  0  0  0  0  0  0  0  0  0  0
  185.7400  178.8190  146.7310 P   0  0  0  0  0  0  0  0  0  0  0  0
  186.0660  179.7970  147.8330 O   0  0  0  0  0  1  0  0  0  0  0  0
  184.2290  178.1200  147.0370 O   0  0  0  0  0  1  0  0  0  0  0  0
  1  6  1  0  0  0  0
  2  3  1  0  0  0  0
  2 26  1  0  0  0  0
  3 44  1  0  0  0  0
  4  2  2  0  0  0  0
  5  3  2  0  0  0  0
  6  7  2  0  0  0  0
  6  4  1  0  0  0  0
  7  5  1  0  0  0  0
  8  7  1  0  0  0  0
  9 11  2  0  0  0  0
 10 11  1  0  0  0  0
 11  8  1  0  0  0  0
 12 19  1  0  0  0  0
 12 10  1  0  0  0  0
 13 21  1  0  0  0  0
 14 24  1  6  0  0  0
 14 21  1  0  0  0  0
 16 22  1  0  0  0  0
 18 20  1  0  0  0  0
 19 17  2  0  0  0  0
 20 16  2  0  0  0  0
 20 13  1  0  0  0  0
 21 15  2  0  0  0  0
 22 19  1  0  0  0  0
 22 14  1  0  0  0  0
 23 24  1  0  0  0  0
 26 25  2  0  0  0  0
 27 26  1  0  0  0  0
 27 28  1  0  0  0  0
 30 32  1  0  0  0  0
 30 33  1  0  0  0  0
 31 29  1  0  0  0  0
 32 34  1  6  0  0  0
 32 31  1  0  0  0  0
 33 28  1  1  0  0  0
 33 29  1  0  0  0  0
 35 34  1  0  0  0  0
 36 41  1  1  0  0  0
 36 35  1  0  0  0  0
 37 38  1  0  0  0  0
 37 36  1  0  0  0  0
 38 40  1  0  0  0  0
 40 39  1  0  0  0  0
 42 43  1  0  0  0  0
 42 41  1  0  0  0  0
 44 45  1  0  0  0  0
 45 46  1  0  0  0  0
 46 47  1  0  0  0  0
 47 48  1  0  0  0  0
 48 50  1  0  0  0  0
 49 50  2  0  0  0  0
 50 52  1  0  0  0  0
 50 51  1  0  0  0  0
M  END
>  <MODEL>
6

>  <REMARK>
 VINA RESULT:      -6.2      3.361      4.745
  Name = 
  22 active torsions:
  status: ('A' for Active; 'I' for Inactive)
    1  A    between atoms: C_5  and  C_10
    2  A    between atoms: C_5  and  C_19
    3  A    between atoms: N_6  and  C_44
    4  A    between atoms: C_8  and  C_40
    5  A    between atoms: C_9  and  C_48
    6  A    between atoms: C_12  and  C_51
    7  A    between atoms: S_13  and  C_37
    8  A    between atoms: S_13  and  C_40
    9  A    between atoms: C_14  and  C_45
   10  A    between atoms: C_14  and  N_50
   11  A    between atoms: N_16  and  C_36
   12  A    between atoms: C_17  and  C_31
   13  A    between atoms: C_19  and  C_45
   14  A    between atoms: N_20  and  C_28
   15  A    between atoms: N_20  and  C_39
   16  A    between atoms: C_28  and  C_48
   17  A    between atoms: C_28  and  O_49
   18  A    between atoms: C_31  and  O_49
   19  A    between atoms: C_33  and  C_36
   20  A    between atoms: C_34  and  C_39
   21  A    between atoms: C_37  and  C_41
   22  A    between atoms: P_42  and  N_50
                            x       y       z     vdW  Elec       q    Type
                         _______ _______ _______ _____ _____    ______ ____

>  <TORSDO>
F 22

$$$$
=
 OpenBabel11032419583D

 52 54  0  0  1  0  0  0  0  0999 V2000
  184.5250  174.6590  138.0630 F   0  0  0  0  0  0  0  0  0  0  0  0
  182.0250  177.1990  138.9130 C   0  0  0  0  0  0  0  0  0  0  0  0
  182.4750  178.2770  138.1130 C   0  0  0  0  0  0  0  0  0  0  0  0
  182.7310  175.9890  138.8730 C   0  0  0  0  0  3  0  0  0  0  0  0
  183.6090  178.1180  137.3090 C   0  0  0  0  0  3  0  0  0  0  0  0
  183.8640  175.8430  138.0700 C   0  0  0  0  0  0  0  0  0  0  0  0
  184.3140  176.9080  137.2840 C   0  0  0  0  0  0  0  0  0  0  0  0
  185.4820  176.7350  136.4670 N   0  0  0  0  0  2  0  0  0  0  0  0
  187.0150  177.9720  137.7400 O   0  0  0  0  0  0  0  0  0  0  0  0
  187.8510  176.9530  135.8220 N   0  0  0  0  0  2  0  0  0  0  0  0
  186.7910  177.2590  136.7270 C   0  0  0  0  0  0  0  0  0  0  0  0
  189.2120  177.4050  136.0660 C   0  0  0  0  0  2  0  0  0  0  0  0
  193.5460  176.2090  138.4560 N   0  0  0  0  0  2  0  0  0  0  0  0
  192.3280  175.1330  136.5100 C   0  0  2  0  0  3  0  0  0  0  0  0
  194.7090  175.0840  136.7830 O   0  0  0  0  0  0  0  0  0  0  0  0
  191.2430  176.7720  138.1050 C   0  0  0  0  0  3  0  0  0  0  0  0
  190.0000  175.4550  134.9670 O   0  0  0  0  0  0  0  0  0  0  0  0
  192.2600  177.5130  140.1940 C   0  0  0  0  0  1  0  0  0  0  0  0
  190.1670  176.2660  135.9160 C   0  0  0  0  0  0  0  0  0  0  0  0
  192.3190  176.8040  138.8890 C   0  0  0  0  0  0  0  0  0  0  0  0
  193.6000  175.4730  137.2340 C   0  0  0  0  0  0  0  0  0  0  0  0
  191.2610  176.0890  136.8380 N   0  0  0  0  0  0  0  0  0  0  0  0
  192.1270  172.7830  135.6950 C   0  0  0  0  0  1  0  0  0  0  0  0
  191.8840  173.7200  136.8640 C   0  0  0  0  0  2  0  0  0  0  0  0
  179.7580  176.7450  139.4970 O   0  0  0  0  0  0  0  0  0  0  0  0
  180.8450  177.3010  139.8040 C   0  0  0  0  0  0  0  0  0  0  0  0
  180.9280  178.2180  141.3460 S   0  0  0  0  0  0  0  0  0  0  0  0
  182.7350  178.4020  141.2490 C   0  0  0  0  0  2  0  0  0  0  0  0
  182.7060  179.2070  143.5870 C   0  0  0  0  0  2  0  0  0  0  0  0
  184.7370  178.5440  142.5700 O   0  0  0  0  0  0  0  0  0  0  0  0
  183.8120  179.5780  144.5230 C   0  0  0  0  0  2  0  0  0  0  0  0
  185.0710  179.1290  143.8060 C   0  0  1  0  0  3  0  0  0  0  0  0
  183.3610  178.2540  142.6230 C   0  0  2  0  0  3  0  0  0  0  0  0
  185.8800  178.1580  144.6600 C   0  0  0  0  0  2  0  0  0  0  0  0
  186.7070  177.3490  143.8530 O   0  0  0  0  0  0  0  0  0  0  0  0
  187.9800  177.2280  144.4570 C   0  0  2  0  0  3  0  0  0  0  0  0
  187.9040  177.2590  145.9190 N   0  0  0  0  0  2  0  0  0  0  0  0
  189.2580  177.1350  146.4380 C   0  0  0  0  0  2  0  0  0  0  0  0
  188.0700  178.1970  148.3300 C   0  0  0  0  0  1  0  0  0  0  0  0
  189.2500  177.3250  147.9440 C   0  0  0  0  0  2  0  0  0  0  0  0
  188.9810  178.2610  143.9220 C   0  0  0  0  0  2  0  0  0  0  0  0
  190.1300  177.5800  143.1960 C   0  0  0  0  0  2  0  0  0  0  0  0
  189.6490  176.3350  142.4840 C   0  0  0  0  0  1  0  0  0  0  0  0
  181.7340  179.5740  138.0100 C   0  0  0  0  0  2  0  0  0  0  0  0
  180.8490  179.6070  136.7730 C   0  0  0  0  0  2  0  0  0  0  0  0
  180.2280  180.9800  136.5910 C   0  0  0  0  0  2  0  0  0  0  0  0
  180.3730  181.7860  137.8670 C   0  0  0  0  0  2  0  0  0  0  0  0
  181.4340  182.7690  137.7190 N   0  0  0  0  0  2  0  0  0  0  0  0
  181.4960  185.5840  137.8170 O   0  0  0  0  0  1  0  0  0  0  0  0
  180.6920  184.2520  137.1530 P   0  0  0  0  0  0  0  0  0  0  0  0
  179.2440  184.2800  137.5770 O   0  0  0  0  0  1  0  0  0  0  0  0
  180.7780  184.3210  135.4640 O   0  0  0  0  0  0  0  0  0  0  0  0
  1  6  1  0  0  0  0
  2 26  1  0  0  0  0
  3  2  2  0  0  0  0
  4  2  1  0  0  0  0
  5  3  1  0  0  0  0
  6  4  2  0  0  0  0
  7  5  2  0  0  0  0
  7  6  1  0  0  0  0
  8 11  1  0  0  0  0
  8  7  1  0  0  0  0
 10 12  1  0  0  0  0
 10 11  1  0  0  0  0
 11  9  2  0  0  0  0
 13 20  1  0  0  0  0
 14 22  1  0  0  0  0
 14 24  1  1  0  0  0
 14 21  1  0  0  0  0
 15 21  2  0  0  0  0
 16 20  2  0  0  0  0
 17 19  2  0  0  0  0
 19 12  1  0  0  0  0
 19 22  1  0  0  0  0
 20 18  1  0  0  0  0
 21 13  1  0  0  0  0
 22 16  1  0  0  0  0
 23 24  1  0  0  0  0
 25 26  2  0  0  0  0
 26 27  1  0  0  0  0
 28 27  1  0  0  0  0
 29 31  1  0  0  0  0
 30 33  1  0  0  0  0
 30 32  1  0  0  0  0
 32 31  1  0  0  0  0
 32 34  1  1  0  0  0
 33 28  1  6  0  0  0
 33 29  1  0  0  0  0
 35 36  1  0  0  0  0
 35 34  1  0  0  0  0
 36 41  1  6  0  0  0
 36 37  1  0  0  0  0
 37 38  1  0  0  0  0
 38 40  1  0  0  0  0
 40 39  1  0  0  0  0
 42 41  1  0  0  0  0
 43 42  1  0  0  0  0
 44  3  1  0  0  0  0
 45 44  1  0  0  0  0
 46 45  1  0  0  0  0
 46 47  1  0  0  0  0
 48 47  1  0  0  0  0
 50 51  1  0  0  0  0
 50 48  1  0  0  0  0
 50 49  1  0  0  0  0
 52 50  2  0  0  0  0
M  END
>  <MODEL>
7

>  <REMARK>
 VINA RESULT:      -6.0      3.942      8.591
  Name = 
  22 active torsions:
  status: ('A' for Active; 'I' for Inactive)
    1  A    between atoms: C_5  and  C_10
    2  A    between atoms: C_5  and  C_19
    3  A    between atoms: N_6  and  C_44
    4  A    between atoms: C_8  and  C_40
    5  A    between atoms: C_9  and  C_48
    6  A    between atoms: C_12  and  C_51
    7  A    between atoms: S_13  and  C_37
    8  A    between atoms: S_13  and  C_40
    9  A    between atoms: C_14  and  C_45
   10  A    between atoms: C_14  and  N_50
   11  A    between atoms: N_16  and  C_36
   12  A    between atoms: C_17  and  C_31
   13  A    between atoms: C_19  and  C_45
   14  A    between atoms: N_20  and  C_28
   15  A    between atoms: N_20  and  C_39
   16  A    between atoms: C_28  and  C_48
   17  A    between atoms: C_28  and  O_49
   18  A    between atoms: C_31  and  O_49
   19  A    between atoms: C_33  and  C_36
   20  A    between atoms: C_34  and  C_39
   21  A    between atoms: C_37  and  C_41
   22  A    between atoms: P_42  and  N_50
                            x       y       z     vdW  Elec       q    Type
                         _______ _______ _______ _____ _____    ______ ____

>  <TORSDO>
F 22

$$$$
=
 OpenBabel11032419583D

 52 54  0  0  1  0  0  0  0  0999 V2000
  189.7070  177.1930  145.3140 F   0  0  0  0  0  0  0  0  0  0  0  0
  186.2930  178.1310  144.3720 C   0  0  0  0  0  0  0  0  0  0  0  0
  186.3640  177.9730  142.9660 C   0  0  0  0  0  0  0  0  0  0  0  0
  187.4320  177.8560  145.1390 C   0  0  0  0  0  3  0  0  0  0  0  0
  187.5600  177.5550  142.3750 C   0  0  0  0  0  3  0  0  0  0  0  0
  188.6230  177.4440  144.5390 C   0  0  0  0  0  0  0  0  0  0  0  0
  188.6970  177.2920  143.1500 C   0  0  0  0  0  0  0  0  0  0  0  0
  189.9320  176.8670  142.5540 N   0  0  0  0  0  2  0  0  0  0  0  0
  190.0380  178.3990  140.7810 O   0  0  0  0  0  0  0  0  0  0  0  0
  191.8190  176.9130  140.9690 N   0  0  0  0  0  2  0  0  0  0  0  0
  190.5660  177.4400  141.4030 C   0  0  0  0  0  0  0  0  0  0  0  0
  192.5380  177.4920  139.8450 C   0  0  0  0  0  2  0  0  0  0  0  0
  189.2520  175.3980  136.5670 N   0  0  0  0  0  0  0  0  0  0  0  0
  191.7150  174.9830  136.9990 C   0  0  2  0  0  3  0  0  0  0  0  0
  190.1930  173.2940  136.2390 O   0  0  0  0  0  0  0  0  0  0  0  0
  190.4910  177.0600  137.7690 C   0  0  0  0  0  2  0  0  0  0  0  0
  193.8120  175.8980  138.6340 O   0  0  0  0  0  0  0  0  0  0  0  0
  188.2450  177.6650  137.0360 C   0  0  0  0  0  1  0  0  0  0  0  0
  192.7010  176.4770  138.7600 C   0  0  0  0  0  0  0  0  0  0  0  0
  189.3800  176.7090  137.1250 C   0  0  0  0  0  0  0  0  0  0  0  0
  190.3560  174.4920  136.5900 C   0  0  0  0  0  0  0  0  0  0  0  0
  191.6130  176.1630  137.8680 N   0  0  0  0  0  0  0  0  0  0  0  0
  193.2510  174.0750  135.2530 C   0  0  0  0  0  1  0  0  0  0  0  0
  192.5460  175.3170  135.7670 C   0  0  0  0  0  2  0  0  0  0  0  0
  184.7570  178.1330  146.1960 O   0  0  0  0  0  0  0  0  0  0  0  0
  185.0660  178.5920  145.0650 C   0  0  0  0  0  0  0  0  0  0  0  0
  183.9860  179.8150  144.3180 S   0  0  0  0  0  0  0  0  0  0  0  0
  182.6580  178.6070  144.0310 C   0  0  0  0  0  2  0  0  0  0  0  0
  180.2170  178.9500  143.8340 C   0  0  0  0  0  2  0  0  0  0  0  0
  181.5480  178.6540  141.9010 O   0  0  0  0  0  0  0  0  0  0  0  0
  179.2860  178.8130  142.6720 C   0  0  0  0  0  2  0  0  0  0  0  0
  180.2060  178.6240  141.4800 C   0  0  1  0  0  3  0  0  0  0  0  0
  181.5520  179.2150  143.1900 C   0  0  2  0  0  3  0  0  0  0  0  0
  179.9530  179.6810  140.4100 C   0  0  0  0  0  2  0  0  0  0  0  0
  181.1680  180.1280  139.8490 O   0  0  0  0  0  0  0  0  0  0  0  0
  180.9420  180.5550  138.5200 C   0  0  2  0  0  3  0  0  0  0  0  0
  179.8570  181.5350  138.4300 N   0  0  0  0  0  2  0  0  0  0  0  0
  180.4560  182.8610  138.4040 C   0  0  0  0  0  2  0  0  0  0  0  0
  181.3840  184.6300  136.9440 C   0  0  0  0  0  1  0  0  0  0  0  0
  180.6030  183.3300  136.9670 C   0  0  0  0  0  2  0  0  0  0  0  0
  180.7220  179.3810  137.5580 C   0  0  0  0  0  2  0  0  0  0  0  0
  180.9020  179.8190  136.1130 C   0  0  0  0  0  2  0  0  0  0  0  0
  181.4120  178.6730  135.2670 C   0  0  0  0  0  1  0  0  0  0  0  0
  185.1760  178.1460  142.0710 C   0  0  0  0  0  2  0  0  0  0  0  0
  185.4620  179.1480  140.9630 C   0  0  0  0  0  2  0  0  0  0  0  0
  184.4460  179.0170  139.8430 C   0  0  0  0  0  2  0  0  0  0  0  0
  184.8480  177.8930  138.9080 C   0  0  0  0  0  2  0  0  0  0  0  0
  183.8130  177.6790  137.9100 N   0  0  0  0  0  2  0  0  0  0  0  0
  184.1790  174.8860  137.8530 O   0  0  0  0  0  1  0  0  0  0  0  0
  183.0880  176.1180  138.2420 P   0  0  0  0  0  0  0  0  0  0  0  0
  181.8380  175.9610  137.4100 O   0  0  0  0  0  0  0  0  0  0  0  0
  182.6800  176.0190  139.8810 O   0  0  0  0  0  1  0  0  0  0  0  0
  2 26  1  0  0  0  0
  2  4  1  0  0  0  0
  3  2  2  0  0  0  0
  5  3  1  0  0  0  0
  5  7  2  0  0  0  0
  6  4  2  0  0  0  0
  6  1  1  0  0  0  0
  7  6  1  0  0  0  0
  8  7  1  0  0  0  0
  9 11  2  0  0  0  0
 10 11  1  0  0  0  0
 11  8  1  0  0  0  0
 12 10  1  0  0  0  0
 13 21  1  0  0  0  0
 13 20  2  0  0  0  0
 14 24  1  6  0  0  0
 14 22  1  0  0  0  0
 15 21  2  0  0  0  0
 16 22  1  0  0  0  0
 17 19  2  0  0  0  0
 18 20  1  0  0  0  0
 19 12  1  0  0  0  0
 20 16  1  0  0  0  0
 21 14  1  0  0  0  0
 22 19  1  0  0  0  0
 23 24  1  0  0  0  0
 26 25  2  0  0  0  0
 27 26  1  0  0  0  0
 28 27  1  0  0  0  0
 30 33  1  0  0  0  0
 31 29  1  0  0  0  0
 32 34  1  6  0  0  0
 32 30  1  0  0  0  0
 32 31  1  0  0  0  0
 33 29  1  0  0  0  0
 33 28  1  1  0  0  0
 35 34  1  0  0  0  0
 36 41  1  6  0  0  0
 36 35  1  0  0  0  0
 37 36  1  0  0  0  0
 38 37  1  0  0  0  0
 39 40  1  0  0  0  0
 40 38  1  0  0  0  0
 42 41  1  0  0  0  0
 43 42  1  0  0  0  0
 44  3  1  0  0  0  0
 45 44  1  0  0  0  0
 46 45  1  0  0  0  0
 47 46  1  0  0  0  0
 48 50  1  0  0  0  0
 48 47  1  0  0  0  0
 49 50  1  0  0  0  0
 50 52  1  0  0  0  0
 51 50  2  0  0  0  0
M  END
>  <MODEL>
8

>  <REMARK>
 VINA RESULT:      -5.9      3.839      6.615
  Name = 
  22 active torsions:
  status: ('A' for Active; 'I' for Inactive)
    1  A    between atoms: C_5  and  C_10
    2  A    between atoms: C_5  and  C_19
    3  A    between atoms: N_6  and  C_44
    4  A    between atoms: C_8  and  C_40
    5  A    between atoms: C_9  and  C_48
    6  A    between atoms: C_12  and  C_51
    7  A    between atoms: S_13  and  C_37
    8  A    between atoms: S_13  and  C_40
    9  A    between atoms: C_14  and  C_45
   10  A    between atoms: C_14  and  N_50
   11  A    between atoms: N_16  and  C_36
   12  A    between atoms: C_17  and  C_31
   13  A    between atoms: C_19  and  C_45
   14  A    between atoms: N_20  and  C_28
   15  A    between atoms: N_20  and  C_39
   16  A    between atoms: C_28  and  C_48
   17  A    between atoms: C_28  and  O_49
   18  A    between atoms: C_31  and  O_49
   19  A    between atoms: C_33  and  C_36
   20  A    between atoms: C_34  and  C_39
   21  A    between atoms: C_37  and  C_41
   22  A    between atoms: P_42  and  N_50
                            x       y       z     vdW  Elec       q    Type
                         _______ _______ _______ _____ _____    ______ ____

>  <TORSDO>
F 22

$$$$
=
 OpenBabel11032419583D

 52 54  0  0  1  0  0  0  0  0999 V2000
  185.6830  178.9640  139.8000 F   0  0  0  0  0  0  0  0  0  0  0  0
  188.2950  178.1380  142.2320 C   0  0  0  0  0  0  0  0  0  0  0  0
  187.5410  178.1530  143.4310 C   0  0  0  0  0  0  0  0  0  0  0  0
  187.6430  178.4090  141.0220 C   0  0  0  0  0  3  0  0  0  0  0  0
  186.1740  178.4420  143.3860 C   0  0  0  0  0  3  0  0  0  0  0  0
  186.2780  178.7000  140.9890 C   0  0  0  0  0  0  0  0  0  0  0  0
  185.5330  178.7220  142.1730 C   0  0  0  0  0  0  0  0  0  0  0  0
  184.1300  179.0240  142.1150 N   0  0  0  0  0  2  0  0  0  0  0  0
  183.4130  177.2190  140.8000 O   0  0  0  0  0  0  0  0  0  0  0  0
  181.7610  178.6890  141.5240 N   0  0  0  0  0  2  0  0  0  0  0  0
  183.1190  178.2600  141.4450 C   0  0  0  0  0  0  0  0  0  0  0  0
  180.6850  177.9210  140.9160 C   0  0  0  0  0  2  0  0  0  0  0  0
  180.9530  174.9180  136.8120 N   0  0  0  0  0  0  0  0  0  0  0  0
  180.7780  177.4350  137.0650 C   0  0  2  0  0  3  0  0  0  0  0  0
  181.8960  176.3540  135.2410 O   0  0  0  0  0  0  0  0  0  0  0  0
  180.2310  175.8010  138.9200 C   0  0  0  0  0  2  0  0  0  0  0  0
  180.5940  179.4030  139.0650 O   0  0  0  0  0  0  0  0  0  0  0  0
  180.0120  173.3950  138.5910 C   0  0  0  0  0  1  0  0  0  0  0  0
  180.6160  178.2040  139.4500 C   0  0  0  0  0  0  0  0  0  0  0  0
  180.3830  174.7530  138.1130 C   0  0  0  0  0  0  0  0  0  0  0  0
  181.2560  176.2240  136.3170 C   0  0  0  0  0  0  0  0  0  0  0  0
  180.5730  177.1320  138.4880 N   0  0  0  0  0  0  0  0  0  0  0  0
  179.6060  178.0290  134.9430 C   0  0  0  0  0  1  0  0  0  0  0  0
  179.4820  177.9520  136.4540 C   0  0  0  0  0  2  0  0  0  0  0  0
  190.5470  178.5390  142.9090 O   0  0  0  0  0  0  0  0  0  0  0  0
  189.7510  177.8610  142.2060 C   0  0  0  0  0  0  0  0  0  0  0  0
  190.4260  176.5550  141.1750 S   0  0  0  0  0  0  0  0  0  0  0  0
  190.1700  177.5020  139.6430 C   0  0  0  0  0  2  0  0  0  0  0  0
  191.1220  176.3380  137.6810 C   0  0  0  0  0  2  0  0  0  0  0  0
  188.8950  177.1360  137.6400 O   0  0  0  0  0  0  0  0  0  0  0  0
  190.6190  176.1780  136.2810 C   0  0  0  0  0  2  0  0  0  0  0  0
  189.1990  176.7090  136.3340 C   0  0  1  0  0  3  0  0  0  0  0  0
  189.8700  176.5720  138.4840 C   0  0  2  0  0  3  0  0  0  0  0  0
  188.1960  175.6630  135.8620 C   0  0  0  0  0  2  0  0  0  0  0  0
  187.4310  175.1760  136.9430 O   0  0  0  0  0  0  0  0  0  0  0  0
  186.9280  173.8940  136.6230 C   0  0  2  0  0  3  0  0  0  0  0  0
  185.6310  173.6350  137.2540 N   0  0  0  0  0  2  0  0  0  0  0  0
  184.5930  173.9900  136.2990 C   0  0  0  0  0  2  0  0  0  0  0  0
  183.4560  171.9700  137.1620 C   0  0  0  0  0  1  0  0  0  0  0  0
  183.8080  172.7500  135.9100 C   0  0  0  0  0  2  0  0  0  0  0  0
  187.9360  172.7790  136.9280 C   0  0  0  0  0  2  0  0  0  0  0  0
  188.2490  171.9720  135.6780 C   0  0  0  0  0  2  0  0  0  0  0  0
  187.1050  171.0410  135.3420 C   0  0  0  0  0  1  0  0  0  0  0  0
  188.1240  177.7800  144.7590 C   0  0  0  0  0  2  0  0  0  0  0  0
  187.0440  177.3090  145.7220 C   0  0  0  0  0  2  0  0  0  0  0  0
  187.4210  177.6370  147.1550 C   0  0  0  0  0  2  0  0  0  0  0  0
  188.6180  176.8090  147.5780 C   0  0  0  0  0  2  0  0  0  0  0  0
  189.7710  177.6690  147.7910 N   0  0  0  0  0  2  0  0  0  0  0  0
  191.7150  177.2160  145.8030 O   0  0  0  0  0  0  0  0  0  0  0  0
  191.1930  176.7490  147.3420 P   0  0  0  0  0  0  0  0  0  0  0  0
  190.8540  175.2780  147.3300 O   0  0  0  0  0  1  0  0  0  0  0  0
  192.4270  177.0260  148.4670 O   0  0  0  0  0  1  0  0  0  0  0  0
  1  6  1  0  0  0  0
  2  3  1  0  0  0  0
  3 44  1  0  0  0  0
  4  2  2  0  0  0  0
  5  3  2  0  0  0  0
  6  4  1  0  0  0  0
  6  7  2  0  0  0  0
  7  5  1  0  0  0  0
  8  7  1  0  0  0  0
  9 11  2  0  0  0  0
 11 10  1  0  0  0  0
 11  8  1  0  0  0  0
 12 10  1  0  0  0  0
 13 20  2  0  0  0  0
 14 24  1  6  0  0  0
 14 22  1  0  0  0  0
 15 21  2  0  0  0  0
 17 19  2  0  0  0  0
 19 12  1  0  0  0  0
 20 18  1  0  0  0  0
 20 16  1  0  0  0  0
 21 13  1  0  0  0  0
 21 14  1  0  0  0  0
 22 16  1  0  0  0  0
 22 19  1  0  0  0  0
 23 24  1  0  0  0  0
 26  2  1  0  0  0  0
 26 25  2  0  0  0  0
 27 26  1  0  0  0  0
 28 27  1  0  0  0  0
 29 33  1  0  0  0  0
 30 33  1  0  0  0  0
 31 32  1  0  0  0  0
 31 29  1  0  0  0  0
 32 34  1  1  0  0  0
 32 30  1  0  0  0  0
 33 28  1  1  0  0  0
 34 35  1  0  0  0  0
 36 41  1  1  0  0  0
 36 35  1  0  0  0  0
 36 37  1  0  0  0  0
 38 37  1  0  0  0  0
 40 38  1  0  0  0  0
 40 39  1  0  0  0  0
 42 41  1  0  0  0  0
 43 42  1  0  0  0  0
 44 45  1  0  0  0  0
 45 46  1  0  0  0  0
 46 47  1  0  0  0  0
 47 48  1  0  0  0  0
 49 50  2  0  0  0  0
 50 48  1  0  0  0  0
 50 52  1  0  0  0  0
 51 50  1  0  0  0  0
M  END
>  <MODEL>
9

>  <REMARK>
 VINA RESULT:      -5.7      3.951      8.677
  Name = 
  22 active torsions:
  status: ('A' for Active; 'I' for Inactive)
    1  A    between atoms: C_5  and  C_10
    2  A    between atoms: C_5  and  C_19
    3  A    between atoms: N_6  and  C_44
    4  A    between atoms: C_8  and  C_40
    5  A    between atoms: C_9  and  C_48
    6  A    between atoms: C_12  and  C_51
    7  A    between atoms: S_13  and  C_37
    8  A    between atoms: S_13  and  C_40
    9  A    between atoms: C_14  and  C_45
   10  A    between atoms: C_14  and  N_50
   11  A    between atoms: N_16  and  C_36
   12  A    between atoms: C_17  and  C_31
   13  A    between atoms: C_19  and  C_45
   14  A    between atoms: N_20  and  C_28
   15  A    between atoms: N_20  and  C_39
   16  A    between atoms: C_28  and  C_48
   17  A    between atoms: C_28  and  O_49
   18  A    between atoms: C_31  and  O_49
   19  A    between atoms: C_33  and  C_36
   20  A    between atoms: C_34  and  C_39
   21  A    between atoms: C_37  and  C_41
   22  A    between atoms: P_42  and  N_50
                            x       y       z     vdW  Elec       q    Type
                         _______ _______ _______ _____ _____    ______ ____

>  <TORSDO>
F 22

$$$$
