=
 OpenBabel11032420483D

 51 56  0  0  1  0  0  0  0  0999 V2000
  187.7440  177.8730  141.4180 C   0  0  1  0  0  3  0  0  0  0  0  0
  184.2770  178.8880  141.4520 C   0  0  0  0  0  3  0  0  0  0  0  0
  184.7040  176.5870  137.4360 C   0  0  2  0  0  3  0  0  0  0  0  0
  188.8600  176.3140  137.2610 C   0  0  0  0  0  2  0  0  0  0  0  0
  188.6750  176.6440  139.6810 N   0  0  1  0  0  0  0  0  0  0  0  0
  183.6980  176.1200  138.3310 O   0  0  0  0  0  0  0  0  0  0  0  0
  187.6250  177.5380  139.9990 N   0  0  0  0  0  2  0  0  0  0  0  0
  184.0210  179.2860  140.0330 C   0  0  0  0  0  2  0  0  0  0  0  0
  186.4590  177.6200  142.1300 C   0  0  0  0  0  3  0  0  0  0  0  0
  189.2730  178.5420  138.1090 C   0  0  0  0  0  2  0  0  0  0  0  0
  186.7010  178.5200  136.5000 O   0  0  0  0  0  0  0  0  0  0  0  0
  185.3720  178.2570  141.7960 C   0  0  0  0  0  0  0  0  0  0  0  0
  185.8840  178.8130  137.5840 C   0  0  0  0  0  3  0  0  0  0  0  0
  187.8350  179.3200  136.1900 C   0  0  0  0  0  2  0  0  0  0  0  0
  183.3660  177.0430  139.2920 N   0  0  0  0  0  0  0  0  0  0  0  0
  188.8200  176.9920  141.9830 C   0  0  1  0  0  3  0  0  0  0  0  0
  184.0690  178.1050  139.1190 C   0  0  0  0  0  0  0  0  0  0  0  0
  189.1300  178.6200  136.5970 C   0  0  2  0  0  3  0  0  0  0  0  0
  184.9570  177.9490  137.9830 C   0  0  0  0  0  0  0  0  0  0  0  0
  189.3660  177.0630  138.4540 C   0  0  2  0  0  3  0  0  0  0  0  0
  189.1750  177.2020  136.0770 C   0  0  0  0  0  2  0  0  0  0  0  0
  189.6330  176.6890  140.7710 C   0  0  0  0  0  2  0  0  0  0  0  0
  182.9040  176.9990  135.8930 C   0  0  0  0  0  0  0  0  0  0  0  0
  181.1790  178.6420  136.2560 C   0  0  0  0  0  1  0  0  0  0  0  0
  184.1430  176.6590  136.0660 C   0  0  0  0  0  3  0  0  0  0  0  0
  181.6470  177.3280  135.7410 C   0  0  0  0  0  0  0  0  0  0  0  0
  179.5990  176.7160  134.7130 O   0  0  0  0  0  0  0  0  0  0  0  0
  180.6750  176.3370  135.2570 C   0  0  0  0  0  0  0  0  0  0  0  0
  180.9380  174.9650  135.4110 O   0  0  0  0  0  0  0  0  0  0  0  0
  181.2090  174.3810  136.6810 C   0  0  1  0  0  3  0  0  0  0  0  0
  180.1930  175.2630  138.7860 C   0  0  0  0  0  1  0  0  0  0  0  0
  179.4860  173.0390  137.9390 C   0  0  0  0  0  1  0  0  0  0  0  0
  179.9580  174.4230  137.5520 C   0  0  0  0  0  3  0  0  0  0  0  0
  183.2330  172.9600  136.8880 C   0  0  0  0  0  2  0  0  0  0  0  0
  182.8220  172.9640  135.4330 C   0  0  0  0  0  2  0  0  0  0  0  0
  181.7600  172.9710  136.5030 C   0  0  0  0  0  3  0  0  0  0  0  0
  190.3710  177.0540  143.9510 C   0  0  0  0  0  0  0  0  0  0  0  0
  189.6100  177.7260  142.9530 N   0  0  0  0  0  2  0  0  0  0  0  0
  190.4510  175.7910  143.9460 O   0  0  0  0  0  0  0  0  0  0  0  0
  190.9700  177.8320  145.0860 C   0  0  2  0  0  3  0  0  0  0  0  0
  190.3710  176.5720  147.1520 C   0  0  0  0  0  0  0  0  0  0  0  0
  190.1420  177.6900  146.2840 N   0  0  0  0  0  0  0  0  0  0  0  0
  189.3960  176.0010  147.7230 O   0  0  0  0  0  0  0  0  0  0  0  0
  192.0560  175.9900  147.4760 S   0  0  0  0  0  1  0  0  0  0  0  0
  188.9230  178.4740  146.4100 C   0  0  0  0  0  2  0  0  0  0  0  0
  187.7610  177.7710  145.7270 C   0  0  0  0  0  2  0  0  0  0  0  0
  185.4070  178.5140  145.5770 C   0  0  0  0  0  1  0  0  0  0  0  0
  186.4760  177.9940  146.5140 C   0  0  0  0  0  2  0  0  0  0  0  0
  192.5240  179.5660  144.5850 O   0  0  0  0  0  0  0  0  0  0  0  0
  191.1770  179.3020  144.7120 C   0  0  0  0  0  3  0  0  0  0  0  0
  191.7880  179.3800  143.4830 O   0  0  0  0  0  0  0  0  0  0  0  0
  1 16  1  0  0  0  0
  1  9  1  1  0  0  0
  2 12  2  0  0  0  0
  3 25  1  6  0  0  0
  3 19  1  0  0  0  0
  3  6  1  0  0  0  0
  5  7  1  0  0  0  0
  5 22  1  1  0  0  0
  6 15  1  0  0  0  0
  7  1  1  0  0  0  0
  8  2  1  0  0  0  0
 10 20  1  0  0  0  0
 11 13  1  0  0  0  0
 12  9  2  0  0  0  0
 13 19  2  0  0  0  0
 14 11  1  0  0  0  0
 14 18  1  0  0  0  0
 16 38  1  1  0  0  0
 17 15  2  0  0  0  0
 17  8  1  0  0  0  0
 18 21  1  6  0  0  0
 18 10  1  0  0  0  0
 19 17  1  0  0  0  0
 20  4  1  6  0  0  0
 20  5  1  0  0  0  0
 21  4  1  0  0  0  0
 22 16  1  0  0  0  0
 23 25  2  0  0  0  0
 26 23  2  0  0  0  0
 26 24  1  0  0  0  0
 27 28  2  0  0  0  0
 28 29  1  0  0  0  0
 28 26  1  0  0  0  0
 30 29  1  6  0  0  0
 30 33  1  0  0  0  0
 33 32  1  0  0  0  0
 33 31  1  0  0  0  0
 35 36  1  0  0  0  0
 35 34  1  0  0  0  0
 36 30  1  0  0  0  0
 36 34  1  0  0  0  0
 38 37  1  0  0  0  0
 39 37  2  0  0  0  0
 40 37  1  6  0  0  0
 40 42  1  0  0  0  0
 41 44  1  0  0  0  0
 41 43  2  0  0  0  0
 42 45  1  0  0  0  0
 42 41  1  0  0  0  0
 46 45  1  0  0  0  0
 46 48  1  0  0  0  0
 47 48  1  0  0  0  0
 49 50  1  0  0  0  0
 50 40  1  0  0  0  0
 51 49  1  0  0  0  0
 51 50  1  0  0  0  0
M  END
>  <MODEL>
1

>  <REMARK>
 VINA RESULT:      -5.5      0.000      0.000
  Name = 
  13 active torsions:
  status: ('A' for Active; 'I' for Inactive)
    1  A    between atoms: O_2  and  C_40
    2  A    between atoms: O_2  and  C_48
    3  A    between atoms: C_3  and  N_16
    4  A    between atoms: C_3  and  C_38
    5  A    between atoms: C_7  and  C_33
    6  A    between atoms: C_11  and  C_37
    7  A    between atoms: N_16  and  C_37
    8  A    between atoms: N_22  and  C_34
    9  A    between atoms: C_31  and  C_37
   10  A    between atoms: C_35  and  C_40
   11  A    between atoms: C_38  and  C_47
   12  A    between atoms: C_40  and  C_41
   13  A    between atoms: C_44  and  C_48
                            x       y       z     vdW  Elec       q    Type
                         _______ _______ _______ _____ _____    ______ ____

>  <TORSDO>
F 13

$$$$
=
 OpenBabel11032420483D

 51 56  0  0  1  0  0  0  0  0999 V2000
  187.0570  177.6090  138.8020 C   0  0  1  0  0  3  0  0  0  0  0  0
  189.0230  177.1970  141.8050 C   0  0  0  0  0  3  0  0  0  0  0  0
  192.1810  177.0410  138.3980 C   0  0  2  0  0  3  0  0  0  0  0  0
  189.6210  176.6650  135.1300 C   0  0  0  0  0  2  0  0  0  0  0  0
  187.9990  177.6470  136.6800 N   0  0  1  0  0  0  0  0  0  0  0  0
  192.3890  178.0220  139.4110 O   0  0  0  0  0  0  0  0  0  0  0  0
  188.2030  177.1820  138.0010 N   0  0  0  0  0  2  0  0  0  0  0  0
  190.0330  176.1620  141.4150 C   0  0  0  0  0  2  0  0  0  0  0  0
  187.5070  178.3480  140.0160 C   0  0  0  0  0  3  0  0  0  0  0  0
  188.0780  175.1550  136.2190 C   0  0  0  0  0  2  0  0  0  0  0  0
  190.8860  174.6690  137.2570 O   0  0  0  0  0  0  0  0  0  0  0  0
  188.2580  177.7720  140.9110 C   0  0  0  0  0  0  0  0  0  0  0  0
  190.6030  175.0780  138.5540 C   0  0  0  0  0  3  0  0  0  0  0  0
  190.0940  173.6900  136.6000 C   0  0  0  0  0  2  0  0  0  0  0  0
  191.6700  177.7710  140.5540 N   0  0  0  0  0  0  0  0  0  0  0  0
  186.2320  178.5120  137.9330 C   0  0  1  0  0  3  0  0  0  0  0  0
  190.9890  176.6920  140.3970 C   0  0  0  0  0  0  0  0  0  0  0  0
  189.1740  174.3320  135.5620 C   0  0  2  0  0  3  0  0  0  0  0  0
  191.2180  176.1320  139.0790 C   0  0  0  0  0  0  0  0  0  0  0  0
  188.2420  176.5760  135.7030 C   0  0  2  0  0  3  0  0  0  0  0  0
  189.9390  175.2650  134.6520 C   0  0  0  0  0  2  0  0  0  0  0  0
  186.6090  178.0470  136.5680 C   0  0  0  0  0  2  0  0  0  0  0  0
  193.7290  175.9400  136.9190 C   0  0  0  0  0  0  0  0  0  0  0  0
  193.9960  176.5140  134.5940 C   0  0  0  0  0  1  0  0  0  0  0  0
  193.4620  176.3470  138.1210 C   0  0  0  0  0  3  0  0  0  0  0  0
  193.9730  175.5240  135.7030 C   0  0  0  0  0  0  0  0  0  0  0  0
  193.1940  173.5780  134.5940 O   0  0  0  0  0  0  0  0  0  0  0  0
  194.0170  174.0850  135.4080 C   0  0  0  0  0  0  0  0  0  0  0  0
  194.9690  173.2690  136.0420 O   0  0  0  0  0  0  0  0  0  0  0  0
  196.3460  173.2870  135.6790 C   0  0  1  0  0  3  0  0  0  0  0  0
  197.9160  175.1680  135.1980 C   0  0  0  0  0  1  0  0  0  0  0  0
  197.7930  174.2530  137.5020 C   0  0  0  0  0  1  0  0  0  0  0  0
  197.0180  174.5380  136.2350 C   0  0  0  0  0  3  0  0  0  0  0  0
  197.6200  171.2960  134.9200 C   0  0  0  0  0  2  0  0  0  0  0  0
  196.3250  170.8080  135.5290 C   0  0  0  0  0  2  0  0  0  0  0  0
  197.0250  171.9990  136.1320 C   0  0  0  0  0  3  0  0  0  0  0  0
  184.0020  179.2870  138.7730 C   0  0  0  0  0  0  0  0  0  0  0  0
  184.8200  178.2870  138.1740 N   0  0  0  0  0  2  0  0  0  0  0  0
  184.4740  180.4350  139.0150 O   0  0  0  0  0  0  0  0  0  0  0  0
  182.6170  178.9400  139.2370 C   0  0  2  0  0  3  0  0  0  0  0  0
  181.6110  178.9440  141.5190 C   0  0  0  0  0  0  0  0  0  0  0  0
  182.6510  178.5050  140.6340 N   0  0  0  0  0  0  0  0  0  0  0  0
  181.8790  179.2210  142.7250 O   0  0  0  0  0  0  0  0  0  0  0  0
  179.9000  179.0680  140.9370 S   0  0  0  0  0  1  0  0  0  0  0  0
  183.8690  177.9180  141.1730 C   0  0  0  0  0  2  0  0  0  0  0  0
  184.5240  178.8640  142.1650 C   0  0  0  0  0  2  0  0  0  0  0  0
  185.2590  179.0520  144.5200 C   0  0  0  0  0  1  0  0  0  0  0  0
  185.0280  178.0870  143.3760 C   0  0  0  0  0  2  0  0  0  0  0  0
  180.8340  178.4150  137.7480 O   0  0  0  0  0  0  0  0  0  0  0  0
  181.9670  177.8900  138.3330 C   0  0  0  0  0  3  0  0  0  0  0  0
  181.9640  178.3430  137.0350 O   0  0  0  0  0  0  0  0  0  0  0  0
  1  9  1  1  0  0  0
  3 25  1  1  0  0  0
  3 19  1  0  0  0  0
  3  6  1  0  0  0  0
  5 22  1  1  0  0  0
  5  7  1  0  0  0  0
  6 15  1  0  0  0  0
  7  1  1  0  0  0  0
  8  2  1  0  0  0  0
  9 12  2  0  0  0  0
 11 13  1  0  0  0  0
 12  2  2  0  0  0  0
 13 19  2  0  0  0  0
 14 11  1  0  0  0  0
 16 38  1  1  0  0  0
 16  1  1  0  0  0  0
 17 15  2  0  0  0  0
 17  8  1  0  0  0  0
 18 21  1  6  0  0  0
 18 10  1  0  0  0  0
 18 14  1  0  0  0  0
 19 17  1  0  0  0  0
 20  4  1  1  0  0  0
 20 10  1  0  0  0  0
 20  5  1  0  0  0  0
 21  4  1  0  0  0  0
 22 16  1  0  0  0  0
 23 25  2  0  0  0  0
 24 26  1  0  0  0  0
 26 23  2  0  0  0  0
 27 28  2  0  0  0  0
 28 26  1  0  0  0  0
 28 29  1  0  0  0  0
 30 29  1  1  0  0  0
 30 36  1  0  0  0  0
 30 33  1  0  0  0  0
 31 33  1  0  0  0  0
 33 32  1  0  0  0  0
 34 35  1  0  0  0  0
 34 36  1  0  0  0  0
 35 36  1  0  0  0  0
 37 39  2  0  0  0  0
 38 37  1  0  0  0  0
 40 37  1  6  0  0  0
 40 42  1  0  0  0  0
 41 43  2  0  0  0  0
 42 45  1  0  0  0  0
 42 41  1  0  0  0  0
 44 41  1  0  0  0  0
 45 46  1  0  0  0  0
 46 48  1  0  0  0  0
 48 47  1  0  0  0  0
 49 50  1  0  0  0  0
 50 40  1  0  0  0  0
 51 49  1  0  0  0  0
 51 50  1  0  0  0  0
M  END
>  <MODEL>
2

>  <REMARK>
 VINA RESULT:      -5.0      5.050      9.815
  Name = 
  13 active torsions:
  status: ('A' for Active; 'I' for Inactive)
    1  A    between atoms: O_2  and  C_40
    2  A    between atoms: O_2  and  C_48
    3  A    between atoms: C_3  and  N_16
    4  A    between atoms: C_3  and  C_38
    5  A    between atoms: C_7  and  C_33
    6  A    between atoms: C_11  and  C_37
    7  A    between atoms: N_16  and  C_37
    8  A    between atoms: N_22  and  C_34
    9  A    between atoms: C_31  and  C_37
   10  A    between atoms: C_35  and  C_40
   11  A    between atoms: C_38  and  C_47
   12  A    between atoms: C_40  and  C_41
   13  A    between atoms: C_44  and  C_48
                            x       y       z     vdW  Elec       q    Type
                         _______ _______ _______ _____ _____    ______ ____

>  <TORSDO>
F 13

$$$$
=
 OpenBabel11032420483D

 51 56  0  0  1  0  0  0  0  0999 V2000
  187.0710  177.5840  138.8320 C   0  0  1  0  0  3  0  0  0  0  0  0
  189.0220  177.2470  141.8530 C   0  0  0  0  0  3  0  0  0  0  0  0
  192.2040  177.0700  138.4700 C   0  0  2  0  0  3  0  0  0  0  0  0
  189.6710  176.6080  135.1930 C   0  0  0  0  0  2  0  0  0  0  0  0
  188.0270  177.5970  136.7150 N   0  0  1  0  0  0  0  0  0  0  0  0
  192.3940  178.0710  139.4680 O   0  0  0  0  0  0  0  0  0  0  0  0
  188.2280  177.1560  138.0450 N   0  0  0  0  0  2  0  0  0  0  0  0
  190.0470  176.2180  141.4880 C   0  0  0  0  0  2  0  0  0  0  0  0
  187.5040  178.3490  140.0350 C   0  0  0  0  0  3  0  0  0  0  0  0
  188.1380  175.0980  136.2980 C   0  0  0  0  0  2  0  0  0  0  0  0
  190.9450  174.6640  137.3620 O   0  0  0  0  0  0  0  0  0  0  0  0
  188.2560  177.7970  140.9450 C   0  0  0  0  0  0  0  0  0  0  0  0
  190.6490  175.0920  138.6490 C   0  0  0  0  0  3  0  0  0  0  0  0
  190.1690  173.6640  136.7170 C   0  0  0  0  0  2  0  0  0  0  0  0
  191.6700  177.8320  140.6100 N   0  0  0  0  0  0  0  0  0  0  0  0
  186.2410  178.4620  137.9410 C   0  0  1  0  0  3  0  0  0  0  0  0
  191.0030  176.7410  140.4680 C   0  0  0  0  0  0  0  0  0  0  0  0
  189.2490  174.2770  135.6620 C   0  0  2  0  0  3  0  0  0  0  0  0
  191.2470  176.1610  139.1600 C   0  0  0  0  0  0  0  0  0  0  0  0
  188.2890  176.5120  135.7590 C   0  0  2  0  0  3  0  0  0  0  0  0
  190.0080  175.2030  134.7410 C   0  0  0  0  0  2  0  0  0  0  0  0
  186.6330  177.9780  136.5870 C   0  0  0  0  0  2  0  0  0  0  0  0
  193.7310  175.8690  137.0490 C   0  0  0  0  0  0  0  0  0  0  0  0
  193.8960  176.2130  134.6690 C   0  0  0  0  0  1  0  0  0  0  0  0
  193.4960  176.3870  138.2130 C   0  0  0  0  0  3  0  0  0  0  0  0
  193.9430  175.3400  135.8710 C   0  0  0  0  0  0  0  0  0  0  0  0
  193.7820  173.3440  134.5990 O   0  0  0  0  0  0  0  0  0  0  0  0
  194.0210  173.8800  135.7190 C   0  0  0  0  0  0  0  0  0  0  0  0
  194.3520  173.0770  136.8240 O   0  0  0  0  0  0  0  0  0  0  0  0
  195.5960  172.3910  136.9180 C   0  0  1  0  0  3  0  0  0  0  0  0
  195.8150  173.7360  139.0110 C   0  0  0  0  0  1  0  0  0  0  0  0
  197.2860  174.2520  137.0790 C   0  0  0  0  0  1  0  0  0  0  0  0
  196.5510  173.1610  137.8240 C   0  0  0  0  0  3  0  0  0  0  0  0
  195.8640  170.0010  136.3040 C   0  0  0  0  0  2  0  0  0  0  0  0
  194.3860  170.2690  136.4670 C   0  0  0  0  0  2  0  0  0  0  0  0
  195.3690  170.9560  137.3810 C   0  0  0  0  0  3  0  0  0  0  0  0
  184.0620  179.0880  139.0080 C   0  0  0  0  0  0  0  0  0  0  0  0
  184.8300  178.2240  138.1770 N   0  0  0  0  0  2  0  0  0  0  0  0
  184.5770  180.1440  139.4770 O   0  0  0  0  0  0  0  0  0  0  0  0
  182.6810  178.6830  139.4340 C   0  0  2  0  0  3  0  0  0  0  0  0
  180.9940  177.9140  137.7660 C   0  0  0  0  0  0  0  0  0  0  0  0
  181.7180  178.9910  138.3760 N   0  0  0  0  0  0  0  0  0  0  0  0
  180.7320  177.9470  136.5280 O   0  0  0  0  0  0  0  0  0  0  0  0
  180.4110  176.5180  138.7620 S   0  0  0  0  0  1  0  0  0  0  0  0
  181.7380  180.3050  137.7490 C   0  0  0  0  0  2  0  0  0  0  0  0
  180.8200  181.2650  138.4880 C   0  0  0  0  0  2  0  0  0  0  0  0
  180.0420  182.7590  136.6770 C   0  0  0  0  0  1  0  0  0  0  0  0
  180.9370  182.6630  137.8940 C   0  0  0  0  0  2  0  0  0  0  0  0
  181.5710  178.4390  141.5280 O   0  0  0  0  0  0  0  0  0  0  0  0
  182.2890  179.3340  140.7630 C   0  0  0  0  0  3  0  0  0  0  0  0
  182.8660  178.6400  141.8000 O   0  0  0  0  0  0  0  0  0  0  0  0
  1  9  1  1  0  0  0
  3 25  1  1  0  0  0
  3 19  1  0  0  0  0
  3  6  1  0  0  0  0
  5 22  1  1  0  0  0
  5  7  1  0  0  0  0
  6 15  1  0  0  0  0
  7  1  1  0  0  0  0
  8  2  1  0  0  0  0
  9 12  2  0  0  0  0
 11 13  1  0  0  0  0
 12  2  2  0  0  0  0
 13 19  2  0  0  0  0
 14 11  1  0  0  0  0
 16 38  1  1  0  0  0
 16  1  1  0  0  0  0
 17 15  2  0  0  0  0
 17  8  1  0  0  0  0
 18 21  1  6  0  0  0
 18 10  1  0  0  0  0
 18 14  1  0  0  0  0
 19 17  1  0  0  0  0
 20  4  1  1  0  0  0
 20 10  1  0  0  0  0
 20  5  1  0  0  0  0
 21  4  1  0  0  0  0
 22 16  1  0  0  0  0
 23 25  2  0  0  0  0
 24 26  1  0  0  0  0
 26 23  2  0  0  0  0
 27 28  2  0  0  0  0
 28 26  1  0  0  0  0
 28 29  1  0  0  0  0
 30 29  1  1  0  0  0
 30 36  1  0  0  0  0
 30 33  1  0  0  0  0
 32 33  1  0  0  0  0
 33 31  1  0  0  0  0
 34 35  1  0  0  0  0
 34 36  1  0  0  0  0
 35 36  1  0  0  0  0
 37 39  2  0  0  0  0
 38 37  1  0  0  0  0
 40 37  1  6  0  0  0
 40 50  1  0  0  0  0
 41 42  1  0  0  0  0
 41 44  1  0  0  0  0
 42 40  1  0  0  0  0
 43 41  2  0  0  0  0
 45 42  1  0  0  0  0
 45 46  1  0  0  0  0
 47 48  1  0  0  0  0
 48 46  1  0  0  0  0
 49 51  1  0  0  0  0
 50 49  1  0  0  0  0
 50 51  1  0  0  0  0
M  END
>  <MODEL>
3

>  <REMARK>
 VINA RESULT:      -4.9      4.937     10.029
  Name = 
  13 active torsions:
  status: ('A' for Active; 'I' for Inactive)
    1  A    between atoms: O_2  and  C_40
    2  A    between atoms: O_2  and  C_48
    3  A    between atoms: C_3  and  N_16
    4  A    between atoms: C_3  and  C_38
    5  A    between atoms: C_7  and  C_33
    6  A    between atoms: C_11  and  C_37
    7  A    between atoms: N_16  and  C_37
    8  A    between atoms: N_22  and  C_34
    9  A    between atoms: C_31  and  C_37
   10  A    between atoms: C_35  and  C_40
   11  A    between atoms: C_38  and  C_47
   12  A    between atoms: C_40  and  C_41
   13  A    between atoms: C_44  and  C_48
                            x       y       z     vdW  Elec       q    Type
                         _______ _______ _______ _____ _____    ______ ____

>  <TORSDO>
F 13

$$$$
=
 OpenBabel11032420483D

 51 56  0  0  1  0  0  0  0  0999 V2000
  188.7470  175.1790  136.6610 C   0  0  1  0  0  3  0  0  0  0  0  0
  188.1740  178.7340  136.9530 C   0  0  0  0  0  3  0  0  0  0  0  0
  184.1750  176.8580  138.3990 C   0  0  2  0  0  3  0  0  0  0  0  0
  184.7920  172.9280  137.1580 C   0  0  0  0  0  2  0  0  0  0  0  0
  187.1470  173.5980  137.2380 N   0  0  1  0  0  0  0  0  0  0  0  0
  184.8250  177.7450  139.3070 O   0  0  0  0  0  0  0  0  0  0  0  0
  187.3130  174.9410  136.8250 N   0  0  0  0  0  2  0  0  0  0  0  0
  186.7610  178.8940  136.4870 C   0  0  0  0  0  2  0  0  0  0  0  0
  189.1780  176.3720  137.4430 C   0  0  0  0  0  3  0  0  0  0  0  0
  185.8480  173.5120  135.0610 C   0  0  0  0  0  2  0  0  0  0  0  0
  183.7730  175.6050  135.7790 O   0  0  0  0  0  0  0  0  0  0  0  0
  188.6810  177.5510  137.1950 C   0  0  0  0  0  0  0  0  0  0  0  0
  184.6950  176.6310  135.9410 C   0  0  0  0  0  3  0  0  0  0  0  0
  183.7430  174.8170  134.5960 C   0  0  0  0  0  2  0  0  0  0  0  0
  185.7620  178.5430  138.6980 N   0  0  0  0  0  0  0  0  0  0  0  0
  189.4510  173.9550  137.1690 C   0  0  1  0  0  3  0  0  0  0  0  0
  185.7980  178.2690  137.4420 C   0  0  0  0  0  0  0  0  0  0  0  0
  184.3460  173.4350  134.8390 C   0  0  2  0  0  3  0  0  0  0  0  0
  184.8480  177.2200  137.1210 C   0  0  0  0  0  0  0  0  0  0  0  0
  186.1070  172.9300  136.4430 C   0  0  2  0  0  3  0  0  0  0  0  0
  183.7530  172.7840  136.0670 C   0  0  0  0  0  2  0  0  0  0  0  0
  188.4020  172.9100  137.0010 C   0  0  0  0  0  2  0  0  0  0  0  0
  182.3180  178.3540  138.7270 C   0  0  0  0  0  0  0  0  0  0  0  0
  182.4590  180.7440  138.4480 C   0  0  0  0  0  1  0  0  0  0  0  0
  182.7290  177.1850  138.3500 C   0  0  0  0  0  3  0  0  0  0  0  0
  181.9220  179.5350  139.1280 C   0  0  0  0  0  0  0  0  0  0  0  0
  180.3340  180.6490  140.4920 O   0  0  0  0  0  0  0  0  0  0  0  0
  181.1250  179.6720  140.3550 C   0  0  0  0  0  0  0  0  0  0  0  0
  181.2500  178.7220  141.3820 O   0  0  0  0  0  0  0  0  0  0  0  0
  181.6920  179.0710  142.6890 C   0  0  1  0  0  3  0  0  0  0  0  0
  179.9310  177.4790  143.4640 C   0  0  0  0  0  1  0  0  0  0  0  0
  179.5380  179.9200  143.6840 C   0  0  0  0  0  1  0  0  0  0  0  0
  180.5780  178.8230  143.7010 C   0  0  0  0  0  3  0  0  0  0  0  0
  183.7690  179.1260  144.0470 C   0  0  0  0  0  2  0  0  0  0  0  0
  184.1730  179.1270  142.5900 C   0  0  0  0  0  2  0  0  0  0  0  0
  182.9760  178.3210  143.0260 C   0  0  0  0  0  3  0  0  0  0  0  0
  191.9230  173.9780  136.7610 C   0  0  0  0  0  0  0  0  0  0  0  0
  190.6020  173.6580  136.3390 N   0  0  0  0  0  2  0  0  0  0  0  0
  192.1260  174.4420  137.9200 O   0  0  0  0  0  0  0  0  0  0  0  0
  193.0610  173.8920  135.7860 C   0  0  2  0  0  3  0  0  0  0  0  0
  194.3810  172.1410  136.9740 C   0  0  0  0  0  0  0  0  0  0  0  0
  194.2840  173.4830  136.4780 N   0  0  0  0  0  0  0  0  0  0  0  0
  194.9680  171.9100  138.0710 O   0  0  0  0  0  0  0  0  0  0  0  0
  193.7030  170.7580  136.0190 S   0  0  0  0  0  1  0  0  0  0  0  0
  195.2260  174.4970  136.9290 C   0  0  0  0  0  2  0  0  0  0  0  0
  196.4210  174.5710  135.9930 C   0  0  0  0  0  2  0  0  0  0  0  0
  197.7980  173.9150  137.9410 C   0  0  0  0  0  1  0  0  0  0  0  0
  197.6870  174.8840  136.7820 C   0  0  0  0  0  2  0  0  0  0  0  0
  192.0320  175.6790  134.5940 O   0  0  0  0  0  0  0  0  0  0  0  0
  193.2530  175.2080  135.0280 C   0  0  0  0  0  3  0  0  0  0  0  0
  192.5900  176.2150  135.6860 O   0  0  0  0  0  0  0  0  0  0  0  0
  1  7  1  0  0  0  0
  1 16  1  0  0  0  0
  1  9  1  1  0  0  0
  2 12  2  0  0  0  0
  3 25  1  6  0  0  0
  3  6  1  0  0  0  0
  5 22  1  6  0  0  0
  7  5  1  0  0  0  0
  8  2  1  0  0  0  0
  8 17  1  0  0  0  0
 11 13  1  0  0  0  0
 12  9  2  0  0  0  0
 13 19  2  0  0  0  0
 14 11  1  0  0  0  0
 15  6  1  0  0  0  0
 16 38  1  6  0  0  0
 17 15  2  0  0  0  0
 18 14  1  1  0  0  0
 18 10  1  0  0  0  0
 18 21  1  0  0  0  0
 19 17  1  0  0  0  0
 19  3  1  0  0  0  0
 20 10  1  6  0  0  0
 20  4  1  0  0  0  0
 20  5  1  0  0  0  0
 21  4  1  0  0  0  0
 22 16  1  0  0  0  0
 23 26  2  0  0  0  0
 24 26  1  0  0  0  0
 25 23  2  0  0  0  0
 26 28  1  0  0  0  0
 28 27  2  0  0  0  0
 28 29  1  0  0  0  0
 30 29  1  6  0  0  0
 30 36  1  0  0  0  0
 30 33  1  0  0  0  0
 31 33  1  0  0  0  0
 32 33  1  0  0  0  0
 35 36  1  0  0  0  0
 35 34  1  0  0  0  0
 36 34  1  0  0  0  0
 37 39  2  0  0  0  0
 38 37  1  0  0  0  0
 40 42  1  0  0  0  0
 40 37  1  1  0  0  0
 41 43  2  0  0  0  0
 42 45  1  0  0  0  0
 42 41  1  0  0  0  0
 44 41  1  0  0  0  0
 46 48  1  0  0  0  0
 46 45  1  0  0  0  0
 48 47  1  0  0  0  0
 49 50  1  0  0  0  0
 49 51  1  0  0  0  0
 50 51  1  0  0  0  0
 50 40  1  0  0  0  0
M  END
>  <MODEL>
4

>  <REMARK>
 VINA RESULT:      -4.8      4.605      7.841
  Name = 
  13 active torsions:
  status: ('A' for Active; 'I' for Inactive)
    1  A    between atoms: O_2  and  C_40
    2  A    between atoms: O_2  and  C_48
    3  A    between atoms: C_3  and  N_16
    4  A    between atoms: C_3  and  C_38
    5  A    between atoms: C_7  and  C_33
    6  A    between atoms: C_11  and  C_37
    7  A    between atoms: N_16  and  C_37
    8  A    between atoms: N_22  and  C_34
    9  A    between atoms: C_31  and  C_37
   10  A    between atoms: C_35  and  C_40
   11  A    between atoms: C_38  and  C_47
   12  A    between atoms: C_40  and  C_41
   13  A    between atoms: C_44  and  C_48
                            x       y       z     vdW  Elec       q    Type
                         _______ _______ _______ _____ _____    ______ ____

>  <TORSDO>
F 13

$$$$
=
 OpenBabel11032420483D

 51 56  0  0  1  0  0  0  0  0999 V2000
  186.9530  178.2110  140.7160 C   0  0  1  0  0  3  0  0  0  0  0  0
  189.0660  176.4820  138.3510 C   0  0  0  0  0  3  0  0  0  0  0  0
  185.3600  177.6960  135.8220 C   0  0  2  0  0  3  0  0  0  0  0  0
  182.7980  178.8480  138.9020 C   0  0  0  0  0  2  0  0  0  0  0  0
  184.8990  179.1250  140.1300 N   0  0  1  0  0  0  0  0  0  0  0  0
  186.6280  178.1390  135.3430 O   0  0  0  0  0  0  0  0  0  0  0  0
  185.8400  178.1300  139.7700 N   0  0  0  0  0  2  0  0  0  0  0  0
  188.0940  175.6810  137.5420 C   0  0  0  0  0  2  0  0  0  0  0  0
  188.2510  178.3420  139.9940 C   0  0  0  0  0  3  0  0  0  0  0  0
  183.4390  177.0700  140.4120 C   0  0  0  0  0  2  0  0  0  0  0  0
  183.6140  176.0900  137.5460 O   0  0  0  0  0  0  0  0  0  0  0  0
  188.6600  177.4110  139.1790 C   0  0  0  0  0  0  0  0  0  0  0  0
  184.9900  175.9120  137.5680 C   0  0  0  0  0  3  0  0  0  0  0  0
  182.7760  175.5160  138.5410 C   0  0  0  0  0  2  0  0  0  0  0  0
  187.6790  177.4470  135.8930 N   0  0  0  0  0  0  0  0  0  0  0  0
  186.7160  179.4280  141.5620 C   0  0  1  0  0  3  0  0  0  0  0  0
  187.2240  176.5630  136.7080 C   0  0  0  0  0  0  0  0  0  0  0  0
  182.3000  176.5720  139.5370 C   0  0  2  0  0  3  0  0  0  0  0  0
  185.7750  176.6160  136.7610 C   0  0  0  0  0  0  0  0  0  0  0  0
  183.5390  178.5690  140.1710 C   0  0  2  0  0  3  0  0  0  0  0  0
  181.7300  177.7790  138.8270 C   0  0  0  0  0  2  0  0  0  0  0  0
  185.2360  179.5820  141.4650 C   0  0  0  0  0  2  0  0  0  0  0  0
  183.2820  177.1970  134.7160 C   0  0  0  0  0  0  0  0  0  0  0  0
  181.3080  178.5680  134.8950 C   0  0  0  0  0  1  0  0  0  0  0  0
  184.5770  177.1450  134.6900 C   0  0  0  0  0  3  0  0  0  0  0  0
  181.9750  177.2450  134.7680 C   0  0  0  0  0  0  0  0  0  0  0  0
  179.9990  176.0560  135.3180 O   0  0  0  0  0  0  0  0  0  0  0  0
  181.1940  176.0090  134.9070 C   0  0  0  0  0  0  0  0  0  0  0  0
  181.7800  174.7710  134.5940 O   0  0  0  0  0  0  0  0  0  0  0  0
  181.9150  173.7300  135.5560 C   0  0  1  0  0  3  0  0  0  0  0  0
  180.2410  173.0460  137.2790 C   0  0  0  0  0  1  0  0  0  0  0  0
  180.5010  171.6700  135.2280 C   0  0  0  0  0  1  0  0  0  0  0  0
  180.5640  173.0670  135.8030 C   0  0  0  0  0  3  0  0  0  0  0  0
  184.0920  172.7000  136.1570 C   0  0  0  0  0  2  0  0  0  0  0  0
  184.2870  173.4640  134.8670 C   0  0  0  0  0  2  0  0  0  0  0  0
  182.9860  172.7410  135.1110 C   0  0  0  0  0  3  0  0  0  0  0  0
  186.3000  178.3880  143.8030 C   0  0  0  0  0  0  0  0  0  0  0  0
  187.1110  179.1700  142.9330 N   0  0  0  0  0  2  0  0  0  0  0  0
  185.2610  177.8160  143.3630 O   0  0  0  0  0  0  0  0  0  0  0  0
  186.6040  178.3470  145.2730 C   0  0  2  0  0  3  0  0  0  0  0  0
  188.5800  177.7090  146.6530 C   0  0  0  0  0  0  0  0  0  0  0  0
  187.7310  177.4490  145.5270 N   0  0  0  0  0  0  0  0  0  0  0  0
  189.8260  177.4980  146.5710 O   0  0  0  0  0  0  0  0  0  0  0  0
  187.8790  178.3000  148.2150 S   0  0  0  0  0  1  0  0  0  0  0  0
  188.1600  176.5240  144.4880 C   0  0  0  0  0  2  0  0  0  0  0  0
  189.4000  177.0480  143.7830 C   0  0  0  0  0  2  0  0  0  0  0  0
  191.5430  175.8150  143.7090 C   0  0  0  0  0  1  0  0  0  0  0  0
  190.1510  175.9000  143.1200 C   0  0  0  0  0  2  0  0  0  0  0  0
  185.0530  178.9640  146.9710 O   0  0  0  0  0  0  0  0  0  0  0  0
  185.3710  177.9530  146.0900 C   0  0  0  0  0  3  0  0  0  0  0  0
  184.3530  178.8400  145.8380 O   0  0  0  0  0  0  0  0  0  0  0  0
  1  9  1  6  0  0  0
  1 16  1  0  0  0  0
  2 12  2  0  0  0  0
  3 25  1  6  0  0  0
  3 19  1  0  0  0  0
  5 20  1  0  0  0  0
  5 22  1  1  0  0  0
  6  3  1  0  0  0  0
  6 15  1  0  0  0  0
  7  5  1  0  0  0  0
  7  1  1  0  0  0  0
  8  2  1  0  0  0  0
 11 13  1  0  0  0  0
 11 14  1  0  0  0  0
 12  9  2  0  0  0  0
 15 17  2  0  0  0  0
 16 38  1  1  0  0  0
 17 19  1  0  0  0  0
 17  8  1  0  0  0  0
 18 14  1  6  0  0  0
 18 10  1  0  0  0  0
 19 13  2  0  0  0  0
 20  4  1  6  0  0  0
 20 10  1  0  0  0  0
 21  4  1  0  0  0  0
 21 18  1  0  0  0  0
 22 16  1  0  0  0  0
 23 26  2  0  0  0  0
 25 23  2  0  0  0  0
 26 24  1  0  0  0  0
 26 28  1  0  0  0  0
 28 27  2  0  0  0  0
 29 28  1  0  0  0  0
 30 29  1  6  0  0  0
 30 33  1  0  0  0  0
 32 33  1  0  0  0  0
 33 31  1  0  0  0  0
 35 36  1  0  0  0  0
 35 34  1  0  0  0  0
 36 30  1  0  0  0  0
 36 34  1  0  0  0  0
 38 37  1  0  0  0  0
 39 37  2  0  0  0  0
 40 37  1  6  0  0  0
 40 42  1  0  0  0  0
 40 50  1  0  0  0  0
 41 44  1  0  0  0  0
 42 41  1  0  0  0  0
 43 41  2  0  0  0  0
 45 42  1  0  0  0  0
 46 45  1  0  0  0  0
 48 47  1  0  0  0  0
 48 46  1  0  0  0  0
 50 49  1  0  0  0  0
 51 50  1  0  0  0  0
 51 49  1  0  0  0  0
M  END
>  <MODEL>
5

>  <REMARK>
 VINA RESULT:      -4.6      2.205      4.373
  Name = 
  13 active torsions:
  status: ('A' for Active; 'I' for Inactive)
    1  A    between atoms: O_2  and  C_40
    2  A    between atoms: O_2  and  C_48
    3  A    between atoms: C_3  and  N_16
    4  A    between atoms: C_3  and  C_38
    5  A    between atoms: C_7  and  C_33
    6  A    between atoms: C_11  and  C_37
    7  A    between atoms: N_16  and  C_37
    8  A    between atoms: N_22  and  C_34
    9  A    between atoms: C_31  and  C_37
   10  A    between atoms: C_35  and  C_40
   11  A    between atoms: C_38  and  C_47
   12  A    between atoms: C_40  and  C_41
   13  A    between atoms: C_44  and  C_48
                            x       y       z     vdW  Elec       q    Type
                         _______ _______ _______ _____ _____    ______ ____

>  <TORSDO>
F 13

$$$$
=
 OpenBabel11032420483D

 51 56  0  0  1  0  0  0  0  0999 V2000
  187.1320  177.4880  138.6470 C   0  0  1  0  0  3  0  0  0  0  0  0
  188.8600  177.1860  141.8050 C   0  0  0  0  0  3  0  0  0  0  0  0
  192.2920  177.1380  138.6710 C   0  0  2  0  0  3  0  0  0  0  0  0
  190.0280  176.6240  135.2090 C   0  0  0  0  0  2  0  0  0  0  0  0
  188.2430  177.5480  136.6090 N   0  0  1  0  0  0  0  0  0  0  0  0
  192.3740  178.1360  139.6860 O   0  0  0  0  0  0  0  0  0  0  0  0
  188.3580  177.1030  137.9470 N   0  0  0  0  0  2  0  0  0  0  0  0
  189.9420  176.1940  141.5120 C   0  0  0  0  0  2  0  0  0  0  0  0
  187.4490  178.2560  139.8850 C   0  0  0  0  0  3  0  0  0  0  0  0
  188.4650  175.0570  136.1860 C   0  0  0  0  0  2  0  0  0  0  0  0
  191.1970  174.7030  137.4570 O   0  0  0  0  0  0  0  0  0  0  0  0
  188.1480  177.7200  140.8450 C   0  0  0  0  0  0  0  0  0  0  0  0
  190.7910  175.1100  138.7200 C   0  0  0  0  0  3  0  0  0  0  0  0
  190.5040  173.6850  136.7480 C   0  0  0  0  0  2  0  0  0  0  0  0
  191.5740  177.8640  140.7690 N   0  0  0  0  0  0  0  0  0  0  0  0
  186.3440  178.3470  137.7020 C   0  0  1  0  0  3  0  0  0  0  0  0
  190.9550  176.7550  140.5700 C   0  0  0  0  0  0  0  0  0  0  0  0
  189.6460  174.2770  135.6310 C   0  0  2  0  0  3  0  0  0  0  0  0
  191.3150  176.1940  139.2810 C   0  0  0  0  0  0  0  0  0  0  0  0
  188.6110  176.4800  135.6690 C   0  0  2  0  0  3  0  0  0  0  0  0
  190.4430  175.2350  134.7760 C   0  0  0  0  0  2  0  0  0  0  0  0
  186.8520  177.8870  136.3780 C   0  0  0  0  0  2  0  0  0  0  0  0
  193.9600  176.0020  137.3600 C   0  0  0  0  0  0  0  0  0  0  0  0
  194.2960  176.3780  135.0030 C   0  0  0  0  0  1  0  0  0  0  0  0
  193.6200  176.4980  138.5080 C   0  0  0  0  0  3  0  0  0  0  0  0
  194.2780  175.4920  136.1980 C   0  0  0  0  0  0  0  0  0  0  0  0
  193.8520  173.4490  135.0710 O   0  0  0  0  0  0  0  0  0  0  0  0
  194.4140  174.0380  136.0390 C   0  0  0  0  0  0  0  0  0  0  0  0
  195.1610  173.2980  136.9710 O   0  0  0  0  0  0  0  0  0  0  0  0
  196.3750  172.6420  136.6210 C   0  0  1  0  0  3  0  0  0  0  0  0
  198.8020  172.6940  137.2080 C   0  0  0  0  0  1  0  0  0  0  0  0
  197.2900  174.4190  138.1550 C   0  0  0  0  0  1  0  0  0  0  0  0
  197.5670  173.5290  136.9650 C   0  0  0  0  0  3  0  0  0  0  0  0
  196.1240  170.1990  136.2590 C   0  0  0  0  0  2  0  0  0  0  0  0
  195.0840  170.6220  137.2710 C   0  0  0  0  0  2  0  0  0  0  0  0
  196.4440  171.2730  137.2900 C   0  0  0  0  0  3  0  0  0  0  0  0
  184.1030  178.7950  138.7300 C   0  0  0  0  0  0  0  0  0  0  0  0
  184.9280  178.0630  137.8300 N   0  0  0  0  0  2  0  0  0  0  0  0
  184.5750  179.7810  139.3670 O   0  0  0  0  0  0  0  0  0  0  0  0
  182.7100  178.3190  139.0240 C   0  0  2  0  0  3  0  0  0  0  0  0
  181.4740  180.4050  138.4430 C   0  0  0  0  0  0  0  0  0  0  0  0
  181.8710  179.4460  139.4330 N   0  0  0  0  0  0  0  0  0  0  0  0
  181.3940  181.6320  138.7440 O   0  0  0  0  0  0  0  0  0  0  0  0
  181.0420  179.8710  136.7670 S   0  0  0  0  0  1  0  0  0  0  0  0
  181.7210  179.7520  140.8480 C   0  0  0  0  0  2  0  0  0  0  0  0
  180.3030  179.4610  141.3110 C   0  0  0  0  0  2  0  0  0  0  0  0
  181.6500  179.0060  143.3340 C   0  0  0  0  0  1  0  0  0  0  0  0
  180.2620  179.3360  142.8290 C   0  0  0  0  0  2  0  0  0  0  0  0
  181.6870  176.3150  139.8050 O   0  0  0  0  0  0  0  0  0  0  0  0
  182.7080  177.2030  140.0720 C   0  0  0  0  0  3  0  0  0  0  0  0
  182.9390  175.9970  139.4550 O   0  0  0  0  0  0  0  0  0  0  0  0
  1  9  1  1  0  0  0
  3 25  1  1  0  0  0
  3 19  1  0  0  0  0
  3  6  1  0  0  0  0
  5 22  1  6  0  0  0
  5  7  1  0  0  0  0
  6 15  1  0  0  0  0
  7  1  1  0  0  0  0
  8  2  1  0  0  0  0
  9 12  2  0  0  0  0
 11 13  1  0  0  0  0
 12  2  2  0  0  0  0
 13 19  2  0  0  0  0
 14 11  1  0  0  0  0
 16 38  1  6  0  0  0
 16  1  1  0  0  0  0
 17 15  2  0  0  0  0
 17  8  1  0  0  0  0
 18 21  1  1  0  0  0
 18 10  1  0  0  0  0
 18 14  1  0  0  0  0
 19 17  1  0  0  0  0
 20  4  1  1  0  0  0
 20 10  1  0  0  0  0
 20  5  1  0  0  0  0
 21  4  1  0  0  0  0
 22 16  1  0  0  0  0
 23 25  2  0  0  0  0
 24 26  1  0  0  0  0
 26 23  2  0  0  0  0
 27 28  2  0  0  0  0
 28 26  1  0  0  0  0
 28 29  1  0  0  0  0
 30 33  1  1  0  0  0
 30 29  1  0  0  0  0
 30 36  1  0  0  0  0
 33 31  1  0  0  0  0
 33 32  1  0  0  0  0
 34 35  1  0  0  0  0
 34 36  1  0  0  0  0
 35 36  1  0  0  0  0
 37 39  2  0  0  0  0
 38 37  1  0  0  0  0
 40 37  1  1  0  0  0
 40 42  1  0  0  0  0
 40 50  1  0  0  0  0
 41 43  2  0  0  0  0
 41 42  1  0  0  0  0
 42 45  1  0  0  0  0
 44 41  1  0  0  0  0
 45 46  1  0  0  0  0
 46 48  1  0  0  0  0
 48 47  1  0  0  0  0
 49 50  1  0  0  0  0
 51 49  1  0  0  0  0
 51 50  1  0  0  0  0
M  END
>  <MODEL>
6

>  <REMARK>
 VINA RESULT:      -4.5      5.230     10.092
  Name = 
  13 active torsions:
  status: ('A' for Active; 'I' for Inactive)
    1  A    between atoms: O_2  and  C_40
    2  A    between atoms: O_2  and  C_48
    3  A    between atoms: C_3  and  N_16
    4  A    between atoms: C_3  and  C_38
    5  A    between atoms: C_7  and  C_33
    6  A    between atoms: C_11  and  C_37
    7  A    between atoms: N_16  and  C_37
    8  A    between atoms: N_22  and  C_34
    9  A    between atoms: C_31  and  C_37
   10  A    between atoms: C_35  and  C_40
   11  A    between atoms: C_38  and  C_47
   12  A    between atoms: C_40  and  C_41
   13  A    between atoms: C_44  and  C_48
                            x       y       z     vdW  Elec       q    Type
                         _______ _______ _______ _____ _____    ______ ____

>  <TORSDO>
F 13

$$$$
=
 OpenBabel11032420483D

 51 56  0  0  1  0  0  0  0  0999 V2000
  187.8350  177.7810  140.4010 C   0  0  1  0  0  3  0  0  0  0  0  0
  189.3330  175.7850  137.7890 C   0  0  0  0  0  3  0  0  0  0  0  0
  185.5650  177.5950  135.7570 C   0  0  2  0  0  3  0  0  0  0  0  0
  183.6300  179.0790  139.1380 C   0  0  0  0  0  2  0  0  0  0  0  0
  185.8890  179.0080  140.0830 N   0  0  1  0  0  0  0  0  0  0  0  0
  186.8130  177.8460  135.1160 O   0  0  0  0  0  0  0  0  0  0  0  0
  186.6100  177.8870  139.6070 N   0  0  0  0  0  2  0  0  0  0  0  0
  188.1530  175.1560  137.1160 C   0  0  0  0  0  2  0  0  0  0  0  0
  189.0330  177.7210  139.5160 C   0  0  0  0  0  3  0  0  0  0  0  0
  184.1770  177.1990  140.5600 C   0  0  0  0  0  2  0  0  0  0  0  0
  183.8270  176.2500  137.7000 O   0  0  0  0  0  0  0  0  0  0  0  0
  189.1850  176.7520  138.6590 C   0  0  0  0  0  0  0  0  0  0  0  0
  185.1510  175.8620  137.5440 C   0  0  0  0  0  3  0  0  0  0  0  0
  183.0470  175.7950  138.7970 C   0  0  0  0  0  2  0  0  0  0  0  0
  187.8070  176.9910  135.5270 N   0  0  0  0  0  0  0  0  0  0  0  0
  187.9000  179.0050  141.2650 C   0  0  1  0  0  3  0  0  0  0  0  0
  187.3290  176.1750  136.3980 C   0  0  0  0  0  0  0  0  0  0  0  0
  182.8720  176.8970  139.8420 C   0  0  2  0  0  3  0  0  0  0  0  0
  185.9250  176.4500  136.6380 C   0  0  0  0  0  0  0  0  0  0  0  0
  184.4760  178.6680  140.3030 C   0  0  2  0  0  3  0  0  0  0  0  0
  182.4090  178.1880  139.2080 C   0  0  0  0  0  2  0  0  0  0  0  0
  186.4620  179.3870  141.3610 C   0  0  0  0  0  2  0  0  0  0  0  0
  183.3020  177.3610  134.9700 C   0  0  0  0  0  0  0  0  0  0  0  0
  181.5280  178.8980  135.5200 C   0  0  0  0  0  1  0  0  0  0  0  0
  184.5660  177.1900  134.7390 C   0  0  0  0  0  3  0  0  0  0  0  0
  182.0310  177.5280  135.2300 C   0  0  0  0  0  0  0  0  0  0  0  0
  180.0320  176.5050  135.9920 O   0  0  0  0  0  0  0  0  0  0  0  0
  181.1580  176.3640  135.4330 C   0  0  0  0  0  0  0  0  0  0  0  0
  181.5790  175.0910  135.0150 O   0  0  0  0  0  0  0  0  0  0  0  0
  181.7530  174.0120  135.9280 C   0  0  1  0  0  3  0  0  0  0  0  0
  180.2970  173.3720  137.8540 C   0  0  0  0  0  1  0  0  0  0  0  0
  180.1100  172.1120  135.7230 C   0  0  0  0  0  1  0  0  0  0  0  0
  180.3960  173.4590  136.3490 C   0  0  0  0  0  3  0  0  0  0  0  0
  183.8690  172.7480  136.2230 C   0  0  0  0  0  2  0  0  0  0  0  0
  183.9920  173.5580  134.9520 C   0  0  0  0  0  2  0  0  0  0  0  0
  182.6610  172.9500  135.3180 C   0  0  0  0  0  3  0  0  0  0  0  0
  188.1700  177.3990  143.1690 C   0  0  0  0  0  0  0  0  0  0  0  0
  188.4240  178.6670  142.5740 N   0  0  0  0  0  2  0  0  0  0  0  0
  187.5610  176.5010  142.5190 O   0  0  0  0  0  0  0  0  0  0  0  0
  188.5070  177.1700  144.6140 C   0  0  2  0  0  3  0  0  0  0  0  0
  187.5910  177.6120  146.8910 C   0  0  0  0  0  0  0  0  0  0  0  0
  187.4400  177.6940  145.4670 N   0  0  0  0  0  0  0  0  0  0  0  0
  186.5870  177.3740  147.6240 O   0  0  0  0  0  0  0  0  0  0  0  0
  189.2080  177.8870  147.6610 S   0  0  0  0  0  1  0  0  0  0  0  0
  186.1380  177.9890  144.8880 C   0  0  0  0  0  2  0  0  0  0  0  0
  185.6470  179.3540  145.3400 C   0  0  0  0  0  2  0  0  0  0  0  0
  183.7220  178.6170  143.9740 C   0  0  0  0  0  1  0  0  0  0  0  0
  184.5040  179.8230  144.4480 C   0  0  0  0  0  2  0  0  0  0  0  0
  190.7920  176.7620  145.1460 O   0  0  0  0  0  0  0  0  0  0  0  0
  189.8670  177.7710  144.9760 C   0  0  0  0  0  3  0  0  0  0  0  0
  190.7810  177.4540  144.0000 O   0  0  0  0  0  0  0  0  0  0  0  0
  1  9  1  6  0  0  0
  1 16  1  0  0  0  0
  2 12  2  0  0  0  0
  3 25  1  6  0  0  0
  3 19  1  0  0  0  0
  4 21  1  0  0  0  0
  5 20  1  0  0  0  0
  5 22  1  1  0  0  0
  6 15  1  0  0  0  0
  6  3  1  0  0  0  0
  7  5  1  0  0  0  0
  7  1  1  0  0  0  0
  8  2  1  0  0  0  0
 11 14  1  0  0  0  0
 12  9  2  0  0  0  0
 13 11  1  0  0  0  0
 15 17  2  0  0  0  0
 16 22  1  0  0  0  0
 16 38  1  1  0  0  0
 17 19  1  0  0  0  0
 17  8  1  0  0  0  0
 18 14  1  6  0  0  0
 18 10  1  0  0  0  0
 19 13  2  0  0  0  0
 20  4  1  6  0  0  0
 20 10  1  0  0  0  0
 21 18  1  0  0  0  0
 23 26  2  0  0  0  0
 25 23  2  0  0  0  0
 26 28  1  0  0  0  0
 26 24  1  0  0  0  0
 28 27  2  0  0  0  0
 29 28  1  0  0  0  0
 30 29  1  6  0  0  0
 30 33  1  0  0  0  0
 32 33  1  0  0  0  0
 33 31  1  0  0  0  0
 35 36  1  0  0  0  0
 35 34  1  0  0  0  0
 36 30  1  0  0  0  0
 36 34  1  0  0  0  0
 38 37  1  0  0  0  0
 39 37  2  0  0  0  0
 40 37  1  6  0  0  0
 40 50  1  0  0  0  0
 40 42  1  0  0  0  0
 41 43  2  0  0  0  0
 41 44  1  0  0  0  0
 42 41  1  0  0  0  0
 45 46  1  0  0  0  0
 45 42  1  0  0  0  0
 47 48  1  0  0  0  0
 48 46  1  0  0  0  0
 50 49  1  0  0  0  0
 51 50  1  0  0  0  0
 51 49  1  0  0  0  0
M  END
>  <MODEL>
7

>  <REMARK>
 VINA RESULT:      -4.2      1.741      3.655
  Name = 
  13 active torsions:
  status: ('A' for Active; 'I' for Inactive)
    1  A    between atoms: O_2  and  C_40
    2  A    between atoms: O_2  and  C_48
    3  A    between atoms: C_3  and  N_16
    4  A    between atoms: C_3  and  C_38
    5  A    between atoms: C_7  and  C_33
    6  A    between atoms: C_11  and  C_37
    7  A    between atoms: N_16  and  C_37
    8  A    between atoms: N_22  and  C_34
    9  A    between atoms: C_31  and  C_37
   10  A    between atoms: C_35  and  C_40
   11  A    between atoms: C_38  and  C_47
   12  A    between atoms: C_40  and  C_41
   13  A    between atoms: C_44  and  C_48
                            x       y       z     vdW  Elec       q    Type
                         _______ _______ _______ _____ _____    ______ ____

>  <TORSDO>
F 13

$$$$
=
 OpenBabel11032420483D

 51 56  0  0  1  0  0  0  0  0999 V2000
  183.3070  177.1410  137.7820 C   0  0  1  0  0  3  0  0  0  0  0  0
  182.6190  173.9410  136.2540 C   0  0  0  0  0  3  0  0  0  0  0  0
  187.1370  173.6960  137.3200 C   0  0  2  0  0  3  0  0  0  0  0  0
  187.8280  177.7060  138.2240 C   0  0  0  0  0  2  0  0  0  0  0  0
  185.4060  177.7220  138.5880 N   0  0  1  0  0  0  0  0  0  0  0  0
  186.3030  172.6690  137.8520 O   0  0  0  0  0  0  0  0  0  0  0  0
  184.7420  176.8820  137.6630 N   0  0  0  0  0  2  0  0  0  0  0  0
  183.8370  173.6880  135.4210 C   0  0  0  0  0  2  0  0  0  0  0  0
  182.5580  175.8720  138.0120 C   0  0  0  0  0  3  0  0  0  0  0  0
  186.4470  178.5850  136.4430 C   0  0  0  0  0  2  0  0  0  0  0  0
  187.7110  175.9720  135.5610 O   0  0  0  0  0  0  0  0  0  0  0  0
  182.5840  174.9110  137.1320 C   0  0  0  0  0  0  0  0  0  0  0  0
  186.5070  175.2870  135.4650 C   0  0  0  0  0  3  0  0  0  0  0  0
  187.9080  177.2190  134.9080 C   0  0  0  0  0  2  0  0  0  0  0  0
  185.0940  172.5740  137.2080 N   0  0  0  0  0  0  0  0  0  0  0  0
  183.1280  178.0580  138.9570 C   0  0  1  0  0  3  0  0  0  0  0  0
  185.0410  173.4570  136.2750 C   0  0  0  0  0  0  0  0  0  0  0  0
  187.8540  178.3760  135.9040 C   0  0  2  0  0  3  0  0  0  0  0  0
  186.2650  174.2350  136.2390 C   0  0  0  0  0  0  0  0  0  0  0  0
  186.5370  178.4110  137.9510 C   0  0  2  0  0  3  0  0  0  0  0  0
  188.7470  178.1190  137.0950 C   0  0  0  0  0  2  0  0  0  0  0  0
  184.4570  178.7280  139.0240 C   0  0  0  0  0  2  0  0  0  0  0  0
  189.4820  173.7410  136.7800 C   0  0  0  0  0  0  0  0  0  0  0  0
  191.1380  174.8850  138.1040 C   0  0  0  0  0  1  0  0  0  0  0  0
  188.3650  173.0840  136.7570 C   0  0  0  0  0  3  0  0  0  0  0  0
  190.5950  174.4270  136.7980 C   0  0  0  0  0  0  0  0  0  0  0  0
  191.0180  176.1110  135.1820 O   0  0  0  0  0  0  0  0  0  0  0  0
  191.1870  174.9110  135.5430 C   0  0  0  0  0  0  0  0  0  0  0  0
  191.9330  174.0350  134.7360 O   0  0  0  0  0  0  0  0  0  0  0  0
  193.2550  173.6280  135.0780 C   0  0  1  0  0  3  0  0  0  0  0  0
  195.1550  175.1750  134.5940 C   0  0  0  0  0  1  0  0  0  0  0  0
  194.6360  174.5950  136.9510 C   0  0  0  0  0  1  0  0  0  0  0  0
  194.0590  174.8260  135.5730 C   0  0  0  0  0  3  0  0  0  0  0  0
  194.0660  171.3380  135.5820 C   0  0  0  0  0  2  0  0  0  0  0  0
  192.5600  171.2760  135.4690 C   0  0  0  0  0  2  0  0  0  0  0  0
  193.2070  172.4890  136.0890 C   0  0  0  0  0  3  0  0  0  0  0  0
  180.7470  178.8220  139.1280 C   0  0  0  0  0  0  0  0  0  0  0  0
  182.0840  179.0260  138.6810 N   0  0  0  0  0  2  0  0  0  0  0  0
  180.4660  177.8320  139.8640 O   0  0  0  0  0  0  0  0  0  0  0  0
  179.6450  179.7050  138.6180 C   0  0  2  0  0  3  0  0  0  0  0  0
  180.1000  178.9630  136.2820 C   0  0  0  0  0  0  0  0  0  0  0  0
  179.8750  180.0320  137.2110 N   0  0  0  0  0  0  0  0  0  0  0  0
  180.9250  179.1090  135.3330 O   0  0  0  0  0  0  0  0  0  0  0  0
  179.1780  177.4100  136.4270 S   0  0  0  0  0  1  0  0  0  0  0  0
  180.1850  181.4030  136.8340 C   0  0  0  0  0  2  0  0  0  0  0  0
  180.2190  181.5480  135.3220 C   0  0  0  0  0  2  0  0  0  0  0  0
  180.8090  183.8490  136.0130 C   0  0  0  0  0  1  0  0  0  0  0  0
  180.9890  182.8040  134.9320 C   0  0  0  0  0  2  0  0  0  0  0  0
  179.0280  180.6250  140.7270 O   0  0  0  0  0  0  0  0  0  0  0  0
  179.4940  180.9650  139.4750 C   0  0  0  0  0  3  0  0  0  0  0  0
  180.3310  180.8820  140.5610 O   0  0  0  0  0  0  0  0  0  0  0  0
  1  9  1  1  0  0  0
  1 16  1  0  0  0  0
  2 12  2  0  0  0  0
  3 25  1  6  0  0  0
  3  6  1  0  0  0  0
  5 22  1  6  0  0  0
  7  1  1  0  0  0  0
  7  5  1  0  0  0  0
  8  2  1  0  0  0  0
  8 17  1  0  0  0  0
 12  9  2  0  0  0  0
 13 11  1  0  0  0  0
 13 19  2  0  0  0  0
 14 11  1  0  0  0  0
 15  6  1  0  0  0  0
 16 38  1  6  0  0  0
 16 22  1  0  0  0  0
 17 15  2  0  0  0  0
 18 14  1  6  0  0  0
 18 10  1  0  0  0  0
 18 21  1  0  0  0  0
 19 17  1  0  0  0  0
 19  3  1  0  0  0  0
 20 10  1  6  0  0  0
 20  4  1  0  0  0  0
 20  5  1  0  0  0  0
 21  4  1  0  0  0  0
 23 26  2  0  0  0  0
 25 23  2  0  0  0  0
 26 24  1  0  0  0  0
 27 28  2  0  0  0  0
 28 26  1  0  0  0  0
 29 28  1  0  0  0  0
 30 29  1  1  0  0  0
 30 33  1  0  0  0  0
 30 36  1  0  0  0  0
 31 33  1  0  0  0  0
 33 32  1  0  0  0  0
 34 36  1  0  0  0  0
 35 34  1  0  0  0  0
 35 36  1  0  0  0  0
 37 39  2  0  0  0  0
 38 37  1  0  0  0  0
 40 37  1  1  0  0  0
 40 50  1  0  0  0  0
 41 44  1  0  0  0  0
 41 42  1  0  0  0  0
 42 40  1  0  0  0  0
 43 41  2  0  0  0  0
 45 42  1  0  0  0  0
 46 45  1  0  0  0  0
 48 46  1  0  0  0  0
 48 47  1  0  0  0  0
 50 51  1  0  0  0  0
 50 49  1  0  0  0  0
 51 49  1  0  0  0  0
M  END
>  <MODEL>
8

>  <REMARK>
 VINA RESULT:      -4.0      5.344      9.855
  Name = 
  13 active torsions:
  status: ('A' for Active; 'I' for Inactive)
    1  A    between atoms: O_2  and  C_40
    2  A    between atoms: O_2  and  C_48
    3  A    between atoms: C_3  and  N_16
    4  A    between atoms: C_3  and  C_38
    5  A    between atoms: C_7  and  C_33
    6  A    between atoms: C_11  and  C_37
    7  A    between atoms: N_16  and  C_37
    8  A    between atoms: N_22  and  C_34
    9  A    between atoms: C_31  and  C_37
   10  A    between atoms: C_35  and  C_40
   11  A    between atoms: C_38  and  C_47
   12  A    between atoms: C_40  and  C_41
   13  A    between atoms: C_44  and  C_48
                            x       y       z     vdW  Elec       q    Type
                         _______ _______ _______ _____ _____    ______ ____

>  <TORSDO>
F 13

$$$$
=
 OpenBabel11032420483D

 51 56  0  0  1  0  0  0  0  0999 V2000
  187.0360  177.7530  138.7540 C   0  0  1  0  0  3  0  0  0  0  0  0
  188.8190  177.3100  141.8650 C   0  0  0  0  0  3  0  0  0  0  0  0
  192.1650  177.0920  138.6460 C   0  0  2  0  0  3  0  0  0  0  0  0
  189.7910  176.7560  135.2360 C   0  0  0  0  0  2  0  0  0  0  0  0
  188.1000  177.7700  136.6890 N   0  0  1  0  0  0  0  0  0  0  0  0
  192.3310  178.0710  139.6680 O   0  0  0  0  0  0  0  0  0  0  0  0
  188.2200  177.3030  138.0200 N   0  0  0  0  0  2  0  0  0  0  0  0
  189.8310  176.2580  141.5350 C   0  0  0  0  0  2  0  0  0  0  0  0
  187.4290  178.4860  139.9910 C   0  0  0  0  0  3  0  0  0  0  0  0
  188.1600  175.2760  136.2360 C   0  0  0  0  0  2  0  0  0  0  0  0
  190.8950  174.7420  137.4340 O   0  0  0  0  0  0  0  0  0  0  0  0
  188.1170  177.8980  140.9280 C   0  0  0  0  0  0  0  0  0  0  0  0
  190.5450  175.1580  138.7120 C   0  0  0  0  0  3  0  0  0  0  0  0
  190.1240  173.7760  136.7330 C   0  0  0  0  0  2  0  0  0  0  0  0
  191.5430  177.8360  140.7680 N   0  0  0  0  0  0  0  0  0  0  0  0
  186.2790  178.6690  137.8370 C   0  0  1  0  0  3  0  0  0  0  0  0
  190.8540  176.7680  140.5730 C   0  0  0  0  0  0  0  0  0  0  0  0
  189.2780  174.4320  135.6430 C   0  0  2  0  0  3  0  0  0  0  0  0
  191.1480  176.2010  139.2700 C   0  0  0  0  0  0  0  0  0  0  0  0
  188.3790  176.6930  135.7290 C   0  0  2  0  0  3  0  0  0  0  0  0
  190.1100  175.3500  134.7780 C   0  0  0  0  0  2  0  0  0  0  0  0
  186.7260  178.1950  136.4970 C   0  0  0  0  0  2  0  0  0  0  0  0
  193.8080  176.0230  137.2490 C   0  0  0  0  0  0  0  0  0  0  0  0
  194.2940  176.7080  134.9900 C   0  0  0  0  0  1  0  0  0  0  0  0
  193.4470  176.3750  138.4430 C   0  0  0  0  0  3  0  0  0  0  0  0
  194.1470  175.6630  136.0380 C   0  0  0  0  0  0  0  0  0  0  0  0
  193.2110  173.7240  135.0430 O   0  0  0  0  0  0  0  0  0  0  0  0
  194.1800  174.2410  135.6700 C   0  0  0  0  0  0  0  0  0  0  0  0
  195.2860  173.4510  136.0270 O   0  0  0  0  0  0  0  0  0  0  0  0
  195.3310  172.7140  137.2450 C   0  0  1  0  0  3  0  0  0  0  0  0
  196.0870  170.3910  137.7640 C   0  0  0  0  0  1  0  0  0  0  0  0
  195.2250  170.9050  135.4940 C   0  0  0  0  0  1  0  0  0  0  0  0
  195.1160  171.2300  136.9660 C   0  0  0  0  0  3  0  0  0  0  0  0
  196.4130  174.1240  138.9770 C   0  0  0  0  0  2  0  0  0  0  0  0
  197.1150  174.3900  137.6650 C   0  0  0  0  0  2  0  0  0  0  0  0
  196.6370  172.9950  137.9800 C   0  0  0  0  0  3  0  0  0  0  0  0
  184.0440  179.4160  138.6880 C   0  0  0  0  0  0  0  0  0  0  0  0
  184.8520  178.4700  137.9970 N   0  0  0  0  0  2  0  0  0  0  0  0
  184.5450  180.5060  139.0920 O   0  0  0  0  0  0  0  0  0  0  0  0
  182.6310  179.0680  139.0550 C   0  0  2  0  0  3  0  0  0  0  0  0
  181.8100  176.8200  139.7550 C   0  0  0  0  0  0  0  0  0  0  0  0
  182.3620  177.6650  138.7360 N   0  0  0  0  0  0  0  0  0  0  0  0
  182.1720  175.6100  139.8410 O   0  0  0  0  0  0  0  0  0  0  0  0
  180.5620  177.4580  140.9030 S   0  0  0  0  0  1  0  0  0  0  0  0
  182.9360  177.0800  137.5340 C   0  0  0  0  0  2  0  0  0  0  0  0
  181.8570  176.4180  136.6930 C   0  0  0  0  0  2  0  0  0  0  0  0
  181.1920  177.6650  134.6630 C   0  0  0  0  0  1  0  0  0  0  0  0
  180.9060  177.4710  136.1370 C   0  0  0  0  0  2  0  0  0  0  0  0
  180.8790  180.6570  139.3340 O   0  0  0  0  0  0  0  0  0  0  0  0
  181.6270  180.0040  138.3780 C   0  0  0  0  0  3  0  0  0  0  0  0
  181.8930  181.3020  138.7450 O   0  0  0  0  0  0  0  0  0  0  0  0
  1  9  1  1  0  0  0
  3 25  1  1  0  0  0
  3 19  1  0  0  0  0
  3  6  1  0  0  0  0
  5 22  1  6  0  0  0
  5  7  1  0  0  0  0
  6 15  1  0  0  0  0
  7  1  1  0  0  0  0
  8  2  1  0  0  0  0
  9 12  2  0  0  0  0
 11 13  1  0  0  0  0
 12  2  2  0  0  0  0
 13 19  2  0  0  0  0
 14 11  1  0  0  0  0
 16 38  1  6  0  0  0
 16  1  1  0  0  0  0
 17 15  2  0  0  0  0
 17  8  1  0  0  0  0
 18 21  1  1  0  0  0
 18 10  1  0  0  0  0
 18 14  1  0  0  0  0
 19 17  1  0  0  0  0
 20  4  1  1  0  0  0
 20 10  1  0  0  0  0
 20  5  1  0  0  0  0
 21  4  1  0  0  0  0
 22 16  1  0  0  0  0
 23 25  2  0  0  0  0
 24 26  1  0  0  0  0
 26 23  2  0  0  0  0
 27 28  2  0  0  0  0
 28 29  1  0  0  0  0
 28 26  1  0  0  0  0
 30 29  1  6  0  0  0
 30 36  1  0  0  0  0
 32 33  1  0  0  0  0
 33 30  1  0  0  0  0
 33 31  1  0  0  0  0
 35 36  1  0  0  0  0
 35 34  1  0  0  0  0
 36 34  1  0  0  0  0
 37 39  2  0  0  0  0
 38 37  1  0  0  0  0
 40 37  1  6  0  0  0
 41 43  2  0  0  0  0
 41 44  1  0  0  0  0
 42 40  1  0  0  0  0
 42 41  1  0  0  0  0
 45 42  1  0  0  0  0
 46 45  1  0  0  0  0
 47 48  1  0  0  0  0
 48 46  1  0  0  0  0
 50 51  1  0  0  0  0
 50 40  1  0  0  0  0
 50 49  1  0  0  0  0
 51 49  1  0  0  0  0
M  END
>  <MODEL>
9

>  <REMARK>
 VINA RESULT:      -3.8      4.803     10.031
  Name = 
  13 active torsions:
  status: ('A' for Active; 'I' for Inactive)
    1  A    between atoms: O_2  and  C_40
    2  A    between atoms: O_2  and  C_48
    3  A    between atoms: C_3  and  N_16
    4  A    between atoms: C_3  and  C_38
    5  A    between atoms: C_7  and  C_33
    6  A    between atoms: C_11  and  C_37
    7  A    between atoms: N_16  and  C_37
    8  A    between atoms: N_22  and  C_34
    9  A    between atoms: C_31  and  C_37
   10  A    between atoms: C_35  and  C_40
   11  A    between atoms: C_38  and  C_47
   12  A    between atoms: C_40  and  C_41
   13  A    between atoms: C_44  and  C_48
                            x       y       z     vdW  Elec       q    Type
                         _______ _______ _______ _____ _____    ______ ____

>  <TORSDO>
F 13

$$$$
