=
 OpenBabel11042413083D

 32 37  0  0  1  0  0  0  0  0999 V2000
  189.4590  177.0870  147.0710 C   0  0  0  0  0  3  0  0  0  0  0  0
  188.7680  177.9900  141.5570 C   0  0  0  0  0  0  0  0  0  0  0  0
  188.9820  177.7570  142.9270 C   0  0  0  0  0  0  0  0  0  0  0  0
  185.4130  178.3210  144.1750 C   0  0  0  0  0  0  0  0  0  0  0  0
  190.7230  176.7570  147.5590 C   0  0  0  0  0  3  0  0  0  0  0  0
  191.7780  176.6570  146.7080 N   0  0  0  0  0  0  0  0  0  0  0  0
  191.3560  177.3080  142.6240 O   0  0  0  0  0  1  0  0  0  0  0  0
  184.2390  178.6290  143.7070 N   0  0  0  0  0  2  0  0  0  0  0  0
  190.3880  177.2030  144.8340 C   0  0  0  0  0  0  0  0  0  0  0  0
  188.8250  178.2760  139.3970 C   0  0  0  0  0  0  0  0  0  0  0  0
  190.2440  177.4230  143.4560 C   0  0  0  0  0  0  0  0  0  0  0  0
  186.5750  178.2090  143.2640 C   0  0  0  0  0  0  0  0  0  0  0  0
  187.5310  178.3140  141.0660 C   0  0  0  0  0  0  0  0  0  0  0  0
  185.6280  178.0810  145.6160 C   0  0  0  0  0  3  0  0  0  0  0  0
  186.4150  178.4320  141.8830 C   0  0  0  0  0  3  0  0  0  0  0  0
  189.6400  177.9580  140.4830 C   0  0  0  0  0  3  0  0  0  0  0  0
  186.8380  177.7680  146.0810 C   0  0  0  0  0  3  0  0  0  0  0  0
  188.0100  177.6480  145.1810 C   0  0  0  0  0  0  0  0  0  0  0  0
  187.8550  177.8710  143.7930 C   0  0  2  0  0  3  0  0  0  0  0  0
  187.5780  178.4820  139.7720 O   0  0  0  0  0  0  0  0  0  0  0  0
  191.6370  176.8700  145.3730 C   0  0  0  0  0  3  0  0  0  0  0  0
  189.2760  177.3150  145.7000 C   0  0  0  0  0  0  0  0  0  0  0  0
  189.2780  178.3750  138.0060 C   0  0  0  0  0  0  0  0  0  0  0  0
  188.8820  179.4760  137.1950 N   0  0  0  0  0  1  0  0  0  0  0  0
  190.0230  177.4830  137.5230 O   0  0  0  0  0  0  0  0  0  0  0  0
  183.0360  178.7510  144.5210 C   0  0  0  0  0  2  0  0  0  0  0  0
  181.8790  179.2470  143.6730 C   0  0  0  0  0  2  0  0  0  0  0  0
  179.7320  178.0990  142.8170 C   0  0  2  0  0  3  0  0  0  0  0  0
  179.4000  179.2960  143.6840 C   0  0  0  0  0  2  0  0  0  0  0  0
  180.6200  178.4610  144.0160 C   0  0  2  0  0  3  0  0  0  0  0  0
  180.1070  177.4620  140.4490 C   0  0  0  0  0  1  0  0  0  0  0  0
  180.2430  178.5770  141.4640 C   0  0  0  0  0  2  0  0  0  0  0  0
  1  5  1  0  0  0  0
  2  3  1  0  0  0  0
  3 11  2  0  0  0  0
  4 14  2  0  0  0  0
  6  5  2  0  0  0  0
  7 11  1  0  0  0  0
  8  4  1  0  0  0  0
  8 26  1  0  0  0  0
  9 21  2  0  0  0  0
  9 22  1  0  0  0  0
 10 20  1  0  0  0  0
 10 16  2  0  0  0  0
 11  9  1  0  0  0  0
 12 19  1  0  0  0  0
 12  4  1  0  0  0  0
 13  2  2  0  0  0  0
 13 15  1  0  0  0  0
 14 17  1  0  0  0  0
 15 12  2  0  0  0  0
 16  2  1  0  0  0  0
 18 22  1  0  0  0  0
 18 17  2  0  0  0  0
 19  3  1  1  0  0  0
 19 18  1  0  0  0  0
 20 13  1  0  0  0  0
 21  6  1  0  0  0  0
 22  1  2  0  0  0  0
 23 10  1  0  0  0  0
 24 23  1  0  0  0  0
 25 23  2  0  0  0  0
 27 26  1  0  0  0  0
 28 32  1  6  0  0  0
 28 29  1  0  0  0  0
 28 30  1  0  0  0  0
 29 30  1  0  0  0  0
 30 27  1  6  0  0  0
 31 32  1  0  0  0  0
M  END
>  <MODEL>
1

>  <REMARK>
 VINA RESULT:     -11.1      0.000      0.000
  Name = 
  5 active torsions:
  status: ('A' for Active; 'I' for Inactive)
    1  A    between atoms: C_2  and  C_16
    2  A    between atoms: C_3  and  C_29
    3  A    between atoms: C_12  and  C_28
    4  A    between atoms: N_13  and  C_17
    5  A    between atoms: C_17  and  C_28
                            x       y       z     vdW  Elec       q    Type
                         _______ _______ _______ _____ _____    ______ ____

>  <TORSDO>
F 5

$$$$
=
 OpenBabel11042413083D

 32 37  0  0  1  0  0  0  0  0999 V2000
  189.4450  177.5930  146.5910 C   0  0  0  0  0  3  0  0  0  0  0  0
  184.5490  178.5630  143.9870 C   0  0  0  0  0  0  0  0  0  0  0  0
  185.7510  178.3240  144.6750 C   0  0  0  0  0  0  0  0  0  0  0  0
  188.0740  177.9360  141.6650 C   0  0  0  0  0  0  0  0  0  0  0  0
  189.4860  177.5630  147.9850 C   0  0  0  0  0  3  0  0  0  0  0  0
  188.3520  177.7660  148.7060 N   0  0  0  0  0  0  0  0  0  0  0  0
  184.6960  178.4880  146.8640 O   0  0  0  0  0  1  0  0  0  0  0  0
  188.0210  177.9670  140.3650 N   0  0  0  0  0  0  0  0  0  0  0  0
  187.0640  178.0430  146.7050 C   0  0  0  0  0  0  0  0  0  0  0  0
  182.5230  178.9580  143.2840 C   0  0  0  0  0  0  0  0  0  0  0  0
  185.8310  178.2860  146.0810 C   0  0  0  0  0  0  0  0  0  0  0  0
  186.8480  178.1530  142.4670 C   0  0  0  0  0  0  0  0  0  0  0  0
  184.4960  178.5960  142.6190 C   0  0  0  0  0  0  0  0  0  0  0  0
  189.3410  177.6810  142.3770 C   0  0  0  0  0  3  0  0  0  0  0  0
  185.6180  178.3960  141.8270 C   0  0  0  0  0  3  0  0  0  0  0  0
  183.2660  178.7980  144.4530 C   0  0  0  0  0  3  0  0  0  0  0  0
  189.3790  177.6510  143.7100 C   0  0  0  0  0  3  0  0  0  0  0  0
  188.1610  177.8700  144.5270 C   0  0  0  0  0  0  0  0  0  0  0  0
  186.9230  178.1150  143.8900 C   0  0  0  0  0  0  0  0  0  0  0  0
  183.2780  178.8330  142.2100 O   0  0  0  0  0  0  0  0  0  0  0  0
  187.1580  178.0020  148.1010 C   0  0  0  0  0  3  0  0  0  0  0  0
  188.2300  177.8330  145.9330 C   0  0  0  0  0  0  0  0  0  0  0  0
  181.0840  179.2310  143.2330 C   0  0  0  0  0  0  0  0  0  0  0  0
  180.1850  178.5180  144.0760 N   0  0  0  0  0  1  0  0  0  0  0  0
  180.6360  180.1010  142.4410 O   0  0  0  0  0  0  0  0  0  0  0  0
  189.1730  177.7780  139.4910 C   0  0  0  0  0  2  0  0  0  0  0  0
  188.7270  177.2180  138.1520 C   0  0  0  0  0  2  0  0  0  0  0  0
  186.9710  178.5060  136.7680 C   0  0  2  0  0  3  0  0  0  0  0  0
  187.9630  177.8000  135.8670 C   0  0  0  0  0  2  0  0  0  0  0  0
  188.4400  178.3630  137.1900 C   0  0  2  0  0  3  0  0  0  0  0  0
  184.9540  178.1980  138.1810 C   0  0  0  0  0  1  0  0  0  0  0  0
  186.0200  177.4830  137.3760 C   0  0  0  0  0  2  0  0  0  0  0  0
  1  5  1  0  0  0  0
  2 16  1  0  0  0  0
  2  3  1  0  0  0  0
  3 11  2  0  0  0  0
  4 14  1  0  0  0  0
  4 12  1  0  0  0  0
  5  6  2  0  0  0  0
  8  4  2  0  0  0  0
  9 21  2  0  0  0  0
 10 16  2  0  0  0  0
 11  9  1  0  0  0  0
 11  7  1  0  0  0  0
 12 19  1  0  0  0  0
 13  2  2  0  0  0  0
 14 17  2  0  0  0  0
 15 12  2  0  0  0  0
 15 13  1  0  0  0  0
 17 18  1  0  0  0  0
 18 22  1  0  0  0  0
 19 18  2  0  0  0  0
 19  3  1  0  0  0  0
 20 13  1  0  0  0  0
 20 10  1  0  0  0  0
 21  6  1  0  0  0  0
 22  1  2  0  0  0  0
 22  9  1  0  0  0  0
 23 10  1  0  0  0  0
 23 24  1  0  0  0  0
 25 23  2  0  0  0  0
 26  8  1  0  0  0  0
 27 26  1  0  0  0  0
 28 30  1  0  0  0  0
 28 32  1  1  0  0  0
 29 28  1  0  0  0  0
 29 30  1  0  0  0  0
 30 27  1  1  0  0  0
 32 31  1  0  0  0  0
M  END
>  <MODEL>
2

>  <REMARK>
 VINA RESULT:     -10.9      2.799      6.420
  Name = 
  5 active torsions:
  status: ('A' for Active; 'I' for Inactive)
    1  A    between atoms: C_2  and  C_16
    2  A    between atoms: C_3  and  C_29
    3  A    between atoms: C_12  and  C_28
    4  A    between atoms: N_13  and  C_17
    5  A    between atoms: C_17  and  C_28
                            x       y       z     vdW  Elec       q    Type
                         _______ _______ _______ _____ _____    ______ ____

>  <TORSDO>
F 5

$$$$
=
 OpenBabel11042413083D

 32 37  0  0  1  0  0  0  0  0999 V2000
  187.2010  177.7450  147.4870 C   0  0  0  0  0  3  0  0  0  0  0  0
  187.7860  178.2140  141.9070 C   0  0  0  0  0  0  0  0  0  0  0  0
  187.6820  178.0890  143.3030 C   0  0  0  0  0  0  0  0  0  0  0  0
  183.9360  178.7590  143.6670 C   0  0  0  0  0  0  0  0  0  0  0  0
  188.3160  177.4510  148.2710 C   0  0  0  0  0  3  0  0  0  0  0  0
  189.5330  177.2810  147.6900 N   0  0  0  0  0  0  0  0  0  0  0  0
  190.0540  177.6110  143.5790 O   0  0  0  0  0  1  0  0  0  0  0  0
  182.9040  179.0320  142.9240 N   0  0  0  0  0  0  0  0  0  0  0  0
  188.6120  177.6820  145.5150 C   0  0  0  0  0  0  0  0  0  0  0  0
  188.3330  178.3300  139.7990 C   0  0  0  0  0  0  0  0  0  0  0  0
  188.7850  177.7940  144.1270 C   0  0  0  0  0  0  0  0  0  0  0  0
  185.2700  178.5720  143.0530 C   0  0  0  0  0  0  0  0  0  0  0  0
  186.6970  178.5020  141.1260 C   0  0  0  0  0  0  0  0  0  0  0  0
  183.8170  178.6320  145.1330 C   0  0  0  0  0  3  0  0  0  0  0  0
  185.4290  178.6870  141.6590 C   0  0  0  0  0  3  0  0  0  0  0  0
  188.8770  178.0960  141.0620 C   0  0  0  0  0  3  0  0  0  0  0  0
  184.8840  178.3530  145.8820 C   0  0  0  0  0  3  0  0  0  0  0  0
  186.2260  178.1600  145.2810 C   0  0  0  0  0  0  0  0  0  0  0  0
  186.3920  178.2730  143.8810 C   0  0  0  0  0  0  0  0  0  0  0  0
  187.0380  178.5680  139.8670 O   0  0  0  0  0  0  0  0  0  0  0  0
  189.7010  177.3890  146.3450 C   0  0  0  0  0  3  0  0  0  0  0  0
  187.3360  177.8650  146.0960 C   0  0  0  0  0  0  0  0  0  0  0  0
  189.0890  178.3180  138.5440 C   0  0  0  0  0  0  0  0  0  0  0  0
  189.9850  177.2500  138.2520 N   0  0  0  0  0  1  0  0  0  0  0  0
  188.9470  179.2550  137.7150 O   0  0  0  0  0  0  0  0  0  0  0  0
  181.5510  179.2210  143.4340 C   0  0  0  0  0  2  0  0  0  0  0  0
  180.5810  179.4200  142.2830 C   0  0  0  0  0  2  0  0  0  0  0  0
  180.9710  178.3020  139.9900 C   0  0  2  0  0  3  0  0  0  0  0  0
  179.4970  178.3310  140.3380 C   0  0  0  0  0  2  0  0  0  0  0  0
  180.5130  178.1490  141.4470 C   0  0  2  0  0  3  0  0  0  0  0  0
  182.8550  179.6460  139.0940 C   0  0  0  0  0  1  0  0  0  0  0  0
  181.4280  179.7020  139.5980 C   0  0  0  0  0  2  0  0  0  0  0  0
  1  5  1  0  0  0  0
  2  3  1  0  0  0  0
  3 19  1  0  0  0  0
  3 11  2  0  0  0  0
  4 14  1  0  0  0  0
  6  5  2  0  0  0  0
  7 11  1  0  0  0  0
  8 26  1  0  0  0  0
  8  4  2  0  0  0  0
  9 22  1  0  0  0  0
  9 21  2  0  0  0  0
 10 20  1  0  0  0  0
 10 16  2  0  0  0  0
 11  9  1  0  0  0  0
 12  4  1  0  0  0  0
 12 19  1  0  0  0  0
 13 15  1  0  0  0  0
 13  2  2  0  0  0  0
 14 17  2  0  0  0  0
 15 12  2  0  0  0  0
 16  2  1  0  0  0  0
 18 17  1  0  0  0  0
 18 22  1  0  0  0  0
 19 18  2  0  0  0  0
 20 13  1  0  0  0  0
 21  6  1  0  0  0  0
 22  1  2  0  0  0  0
 23 10  1  0  0  0  0
 24 23  1  0  0  0  0
 25 23  2  0  0  0  0
 27 26  1  0  0  0  0
 28 32  1  1  0  0  0
 28 29  1  0  0  0  0
 28 30  1  0  0  0  0
 29 30  1  0  0  0  0
 30 27  1  1  0  0  0
 31 32  1  0  0  0  0
M  END
>  <MODEL>
3

>  <REMARK>
 VINA RESULT:     -10.7      1.421      2.036
  Name = 
  5 active torsions:
  status: ('A' for Active; 'I' for Inactive)
    1  A    between atoms: C_2  and  C_16
    2  A    between atoms: C_3  and  C_29
    3  A    between atoms: C_12  and  C_28
    4  A    between atoms: N_13  and  C_17
    5  A    between atoms: C_17  and  C_28
                            x       y       z     vdW  Elec       q    Type
                         _______ _______ _______ _____ _____    ______ ____

>  <TORSDO>
F 5

$$$$
=
 OpenBabel11042413083D

 32 37  0  0  1  0  0  0  0  0999 V2000
  189.3680  177.5310  146.2350 C   0  0  0  0  0  3  0  0  0  0  0  0
  184.3220  178.6000  143.9790 C   0  0  0  0  0  0  0  0  0  0  0  0
  185.5640  178.3330  144.5810 C   0  0  0  0  0  0  0  0  0  0  0  0
  187.7190  178.1910  141.4270 C   0  0  0  0  0  0  0  0  0  0  0  0
  189.4880  177.4060  147.6200 C   0  0  0  0  0  3  0  0  0  0  0  0
  188.3940  177.5400  148.4140 N   0  0  0  0  0  0  0  0  0  0  0  0
  184.6320  178.3280  146.8310 O   0  0  0  0  0  1  0  0  0  0  0  0
  187.5930  178.3120  140.1380 N   0  0  0  0  0  0  0  0  0  0  0  0
  186.9920  177.9340  146.5110 C   0  0  0  0  0  0  0  0  0  0  0  0
  182.2550  179.0090  143.4170 C   0  0  0  0  0  0  0  0  0  0  0  0
  185.7240  178.1990  145.9740 C   0  0  0  0  0  0  0  0  0  0  0  0
  186.5380  178.3320  142.3090 C   0  0  0  0  0  0  0  0  0  0  0  0
  184.1920  178.7260  142.6210 C   0  0  0  0  0  0  0  0  0  0  0  0
  189.0270  177.9080  142.0500 C   0  0  0  0  0  3  0  0  0  0  0  0
  185.2710  178.5990  141.7570 C   0  0  0  0  0  3  0  0  0  0  0  0
  183.0650  178.7810  144.5300 C   0  0  0  0  0  3  0  0  0  0  0  0
  189.1400  177.7870  143.3730 C   0  0  0  0  0  3  0  0  0  0  0  0
  187.9680  177.9290  144.2690 C   0  0  0  0  0  0  0  0  0  0  0  0
  186.6920  178.1980  143.7200 C   0  0  0  0  0  0  0  0  0  0  0  0
  182.9510  178.9710  142.2970 O   0  0  0  0  0  0  0  0  0  0  0  0
  187.1640  177.7980  147.8940 C   0  0  0  0  0  3  0  0  0  0  0  0
  188.1160  177.7970  145.6640 C   0  0  0  0  0  0  0  0  0  0  0  0
  180.8130  179.2620  143.4650 C   0  0  0  0  0  0  0  0  0  0  0  0
  179.9280  178.2900  144.0150 N   0  0  0  0  0  1  0  0  0  0  0  0
  180.3480  180.3430  143.0190 O   0  0  0  0  0  0  0  0  0  0  0  0
  188.6970  178.2010  139.1910 C   0  0  0  0  0  2  0  0  0  0  0  0
  188.3980  177.1240  138.1630 C   0  0  0  0  0  2  0  0  0  0  0  0
  187.2490  177.3650  135.8650 C   0  0  2  0  0  3  0  0  0  0  0  0
  187.4090  178.7140  136.5380 C   0  0  0  0  0  2  0  0  0  0  0  0
  187.1370  177.4910  137.3910 C   0  0  2  0  0  3  0  0  0  0  0  0
  188.4280  175.5910  134.5940 C   0  0  0  0  0  1  0  0  0  0  0  0
  188.6020  176.8910  135.3520 C   0  0  0  0  0  2  0  0  0  0  0  0
  1  5  1  0  0  0  0
  2 16  1  0  0  0  0
  2  3  1  0  0  0  0
  3 11  2  0  0  0  0
  4 14  1  0  0  0  0
  4 12  1  0  0  0  0
  5  6  2  0  0  0  0
  8  4  2  0  0  0  0
  9 21  2  0  0  0  0
 10 23  1  0  0  0  0
 10 16  2  0  0  0  0
 11  9  1  0  0  0  0
 11  7  1  0  0  0  0
 12 19  1  0  0  0  0
 13  2  2  0  0  0  0
 14 17  2  0  0  0  0
 15 12  2  0  0  0  0
 15 13  1  0  0  0  0
 17 18  1  0  0  0  0
 18 22  1  0  0  0  0
 19 18  2  0  0  0  0
 19  3  1  0  0  0  0
 20 13  1  0  0  0  0
 20 10  1  0  0  0  0
 21  6  1  0  0  0  0
 22  1  2  0  0  0  0
 22  9  1  0  0  0  0
 23 24  1  0  0  0  0
 25 23  2  0  0  0  0
 26  8  1  0  0  0  0
 27 26  1  0  0  0  0
 28 32  1  1  0  0  0
 28 29  1  0  0  0  0
 28 30  1  0  0  0  0
 29 30  1  0  0  0  0
 30 27  1  1  0  0  0
 31 32  1  0  0  0  0
M  END
>  <MODEL>
4

>  <REMARK>
 VINA RESULT:     -10.7      2.885      6.755
  Name = 
  5 active torsions:
  status: ('A' for Active; 'I' for Inactive)
    1  A    between atoms: C_2  and  C_16
    2  A    between atoms: C_3  and  C_29
    3  A    between atoms: C_12  and  C_28
    4  A    between atoms: N_13  and  C_17
    5  A    between atoms: C_17  and  C_28
                            x       y       z     vdW  Elec       q    Type
                         _______ _______ _______ _____ _____    ______ ____

>  <TORSDO>
F 5

$$$$
=
 OpenBabel11042413083D

 32 37  0  0  1  0  0  0  0  0999 V2000
  184.2790  178.9370  143.2500 C   0  0  0  0  0  3  0  0  0  0  0  0
  189.2790  177.3480  145.2930 C   0  0  0  0  0  0  0  0  0  0  0  0
  188.0160  177.7460  144.8230 C   0  0  0  0  0  0  0  0  0  0  0  0
  188.7900  177.8320  141.0810 C   0  0  0  0  0  0  0  0  0  0  0  0
  183.2200  179.1640  144.1290 C   0  0  0  0  0  3  0  0  0  0  0  0
  183.3970  179.0030  145.4660 N   0  0  0  0  0  0  0  0  0  0  0  0
  187.0550  177.8340  147.0590 O   0  0  0  0  0  1  0  0  0  0  0  0
  189.7860  177.6160  140.2720 N   0  0  0  0  0  0  0  0  0  0  0  0
  185.6880  178.3800  145.1440 C   0  0  0  0  0  0  0  0  0  0  0  0
  191.0710  176.7500  146.3820 C   0  0  0  0  0  0  0  0  0  0  0  0
  186.9230  177.9850  145.6790 C   0  0  0  0  0  0  0  0  0  0  0  0
  188.9640  177.6650  142.5420 C   0  0  0  0  0  0  0  0  0  0  0  0
  190.3270  177.1210  144.4400 C   0  0  0  0  0  0  0  0  0  0  0  0
  187.4680  178.2530  140.5770 C   0  0  0  0  0  3  0  0  0  0  0  0
  190.2100  177.2680  143.0640 C   0  0  0  0  0  3  0  0  0  0  0  0
  189.7380  177.1120  146.5780 C   0  0  0  0  0  3  0  0  0  0  0  0
  186.4570  178.4710  141.4180 C   0  0  0  0  0  3  0  0  0  0  0  0
  186.6140  178.3040  142.8830 C   0  0  0  0  0  0  0  0  0  0  0  0
  187.8630  177.9050  143.4150 C   0  0  0  0  0  0  0  0  0  0  0  0
  191.3930  176.7630  145.1030 O   0  0  0  0  0  0  0  0  0  0  0  0
  184.5940  178.6200  145.9850 C   0  0  0  0  0  3  0  0  0  0  0  0
  185.5280  178.5410  143.7490 C   0  0  0  0  0  0  0  0  0  0  0  0
  192.0110  176.3950  147.4490 C   0  0  0  0  0  0  0  0  0  0  0  0
  192.8140  175.2250  147.3430 N   0  0  0  0  0  1  0  0  0  0  0  0
  192.1120  177.1280  148.4680 O   0  0  0  0  0  0  0  0  0  0  0  0
  189.7100  177.7430  138.8210 C   0  0  0  0  0  2  0  0  0  0  0  0
  190.9150  177.0860  138.1750 C   0  0  0  0  0  2  0  0  0  0  0  0
  191.8730  174.7610  137.5930 C   0  0  2  0  0  3  0  0  0  0  0  0
  190.8780  175.2180  136.5450 C   0  0  0  0  0  2  0  0  0  0  0  0
  190.6490  175.5970  137.9940 C   0  0  2  0  0  3  0  0  0  0  0  0
  194.3400  174.6710  137.8390 C   0  0  0  0  0  1  0  0  0  0  0  0
  193.1700  175.5440  137.4370 C   0  0  0  0  0  2  0  0  0  0  0  0
  1 22  2  0  0  0  0
  1  5  1  0  0  0  0
  2 16  1  0  0  0  0
  3  2  1  0  0  0  0
  3 11  2  0  0  0  0
  4 12  1  0  0  0  0
  5  6  2  0  0  0  0
  6 21  1  0  0  0  0
  8  4  2  0  0  0  0
  9 11  1  0  0  0  0
  9 21  2  0  0  0  0
 10 16  2  0  0  0  0
 10 23  1  0  0  0  0
 11  7  1  0  0  0  0
 12 15  2  0  0  0  0
 12 19  1  0  0  0  0
 13 20  1  0  0  0  0
 13  2  2  0  0  0  0
 14  4  1  0  0  0  0
 14 17  2  0  0  0  0
 15 13  1  0  0  0  0
 17 18  1  0  0  0  0
 18 19  2  0  0  0  0
 18 22  1  0  0  0  0
 19  3  1  0  0  0  0
 20 10  1  0  0  0  0
 22  9  1  0  0  0  0
 23 25  2  0  0  0  0
 24 23  1  0  0  0  0
 26  8  1  0  0  0  0
 27 26  1  0  0  0  0
 28 32  1  6  0  0  0
 28 30  1  0  0  0  0
 29 28  1  0  0  0  0
 29 30  1  0  0  0  0
 30 27  1  6  0  0  0
 32 31  1  0  0  0  0
M  END
>  <MODEL>
5

>  <REMARK>
 VINA RESULT:     -10.5      2.651      8.235
  Name = 
  5 active torsions:
  status: ('A' for Active; 'I' for Inactive)
    1  A    between atoms: C_2  and  C_16
    2  A    between atoms: C_3  and  C_29
    3  A    between atoms: C_12  and  C_28
    4  A    between atoms: N_13  and  C_17
    5  A    between atoms: C_17  and  C_28
                            x       y       z     vdW  Elec       q    Type
                         _______ _______ _______ _____ _____    ______ ____

>  <TORSDO>
F 5

$$$$
=
 OpenBabel11042413083D

 32 37  0  0  1  0  0  0  0  0999 V2000
  184.3300  178.9380  143.2570 C   0  0  0  0  0  3  0  0  0  0  0  0
  189.3150  177.3510  145.3380 C   0  0  0  0  0  0  0  0  0  0  0  0
  188.0550  177.7480  144.8590 C   0  0  0  0  0  0  0  0  0  0  0  0
  188.8580  177.8360  141.1230 C   0  0  0  0  0  0  0  0  0  0  0  0
  183.2640  179.1640  144.1280 C   0  0  0  0  0  3  0  0  0  0  0  0
  183.4310  179.0040  145.4670 N   0  0  0  0  0  0  0  0  0  0  0  0
  187.0770  177.8360  147.0870 O   0  0  0  0  0  1  0  0  0  0  0  0
  189.8600  177.6200  140.3220 N   0  0  0  0  0  0  0  0  0  0  0  0
  185.7240  178.3810  145.1630 C   0  0  0  0  0  0  0  0  0  0  0  0
  191.0980  176.7530  146.4410 C   0  0  0  0  0  0  0  0  0  0  0  0
  186.9550  177.9870  145.7070 C   0  0  0  0  0  0  0  0  0  0  0  0
  189.0210  177.6680  142.5850 C   0  0  0  0  0  0  0  0  0  0  0  0
  190.3690  177.1240  144.4930 C   0  0  0  0  0  0  0  0  0  0  0  0
  187.5390  178.2560  140.6090 C   0  0  0  0  0  3  0  0  0  0  0  0
  190.2620  177.2720  143.1170 C   0  0  0  0  0  3  0  0  0  0  0  0
  189.7640  177.1150  146.6270 C   0  0  0  0  0  3  0  0  0  0  0  0
  186.5210  178.4740  141.4420 C   0  0  0  0  0  3  0  0  0  0  0  0
  186.6680  178.3060  142.9090 C   0  0  0  0  0  0  0  0  0  0  0  0
  187.9120  177.9080  143.4490 C   0  0  0  0  0  0  0  0  0  0  0  0
  191.4300  176.7670  145.1650 O   0  0  0  0  0  0  0  0  0  0  0  0
  184.6240  178.6210  145.9950 C   0  0  0  0  0  3  0  0  0  0  0  0
  185.5750  178.5430  143.7660 C   0  0  0  0  0  0  0  0  0  0  0  0
  192.0300  176.3990  147.5160 C   0  0  0  0  0  0  0  0  0  0  0  0
  192.8090  175.2100  147.4310 N   0  0  0  0  0  1  0  0  0  0  0  0
  192.1460  177.1480  148.5200 O   0  0  0  0  0  0  0  0  0  0  0  0
  189.7940  177.7480  138.8700 C   0  0  0  0  0  2  0  0  0  0  0  0
  189.3950  176.4220  138.2470 C   0  0  0  0  0  2  0  0  0  0  0  0
  187.8620  176.5790  136.1770 C   0  0  2  0  0  3  0  0  0  0  0  0
  188.7010  175.3180  136.1390 C   0  0  0  0  0  2  0  0  0  0  0  0
  189.2920  176.5790  136.7360 C   0  0  2  0  0  3  0  0  0  0  0  0
  185.9370  177.6940  137.2760 C   0  0  0  0  0  1  0  0  0  0  0  0
  186.7600  176.4240  137.2180 C   0  0  0  0  0  2  0  0  0  0  0  0
  1 22  2  0  0  0  0
  1  5  1  0  0  0  0
  2 16  1  0  0  0  0
  3  2  1  0  0  0  0
  3 11  2  0  0  0  0
  4 12  1  0  0  0  0
  5  6  2  0  0  0  0
  6 21  1  0  0  0  0
  8  4  2  0  0  0  0
  9 11  1  0  0  0  0
  9 21  2  0  0  0  0
 10 16  2  0  0  0  0
 10 23  1  0  0  0  0
 11  7  1  0  0  0  0
 12 15  2  0  0  0  0
 12 19  1  0  0  0  0
 13 20  1  0  0  0  0
 13  2  2  0  0  0  0
 14  4  1  0  0  0  0
 14 17  2  0  0  0  0
 15 13  1  0  0  0  0
 17 18  1  0  0  0  0
 18 19  2  0  0  0  0
 18 22  1  0  0  0  0
 19  3  1  0  0  0  0
 20 10  1  0  0  0  0
 22  9  1  0  0  0  0
 23 25  2  0  0  0  0
 24 23  1  0  0  0  0
 26  8  1  0  0  0  0
 27 26  1  0  0  0  0
 28 30  1  0  0  0  0
 28 32  1  1  0  0  0
 29 28  1  0  0  0  0
 29 30  1  0  0  0  0
 30 27  1  1  0  0  0
 32 31  1  0  0  0  0
M  END
>  <MODEL>
6

>  <REMARK>
 VINA RESULT:     -10.4      2.676      7.345
  Name = 
  5 active torsions:
  status: ('A' for Active; 'I' for Inactive)
    1  A    between atoms: C_2  and  C_16
    2  A    between atoms: C_3  and  C_29
    3  A    between atoms: C_12  and  C_28
    4  A    between atoms: N_13  and  C_17
    5  A    between atoms: C_17  and  C_28
                            x       y       z     vdW  Elec       q    Type
                         _______ _______ _______ _____ _____    ______ ____

>  <TORSDO>
F 5

$$$$
=
 OpenBabel11042413083D

 32 37  0  0  1  0  0  0  0  0999 V2000
  182.4930  178.7510  144.1680 C   0  0  0  0  0  3  0  0  0  0  0  0
  187.0450  178.2540  140.8910 C   0  0  0  0  0  0  0  0  0  0  0  0
  185.8850  178.3840  141.6740 C   0  0  0  0  0  0  0  0  0  0  0  0
  187.4550  177.8910  145.1240 C   0  0  0  0  0  0  0  0  0  0  0  0
  181.2500  178.9920  143.5820 C   0  0  0  0  0  3  0  0  0  0  0  0
  181.1410  179.1050  142.2330 N   0  0  0  0  0  0  0  0  0  0  0  0
  184.4500  178.7510  139.7410 O   0  0  0  0  0  1  0  0  0  0  0  0
  188.6210  177.6670  145.6570 N   0  0  0  0  0  2  0  0  0  0  0  0
  183.4950  178.7480  141.9580 C   0  0  0  0  0  0  0  0  0  0  0  0
  188.5990  178.1120  139.3690 C   0  0  0  0  0  0  0  0  0  0  0  0
  184.6120  178.6270  141.1190 C   0  0  0  0  0  0  0  0  0  0  0  0
  187.3160  178.0150  143.6550 C   0  0  0  0  0  0  0  0  0  0  0  0
  188.2710  178.0180  141.4540 C   0  0  0  0  0  0  0  0  0  0  0  0
  186.2420  178.0230  145.9550 C   0  0  0  0  0  3  0  0  0  0  0  0
  188.4470  177.8930  142.8250 C   0  0  0  0  0  3  0  0  0  0  0  0
  187.2290  178.3210  139.5210 C   0  0  0  0  0  3  0  0  0  0  0  0
  185.0540  178.2530  145.3950 C   0  0  0  0  0  3  0  0  0  0  0  0
  184.8990  178.3820  143.9250 C   0  0  0  0  0  0  0  0  0  0  0  0
  186.0320  178.2610  143.0870 C   0  0  2  0  0  3  0  0  0  0  0  0
  189.1930  177.9360  140.5330 O   0  0  0  0  0  0  0  0  0  0  0  0
  182.2250  178.9890  141.4200 C   0  0  0  0  0  3  0  0  0  0  0  0
  183.6320  178.6250  143.3600 C   0  0  0  0  0  0  0  0  0  0  0  0
  189.3090  178.0890  138.0870 C   0  0  0  0  0  0  0  0  0  0  0  0
  188.8650  178.8980  137.0020 N   0  0  0  0  0  1  0  0  0  0  0  0
  190.3180  177.3510  137.9400 O   0  0  0  0  0  0  0  0  0  0  0  0
  188.8590  177.5410  147.0900 C   0  0  0  0  0  2  0  0  0  0  0  0
  189.7670  176.3570  147.3670 C   0  0  0  0  0  2  0  0  0  0  0  0
  192.0550  176.5270  146.1850 C   0  0  2  0  0  3  0  0  0  0  0  0
  192.1350  175.6250  147.4000 C   0  0  0  0  0  2  0  0  0  0  0  0
  191.2140  176.8270  147.4340 C   0  0  2  0  0  3  0  0  0  0  0  0
  191.6740  176.4340  143.7350 C   0  0  0  0  0  1  0  0  0  0  0  0
  191.3160  175.8050  145.0650 C   0  0  0  0  0  2  0  0  0  0  0  0
  2 13  2  0  0  0  0
  2  3  1  0  0  0  0
  4  8  1  0  0  0  0
  4 14  2  0  0  0  0
  5  1  1  0  0  0  0
  6  5  2  0  0  0  0
  7 11  1  0  0  0  0
  8 26  1  0  0  0  0
  9 22  1  0  0  0  0
 10 16  2  0  0  0  0
 10 20  1  0  0  0  0
 11  3  2  0  0  0  0
 11  9  1  0  0  0  0
 12  4  1  0  0  0  0
 13 15  1  0  0  0  0
 15 12  2  0  0  0  0
 16  2  1  0  0  0  0
 17 14  1  0  0  0  0
 18 17  2  0  0  0  0
 19  3  1  6  0  0  0
 19 12  1  0  0  0  0
 19 18  1  0  0  0  0
 20 13  1  0  0  0  0
 21  9  2  0  0  0  0
 21  6  1  0  0  0  0
 22 18  1  0  0  0  0
 22  1  2  0  0  0  0
 23 10  1  0  0  0  0
 24 23  1  0  0  0  0
 25 23  2  0  0  0  0
 26 27  1  0  0  0  0
 28 32  1  6  0  0  0
 28 29  1  0  0  0  0
 28 30  1  0  0  0  0
 29 30  1  0  0  0  0
 30 27  1  6  0  0  0
 31 32  1  0  0  0  0
M  END
>  <MODEL>
7

>  <REMARK>
 VINA RESULT:     -10.0      1.524      7.052
  Name = 
  5 active torsions:
  status: ('A' for Active; 'I' for Inactive)
    1  A    between atoms: C_2  and  C_16
    2  A    between atoms: C_3  and  C_29
    3  A    between atoms: C_12  and  C_28
    4  A    between atoms: N_13  and  C_17
    5  A    between atoms: C_17  and  C_28
                            x       y       z     vdW  Elec       q    Type
                         _______ _______ _______ _____ _____    ______ ____

>  <TORSDO>
F 5

$$$$
=
 OpenBabel11042413083D

 32 37  0  0  1  0  0  0  0  0999 V2000
  180.6270  179.0670  143.9740 C   0  0  0  0  0  3  0  0  0  0  0  0
  184.9600  178.6020  140.4080 C   0  0  0  0  0  0  0  0  0  0  0  0
  183.8520  178.7220  141.2650 C   0  0  0  0  0  0  0  0  0  0  0  0
  185.6770  178.4630  144.6130 C   0  0  0  0  0  0  0  0  0  0  0  0
  179.3370  179.2270  143.4680 C   0  0  0  0  0  3  0  0  0  0  0  0
  179.1310  179.2690  142.1260 N   0  0  0  0  0  0  0  0  0  0  0  0
  182.2720  178.9340  139.4240 O   0  0  0  0  0  1  0  0  0  0  0  0
  186.8860  178.3130  145.0710 N   0  0  0  0  0  2  0  0  0  0  0  0
  181.4730  178.9980  141.7020 C   0  0  0  0  0  0  0  0  0  0  0  0
  186.4100  178.4520  138.7870 C   0  0  0  0  0  0  0  0  0  0  0  0
  182.5350  178.8840  140.7910 C   0  0  0  0  0  0  0  0  0  0  0  0
  185.4320  178.5090  143.1540 C   0  0  0  0  0  0  0  0  0  0  0  0
  186.2310  178.4460  140.8930 C   0  0  0  0  0  0  0  0  0  0  0  0
  184.5200  178.5840  145.5220 C   0  0  0  0  0  3  0  0  0  0  0  0
  186.5070  178.3940  142.2520 C   0  0  0  0  0  3  0  0  0  0  0  0
  185.0450  178.6100  139.0260 C   0  0  0  0  0  3  0  0  0  0  0  0
  183.2870  178.7360  145.0370 C   0  0  0  0  0  3  0  0  0  0  0  0
  183.0260  178.7880  143.5780 C   0  0  0  0  0  0  0  0  0  0  0  0
  184.1010  178.6730  142.6670 C   0  0  1  0  0  3  0  0  0  0  0  0
  187.0910  178.3570  139.9130 O   0  0  0  0  0  0  0  0  0  0  0  0
  180.1600  179.1600  141.2440 C   0  0  0  0  0  3  0  0  0  0  0  0
  181.7130  178.9500  143.0940 C   0  0  0  0  0  0  0  0  0  0  0  0
  187.0300  178.3970  137.4600 C   0  0  0  0  0  0  0  0  0  0  0  0
  188.1260  179.2480  137.1410 N   0  0  0  0  0  1  0  0  0  0  0  0
  186.5950  177.5920  136.5960 O   0  0  0  0  0  0  0  0  0  0  0  0
  187.2280  178.2680  146.4880 C   0  0  0  0  0  2  0  0  0  0  0  0
  188.5380  177.5270  146.6860 C   0  0  0  0  0  2  0  0  0  0  0  0
  190.6260  176.7870  145.3610 C   0  0  2  0  0  3  0  0  0  0  0  0
  190.2270  178.2030  145.0010 C   0  0  0  0  0  2  0  0  0  0  0  0
  189.1460  177.1940  145.3290 C   0  0  2  0  0  3  0  0  0  0  0  0
  192.2700  175.6460  146.8270 C   0  0  0  0  0  1  0  0  0  0  0  0
  191.2650  176.7760  146.7440 C   0  0  0  0  0  2  0  0  0  0  0  0
  2 13  2  0  0  0  0
  2  3  1  0  0  0  0
  4  8  1  0  0  0  0
  4 14  2  0  0  0  0
  5  1  1  0  0  0  0
  6  5  2  0  0  0  0
  7 11  1  0  0  0  0
  8 26  1  0  0  0  0
  9 22  1  0  0  0  0
 10 16  2  0  0  0  0
 10 20  1  0  0  0  0
 11  3  2  0  0  0  0
 11  9  1  0  0  0  0
 12  4  1  0  0  0  0
 13 15  1  0  0  0  0
 15 12  2  0  0  0  0
 16  2  1  0  0  0  0
 17 14  1  0  0  0  0
 18 17  2  0  0  0  0
 19  3  1  1  0  0  0
 19 12  1  0  0  0  0
 19 18  1  0  0  0  0
 20 13  1  0  0  0  0
 21  9  2  0  0  0  0
 21  6  1  0  0  0  0
 22 18  1  0  0  0  0
 22  1  2  0  0  0  0
 23 10  1  0  0  0  0
 24 23  1  0  0  0  0
 25 23  2  0  0  0  0
 26 27  1  0  0  0  0
 28 32  1  1  0  0  0
 29 30  1  0  0  0  0
 29 28  1  0  0  0  0
 30 28  1  0  0  0  0
 30 27  1  1  0  0  0
 32 31  1  0  0  0  0
M  END
>  <MODEL>
8

>  <REMARK>
 VINA RESULT:     -10.0      2.083      7.548
  Name = 
  5 active torsions:
  status: ('A' for Active; 'I' for Inactive)
    1  A    between atoms: C_2  and  C_16
    2  A    between atoms: C_3  and  C_29
    3  A    between atoms: C_12  and  C_28
    4  A    between atoms: N_13  and  C_17
    5  A    between atoms: C_17  and  C_28
                            x       y       z     vdW  Elec       q    Type
                         _______ _______ _______ _____ _____    ______ ____

>  <TORSDO>
F 5

$$$$
=
 OpenBabel11042413083D

 32 37  0  0  1  0  0  0  0  0999 V2000
  186.8990  177.7950  146.3090 C   0  0  0  0  0  3  0  0  0  0  0  0
  190.2320  177.5080  141.7800 C   0  0  0  0  0  0  0  0  0  0  0  0
  189.4340  177.5680  142.9350 C   0  0  0  0  0  0  0  0  0  0  0  0
  186.1420  178.6290  141.3080 C   0  0  0  0  0  0  0  0  0  0  0  0
  187.4240  177.4970  147.5660 C   0  0  0  0  0  3  0  0  0  0  0  0
  188.7290  177.1420  147.6940 N   0  0  0  0  0  0  0  0  0  0  0  0
  191.2590  176.9060  144.4050 O   0  0  0  0  0  1  0  0  0  0  0  0
  185.6650  178.9040  140.1290 N   0  0  0  0  0  0  0  0  0  0  0  0
  189.0760  177.3540  145.3330 C   0  0  0  0  0  0  0  0  0  0  0  0
  191.7620  177.3080  140.2400 C   0  0  0  0  0  0  0  0  0  0  0  0
  189.9280  177.2750  144.2220 C   0  0  0  0  0  0  0  0  0  0  0  0
  187.5620  178.2420  141.4680 C   0  0  0  0  0  0  0  0  0  0  0  0
  189.7290  177.7970  140.5400 C   0  0  0  0  0  0  0  0  0  0  0  0
  185.2950  178.6980  142.5150 C   0  0  0  0  0  3  0  0  0  0  0  0
  188.4050  178.1670  140.3440 C   0  0  0  0  0  3  0  0  0  0  0  0
  191.5680  177.1830  141.6150 C   0  0  0  0  0  3  0  0  0  0  0  0
  185.7970  178.4150  143.7170 C   0  0  0  0  0  3  0  0  0  0  0  0
  187.2170  178.0220  143.8930 C   0  0  0  0  0  0  0  0  0  0  0  0
  188.0690  177.9440  142.7670 C   0  0  0  0  0  0  0  0  0  0  0  0
  190.6530  177.6740  139.6260 O   0  0  0  0  0  0  0  0  0  0  0  0
  189.5540  177.0650  146.6170 C   0  0  0  0  0  3  0  0  0  0  0  0
  187.7210  177.7270  145.1750 C   0  0  0  0  0  0  0  0  0  0  0  0
  193.0300  177.0680  139.5440 C   0  0  0  0  0  0  0  0  0  0  0  0
  193.0440  176.7850  138.1490 N   0  0  0  0  0  1  0  0  0  0  0  0
  194.1150  177.1110  140.1810 O   0  0  0  0  0  0  0  0  0  0  0  0
  184.2810  179.2830  139.8700 C   0  0  0  0  0  2  0  0  0  0  0  0
  183.5650  178.1690  139.1270 C   0  0  0  0  0  2  0  0  0  0  0  0
  182.3280  175.9380  139.5210 C   0  0  2  0  0  3  0  0  0  0  0  0
  181.4420  177.1190  139.8620 C   0  0  0  0  0  2  0  0  0  0  0  0
  182.9310  177.2120  140.1290 C   0  0  2  0  0  3  0  0  0  0  0  0
  181.1570  175.2960  137.4290 C   0  0  0  0  0  1  0  0  0  0  0  0
  182.4560  175.8200  138.0070 C   0  0  0  0  0  2  0  0  0  0  0  0
  1  5  1  0  0  0  0
  2  3  1  0  0  0  0
  3 11  2  0  0  0  0
  4 12  1  0  0  0  0
  4 14  1  0  0  0  0
  5  6  2  0  0  0  0
  8  4  2  0  0  0  0
  9 21  2  0  0  0  0
 10 16  2  0  0  0  0
 11  7  1  0  0  0  0
 11  9  1  0  0  0  0
 12 19  1  0  0  0  0
 13  2  2  0  0  0  0
 14 17  2  0  0  0  0
 15 13  1  0  0  0  0
 15 12  2  0  0  0  0
 16  2  1  0  0  0  0
 17 18  1  0  0  0  0
 18 22  1  0  0  0  0
 19  3  1  0  0  0  0
 19 18  2  0  0  0  0
 20 10  1  0  0  0  0
 20 13  1  0  0  0  0
 21  6  1  0  0  0  0
 22  9  1  0  0  0  0
 22  1  2  0  0  0  0
 23 25  2  0  0  0  0
 23 10  1  0  0  0  0
 24 23  1  0  0  0  0
 26  8  1  0  0  0  0
 27 26  1  0  0  0  0
 28 32  1  6  0  0  0
 28 29  1  0  0  0  0
 28 30  1  0  0  0  0
 29 30  1  0  0  0  0
 30 27  1  6  0  0  0
 31 32  1  0  0  0  0
M  END
>  <MODEL>
9

>  <REMARK>
 VINA RESULT:      -9.8      2.362      3.337
  Name = 
  5 active torsions:
  status: ('A' for Active; 'I' for Inactive)
    1  A    between atoms: C_2  and  C_16
    2  A    between atoms: C_3  and  C_29
    3  A    between atoms: C_12  and  C_28
    4  A    between atoms: N_13  and  C_17
    5  A    between atoms: C_17  and  C_28
                            x       y       z     vdW  Elec       q    Type
                         _______ _______ _______ _____ _____    ______ ____

>  <TORSDO>
F 5

$$$$
