=
 OpenBabel11042412133D

 37 44  0  0  1  0  0  0  0  0999 V2000
  188.0320  174.3480  135.9900 N   0  0  2  0  0  0  0  0  0  0  0  0
  188.7900  176.3270  136.4850 C   0  0  2  0  0  3  0  0  0  0  0  0
  190.2290  174.6200  137.1970 C   0  0  2  0  0  3  0  0  0  0  0  0
  191.6390  174.5970  136.5490 C   0  0  1  0  0  0  0  0  0  0  0  0
  191.6230  173.9600  135.1670 C   0  0  0  0  0  1  0  0  0  0  0  0
  190.3690  177.0540  140.8650 C   0  0  0  0  0  0  0  0  0  0  0  0
  186.8700  177.4440  137.5450 S   0  0  0  0  0  0  0  0  0  0  0  0
  188.5280  176.5400  142.9100 C   0  0  0  0  0  0  0  0  0  0  0  0
  185.8840  174.7700  135.1380 C   0  0  0  0  0  2  0  0  0  0  0  0
  186.3830  173.4150  134.5940 C   0  0  1  0  0  3  0  0  0  0  0  0
  189.1610  175.0440  136.2290 C   0  0  1  0  0  3  0  0  0  0  0  0
  192.4610  176.5340  137.8570 C   0  0  2  0  0  3  0  0  0  0  0  0
  187.6420  176.2990  143.9050 F   0  0  0  0  0  0  0  0  0  0  0  0
  188.7110  178.8640  139.5720 S   0  0  0  0  0  0  0  0  0  0  0  0
  191.2420  177.2110  139.7430 N   0  0  0  0  0  2  0  0  0  0  0  0
  189.7620  175.8840  142.8980 C   0  0  0  0  0  3  0  0  0  0  0  0
  189.1220  177.6980  140.8660 C   0  0  0  0  0  0  0  0  0  0  0  0
  190.1250  175.7470  138.2790 C   0  0  1  0  0  3  0  0  0  0  0  0
  194.7480  174.3760  136.6580 O   0  0  0  0  0  1  0  0  0  0  0  0
  190.6770  176.1310  141.8710 C   0  0  0  0  0  3  0  0  0  0  0  0
  193.9190  174.4120  137.7800 C   0  0  2  0  0  3  0  0  0  0  0  0
  191.4320  176.1470  138.8450 N   0  0  1  0  0  0  0  0  0  0  0  0
  189.3230  176.8610  137.6360 C   0  0  2  0  0  3  0  0  0  0  0  0
  187.8240  173.2290  135.1030 C   0  0  0  0  0  2  0  0  0  0  0  0
  192.1340  176.0460  136.4380 C   0  0  0  0  0  2  0  0  0  0  0  0
  188.2060  177.4420  141.8900 C   0  0  0  0  0  3  0  0  0  0  0  0
  192.5680  173.7480  137.4490 C   0  0  0  0  0  2  0  0  0  0  0  0
  187.4370  176.4780  136.2850 C   0  0  2  0  0  3  0  0  0  0  0  0
  187.0040  175.1950  135.9990 C   0  0  2  0  0  3  0  0  0  0  0  0
  188.3680  177.6180  138.3230 C   0  0  2  0  0  3  0  0  0  0  0  0
  193.7780  175.8680  138.2750 C   0  0  0  0  0  2  0  0  0  0  0  0
  185.5140  172.2890  135.1240 C   0  0  0  0  0  2  0  0  0  0  0  0
  184.1950  172.7290  135.2580 O   0  0  0  0  0  0  0  0  0  0  0  0
  183.7170  172.2600  136.8160 P   0  0  0  0  0  0  0  0  0  0  0  0
  183.4340  170.7740  136.8410 O   0  0  0  0  0  0  0  0  0  0  0  0
  184.9360  172.6260  137.9310 O   0  0  0  0  0  1  0  0  0  0  0  0
  182.3110  173.1000  137.2350 O   0  0  0  0  0  1  0  0  0  0  0  0
  1 24  1  6  0  0  0
  1 29  1  0  0  0  0
  1 11  1  0  0  0  0
  2 23  1  0  0  0  0
  3 18  1  0  0  0  0
  4  3  1  0  0  0  0
  4 27  1  0  0  0  0
  5  4  1  0  0  0  0
  6 17  2  0  0  0  0
  6 20  1  0  0  0  0
  7 30  1  0  0  0  0
  8 13  1  0  0  0  0
  9 29  1  0  0  0  0
 10 24  1  0  0  0  0
 10 32  1  0  0  0  0
 10  9  1  0  0  0  0
 11  2  1  0  0  0  0
 11  3  1  0  0  0  0
 12 31  1  0  0  0  0
 12 22  1  0  0  0  0
 14 17  1  0  0  0  0
 15  6  1  0  0  0  0
 16  8  1  0  0  0  0
 17 26  1  0  0  0  0
 18 22  1  0  0  0  0
 19 21  1  0  0  0  0
 20 16  2  0  0  0  0
 21 31  1  0  0  0  0
 22 15  1  0  0  0  0
 23 18  1  0  0  0  0
 23 30  1  0  0  0  0
 25  4  1  0  0  0  0
 25 12  1  0  0  0  0
 26  8  2  0  0  0  0
 27 21  1  0  0  0  0
 28  2  1  0  0  0  0
 28  7  1  0  0  0  0
 29 28  1  0  0  0  0
 30 14  1  0  0  0  0
 32 33  1  0  0  0  0
 33 34  1  0  0  0  0
 34 35  2  0  0  0  0
 34 37  1  0  0  0  0
 34 36  1  0  0  0  0
M  END
>  <MODEL>
1

>  <REMARK>
 VINA RESULT:      -7.1      0.000      0.000
  Name = 
  3 active torsions:
  status: ('A' for Active; 'I' for Inactive)
    1  A    between atoms: P_3  and  O_19
    2  A    between atoms: C_11  and  C_33
    3  A    between atoms: O_19  and  C_33
                            x       y       z     vdW  Elec       q    Type
                         _______ _______ _______ _____ _____    ______ ____

>  <TORSDO>
F 3

$$$$
=
 OpenBabel11042412133D

 37 44  0  0  1  0  0  0  0  0999 V2000
  189.7430  176.7530  140.1530 N   0  0  2  0  0  0  0  0  0  0  0  0
  190.4830  177.3650  138.2000 C   0  0  2  0  0  3  0  0  0  0  0  0
  188.4060  176.2860  138.0670 C   0  0  2  0  0  3  0  0  0  0  0  0
  187.2250  177.1360  137.5270 C   0  0  1  0  0  0  0  0  0  0  0  0
  186.6430  178.0510  138.5950 C   0  0  0  0  0  1  0  0  0  0  0  0
  190.3450  174.2100  134.7010 C   0  0  0  0  0  0  0  0  0  0  0  0
  192.8000  176.5360  138.1630 S   0  0  0  0  0  0  0  0  0  0  0  0
  191.7100  171.8150  135.1860 C   0  0  0  0  0  0  0  0  0  0  0  0
  191.5310  177.2300  141.6020 C   0  0  0  0  0  2  0  0  0  0  0  0
  190.2190  177.2050  142.4140 C   0  0  1  0  0  3  0  0  0  0  0  0
  189.3540  177.0930  138.9090 C   0  0  1  0  0  3  0  0  0  0  0  0
  188.0020  177.0350  135.1770 C   0  0  2  0  0  3  0  0  0  0  0  0
  192.3730  170.6560  135.4090 F   0  0  0  0  0  0  0  0  0  0  0  0
  192.5730  175.7940  135.1780 S   0  0  0  0  0  0  0  0  0  0  0  0
  189.6220  175.4400  134.6000 N   0  0  0  0  0  2  0  0  0  0  0  0
  190.3530  171.7920  134.8540 C   0  0  0  0  0  3  0  0  0  0  0  0
  191.7030  174.2340  135.0550 C   0  0  0  0  0  0  0  0  0  0  0  0
  189.3470  175.8260  136.9040 C   0  0  1  0  0  3  0  0  0  0  0  0
  184.7280  177.5970  135.7170 O   0  0  0  0  0  1  0  0  0  0  0  0
  189.6670  172.9880  134.6240 C   0  0  0  0  0  3  0  0  0  0  0  0
  185.5400  176.4630  135.6690 C   0  0  2  0  0  3  0  0  0  0  0  0
  188.6810  175.7860  135.5830 N   0  0  1  0  0  0  0  0  0  0  0  0
  190.5730  176.7130  136.9910 C   0  0  2  0  0  3  0  0  0  0  0  0
  189.0730  176.9820  141.4100 C   0  0  0  0  0  2  0  0  0  0  0  0
  187.7470  177.9830  136.3580 C   0  0  0  0  0  2  0  0  0  0  0  0
  192.3830  173.0360  135.2920 C   0  0  0  0  0  3  0  0  0  0  0  0
  186.1060  176.1690  137.0730 C   0  0  0  0  0  2  0  0  0  0  0  0
  191.5830  177.3210  139.0250 C   0  0  2  0  0  3  0  0  0  0  0  0
  191.0640  176.9060  140.2400 C   0  0  2  0  0  3  0  0  0  0  0  0
  191.8740  176.2520  136.7690 C   0  0  2  0  0  3  0  0  0  0  0  0
  186.6340  176.6510  134.5970 C   0  0  0  0  0  2  0  0  0  0  0  0
  190.2460  176.0580  143.4080 C   0  0  0  0  0  2  0  0  0  0  0  0
  191.4880  176.0090  144.0440 O   0  0  0  0  0  0  0  0  0  0  0  0
  191.3200  176.9500  145.4440 P   0  0  0  0  0  0  0  0  0  0  0  0
  191.7870  178.3630  145.1730 O   0  0  0  0  0  0  0  0  0  0  0  0
  189.7000  176.9710  145.9360 O   0  0  0  0  0  1  0  0  0  0  0  0
  192.2640  176.2790  146.6750 O   0  0  0  0  0  1  0  0  0  0  0  0
  1 29  1  0  0  0  0
  1 24  1  1  0  0  0
  2 11  1  0  0  0  0
  2 28  1  0  0  0  0
  3 11  1  0  0  0  0
  4  3  1  0  0  0  0
  4  5  1  0  0  0  0
  6 17  1  0  0  0  0
  7 28  1  0  0  0  0
  8 26  1  0  0  0  0
  8 13  1  0  0  0  0
  9 10  1  0  0  0  0
 10 32  1  0  0  0  0
 11  1  1  0  0  0  0
 12 22  1  0  0  0  0
 12 25  1  0  0  0  0
 14 30  1  0  0  0  0
 15  6  1  0  0  0  0
 15 22  1  0  0  0  0
 16  8  2  0  0  0  0
 17 14  1  0  0  0  0
 17 26  2  0  0  0  0
 18 23  1  0  0  0  0
 18  3  1  0  0  0  0
 20  6  2  0  0  0  0
 20 16  1  0  0  0  0
 21 19  1  0  0  0  0
 21 27  1  0  0  0  0
 22 18  1  0  0  0  0
 23  2  1  0  0  0  0
 24 10  1  0  0  0  0
 25  4  1  0  0  0  0
 27  4  1  0  0  0  0
 28 29  1  0  0  0  0
 29  9  1  0  0  0  0
 30 23  1  0  0  0  0
 30  7  1  0  0  0  0
 31 12  1  0  0  0  0
 31 21  1  0  0  0  0
 32 33  1  0  0  0  0
 33 34  1  0  0  0  0
 34 36  1  0  0  0  0
 34 37  1  0  0  0  0
 35 34  2  0  0  0  0
M  END
>  <MODEL>
2

>  <REMARK>
 VINA RESULT:      -7.1      4.693      8.002
  Name = 
  3 active torsions:
  status: ('A' for Active; 'I' for Inactive)
    1  A    between atoms: P_3  and  O_19
    2  A    between atoms: C_11  and  C_33
    3  A    between atoms: O_19  and  C_33
                            x       y       z     vdW  Elec       q    Type
                         _______ _______ _______ _____ _____    ______ ____

>  <TORSDO>
F 3

$$$$
=
 OpenBabel11042412133D

 37 44  0  0  1  0  0  0  0  0999 V2000
  184.1070  178.2310  141.0600 N   0  0  2  0  0  0  0  0  0  0  0  0
  184.6440  178.5360  138.9730 C   0  0  2  0  0  3  0  0  0  0  0  0
  182.8650  177.0310  139.2240 C   0  0  2  0  0  3  0  0  0  0  0  0
  181.5100  177.4600  138.6020 C   0  0  1  0  0  0  0  0  0  0  0  0
  180.7590  178.4420  139.4900 C   0  0  0  0  0  1  0  0  0  0  0  0
  185.1510  174.7270  136.2460 C   0  0  0  0  0  0  0  0  0  0  0  0
  187.0870  178.2450  138.9460 S   0  0  0  0  0  0  0  0  0  0  0  0
  187.0370  172.8570  137.1290 C   0  0  0  0  0  0  0  0  0  0  0  0
  185.7710  179.3980  142.2410 C   0  0  0  0  0  2  0  0  0  0  0  0
  184.5180  179.2700  143.1330 C   0  0  1  0  0  3  0  0  0  0  0  0
  183.6230  178.1910  139.8040 C   0  0  1  0  0  3  0  0  0  0  0  0
  182.2360  177.0080  136.2770 C   0  0  2  0  0  3  0  0  0  0  0  0
  187.9510  171.9490  137.5450 F   0  0  0  0  0  0  0  0  0  0  0  0
  186.9690  176.8230  136.2120 S   0  0  0  0  0  0  0  0  0  0  0  0
  184.1640  175.7150  135.9370 N   0  0  0  0  0  2  0  0  0  0  0  0
  185.7140  172.4650  136.9090 C   0  0  0  0  0  3  0  0  0  0  0  0
  186.4750  175.1240  136.4870 C   0  0  0  0  0  0  0  0  0  0  0  0
  183.8600  176.5370  138.1200 C   0  0  1  0  0  3  0  0  0  0  0  0
  178.9340  176.9500  136.9200 O   0  0  0  0  0  1  0  0  0  0  0  0
  184.7680  173.4010  136.4790 C   0  0  0  0  0  3  0  0  0  0  0  0
  179.9810  176.0380  137.0570 C   0  0  2  0  0  3  0  0  0  0  0  0
  183.1910  176.0600  136.8900 N   0  0  1  0  0  0  0  0  0  0  0  0
  184.8530  177.6670  137.9270 C   0  0  2  0  0  3  0  0  0  0  0  0
  183.4300  178.5840  142.2850 C   0  0  0  0  0  2  0  0  0  0  0  0
  181.7980  178.1170  137.2450 C   0  0  0  0  0  2  0  0  0  0  0  0
  187.4160  174.1870  136.9240 C   0  0  0  0  0  3  0  0  0  0  0  0
  180.6310  176.1970  138.4460 C   0  0  0  0  0  2  0  0  0  0  0  0
  185.7430  178.9190  139.7070 C   0  0  2  0  0  3  0  0  0  0  0  0
  185.3600  178.6840  141.0170 C   0  0  2  0  0  3  0  0  0  0  0  0
  186.2200  177.4620  137.7160 C   0  0  2  0  0  3  0  0  0  0  0  0
  180.9800  176.2160  135.8930 C   0  0  0  0  0  2  0  0  0  0  0  0
  184.8280  178.4090  144.3440 C   0  0  0  0  0  2  0  0  0  0  0  0
  186.0160  178.8360  144.9400 O   0  0  0  0  0  0  0  0  0  0  0  0
  185.7870  178.6300  146.6070 P   0  0  0  0  0  0  0  0  0  0  0  0
  184.3900  178.1130  146.8740 O   0  0  0  0  0  0  0  0  0  0  0  0
  186.9250  177.5350  147.2170 O   0  0  0  0  0  1  0  0  0  0  0  0
  185.9840  180.1210  147.3780 O   0  0  0  0  0  1  0  0  0  0  0  0
  1 24  1  1  0  0  0
  2 28  1  0  0  0  0
  2 11  1  0  0  0  0
  3 11  1  0  0  0  0
  4  3  1  0  0  0  0
  4  5  1  0  0  0  0
  6 20  2  0  0  0  0
  6 17  1  0  0  0  0
  7 28  1  0  0  0  0
  8 13  1  0  0  0  0
  9 10  1  0  0  0  0
 10 32  1  0  0  0  0
 11  1  1  0  0  0  0
 12 22  1  0  0  0  0
 12 25  1  0  0  0  0
 14 17  1  0  0  0  0
 14 30  1  0  0  0  0
 15  6  1  0  0  0  0
 15 22  1  0  0  0  0
 16  8  2  0  0  0  0
 17 26  2  0  0  0  0
 18  3  1  0  0  0  0
 19 21  1  0  0  0  0
 20 16  1  0  0  0  0
 21 27  1  0  0  0  0
 22 18  1  0  0  0  0
 23 18  1  0  0  0  0
 23  2  1  0  0  0  0
 24 10  1  0  0  0  0
 25  4  1  0  0  0  0
 26  8  1  0  0  0  0
 27  4  1  0  0  0  0
 28 29  1  0  0  0  0
 29  1  1  0  0  0  0
 29  9  1  0  0  0  0
 30 23  1  0  0  0  0
 30  7  1  0  0  0  0
 31 12  1  0  0  0  0
 31 21  1  0  0  0  0
 32 33  1  0  0  0  0
 33 34  1  0  0  0  0
 34 35  2  0  0  0  0
 34 36  1  0  0  0  0
 34 37  1  0  0  0  0
M  END
>  <MODEL>
3

>  <REMARK>
 VINA RESULT:      -6.9      5.824      9.349
  Name = 
  3 active torsions:
  status: ('A' for Active; 'I' for Inactive)
    1  A    between atoms: P_3  and  O_19
    2  A    between atoms: C_11  and  C_33
    3  A    between atoms: O_19  and  C_33
                            x       y       z     vdW  Elec       q    Type
                         _______ _______ _______ _____ _____    ______ ____

>  <TORSDO>
F 3

$$$$
=
 OpenBabel11042412133D

 37 44  0  0  1  0  0  0  0  0999 V2000
  185.0080  178.1910  142.5580 N   0  0  2  0  0  0  0  0  0  0  0  0
  185.1460  178.9310  140.5160 C   0  0  2  0  0  3  0  0  0  0  0  0
  183.1880  177.6960  140.8840 C   0  0  2  0  0  3  0  0  0  0  0  0
  181.8510  178.4680  140.7300 C   0  0  1  0  0  0  0  0  0  0  0  0
  181.5220  179.2940  141.9660 C   0  0  0  0  0  1  0  0  0  0  0  0
  184.2730  175.9070  137.0090 C   0  0  0  0  0  0  0  0  0  0  0  0
  187.4160  178.2920  139.8110 S   0  0  0  0  0  0  0  0  0  0  0  0
  185.8760  173.6120  136.9710 C   0  0  0  0  0  0  0  0  0  0  0  0
  187.0860  178.7550  143.4990 C   0  0  0  0  0  2  0  0  0  0  0  0
  186.0490  178.5950  144.6300 C   0  0  1  0  0  3  0  0  0  0  0  0
  184.2730  178.5440  141.4850 C   0  0  1  0  0  3  0  0  0  0  0  0
  181.9640  178.5170  138.2560 C   0  0  2  0  0  3  0  0  0  0  0  0
  186.6500  172.5020  136.9420 F   0  0  0  0  0  0  0  0  0  0  0  0
  186.4360  177.6450  136.9600 S   0  0  0  0  0  0  0  0  0  0  0  0
  183.4690  177.0780  137.1750 N   0  0  0  0  0  2  0  0  0  0  0  0
  184.4840  173.4930  137.0150 C   0  0  0  0  0  3  0  0  0  0  0  0
  185.6720  176.0260  136.9850 C   0  0  0  0  0  0  0  0  0  0  0  0
  183.8060  177.3550  139.4870 C   0  0  1  0  0  3  0  0  0  0  0  0
  178.9310  178.7950  139.6860 O   0  0  0  0  0  1  0  0  0  0  0  0
  183.6830  174.6380  137.0460 C   0  0  0  0  0  3  0  0  0  0  0  0
  179.7730  177.7320  139.3580 C   0  0  2  0  0  3  0  0  0  0  0  0
  182.8100  177.3120  138.3930 N   0  0  1  0  0  0  0  0  0  0  0  0
  184.9470  178.3340  139.2920 C   0  0  2  0  0  3  0  0  0  0  0  0
  184.6900  178.3190  143.9600 C   0  0  0  0  0  2  0  0  0  0  0  0
  181.9770  179.3970  139.5140 C   0  0  0  0  0  2  0  0  0  0  0  0
  186.4690  174.8780  136.9630 C   0  0  0  0  0  3  0  0  0  0  0  0
  180.7180  177.4330  140.5390 C   0  0  0  0  0  2  0  0  0  0  0  0
  186.4300  178.9450  141.0120 C   0  0  2  0  0  3  0  0  0  0  0  0
  186.2890  178.4460  142.2960 C   0  0  2  0  0  3  0  0  0  0  0  0
  186.1670  177.9870  138.7030 C   0  0  2  0  0  3  0  0  0  0  0  0
  180.5200  178.0460  138.0430 C   0  0  0  0  0  2  0  0  0  0  0  0
  186.4220  177.4190  145.5140 C   0  0  0  0  0  2  0  0  0  0  0  0
  186.5500  177.8410  146.8390 O   0  0  0  0  0  0  0  0  0  0  0  0
  188.1700  177.5580  147.2510 P   0  0  0  0  0  0  0  0  0  0  0  0
  188.3360  176.1340  147.7340 O   0  0  0  0  0  1  0  0  0  0  0  0
  189.1640  177.8220  145.9070 O   0  0  0  0  0  0  0  0  0  0  0  0
  188.6160  178.6200  148.4880 O   0  0  0  0  0  1  0  0  0  0  0  0
  1 24  1  1  0  0  0
  2 28  1  0  0  0  0
  2 11  1  0  0  0  0
  3 11  1  0  0  0  0
  4  3  1  0  0  0  0
  4  5  1  0  0  0  0
  6 20  1  0  0  0  0
  6 15  1  0  0  0  0
  7 28  1  0  0  0  0
  8 16  1  0  0  0  0
  9 10  1  0  0  0  0
 10 32  1  0  0  0  0
 11  1  1  0  0  0  0
 12 22  1  0  0  0  0
 12 25  1  0  0  0  0
 13  8  1  0  0  0  0
 14 17  1  0  0  0  0
 14 30  1  0  0  0  0
 15 22  1  0  0  0  0
 16 20  2  0  0  0  0
 17  6  2  0  0  0  0
 18  3  1  0  0  0  0
 21 19  1  0  0  0  0
 21 27  1  0  0  0  0
 22 18  1  0  0  0  0
 23 18  1  0  0  0  0
 23  2  1  0  0  0  0
 24 10  1  0  0  0  0
 25  4  1  0  0  0  0
 26  8  2  0  0  0  0
 26 17  1  0  0  0  0
 27  4  1  0  0  0  0
 28 29  1  0  0  0  0
 29  1  1  0  0  0  0
 29  9  1  0  0  0  0
 30 23  1  0  0  0  0
 30  7  1  0  0  0  0
 31 12  1  0  0  0  0
 31 21  1  0  0  0  0
 32 33  1  0  0  0  0
 33 34  1  0  0  0  0
 34 35  1  0  0  0  0
 34 37  1  0  0  0  0
 36 34  2  0  0  0  0
M  END
>  <MODEL>
4

>  <REMARK>
 VINA RESULT:      -6.8      6.201      9.827
  Name = 
  3 active torsions:
  status: ('A' for Active; 'I' for Inactive)
    1  A    between atoms: P_3  and  O_19
    2  A    between atoms: C_11  and  C_33
    3  A    between atoms: O_19  and  C_33
                            x       y       z     vdW  Elec       q    Type
                         _______ _______ _______ _____ _____    ______ ____

>  <TORSDO>
F 3

$$$$
=
 OpenBabel11042412133D

 37 44  0  0  1  0  0  0  0  0999 V2000
  190.1240  176.8500  140.8190 N   0  0  2  0  0  0  0  0  0  0  0  0
  191.1470  177.5170  139.0180 C   0  0  2  0  0  3  0  0  0  0  0  0
  189.2010  176.3030  138.5370 C   0  0  2  0  0  3  0  0  0  0  0  0
  188.0780  177.0730  137.7950 C   0  0  1  0  0  0  0  0  0  0  0  0
  187.2600  177.9440  138.7390 C   0  0  0  0  0  1  0  0  0  0  0  0
  191.8270  174.3730  135.5730 C   0  0  0  0  0  0  0  0  0  0  0  0
  193.4860  176.8460  139.3880 S   0  0  0  0  0  0  0  0  0  0  0  0
  193.2440  172.0730  136.3050 C   0  0  0  0  0  0  0  0  0  0  0  0
  191.5990  177.4410  142.5510 C   0  0  0  0  0  2  0  0  0  0  0  0
  190.1710  177.3250  143.1240 C   0  0  1  0  0  3  0  0  0  0  0  0
  189.9340  177.1680  139.5230 C   0  0  1  0  0  3  0  0  0  0  0  0
  189.2540  177.0330  135.6140 C   0  0  2  0  0  3  0  0  0  0  0  0
  193.9340  170.9600  136.6490 F   0  0  0  0  0  0  0  0  0  0  0  0
  193.8280  176.1010  136.4150 S   0  0  0  0  0  0  0  0  0  0  0  0
  191.0510  175.5520  135.3390 N   0  0  0  0  0  2  0  0  0  0  0  0
  191.9690  171.9600  135.7440 C   0  0  0  0  0  3  0  0  0  0  0  0
  193.0980  174.4870  136.1560 C   0  0  0  0  0  0  0  0  0  0  0  0
  190.3570  175.9100  137.5570 C   0  0  1  0  0  3  0  0  0  0  0  0
  185.9060  177.3730  135.5770 O   0  0  0  0  0  1  0  0  0  0  0  0
  191.2550  173.1090  135.3900 C   0  0  0  0  0  3  0  0  0  0  0  0
  186.7870  176.2960  135.6790 C   0  0  2  0  0  3  0  0  0  0  0  0
  189.9340  175.8310  136.1420 N   0  0  1  0  0  0  0  0  0  0  0  0
  191.4880  176.8780  137.8480 C   0  0  2  0  0  3  0  0  0  0  0  0
  189.2330  177.0290  141.9390 C   0  0  0  0  0  2  0  0  0  0  0  0
  188.7360  177.9580  136.7260 C   0  0  0  0  0  2  0  0  0  0  0  0
  193.8060  173.3360  136.5170 C   0  0  0  0  0  3  0  0  0  0  0  0
  187.1210  176.0360  137.1620 C   0  0  0  0  0  2  0  0  0  0  0  0
  192.0890  177.5440  140.0210 C   0  0  2  0  0  3  0  0  0  0  0  0
  191.3960  177.0910  141.1310 C   0  0  2  0  0  3  0  0  0  0  0  0
  192.8360  176.5060  137.8580 C   0  0  2  0  0  3  0  0  0  0  0  0
  188.0360  176.5610  134.8110 C   0  0  0  0  0  2  0  0  0  0  0  0
  190.1020  176.1790  144.1170 C   0  0  0  0  0  2  0  0  0  0  0  0
  191.3720  175.9240  144.6390 O   0  0  0  0  0  0  0  0  0  0  0  0
  191.3730  176.6120  146.1880 P   0  0  0  0  0  0  0  0  0  0  0  0
  191.8240  178.0540  146.1100 O   0  0  0  0  0  0  0  0  0  0  0  0
  189.8200  176.5390  146.8570 O   0  0  0  0  0  1  0  0  0  0  0  0
  192.4420  175.7490  147.1730 O   0  0  0  0  0  1  0  0  0  0  0  0
  1 29  1  0  0  0  0
  1 24  1  1  0  0  0
  2 11  1  0  0  0  0
  2 28  1  0  0  0  0
  3 11  1  0  0  0  0
  4  3  1  0  0  0  0
  4  5  1  0  0  0  0
  6 17  1  0  0  0  0
  7 28  1  0  0  0  0
  8 26  1  0  0  0  0
  8 13  1  0  0  0  0
  9 10  1  0  0  0  0
 10 32  1  0  0  0  0
 11  1  1  0  0  0  0
 12 22  1  0  0  0  0
 12 25  1  0  0  0  0
 14 30  1  0  0  0  0
 15  6  1  0  0  0  0
 15 22  1  0  0  0  0
 16  8  2  0  0  0  0
 17 14  1  0  0  0  0
 17 26  2  0  0  0  0
 18 23  1  0  0  0  0
 18  3  1  0  0  0  0
 19 21  1  0  0  0  0
 20  6  2  0  0  0  0
 20 16  1  0  0  0  0
 21 27  1  0  0  0  0
 22 18  1  0  0  0  0
 23 30  1  0  0  0  0
 23  2  1  0  0  0  0
 24 10  1  0  0  0  0
 25  4  1  0  0  0  0
 27  4  1  0  0  0  0
 28 29  1  0  0  0  0
 29  9  1  0  0  0  0
 30  7  1  0  0  0  0
 31 12  1  0  0  0  0
 31 21  1  0  0  0  0
 32 33  1  0  0  0  0
 33 34  1  0  0  0  0
 34 36  1  0  0  0  0
 34 37  1  0  0  0  0
 35 34  2  0  0  0  0
M  END
>  <MODEL>
5

>  <REMARK>
 VINA RESULT:      -6.7      4.861      7.974
  Name = 
  3 active torsions:
  status: ('A' for Active; 'I' for Inactive)
    1  A    between atoms: P_3  and  O_19
    2  A    between atoms: C_11  and  C_33
    3  A    between atoms: O_19  and  C_33
                            x       y       z     vdW  Elec       q    Type
                         _______ _______ _______ _____ _____    ______ ____

>  <TORSDO>
F 3

$$$$
=
 OpenBabel11042412133D

 37 44  0  0  1  0  0  0  0  0999 V2000
  185.2340  178.1550  142.1940 N   0  0  2  0  0  0  0  0  0  0  0  0
  183.9910  179.1480  140.7090 C   0  0  2  0  0  3  0  0  0  0  0  0
  182.7190  178.0650  142.3520 C   0  0  2  0  0  3  0  0  0  0  0  0
  181.8240  178.9730  143.2360 C   0  0  1  0  0  0  0  0  0  0  0  0
  182.6150  179.6520  144.3450 C   0  0  0  0  0  1  0  0  0  0  0  0
  180.4010  176.7210  138.8560 C   0  0  0  0  0  0  0  0  0  0  0  0
  184.9310  178.3980  138.5610 S   0  0  0  0  0  0  0  0  0  0  0  0
  181.0930  174.3110  137.6110 C   0  0  0  0  0  0  0  0  0  0  0  0
  187.4130  178.3880  141.3470 C   0  0  0  0  0  2  0  0  0  0  0  0
  187.4880  178.1750  142.8730 C   0  0  1  0  0  3  0  0  0  0  0  0
  184.0250  178.7180  141.9990 C   0  0  1  0  0  3  0  0  0  0  0  0
  180.1430  179.3450  141.4530 C   0  0  2  0  0  3  0  0  0  0  0  0
  181.4180  173.1470  137.0010 F   0  0  0  0  0  0  0  0  0  0  0  0
  182.1240  178.2370  137.2960 S   0  0  0  0  0  0  0  0  0  0  0  0
  180.1630  177.9290  139.5830 N   0  0  0  0  0  2  0  0  0  0  0  0
  180.1560  174.3190  138.6480 C   0  0  0  0  0  3  0  0  0  0  0  0
  181.3570  176.7090  137.8280 C   0  0  0  0  0  0  0  0  0  0  0  0
  182.0870  177.8590  140.9350 C   0  0  1  0  0  3  0  0  0  0  0  0
  179.1410  179.7130  144.6450 O   0  0  0  0  0  1  0  0  0  0  0  0
  179.8190  175.5200  139.2790 C   0  0  0  0  0  3  0  0  0  0  0  0
  179.3080  178.6290  143.7820 C   0  0  2  0  0  3  0  0  0  0  0  0
  180.6210  178.0580  140.9050 N   0  0  1  0  0  0  0  0  0  0  0  0
  182.8850  178.7430  139.9960 C   0  0  2  0  0  3  0  0  0  0  0  0
  186.0380  178.1220  143.3920 C   0  0  0  0  0  2  0  0  0  0  0  0
  181.1930  180.0420  142.3310 C   0  0  0  0  0  2  0  0  0  0  0  0
  181.6970  175.5050  137.2060 C   0  0  0  0  0  3  0  0  0  0  0  0
  180.7460  178.0850  143.9010 C   0  0  0  0  0  2  0  0  0  0  0  0
  185.2220  178.9730  140.1180 C   0  0  2  0  0  3  0  0  0  0  0  0
  185.9610  178.3200  141.0910 C   0  0  2  0  0  3  0  0  0  0  0  0
  183.2400  178.3650  138.6980 C   0  0  2  0  0  3  0  0  0  0  0  0
  178.9310  179.0460  142.3440 C   0  0  0  0  0  2  0  0  0  0  0  0
  188.1800  176.8600  143.1810 C   0  0  0  0  0  2  0  0  0  0  0  0
  189.0940  177.0370  144.2220 O   0  0  0  0  0  0  0  0  0  0  0  0
  190.5950  176.5580  143.5950 P   0  0  0  0  0  0  0  0  0  0  0  0
  190.4450  175.2530  142.8440 O   0  0  0  0  0  1  0  0  0  0  0  0
  191.1930  177.7480  142.5510 O   0  0  0  0  0  0  0  0  0  0  0  0
  191.6810  176.3410  144.8710 O   0  0  0  0  0  1  0  0  0  0  0  0
  1 24  1  1  0  0  0
  2 11  1  0  0  0  0
  3  4  1  0  0  0  0
  4 27  1  0  0  0  0
  4  5  1  0  0  0  0
  6 20  1  0  0  0  0
  6 15  1  0  0  0  0
  7 30  1  0  0  0  0
  7 28  1  0  0  0  0
  8 16  1  0  0  0  0
  9 10  1  0  0  0  0
 10 32  1  0  0  0  0
 10 24  1  0  0  0  0
 11  1  1  0  0  0  0
 11  3  1  0  0  0  0
 12 25  1  0  0  0  0
 12 31  1  0  0  0  0
 13  8  1  0  0  0  0
 14 17  1  0  0  0  0
 14 30  1  0  0  0  0
 15 22  1  0  0  0  0
 16 20  2  0  0  0  0
 17  6  2  0  0  0  0
 18  3  1  0  0  0  0
 21 27  1  0  0  0  0
 21 19  1  0  0  0  0
 22 18  1  0  0  0  0
 22 12  1  0  0  0  0
 23  2  1  0  0  0  0
 23 18  1  0  0  0  0
 25  4  1  0  0  0  0
 26  8  2  0  0  0  0
 26 17  1  0  0  0  0
 28  2  1  0  0  0  0
 28 29  1  0  0  0  0
 29  9  1  0  0  0  0
 29  1  1  0  0  0  0
 30 23  1  0  0  0  0
 31 21  1  0  0  0  0
 32 33  1  0  0  0  0
 34 33  1  0  0  0  0
 34 37  1  0  0  0  0
 35 34  1  0  0  0  0
 36 34  2  0  0  0  0
M  END
>  <MODEL>
6

>  <REMARK>
 VINA RESULT:      -6.7      6.821     10.566
  Name = 
  3 active torsions:
  status: ('A' for Active; 'I' for Inactive)
    1  A    between atoms: P_3  and  O_19
    2  A    between atoms: C_11  and  C_33
    3  A    between atoms: O_19  and  C_33
                            x       y       z     vdW  Elec       q    Type
                         _______ _______ _______ _____ _____    ______ ____

>  <TORSDO>
F 3

$$$$
=
 OpenBabel11042412133D

 37 44  0  0  1  0  0  0  0  0999 V2000
  186.1770  178.0810  139.8110 N   0  0  2  0  0  0  0  0  0  0  0  0
  185.5430  178.1900  137.7320 C   0  0  2  0  0  3  0  0  0  0  0  0
  183.8030  177.5360  139.1600 C   0  0  2  0  0  3  0  0  0  0  0  0
  182.5870  178.4960  139.2440 C   0  0  1  0  0  0  0  0  0  0  0  0
  182.8530  179.6780  140.1660 C   0  0  0  0  0  1  0  0  0  0  0  0
  183.0820  174.5720  135.9830 C   0  0  0  0  0  0  0  0  0  0  0  0
  187.2750  176.9270  136.5230 S   0  0  0  0  0  0  0  0  0  0  0  0
  184.3340  172.0740  136.1440 C   0  0  0  0  0  0  0  0  0  0  0  0
  188.4970  178.4380  139.7070 C   0  0  0  0  0  2  0  0  0  0  0  0
  187.9940  178.8110  141.1170 C   0  0  1  0  0  3  0  0  0  0  0  0
  185.1050  178.2720  139.0170 C   0  0  1  0  0  3  0  0  0  0  0  0
  181.6980  177.8430  137.0250 C   0  0  2  0  0  3  0  0  0  0  0  0
  184.9350  170.8630  136.2120 F   0  0  0  0  0  0  0  0  0  0  0  0
  185.1790  175.7430  134.5940 S   0  0  0  0  0  0  0  0  0  0  0  0
  182.5140  175.8840  136.0250 N   0  0  0  0  0  2  0  0  0  0  0  0
  183.0730  172.2630  136.7160 C   0  0  0  0  0  3  0  0  0  0  0  0
  184.3570  174.3880  135.4260 C   0  0  0  0  0  0  0  0  0  0  0  0
  183.7750  176.7070  137.8330 C   0  0  1  0  0  3  0  0  0  0  0  0
  179.5320  179.1240  139.2600 O   0  0  0  0  0  1  0  0  0  0  0  0
  182.4520  173.5130  136.6470 C   0  0  0  0  0  3  0  0  0  0  0  0
  180.0780  177.8610  139.0270 C   0  0  2  0  0  3  0  0  0  0  0  0
  182.4230  176.5730  137.2450 N   0  0  1  0  0  0  0  0  0  0  0  0
  184.8190  177.3360  136.9320 C   0  0  2  0  0  3  0  0  0  0  0  0
  186.4630  178.6500  141.1060 C   0  0  0  0  0  2  0  0  0  0  0  0
  182.2910  179.0110  137.8280 C   0  0  0  0  0  2  0  0  0  0  0  0
  184.9780  173.1380  135.5050 C   0  0  0  0  0  3  0  0  0  0  0  0
  181.3900  177.7070  139.8230 C   0  0  0  0  0  2  0  0  0  0  0  0
  186.9140  178.0730  137.7050 C   0  0  2  0  0  3  0  0  0  0  0  0
  187.2600  177.9830  139.0420 C   0  0  2  0  0  3  0  0  0  0  0  0
  185.6650  176.5970  136.0990 C   0  0  2  0  0  3  0  0  0  0  0  0
  180.2560  177.6430  137.5090 C   0  0  0  0  0  2  0  0  0  0  0  0
  188.5910  177.8700  142.1480 C   0  0  0  0  0  2  0  0  0  0  0  0
  189.7420  178.4360  142.6990 O   0  0  0  0  0  0  0  0  0  0  0  0
  190.9440  177.2490  142.5590 P   0  0  0  0  0  0  0  0  0  0  0  0
  191.8510  177.2900  143.7700 O   0  0  0  0  0  1  0  0  0  0  0  0
  190.2340  175.7170  142.4340 O   0  0  0  0  0  1  0  0  0  0  0  0
  191.8580  177.5520  141.1700 O   0  0  0  0  0  0  0  0  0  0  0  0
  1 24  1  1  0  0  0
  2 11  1  0  0  0  0
  3  4  1  0  0  0  0
  4 27  1  0  0  0  0
  4  5  1  0  0  0  0
  6 15  1  0  0  0  0
  6 20  1  0  0  0  0
  7 28  1  0  0  0  0
  8 13  1  0  0  0  0
  8 16  1  0  0  0  0
  9 10  1  0  0  0  0
 10 32  1  0  0  0  0
 11  3  1  0  0  0  0
 11  1  1  0  0  0  0
 12 22  1  0  0  0  0
 12 31  1  0  0  0  0
 12 25  1  0  0  0  0
 14 17  1  0  0  0  0
 14 30  1  0  0  0  0
 15 22  1  0  0  0  0
 17 26  1  0  0  0  0
 17  6  2  0  0  0  0
 18  3  1  0  0  0  0
 20 16  2  0  0  0  0
 21 19  1  0  0  0  0
 21 27  1  0  0  0  0
 22 18  1  0  0  0  0
 23  2  1  0  0  0  0
 23 18  1  0  0  0  0
 24 10  1  0  0  0  0
 25  4  1  0  0  0  0
 26  8  2  0  0  0  0
 28  2  1  0  0  0  0
 28 29  1  0  0  0  0
 29  9  1  0  0  0  0
 29  1  1  0  0  0  0
 30  7  1  0  0  0  0
 30 23  1  0  0  0  0
 31 21  1  0  0  0  0
 32 33  1  0  0  0  0
 34 33  1  0  0  0  0
 34 35  1  0  0  0  0
 36 34  1  0  0  0  0
 37 34  2  0  0  0  0
M  END
>  <MODEL>
7

>  <REMARK>
 VINA RESULT:      -6.4      5.248      9.244
  Name = 
  3 active torsions:
  status: ('A' for Active; 'I' for Inactive)
    1  A    between atoms: P_3  and  O_19
    2  A    between atoms: C_11  and  C_33
    3  A    between atoms: O_19  and  C_33
                            x       y       z     vdW  Elec       q    Type
                         _______ _______ _______ _____ _____    ______ ____

>  <TORSDO>
F 3

$$$$
=
 OpenBabel11042412133D

 37 44  0  0  1  0  0  0  0  0999 V2000
  185.0950  178.0660  141.4240 N   0  0  2  0  0  0  0  0  0  0  0  0
  185.1740  178.6250  139.3220 C   0  0  2  0  0  3  0  0  0  0  0  0
  183.2030  177.4790  139.8650 C   0  0  2  0  0  3  0  0  0  0  0  0
  181.8800  178.2700  139.6920 C   0  0  1  0  0  0  0  0  0  0  0  0
  181.6160  179.2080  140.8620 C   0  0  0  0  0  1  0  0  0  0  0  0
  184.1000  175.3370  136.1220 C   0  0  0  0  0  0  0  0  0  0  0  0
  187.4000  177.8680  138.5960 S   0  0  0  0  0  0  0  0  0  0  0  0
  185.6450  173.0050  136.2270 C   0  0  0  0  0  0  0  0  0  0  0  0
  187.2200  178.6530  142.2390 C   0  0  0  0  0  2  0  0  0  0  0  0
  186.2220  178.6180  143.4150 C   0  0  1  0  0  3  0  0  0  0  0  0
  184.3290  178.3460  140.3510 C   0  0  1  0  0  3  0  0  0  0  0  0
  181.9010  178.1040  137.2200 C   0  0  2  0  0  3  0  0  0  0  0  0
  186.3910  171.8760  136.2660 F   0  0  0  0  0  0  0  0  0  0  0  0
  186.3000  177.0050  135.8470 S   0  0  0  0  0  0  0  0  0  0  0  0
  183.3300  176.5390  136.2150 N   0  0  0  0  0  2  0  0  0  0  0  0
  184.2530  172.9270  136.3300 C   0  0  0  0  0  3  0  0  0  0  0  0
  185.4980  175.4160  136.0390 C   0  0  0  0  0  0  0  0  0  0  0  0
  183.7590  177.0040  138.4810 C   0  0  1  0  0  3  0  0  0  0  0  0
  178.9310  178.5850  138.7260 O   0  0  0  0  0  1  0  0  0  0  0  0
  183.4810  174.0920  136.2900 C   0  0  0  0  0  3  0  0  0  0  0  0
  179.7340  177.4750  138.4620 C   0  0  2  0  0  3  0  0  0  0  0  0
  182.7230  176.8930  137.4310 N   0  0  1  0  0  0  0  0  0  0  0  0
  184.9160  177.9310  138.1620 C   0  0  2  0  0  3  0  0  0  0  0  0
  184.8330  178.3220  142.8200 C   0  0  0  0  0  2  0  0  0  0  0  0
  181.9820  179.0880  138.3960 C   0  0  0  0  0  2  0  0  0  0  0  0
  186.2670  174.2490  136.0880 C   0  0  0  0  0  3  0  0  0  0  0  0
  180.7160  177.2540  139.6300 C   0  0  0  0  0  2  0  0  0  0  0  0
  186.4750  178.6470  139.7700 C   0  0  2  0  0  3  0  0  0  0  0  0
  186.3710  178.2630  141.0960 C   0  0  2  0  0  3  0  0  0  0  0  0
  186.1040  177.5020  137.5630 C   0  0  2  0  0  3  0  0  0  0  0  0
  180.4390  177.6570  137.1000 C   0  0  0  0  0  2  0  0  0  0  0  0
  186.6000  177.5120  144.3840 C   0  0  0  0  0  2  0  0  0  0  0  0
  187.2720  178.0500  145.4830 O   0  0  0  0  0  0  0  0  0  0  0  0
  188.8650  177.4810  145.3640 P   0  0  0  0  0  0  0  0  0  0  0  0
  189.8000  178.6300  145.0590 O   0  0  0  0  0  1  0  0  0  0  0  0
  189.3260  176.7430  146.8160 O   0  0  0  0  0  1  0  0  0  0  0  0
  188.9520  176.3470  144.1140 O   0  0  0  0  0  0  0  0  0  0  0  0
  1 24  1  1  0  0  0
  2 28  1  0  0  0  0
  2 11  1  0  0  0  0
  3 11  1  0  0  0  0
  4  3  1  0  0  0  0
  4  5  1  0  0  0  0
  6 15  1  0  0  0  0
  6 20  1  0  0  0  0
  7 28  1  0  0  0  0
  8 13  1  0  0  0  0
  8 16  1  0  0  0  0
  9 10  1  0  0  0  0
 10 32  1  0  0  0  0
 11  1  1  0  0  0  0
 12 22  1  0  0  0  0
 12 25  1  0  0  0  0
 14 17  1  0  0  0  0
 14 30  1  0  0  0  0
 15 22  1  0  0  0  0
 17 26  1  0  0  0  0
 17  6  2  0  0  0  0
 18  3  1  0  0  0  0
 20 16  2  0  0  0  0
 21 19  1  0  0  0  0
 21 27  1  0  0  0  0
 22 18  1  0  0  0  0
 23 18  1  0  0  0  0
 23  2  1  0  0  0  0
 24 10  1  0  0  0  0
 25  4  1  0  0  0  0
 26  8  2  0  0  0  0
 27  4  1  0  0  0  0
 28 29  1  0  0  0  0
 29  1  1  0  0  0  0
 29  9  1  0  0  0  0
 30 23  1  0  0  0  0
 30  7  1  0  0  0  0
 31 12  1  0  0  0  0
 31 21  1  0  0  0  0
 32 33  1  0  0  0  0
 34 33  1  0  0  0  0
 34 36  1  0  0  0  0
 35 34  1  0  0  0  0
 37 34  2  0  0  0  0
M  END
>  <MODEL>
8

>  <REMARK>
 VINA RESULT:      -6.3      5.736      9.491
  Name = 
  3 active torsions:
  status: ('A' for Active; 'I' for Inactive)
    1  A    between atoms: P_3  and  O_19
    2  A    between atoms: C_11  and  C_33
    3  A    between atoms: O_19  and  C_33
                            x       y       z     vdW  Elec       q    Type
                         _______ _______ _______ _____ _____    ______ ____

>  <TORSDO>
F 3

$$$$
=
 OpenBabel11042412133D

 37 44  0  0  1  0  0  0  0  0999 V2000
  186.5390  177.9590  142.7470 N   0  0  2  0  0  0  0  0  0  0  0  0
  185.9990  178.8940  140.8570 C   0  0  2  0  0  3  0  0  0  0  0  0
  184.1800  177.8140  141.8670 C   0  0  2  0  0  3  0  0  0  0  0  0
  182.9900  178.7180  142.2830 C   0  0  1  0  0  0  0  0  0  0  0  0
  183.2500  179.4370  143.5990 C   0  0  0  0  0  1  0  0  0  0  0  0
  183.5120  176.3490  137.7670 C   0  0  0  0  0  0  0  0  0  0  0  0
  187.7440  178.1250  139.3010 S   0  0  0  0  0  0  0  0  0  0  0  0
  184.6830  173.9320  136.9780 C   0  0  0  0  0  0  0  0  0  0  0  0
  188.8700  178.2260  142.8570 C   0  0  0  0  0  2  0  0  0  0  0  0
  188.3180  178.0450  144.2860 C   0  0  1  0  0  3  0  0  0  0  0  0
  185.5080  178.4900  142.0600 C   0  0  1  0  0  3  0  0  0  0  0  0
  182.1800  179.0160  139.9600 C   0  0  2  0  0  3  0  0  0  0  0  0
  185.2450  172.7640  136.5870 F   0  0  0  0  0  0  0  0  0  0  0  0
  185.7010  177.8740  137.0050 S   0  0  0  0  0  0  0  0  0  0  0  0
  182.9810  177.5660  138.3000 N   0  0  0  0  0  2  0  0  0  0  0  0
  183.4040  173.9390  137.5420 C   0  0  0  0  0  3  0  0  0  0  0  0
  184.8040  176.3400  137.2190 C   0  0  0  0  0  0  0  0  0  0  0  0
  184.1850  177.5660  140.3210 C   0  0  1  0  0  3  0  0  0  0  0  0
  179.9570  179.4230  142.4540 O   0  0  0  0  0  1  0  0  0  0  0  0
  182.8230  175.1440  137.9480 C   0  0  0  0  0  3  0  0  0  0  0  0
  180.4750  178.3260  141.7640 C   0  0  2  0  0  3  0  0  0  0  0  0
  182.8570  177.7300  139.6900 N   0  0  1  0  0  0  0  0  0  0  0  0
  185.2860  178.4500  139.7670 C   0  0  2  0  0  3  0  0  0  0  0  0
  186.7840  177.9680  144.1680 C   0  0  0  0  0  2  0  0  0  0  0  0
  182.7700  179.7540  141.1710 C   0  0  0  0  0  2  0  0  0  0  0  0
  185.3850  175.1320  136.8230 C   0  0  0  0  0  3  0  0  0  0  0  0
  181.7460  177.8190  142.4740 C   0  0  0  0  0  2  0  0  0  0  0  0
  187.3660  178.7370  140.8250 C   0  0  2  0  0  3  0  0  0  0  0  0
  187.6510  178.1200  142.0320 C   0  0  2  0  0  3  0  0  0  0  0  0
  186.1450  178.0550  138.7370 C   0  0  2  0  0  3  0  0  0  0  0  0
  180.7130  178.7070  140.2860 C   0  0  0  0  0  2  0  0  0  0  0  0
  188.8410  176.7530  144.8850 C   0  0  0  0  0  2  0  0  0  0  0  0
  189.6280  177.0320  146.0050 O   0  0  0  0  0  0  0  0  0  0  0  0
  191.2330  176.8760  145.4830 P   0  0  0  0  0  0  0  0  0  0  0  0
  191.7810  178.2310  145.0930 O   0  0  0  0  0  1  0  0  0  0  0  0
  192.1820  176.2120  146.7170 O   0  0  0  0  0  1  0  0  0  0  0  0
  191.2770  175.8520  144.1380 O   0  0  0  0  0  0  0  0  0  0  0  0
  1 24  1  1  0  0  0
  2 11  1  0  0  0  0
  3 11  1  0  0  0  0
  3  4  1  0  0  0  0
  4 27  1  0  0  0  0
  4  5  1  0  0  0  0
  6 20  1  0  0  0  0
  6 15  1  0  0  0  0
  7 28  1  0  0  0  0
  8 16  1  0  0  0  0
  9 10  1  0  0  0  0
 10 32  1  0  0  0  0
 11  1  1  0  0  0  0
 12 31  1  0  0  0  0
 12 25  1  0  0  0  0
 13  8  1  0  0  0  0
 14 17  1  0  0  0  0
 14 30  1  0  0  0  0
 15 22  1  0  0  0  0
 16 20  2  0  0  0  0
 17  6  2  0  0  0  0
 18  3  1  0  0  0  0
 21 19  1  0  0  0  0
 21 27  1  0  0  0  0
 22 12  1  0  0  0  0
 22 18  1  0  0  0  0
 23 18  1  0  0  0  0
 23  2  1  0  0  0  0
 24 10  1  0  0  0  0
 25  4  1  0  0  0  0
 26  8  2  0  0  0  0
 26 17  1  0  0  0  0
 28  2  1  0  0  0  0
 28 29  1  0  0  0  0
 29  1  1  0  0  0  0
 29  9  1  0  0  0  0
 30  7  1  0  0  0  0
 30 23  1  0  0  0  0
 31 21  1  0  0  0  0
 32 33  1  0  0  0  0
 34 33  1  0  0  0  0
 34 36  1  0  0  0  0
 35 34  1  0  0  0  0
 37 34  2  0  0  0  0
M  END
>  <MODEL>
9

>  <REMARK>
 VINA RESULT:      -6.0      5.944      9.767
  Name = 
  3 active torsions:
  status: ('A' for Active; 'I' for Inactive)
    1  A    between atoms: P_3  and  O_19
    2  A    between atoms: C_11  and  C_33
    3  A    between atoms: O_19  and  C_33
                            x       y       z     vdW  Elec       q    Type
                         _______ _______ _______ _____ _____    ______ ____

>  <TORSDO>
F 3

$$$$
