=
 OpenBabel11032421023D

 46 51  0  0  1  0  0  0  0  0999 V2000
  186.5690  176.0010  134.5940 O   0  0  0  0  0  1  0  0  0  0  0  0
  186.5730  176.6010  135.8470 C   0  0  0  0  0  0  0  0  0  0  0  0
  190.1320  177.5150  137.8290 C   0  0  0  0  0  2  0  0  0  0  0  0
  186.5600  177.8610  138.3060 N   0  0  0  0  0  0  0  0  0  0  0  0
  187.6850  177.2160  137.8990 C   0  0  0  0  0  0  0  0  0  0  0  0
  188.9200  174.3260  136.8360 C   0  0  1  0  0  3  0  0  0  0  0  0
  188.9210  177.2740  138.7330 C   0  0  1  0  0  3  0  0  0  0  0  0
  185.4320  177.2670  136.2900 C   0  0  0  0  0  3  0  0  0  0  0  0
  185.4350  177.9110  137.5370 C   0  0  0  0  0  0  0  0  0  0  0  0
  190.1470  173.4920  136.4250 C   0  0  0  0  0  2  0  0  0  0  0  0
  189.0770  176.0880  139.4540 O   0  0  0  0  0  1  0  0  0  0  0  0
  190.2570  176.5120  136.6620 C   0  0  1  0  0  3  0  0  0  0  0  0
  191.4470  175.5800  136.9200 C   0  0  1  0  0  3  0  0  0  0  0  0
  187.7100  176.5490  136.6650 C   0  0  0  0  0  0  0  0  0  0  0  0
  188.9410  175.7660  136.2660 C   0  0  2  0  0  3  0  0  0  0  0  0
  191.3630  174.3360  136.0450 C   0  0  0  0  0  2  0  0  0  0  0  0
  186.4300  173.9690  137.0760 C   0  0  0  0  0  3  0  0  0  0  0  0
  186.5450  171.7380  135.4390 C   0  0  0  0  0  0  0  0  0  0  0  0
  187.6580  173.5740  136.5320 C   0  0  0  0  0  0  0  0  0  0  0  0
  185.3630  172.1380  135.9820 N   0  0  0  0  0  0  0  0  0  0  0  0
  185.2770  173.2280  136.7920 C   0  0  0  0  0  0  0  0  0  0  0  0
  187.7160  172.4480  135.7100 C   0  0  0  0  0  3  0  0  0  0  0  0
  186.5890  170.5930  134.5970 N   0  0  0  0  0  1  0  0  0  0  0  0
  181.4750  173.3430  137.4280 C   0  0  0  0  0  1  0  0  0  0  0  0
  183.9280  174.4770  138.2870 O   0  0  0  0  0  0  0  0  0  0  0  0
  183.9820  173.6140  137.3690 C   0  0  0  0  0  0  0  0  0  0  0  0
  182.7810  173.0000  136.8920 N   0  0  0  0  0  2  0  0  0  0  0  0
  183.3460  178.2870  140.3140 N   0  0  0  0  0  0  0  0  0  0  0  0
  183.0530  177.6220  138.1400 C   0  0  0  0  0  3  0  0  0  0  0  0
  185.1060  179.8200  139.9960 O   0  0  0  0  0  0  0  0  0  0  0  0
  184.3060  178.9670  139.5290 C   0  0  0  0  0  0  0  0  0  0  0  0
  184.2030  178.5950  138.0810 C   0  0  1  0  0  3  0  0  0  0  0  0
  182.6290  177.4760  139.3910 C   0  0  0  0  0  0  0  0  0  0  0  0
  183.3810  178.1670  141.7630 C   0  0  0  0  0  1  0  0  0  0  0  0
  180.1820  177.0870  139.9630 C   0  0  0  0  0  1  0  0  0  0  0  0
  181.5360  176.6160  139.7300 N   0  0  0  0  0  2  0  0  0  0  0  0
  192.6950  176.2860  136.6580 N   0  0  0  0  0  2  0  0  0  0  0  0
  194.2410  174.9340  137.9760 C   0  0  0  0  0  3  0  0  0  0  0  0
  195.7430  173.5850  139.2920 O   0  0  0  0  0  1  0  0  0  0  0  0
  197.1950  175.3910  134.9930 C   0  0  0  0  0  1  0  0  0  0  0  0
  197.5940  173.9340  137.3040 O   0  0  0  0  0  0  0  0  0  0  0  0
  194.9840  175.8160  135.8630 C   0  0  0  0  0  3  0  0  0  0  0  0
  196.1950  175.2200  136.0360 N   0  0  0  0  0  0  0  0  0  0  0  0
  193.9800  175.6850  136.8310 C   0  0  0  0  0  0  0  0  0  0  0  0
  195.4870  174.3300  138.1470 C   0  0  0  0  0  0  0  0  0  0  0  0
  196.4660  174.4800  137.1550 C   0  0  0  0  0  0  0  0  0  0  0  0
  1  2  1  0  0  0  0
  2  8  2  0  0  0  0
  2 14  1  0  0  0  0
  3  7  1  0  0  0  0
  5  4  1  0  0  0  0
  5  7  1  0  0  0  0
  6 19  1  6  0  0  0
  7 11  1  6  0  0  0
  8  9  1  0  0  0  0
  9  4  2  0  0  0  0
 10  6  1  0  0  0  0
 12 13  1  0  0  0  0
 12  3  1  1  0  0  0
 13 37  1  6  0  0  0
 14  5  2  0  0  0  0
 15 12  1  0  0  0  0
 15 14  1  1  0  0  0
 15  6  1  0  0  0  0
 16 10  1  0  0  0  0
 16 13  1  0  0  0  0
 18 22  2  0  0  0  0
 18 20  1  0  0  0  0
 19 17  2  0  0  0  0
 20 21  2  0  0  0  0
 21 17  1  0  0  0  0
 21 26  1  0  0  0  0
 22 19  1  0  0  0  0
 23 18  1  0  0  0  0
 26 25  2  0  0  0  0
 27 26  1  0  0  0  0
 27 24  1  0  0  0  0
 28 34  1  0  0  0  0
 29 33  2  0  0  0  0
 31 30  2  0  0  0  0
 31 28  1  0  0  0  0
 32  9  1  1  0  0  0
 32 29  1  0  0  0  0
 32 31  1  0  0  0  0
 33 36  1  0  0  0  0
 33 28  1  0  0  0  0
 36 35  1  0  0  0  0
 37 44  1  0  0  0  0
 38 45  2  0  0  0  0
 40 43  1  0  0  0  0
 42 43  1  0  0  0  0
 42 44  2  0  0  0  0
 43 46  1  0  0  0  0
 44 38  1  0  0  0  0
 45 39  1  0  0  0  0
 46 41  2  0  0  0  0
 46 45  1  0  0  0  0
M  END
>  <MODEL>
1

>  <REMARK>
 VINA RESULT:      -6.9      0.000      0.000
  Name = 
  6 active torsions:
  status: ('A' for Active; 'I' for Inactive)
    1  A    between atoms: C_10  and  C_23
    2  A    between atoms: N_17  and  C_38
    3  A    between atoms: N_17  and  C_39
    4  A    between atoms: C_18  and  C_20
    5  A    between atoms: C_28  and  C_33
    6  A    between atoms: C_36  and  N_43
                            x       y       z     vdW  Elec       q    Type
                         _______ _______ _______ _____ _____    ______ ____

>  <TORSDO>
F 6

$$$$
=
 OpenBabel11032421023D

 46 51  0  0  1  0  0  0  0  0999 V2000
  188.2180  178.6960  136.3850 O   0  0  0  0  0  1  0  0  0  0  0  0
  188.7130  178.3190  137.6270 C   0  0  0  0  0  0  0  0  0  0  0  0
  192.5180  176.6540  138.0560 C   0  0  0  0  0  2  0  0  0  0  0  0
  189.7080  177.6450  140.1140 N   0  0  0  0  0  0  0  0  0  0  0  0
  190.2880  177.1170  139.0040 C   0  0  0  0  0  0  0  0  0  0  0  0
  189.7490  175.3810  136.2290 C   0  0  1  0  0  3  0  0  0  0  0  0
  191.5040  176.2610  139.1330 C   0  0  1  0  0  3  0  0  0  0  0  0
  188.1360  178.8450  138.7820 C   0  0  0  0  0  3  0  0  0  0  0  0
  188.6520  178.5040  140.0410 C   0  0  0  0  0  0  0  0  0  0  0  0
  190.3210  174.6910  134.9780 C   0  0  0  0  0  2  0  0  0  0  0  0
  191.1630  174.9120  139.0150 O   0  0  0  0  0  1  0  0  0  0  0  0
  191.9460  176.6510  136.6220 C   0  0  1  0  0  3  0  0  0  0  0  0
  192.5420  175.4740  135.8400 C   0  0  1  0  0  3  0  0  0  0  0  0
  189.7870  177.4240  137.7310 C   0  0  0  0  0  0  0  0  0  0  0  0
  190.3900  176.7610  136.5130 C   0  0  2  0  0  3  0  0  0  0  0  0
  191.7190  175.1750  134.5950 C   0  0  0  0  0  2  0  0  0  0  0  0
  187.4770  174.4170  136.7710 C   0  0  0  0  0  3  0  0  0  0  0  0
  186.2260  176.4620  135.3840 C   0  0  0  0  0  0  0  0  0  0  0  0
  188.2510  175.4130  136.1630 C   0  0  0  0  0  0  0  0  0  0  0  0
  185.4950  175.4830  135.9800 N   0  0  0  0  0  0  0  0  0  0  0  0
  186.0810  174.4640  136.6650 C   0  0  0  0  0  0  0  0  0  0  0  0
  187.6200  176.4410  135.4610 C   0  0  0  0  0  3  0  0  0  0  0  0
  185.5710  177.5090  134.6790 N   0  0  0  0  0  1  0  0  0  0  0  0
  183.2030  171.9500  137.1860 C   0  0  0  0  0  1  0  0  0  0  0  0
  185.5940  172.9010  138.3790 O   0  0  0  0  0  0  0  0  0  0  0  0
  185.2520  173.4180  137.2800 C   0  0  0  0  0  0  0  0  0  0  0  0
  184.0590  172.9810  136.6230 N   0  0  0  0  0  2  0  0  0  0  0  0
  187.0890  177.5810  143.0280 N   0  0  0  0  0  0  0  0  0  0  0  0
  186.5210  178.8930  141.2360 C   0  0  0  0  0  3  0  0  0  0  0  0
  189.4170  177.9390  143.0240 O   0  0  0  0  0  0  0  0  0  0  0  0
  188.2840  178.1290  142.5070 C   0  0  0  0  0  0  0  0  0  0  0  0
  188.0220  179.0040  141.3200 C   0  0  1  0  0  3  0  0  0  0  0  0
  186.0590  178.0870  142.1870 C   0  0  0  0  0  0  0  0  0  0  0  0
  187.0120  176.4570  143.9490 C   0  0  0  0  0  1  0  0  0  0  0  0
  183.7320  178.7200  142.9930 C   0  0  0  0  0  1  0  0  0  0  0  0
  184.6630  177.8140  142.3430 N   0  0  0  0  0  2  0  0  0  0  0  0
  193.9170  175.7760  135.4640 N   0  0  0  0  0  2  0  0  0  0  0  0
  194.8570  174.1960  137.0690 C   0  0  0  0  0  3  0  0  0  0  0  0
  195.7570  172.6200  138.6540 O   0  0  0  0  0  1  0  0  0  0  0  0
  198.7120  174.8600  135.4760 C   0  0  0  0  0  1  0  0  0  0  0  0
  198.2170  173.1130  137.5560 O   0  0  0  0  0  0  0  0  0  0  0  0
  196.3370  175.2890  135.5160 C   0  0  0  0  0  3  0  0  0  0  0  0
  197.3950  174.6140  136.0430 N   0  0  0  0  0  0  0  0  0  0  0  0
  195.0440  175.0930  136.0180 C   0  0  0  0  0  0  0  0  0  0  0  0
  195.9480  173.5110  137.6050 C   0  0  0  0  0  0  0  0  0  0  0  0
  197.2270  173.7310  137.0750 C   0  0  0  0  0  0  0  0  0  0  0  0
  1  2  1  0  0  0  0
  2 14  2  0  0  0  0
  2  8  1  0  0  0  0
  3  7  1  0  0  0  0
  5  7  1  0  0  0  0
  5  4  2  0  0  0  0
  6 19  1  6  0  0  0
  6 15  1  0  0  0  0
  7 11  1  6  0  0  0
  8  9  2  0  0  0  0
  9  4  1  0  0  0  0
 10  6  1  0  0  0  0
 12  3  1  1  0  0  0
 13 37  1  6  0  0  0
 13 12  1  0  0  0  0
 14  5  1  0  0  0  0
 15 12  1  0  0  0  0
 15 14  1  1  0  0  0
 16 10  1  0  0  0  0
 16 13  1  0  0  0  0
 18 22  2  0  0  0  0
 18 20  1  0  0  0  0
 19 17  2  0  0  0  0
 20 21  2  0  0  0  0
 21 17  1  0  0  0  0
 21 26  1  0  0  0  0
 22 19  1  0  0  0  0
 23 18  1  0  0  0  0
 26 25  2  0  0  0  0
 27 24  1  0  0  0  0
 27 26  1  0  0  0  0
 28 34  1  0  0  0  0
 29 32  1  0  0  0  0
 29 33  2  0  0  0  0
 31 30  2  0  0  0  0
 31 28  1  0  0  0  0
 32  9  1  6  0  0  0
 32 31  1  0  0  0  0
 33 36  1  0  0  0  0
 33 28  1  0  0  0  0
 36 35  1  0  0  0  0
 37 44  1  0  0  0  0
 38 45  2  0  0  0  0
 40 43  1  0  0  0  0
 42 44  2  0  0  0  0
 42 43  1  0  0  0  0
 43 46  1  0  0  0  0
 44 38  1  0  0  0  0
 45 39  1  0  0  0  0
 46 41  2  0  0  0  0
 46 45  1  0  0  0  0
M  END
>  <MODEL>
2

>  <REMARK>
 VINA RESULT:      -6.2      2.340      3.197
  Name = 
  6 active torsions:
  status: ('A' for Active; 'I' for Inactive)
    1  A    between atoms: C_10  and  C_23
    2  A    between atoms: N_17  and  C_38
    3  A    between atoms: N_17  and  C_39
    4  A    between atoms: C_18  and  C_20
    5  A    between atoms: C_28  and  C_33
    6  A    between atoms: C_36  and  N_43
                            x       y       z     vdW  Elec       q    Type
                         _______ _______ _______ _____ _____    ______ ____

>  <TORSDO>
F 6

$$$$
=
 OpenBabel11032421023D

 46 51  0  0  1  0  0  0  0  0999 V2000
  187.9320  178.5290  136.5290 O   0  0  0  0  0  1  0  0  0  0  0  0
  188.5410  178.2250  137.7410 C   0  0  0  0  0  0  0  0  0  0  0  0
  192.4470  176.7600  137.9250 C   0  0  0  0  0  2  0  0  0  0  0  0
  189.7600  177.6990  140.1630 N   0  0  0  0  0  0  0  0  0  0  0  0
  190.2780  177.1550  139.0300 C   0  0  0  0  0  0  0  0  0  0  0  0
  189.6110  175.2850  136.3720 C   0  0  1  0  0  3  0  0  0  0  0  0
  191.5410  176.3620  139.0930 C   0  0  1  0  0  3  0  0  0  0  0  0
  188.0300  178.7690  138.9180 C   0  0  0  0  0  3  0  0  0  0  0  0
  188.6600  178.5030  140.1440 C   0  0  0  0  0  0  0  0  0  0  0  0
  190.1180  174.5740  135.1050 C   0  0  0  0  0  2  0  0  0  0  0  0
  191.2600  174.9960  139.0510 O   0  0  0  0  0  1  0  0  0  0  0  0
  191.7650  176.6730  136.5420 C   0  0  1  0  0  3  0  0  0  0  0  0
  192.3580  175.4950  135.7580 C   0  0  1  0  0  3  0  0  0  0  0  0
  189.6640  177.3870  137.7910 C   0  0  0  0  0  0  0  0  0  0  0  0
  190.2020  176.7050  136.5530 C   0  0  2  0  0  3  0  0  0  0  0  0
  191.4560  175.1080  134.5940 C   0  0  0  0  0  2  0  0  0  0  0  0
  187.3380  176.2110  135.7700 C   0  0  0  0  0  3  0  0  0  0  0  0
  186.0880  174.2080  137.2190 C   0  0  0  0  0  0  0  0  0  0  0  0
  188.1130  175.2440  136.4240 C   0  0  0  0  0  0  0  0  0  0  0  0
  185.3550  175.1590  136.5790 N   0  0  0  0  0  0  0  0  0  0  0  0
  185.9420  176.1570  135.8620 C   0  0  0  0  0  0  0  0  0  0  0  0
  187.4820  174.2370  137.1560 C   0  0  0  0  0  3  0  0  0  0  0  0
  185.4330  173.1830  137.9550 N   0  0  0  0  0  1  0  0  0  0  0  0
  182.8190  178.0320  134.5970 C   0  0  0  0  0  1  0  0  0  0  0  0
  185.6520  178.1480  134.6100 O   0  0  0  0  0  0  0  0  0  0  0  0
  185.1120  177.1720  135.2000 C   0  0  0  0  0  0  0  0  0  0  0  0
  183.6870  177.0560  135.2340 N   0  0  0  0  0  2  0  0  0  0  0  0
  187.3190  177.6270  143.2510 N   0  0  0  0  0  0  0  0  0  0  0  0
  186.6060  178.8830  141.4710 C   0  0  0  0  0  3  0  0  0  0  0  0
  189.6340  178.0280  143.0800 O   0  0  0  0  0  0  0  0  0  0  0  0
  188.4650  178.1830  142.6370 C   0  0  0  0  0  0  0  0  0  0  0  0
  188.1070  179.0230  141.4490 C   0  0  1  0  0  3  0  0  0  0  0  0
  186.2250  178.0920  142.4690 C   0  0  0  0  0  0  0  0  0  0  0  0
  187.3280  176.5250  144.2010 C   0  0  0  0  0  1  0  0  0  0  0  0
  183.7840  178.7830  142.6470 C   0  0  0  0  0  1  0  0  0  0  0  0
  184.8480  177.7970  142.7260 N   0  0  0  0  0  2  0  0  0  0  0  0
  193.6820  175.8460  135.2620 N   0  0  0  0  0  2  0  0  0  0  0  0
  196.1190  175.7750  135.3750 C   0  0  0  0  0  3  0  0  0  0  0  0
  198.5260  175.7360  135.4780 O   0  0  0  0  0  1  0  0  0  0  0  0
  195.9060  172.5730  138.1200 C   0  0  0  0  0  1  0  0  0  0  0  0
  198.2900  173.6650  137.2540 O   0  0  0  0  0  0  0  0  0  0  0  0
  194.8520  174.2020  136.6840 C   0  0  0  0  0  3  0  0  0  0  0  0
  196.0070  173.6740  137.1750 N   0  0  0  0  0  0  0  0  0  0  0  0
  194.8840  175.2650  135.7720 C   0  0  0  0  0  0  0  0  0  0  0  0
  197.2970  175.2260  135.8810 C   0  0  0  0  0  0  0  0  0  0  0  0
  197.2260  174.1640  136.7930 C   0  0  0  0  0  0  0  0  0  0  0  0
  1  2  1  0  0  0  0
  2 14  2  0  0  0  0
  2  8  1  0  0  0  0
  3  7  1  0  0  0  0
  5  7  1  0  0  0  0
  5  4  2  0  0  0  0
  6 19  1  6  0  0  0
  6 15  1  0  0  0  0
  7 11  1  6  0  0  0
  8  9  2  0  0  0  0
  9  4  1  0  0  0  0
 10  6  1  0  0  0  0
 12 15  1  0  0  0  0
 12  3  1  1  0  0  0
 13 37  1  6  0  0  0
 13 12  1  0  0  0  0
 14  5  1  0  0  0  0
 15 14  1  1  0  0  0
 16 10  1  0  0  0  0
 16 13  1  0  0  0  0
 17 21  2  0  0  0  0
 17 19  1  0  0  0  0
 18 23  1  0  0  0  0
 19 22  2  0  0  0  0
 20 18  2  0  0  0  0
 21 20  1  0  0  0  0
 22 18  1  0  0  0  0
 24 27  1  0  0  0  0
 25 26  2  0  0  0  0
 26 27  1  0  0  0  0
 26 21  1  0  0  0  0
 28 34  1  0  0  0  0
 29 33  2  0  0  0  0
 31 30  2  0  0  0  0
 31 28  1  0  0  0  0
 32  9  1  6  0  0  0
 32 29  1  0  0  0  0
 32 31  1  0  0  0  0
 33 36  1  0  0  0  0
 33 28  1  0  0  0  0
 35 36  1  0  0  0  0
 37 44  1  0  0  0  0
 38 44  1  0  0  0  0
 38 45  2  0  0  0  0
 39 45  1  0  0  0  0
 42 43  1  0  0  0  0
 43 40  1  0  0  0  0
 44 42  2  0  0  0  0
 45 46  1  0  0  0  0
 46 43  1  0  0  0  0
 46 41  2  0  0  0  0
M  END
>  <MODEL>
3

>  <REMARK>
 VINA RESULT:      -5.8      2.560      3.584
  Name = 
  6 active torsions:
  status: ('A' for Active; 'I' for Inactive)
    1  A    between atoms: C_10  and  C_23
    2  A    between atoms: N_17  and  C_38
    3  A    between atoms: N_17  and  C_39
    4  A    between atoms: C_18  and  C_20
    5  A    between atoms: C_28  and  C_33
    6  A    between atoms: C_36  and  N_43
                            x       y       z     vdW  Elec       q    Type
                         _______ _______ _______ _____ _____    ______ ____

>  <TORSDO>
F 6

$$$$
=
 OpenBabel11032421023D

 46 51  0  0  1  0  0  0  0  0999 V2000
  188.5350  175.9240  142.9990 O   0  0  0  0  0  1  0  0  0  0  0  0
  187.9790  176.9660  142.2670 C   0  0  0  0  0  0  0  0  0  0  0  0
  188.5480  177.2960  138.1440 C   0  0  0  0  0  2  0  0  0  0  0  0
  186.8020  179.0020  140.8180 N   0  0  0  0  0  0  0  0  0  0  0  0
  187.8450  178.3200  140.2750 C   0  0  0  0  0  0  0  0  0  0  0  0
  190.9940  177.3790  140.7200 C   0  0  1  0  0  3  0  0  0  0  0  0
  188.2800  178.6130  138.8770 C   0  0  1  0  0  3  0  0  0  0  0  0
  186.9090  177.6820  142.8020 C   0  0  0  0  0  3  0  0  0  0  0  0
  186.3120  178.7100  142.0560 C   0  0  0  0  0  0  0  0  0  0  0  0
  192.2510  176.6880  140.1610 C   0  0  0  0  0  2  0  0  0  0  0  0
  189.4240  179.4120  138.8820 O   0  0  0  0  0  1  0  0  0  0  0  0
  189.5250  176.3540  138.8790 C   0  0  1  0  0  3  0  0  0  0  0  0
  190.8530  176.3030  138.1140 C   0  0  1  0  0  3  0  0  0  0  0  0
  188.4750  177.2980  140.9990 C   0  0  0  0  0  0  0  0  0  0  0  0
  189.6870  176.6080  140.4140 C   0  0  2  0  0  3  0  0  0  0  0  0
  191.9660  175.7460  138.9920 C   0  0  0  0  0  2  0  0  0  0  0  0
  191.5380  176.7020  143.0930 C   0  0  0  0  0  3  0  0  0  0  0  0
  191.1330  179.2960  143.9750 C   0  0  0  0  0  0  0  0  0  0  0  0
  191.1820  177.6970  142.1730 C   0  0  0  0  0  0  0  0  0  0  0  0
  191.4760  178.3130  144.8500 N   0  0  0  0  0  0  0  0  0  0  0  0
  191.6780  177.0300  144.4460 C   0  0  0  0  0  0  0  0  0  0  0  0
  190.9740  179.0030  142.6190 C   0  0  0  0  0  3  0  0  0  0  0  0
  190.9310  180.6240  144.4410 N   0  0  0  0  0  1  0  0  0  0  0  0
  192.3990  175.3400  147.8370 C   0  0  0  0  0  1  0  0  0  0  0  0
  192.3070  174.8260  145.0500 O   0  0  0  0  0  0  0  0  0  0  0  0
  192.0330  175.9970  145.4300 C   0  0  0  0  0  0  0  0  0  0  0  0
  192.0570  176.3220  146.8230 N   0  0  0  0  0  2  0  0  0  0  0  0
  183.6000  178.7770  144.2610 N   0  0  0  0  0  0  0  0  0  0  0  0
  183.8740  179.1320  142.0120 C   0  0  0  0  0  3  0  0  0  0  0  0
  185.6990  179.5390  145.0120 O   0  0  0  0  0  0  0  0  0  0  0  0
  184.9050  179.2880  144.0670 C   0  0  0  0  0  0  0  0  0  0  0  0
  185.1890  179.5500  142.6190 C   0  0  1  0  0  3  0  0  0  0  0  0
  183.0420  178.7000  142.9540 C   0  0  0  0  0  0  0  0  0  0  0  0
  183.1270  178.1230  145.4700 C   0  0  0  0  0  1  0  0  0  0  0  0
  180.6200  179.1450  142.3160 C   0  0  0  0  0  1  0  0  0  0  0  0
  181.7160  178.2520  142.6540 N   0  0  0  0  0  2  0  0  0  0  0  0
  190.7060  175.4810  136.9200 N   0  0  0  0  0  2  0  0  0  0  0  0
  191.7670  173.3720  136.3010 C   0  0  0  0  0  3  0  0  0  0  0  0
  192.7850  171.2760  135.6870 O   0  0  0  0  0  1  0  0  0  0  0  0
  194.9970  175.4900  134.5940 C   0  0  0  0  0  1  0  0  0  0  0  0
  194.8350  172.7340  134.6050 O   0  0  0  0  0  0  0  0  0  0  0  0
  192.8810  175.4340  135.7530 C   0  0  0  0  0  3  0  0  0  0  0  0
  193.8970  174.7370  135.1760 N   0  0  0  0  0  0  0  0  0  0  0  0
  191.7930  174.7660  136.3280 C   0  0  0  0  0  0  0  0  0  0  0  0
  192.8140  172.6650  135.7100 C   0  0  0  0  0  0  0  0  0  0  0  0
  193.8850  173.3690  135.1420 C   0  0  0  0  0  0  0  0  0  0  0  0
  2  8  1  0  0  0  0
  2  1  1  0  0  0  0
  3  7  1  0  0  0  0
  4  9  1  0  0  0  0
  5  4  2  0  0  0  0
  5 14  1  0  0  0  0
  6 19  1  1  0  0  0
  7 11  1  1  0  0  0
  7  5  1  0  0  0  0
  9  8  2  0  0  0  0
 10  6  1  0  0  0  0
 12  3  1  6  0  0  0
 12 15  1  0  0  0  0
 13 37  1  6  0  0  0
 13 12  1  0  0  0  0
 13 16  1  0  0  0  0
 14  2  2  0  0  0  0
 15  6  1  0  0  0  0
 15 14  1  6  0  0  0
 16 10  1  0  0  0  0
 17 21  1  0  0  0  0
 18 23  1  0  0  0  0
 18 20  1  0  0  0  0
 19 22  1  0  0  0  0
 19 17  2  0  0  0  0
 21 20  2  0  0  0  0
 21 26  1  0  0  0  0
 22 18  2  0  0  0  0
 25 26  2  0  0  0  0
 26 27  1  0  0  0  0
 27 24  1  0  0  0  0
 28 34  1  0  0  0  0
 29 32  1  0  0  0  0
 29 33  2  0  0  0  0
 31 28  1  0  0  0  0
 31 30  2  0  0  0  0
 32  9  1  6  0  0  0
 32 31  1  0  0  0  0
 33 28  1  0  0  0  0
 35 36  1  0  0  0  0
 36 33  1  0  0  0  0
 38 44  1  0  0  0  0
 39 45  1  0  0  0  0
 40 43  1  0  0  0  0
 41 46  2  0  0  0  0
 42 44  2  0  0  0  0
 43 42  1  0  0  0  0
 44 37  1  0  0  0  0
 45 38  2  0  0  0  0
 46 43  1  0  0  0  0
 46 45  1  0  0  0  0
M  END
>  <MODEL>
4

>  <REMARK>
 VINA RESULT:      -5.6      4.299      6.818
  Name = 
  6 active torsions:
  status: ('A' for Active; 'I' for Inactive)
    1  A    between atoms: C_10  and  C_23
    2  A    between atoms: N_17  and  C_38
    3  A    between atoms: N_17  and  C_39
    4  A    between atoms: C_18  and  C_20
    5  A    between atoms: C_28  and  C_33
    6  A    between atoms: C_36  and  N_43
                            x       y       z     vdW  Elec       q    Type
                         _______ _______ _______ _____ _____    ______ ____

>  <TORSDO>
F 6

$$$$
=
 OpenBabel11032421023D

 46 51  0  0  1  0  0  0  0  0999 V2000
  189.0470  179.4420  137.5370 O   0  0  0  0  0  1  0  0  0  0  0  0
  188.6320  178.2710  136.9130 C   0  0  0  0  0  0  0  0  0  0  0  0
  184.5870  177.3900  136.3690 C   0  0  0  0  0  2  0  0  0  0  0  0
  187.8310  175.9740  135.6040 N   0  0  0  0  0  0  0  0  0  0  0  0
  186.9360  176.6380  136.3830 C   0  0  0  0  0  0  0  0  0  0  0  0
  186.3530  177.8410  139.4200 C   0  0  1  0  0  3  0  0  0  0  0  0
  185.5180  176.1780  136.4490 C   0  0  1  0  0  3  0  0  0  0  0  0
  189.5300  177.5700  136.1100 C   0  0  0  0  0  3  0  0  0  0  0  0
  189.1130  176.4080  135.4430 C   0  0  0  0  0  0  0  0  0  0  0  0
  185.3830  178.5260  140.3980 C   0  0  0  0  0  2  0  0  0  0  0  0
  185.2930  175.4650  137.6280 O   0  0  0  0  0  1  0  0  0  0  0  0
  184.8970  178.4910  137.4070 C   0  0  1  0  0  3  0  0  0  0  0  0
  183.7860  178.5190  138.4630 C   0  0  1  0  0  3  0  0  0  0  0  0
  187.3240  177.7940  137.0770 C   0  0  0  0  0  0  0  0  0  0  0  0
  186.3420  178.4710  138.0060 C   0  0  2  0  0  3  0  0  0  0  0  0
  184.2390  179.2690  139.7090 C   0  0  0  0  0  2  0  0  0  0  0  0
  188.7820  177.1470  139.3390 C   0  0  0  0  0  3  0  0  0  0  0  0
  189.2010  178.1470  141.8870 C   0  0  0  0  0  0  0  0  0  0  0  0
  187.7210  177.7480  140.0280 C   0  0  0  0  0  0  0  0  0  0  0  0
  190.2160  177.5560  141.2000 N   0  0  0  0  0  0  0  0  0  0  0  0
  190.0380  177.0530  139.9480 C   0  0  0  0  0  0  0  0  0  0  0  0
  187.9320  178.2480  141.3140 C   0  0  0  0  0  3  0  0  0  0  0  0
  189.4320  178.6600  143.1930 N   0  0  0  0  0  1  0  0  0  0  0  0
  193.6050  176.4010  138.6360 C   0  0  0  0  0  1  0  0  0  0  0  0
  190.9770  175.3380  138.6080 O   0  0  0  0  0  0  0  0  0  0  0  0
  191.1600  176.4090  139.2490 C   0  0  0  0  0  0  0  0  0  0  0  0
  192.4620  176.9960  139.3060 N   0  0  0  0  0  2  0  0  0  0  0  0
  191.7150  174.0750  135.5150 N   0  0  0  0  0  0  0  0  0  0  0  0
  191.4490  176.1850  134.6590 C   0  0  0  0  0  3  0  0  0  0  0  0
  189.5000  173.3050  135.2900 O   0  0  0  0  0  0  0  0  0  0  0  0
  190.3500  174.2270  135.1760 C   0  0  0  0  0  0  0  0  0  0  0  0
  190.0670  175.5850  134.6090 C   0  0  1  0  0  3  0  0  0  0  0  0
  192.3140  175.3210  135.1800 C   0  0  0  0  0  0  0  0  0  0  0  0
  192.2550  173.0300  136.3700 C   0  0  0  0  0  1  0  0  0  0  0  0
  194.3560  176.7530  134.6790 C   0  0  0  0  0  1  0  0  0  0  0  0
  193.7030  175.6310  135.3330 N   0  0  0  0  0  2  0  0  0  0  0  0
  182.5940  179.1500  137.9120 N   0  0  0  0  0  2  0  0  0  0  0  0
  181.1810  181.1050  138.2830 C   0  0  0  0  0  3  0  0  0  0  0  0
  179.7840  183.0400  138.6170 O   0  0  0  0  0  1  0  0  0  0  0  0
  179.7840  179.4200  141.8950 C   0  0  0  0  0  1  0  0  0  0  0  0
  178.9350  181.8690  140.9410 O   0  0  0  0  0  0  0  0  0  0  0  0
  181.1650  179.3370  139.9160 C   0  0  0  0  0  3  0  0  0  0  0  0
  180.2500  180.0230  140.6550 N   0  0  0  0  0  0  0  0  0  0  0  0
  181.6500  179.8650  138.7130 C   0  0  0  0  0  0  0  0  0  0  0  0
  180.2460  181.8020  139.0480 C   0  0  0  0  0  0  0  0  0  0  0  0
  179.7820  181.2420  140.2460 C   0  0  0  0  0  0  0  0  0  0  0  0
  2 14  1  0  0  0  0
  2  1  1  0  0  0  0
  3  7  1  0  0  0  0
  4  5  1  0  0  0  0
  5  7  1  0  0  0  0
  5 14  2  0  0  0  0
  6 19  1  1  0  0  0
  6 10  1  0  0  0  0
  7 11  1  1  0  0  0
  8  2  2  0  0  0  0
  9  4  2  0  0  0  0
  9  8  1  0  0  0  0
 12  3  1  1  0  0  0
 12 15  1  0  0  0  0
 12 13  1  0  0  0  0
 13 37  1  6  0  0  0
 13 16  1  0  0  0  0
 15 14  1  6  0  0  0
 15  6  1  0  0  0  0
 16 10  1  0  0  0  0
 17 21  2  0  0  0  0
 17 19  1  0  0  0  0
 18 23  1  0  0  0  0
 19 22  2  0  0  0  0
 20 18  2  0  0  0  0
 21 20  1  0  0  0  0
 22 18  1  0  0  0  0
 24 27  1  0  0  0  0
 25 26  2  0  0  0  0
 26 27  1  0  0  0  0
 26 21  1  0  0  0  0
 28 34  1  0  0  0  0
 29 33  2  0  0  0  0
 31 30  2  0  0  0  0
 31 28  1  0  0  0  0
 32 29  1  0  0  0  0
 32 31  1  0  0  0  0
 32  9  1  1  0  0  0
 33 36  1  0  0  0  0
 33 28  1  0  0  0  0
 35 36  1  0  0  0  0
 37 44  1  0  0  0  0
 38 44  1  0  0  0  0
 38 45  2  0  0  0  0
 39 45  1  0  0  0  0
 42 43  1  0  0  0  0
 43 40  1  0  0  0  0
 44 42  2  0  0  0  0
 45 46  1  0  0  0  0
 46 43  1  0  0  0  0
 46 41  2  0  0  0  0
M  END
>  <MODEL>
5

>  <REMARK>
 VINA RESULT:      -5.5      3.009     10.585
  Name = 
  6 active torsions:
  status: ('A' for Active; 'I' for Inactive)
    1  A    between atoms: C_10  and  C_23
    2  A    between atoms: N_17  and  C_38
    3  A    between atoms: N_17  and  C_39
    4  A    between atoms: C_18  and  C_20
    5  A    between atoms: C_28  and  C_33
    6  A    between atoms: C_36  and  N_43
                            x       y       z     vdW  Elec       q    Type
                         _______ _______ _______ _____ _____    ______ ____

>  <TORSDO>
F 6

$$$$
=
 OpenBabel11032421023D

 46 51  0  0  1  0  0  0  0  0999 V2000
  189.1810  179.4410  137.9340 O   0  0  0  0  0  1  0  0  0  0  0  0
  188.7010  178.3360  137.2420 C   0  0  0  0  0  0  0  0  0  0  0  0
  184.6140  177.5360  136.9520 C   0  0  0  0  0  2  0  0  0  0  0  0
  187.7640  176.1740  135.7990 N   0  0  0  0  0  0  0  0  0  0  0  0
  186.9450  176.7700  136.7060 C   0  0  0  0  0  0  0  0  0  0  0  0
  186.6260  177.6920  139.8770 C   0  0  1  0  0  3  0  0  0  0  0  0
  185.5300  176.3150  136.8450 C   0  0  1  0  0  3  0  0  0  0  0  0
  189.5210  177.7050  136.3080 C   0  0  0  0  0  3  0  0  0  0  0  0
  189.0350  176.6120  135.5730 C   0  0  0  0  0  0  0  0  0  0  0  0
  185.7480  178.2910  140.9900 C   0  0  0  0  0  2  0  0  0  0  0  0
  185.3910  175.4980  137.9680 O   0  0  0  0  0  1  0  0  0  0  0  0
  185.0220  178.5340  138.0570 C   0  0  1  0  0  3  0  0  0  0  0  0
  184.0000  178.4730  139.1990 C   0  0  1  0  0  3  0  0  0  0  0  0
  187.4040  177.8540  137.4680 C   0  0  0  0  0  0  0  0  0  0  0  0
  186.5090  178.4500  138.5320 C   0  0  2  0  0  3  0  0  0  0  0  0
  184.5620  179.1020  140.4670 C   0  0  0  0  0  2  0  0  0  0  0  0
  188.4050  177.9140  141.6570 C   0  0  0  0  0  3  0  0  0  0  0  0
  190.3200  176.8910  139.9370 C   0  0  0  0  0  0  0  0  0  0  0  0
  188.0370  177.5340  140.3600 C   0  0  0  0  0  0  0  0  0  0  0  0
  190.6560  177.2690  141.2000 N   0  0  0  0  0  0  0  0  0  0  0  0
  189.7370  177.7780  142.0660 C   0  0  0  0  0  0  0  0  0  0  0  0
  189.0040  177.0230  139.4930 C   0  0  0  0  0  3  0  0  0  0  0  0
  191.3130  176.3640  139.0660 N   0  0  0  0  0  1  0  0  0  0  0  0
  189.9810  177.8780  145.9130 C   0  0  0  0  0  1  0  0  0  0  0  0
  190.9790  179.1240  143.5700 O   0  0  0  0  0  0  0  0  0  0  0  0
  190.1480  178.1880  143.4160 C   0  0  0  0  0  0  0  0  0  0  0  0
  189.6090  177.5140  144.5570 N   0  0  0  0  0  2  0  0  0  0  0  0
  191.5100  174.1710  135.2110 N   0  0  0  0  0  0  0  0  0  0  0  0
  191.3210  176.3860  134.6520 C   0  0  0  0  0  3  0  0  0  0  0  0
  189.2500  173.5430  134.9990 O   0  0  0  0  0  0  0  0  0  0  0  0
  190.1420  174.4310  134.9640 C   0  0  0  0  0  0  0  0  0  0  0  0
  189.9070  175.8640  134.5940 C   0  0  1  0  0  3  0  0  0  0  0  0
  192.1600  175.4200  135.0120 C   0  0  0  0  0  0  0  0  0  0  0  0
  192.0300  172.9970  135.8950 C   0  0  0  0  0  1  0  0  0  0  0  0
  194.2080  176.1120  136.3520 C   0  0  0  0  0  1  0  0  0  0  0  0
  193.5690  175.6420  135.1350 N   0  0  0  0  0  2  0  0  0  0  0  0
  182.7760  179.1590  138.8070 N   0  0  0  0  0  2  0  0  0  0  0  0
  181.6800  178.8850  140.9700 C   0  0  0  0  0  3  0  0  0  0  0  0
  180.6250  178.6020  143.1180 O   0  0  0  0  0  1  0  0  0  0  0  0
  178.9950  182.0010  140.0130 C   0  0  0  0  0  1  0  0  0  0  0  0
  178.9310  180.6330  142.4110 O   0  0  0  0  0  0  0  0  0  0  0  0
  180.8540  180.5650  139.4570 C   0  0  0  0  0  3  0  0  0  0  0  0
  179.9070  180.9230  140.3660 N   0  0  0  0  0  0  0  0  0  0  0  0
  181.7610  179.5360  139.7400 C   0  0  0  0  0  0  0  0  0  0  0  0
  180.7040  179.2570  141.8950 C   0  0  0  0  0  0  0  0  0  0  0  0
  179.8150  180.2920  141.5770 C   0  0  0  0  0  0  0  0  0  0  0  0
  2 14  1  0  0  0  0
  2  1  1  0  0  0  0
  4  5  1  0  0  0  0
  5  7  1  0  0  0  0
  5 14  2  0  0  0  0
  6 19  1  1  0  0  0
  6 10  1  0  0  0  0
  7  3  1  0  0  0  0
  7 11  1  1  0  0  0
  8  2  2  0  0  0  0
  9  4  2  0  0  0  0
  9  8  1  0  0  0  0
 12  3  1  6  0  0  0
 12 15  1  0  0  0  0
 12 13  1  0  0  0  0
 13 37  1  6  0  0  0
 13 16  1  0  0  0  0
 15 14  1  6  0  0  0
 15  6  1  0  0  0  0
 16 10  1  0  0  0  0
 17 21  1  0  0  0  0
 18 20  1  0  0  0  0
 19 17  2  0  0  0  0
 20 21  2  0  0  0  0
 21 26  1  0  0  0  0
 22 18  2  0  0  0  0
 22 19  1  0  0  0  0
 23 18  1  0  0  0  0
 26 25  2  0  0  0  0
 26 27  1  0  0  0  0
 27 24  1  0  0  0  0
 28 34  1  0  0  0  0
 29 33  2  0  0  0  0
 31 30  2  0  0  0  0
 31 28  1  0  0  0  0
 32 29  1  0  0  0  0
 32 31  1  0  0  0  0
 32  9  1  1  0  0  0
 33 36  1  0  0  0  0
 33 28  1  0  0  0  0
 36 35  1  0  0  0  0
 37 44  1  0  0  0  0
 38 45  2  0  0  0  0
 40 43  1  0  0  0  0
 42 44  2  0  0  0  0
 42 43  1  0  0  0  0
 43 46  1  0  0  0  0
 44 38  1  0  0  0  0
 45 39  1  0  0  0  0
 46 45  1  0  0  0  0
 46 41  2  0  0  0  0
M  END
>  <MODEL>
6

>  <REMARK>
 VINA RESULT:      -5.1      3.231     10.481
  Name = 
  6 active torsions:
  status: ('A' for Active; 'I' for Inactive)
    1  A    between atoms: C_10  and  C_23
    2  A    between atoms: N_17  and  C_38
    3  A    between atoms: N_17  and  C_39
    4  A    between atoms: C_18  and  C_20
    5  A    between atoms: C_28  and  C_33
    6  A    between atoms: C_36  and  N_43
                            x       y       z     vdW  Elec       q    Type
                         _______ _______ _______ _____ _____    ______ ____

>  <TORSDO>
F 6

$$$$
=
 OpenBabel11032421023D

 46 51  0  0  1  0  0  0  0  0999 V2000
  184.5310  180.9970  138.3830 O   0  0  0  0  0  1  0  0  0  0  0  0
  183.4290  180.3310  138.9050 C   0  0  0  0  0  0  0  0  0  0  0  0
  183.4270  178.8070  142.7920 C   0  0  0  0  0  2  0  0  0  0  0  0
  181.2010  179.0750  139.9490 N   0  0  0  0  0  0  0  0  0  0  0  0
  182.4070  178.8890  140.5480 C   0  0  0  0  0  0  0  0  0  0  0  0
  185.5460  177.9230  140.0800 C   0  0  1  0  0  3  0  0  0  0  0  0
  182.5000  178.0920  141.8070 C   0  0  1  0  0  3  0  0  0  0  0  0
  182.1810  180.5030  138.3090 C   0  0  0  0  0  3  0  0  0  0  0  0
  181.0530  179.8670  138.8500 C   0  0  0  0  0  0  0  0  0  0  0  0
  186.9310  177.6180  140.6790 C   0  0  0  0  0  2  0  0  0  0  0  0
  182.9730  176.8070  141.5340 O   0  0  0  0  0  1  0  0  0  0  0  0
  184.8160  179.1540  142.2120 C   0  0  1  0  0  3  0  0  0  0  0  0
  185.8760  178.2580  142.8630 C   0  0  1  0  0  3  0  0  0  0  0  0
  183.5580  179.4960  140.0240 C   0  0  0  0  0  0  0  0  0  0  0  0
  184.9040  179.2100  140.6520 C   0  0  2  0  0  3  0  0  0  0  0  0
  187.1630  178.2570  142.0480 C   0  0  0  0  0  2  0  0  0  0  0  0
  184.5200  177.4710  137.8150 C   0  0  0  0  0  3  0  0  0  0  0  0
  186.8630  178.2350  136.5500 C   0  0  0  0  0  0  0  0  0  0  0  0
  185.6130  177.8950  138.5820 C   0  0  0  0  0  0  0  0  0  0  0  0
  185.7900  177.8170  135.8260 N   0  0  0  0  0  0  0  0  0  0  0  0
  184.6280  177.4320  136.4200 C   0  0  0  0  0  0  0  0  0  0  0  0
  186.7950  178.2760  137.9440 C   0  0  0  0  0  3  0  0  0  0  0  0
  188.0580  178.6280  135.8870 N   0  0  0  0  0  1  0  0  0  0  0  0
  182.0970  175.0670  134.7240 C   0  0  0  0  0  1  0  0  0  0  0  0
  182.7900  177.8060  134.9710 O   0  0  0  0  0  0  0  0  0  0  0  0
  183.4990  176.9730  135.5980 C   0  0  0  0  0  0  0  0  0  0  0  0
  183.2010  175.5760  135.5200 N   0  0  0  0  0  2  0  0  0  0  0  0
  179.2530  179.5580  135.8700 N   0  0  0  0  0  0  0  0  0  0  0  0
  179.6090  181.2420  137.3840 C   0  0  0  0  0  3  0  0  0  0  0  0
  179.3550  177.7170  137.3360 O   0  0  0  0  0  0  0  0  0  0  0  0
  179.4430  178.9570  137.1360 C   0  0  0  0  0  0  0  0  0  0  0  0
  179.6920  179.9790  138.2030 C   0  0  1  0  0  3  0  0  0  0  0  0
  179.3830  180.9550  136.1060 C   0  0  0  0  0  0  0  0  0  0  0  0
  179.3150  178.8620  134.5940 C   0  0  0  0  0  1  0  0  0  0  0  0
  180.1300  183.1220  135.0060 C   0  0  0  0  0  1  0  0  0  0  0  0
  179.2480  181.9720  135.1080 N   0  0  0  0  0  2  0  0  0  0  0  0
  186.1490  178.7180  144.2180 N   0  0  0  0  0  2  0  0  0  0  0  0
  188.3270  177.6380  144.4360 C   0  0  0  0  0  3  0  0  0  0  0  0
  190.4870  176.5860  144.6230 O   0  0  0  0  0  1  0  0  0  0  0  0
  187.9260  177.6620  148.6400 C   0  0  0  0  0  1  0  0  0  0  0  0
  190.1400  176.6460  147.3380 O   0  0  0  0  0  0  0  0  0  0  0  0
  187.0850  178.1540  146.4320 C   0  0  0  0  0  3  0  0  0  0  0  0
  188.0880  177.6400  147.1940 N   0  0  0  0  0  0  0  0  0  0  0  0
  187.1830  178.1640  145.0350 C   0  0  0  0  0  0  0  0  0  0  0  0
  189.3500  177.1110  145.2250 C   0  0  0  0  0  0  0  0  0  0  0  0
  189.2170  177.1210  146.6200 C   0  0  0  0  0  0  0  0  0  0  0  0
  1  2  1  0  0  0  0
  2 14  1  0  0  0  0
  4  5  1  0  0  0  0
  5  7  1  0  0  0  0
  6 19  1  6  0  0  0
  6 15  1  0  0  0  0
  6 10  1  0  0  0  0
  7 11  1  6  0  0  0
  7  3  1  0  0  0  0
  8  9  1  0  0  0  0
  8  2  2  0  0  0  0
  9  4  2  0  0  0  0
 10 16  1  0  0  0  0
 12  3  1  6  0  0  0
 12 13  1  0  0  0  0
 13 37  1  1  0  0  0
 14  5  2  0  0  0  0
 15 14  1  6  0  0  0
 15 12  1  0  0  0  0
 16 13  1  0  0  0  0
 17 19  1  0  0  0  0
 18 22  1  0  0  0  0
 20 21  1  0  0  0  0
 20 18  2  0  0  0  0
 21 17  2  0  0  0  0
 22 19  2  0  0  0  0
 23 18  1  0  0  0  0
 24 27  1  0  0  0  0
 25 26  2  0  0  0  0
 26 21  1  0  0  0  0
 27 26  1  0  0  0  0
 28 33  1  0  0  0  0
 28 31  1  0  0  0  0
 29 32  1  0  0  0  0
 31 30  2  0  0  0  0
 31 32  1  0  0  0  0
 32  9  1  6  0  0  0
 33 29  2  0  0  0  0
 34 28  1  0  0  0  0
 35 36  1  0  0  0  0
 36 33  1  0  0  0  0
 37 44  1  0  0  0  0
 38 44  1  0  0  0  0
 38 45  2  0  0  0  0
 39 45  1  0  0  0  0
 42 43  1  0  0  0  0
 43 40  1  0  0  0  0
 44 42  2  0  0  0  0
 45 46  1  0  0  0  0
 46 43  1  0  0  0  0
 46 41  2  0  0  0  0
M  END
>  <MODEL>
7

>  <REMARK>
 VINA RESULT:      -4.7      5.263      7.876
  Name = 
  6 active torsions:
  status: ('A' for Active; 'I' for Inactive)
    1  A    between atoms: C_10  and  C_23
    2  A    between atoms: N_17  and  C_38
    3  A    between atoms: N_17  and  C_39
    4  A    between atoms: C_18  and  C_20
    5  A    between atoms: C_28  and  C_33
    6  A    between atoms: C_36  and  N_43
                            x       y       z     vdW  Elec       q    Type
                         _______ _______ _______ _____ _____    ______ ____

>  <TORSDO>
F 6

$$$$
=
 OpenBabel11032421023D

 46 51  0  0  1  0  0  0  0  0999 V2000
  184.1930  181.0030  138.6480 O   0  0  0  0  0  1  0  0  0  0  0  0
  183.0240  180.4340  139.1400 C   0  0  0  0  0  0  0  0  0  0  0  0
  182.7650  178.9940  143.0510 C   0  0  0  0  0  2  0  0  0  0  0  0
  180.6700  179.3750  140.1230 N   0  0  0  0  0  0  0  0  0  0  0  0
  181.8350  179.1090  140.7690 C   0  0  0  0  0  0  0  0  0  0  0  0
  184.9040  177.8940  140.4350 C   0  0  1  0  0  3  0  0  0  0  0  0
  181.8210  178.3330  142.0440 C   0  0  1  0  0  3  0  0  0  0  0  0
  181.8160  180.6900  138.4950 C   0  0  0  0  0  3  0  0  0  0  0  0
  180.6230  180.1540  139.0050 C   0  0  0  0  0  0  0  0  0  0  0  0
  186.2390  177.4950  141.0900 C   0  0  0  0  0  2  0  0  0  0  0  0
  182.2020  177.0100  141.8110 O   0  0  0  0  0  1  0  0  0  0  0  0
  184.1960  179.2210  142.5160 C   0  0  1  0  0  3  0  0  0  0  0  0
  185.1600  178.2590  143.2220 C   0  0  1  0  0  3  0  0  0  0  0  0
  183.0480  179.6150  140.2770 C   0  0  0  0  0  0  0  0  0  0  0  0
  184.3440  179.2390  140.9600 C   0  0  2  0  0  3  0  0  0  0  0  0
  186.4700  178.1420  142.4550 C   0  0  0  0  0  2  0  0  0  0  0  0
  183.9800  177.3270  138.1520 C   0  0  0  0  0  3  0  0  0  0  0  0
  186.3180  178.1860  136.9410 C   0  0  0  0  0  0  0  0  0  0  0  0
  185.0220  177.8310  138.9410 C   0  0  0  0  0  0  0  0  0  0  0  0
  185.2950  177.6900  136.1950 N   0  0  0  0  0  0  0  0  0  0  0  0
  184.1360  177.2580  136.7630 C   0  0  0  0  0  0  0  0  0  0  0  0
  186.2020  178.2600  138.3300 C   0  0  0  0  0  3  0  0  0  0  0  0
  187.5110  178.6280  136.3060 N   0  0  0  0  0  1  0  0  0  0  0  0
  181.3510  174.9120  135.4920 C   0  0  0  0  0  1  0  0  0  0  0  0
  182.7020  177.3280  134.8770 O   0  0  0  0  0  0  0  0  0  0  0  0
  183.0620  176.7150  135.9190 C   0  0  0  0  0  0  0  0  0  0  0  0
  182.4190  175.4920  136.2890 N   0  0  0  0  0  2  0  0  0  0  0  0
  178.9700  180.1670  135.9250 N   0  0  0  0  0  0  0  0  0  0  0  0
  179.2810  181.6930  137.6070 C   0  0  0  0  0  3  0  0  0  0  0  0
  178.9640  178.1950  137.2140 O   0  0  0  0  0  0  0  0  0  0  0  0
  179.0850  179.4460  137.1370 C   0  0  0  0  0  0  0  0  0  0  0  0
  179.2990  180.3580  138.3070 C   0  0  1  0  0  3  0  0  0  0  0  0
  179.1140  181.5320  136.2980 C   0  0  0  0  0  0  0  0  0  0  0  0
  179.0850  179.5930  134.5930 C   0  0  0  0  0  1  0  0  0  0  0  0
  180.1650  183.5350  135.1350 C   0  0  0  0  0  1  0  0  0  0  0  0
  179.0490  182.6410  135.3960 N   0  0  0  0  0  2  0  0  0  0  0  0
  185.4190  178.7240  144.5780 N   0  0  0  0  0  2  0  0  0  0  0  0
  186.4830  178.3010  146.7340 C   0  0  0  0  0  3  0  0  0  0  0  0
  187.5040  177.8790  148.8750 O   0  0  0  0  0  1  0  0  0  0  0  0
  189.9920  177.0260  144.7600 C   0  0  0  0  0  1  0  0  0  0  0  0
  189.7350  177.0680  147.5090 O   0  0  0  0  0  0  0  0  0  0  0  0
  187.7340  177.8760  144.7210 C   0  0  0  0  0  3  0  0  0  0  0  0
  188.7960  177.4620  145.4640 N   0  0  0  0  0  0  0  0  0  0  0  0
  186.5530  178.3050  145.3410 C   0  0  0  0  0  0  0  0  0  0  0  0
  187.5780  177.8780  147.4870 C   0  0  0  0  0  0  0  0  0  0  0  0
  188.7420  177.4530  146.8310 C   0  0  0  0  0  0  0  0  0  0  0  0
  1  2  1  0  0  0  0
  2 14  1  0  0  0  0
  4  5  1  0  0  0  0
  5  7  1  0  0  0  0
  6 19  1  6  0  0  0
  6 15  1  0  0  0  0
  6 10  1  0  0  0  0
  7 11  1  6  0  0  0
  7  3  1  0  0  0  0
  8  9  1  0  0  0  0
  8  2  2  0  0  0  0
  9  4  2  0  0  0  0
 10 16  1  0  0  0  0
 12  3  1  6  0  0  0
 12 13  1  0  0  0  0
 13 37  1  1  0  0  0
 14  5  2  0  0  0  0
 15 14  1  6  0  0  0
 15 12  1  0  0  0  0
 16 13  1  0  0  0  0
 17 19  1  0  0  0  0
 18 22  1  0  0  0  0
 20 21  1  0  0  0  0
 20 18  2  0  0  0  0
 21 17  2  0  0  0  0
 22 19  2  0  0  0  0
 23 18  1  0  0  0  0
 24 27  1  0  0  0  0
 25 26  2  0  0  0  0
 26 27  1  0  0  0  0
 26 21  1  0  0  0  0
 28 33  1  0  0  0  0
 28 31  1  0  0  0  0
 29 32  1  0  0  0  0
 31 30  2  0  0  0  0
 31 32  1  0  0  0  0
 32  9  1  6  0  0  0
 33 29  2  0  0  0  0
 34 28  1  0  0  0  0
 35 36  1  0  0  0  0
 36 33  1  0  0  0  0
 37 44  1  0  0  0  0
 38 45  2  0  0  0  0
 40 43  1  0  0  0  0
 42 44  2  0  0  0  0
 42 43  1  0  0  0  0
 43 46  1  0  0  0  0
 44 38  1  0  0  0  0
 45 39  1  0  0  0  0
 46 45  1  0  0  0  0
 46 41  2  0  0  0  0
M  END
>  <MODEL>
8

>  <REMARK>
 VINA RESULT:      -4.7      5.707      8.215
  Name = 
  6 active torsions:
  status: ('A' for Active; 'I' for Inactive)
    1  A    between atoms: C_10  and  C_23
    2  A    between atoms: N_17  and  C_38
    3  A    between atoms: N_17  and  C_39
    4  A    between atoms: C_18  and  C_20
    5  A    between atoms: C_28  and  C_33
    6  A    between atoms: C_36  and  N_43
                            x       y       z     vdW  Elec       q    Type
                         _______ _______ _______ _____ _____    ______ ____

>  <TORSDO>
F 6

$$$$
=
 OpenBabel11032421023D

 46 51  0  0  1  0  0  0  0  0999 V2000
  189.4090  179.4640  137.6610 O   0  0  0  0  0  1  0  0  0  0  0  0
  188.9220  178.3140  137.0500 C   0  0  0  0  0  0  0  0  0  0  0  0
  184.8280  177.5300  136.8030 C   0  0  0  0  0  2  0  0  0  0  0  0
  187.9710  176.0610  135.7650 N   0  0  0  0  0  0  0  0  0  0  0  0
  187.1540  176.7290  136.6220 C   0  0  0  0  0  0  0  0  0  0  0  0
  186.8320  177.8830  139.7160 C   0  0  1  0  0  3  0  0  0  0  0  0
  185.7340  176.2970  136.7890 C   0  0  1  0  0  3  0  0  0  0  0  0
  189.7390  177.6100  136.1680 C   0  0  0  0  0  3  0  0  0  0  0  0
  189.2460  176.4710  135.5130 C   0  0  0  0  0  0  0  0  0  0  0  0
  185.9550  178.5690  140.7790 C   0  0  0  0  0  2  0  0  0  0  0  0
  185.5840  175.5660  137.9680 O   0  0  0  0  0  1  0  0  0  0  0  0
  185.2410  178.6040  137.8330 C   0  0  1  0  0  3  0  0  0  0  0  0
  184.2150  178.6350  138.9730 C   0  0  1  0  0  3  0  0  0  0  0  0
  187.6200  177.8620  137.3060 C   0  0  0  0  0  0  0  0  0  0  0  0
  186.7260  178.5410  138.3190 C   0  0  2  0  0  3  0  0  0  0  0  0
  184.7790  179.3500  140.1930 C   0  0  0  0  0  2  0  0  0  0  0  0
  189.2230  177.1110  139.4500 C   0  0  0  0  0  3  0  0  0  0  0  0
  189.8740  178.1100  141.9490 C   0  0  0  0  0  0  0  0  0  0  0  0
  188.2400  177.7490  140.2160 C   0  0  0  0  0  0  0  0  0  0  0  0
  190.8120  177.4840  141.1890 N   0  0  0  0  0  0  0  0  0  0  0  0
  190.5200  176.9800  139.9590 C   0  0  0  0  0  0  0  0  0  0  0  0
  188.5680  178.2490  141.4770 C   0  0  0  0  0  3  0  0  0  0  0  0
  190.2230  178.6220  143.2290 N   0  0  0  0  0  1  0  0  0  0  0  0
  193.9720  176.1540  138.4490 C   0  0  0  0  0  1  0  0  0  0  0  0
  191.2770  175.2720  138.5000 O   0  0  0  0  0  0  0  0  0  0  0  0
  191.5620  176.2960  139.1790 C   0  0  0  0  0  0  0  0  0  0  0  0
  192.9040  176.7910  139.2000 N   0  0  0  0  0  2  0  0  0  0  0  0
  191.7340  174.0210  135.3420 N   0  0  0  0  0  0  0  0  0  0  0  0
  191.5250  176.1780  134.5950 C   0  0  0  0  0  3  0  0  0  0  0  0
  189.4760  173.3640  135.2050 O   0  0  0  0  0  0  0  0  0  0  0  0
  190.3620  174.2510  135.0850 C   0  0  0  0  0  0  0  0  0  0  0  0
  190.1150  175.6450  134.5940 C   0  0  1  0  0  3  0  0  0  0  0  0
  192.3740  175.2530  135.0300 C   0  0  0  0  0  0  0  0  0  0  0  0
  192.2670  172.9140  136.1210 C   0  0  0  0  0  1  0  0  0  0  0  0
  194.4230  176.7140  134.6660 C   0  0  0  0  0  1  0  0  0  0  0  0
  193.7820  175.4920  135.1210 N   0  0  0  0  0  2  0  0  0  0  0  0
  182.9990  179.3010  138.5260 N   0  0  0  0  0  2  0  0  0  0  0  0
  181.1320  179.2980  136.9530 C   0  0  0  0  0  3  0  0  0  0  0  0
  179.3030  179.3190  135.3850 O   0  0  0  0  0  1  0  0  0  0  0  0
  180.4590  175.2060  137.7500 C   0  0  0  0  0  1  0  0  0  0  0  0
  178.9430  176.6670  135.9630 O   0  0  0  0  0  0  0  0  0  0  0  0
  181.6780  177.2580  138.1080 C   0  0  0  0  0  3  0  0  0  0  0  0
  180.6690  176.6160  137.4590 N   0  0  0  0  0  0  0  0  0  0  0  0
  181.9310  178.6140  137.8690 C   0  0  0  0  0  0  0  0  0  0  0  0
  180.0990  178.6330  136.2940 C   0  0  0  0  0  0  0  0  0  0  0  0
  179.8770  177.2740  136.5580 C   0  0  0  0  0  0  0  0  0  0  0  0
  2 14  1  0  0  0  0
  2  1  1  0  0  0  0
  4  5  1  0  0  0  0
  5  7  1  0  0  0  0
  5 14  2  0  0  0  0
  6 19  1  1  0  0  0
  6 10  1  0  0  0  0
  7  3  1  0  0  0  0
  7 11  1  1  0  0  0
  8  2  2  0  0  0  0
  9  4  2  0  0  0  0
  9  8  1  0  0  0  0
 12  3  1  6  0  0  0
 12 15  1  0  0  0  0
 12 13  1  0  0  0  0
 13 37  1  6  0  0  0
 13 16  1  0  0  0  0
 15 14  1  6  0  0  0
 15  6  1  0  0  0  0
 16 10  1  0  0  0  0
 17 21  2  0  0  0  0
 17 19  1  0  0  0  0
 18 23  1  0  0  0  0
 19 22  2  0  0  0  0
 20 18  2  0  0  0  0
 21 20  1  0  0  0  0
 22 18  1  0  0  0  0
 24 27  1  0  0  0  0
 25 26  2  0  0  0  0
 26 27  1  0  0  0  0
 26 21  1  0  0  0  0
 28 34  1  0  0  0  0
 29 33  2  0  0  0  0
 31 30  2  0  0  0  0
 31 28  1  0  0  0  0
 32 29  1  0  0  0  0
 32 31  1  0  0  0  0
 32  9  1  1  0  0  0
 33 36  1  0  0  0  0
 33 28  1  0  0  0  0
 35 36  1  0  0  0  0
 38 44  1  0  0  0  0
 39 45  1  0  0  0  0
 41 46  2  0  0  0  0
 43 40  1  0  0  0  0
 43 42  1  0  0  0  0
 44 42  2  0  0  0  0
 44 37  1  0  0  0  0
 45 46  1  0  0  0  0
 45 38  2  0  0  0  0
 46 43  1  0  0  0  0
M  END
>  <MODEL>
9

>  <REMARK>
 VINA RESULT:      -4.6      2.815     10.239
  Name = 
  6 active torsions:
  status: ('A' for Active; 'I' for Inactive)
    1  A    between atoms: C_10  and  C_23
    2  A    between atoms: N_17  and  C_38
    3  A    between atoms: N_17  and  C_39
    4  A    between atoms: C_18  and  C_20
    5  A    between atoms: C_28  and  C_33
    6  A    between atoms: C_36  and  N_43
                            x       y       z     vdW  Elec       q    Type
                         _______ _______ _______ _____ _____    ______ ____

>  <TORSDO>
F 6

$$$$
