=
 OpenBabel11042412383D

 41 44  0  0  1  0  0  0  0  0999 V2000
  184.8020  176.9390  136.9700 C   0  0  0  0  0  0  0  0  0  0  0  0
  184.0880  179.5070  139.0650 C   0  0  0  0  0  2  0  0  0  0  0  0
  183.4640  179.0150  137.7640 C   0  0  0  0  0  2  0  0  0  0  0  0
  183.9600  173.3150  137.4400 N   0  0  0  0  0  2  0  0  0  0  0  0
  184.6950  171.3190  136.5070 O   0  0  0  0  0  0  0  0  0  0  0  0
  183.2160  176.6740  138.8410 C   0  0  1  0  0  3  0  0  0  0  0  0
  183.1360  175.2560  138.4950 N   0  0  0  0  0  0  0  0  0  0  0  0
  183.9810  174.7330  137.6430 C   0  0  0  0  0  0  0  0  0  0  0  0
  184.7530  172.5790  136.5000 C   0  0  0  0  0  0  0  0  0  0  0  0
  183.5290  177.4930  137.5830 C   0  0  2  0  0  3  0  0  0  0  0  0
  183.3110  179.1810  140.3590 C   0  0  1  0  0  3  0  0  0  0  0  0
  184.9740  175.6120  136.9580 C   0  0  0  0  0  3  0  0  0  0  0  0
  182.0500  178.3300  140.2250 C   0  0  0  0  0  3  0  0  0  0  0  0
  182.0030  177.1670  139.5570 C   0  0  0  0  0  3  0  0  0  0  0  0
  184.2630  178.6330  141.3810 C   0  0  0  0  0  0  0  0  0  0  0  0
  183.9950  177.5530  141.9840 O   0  0  0  0  0  0  0  0  0  0  0  0
  185.5080  179.2980  141.6140 N   0  0  0  0  0  2  0  0  0  0  0  0
  186.6230  178.6780  142.3380 C   0  0  0  0  0  2  0  0  0  0  0  0
  186.5600  177.4160  146.3290 S   0  0  0  0  0  0  0  0  0  0  0  0
  188.6880  178.5610  147.6090 C   0  0  0  0  0  1  0  0  0  0  0  0
  189.1230  177.0790  145.5530 C   0  0  1  0  0  3  0  0  0  0  0  0
  188.3060  177.3010  146.8400 C   0  0  2  0  0  3  0  0  0  0  0  0
  188.3770  177.6240  144.4400 N   0  0  0  0  0  0  0  0  0  0  0  0
  187.1200  177.7950  144.6830 C   0  0  0  0  0  0  0  0  0  0  0  0
  186.2410  178.3730  143.7170 N   0  0  0  0  0  2  0  0  0  0  0  0
  190.5480  177.6160  145.5810 C   0  0  0  0  0  2  0  0  0  0  0  0
  192.0210  176.6010  147.1630 O   0  0  0  0  0  1  0  0  0  0  0  0
  191.5230  176.4880  145.8650 C   0  0  0  0  0  2  0  0  0  0  0  0
  185.5890  173.2430  135.5880 O   0  0  0  0  0  0  0  0  0  0  0  0
  186.9500  172.8600  135.4000 C   0  0  0  0  0  1  0  0  0  0  0  0
  186.1450  177.9990  136.4210 S   0  0  0  0  0  0  0  0  0  0  0  0
  187.3580  177.3720  137.6310 C   0  0  2  0  0  3  0  0  0  0  0  0
  187.3670  178.3050  138.8240 C   0  0  0  0  0  2  0  0  0  0  0  0
  188.8230  178.5230  139.1210 C   0  0  0  0  0  2  0  0  0  0  0  0
  189.5610  177.7320  138.0540 C   0  0  2  0  0  3  0  0  0  0  0  0
  188.6470  177.3370  137.0570 O   0  0  0  0  0  0  0  0  0  0  0  0
  190.2540  176.5080  138.6640 C   0  0  1  0  0  3  0  0  0  0  0  0
  191.3790  176.0190  137.7570 C   0  0  0  0  0  2  0  0  0  0  0  0
  191.5400  174.5850  137.9040 N   0  0  0  0  0  1  0  0  0  0  0  0
  190.5610  176.1460  140.9800 O   0  0  0  0  0  0  0  0  0  0  0  0
  190.8040  176.8510  140.0150 C   0  0  0  0  0  3  0  0  0  0  0  0
  1 10  1  0  0  0  0
  2 11  1  0  0  0  0
  3  2  1  0  0  0  0
  4  8  1  0  0  0  0
  6 14  1  6  0  0  0
  7  6  1  0  0  0  0
  8  7  2  0  0  0  0
  9  5  2  0  0  0  0
  9  4  1  0  0  0  0
 10  3  1  1  0  0  0
 10  6  1  0  0  0  0
 11 15  1  1  0  0  0
 12  1  2  0  0  0  0
 12  8  1  0  0  0  0
 13 11  1  0  0  0  0
 14 13  2  0  0  0  0
 15 17  1  0  0  0  0
 15 16  2  0  0  0  0
 17 18  1  0  0  0  0
 18 25  1  0  0  0  0
 19 22  1  0  0  0  0
 21 26  1  1  0  0  0
 21 22  1  0  0  0  0
 22 20  1  6  0  0  0
 23 24  2  0  0  0  0
 23 21  1  0  0  0  0
 24 19  1  0  0  0  0
 25 24  1  0  0  0  0
 26 28  1  0  0  0  0
 28 27  1  0  0  0  0
 29  9  1  0  0  0  0
 30 29  1  0  0  0  0
 31  1  1  0  0  0  0
 32 31  1  6  0  0  0
 32 33  1  0  0  0  0
 33 34  1  0  0  0  0
 35 37  1  1  0  0  0
 35 34  1  0  0  0  0
 36 32  1  0  0  0  0
 36 35  1  0  0  0  0
 37 38  1  6  0  0  0
 37 41  1  0  0  0  0
 38 39  1  0  0  0  0
 41 40  2  0  0  0  0
M  END
>  <MODEL>
1

>  <REMARK>
 VINA RESULT:      -6.8      0.000      0.000
  Name = 
  11 active torsions:
  status: ('A' for Active; 'I' for Inactive)
    1  A    between atoms: C_1  and  S_21
    2  A    between atoms: C_3  and  S_21
    3  A    between atoms: C_9  and  C_28
    4  A    between atoms: C_10  and  C_15
    5  A    between atoms: C_12  and  N_29
    6  A    between atoms: C_12  and  N_41
    7  A    between atoms: C_13  and  C_30
    8  A    between atoms: C_13  and  C_34
    9  A    between atoms: C_14  and  C_15
   10  A    between atoms: C_15  and  C_26
   11  A    between atoms: C_24  and  O_35
                            x       y       z     vdW  Elec       q    Type
                         _______ _______ _______ _____ _____    ______ ____

>  <TORSDO>
F 11

$$$$
=
 OpenBabel11042412383D

 41 44  0  0  1  0  0  0  0  0999 V2000
  189.1590  175.7070  135.4630 C   0  0  0  0  0  0  0  0  0  0  0  0
  188.9400  178.6550  137.1230 C   0  0  0  0  0  2  0  0  0  0  0  0
  188.3220  178.1350  135.8300 C   0  0  0  0  0  2  0  0  0  0  0  0
  187.4020  172.4960  136.2820 N   0  0  0  0  0  2  0  0  0  0  0  0
  187.6890  170.2670  135.6970 O   0  0  0  0  0  0  0  0  0  0  0  0
  187.4090  176.1070  137.1550 C   0  0  1  0  0  3  0  0  0  0  0  0
  187.0060  174.7120  136.9820 N   0  0  0  0  0  0  0  0  0  0  0  0
  187.7600  173.8840  136.3060 C   0  0  0  0  0  0  0  0  0  0  0  0
  188.0600  171.4620  135.5390 C   0  0  0  0  0  0  0  0  0  0  0  0
  188.0200  176.6310  135.8490 C   0  0  2  0  0  3  0  0  0  0  0  0
  188.0020  178.7190  138.3490 C   0  0  1  0  0  3  0  0  0  0  0  0
  188.9940  174.3900  135.6370 C   0  0  0  0  0  3  0  0  0  0  0  0
  186.5850  178.1790  138.1760 C   0  0  0  0  0  3  0  0  0  0  0  0
  186.3030  176.9740  137.6580 C   0  0  0  0  0  3  0  0  0  0  0  0
  188.7000  178.1210  139.5340 C   0  0  0  0  0  0  0  0  0  0  0  0
  189.9230  177.8030  139.4580 O   0  0  0  0  0  0  0  0  0  0  0  0
  187.9970  177.9840  140.7730 N   0  0  0  0  0  2  0  0  0  0  0  0
  188.6700  177.7210  142.0500 C   0  0  0  0  0  2  0  0  0  0  0  0
  186.7910  177.4930  145.7840 S   0  0  0  0  0  0  0  0  0  0  0  0
  188.4310  178.6780  147.6260 C   0  0  0  0  0  1  0  0  0  0  0  0
  189.3270  176.6980  146.2530 C   0  0  1  0  0  3  0  0  0  0  0  0
  188.1350  177.3170  147.0040 C   0  0  2  0  0  3  0  0  0  0  0  0
  189.2060  177.0310  144.8500 N   0  0  0  0  0  0  0  0  0  0  0  0
  188.0180  177.3930  144.4970 C   0  0  0  0  0  0  0  0  0  0  0  0
  187.7240  177.8080  143.1620 N   0  0  0  0  0  2  0  0  0  0  0  0
  190.7040  177.0660  146.7920 C   0  0  0  0  0  2  0  0  0  0  0  0
  192.3500  175.3410  146.6600 O   0  0  0  0  0  1  0  0  0  0  0  0
  191.7840  176.4040  145.9550 C   0  0  0  0  0  2  0  0  0  0  0  0
  189.1080  171.7650  134.6540 O   0  0  0  0  0  0  0  0  0  0  0  0
  190.3210  171.0140  134.6390 C   0  0  0  0  0  1  0  0  0  0  0  0
  190.7650  176.3260  134.9450 S   0  0  0  0  0  0  0  0  0  0  0  0
  191.7200  175.3280  136.1370 C   0  0  2  0  0  3  0  0  0  0  0  0
  191.8160  176.1010  137.4360 C   0  0  0  0  0  2  0  0  0  0  0  0
  193.2550  175.9740  137.8440 C   0  0  0  0  0  2  0  0  0  0  0  0
  193.9060  175.1680  136.7330 C   0  0  2  0  0  3  0  0  0  0  0  0
  193.0190  175.0870  135.6420 O   0  0  0  0  0  0  0  0  0  0  0  0
  194.2850  173.7670  137.2250 C   0  0  1  0  0  3  0  0  0  0  0  0
  195.0570  173.0100  136.1500 C   0  0  0  0  0  2  0  0  0  0  0  0
  196.2240  173.7740  135.7510 N   0  0  0  0  0  1  0  0  0  0  0  0
  195.5700  172.8640  138.9920 O   0  0  0  0  0  0  0  0  0  0  0  0
  195.1140  173.8670  138.4690 C   0  0  0  0  0  3  0  0  0  0  0  0
  1 12  2  0  0  0  0
  1 10  1  0  0  0  0
  2 11  1  0  0  0  0
  3  2  1  0  0  0  0
  4  8  1  0  0  0  0
  6 14  1  6  0  0  0
  7  6  1  0  0  0  0
  8  7  2  0  0  0  0
  9  5  2  0  0  0  0
  9  4  1  0  0  0  0
 10  3  1  1  0  0  0
 10  6  1  0  0  0  0
 11 15  1  1  0  0  0
 12  8  1  0  0  0  0
 13 11  1  0  0  0  0
 14 13  2  0  0  0  0
 15 17  1  0  0  0  0
 16 15  2  0  0  0  0
 17 18  1  0  0  0  0
 18 25  1  0  0  0  0
 19 22  1  0  0  0  0
 21 26  1  1  0  0  0
 21 22  1  0  0  0  0
 22 20  1  6  0  0  0
 23 21  1  0  0  0  0
 24 23  2  0  0  0  0
 24 19  1  0  0  0  0
 25 24  1  0  0  0  0
 28 27  1  0  0  0  0
 28 26  1  0  0  0  0
 29  9  1  0  0  0  0
 30 29  1  0  0  0  0
 31  1  1  0  0  0  0
 32 31  1  6  0  0  0
 32 33  1  0  0  0  0
 33 34  1  0  0  0  0
 35 37  1  1  0  0  0
 35 34  1  0  0  0  0
 36 32  1  0  0  0  0
 36 35  1  0  0  0  0
 37 38  1  6  0  0  0
 37 41  1  0  0  0  0
 39 38  1  0  0  0  0
 41 40  2  0  0  0  0
M  END
>  <MODEL>
2

>  <REMARK>
 VINA RESULT:      -6.7      2.891      4.177
  Name = 
  11 active torsions:
  status: ('A' for Active; 'I' for Inactive)
    1  A    between atoms: C_1  and  S_21
    2  A    between atoms: C_3  and  S_21
    3  A    between atoms: C_9  and  C_28
    4  A    between atoms: C_10  and  C_15
    5  A    between atoms: C_12  and  N_29
    6  A    between atoms: C_12  and  N_41
    7  A    between atoms: C_13  and  C_30
    8  A    between atoms: C_13  and  C_34
    9  A    between atoms: C_14  and  C_15
   10  A    between atoms: C_15  and  C_26
   11  A    between atoms: C_24  and  O_35
                            x       y       z     vdW  Elec       q    Type
                         _______ _______ _______ _____ _____    ______ ____

>  <TORSDO>
F 11

$$$$
=
 OpenBabel11042412383D

 41 44  0  0  1  0  0  0  0  0999 V2000
  183.6220  177.4110  139.3620 C   0  0  0  0  0  0  0  0  0  0  0  0
  184.9490  176.1910  136.4910 C   0  0  0  0  0  2  0  0  0  0  0  0
  184.0440  177.3770  136.8020 C   0  0  0  0  0  2  0  0  0  0  0  0
  185.3510  179.4750  141.9730 N   0  0  0  0  0  2  0  0  0  0  0  0
  184.9190  180.0290  144.1860 O   0  0  0  0  0  0  0  0  0  0  0  0
  185.8040  178.1910  138.5170 C   0  0  1  0  0  3  0  0  0  0  0  0
  185.9330  178.9760  139.7430 N   0  0  0  0  0  0  0  0  0  0  0  0
  185.1040  178.7900  140.7380 C   0  0  0  0  0  0  0  0  0  0  0  0
  184.5170  179.4530  143.1390 C   0  0  0  0  0  0  0  0  0  0  0  0
  184.3210  178.0260  138.1640 C   0  0  2  0  0  3  0  0  0  0  0  0
  186.4270  176.5230  136.1870 C   0  0  1  0  0  3  0  0  0  0  0  0
  183.9720  177.8310  140.5840 C   0  0  0  0  0  3  0  0  0  0  0  0
  186.8570  177.9820  136.3110 C   0  0  0  0  0  3  0  0  0  0  0  0
  186.6040  178.7460  137.3840 C   0  0  0  0  0  3  0  0  0  0  0  0
  187.3110  175.5980  136.9690 C   0  0  0  0  0  0  0  0  0  0  0  0
  186.9380  174.4110  137.2060 O   0  0  0  0  0  0  0  0  0  0  0  0
  188.6080  176.0400  137.3810 N   0  0  0  0  0  2  0  0  0  0  0  0
  189.6520  175.1260  137.8560 C   0  0  0  0  0  2  0  0  0  0  0  0
  191.7990  177.4700  140.5790 S   0  0  0  0  0  0  0  0  0  0  0  0
  191.3490  176.4740  143.0870 C   0  0  0  0  0  1  0  0  0  0  0  0
  189.3420  177.2410  141.6730 C   0  0  1  0  0  3  0  0  0  0  0  0
  190.7980  177.5010  142.1030 C   0  0  2  0  0  3  0  0  0  0  0  0
  189.3590  176.5010  140.4300 N   0  0  0  0  0  0  0  0  0  0  0  0
  190.4800  176.5680  139.7930 C   0  0  0  0  0  0  0  0  0  0  0  0
  190.6960  175.8570  138.5740 N   0  0  0  0  0  2  0  0  0  0  0  0
  188.4650  176.5560  142.7140 C   0  0  0  0  0  2  0  0  0  0  0  0
  188.4250  177.6350  144.8430 O   0  0  0  0  0  1  0  0  0  0  0  0
  187.7990  177.5950  143.5970 C   0  0  0  0  0  2  0  0  0  0  0  0
  183.2770  178.7950  143.1250 O   0  0  0  0  0  0  0  0  0  0  0  0
  182.3940  178.8310  144.2440 C   0  0  0  0  0  1  0  0  0  0  0  0
  182.4770  176.0350  139.2040 S   0  0  0  0  0  0  0  0  0  0  0  0
  180.9740  177.0440  139.4270 C   0  0  2  0  0  3  0  0  0  0  0  0
  180.3240  177.2400  138.0730 C   0  0  0  0  0  2  0  0  0  0  0  0
  179.9750  178.6990  138.0290 C   0  0  0  0  0  2  0  0  0  0  0  0
  180.4810  179.2600  139.3470 C   0  0  2  0  0  3  0  0  0  0  0  0
  181.3070  178.3040  139.9700 O   0  0  0  0  0  0  0  0  0  0  0  0
  179.3130  179.6410  140.2630 C   0  0  1  0  0  3  0  0  0  0  0  0
  179.6840  179.4300  141.7270 C   0  0  0  0  0  2  0  0  0  0  0  0
  179.7860  180.7130  142.3980 N   0  0  0  0  0  1  0  0  0  0  0  0
  179.6830  181.8290  139.4450 O   0  0  0  0  0  0  0  0  0  0  0  0
  178.9310  181.0720  140.0380 C   0  0  0  0  0  3  0  0  0  0  0  0
  1 12  2  0  0  0  0
  2  3  1  0  0  0  0
  4  9  1  0  0  0  0
  6 14  1  6  0  0  0
  6  7  1  0  0  0  0
  7  8  2  0  0  0  0
  8  4  1  0  0  0  0
  9  5  2  0  0  0  0
 10  3  1  6  0  0  0
 10  6  1  0  0  0  0
 10  1  1  0  0  0  0
 11 13  1  0  0  0  0
 11  2  1  0  0  0  0
 11 15  1  1  0  0  0
 12  8  1  0  0  0  0
 13 14  2  0  0  0  0
 15 16  2  0  0  0  0
 15 17  1  0  0  0  0
 17 18  1  0  0  0  0
 18 25  1  0  0  0  0
 19 22  1  0  0  0  0
 21 22  1  0  0  0  0
 21 26  1  1  0  0  0
 22 20  1  1  0  0  0
 23 21  1  0  0  0  0
 24 23  2  0  0  0  0
 24 19  1  0  0  0  0
 25 24  1  0  0  0  0
 26 28  1  0  0  0  0
 28 27  1  0  0  0  0
 29  9  1  0  0  0  0
 29 30  1  0  0  0  0
 31  1  1  0  0  0  0
 32 31  1  6  0  0  0
 32 36  1  0  0  0  0
 33 32  1  0  0  0  0
 34 33  1  0  0  0  0
 34 35  1  0  0  0  0
 35 36  1  0  0  0  0
 35 37  1  1  0  0  0
 37 41  1  1  0  0  0
 37 38  1  0  0  0  0
 38 39  1  0  0  0  0
 40 41  2  0  0  0  0
M  END
>  <MODEL>
3

>  <REMARK>
 VINA RESULT:      -6.6      2.977      7.547
  Name = 
  11 active torsions:
  status: ('A' for Active; 'I' for Inactive)
    1  A    between atoms: C_1  and  S_21
    2  A    between atoms: C_3  and  S_21
    3  A    between atoms: C_9  and  C_28
    4  A    between atoms: C_10  and  C_15
    5  A    between atoms: C_12  and  N_29
    6  A    between atoms: C_12  and  N_41
    7  A    between atoms: C_13  and  C_30
    8  A    between atoms: C_13  and  C_34
    9  A    between atoms: C_14  and  C_15
   10  A    between atoms: C_15  and  C_26
   11  A    between atoms: C_24  and  O_35
                            x       y       z     vdW  Elec       q    Type
                         _______ _______ _______ _____ _____    ______ ____

>  <TORSDO>
F 11

$$$$
=
 OpenBabel11042412383D

 41 44  0  0  1  0  0  0  0  0999 V2000
  185.2830  176.6740  136.4420 C   0  0  0  0  0  0  0  0  0  0  0  0
  188.5910  176.5950  135.7050 C   0  0  0  0  0  2  0  0  0  0  0  0
  187.4140  177.3870  135.1460 C   0  0  0  0  0  2  0  0  0  0  0  0
  183.6340  178.4050  139.3320 N   0  0  0  0  0  2  0  0  0  0  0  0
  181.5640  178.2600  140.3750 O   0  0  0  0  0  0  0  0  0  0  0  0
  186.8870  178.1830  137.5530 C   0  0  1  0  0  3  0  0  0  0  0  0
  185.7820  178.6450  138.3920 N   0  0  0  0  0  0  0  0  0  0  0  0
  184.6400  178.0070  138.3920 C   0  0  0  0  0  0  0  0  0  0  0  0
  182.3050  177.8770  139.4290 C   0  0  0  0  0  0  0  0  0  0  0  0
  186.3450  177.7290  136.1920 C   0  0  2  0  0  3  0  0  0  0  0  0
  189.5510  177.3680  136.6370 C   0  0  1  0  0  3  0  0  0  0  0  0
  184.4400  176.8540  137.4660 C   0  0  0  0  0  3  0  0  0  0  0  0
  189.1880  178.8100  136.9780 C   0  0  0  0  0  3  0  0  0  0  0  0
  187.9810  179.1910  137.4260 C   0  0  0  0  0  3  0  0  0  0  0  0
  189.8200  176.5420  137.8600 C   0  0  0  0  0  0  0  0  0  0  0  0
  189.5890  175.2970  137.8500 O   0  0  0  0  0  0  0  0  0  0  0  0
  190.4100  177.1550  139.0110 N   0  0  0  0  0  2  0  0  0  0  0  0
  191.0000  176.3870  140.1120 C   0  0  0  0  0  2  0  0  0  0  0  0
  191.1840  178.8270  143.5090 S   0  0  0  0  0  0  0  0  0  0  0  0
  190.2330  177.3890  145.6330 C   0  0  0  0  0  1  0  0  0  0  0  0
  188.7140  177.7420  143.5890 C   0  0  1  0  0  3  0  0  0  0  0  0
  189.7610  178.3450  144.5430 C   0  0  2  0  0  3  0  0  0  0  0  0
  189.4010  177.2280  142.4240 N   0  0  0  0  0  0  0  0  0  0  0  0
  190.5880  177.7080  142.2590 C   0  0  0  0  0  0  0  0  0  0  0  0
  191.4320  177.2750  141.1910 N   0  0  0  0  0  2  0  0  0  0  0  0
  187.7990  176.6880  144.2020 C   0  0  0  0  0  2  0  0  0  0  0  0
  186.7240  177.5350  146.1590 O   0  0  0  0  0  1  0  0  0  0  0  0
  186.5640  177.3490  144.7860 C   0  0  0  0  0  2  0  0  0  0  0  0
  181.8310  176.9420  138.4940 O   0  0  0  0  0  0  0  0  0  0  0  0
  180.7990  177.2640  137.5650 C   0  0  0  0  0  1  0  0  0  0  0  0
  185.2260  175.1310  135.5240 S   0  0  0  0  0  0  0  0  0  0  0  0
  183.9390  174.3650  136.5660 C   0  0  2  0  0  3  0  0  0  0  0  0
  184.5420  173.1650  137.2650 C   0  0  0  0  0  2  0  0  0  0  0  0
  183.5160  172.0810  137.1080 C   0  0  0  0  0  2  0  0  0  0  0  0
  182.4010  172.7150  136.2930 C   0  0  2  0  0  3  0  0  0  0  0  0
  182.8530  173.9420  135.7690 O   0  0  0  0  0  0  0  0  0  0  0  0
  181.1490  172.9250  137.1510 C   0  0  1  0  0  3  0  0  0  0  0  0
  180.1850  173.8910  136.4700 C   0  0  0  0  0  2  0  0  0  0  0  0
  178.9750  174.0170  137.2610 N   0  0  0  0  0  1  0  0  0  0  0  0
  180.2350  170.8560  136.4620 O   0  0  0  0  0  0  0  0  0  0  0  0
  180.4670  171.6130  137.3910 C   0  0  0  0  0  3  0  0  0  0  0  0
  1 12  2  0  0  0  0
  2 11  1  0  0  0  0
  3  2  1  0  0  0  0
  4  9  1  0  0  0  0
  6 14  1  6  0  0  0
  6  7  1  0  0  0  0
  7  8  2  0  0  0  0
  8  4  1  0  0  0  0
  9  5  2  0  0  0  0
 10  3  1  6  0  0  0
 10  1  1  0  0  0  0
 10  6  1  0  0  0  0
 11 13  1  0  0  0  0
 11 15  1  1  0  0  0
 12  8  1  0  0  0  0
 13 14  2  0  0  0  0
 15 17  1  0  0  0  0
 16 15  2  0  0  0  0
 17 18  1  0  0  0  0
 18 25  1  0  0  0  0
 19 22  1  0  0  0  0
 21 26  1  1  0  0  0
 21 22  1  0  0  0  0
 22 20  1  1  0  0  0
 23 21  1  0  0  0  0
 24 23  2  0  0  0  0
 24 19  1  0  0  0  0
 25 24  1  0  0  0  0
 26 28  1  0  0  0  0
 28 27  1  0  0  0  0
 29  9  1  0  0  0  0
 30 29  1  0  0  0  0
 31  1  1  0  0  0  0
 32 31  1  6  0  0  0
 32 33  1  0  0  0  0
 34 33  1  0  0  0  0
 35 34  1  0  0  0  0
 35 37  1  1  0  0  0
 36 35  1  0  0  0  0
 36 32  1  0  0  0  0
 37 38  1  6  0  0  0
 37 41  1  0  0  0  0
 38 39  1  0  0  0  0
 40 41  2  0  0  0  0
M  END
>  <MODEL>
4

>  <REMARK>
 VINA RESULT:      -6.4      2.732      6.674
  Name = 
  11 active torsions:
  status: ('A' for Active; 'I' for Inactive)
    1  A    between atoms: C_1  and  S_21
    2  A    between atoms: C_3  and  S_21
    3  A    between atoms: C_9  and  C_28
    4  A    between atoms: C_10  and  C_15
    5  A    between atoms: C_12  and  N_29
    6  A    between atoms: C_12  and  N_41
    7  A    between atoms: C_13  and  C_30
    8  A    between atoms: C_13  and  C_34
    9  A    between atoms: C_14  and  C_15
   10  A    between atoms: C_15  and  C_26
   11  A    between atoms: C_24  and  O_35
                            x       y       z     vdW  Elec       q    Type
                         _______ _______ _______ _____ _____    ______ ____

>  <TORSDO>
F 11

$$$$
=
 OpenBabel11042412383D

 41 44  0  0  1  0  0  0  0  0999 V2000
  182.0770  176.5960  136.7290 C   0  0  0  0  0  0  0  0  0  0  0  0
  182.8370  179.4850  138.3310 C   0  0  0  0  0  2  0  0  0  0  0  0
  181.6850  179.0640  137.4260 C   0  0  0  0  0  2  0  0  0  0  0  0
  180.5730  173.4960  138.2120 N   0  0  0  0  0  2  0  0  0  0  0  0
  180.3930  171.2760  137.5550 O   0  0  0  0  0  0  0  0  0  0  0  0
  181.2570  177.0600  139.0080 C   0  0  1  0  0  3  0  0  0  0  0  0
  180.7030  175.7070  139.0210 N   0  0  0  0  0  0  0  0  0  0  0  0
  181.0230  174.8510  138.0850 C   0  0  0  0  0  0  0  0  0  0  0  0
  180.7610  172.4450  137.2560 C   0  0  0  0  0  0  0  0  0  0  0  0
  181.2940  177.5870  137.5690 C   0  0  2  0  0  3  0  0  0  0  0  0
  182.5210  179.5710  139.8400 C   0  0  1  0  0  3  0  0  0  0  0  0
  181.8910  175.2890  136.9530 C   0  0  0  0  0  3  0  0  0  0  0  0
  181.1260  179.1470  140.2900 C   0  0  0  0  0  3  0  0  0  0  0  0
  180.5490  177.9870  139.9400 C   0  0  0  0  0  3  0  0  0  0  0  0
  183.6050  178.8780  140.6110 C   0  0  0  0  0  0  0  0  0  0  0  0
  183.3550  177.8040  141.2330 O   0  0  0  0  0  0  0  0  0  0  0  0
  184.9390  179.3950  140.5760 N   0  0  0  0  0  2  0  0  0  0  0  0
  186.1070  178.6260  141.0190 C   0  0  0  0  0  2  0  0  0  0  0  0
  187.1360  177.8720  145.0060 S   0  0  0  0  0  0  0  0  0  0  0  0
  189.8650  177.9010  145.1910 C   0  0  0  0  0  1  0  0  0  0  0  0
  188.7460  176.2470  143.5720 C   0  0  1  0  0  3  0  0  0  0  0  0
  188.7040  176.9430  144.9450 C   0  0  2  0  0  3  0  0  0  0  0  0
  187.9250  177.0040  142.6520 N   0  0  0  0  0  0  0  0  0  0  0  0
  187.0830  177.7960  143.2280 C   0  0  0  0  0  0  0  0  0  0  0  0
  186.2280  178.6580  142.4760 N   0  0  0  0  0  2  0  0  0  0  0  0
  190.1380  176.0050  143.0020 C   0  0  0  0  0  2  0  0  0  0  0  0
  191.1490  177.8420  141.8610 O   0  0  0  0  0  1  0  0  0  0  0  0
  190.2990  176.7500  141.6890 C   0  0  0  0  0  2  0  0  0  0  0  0
  181.3530  172.7030  136.0090 O   0  0  0  0  0  0  0  0  0  0  0  0
  180.6180  172.5940  134.7910 C   0  0  0  0  0  1  0  0  0  0  0  0
  183.3530  177.1120  135.5740 S   0  0  0  0  0  0  0  0  0  0  0  0
  184.7370  176.4020  136.5280 C   0  0  2  0  0  3  0  0  0  0  0  0
  185.4070  177.5190  137.3010 C   0  0  0  0  0  2  0  0  0  0  0  0
  186.8760  177.2970  137.0880 C   0  0  0  0  0  2  0  0  0  0  0  0
  186.9590  176.0870  136.1730 C   0  0  2  0  0  3  0  0  0  0  0  0
  185.6770  175.8090  135.6580 O   0  0  0  0  0  0  0  0  0  0  0  0
  187.5120  174.8720  136.9240 C   0  0  1  0  0  3  0  0  0  0  0  0
  186.8290  173.5910  136.4550 C   0  0  0  0  0  2  0  0  0  0  0  0
  186.0620  173.0160  137.5440 N   0  0  0  0  0  1  0  0  0  0  0  0
  189.7150  174.3180  137.5830 O   0  0  0  0  0  0  0  0  0  0  0  0
  188.9910  174.7660  136.7080 C   0  0  0  0  0  3  0  0  0  0  0  0
  1 12  2  0  0  0  0
  1 10  1  0  0  0  0
  2 11  1  0  0  0  0
  3  2  1  0  0  0  0
  6  7  1  0  0  0  0
  6 14  1  1  0  0  0
  8  4  1  0  0  0  0
  8  7  2  0  0  0  0
  9  5  2  0  0  0  0
  9  4  1  0  0  0  0
 10  3  1  1  0  0  0
 10  6  1  0  0  0  0
 11 13  1  0  0  0  0
 11 15  1  1  0  0  0
 12  8  1  0  0  0  0
 14 13  2  0  0  0  0
 15 16  2  0  0  0  0
 17 15  1  0  0  0  0
 17 18  1  0  0  0  0
 18 25  1  0  0  0  0
 21 26  1  6  0  0  0
 21 22  1  0  0  0  0
 22 19  1  0  0  0  0
 22 20  1  6  0  0  0
 23 24  2  0  0  0  0
 23 21  1  0  0  0  0
 24 19  1  0  0  0  0
 25 24  1  0  0  0  0
 28 27  1  0  0  0  0
 28 26  1  0  0  0  0
 29  9  1  0  0  0  0
 30 29  1  0  0  0  0
 31  1  1  0  0  0  0
 32 31  1  6  0  0  0
 32 33  1  0  0  0  0
 34 33  1  0  0  0  0
 35 37  1  1  0  0  0
 35 34  1  0  0  0  0
 36 35  1  0  0  0  0
 36 32  1  0  0  0  0
 37 38  1  6  0  0  0
 38 39  1  0  0  0  0
 41 37  1  0  0  0  0
 41 40  2  0  0  0  0
M  END
>  <MODEL>
5

>  <REMARK>
 VINA RESULT:      -6.3      2.314      3.197
  Name = 
  11 active torsions:
  status: ('A' for Active; 'I' for Inactive)
    1  A    between atoms: C_1  and  S_21
    2  A    between atoms: C_3  and  S_21
    3  A    between atoms: C_9  and  C_28
    4  A    between atoms: C_10  and  C_15
    5  A    between atoms: C_12  and  N_29
    6  A    between atoms: C_12  and  N_41
    7  A    between atoms: C_13  and  C_30
    8  A    between atoms: C_13  and  C_34
    9  A    between atoms: C_14  and  C_15
   10  A    between atoms: C_15  and  C_26
   11  A    between atoms: C_24  and  O_35
                            x       y       z     vdW  Elec       q    Type
                         _______ _______ _______ _____ _____    ______ ____

>  <TORSDO>
F 11

$$$$
=
 OpenBabel11042412383D

 41 44  0  0  1  0  0  0  0  0999 V2000
  188.3000  178.2500  140.3220 C   0  0  0  0  0  0  0  0  0  0  0  0
  186.8480  177.8670  137.2830 C   0  0  0  0  0  2  0  0  0  0  0  0
  187.9610  178.7690  137.8020 C   0  0  0  0  0  2  0  0  0  0  0  0
  190.8750  176.0340  141.9110 N   0  0  0  0  0  2  0  0  0  0  0  0
  191.6770  175.7270  144.0690 O   0  0  0  0  0  0  0  0  0  0  0  0
  189.1870  176.6560  138.6610 C   0  0  1  0  0  3  0  0  0  0  0  0
  190.1410  176.2180  139.6780 N   0  0  0  0  0  0  0  0  0  0  0  0
  190.0050  176.5990  140.9220 C   0  0  0  0  0  0  0  0  0  0  0  0
  190.9230  176.3840  143.3000 C   0  0  0  0  0  0  0  0  0  0  0  0
  188.8170  178.1250  138.9010 C   0  0  2  0  0  3  0  0  0  0  0  0
  187.2920  176.6630  136.4230 C   0  0  1  0  0  3  0  0  0  0  0  0
  188.9180  177.5550  141.2850 C   0  0  0  0  0  3  0  0  0  0  0  0
  188.7920  176.4400  136.2500 C   0  0  0  0  0  3  0  0  0  0  0  0
  189.6640  176.4060  137.2690 C   0  0  0  0  0  3  0  0  0  0  0  0
  186.5830  175.4300  136.8990 C   0  0  0  0  0  0  0  0  0  0  0  0
  187.2460  174.4050  137.2340 O   0  0  0  0  0  0  0  0  0  0  0  0
  185.1590  175.4450  137.0440 N   0  0  0  0  0  2  0  0  0  0  0  0
  184.4210  174.4230  137.7940 C   0  0  0  0  0  2  0  0  0  0  0  0
  180.4120  175.6100  138.0130 S   0  0  0  0  0  0  0  0  0  0  0  0
  180.3200  178.3260  137.7020 C   0  0  0  0  0  1  0  0  0  0  0  0
  181.7190  177.3400  139.6200 C   0  0  1  0  0  3  0  0  0  0  0  0
  180.4260  177.2600  138.7880 C   0  0  2  0  0  3  0  0  0  0  0  0
  182.6870  176.4290  139.0490 N   0  0  0  0  0  0  0  0  0  0  0  0
  182.1700  175.5250  138.2850 C   0  0  0  0  0  0  0  0  0  0  0  0
  182.9800  174.5730  137.5940 N   0  0  0  0  0  2  0  0  0  0  0  0
  182.3050  178.7360  139.7880 C   0  0  0  0  0  2  0  0  0  0  0  0
  184.0950  180.1570  139.0930 O   0  0  0  0  0  1  0  0  0  0  0  0
  183.5620  178.8760  138.9480 C   0  0  0  0  0  2  0  0  0  0  0  0
  190.1400  177.4340  143.8060 O   0  0  0  0  0  0  0  0  0  0  0  0
  190.7020  178.7050  144.1270 C   0  0  0  0  0  1  0  0  0  0  0  0
  186.8010  179.1560  140.7220 S   0  0  0  0  0  0  0  0  0  0  0  0
  186.4410  178.2180  142.2450 C   0  0  2  0  0  3  0  0  0  0  0  0
  184.9560  177.9270  142.2870 C   0  0  0  0  0  2  0  0  0  0  0  0
  184.5470  178.2500  143.6940 C   0  0  0  0  0  2  0  0  0  0  0  0
  185.8180  178.7440  144.3650 C   0  0  2  0  0  3  0  0  0  0  0  0
  186.7990  178.9750  143.3810 O   0  0  0  0  0  0  0  0  0  0  0  0
  186.3190  177.7300  145.3990 C   0  0  1  0  0  3  0  0  0  0  0  0
  187.8070  177.9280  145.6710 C   0  0  0  0  0  2  0  0  0  0  0  0
  188.2050  177.1420  146.8240 N   0  0  0  0  0  1  0  0  0  0  0  0
  185.1690  178.9730  147.0490 O   0  0  0  0  0  0  0  0  0  0  0  0
  185.5470  177.8750  146.6750 C   0  0  0  0  0  3  0  0  0  0  0  0
  1 31  1  0  0  0  0
  1 12  2  0  0  0  0
  2  3  1  0  0  0  0
  4  9  1  0  0  0  0
  6 14  1  6  0  0  0
  6 10  1  0  0  0  0
  6  7  1  0  0  0  0
  7  8  2  0  0  0  0
  8 12  1  0  0  0  0
  8  4  1  0  0  0  0
  9 29  1  0  0  0  0
  9  5  2  0  0  0  0
 10  3  1  6  0  0  0
 10  1  1  0  0  0  0
 11 15  1  1  0  0  0
 11  2  1  0  0  0  0
 13 11  1  0  0  0  0
 13 14  2  0  0  0  0
 15 17  1  0  0  0  0
 15 16  2  0  0  0  0
 17 18  1  0  0  0  0
 19 24  1  0  0  0  0
 19 22  1  0  0  0  0
 21 26  1  6  0  0  0
 22 20  1  6  0  0  0
 22 21  1  0  0  0  0
 23 21  1  0  0  0  0
 24 23  2  0  0  0  0
 25 18  1  0  0  0  0
 25 24  1  0  0  0  0
 28 27  1  0  0  0  0
 28 26  1  0  0  0  0
 29 30  1  0  0  0  0
 32 31  1  6  0  0  0
 32 33  1  0  0  0  0
 32 36  1  0  0  0  0
 33 34  1  0  0  0  0
 34 35  1  0  0  0  0
 35 37  1  1  0  0  0
 36 35  1  0  0  0  0
 37 38  1  1  0  0  0
 37 41  1  0  0  0  0
 38 39  1  0  0  0  0
 41 40  2  0  0  0  0
M  END
>  <MODEL>
6

>  <REMARK>
 VINA RESULT:      -6.3      2.477      8.202
  Name = 
  11 active torsions:
  status: ('A' for Active; 'I' for Inactive)
    1  A    between atoms: C_1  and  S_21
    2  A    between atoms: C_3  and  S_21
    3  A    between atoms: C_9  and  C_28
    4  A    between atoms: C_10  and  C_15
    5  A    between atoms: C_12  and  N_29
    6  A    between atoms: C_12  and  N_41
    7  A    between atoms: C_13  and  C_30
    8  A    between atoms: C_13  and  C_34
    9  A    between atoms: C_14  and  C_15
   10  A    between atoms: C_15  and  C_26
   11  A    between atoms: C_24  and  O_35
                            x       y       z     vdW  Elec       q    Type
                         _______ _______ _______ _____ _____    ______ ____

>  <TORSDO>
F 11

$$$$
=
 OpenBabel11042412383D

 41 44  0  0  1  0  0  0  0  0999 V2000
  185.1230  177.3390  137.5540 C   0  0  0  0  0  0  0  0  0  0  0  0
  184.2250  179.6880  139.8270 C   0  0  0  0  0  2  0  0  0  0  0  0
  183.7460  179.3610  138.4170 C   0  0  0  0  0  2  0  0  0  0  0  0
  184.1560  173.7160  137.5180 N   0  0  0  0  0  2  0  0  0  0  0  0
  184.9520  171.8090  136.4580 O   0  0  0  0  0  0  0  0  0  0  0  0
  183.3250  176.9270  139.1910 C   0  0  1  0  0  3  0  0  0  0  0  0
  183.2560  175.5580  138.6820 N   0  0  0  0  0  0  0  0  0  0  0  0
  184.1830  175.1030  137.8790 C   0  0  0  0  0  0  0  0  0  0  0  0
  185.0370  173.0600  136.5970 C   0  0  0  0  0  0  0  0  0  0  0  0
  183.8000  177.8670  138.0760 C   0  0  2  0  0  3  0  0  0  0  0  0
  183.2950  179.2500  140.9800 C   0  0  1  0  0  3  0  0  0  0  0  0
  185.2670  176.0160  137.4130 C   0  0  0  0  0  3  0  0  0  0  0  0
  182.0410  178.4620  140.6100 C   0  0  0  0  0  3  0  0  0  0  0  0
  182.0470  177.3800  139.8160 C   0  0  0  0  0  3  0  0  0  0  0  0
  184.1100  178.5630  142.0360 C   0  0  0  0  0  0  0  0  0  0  0  0
  183.5370  177.8960  142.9470 O   0  0  0  0  0  0  0  0  0  0  0  0
  185.5380  178.6030  141.9630 N   0  0  0  0  0  2  0  0  0  0  0  0
  186.4040  177.7120  142.7430 C   0  0  0  0  0  2  0  0  0  0  0  0
  190.5570  178.2330  142.6780 S   0  0  0  0  0  0  0  0  0  0  0  0
  191.6680  176.3610  144.3340 C   0  0  0  0  0  1  0  0  0  0  0  0
  189.9450  178.0080  145.2970 C   0  0  1  0  0  3  0  0  0  0  0  0
  191.1380  177.7910  144.3490 C   0  0  2  0  0  3  0  0  0  0  0  0
  188.7240  177.8810  144.5300 N   0  0  0  0  0  0  0  0  0  0  0  0
  188.8880  178.0100  143.2560 C   0  0  0  0  0  0  0  0  0  0  0  0
  187.8020  177.8630  142.3400 N   0  0  0  0  0  2  0  0  0  0  0  0
  189.9180  177.1150  146.5320 C   0  0  0  0  0  2  0  0  0  0  0  0
  188.2460  178.2230  147.8270 O   0  0  0  0  0  1  0  0  0  0  0  0
  188.5120  177.0610  147.1030 C   0  0  0  0  0  2  0  0  0  0  0  0
  185.9880  173.7890  135.8660 O   0  0  0  0  0  0  0  0  0  0  0  0
  186.5430  173.2940  134.6490 C   0  0  0  0  0  1  0  0  0  0  0  0
  186.5430  178.4060  137.2810 S   0  0  0  0  0  0  0  0  0  0  0  0
  187.7670  177.2270  137.9430 C   0  0  2  0  0  3  0  0  0  0  0  0
  188.3700  177.8190  139.1990 C   0  0  0  0  0  2  0  0  0  0  0  0
  189.8460  177.5860  139.0560 C   0  0  0  0  0  2  0  0  0  0  0  0
  190.0040  176.9070  137.7060 C   0  0  2  0  0  3  0  0  0  0  0  0
  188.7910  177.0020  136.9970 O   0  0  0  0  0  0  0  0  0  0  0  0
  190.4140  175.4400  137.8770 C   0  0  1  0  0  3  0  0  0  0  0  0
  189.9020  174.5980  136.7130 C   0  0  0  0  0  2  0  0  0  0  0  0
  189.3810  173.3380  137.2100 N   0  0  0  0  0  1  0  0  0  0  0  0
  192.6160  176.2610  137.6120 O   0  0  0  0  0  0  0  0  0  0  0  0
  191.9060  175.3320  137.9630 C   0  0  0  0  0  3  0  0  0  0  0  0
  1 10  1  0  0  0  0
  2 11  1  0  0  0  0
  3  2  1  0  0  0  0
  4  8  1  0  0  0  0
  5  9  2  0  0  0  0
  6 14  1  6  0  0  0
  7  6  1  0  0  0  0
  8  7  2  0  0  0  0
  9  4  1  0  0  0  0
 10  3  1  1  0  0  0
 10  6  1  0  0  0  0
 11 15  1  1  0  0  0
 12  1  2  0  0  0  0
 12  8  1  0  0  0  0
 13 11  1  0  0  0  0
 14 13  2  0  0  0  0
 15 16  2  0  0  0  0
 17 15  1  0  0  0  0
 17 18  1  0  0  0  0
 19 24  1  0  0  0  0
 19 22  1  0  0  0  0
 21 26  1  1  0  0  0
 22 20  1  6  0  0  0
 22 21  1  0  0  0  0
 23 21  1  0  0  0  0
 24 23  2  0  0  0  0
 25 18  1  0  0  0  0
 25 24  1  0  0  0  0
 26 28  1  0  0  0  0
 28 27  1  0  0  0  0
 29  9  1  0  0  0  0
 30 29  1  0  0  0  0
 31  1  1  0  0  0  0
 32 31  1  6  0  0  0
 32 33  1  0  0  0  0
 34 33  1  0  0  0  0
 35 37  1  1  0  0  0
 35 34  1  0  0  0  0
 36 35  1  0  0  0  0
 36 32  1  0  0  0  0
 37 38  1  6  0  0  0
 37 41  1  0  0  0  0
 38 39  1  0  0  0  0
 40 41  2  0  0  0  0
M  END
>  <MODEL>
7

>  <REMARK>
 VINA RESULT:      -6.3      1.620      1.994
  Name = 
  11 active torsions:
  status: ('A' for Active; 'I' for Inactive)
    1  A    between atoms: C_1  and  S_21
    2  A    between atoms: C_3  and  S_21
    3  A    between atoms: C_9  and  C_28
    4  A    between atoms: C_10  and  C_15
    5  A    between atoms: C_12  and  N_29
    6  A    between atoms: C_12  and  N_41
    7  A    between atoms: C_13  and  C_30
    8  A    between atoms: C_13  and  C_34
    9  A    between atoms: C_14  and  C_15
   10  A    between atoms: C_15  and  C_26
   11  A    between atoms: C_24  and  O_35
                            x       y       z     vdW  Elec       q    Type
                         _______ _______ _______ _____ _____    ______ ____

>  <TORSDO>
F 11

$$$$
=
 OpenBabel11042412383D

 41 44  0  0  1  0  0  0  0  0999 V2000
  186.0270  178.6260  139.6320 C   0  0  0  0  0  0  0  0  0  0  0  0
  182.6420  178.7280  139.7690 C   0  0  0  0  0  2  0  0  0  0  0  0
  183.6970  179.7090  139.2740 C   0  0  0  0  0  2  0  0  0  0  0  0
  188.1520  176.8070  137.1330 N   0  0  0  0  0  2  0  0  0  0  0  0
  190.3740  176.1380  137.0370 O   0  0  0  0  0  0  0  0  0  0  0  0
  184.6370  177.8350  137.7550 C   0  0  1  0  0  3  0  0  0  0  0  0
  185.8700  177.3990  137.1020 N   0  0  0  0  0  0  0  0  0  0  0  0
  186.9970  177.3750  137.7650 C   0  0  0  0  0  0  0  0  0  0  0  0
  189.4800  176.7620  137.6710 C   0  0  0  0  0  0  0  0  0  0  0  0
  184.9320  179.0340  138.6640 C   0  0  2  0  0  3  0  0  0  0  0  0
  181.8570  177.9640  138.6800 C   0  0  1  0  0  3  0  0  0  0  0  0
  187.0370  177.8790  139.1690 C   0  0  0  0  0  3  0  0  0  0  0  0
  182.2680  178.1950  137.2280 C   0  0  0  0  0  3  0  0  0  0  0  0
  183.5320  178.1100  136.7880 C   0  0  0  0  0  3  0  0  0  0  0  0
  181.8120  176.5070  139.0360 C   0  0  0  0  0  0  0  0  0  0  0  0
  182.6020  176.0410  139.9090 O   0  0  0  0  0  0  0  0  0  0  0  0
  180.8200  175.6650  138.4400 N   0  0  0  0  0  2  0  0  0  0  0  0
  180.4900  174.3310  138.9540 C   0  0  0  0  0  2  0  0  0  0  0  0
  181.1500  171.8390  135.6560 S   0  0  0  0  0  0  0  0  0  0  0  0
  183.3060  170.2510  136.2160 C   0  0  0  0  0  1  0  0  0  0  0  0
  183.5930  172.8060  136.2720 C   0  0  1  0  0  3  0  0  0  0  0  0
  182.9550  171.5900  135.5760 C   0  0  2  0  0  3  0  0  0  0  0  0
  182.6380  173.3460  137.2150 N   0  0  0  0  0  0  0  0  0  0  0  0
  181.4190  172.9790  136.9960 C   0  0  0  0  0  0  0  0  0  0  0  0
  180.3500  173.3730  137.8570 N   0  0  0  0  0  2  0  0  0  0  0  0
  184.9400  172.5480  136.9350 C   0  0  0  0  0  2  0  0  0  0  0  0
  187.0630  173.6030  137.2230 O   0  0  0  0  0  1  0  0  0  0  0  0
  185.6960  173.8540  137.1010 C   0  0  0  0  0  2  0  0  0  0  0  0
  189.7850  177.3930  138.8880 O   0  0  0  0  0  0  0  0  0  0  0  0
  191.0350  177.1940  139.5450 C   0  0  0  0  0  1  0  0  0  0  0  0
  185.9280  178.9660  141.3940 S   0  0  0  0  0  0  0  0  0  0  0  0
  187.3850  177.9620  141.8390 C   0  0  2  0  0  3  0  0  0  0  0  0
  187.0370  177.1300  143.0550 C   0  0  0  0  0  2  0  0  0  0  0  0
  188.2240  177.2740  143.9630 C   0  0  0  0  0  2  0  0  0  0  0  0
  189.1650  178.2130  143.2280 C   0  0  2  0  0  3  0  0  0  0  0  0
  188.4800  178.7980  142.1450 O   0  0  0  0  0  0  0  0  0  0  0  0
  190.4100  177.4660  142.7370 C   0  0  1  0  0  3  0  0  0  0  0  0
  191.6800  178.1830  143.1820 C   0  0  0  0  0  2  0  0  0  0  0  0
  191.3340  179.3510  143.9700 N   0  0  0  0  0  1  0  0  0  0  0  0
  191.4310  175.5640  143.7030 O   0  0  0  0  0  0  0  0  0  0  0  0
  190.4070  176.0640  143.2670 C   0  0  0  0  0  3  0  0  0  0  0  0
  1 31  1  0  0  0  0
  3  2  1  0  0  0  0
  4  9  1  0  0  0  0
  4  8  1  0  0  0  0
  5  9  2  0  0  0  0
  6 14  1  6  0  0  0
  6 10  1  0  0  0  0
  7  6  1  0  0  0  0
  7  8  2  0  0  0  0
  8 12  1  0  0  0  0
  9 29  1  0  0  0  0
 10  3  1  1  0  0  0
 10  1  1  0  0  0  0
 11 15  1  1  0  0  0
 11  2  1  0  0  0  0
 12  1  2  0  0  0  0
 13 11  1  0  0  0  0
 14 13  2  0  0  0  0
 15 16  2  0  0  0  0
 17 18  1  0  0  0  0
 17 15  1  0  0  0  0
 19 24  1  0  0  0  0
 21 26  1  1  0  0  0
 21 23  1  0  0  0  0
 22 19  1  0  0  0  0
 22 20  1  1  0  0  0
 22 21  1  0  0  0  0
 24 23  2  0  0  0  0
 24 25  1  0  0  0  0
 25 18  1  0  0  0  0
 26 28  1  0  0  0  0
 28 27  1  0  0  0  0
 29 30  1  0  0  0  0
 32 31  1  1  0  0  0
 32 36  1  0  0  0  0
 32 33  1  0  0  0  0
 33 34  1  0  0  0  0
 35 37  1  6  0  0  0
 35 34  1  0  0  0  0
 36 35  1  0  0  0  0
 37 38  1  1  0  0  0
 37 41  1  0  0  0  0
 38 39  1  0  0  0  0
 41 40  2  0  0  0  0
M  END
>  <MODEL>
8

>  <REMARK>
 VINA RESULT:      -6.0      2.624      7.251
  Name = 
  11 active torsions:
  status: ('A' for Active; 'I' for Inactive)
    1  A    between atoms: C_1  and  S_21
    2  A    between atoms: C_3  and  S_21
    3  A    between atoms: C_9  and  C_28
    4  A    between atoms: C_10  and  C_15
    5  A    between atoms: C_12  and  N_29
    6  A    between atoms: C_12  and  N_41
    7  A    between atoms: C_13  and  C_30
    8  A    between atoms: C_13  and  C_34
    9  A    between atoms: C_14  and  C_15
   10  A    between atoms: C_15  and  C_26
   11  A    between atoms: C_24  and  O_35
                            x       y       z     vdW  Elec       q    Type
                         _______ _______ _______ _____ _____    ______ ____

>  <TORSDO>
F 11

$$$$
=
 OpenBabel11042412383D

 41 44  0  0  1  0  0  0  0  0999 V2000
  189.0240  177.9430  140.2760 C   0  0  0  0  0  0  0  0  0  0  0  0
  188.8360  176.9680  137.0350 C   0  0  0  0  0  2  0  0  0  0  0  0
  189.3270  178.2400  137.7160 C   0  0  0  0  0  2  0  0  0  0  0  0
  191.5900  176.9250  142.8160 N   0  0  0  0  0  2  0  0  0  0  0  0
  191.7310  176.9950  145.1320 O   0  0  0  0  0  0  0  0  0  0  0  0
  190.8970  176.7800  139.1690 C   0  0  1  0  0  3  0  0  0  0  0  0
  191.5760  176.7660  140.4630 N   0  0  0  0  0  0  0  0  0  0  0  0
  190.9300  177.0900  141.5540 C   0  0  0  0  0  0  0  0  0  0  0  0
  191.0720  177.2950  144.1000 C   0  0  0  0  0  0  0  0  0  0  0  0
  189.9680  177.9980  139.0890 C   0  0  2  0  0  3  0  0  0  0  0  0
  189.9290  176.0100  136.5100 C   0  0  1  0  0  3  0  0  0  0  0  0
  189.5170  177.5600  141.4600 C   0  0  0  0  0  3  0  0  0  0  0  0
  191.3810  176.3800  136.7980 C   0  0  0  0  0  3  0  0  0  0  0  0
  191.8420  176.7050  138.0150 C   0  0  0  0  0  3  0  0  0  0  0  0
  189.6010  174.6090  136.9340 C   0  0  0  0  0  0  0  0  0  0  0  0
  190.4440  173.9310  137.5920 O   0  0  0  0  0  0  0  0  0  0  0  0
  188.3040  174.0720  136.6570 N   0  0  0  0  0  2  0  0  0  0  0  0
  187.7860  172.8610  137.3010 C   0  0  0  0  0  2  0  0  0  0  0  0
  183.8110  172.4010  136.0710 S   0  0  0  0  0  0  0  0  0  0  0  0
  182.9150  174.8300  135.1890 C   0  0  0  0  0  1  0  0  0  0  0  0
  183.7940  174.6280  137.5970 C   0  0  1  0  0  3  0  0  0  0  0  0
  182.9870  173.9830  136.4540 C   0  0  2  0  0  3  0  0  0  0  0  0
  185.1490  174.1240  137.5400 N   0  0  0  0  0  0  0  0  0  0  0  0
  185.2750  173.0320  136.8630 C   0  0  0  0  0  0  0  0  0  0  0  0
  186.5490  172.4190  136.6570 N   0  0  0  0  0  2  0  0  0  0  0  0
  183.7710  176.1510  137.6360 C   0  0  0  0  0  2  0  0  0  0  0  0
  182.5320  175.6500  139.6150 O   0  0  0  0  0  1  0  0  0  0  0  0
  182.7410  176.6290  138.6440 C   0  0  0  0  0  2  0  0  0  0  0  0
  189.8470  177.9720  144.2150 O   0  0  0  0  0  0  0  0  0  0  0  0
  189.2520  178.2400  145.4830 C   0  0  0  0  0  1  0  0  0  0  0  0
  187.2550  178.2100  140.1100 S   0  0  0  0  0  0  0  0  0  0  0  0
  186.9710  178.5480  141.8800 C   0  0  2  0  0  3  0  0  0  0  0  0
  187.3730  177.3210  142.6710 C   0  0  0  0  0  2  0  0  0  0  0  0
  186.2550  177.1220  143.6530 C   0  0  0  0  0  2  0  0  0  0  0  0
  185.2600  178.2260  143.3390 C   0  0  2  0  0  3  0  0  0  0  0  0
  185.6070  178.8250  142.1120 O   0  0  0  0  0  0  0  0  0  0  0  0
  185.2320  179.2710  144.4590 C   0  0  1  0  0  3  0  0  0  0  0  0
  183.8110  179.7730  144.6930 C   0  0  0  0  0  2  0  0  0  0  0  0
  182.8700  178.9390  143.9680 N   0  0  0  0  0  1  0  0  0  0  0  0
  185.2480  178.9220  146.7980 O   0  0  0  0  0  0  0  0  0  0  0  0
  185.7750  178.6800  145.7250 C   0  0  0  0  0  3  0  0  0  0  0  0
  1 12  2  0  0  0  0
  2  3  1  0  0  0  0
  4  9  1  0  0  0  0
  6 14  1  6  0  0  0
  6  7  1  0  0  0  0
  7  8  2  0  0  0  0
  8  4  1  0  0  0  0
  9 29  1  0  0  0  0
  9  5  2  0  0  0  0
 10  3  1  6  0  0  0
 10  6  1  0  0  0  0
 10  1  1  0  0  0  0
 11 13  1  0  0  0  0
 11 15  1  1  0  0  0
 11  2  1  0  0  0  0
 12  8  1  0  0  0  0
 13 14  2  0  0  0  0
 15 16  2  0  0  0  0
 17 15  1  0  0  0  0
 17 18  1  0  0  0  0
 19 22  1  0  0  0  0
 19 24  1  0  0  0  0
 21 26  1  6  0  0  0
 22 20  1  6  0  0  0
 22 21  1  0  0  0  0
 23 21  1  0  0  0  0
 24 23  2  0  0  0  0
 25 24  1  0  0  0  0
 25 18  1  0  0  0  0
 26 28  1  0  0  0  0
 28 27  1  0  0  0  0
 29 30  1  0  0  0  0
 31  1  1  0  0  0  0
 32 31  1  6  0  0  0
 32 36  1  0  0  0  0
 32 33  1  0  0  0  0
 33 34  1  0  0  0  0
 35 34  1  0  0  0  0
 35 37  1  1  0  0  0
 36 35  1  0  0  0  0
 37 38  1  1  0  0  0
 37 41  1  0  0  0  0
 39 38  1  0  0  0  0
 41 40  2  0  0  0  0
M  END
>  <MODEL>
9

>  <REMARK>
 VINA RESULT:      -5.9      2.672      9.073
  Name = 
  11 active torsions:
  status: ('A' for Active; 'I' for Inactive)
    1  A    between atoms: C_1  and  S_21
    2  A    between atoms: C_3  and  S_21
    3  A    between atoms: C_9  and  C_28
    4  A    between atoms: C_10  and  C_15
    5  A    between atoms: C_12  and  N_29
    6  A    between atoms: C_12  and  N_41
    7  A    between atoms: C_13  and  C_30
    8  A    between atoms: C_13  and  C_34
    9  A    between atoms: C_14  and  C_15
   10  A    between atoms: C_15  and  C_26
   11  A    between atoms: C_24  and  O_35
                            x       y       z     vdW  Elec       q    Type
                         _______ _______ _______ _____ _____    ______ ____

>  <TORSDO>
F 11

$$$$
