=
 OpenBabel11042413003D

 42 48  0  0  1  0  0  0  0  0999 V2000
  188.1970  177.8840  141.2710 C   0  0  0  0  0  0  0  0  0  0  0  0
  189.2300  177.2270  141.6980 N   0  0  0  0  0  0  0  0  0  0  0  0
  188.1190  176.6360  143.8400 C   0  0  2  0  0  0  0  0  0  0  0  0
  188.5200  178.1410  146.1690 C   0  0  2  0  0  3  0  0  0  0  0  0
  187.2620  177.4430  145.8900 C   0  0  0  0  0  2  0  0  0  0  0  0
  189.3220  176.5450  142.9960 C   0  0  2  0  0  3  0  0  0  0  0  0
  189.2410  177.5300  144.0950 N   0  0  2  0  0  0  0  0  0  0  0  0
  188.5650  176.8890  145.2630 C   0  0  2  0  0  0  0  0  0  0  0  0
  187.0090  178.0030  142.1240 C   0  0  0  0  0  0  0  0  0  0  0  0
  187.0100  177.4470  143.2960 N   0  0  0  0  0  0  0  0  0  0  0  0
  188.1740  178.0500  148.7400 C   0  0  0  0  0  1  0  0  0  0  0  0
  190.1120  177.2660  147.6790 O   0  0  0  0  0  0  0  0  0  0  0  0
  189.0230  177.7990  147.5390 C   0  0  0  0  0  0  0  0  0  0  0  0
  185.8260  178.8050  141.6800 C   0  0  2  0  0  3  0  0  0  0  0  0
  185.7610  180.0080  142.3860 O   0  0  0  0  0  1  0  0  0  0  0  0
  182.5700  178.7490  141.3260 C   0  0  0  0  0  2  0  0  0  0  0  0
  183.4480  178.7210  142.5630 C   0  0  0  0  0  2  0  0  0  0  0  0
  184.5260  177.9840  141.7860 C   0  0  1  0  0  3  0  0  0  0  0  0
  183.6070  177.9520  140.5530 C   0  0  2  0  0  3  0  0  0  0  0  0
  183.9030  178.0490  137.9960 N   0  0  0  0  0  2  0  0  0  0  0  0
  184.0650  178.6510  139.2860 C   0  0  0  0  0  0  0  0  0  0  0  0
  184.7230  179.7210  139.3610 O   0  0  0  0  0  0  0  0  0  0  0  0
  183.3650  176.7140  137.7860 C   0  0  0  0  0  2  0  0  0  0  0  0
  184.5010  175.7490  137.5210 C   0  0  0  0  0  2  0  0  0  0  0  0
  184.9050  173.2730  137.7680 N   0  0  0  0  0  1  0  0  0  0  0  0
  182.7630  174.1210  137.4690 O   0  0  0  0  0  0  0  0  0  0  0  0
  183.9980  174.3500  137.5730 C   0  0  0  0  0  0  0  0  0  0  0  0
  188.2500  178.5310  139.9230 C   0  0  0  0  0  2  0  0  0  0  0  0
  188.3640  177.4990  138.8120 C   0  0  2  0  0  3  0  0  0  0  0  0
  189.2300  176.8080  136.0910 C   0  0  0  0  0  2  0  0  0  0  0  0
  189.8400  177.3120  138.4640 C   0  0  0  0  0  2  0  0  0  0  0  0
  187.5910  177.9650  137.5780 C   0  0  0  0  0  2  0  0  0  0  0  0
  190.0040  176.3170  137.3150 C   0  0  2  0  0  3  0  0  0  0  0  0
  187.7530  176.9680  136.4360 C   0  0  0  0  0  2  0  0  0  0  0  0
  192.2960  176.2420  138.2490 C   0  0  0  0  0  2  0  0  0  0  0  0
  192.0310  174.9010  137.5880 C   0  0  1  0  0  3  0  0  0  0  0  0
  191.4780  176.1810  136.9770 C   0  0  1  0  0  3  0  0  0  0  0  0
  193.2490  174.4480  136.8390 C   0  0  0  0  0  0  0  0  0  0  0  0
  193.1140  173.8520  135.7000 N   0  0  0  0  0  2  0  0  0  0  0  0
  194.5770  174.5130  137.4730 C   0  0  0  0  0  0  0  0  0  0  0  0
  195.5360  175.4030  137.0050 O   0  0  0  0  0  0  0  0  0  0  0  0
  194.8510  173.7670  138.4510 O   0  0  0  0  0  1  0  0  0  0  0  0
  1  2  2  0  0  0  0
  1  9  1  0  0  0  0
  3 10  1  6  0  0  0
  3  7  1  0  0  0  0
  3  8  1  0  0  0  0
  4 13  1  1  0  0  0
  5  4  1  0  0  0  0
  6  2  1  6  0  0  0
  6  3  1  0  0  0  0
  6  7  1  0  0  0  0
  7  8  1  0  0  0  0
  8  5  1  0  0  0  0
  8  4  1  0  0  0  0
  9 10  2  0  0  0  0
 13 12  2  0  0  0  0
 13 11  1  0  0  0  0
 14 18  1  0  0  0  0
 14  9  1  0  0  0  0
 14 15  1  0  0  0  0
 16 17  1  0  0  0  0
 18 17  1  0  0  0  0
 19 16  1  0  0  0  0
 19 18  1  0  0  0  0
 20 21  1  0  0  0  0
 21 22  2  0  0  0  0
 21 19  1  0  0  0  0
 23 20  1  0  0  0  0
 24 27  1  0  0  0  0
 24 23  1  0  0  0  0
 26 27  2  0  0  0  0
 27 25  1  0  0  0  0
 28  1  1  0  0  0  0
 29 28  1  0  0  0  0
 30 34  1  0  0  0  0
 30 33  1  0  0  0  0
 31 29  1  0  0  0  0
 32 29  1  0  0  0  0
 33 31  1  0  0  0  0
 34 32  1  0  0  0  0
 36 35  1  0  0  0  0
 37 33  1  0  0  0  0
 37 36  1  0  0  0  0
 37 35  1  0  0  0  0
 38 40  1  0  0  0  0
 38 36  1  0  0  0  0
 39 38  2  0  0  0  0
 40 42  1  0  0  0  0
 41 40  2  0  0  0  0
M  END
>  <MODEL>
1

>  <REMARK>
 VINA RESULT:      -8.3      0.000      0.000
  Name = 
  12 active torsions:
  status: ('A' for Active; 'I' for Inactive)
    1  A    between atoms: N_1  and  C_38
    2  A    between atoms: C_2  and  C_23
    3  A    between atoms: C_2  and  C_38
    4  A    between atoms: C_3  and  C_32
    5  A    between atoms: C_5  and  CA_30
    6  A    between atoms: C_6  and  CA_30
    7  A    between atoms: C_8  and  C_33
    8  A    between atoms: C_8  and  C_37
    9  A    between atoms: C_10  and  C_32
   10  A    between atoms: C_13  and  C_28
   11  A    between atoms: C_17  and  C_34
   12  A    between atoms: C_22  and  C_36
                            x       y       z     vdW  Elec       q    Type
                         _______ _______ _______ _____ _____    ______ ____

>  <TORSDO>
F 12

$$$$
=
 OpenBabel11042413003D

 42 48  0  0  1  0  0  0  0  0999 V2000
  186.1820  178.5780  140.9670 C   0  0  0  0  0  0  0  0  0  0  0  0
  187.3100  178.4910  141.6000 N   0  0  0  0  0  0  0  0  0  0  0  0
  188.6300  178.5070  139.4960 C   0  0  2  0  0  0  0  0  0  0  0  0
  189.4980  176.1340  138.2870 C   0  0  2  0  0  3  0  0  0  0  0  0
  189.1730  177.3360  137.5150 C   0  0  0  0  0  2  0  0  0  0  0  0
  188.6340  178.4420  140.9660 C   0  0  2  0  0  3  0  0  0  0  0  0
  188.7640  177.2140  140.1540 N   0  0  2  0  0  0  0  0  0  0  0  0
  189.6420  177.5080  138.9800 C   0  0  2  0  0  0  0  0  0  0  0  0
  186.1730  178.6110  139.4990 C   0  0  0  0  0  0  0  0  0  0  0  0
  187.2990  178.5530  138.8570 N   0  0  0  0  0  0  0  0  0  0  0  0
  191.9850  176.5490  137.6660 C   0  0  0  0  0  1  0  0  0  0  0  0
  191.0460  174.4080  137.8360 O   0  0  0  0  0  0  0  0  0  0  0  0
  190.8500  175.6100  137.9050 C   0  0  0  0  0  0  0  0  0  0  0  0
  184.8830  178.6520  138.7420 C   0  0  2  0  0  3  0  0  0  0  0  0
  184.2670  179.8960  138.8970 O   0  0  0  0  0  1  0  0  0  0  0  0
  182.1300  176.9840  138.1400 C   0  0  0  0  0  2  0  0  0  0  0  0
  182.5140  177.9140  139.2740 C   0  0  0  0  0  2  0  0  0  0  0  0
  183.9650  177.4820  139.1430 C   0  0  1  0  0  3  0  0  0  0  0  0
  183.5630  176.4880  138.0390 C   0  0  2  0  0  3  0  0  0  0  0  0
  185.3730  176.0160  136.2690 N   0  0  0  0  0  2  0  0  0  0  0  0
  184.1540  176.6630  136.6530 C   0  0  0  0  0  0  0  0  0  0  0  0
  183.6480  177.4940  135.8540 O   0  0  0  0  0  0  0  0  0  0  0  0
  186.1800  175.2090  137.1700 C   0  0  0  0  0  2  0  0  0  0  0  0
  186.5400  173.9040  136.4890 C   0  0  0  0  0  2  0  0  0  0  0  0
  185.3580  171.7270  136.0220 N   0  0  0  0  0  1  0  0  0  0  0  0
  184.9280  172.9420  137.9550 O   0  0  0  0  0  0  0  0  0  0  0  0
  185.5600  172.8500  136.8690 C   0  0  0  0  0  0  0  0  0  0  0  0
  184.9060  178.6170  141.7490 C   0  0  0  0  0  2  0  0  0  0  0  0
  185.1600  178.9410  143.2130 C   0  0  2  0  0  3  0  0  0  0  0  0
  185.2200  178.0630  146.0160 C   0  0  0  0  0  2  0  0  0  0  0  0
  186.2550  178.0170  143.7400 C   0  0  0  0  0  2  0  0  0  0  0  0
  183.8780  178.7470  144.0240 C   0  0  0  0  0  2  0  0  0  0  0  0
  186.5120  178.2710  145.2250 C   0  0  2  0  0  3  0  0  0  0  0  0
  184.1370  179.0070  145.5040 C   0  0  0  0  0  2  0  0  0  0  0  0
  188.4520  176.8860  144.5570 C   0  0  0  0  0  2  0  0  0  0  0  0
  188.9590  177.9370  145.5270 C   0  0  1  0  0  3  0  0  0  0  0  0
  187.5830  177.3140  145.7190 C   0  0  1  0  0  3  0  0  0  0  0  0
  189.9460  177.3270  146.4780 C   0  0  0  0  0  0  0  0  0  0  0  0
  189.6540  177.2420  147.7340 N   0  0  0  0  0  2  0  0  0  0  0  0
  191.3070  176.9960  146.0230 C   0  0  0  0  0  0  0  0  0  0  0  0
  191.7310  177.3650  144.7510 O   0  0  0  0  0  0  0  0  0  0  0  0
  192.1000  176.3840  146.7860 O   0  0  0  0  0  1  0  0  0  0  0  0
  1  2  2  0  0  0  0
  1 28  1  0  0  0  0
  3 10  1  6  0  0  0
  3  7  1  0  0  0  0
  3  6  1  0  0  0  0
  4 13  1  6  0  0  0
  4  8  1  0  0  0  0
  5  4  1  0  0  0  0
  5  8  1  0  0  0  0
  6  2  1  6  0  0  0
  7  6  1  0  0  0  0
  8  3  1  0  0  0  0
  8  7  1  0  0  0  0
  9  1  1  0  0  0  0
 10  9  2  0  0  0  0
 11 13  1  0  0  0  0
 12 13  2  0  0  0  0
 14 15  1  0  0  0  0
 14 18  1  0  0  0  0
 14  9  1  0  0  0  0
 16 17  1  0  0  0  0
 18 17  1  0  0  0  0
 19 16  1  0  0  0  0
 19 18  1  0  0  0  0
 20 21  1  0  0  0  0
 20 23  1  0  0  0  0
 21 19  1  0  0  0  0
 22 21  2  0  0  0  0
 24 27  1  0  0  0  0
 24 23  1  0  0  0  0
 25 27  1  0  0  0  0
 27 26  2  0  0  0  0
 28 29  1  0  0  0  0
 29 31  1  0  0  0  0
 29 32  1  0  0  0  0
 31 33  1  0  0  0  0
 32 34  1  0  0  0  0
 33 37  1  0  0  0  0
 33 30  1  0  0  0  0
 34 30  1  0  0  0  0
 35 36  1  0  0  0  0
 35 37  1  0  0  0  0
 36 37  1  0  0  0  0
 36 38  1  0  0  0  0
 38 39  2  0  0  0  0
 40 38  1  0  0  0  0
 40 42  1  0  0  0  0
 41 40  2  0  0  0  0
M  END
>  <MODEL>
2

>  <REMARK>
 VINA RESULT:      -8.1      2.274      6.821
  Name = 
  12 active torsions:
  status: ('A' for Active; 'I' for Inactive)
    1  A    between atoms: N_1  and  C_38
    2  A    between atoms: C_2  and  C_23
    3  A    between atoms: C_2  and  C_38
    4  A    between atoms: C_3  and  C_32
    5  A    between atoms: C_5  and  CA_30
    6  A    between atoms: C_6  and  CA_30
    7  A    between atoms: C_8  and  C_33
    8  A    between atoms: C_8  and  C_37
    9  A    between atoms: C_10  and  C_32
   10  A    between atoms: C_13  and  C_28
   11  A    between atoms: C_17  and  C_34
   12  A    between atoms: C_22  and  C_36
                            x       y       z     vdW  Elec       q    Type
                         _______ _______ _______ _____ _____    ______ ____

>  <TORSDO>
F 12

$$$$
=
 OpenBabel11042413003D

 42 48  0  0  1  0  0  0  0  0999 V2000
  188.8880  177.8060  140.2050 C   0  0  0  0  0  0  0  0  0  0  0  0
  188.5230  177.5410  138.9900 N   0  0  0  0  0  0  0  0  0  0  0  0
  190.3770  175.9210  138.6580 C   0  0  2  0  0  0  0  0  0  0  0  0
  192.7790  176.6680  137.4260 C   0  0  2  0  0  3  0  0  0  0  0  0
  192.7150  175.6330  138.4610 C   0  0  0  0  0  2  0  0  0  0  0  0
  189.2000  176.5980  138.0890 C   0  0  2  0  0  3  0  0  0  0  0  0
  190.5660  177.0740  137.7880 N   0  0  2  0  0  0  0  0  0  0  0  0
  191.4550  175.8880  137.5990 C   0  0  2  0  0  0  0  0  0  0  0  0
  190.0800  177.1560  140.7630 C   0  0  0  0  0  0  0  0  0  0  0  0
  190.7510  176.3230  140.0300 N   0  0  0  0  0  0  0  0  0  0  0  0
  192.7660  175.6350  135.0440 C   0  0  0  0  0  1  0  0  0  0  0  0
  194.7320  176.2310  136.1720 O   0  0  0  0  0  0  0  0  0  0  0  0
  193.5150  176.1650  136.2200 C   0  0  0  0  0  0  0  0  0  0  0  0
  190.5580  177.4890  142.1420 C   0  0  2  0  0  3  0  0  0  0  0  0
  191.8780  177.9450  142.1020 O   0  0  0  0  0  1  0  0  0  0  0  0
  191.3840  176.0860  144.9840 C   0  0  0  0  0  2  0  0  0  0  0  0
  191.6990  175.7120  143.5480 C   0  0  0  0  0  2  0  0  0  0  0  0
  190.3710  176.2970  143.0990 C   0  0  1  0  0  3  0  0  0  0  0  0
  190.0220  176.6130  144.5630 C   0  0  2  0  0  3  0  0  0  0  0  0
  188.7340  178.4410  145.8410 N   0  0  0  0  0  2  0  0  0  0  0  0
  189.7990  178.0600  144.9620 C   0  0  0  0  0  0  0  0  0  0  0  0
  190.4690  178.9740  144.4140 O   0  0  0  0  0  0  0  0  0  0  0  0
  187.7450  177.5130  146.3670 C   0  0  0  0  0  2  0  0  0  0  0  0
  187.1610  178.0730  147.6470 C   0  0  0  0  0  2  0  0  0  0  0  0
  184.7990  178.3040  146.7950 N   0  0  0  0  0  1  0  0  0  0  0  0
  185.9860  180.1440  147.5710 O   0  0  0  0  0  0  0  0  0  0  0  0
  185.9680  178.9060  147.3340 C   0  0  0  0  0  0  0  0  0  0  0  0
  188.0990  178.7940  141.0050 C   0  0  0  0  0  2  0  0  0  0  0  0
  186.7940  178.1920  141.5050 C   0  0  2  0  0  3  0  0  0  0  0  0
  184.1560  178.5660  142.7410 C   0  0  0  0  0  2  0  0  0  0  0  0
  185.6350  178.8280  140.7410 C   0  0  0  0  0  2  0  0  0  0  0  0
  186.6370  178.4500  143.0040 C   0  0  0  0  0  2  0  0  0  0  0  0
  184.2950  178.2910  141.2430 C   0  0  2  0  0  3  0  0  0  0  0  0
  185.3010  177.9070  143.5020 C   0  0  0  0  0  2  0  0  0  0  0  0
  183.3420  178.7260  139.0000 C   0  0  0  0  0  2  0  0  0  0  0  0
  182.3190  177.9180  139.7780 C   0  0  1  0  0  3  0  0  0  0  0  0
  183.1680  178.9670  140.4830 C   0  0  1  0  0  3  0  0  0  0  0  0
  180.9400  178.4490  139.5190 C   0  0  0  0  0  0  0  0  0  0  0  0
  180.6680  178.9900  138.3770 N   0  0  0  0  0  2  0  0  0  0  0  0
  179.9570  178.5240  140.6130 C   0  0  0  0  0  0  0  0  0  0  0  0
  179.8560  177.4910  141.5380 O   0  0  0  0  0  1  0  0  0  0  0  0
  179.2060  179.5290  140.7230 O   0  0  0  0  0  0  0  0  0  0  0  0
  1  9  1  0  0  0  0
  1 28  1  0  0  0  0
  2  1  2  0  0  0  0
  3 10  1  1  0  0  0
  4 13  1  6  0  0  0
  4  8  1  0  0  0  0
  4  5  1  0  0  0  0
  6  3  1  0  0  0  0
  6  2  1  1  0  0  0
  7  6  1  0  0  0  0
  7  3  1  0  0  0  0
  8  7  1  0  0  0  0
  8  5  1  0  0  0  0
  8  3  1  0  0  0  0
  9 14  1  0  0  0  0
 10  9  2  0  0  0  0
 11 13  1  0  0  0  0
 12 13  2  0  0  0  0
 14 18  1  0  0  0  0
 15 14  1  0  0  0  0
 17 16  1  0  0  0  0
 18 17  1  0  0  0  0
 18 19  1  0  0  0  0
 19 21  1  0  0  0  0
 19 16  1  0  0  0  0
 20 23  1  0  0  0  0
 21 20  1  0  0  0  0
 22 21  2  0  0  0  0
 23 24  1  0  0  0  0
 25 27  1  0  0  0  0
 27 26  2  0  0  0  0
 27 24  1  0  0  0  0
 28 29  1  0  0  0  0
 29 32  1  0  0  0  0
 30 34  1  0  0  0  0
 31 33  1  0  0  0  0
 31 29  1  0  0  0  0
 32 34  1  0  0  0  0
 33 30  1  0  0  0  0
 35 36  1  0  0  0  0
 35 37  1  0  0  0  0
 36 37  1  0  0  0  0
 37 33  1  0  0  0  0
 38 36  1  0  0  0  0
 38 40  1  0  0  0  0
 39 38  2  0  0  0  0
 40 42  2  0  0  0  0
 40 41  1  0  0  0  0
M  END
>  <MODEL>
3

>  <REMARK>
 VINA RESULT:      -7.6      2.663      9.440
  Name = 
  12 active torsions:
  status: ('A' for Active; 'I' for Inactive)
    1  A    between atoms: N_1  and  C_38
    2  A    between atoms: C_2  and  C_23
    3  A    between atoms: C_2  and  C_38
    4  A    between atoms: C_3  and  C_32
    5  A    between atoms: C_5  and  CA_30
    6  A    between atoms: C_6  and  CA_30
    7  A    between atoms: C_8  and  C_33
    8  A    between atoms: C_8  and  C_37
    9  A    between atoms: C_10  and  C_32
   10  A    between atoms: C_13  and  C_28
   11  A    between atoms: C_17  and  C_34
   12  A    between atoms: C_22  and  C_36
                            x       y       z     vdW  Elec       q    Type
                         _______ _______ _______ _____ _____    ______ ____

>  <TORSDO>
F 12

$$$$
=
 OpenBabel11042413003D

 42 48  0  0  1  0  0  0  0  0999 V2000
  185.2390  178.5200  141.0400 C   0  0  0  0  0  0  0  0  0  0  0  0
  186.4720  178.6710  141.4120 N   0  0  0  0  0  0  0  0  0  0  0  0
  187.3160  178.5680  139.0780 C   0  0  2  0  0  0  0  0  0  0  0  0
  188.2840  176.1850  137.9690 C   0  0  2  0  0  3  0  0  0  0  0  0
  187.6220  177.2150  137.1640 C   0  0  0  0  0  2  0  0  0  0  0  0
  187.6300  178.7090  140.5100 C   0  0  2  0  0  3  0  0  0  0  0  0
  187.7840  177.4080  139.8250 N   0  0  2  0  0  0  0  0  0  0  0  0
  188.3460  177.6480  138.4620 C   0  0  2  0  0  0  0  0  0  0  0  0
  184.9260  178.3470  139.6160 C   0  0  0  0  0  0  0  0  0  0  0  0
  185.8920  178.3480  138.7500 N   0  0  0  0  0  0  0  0  0  0  0  0
  190.8730  176.0390  138.0860 C   0  0  0  0  0  1  0  0  0  0  0  0
  189.6240  175.2300  136.2750 O   0  0  0  0  0  0  0  0  0  0  0  0
  189.5950  175.7950  137.3550 C   0  0  0  0  0  0  0  0  0  0  0  0
  183.5190  178.1120  139.1650 C   0  0  2  0  0  3  0  0  0  0  0  0
  183.1470  176.7870  139.4000 O   0  0  0  0  0  1  0  0  0  0  0  0
  181.5690  178.1080  136.5330 C   0  0  0  0  0  2  0  0  0  0  0  0
  182.8610  177.3710  136.8290 C   0  0  0  0  0  2  0  0  0  0  0  0
  183.3290  178.5290  137.6940 C   0  0  1  0  0  3  0  0  0  0  0  0
  182.0500  179.3050  137.3380 C   0  0  2  0  0  3  0  0  0  0  0  0
  180.8930  181.0550  138.8320 N   0  0  0  0  0  2  0  0  0  0  0  0
  181.0960  179.6880  138.4550 C   0  0  0  0  0  0  0  0  0  0  0  0
  180.5670  178.7930  139.1640 O   0  0  0  0  0  0  0  0  0  0  0  0
  181.6150  182.1740  138.2470 C   0  0  0  0  0  2  0  0  0  0  0  0
  180.7960  182.7650  137.1190 C   0  0  0  0  0  2  0  0  0  0  0  0
  182.2440  184.7750  137.5860 N   0  0  0  0  0  1  0  0  0  0  0  0
  180.2690  184.9670  136.3780 O   0  0  0  0  0  0  0  0  0  0  0  0
  181.0690  184.2240  137.0070 C   0  0  0  0  0  0  0  0  0  0  0  0
  184.1600  178.4990  142.0770 C   0  0  0  0  0  2  0  0  0  0  0  0
  184.7040  178.8470  143.4550 C   0  0  2  0  0  3  0  0  0  0  0  0
  185.2820  178.0310  146.2170 C   0  0  0  0  0  2  0  0  0  0  0  0
  185.8520  177.8960  143.7850 C   0  0  0  0  0  2  0  0  0  0  0  0
  183.5990  178.7170  144.5040 C   0  0  0  0  0  2  0  0  0  0  0  0
  186.4000  178.1740  145.1840 C   0  0  2  0  0  3  0  0  0  0  0  0
  184.1490  179.0000  145.8980 C   0  0  0  0  0  2  0  0  0  0  0  0
  188.3940  177.0270  144.2660 C   0  0  0  0  0  2  0  0  0  0  0  0
  188.8630  177.9000  145.4160 C   0  0  1  0  0  3  0  0  0  0  0  0
  187.5170  177.1910  145.4890 C   0  0  1  0  0  3  0  0  0  0  0  0
  189.8840  177.1680  146.2340 C   0  0  0  0  0  0  0  0  0  0  0  0
  189.5940  176.8010  147.4400 N   0  0  0  0  0  2  0  0  0  0  0  0
  191.2660  177.0280  145.7440 C   0  0  0  0  0  0  0  0  0  0  0  0
  192.1100  176.0670  146.2890 O   0  0  0  0  0  1  0  0  0  0  0  0
  191.6910  177.7720  144.8210 O   0  0  0  0  0  0  0  0  0  0  0  0
  1  2  2  0  0  0  0
  1 28  1  0  0  0  0
  3 10  1  6  0  0  0
  3  7  1  0  0  0  0
  3  6  1  0  0  0  0
  4 13  1  6  0  0  0
  4  8  1  0  0  0  0
  5  4  1  0  0  0  0
  5  8  1  0  0  0  0
  6  2  1  1  0  0  0
  7  6  1  0  0  0  0
  8  3  1  0  0  0  0
  8  7  1  0  0  0  0
  9  1  1  0  0  0  0
 10  9  2  0  0  0  0
 12 13  2  0  0  0  0
 13 11  1  0  0  0  0
 14 15  1  0  0  0  0
 14  9  1  0  0  0  0
 16 17  1  0  0  0  0
 16 19  1  0  0  0  0
 17 18  1  0  0  0  0
 18 14  1  0  0  0  0
 19 18  1  0  0  0  0
 19 21  1  0  0  0  0
 21 20  1  0  0  0  0
 21 22  2  0  0  0  0
 23 20  1  0  0  0  0
 24 23  1  0  0  0  0
 26 27  2  0  0  0  0
 27 24  1  0  0  0  0
 27 25  1  0  0  0  0
 28 29  1  0  0  0  0
 29 31  1  0  0  0  0
 29 32  1  0  0  0  0
 31 33  1  0  0  0  0
 32 34  1  0  0  0  0
 33 37  1  0  0  0  0
 33 30  1  0  0  0  0
 34 30  1  0  0  0  0
 35 36  1  0  0  0  0
 35 37  1  0  0  0  0
 36 37  1  0  0  0  0
 36 38  1  0  0  0  0
 38 39  2  0  0  0  0
 40 38  1  0  0  0  0
 40 41  1  0  0  0  0
 42 40  2  0  0  0  0
M  END
>  <MODEL>
4

>  <REMARK>
 VINA RESULT:      -7.5      3.123      7.762
  Name = 
  12 active torsions:
  status: ('A' for Active; 'I' for Inactive)
    1  A    between atoms: N_1  and  C_38
    2  A    between atoms: C_2  and  C_23
    3  A    between atoms: C_2  and  C_38
    4  A    between atoms: C_3  and  C_32
    5  A    between atoms: C_5  and  CA_30
    6  A    between atoms: C_6  and  CA_30
    7  A    between atoms: C_8  and  C_33
    8  A    between atoms: C_8  and  C_37
    9  A    between atoms: C_10  and  C_32
   10  A    between atoms: C_13  and  C_28
   11  A    between atoms: C_17  and  C_34
   12  A    between atoms: C_22  and  C_36
                            x       y       z     vdW  Elec       q    Type
                         _______ _______ _______ _____ _____    ______ ____

>  <TORSDO>
F 12

$$$$
=
 OpenBabel11042413003D

 42 48  0  0  1  0  0  0  0  0999 V2000
  187.1700  178.3130  139.5260 C   0  0  0  0  0  0  0  0  0  0  0  0
  186.6080  178.7640  140.6030 N   0  0  0  0  0  0  0  0  0  0  0  0
  184.3210  178.3540  139.7260 C   0  0  2  0  0  0  0  0  0  0  0  0
  182.8340  180.3830  138.4920 C   0  0  2  0  0  3  0  0  0  0  0  0
  182.6980  178.9720  138.1210 C   0  0  0  0  0  2  0  0  0  0  0  0
  185.1590  178.8430  140.8320 C   0  0  2  0  0  3  0  0  0  0  0  0
  184.5440  179.7860  139.8750 N   0  0  2  0  0  0  0  0  0  0  0  0
  183.1620  179.3130  139.5580 C   0  0  2  0  0  0  0  0  0  0  0  0
  186.3360  177.8550  138.4080 C   0  0  0  0  0  0  0  0  0  0  0  0
  185.0440  177.9080  138.5180 N   0  0  0  0  0  0  0  0  0  0  0  0
  180.5070  180.2750  139.6390 C   0  0  0  0  0  1  0  0  0  0  0  0
  181.2110  182.0920  138.3340 O   0  0  0  0  0  0  0  0  0  0  0  0
  181.4910  180.9880  138.7720 C   0  0  0  0  0  0  0  0  0  0  0  0
  186.9580  177.3860  137.1310 C   0  0  2  0  0  3  0  0  0  0  0  0
  186.2360  177.8620  136.0340 O   0  0  0  0  0  1  0  0  0  0  0  0
  187.5120  174.6920  135.3530 C   0  0  0  0  0  2  0  0  0  0  0  0
  186.2610  175.2030  136.0410 C   0  0  0  0  0  2  0  0  0  0  0  0
  187.1140  175.8530  137.1180 C   0  0  1  0  0  3  0  0  0  0  0  0
  188.3780  175.2760  136.4570 C   0  0  2  0  0  3  0  0  0  0  0  0
  190.6880  176.4030  136.6020 N   0  0  0  0  0  2  0  0  0  0  0  0
  189.4300  176.2370  135.9370 C   0  0  0  0  0  0  0  0  0  0  0  0
  189.1590  177.0100  134.9820 O   0  0  0  0  0  0  0  0  0  0  0  0
  191.0420  175.7400  137.8470 C   0  0  0  0  0  2  0  0  0  0  0  0
  192.3160  174.9450  137.6480 C   0  0  0  0  0  2  0  0  0  0  0  0
  194.6240  175.6490  136.9170 N   0  0  0  0  0  1  0  0  0  0  0  0
  193.4820  176.8020  138.5800 O   0  0  0  0  0  0  0  0  0  0  0  0
  193.4950  175.8470  137.7580 C   0  0  0  0  0  0  0  0  0  0  0  0
  188.6640  178.2950  139.4340 C   0  0  0  0  0  2  0  0  0  0  0  0
  189.2870  177.5720  140.6190 C   0  0  2  0  0  3  0  0  0  0  0  0
  190.8350  177.6870  143.1120 C   0  0  0  0  0  2  0  0  0  0  0  0
  188.6890  178.1330  141.9070 C   0  0  0  0  0  2  0  0  0  0  0  0
  190.8030  177.7680  140.6160 C   0  0  0  0  0  2  0  0  0  0  0  0
  189.3220  177.4710  143.1310 C   0  0  2  0  0  3  0  0  0  0  0  0
  191.4310  177.1020  141.8360 C   0  0  0  0  0  2  0  0  0  0  0  0
  187.2540  177.7330  144.4680 C   0  0  0  0  0  2  0  0  0  0  0  0
  188.2500  176.9660  145.3190 C   0  0  1  0  0  3  0  0  0  0  0  0
  188.7260  178.0750  144.3900 C   0  0  1  0  0  3  0  0  0  0  0  0
  188.2000  177.4560  146.7360 C   0  0  0  0  0  0  0  0  0  0  0  0
  187.1210  178.0100  147.1830 N   0  0  0  0  0  2  0  0  0  0  0  0
  189.4230  177.4780  147.5570 C   0  0  0  0  0  0  0  0  0  0  0  0
  189.4740  178.2380  148.7190 O   0  0  0  0  0  1  0  0  0  0  0  0
  190.4290  176.8010  147.2150 O   0  0  0  0  0  0  0  0  0  0  0  0
  1  2  2  0  0  0  0
  3 10  1  6  0  0  0
  3  7  1  0  0  0  0
  3  6  1  0  0  0  0
  4 13  1  1  0  0  0
  4  8  1  0  0  0  0
  5  4  1  0  0  0  0
  5  8  1  0  0  0  0
  6  2  1  6  0  0  0
  7  6  1  0  0  0  0
  8  3  1  0  0  0  0
  8  7  1  0  0  0  0
  9 10  2  0  0  0  0
  9  1  1  0  0  0  0
 12 13  2  0  0  0  0
 13 11  1  0  0  0  0
 14  9  1  0  0  0  0
 15 14  1  0  0  0  0
 16 17  1  0  0  0  0
 16 19  1  0  0  0  0
 17 18  1  0  0  0  0
 18 14  1  0  0  0  0
 19 18  1  0  0  0  0
 20 23  1  0  0  0  0
 21 19  1  0  0  0  0
 21 20  1  0  0  0  0
 22 21  2  0  0  0  0
 24 27  1  0  0  0  0
 24 23  1  0  0  0  0
 25 27  1  0  0  0  0
 27 26  2  0  0  0  0
 28  1  1  0  0  0  0
 28 29  1  0  0  0  0
 29 31  1  0  0  0  0
 30 33  1  0  0  0  0
 31 33  1  0  0  0  0
 32 29  1  0  0  0  0
 32 34  1  0  0  0  0
 33 37  1  0  0  0  0
 34 30  1  0  0  0  0
 35 36  1  0  0  0  0
 36 38  1  0  0  0  0
 37 35  1  0  0  0  0
 37 36  1  0  0  0  0
 38 39  2  0  0  0  0
 38 40  1  0  0  0  0
 40 41  1  0  0  0  0
 42 40  2  0  0  0  0
M  END
>  <MODEL>
5

>  <REMARK>
 VINA RESULT:      -7.4      2.366      8.283
  Name = 
  12 active torsions:
  status: ('A' for Active; 'I' for Inactive)
    1  A    between atoms: N_1  and  C_38
    2  A    between atoms: C_2  and  C_23
    3  A    between atoms: C_2  and  C_38
    4  A    between atoms: C_3  and  C_32
    5  A    between atoms: C_5  and  CA_30
    6  A    between atoms: C_6  and  CA_30
    7  A    between atoms: C_8  and  C_33
    8  A    between atoms: C_8  and  C_37
    9  A    between atoms: C_10  and  C_32
   10  A    between atoms: C_13  and  C_28
   11  A    between atoms: C_17  and  C_34
   12  A    between atoms: C_22  and  C_36
                            x       y       z     vdW  Elec       q    Type
                         _______ _______ _______ _____ _____    ______ ____

>  <TORSDO>
F 12

$$$$
=
 OpenBabel11042413003D

 42 48  0  0  1  0  0  0  0  0999 V2000
  183.6300  178.5300  140.4980 C   0  0  0  0  0  0  0  0  0  0  0  0
  184.6030  179.3570  140.2750 N   0  0  0  0  0  0  0  0  0  0  0  0
  184.8660  178.6020  137.9230 C   0  0  2  0  0  0  0  0  0  0  0  0
  186.7700  176.6790  137.2000 C   0  0  2  0  0  3  0  0  0  0  0  0
  185.4950  176.8270  136.4940 C   0  0  0  0  0  2  0  0  0  0  0  0
  185.3240  179.4930  139.0020 C   0  0  2  0  0  3  0  0  0  0  0  0
  186.0490  178.2420  138.6930 N   0  0  2  0  0  0  0  0  0  0  0  0
  186.0870  178.0650  137.2100 C   0  0  2  0  0  0  0  0  0  0  0  0
  183.1930  177.6190  139.4330 C   0  0  0  0  0  0  0  0  0  0  0  0
  183.7890  177.6570  138.2810 N   0  0  0  0  0  0  0  0  0  0  0  0
  189.3220  176.6410  136.7260 C   0  0  0  0  0  1  0  0  0  0  0  0
  187.7030  176.6590  135.0310 O   0  0  0  0  0  0  0  0  0  0  0  0
  187.9140  176.6780  136.2320 C   0  0  0  0  0  0  0  0  0  0  0  0
  182.1130  176.6140  139.6820 C   0  0  2  0  0  3  0  0  0  0  0  0
  182.6650  175.3450  139.8780 O   0  0  0  0  0  1  0  0  0  0  0  0
  179.1550  175.6480  138.6610 C   0  0  0  0  0  2  0  0  0  0  0  0
  180.5510  175.2440  138.2260 C   0  0  0  0  0  2  0  0  0  0  0  0
  181.0620  176.6360  138.5560 C   0  0  1  0  0  3  0  0  0  0  0  0
  179.6330  177.0650  138.9320 C   0  0  2  0  0  3  0  0  0  0  0  0
  179.1980  178.9050  140.6800 N   0  0  0  0  0  2  0  0  0  0  0  0
  179.3590  177.5200  140.3530 C   0  0  0  0  0  0  0  0  0  0  0  0
  179.4040  176.6900  141.2980 O   0  0  0  0  0  0  0  0  0  0  0  0
  179.3490  179.9880  139.7200 C   0  0  0  0  0  2  0  0  0  0  0  0
  180.6960  180.6510  139.9190 C   0  0  0  0  0  2  0  0  0  0  0  0
  182.2880  181.8560  138.3800 N   0  0  0  0  0  1  0  0  0  0  0  0
  181.2120  179.9070  137.7150 O   0  0  0  0  0  0  0  0  0  0  0  0
  181.3940  180.7750  138.6100 C   0  0  0  0  0  0  0  0  0  0  0  0
  182.9900  178.5030  141.8500 C   0  0  0  0  0  2  0  0  0  0  0  0
  183.9730  178.9030  142.9410 C   0  0  2  0  0  3  0  0  0  0  0  0
  185.3930  178.2340  145.4240 C   0  0  0  0  0  2  0  0  0  0  0  0
  185.1220  177.8970  142.9600 C   0  0  0  0  0  2  0  0  0  0  0  0
  183.2720  178.9220  144.2990 C   0  0  0  0  0  2  0  0  0  0  0  0
  186.1130  178.2280  144.0750 C   0  0  2  0  0  3  0  0  0  0  0  0
  184.2630  179.2570  145.4090 C   0  0  0  0  0  2  0  0  0  0  0  0
  187.8870  177.1520  142.7240 C   0  0  0  0  0  2  0  0  0  0  0  0
  188.5680  177.8740  143.8730 C   0  0  1  0  0  3  0  0  0  0  0  0
  187.2230  177.1920  144.0830 C   0  0  1  0  0  3  0  0  0  0  0  0
  189.6750  177.0270  144.4270 C   0  0  0  0  0  0  0  0  0  0  0  0
  189.8060  176.9050  145.7080 N   0  0  0  0  0  2  0  0  0  0  0  0
  190.7160  176.4900  143.5350 C   0  0  0  0  0  0  0  0  0  0  0  0
  191.4220  177.3380  142.6890 O   0  0  0  0  0  0  0  0  0  0  0  0
  190.9810  175.2580  143.5370 O   0  0  0  0  0  1  0  0  0  0  0  0
  1 28  1  0  0  0  0
  2  1  2  0  0  0  0
  3 10  1  1  0  0  0
  3  7  1  0  0  0  0
  3  6  1  0  0  0  0
  4 13  1  6  0  0  0
  4  8  1  0  0  0  0
  5  4  1  0  0  0  0
  5  8  1  0  0  0  0
  6  2  1  1  0  0  0
  7  6  1  0  0  0  0
  8  3  1  0  0  0  0
  8  7  1  0  0  0  0
  9 14  1  0  0  0  0
  9  1  1  0  0  0  0
 10  9  2  0  0  0  0
 12 13  2  0  0  0  0
 13 11  1  0  0  0  0
 14 15  1  0  0  0  0
 16 19  1  0  0  0  0
 17 18  1  0  0  0  0
 17 16  1  0  0  0  0
 18 19  1  0  0  0  0
 18 14  1  0  0  0  0
 19 21  1  0  0  0  0
 21 20  1  0  0  0  0
 21 22  2  0  0  0  0
 23 24  1  0  0  0  0
 23 20  1  0  0  0  0
 25 27  1  0  0  0  0
 26 27  2  0  0  0  0
 27 24  1  0  0  0  0
 28 29  1  0  0  0  0
 29 31  1  0  0  0  0
 29 32  1  0  0  0  0
 31 33  1  0  0  0  0
 32 34  1  0  0  0  0
 33 37  1  0  0  0  0
 33 30  1  0  0  0  0
 34 30  1  0  0  0  0
 35 36  1  0  0  0  0
 35 37  1  0  0  0  0
 36 37  1  0  0  0  0
 36 38  1  0  0  0  0
 38 39  2  0  0  0  0
 40 42  1  0  0  0  0
 40 38  1  0  0  0  0
 41 40  2  0  0  0  0
M  END
>  <MODEL>
6

>  <REMARK>
 VINA RESULT:      -7.1      3.402      7.563
  Name = 
  12 active torsions:
  status: ('A' for Active; 'I' for Inactive)
    1  A    between atoms: N_1  and  C_38
    2  A    between atoms: C_2  and  C_23
    3  A    between atoms: C_2  and  C_38
    4  A    between atoms: C_3  and  C_32
    5  A    between atoms: C_5  and  CA_30
    6  A    between atoms: C_6  and  CA_30
    7  A    between atoms: C_8  and  C_33
    8  A    between atoms: C_8  and  C_37
    9  A    between atoms: C_10  and  C_32
   10  A    between atoms: C_13  and  C_28
   11  A    between atoms: C_17  and  C_34
   12  A    between atoms: C_22  and  C_36
                            x       y       z     vdW  Elec       q    Type
                         _______ _______ _______ _____ _____    ______ ____

>  <TORSDO>
F 12

$$$$
=
 OpenBabel11042413003D

 42 48  0  0  1  0  0  0  0  0999 V2000
  182.5030  178.3840  140.3450 C   0  0  0  0  0  0  0  0  0  0  0  0
  181.5600  179.0300  140.9580 N   0  0  0  0  0  0  0  0  0  0  0  0
  180.6230  179.9170  138.8350 C   0  0  2  0  0  0  0  0  0  0  0  0
  181.3000  182.4620  137.8800 C   0  0  2  0  0  3  0  0  0  0  0  0
  180.9740  181.3480  136.9860 C   0  0  0  0  0  2  0  0  0  0  0  0
  180.5360  179.8550  140.3030 C   0  0  2  0  0  3  0  0  0  0  0  0
  181.1670  181.0100  139.6310 N   0  0  2  0  0  0  0  0  0  0  0  0
  180.3710  181.3470  138.4120 C   0  0  2  0  0  0  0  0  0  0  0  0
  182.6110  178.4700  138.8840 C   0  0  0  0  0  0  0  0  0  0  0  0
  181.7580  179.1930  138.2260 N   0  0  0  0  0  0  0  0  0  0  0  0
  181.1290  184.8290  136.8260 C   0  0  0  0  0  1  0  0  0  0  0  0
  179.2980  183.7100  137.7690 O   0  0  0  0  0  0  0  0  0  0  0  0
  180.4930  183.6760  137.5280 C   0  0  0  0  0  0  0  0  0  0  0  0
  183.7240  177.7820  138.1570 C   0  0  2  0  0  3  0  0  0  0  0  0
  184.8810  178.5630  138.1900 O   0  0  0  0  0  1  0  0  0  0  0  0
  184.1210  175.7520  135.6180 C   0  0  0  0  0  2  0  0  0  0  0  0
  184.5020  177.2080  135.8120 C   0  0  0  0  0  2  0  0  0  0  0  0
  183.3030  177.4050  136.7240 C   0  0  1  0  0  3  0  0  0  0  0  0
  182.8790  175.9480  136.4720 C   0  0  2  0  0  3  0  0  0  0  0  0
  181.6210  174.8350  138.4250 N   0  0  0  0  0  2  0  0  0  0  0  0
  182.8160  174.9940  137.6510 C   0  0  0  0  0  0  0  0  0  0  0  0
  183.8620  174.4220  138.0540 O   0  0  0  0  0  0  0  0  0  0  0  0
  180.4060  175.6050  138.2080 C   0  0  0  0  0  2  0  0  0  0  0  0
  179.2570  174.9480  138.9430 C   0  0  0  0  0  2  0  0  0  0  0  0
  179.4600  173.9380  141.2440 N   0  0  0  0  0  1  0  0  0  0  0  0
  179.6290  176.2310  140.9150 O   0  0  0  0  0  0  0  0  0  0  0  0
  179.4500  175.0900  140.4120 C   0  0  0  0  0  0  0  0  0  0  0  0
  183.4790  177.5830  141.1470 C   0  0  0  0  0  2  0  0  0  0  0  0
  184.1250  178.4210  142.2400 C   0  0  2  0  0  3  0  0  0  0  0  0
  184.8750  178.7400  145.0620 C   0  0  0  0  0  2  0  0  0  0  0  0
  185.2720  177.6260  142.8580 C   0  0  0  0  0  2  0  0  0  0  0  0
  183.0930  178.7710  143.3130 C   0  0  0  0  0  2  0  0  0  0  0  0
  185.9220  178.4090  143.9990 C   0  0  2  0  0  3  0  0  0  0  0  0
  183.7450  179.5560  144.4460 C   0  0  0  0  0  2  0  0  0  0  0  0
  187.7790  176.8450  143.5100 C   0  0  0  0  0  2  0  0  0  0  0  0
  188.3870  178.0900  144.1290 C   0  0  1  0  0  3  0  0  0  0  0  0
  187.0360  177.5750  144.6070 C   0  0  1  0  0  3  0  0  0  0  0  0
  189.4650  177.7080  145.0990 C   0  0  0  0  0  0  0  0  0  0  0  0
  189.2290  177.7560  146.3690 N   0  0  0  0  0  2  0  0  0  0  0  0
  190.8370  177.4580  144.6230 C   0  0  0  0  0  0  0  0  0  0  0  0
  191.6340  178.5140  144.1960 O   0  0  0  0  0  0  0  0  0  0  0  0
  191.3000  176.2870  144.6070 O   0  0  0  0  0  1  0  0  0  0  0  0
  1  2  2  0  0  0  0
  1 28  1  0  0  0  0
  3 10  1  6  0  0  0
  3  7  1  0  0  0  0
  3  6  1  0  0  0  0
  4 13  1  6  0  0  0
  4  8  1  0  0  0  0
  5  4  1  0  0  0  0
  5  8  1  0  0  0  0
  6  2  1  1  0  0  0
  7  6  1  0  0  0  0
  8  3  1  0  0  0  0
  8  7  1  0  0  0  0
  9  1  1  0  0  0  0
 10  9  2  0  0  0  0
 11 13  1  0  0  0  0
 13 12  2  0  0  0  0
 14 15  1  0  0  0  0
 14  9  1  0  0  0  0
 16 17  1  0  0  0  0
 16 19  1  0  0  0  0
 17 18  1  0  0  0  0
 18 14  1  0  0  0  0
 19 18  1  0  0  0  0
 19 21  1  0  0  0  0
 21 22  2  0  0  0  0
 21 20  1  0  0  0  0
 23 20  1  0  0  0  0
 23 24  1  0  0  0  0
 24 27  1  0  0  0  0
 27 26  2  0  0  0  0
 27 25  1  0  0  0  0
 28 29  1  0  0  0  0
 29 31  1  0  0  0  0
 29 32  1  0  0  0  0
 31 33  1  0  0  0  0
 32 34  1  0  0  0  0
 33 37  1  0  0  0  0
 33 30  1  0  0  0  0
 34 30  1  0  0  0  0
 35 36  1  0  0  0  0
 35 37  1  0  0  0  0
 36 37  1  0  0  0  0
 36 38  1  0  0  0  0
 38 39  2  0  0  0  0
 40 38  1  0  0  0  0
 41 40  2  0  0  0  0
 42 40  1  0  0  0  0
M  END
>  <MODEL>
7

>  <REMARK>
 VINA RESULT:      -7.0      4.566      8.456
  Name = 
  12 active torsions:
  status: ('A' for Active; 'I' for Inactive)
    1  A    between atoms: N_1  and  C_38
    2  A    between atoms: C_2  and  C_23
    3  A    between atoms: C_2  and  C_38
    4  A    between atoms: C_3  and  C_32
    5  A    between atoms: C_5  and  CA_30
    6  A    between atoms: C_6  and  CA_30
    7  A    between atoms: C_8  and  C_33
    8  A    between atoms: C_8  and  C_37
    9  A    between atoms: C_10  and  C_32
   10  A    between atoms: C_13  and  C_28
   11  A    between atoms: C_17  and  C_34
   12  A    between atoms: C_22  and  C_36
                            x       y       z     vdW  Elec       q    Type
                         _______ _______ _______ _____ _____    ______ ____

>  <TORSDO>
F 12

$$$$
=
 OpenBabel11042413003D

 42 48  0  0  1  0  0  0  0  0999 V2000
  186.5670  177.8450  138.2000 C   0  0  0  0  0  0  0  0  0  0  0  0
  187.1790  177.1020  137.3310 N   0  0  0  0  0  0  0  0  0  0  0  0
  185.0530  176.3910  136.2620 C   0  0  2  0  0  0  0  0  0  0  0  0
  183.7960  173.9830  136.9490 C   0  0  2  0  0  3  0  0  0  0  0  0
  183.0470  175.1650  136.5160 C   0  0  0  0  0  2  0  0  0  0  0  0
  186.5220  176.3040  136.2880 C   0  0  2  0  0  3  0  0  0  0  0  0
  185.6910  175.2480  136.9030 N   0  0  2  0  0  0  0  0  0  0  0  0
  184.5060  175.0000  136.0270 C   0  0  2  0  0  0  0  0  0  0  0  0
  185.1010  177.9080  138.1960 C   0  0  0  0  0  0  0  0  0  0  0  0
  184.4380  177.2170  137.3210 N   0  0  0  0  0  0  0  0  0  0  0  0
  183.1620  171.4670  136.8400 C   0  0  0  0  0  1  0  0  0  0  0  0
  183.1790  172.8680  134.9600 O   0  0  0  0  0  0  0  0  0  0  0  0
  183.3840  172.7770  136.1590 C   0  0  0  0  0  0  0  0  0  0  0  0
  184.3670  178.7100  139.2250 C   0  0  2  0  0  3  0  0  0  0  0  0
  184.8270  180.0290  139.2330 O   0  0  0  0  0  1  0  0  0  0  0  0
  183.5890  178.8670  142.4030 C   0  0  0  0  0  2  0  0  0  0  0  0
  184.9160  179.0160  141.6840 C   0  0  0  0  0  2  0  0  0  0  0  0
  184.4500  178.0440  140.6130 C   0  0  1  0  0  3  0  0  0  0  0  0
  183.1320  177.8410  141.3790 C   0  0  2  0  0  3  0  0  0  0  0  0
  181.0790  177.2750  139.9310 N   0  0  0  0  0  2  0  0  0  0  0  0
  181.8290  178.2220  140.7000 C   0  0  0  0  0  0  0  0  0  0  0  0
  181.4530  179.4230  140.6910 O   0  0  0  0  0  0  0  0  0  0  0  0
  181.5160  175.9130  139.6700 C   0  0  0  0  0  2  0  0  0  0  0  0
  180.3430  174.9690  139.8300 C   0  0  0  0  0  2  0  0  0  0  0  0
  179.2660  175.1490  137.5580 N   0  0  0  0  0  1  0  0  0  0  0  0
  180.3440  173.2040  138.2300 O   0  0  0  0  0  0  0  0  0  0  0  0
  179.9860  174.3790  138.5110 C   0  0  0  0  0  0  0  0  0  0  0  0
  187.3720  178.6030  139.2080 C   0  0  0  0  0  2  0  0  0  0  0  0
  188.2810  177.6800  140.0050 C   0  0  2  0  0  3  0  0  0  0  0  0
  190.6990  177.3100  141.6310 C   0  0  0  0  0  2  0  0  0  0  0  0
  188.3670  178.1940  141.4410 C   0  0  0  0  0  2  0  0  0  0  0  0
  189.6750  177.6430  139.3780 C   0  0  0  0  0  2  0  0  0  0  0  0
  189.3110  177.3250  142.2720 C   0  0  2  0  0  3  0  0  0  0  0  0
  190.6120  176.7710  140.2070 C   0  0  0  0  0  2  0  0  0  0  0  0
  188.0870  177.6390  144.4010 C   0  0  0  0  0  2  0  0  0  0  0  0
  189.2830  176.7510  144.6930 C   0  0  1  0  0  3  0  0  0  0  0  0
  189.3950  177.8840  143.6810 C   0  0  1  0  0  3  0  0  0  0  0  0
  189.9130  177.1490  145.9950 C   0  0  0  0  0  0  0  0  0  0  0  0
  191.1980  177.1050  146.1220 N   0  0  0  0  0  2  0  0  0  0  0  0
  189.0730  177.4090  147.1760 C   0  0  0  0  0  0  0  0  0  0  0  0
  188.3020  176.3920  147.7280 O   0  0  0  0  0  1  0  0  0  0  0  0
  189.0520  178.5540  147.7010 O   0  0  0  0  0  0  0  0  0  0  0  0
  1 28  1  0  0  0  0
  2  1  2  0  0  0  0
  3  6  1  0  0  0  0
  3  7  1  0  0  0  0
  3 10  1  1  0  0  0
  4 13  1  6  0  0  0
  5  4  1  0  0  0  0
  6  7  1  0  0  0  0
  6  2  1  1  0  0  0
  8  3  1  0  0  0  0
  8  5  1  0  0  0  0
  8  7  1  0  0  0  0
  8  4  1  0  0  0  0
  9  1  1  0  0  0  0
  9 14  1  0  0  0  0
 10  9  2  0  0  0  0
 12 13  2  0  0  0  0
 13 11  1  0  0  0  0
 14 15  1  0  0  0  0
 14 18  1  0  0  0  0
 17 16  1  0  0  0  0
 18 19  1  0  0  0  0
 18 17  1  0  0  0  0
 19 16  1  0  0  0  0
 20 21  1  0  0  0  0
 21 19  1  0  0  0  0
 22 21  2  0  0  0  0
 23 24  1  0  0  0  0
 23 20  1  0  0  0  0
 25 27  1  0  0  0  0
 26 27  2  0  0  0  0
 27 24  1  0  0  0  0
 28 29  1  0  0  0  0
 29 31  1  0  0  0  0
 30 33  1  0  0  0  0
 31 33  1  0  0  0  0
 32 29  1  0  0  0  0
 32 34  1  0  0  0  0
 33 37  1  0  0  0  0
 34 30  1  0  0  0  0
 35 36  1  0  0  0  0
 36 38  1  0  0  0  0
 37 35  1  0  0  0  0
 37 36  1  0  0  0  0
 38 39  2  0  0  0  0
 38 40  1  0  0  0  0
 40 42  2  0  0  0  0
 40 41  1  0  0  0  0
M  END
>  <MODEL>
8

>  <REMARK>
 VINA RESULT:      -7.0      3.581      7.472
  Name = 
  12 active torsions:
  status: ('A' for Active; 'I' for Inactive)
    1  A    between atoms: N_1  and  C_38
    2  A    between atoms: C_2  and  C_23
    3  A    between atoms: C_2  and  C_38
    4  A    between atoms: C_3  and  C_32
    5  A    between atoms: C_5  and  CA_30
    6  A    between atoms: C_6  and  CA_30
    7  A    between atoms: C_8  and  C_33
    8  A    between atoms: C_8  and  C_37
    9  A    between atoms: C_10  and  C_32
   10  A    between atoms: C_13  and  C_28
   11  A    between atoms: C_17  and  C_34
   12  A    between atoms: C_22  and  C_36
                            x       y       z     vdW  Elec       q    Type
                         _______ _______ _______ _____ _____    ______ ____

>  <TORSDO>
F 12

$$$$
=
 OpenBabel11042413003D

 42 48  0  0  1  0  0  0  0  0999 V2000
  190.1760  176.5440  138.3800 C   0  0  0  0  0  0  0  0  0  0  0  0
  191.0280  175.5670  138.3490 N   0  0  0  0  0  0  0  0  0  0  0  0
  190.1730  174.7310  136.1720 C   0  0  2  0  0  0  0  0  0  0  0  0
  188.2890  172.6630  136.0280 C   0  0  2  0  0  3  0  0  0  0  0  0
  188.3570  173.7350  135.0320 C   0  0  0  0  0  2  0  0  0  0  0  0
  191.1300  174.5660  137.2790 C   0  0  2  0  0  3  0  0  0  0  0  0
  189.8940  173.7580  137.2190 N   0  0  2  0  0  0  0  0  0  0  0  0
  189.6490  173.3620  135.7990 C   0  0  2  0  0  0  0  0  0  0  0  0
  189.2010  176.6910  137.2930 C   0  0  0  0  0  0  0  0  0  0  0  0
  189.2070  175.8390  136.3150 N   0  0  0  0  0  0  0  0  0  0  0  0
  187.0390  170.5020  135.3150 C   0  0  0  0  0  1  0  0  0  0  0  0
  189.2910  170.9080  134.8050 O   0  0  0  0  0  0  0  0  0  0  0  0
  188.2860  171.3200  135.3600 C   0  0  0  0  0  0  0  0  0  0  0  0
  188.1690  177.7740  137.3330 C   0  0  2  0  0  3  0  0  0  0  0  0
  188.7330  178.9680  137.7900 O   0  0  0  0  0  1  0  0  0  0  0  0
  184.9910  178.2290  137.9800 C   0  0  0  0  0  2  0  0  0  0  0  0
  186.2360  178.5320  138.7920 C   0  0  0  0  0  2  0  0  0  0  0  0
  186.9420  177.3440  138.1600 C   0  0  1  0  0  3  0  0  0  0  0  0
  185.6570  176.9970  137.3890 C   0  0  2  0  0  3  0  0  0  0  0  0
  184.8700  176.1350  135.0940 N   0  0  0  0  0  2  0  0  0  0  0  0
  185.6910  177.0130  135.8720 C   0  0  0  0  0  0  0  0  0  0  0  0
  186.5470  177.7110  135.2700 O   0  0  0  0  0  0  0  0  0  0  0  0
  184.0000  175.1190  135.6660 C   0  0  0  0  0  2  0  0  0  0  0  0
  184.6140  173.7520  135.4480 C   0  0  0  0  0  2  0  0  0  0  0  0
  183.8860  171.7940  136.8600 N   0  0  0  0  0  1  0  0  0  0  0  0
  185.3300  173.4120  137.6940 O   0  0  0  0  0  0  0  0  0  0  0  0
  184.6320  172.9970  136.7300 C   0  0  0  0  0  0  0  0  0  0  0  0
  190.1900  177.4880  139.5410 C   0  0  0  0  0  2  0  0  0  0  0  0
  189.5970  176.8480  140.7880 C   0  0  2  0  0  3  0  0  0  0  0  0
  189.1530  176.9180  143.6900 C   0  0  0  0  0  2  0  0  0  0  0  0
  188.6130  177.8270  141.4240 C   0  0  0  0  0  2  0  0  0  0  0  0
  190.7070  176.5020  141.7800 C   0  0  0  0  0  2  0  0  0  0  0  0
  188.0260  177.2480  142.7100 C   0  0  2  0  0  3  0  0  0  0  0  0
  190.1180  175.9200  143.0610 C   0  0  0  0  0  2  0  0  0  0  0  0
  185.7670  178.2520  142.5750 C   0  0  0  0  0  2  0  0  0  0  0  0
  185.8690  177.5450  143.9150 C   0  0  1  0  0  3  0  0  0  0  0  0
  187.0790  178.2600  143.3290 C   0  0  1  0  0  3  0  0  0  0  0  0
  185.2350  178.3810  144.9870 C   0  0  0  0  0  0  0  0  0  0  0  0
  184.4180  179.3270  144.6590 N   0  0  0  0  0  2  0  0  0  0  0  0
  185.6780  178.2530  146.3860 C   0  0  0  0  0  0  0  0  0  0  0  0
  186.9310  177.7280  146.6810 O   0  0  0  0  0  0  0  0  0  0  0  0
  184.9260  178.6250  147.3260 O   0  0  0  0  0  1  0  0  0  0  0  0
  1 28  1  0  0  0  0
  2  1  2  0  0  0  0
  3 10  1  6  0  0  0
  3  7  1  0  0  0  0
  3  6  1  0  0  0  0
  4 13  1  6  0  0  0
  5  8  1  0  0  0  0
  5  4  1  0  0  0  0
  6  2  1  1  0  0  0
  7  6  1  0  0  0  0
  8  4  1  0  0  0  0
  8  3  1  0  0  0  0
  8  7  1  0  0  0  0
  9 14  1  0  0  0  0
  9  1  1  0  0  0  0
 10  9  2  0  0  0  0
 11 13  1  0  0  0  0
 12 13  2  0  0  0  0
 14 15  1  0  0  0  0
 14 18  1  0  0  0  0
 16 17  1  0  0  0  0
 18 17  1  0  0  0  0
 19 16  1  0  0  0  0
 19 18  1  0  0  0  0
 20 23  1  0  0  0  0
 20 21  1  0  0  0  0
 21 19  1  0  0  0  0
 22 21  2  0  0  0  0
 24 23  1  0  0  0  0
 24 27  1  0  0  0  0
 27 25  1  0  0  0  0
 27 26  2  0  0  0  0
 28 29  1  0  0  0  0
 29 31  1  0  0  0  0
 29 32  1  0  0  0  0
 31 33  1  0  0  0  0
 32 34  1  0  0  0  0
 33 37  1  0  0  0  0
 33 30  1  0  0  0  0
 34 30  1  0  0  0  0
 35 37  1  0  0  0  0
 35 36  1  0  0  0  0
 36 38  1  0  0  0  0
 37 36  1  0  0  0  0
 38 40  1  0  0  0  0
 39 38  2  0  0  0  0
 40 41  2  0  0  0  0
 40 42  1  0  0  0  0
M  END
>  <MODEL>
9

>  <REMARK>
 VINA RESULT:      -6.9      3.013      8.152
  Name = 
  12 active torsions:
  status: ('A' for Active; 'I' for Inactive)
    1  A    between atoms: N_1  and  C_38
    2  A    between atoms: C_2  and  C_23
    3  A    between atoms: C_2  and  C_38
    4  A    between atoms: C_3  and  C_32
    5  A    between atoms: C_5  and  CA_30
    6  A    between atoms: C_6  and  CA_30
    7  A    between atoms: C_8  and  C_33
    8  A    between atoms: C_8  and  C_37
    9  A    between atoms: C_10  and  C_32
   10  A    between atoms: C_13  and  C_28
   11  A    between atoms: C_17  and  C_34
   12  A    between atoms: C_22  and  C_36
                            x       y       z     vdW  Elec       q    Type
                         _______ _______ _______ _____ _____    ______ ____

>  <TORSDO>
F 12

$$$$
