=
 OpenBabel11042410523D

 26 30  0  0  1  0  0  0  0  0999 V2000
  188.3940  177.4330  146.2550 C   0  0  0  0  0  2  0  0  0  0  0  0
  190.6670  177.1560  145.1400 C   0  0  0  0  0  0  0  0  0  0  0  0
  191.1620  176.8790  146.3120 N   0  0  0  0  0  0  0  0  0  0  0  0
  189.1620  177.4080  147.5380 C   0  0  0  0  0  3  0  0  0  0  0  0
  191.5380  177.0240  144.0070 N   0  0  0  0  0  2  0  0  0  0  0  0
  189.2770  177.7780  145.0330 C   0  0  1  0  0  3  0  0  0  0  0  0
  190.4540  177.0940  147.5400 C   0  0  0  0  0  3  0  0  0  0  0  0
  187.9500  176.2770  143.5890 C   0  0  0  0  0  2  0  0  0  0  0  0
  187.1100  177.4980  143.7970 N   0  0  0  0  0  0  0  0  0  0  0  0
  188.5980  177.4960  143.6700 C   0  0  1  0  0  3  0  0  0  0  0  0
  184.1790  179.1780  145.3010 N   0  0  0  0  0  0  0  0  0  0  0  0
  185.6380  178.9150  145.2940 C   0  0  2  0  0  3  0  0  0  0  0  0
  184.9340  178.1330  143.0070 C   0  0  0  0  0  3  0  0  0  0  0  0
  185.8660  178.1570  143.9980 C   0  0  0  0  0  0  0  0  0  0  0  0
  183.1940  179.2910  144.3000 C   0  0  0  0  0  3  0  0  0  0  0  0
  183.5780  178.7620  143.1330 C   0  0  0  0  0  3  0  0  0  0  0  0
  184.8880  178.2260  146.2100 C   0  0  0  0  0  2  0  0  0  0  0  0
  191.3580  177.6900  142.7250 C   0  0  0  0  0  2  0  0  0  0  0  0
  191.1500  176.7010  141.6830 N   0  0  0  0  0  2  0  0  0  0  0  0
  191.1930  177.4100  140.4160 C   0  0  0  0  0  2  0  0  0  0  0  0
  190.0800  177.6680  138.1990 C   0  0  0  0  0  2  0  0  0  0  0  0
  189.9280  177.1300  139.6250 C   0  0  2  0  0  3  0  0  0  0  0  0
  188.9780  178.6500  138.1670 C   0  0  0  0  0  0  0  0  0  0  0  0
  188.6840  179.3710  137.1770 O   0  0  0  0  0  0  0  0  0  0  0  0
  188.8040  177.8700  140.2010 N   0  0  0  0  0  0  0  0  0  0  0  0
  188.2870  178.6990  139.3930 N   0  0  0  0  0  0  0  0  0  0  0  0
  1  4  1  0  0  0  0
  2  3  2  0  0  0  0
  3  7  1  0  0  0  0
  4  7  2  0  0  0  0
  5  2  1  0  0  0  0
  6  2  1  0  0  0  0
  6  1  1  1  0  0  0
  8  9  1  0  0  0  0
  9 14  1  0  0  0  0
 10  8  1  1  0  0  0
 10  9  1  0  0  0  0
 10  6  1  0  0  0  0
 11 17  1  0  0  0  0
 12 11  1  0  0  0  0
 12 17  1  1  0  0  0
 13 16  1  0  0  0  0
 13 14  2  0  0  0  0
 14 12  1  0  0  0  0
 15 11  1  0  0  0  0
 16 15  2  0  0  0  0
 18  5  1  0  0  0  0
 19 18  1  0  0  0  0
 20 19  1  0  0  0  0
 21 22  1  0  0  0  0
 22 25  1  0  0  0  0
 22 20  1  1  0  0  0
 23 21  1  0  0  0  0
 23 26  1  0  0  0  0
 24 23  2  0  0  0  0
 26 25  2  0  0  0  0
M  END
>  <MODEL>
1

>  <REMARK>
 VINA RESULT:      -8.9      0.000      0.000
  Name = 
  6 active torsions:
  status: ('A' for Active; 'I' for Inactive)
    1  A    between atoms: C_3  and  C_26
    2  A    between atoms: C_10  and  N_20
    3  A    between atoms: N_15  and  C_17
    4  A    between atoms: C_17  and  N_18
    5  A    between atoms: N_18  and  C_26
    6  A    between atoms: C_21  and  C_22
                            x       y       z     vdW  Elec       q    Type
                         _______ _______ _______ _____ _____    ______ ____

>  <TORSDO>
F 6

$$$$
=
 OpenBabel11042410523D

 26 30  0  0  1  0  0  0  0  0999 V2000
  188.4150  177.3280  146.1550 C   0  0  0  0  0  2  0  0  0  0  0  0
  190.7300  177.1600  145.1080 C   0  0  0  0  0  0  0  0  0  0  0  0
  191.2010  176.8970  146.2930 N   0  0  0  0  0  0  0  0  0  0  0  0
  189.1440  177.3270  147.4610 C   0  0  0  0  0  3  0  0  0  0  0  0
  191.6400  177.0760  144.0020 N   0  0  0  0  0  2  0  0  0  0  0  0
  189.3170  177.7210  144.9630 C   0  0  1  0  0  3  0  0  0  0  0  0
  190.4480  177.0710  147.5000 C   0  0  0  0  0  3  0  0  0  0  0  0
  188.1210  176.1660  143.4630 C   0  0  0  0  0  2  0  0  0  0  0  0
  187.2050  177.3320  143.6650 N   0  0  0  0  0  0  0  0  0  0  0  0
  188.6930  177.4190  143.5780 C   0  0  1  0  0  3  0  0  0  0  0  0
  183.9260  178.9440  143.0980 N   0  0  0  0  0  0  0  0  0  0  0  0
  184.9950  178.0240  142.6400 C   0  0  2  0  0  3  0  0  0  0  0  0
  185.5340  178.3120  145.0830 C   0  0  0  0  0  3  0  0  0  0  0  0
  185.9190  177.9140  143.8400 C   0  0  0  0  0  0  0  0  0  0  0  0
  183.4010  179.2950  144.3580 C   0  0  0  0  0  3  0  0  0  0  0  0
  184.2170  178.9730  145.3670 C   0  0  0  0  0  3  0  0  0  0  0  0
  184.9680  179.2730  142.0780 C   0  0  0  0  0  2  0  0  0  0  0  0
  191.4690  177.7430  142.7190 C   0  0  0  0  0  2  0  0  0  0  0  0
  191.2050  176.7580  141.6850 N   0  0  0  0  0  2  0  0  0  0  0  0
  191.2400  177.4620  140.4150 C   0  0  0  0  0  2  0  0  0  0  0  0
  190.1290  177.7070  138.1960 C   0  0  0  0  0  2  0  0  0  0  0  0
  189.9900  177.1460  139.6150 C   0  0  2  0  0  3  0  0  0  0  0  0
  188.9920  178.6490  138.1700 C   0  0  0  0  0  0  0  0  0  0  0  0
  188.6760  179.3710  137.1880 O   0  0  0  0  0  0  0  0  0  0  0  0
  188.8370  177.8380  140.1940 N   0  0  0  0  0  0  0  0  0  0  0  0
  188.2940  178.6570  139.3940 N   0  0  0  0  0  0  0  0  0  0  0  0
  1  4  1  0  0  0  0
  2  3  2  0  0  0  0
  3  7  1  0  0  0  0
  4  7  2  0  0  0  0
  5  2  1  0  0  0  0
  6  2  1  0  0  0  0
  6  1  1  1  0  0  0
  8  9  1  0  0  0  0
  9 14  1  0  0  0  0
 10  8  1  1  0  0  0
 10  9  1  0  0  0  0
 10  6  1  0  0  0  0
 11 15  1  0  0  0  0
 12 17  1  6  0  0  0
 12 11  1  0  0  0  0
 12 14  1  0  0  0  0
 13 16  1  0  0  0  0
 14 13  2  0  0  0  0
 15 16  2  0  0  0  0
 17 11  1  0  0  0  0
 18  5  1  0  0  0  0
 19 18  1  0  0  0  0
 20 19  1  0  0  0  0
 21 22  1  0  0  0  0
 22 25  1  0  0  0  0
 22 20  1  1  0  0  0
 23 21  1  0  0  0  0
 23 26  1  0  0  0  0
 24 23  2  0  0  0  0
 26 25  2  0  0  0  0
M  END
>  <MODEL>
2

>  <REMARK>
 VINA RESULT:      -8.8      0.614      1.270
  Name = 
  6 active torsions:
  status: ('A' for Active; 'I' for Inactive)
    1  A    between atoms: C_3  and  C_26
    2  A    between atoms: C_10  and  N_20
    3  A    between atoms: N_15  and  C_17
    4  A    between atoms: C_17  and  N_18
    5  A    between atoms: N_18  and  C_26
    6  A    between atoms: C_21  and  C_22
                            x       y       z     vdW  Elec       q    Type
                         _______ _______ _______ _____ _____    ______ ____

>  <TORSDO>
F 6

$$$$
=
 OpenBabel11042410523D

 26 30  0  0  1  0  0  0  0  0999 V2000
  188.7050  177.1360  146.2410 C   0  0  0  0  0  2  0  0  0  0  0  0
  190.9140  177.2950  144.9840 C   0  0  0  0  0  0  0  0  0  0  0  0
  191.5200  176.9830  146.0930 N   0  0  0  0  0  0  0  0  0  0  0  0
  189.5540  177.1010  147.4720 C   0  0  0  0  0  3  0  0  0  0  0  0
  191.7160  177.3980  143.7980 N   0  0  0  0  0  2  0  0  0  0  0  0
  189.4470  177.7180  145.0160 C   0  0  1  0  0  3  0  0  0  0  0  0
  190.8740  176.9770  147.3730 C   0  0  0  0  0  3  0  0  0  0  0  0
  188.0610  176.2610  143.5830 C   0  0  0  0  0  2  0  0  0  0  0  0
  187.2400  177.4840  143.8440 N   0  0  0  0  0  0  0  0  0  0  0  0
  188.7230  177.4720  143.6700 C   0  0  1  0  0  3  0  0  0  0  0  0
  184.3730  179.1560  145.4750 N   0  0  0  0  0  0  0  0  0  0  0  0
  185.8290  178.8790  145.4170 C   0  0  2  0  0  3  0  0  0  0  0  0
  185.0480  178.1590  143.1350 C   0  0  0  0  0  3  0  0  0  0  0  0
  186.0100  178.1510  144.0970 C   0  0  0  0  0  0  0  0  0  0  0  0
  183.3600  179.3030  144.5060 C   0  0  0  0  0  3  0  0  0  0  0  0
  183.7030  178.7980  143.3170 C   0  0  0  0  0  3  0  0  0  0  0  0
  185.0990  178.1760  146.3390 C   0  0  0  0  0  2  0  0  0  0  0  0
  191.3600  178.1490  142.6040 C   0  0  0  0  0  2  0  0  0  0  0  0
  191.8350  177.4480  141.4240 N   0  0  0  0  0  2  0  0  0  0  0  0
  190.6680  176.8760  140.7760 C   0  0  0  0  0  2  0  0  0  0  0  0
  189.5600  177.4340  138.6130 C   0  0  0  0  0  2  0  0  0  0  0  0
  190.8430  176.9140  139.2690 C   0  0  2  0  0  3  0  0  0  0  0  0
  189.1960  176.2690  137.7810 C   0  0  0  0  0  0  0  0  0  0  0  0
  188.1870  176.2070  137.0310 O   0  0  0  0  0  0  0  0  0  0  0  0
  191.0200  175.5570  138.7510 N   0  0  0  0  0  0  0  0  0  0  0  0
  190.1150  175.2120  137.9340 N   0  0  0  0  0  0  0  0  0  0  0  0
  1  4  1  0  0  0  0
  2  6  1  0  0  0  0
  2  3  2  0  0  0  0
  3  7  1  0  0  0  0
  5  2  1  0  0  0  0
  6  1  1  1  0  0  0
  7  4  2  0  0  0  0
  8  9  1  0  0  0  0
  9 14  1  0  0  0  0
 10  8  1  1  0  0  0
 10  9  1  0  0  0  0
 10  6  1  0  0  0  0
 11 17  1  0  0  0  0
 12 11  1  0  0  0  0
 12 17  1  1  0  0  0
 13 16  1  0  0  0  0
 13 14  2  0  0  0  0
 14 12  1  0  0  0  0
 15 11  1  0  0  0  0
 16 15  2  0  0  0  0
 18  5  1  0  0  0  0
 19 18  1  0  0  0  0
 20 19  1  0  0  0  0
 21 22  1  0  0  0  0
 22 20  1  1  0  0  0
 23 26  1  0  0  0  0
 23 21  1  0  0  0  0
 24 23  2  0  0  0  0
 25 22  1  0  0  0  0
 26 25  2  0  0  0  0
M  END
>  <MODEL>
3

>  <REMARK>
 VINA RESULT:      -8.7      1.329      1.404
  Name = 
  6 active torsions:
  status: ('A' for Active; 'I' for Inactive)
    1  A    between atoms: C_3  and  C_26
    2  A    between atoms: C_10  and  N_20
    3  A    between atoms: N_15  and  C_17
    4  A    between atoms: C_17  and  N_18
    5  A    between atoms: N_18  and  C_26
    6  A    between atoms: C_21  and  C_22
                            x       y       z     vdW  Elec       q    Type
                         _______ _______ _______ _____ _____    ______ ____

>  <TORSDO>
F 6

$$$$
=
 OpenBabel11042410523D

 26 30  0  0  1  0  0  0  0  0999 V2000
  190.3230  176.9230  141.6800 C   0  0  0  0  0  2  0  0  0  0  0  0
  188.4160  178.0200  140.3980 C   0  0  0  0  0  0  0  0  0  0  0  0
  189.1030  177.8440  139.3070 N   0  0  0  0  0  0  0  0  0  0  0  0
  191.0970  177.0790  140.4110 C   0  0  0  0  0  3  0  0  0  0  0  0
  187.0830  178.5360  140.2640 N   0  0  0  0  0  2  0  0  0  0  0  0
  189.0970  177.8620  141.7560 C   0  0  1  0  0  3  0  0  0  0  0  0
  190.4860  177.4660  139.2950 C   0  0  0  0  0  3  0  0  0  0  0  0
  187.9540  176.1480  143.1180 C   0  0  0  0  0  2  0  0  0  0  0  0
  188.8110  176.9260  144.0670 N   0  0  0  0  0  0  0  0  0  0  0  0
  188.1020  177.5030  142.8870 C   0  0  1  0  0  3  0  0  0  0  0  0
  191.7370  176.8790  146.3270 N   0  0  0  0  0  0  0  0  0  0  0  0
  191.1680  177.0990  144.9750 C   0  0  2  0  0  3  0  0  0  0  0  0
  189.1200  177.1310  146.4390 C   0  0  0  0  0  3  0  0  0  0  0  0
  189.6680  177.0360  145.1970 C   0  0  0  0  0  0  0  0  0  0  0  0
  191.2640  177.0820  147.6390 C   0  0  0  0  0  3  0  0  0  0  0  0
  189.9350  177.2120  147.6960 C   0  0  0  0  0  3  0  0  0  0  0  0
  191.8070  175.9070  145.1940 C   0  0  0  0  0  2  0  0  0  0  0  0
  186.3360  179.2190  141.3100 C   0  0  0  0  0  2  0  0  0  0  0  0
  184.9340  178.8460  141.2350 N   0  0  0  0  0  2  0  0  0  0  0  0
  184.5980  178.2220  142.5020 C   0  0  0  0  0  2  0  0  0  0  0  0
  185.5000  178.7000  144.7780 C   0  0  0  0  0  2  0  0  0  0  0  0
  184.6640  179.2490  143.6180 C   0  0  2  0  0  3  0  0  0  0  0  0
  184.4930  178.7070  145.8580 C   0  0  0  0  0  0  0  0  0  0  0  0
  184.7040  178.3350  147.0420 O   0  0  0  0  0  0  0  0  0  0  0  0
  183.3290  179.4720  144.1740 N   0  0  0  0  0  0  0  0  0  0  0  0
  183.2450  179.1750  145.4030 N   0  0  0  0  0  0  0  0  0  0  0  0
  2  6  1  0  0  0  0
  3  2  2  0  0  0  0
  4  1  1  0  0  0  0
  5  2  1  0  0  0  0
  5 18  1  0  0  0  0
  6  1  1  6  0  0  0
  6 10  1  0  0  0  0
  7  3  1  0  0  0  0
  7  4  2  0  0  0  0
  8  9  1  0  0  0  0
  9 14  1  0  0  0  0
 10  8  1  6  0  0  0
 10  9  1  0  0  0  0
 11 15  1  0  0  0  0
 12 17  1  6  0  0  0
 12 14  1  0  0  0  0
 12 11  1  0  0  0  0
 13 16  1  0  0  0  0
 14 13  2  0  0  0  0
 15 16  2  0  0  0  0
 17 11  1  0  0  0  0
 19 18  1  0  0  0  0
 19 20  1  0  0  0  0
 21 23  1  0  0  0  0
 22 20  1  6  0  0  0
 22 25  1  0  0  0  0
 22 21  1  0  0  0  0
 23 24  2  0  0  0  0
 25 26  2  0  0  0  0
 26 23  1  0  0  0  0
M  END
>  <MODEL>
4

>  <REMARK>
 VINA RESULT:      -8.6      2.508      6.691
  Name = 
  6 active torsions:
  status: ('A' for Active; 'I' for Inactive)
    1  A    between atoms: C_3  and  C_26
    2  A    between atoms: C_10  and  N_20
    3  A    between atoms: N_15  and  C_17
    4  A    between atoms: C_17  and  N_18
    5  A    between atoms: N_18  and  C_26
    6  A    between atoms: C_21  and  C_22
                            x       y       z     vdW  Elec       q    Type
                         _______ _______ _______ _____ _____    ______ ____

>  <TORSDO>
F 6

$$$$
=
 OpenBabel11042410523D

 26 30  0  0  1  0  0  0  0  0999 V2000
  191.6740  176.7530  145.2350 C   0  0  0  0  0  2  0  0  0  0  0  0
  189.7620  177.1910  146.8600 C   0  0  0  0  0  0  0  0  0  0  0  0
  190.3580  176.4040  147.7080 N   0  0  0  0  0  0  0  0  0  0  0  0
  192.0560  175.6580  146.1790 C   0  0  0  0  0  3  0  0  0  0  0  0
  188.5900  177.8840  147.3120 N   0  0  0  0  0  2  0  0  0  0  0  0
  190.2020  177.2000  145.3980 C   0  0  1  0  0  3  0  0  0  0  0  0
  191.4540  175.5490  147.3590 C   0  0  0  0  0  3  0  0  0  0  0  0
  190.9550  179.1700  144.1140 C   0  0  0  0  0  2  0  0  0  0  0  0
  190.0470  178.4060  143.2030 N   0  0  0  0  0  0  0  0  0  0  0  0
  189.8680  178.5300  144.6800 C   0  0  1  0  0  3  0  0  0  0  0  0
  190.0090  176.7530  139.8950 N   0  0  0  0  0  0  0  0  0  0  0  0
  190.4660  176.7820  141.3050 C   0  0  2  0  0  3  0  0  0  0  0  0
  188.5590  178.4260  141.3190 C   0  0  0  0  0  3  0  0  0  0  0  0
  189.6620  177.9100  141.9260 C   0  0  0  0  0  0  0  0  0  0  0  0
  188.8290  177.1520  139.2340 C   0  0  0  0  0  3  0  0  0  0  0  0
  188.0920  178.0010  139.9580 C   0  0  0  0  0  3  0  0  0  0  0  0
  191.3590  177.2000  140.3540 C   0  0  0  0  0  2  0  0  0  0  0  0
  187.5450  178.4210  146.4530 C   0  0  0  0  0  2  0  0  0  0  0  0
  186.5690  177.3860  146.1610 N   0  0  0  0  0  2  0  0  0  0  0  0
  186.4310  177.3330  144.7170 C   0  0  0  0  0  2  0  0  0  0  0  0
  184.3950  178.7380  145.0320 C   0  0  0  0  0  2  0  0  0  0  0  0
  185.6840  178.5600  144.2240 C   0  0  2  0  0  3  0  0  0  0  0  0
  183.3900  178.6280  143.9560 C   0  0  0  0  0  0  0  0  0  0  0  0
  182.1450  178.7130  144.1230 O   0  0  0  0  0  0  0  0  0  0  0  0
  185.2490  178.3590  142.8410 N   0  0  0  0  0  0  0  0  0  0  0  0
  183.9900  178.4010  142.7020 N   0  0  0  0  0  0  0  0  0  0  0  0
  1  4  1  0  0  0  0
  2  5  1  0  0  0  0
  2  3  2  0  0  0  0
  4  7  2  0  0  0  0
  6  1  1  1  0  0  0
  6  2  1  0  0  0  0
  7  3  1  0  0  0  0
  9  8  1  0  0  0  0
  9 10  1  0  0  0  0
 10  8  1  1  0  0  0
 10  6  1  0  0  0  0
 11 17  1  0  0  0  0
 11 12  1  0  0  0  0
 12 17  1  6  0  0  0
 12 14  1  0  0  0  0
 13 14  2  0  0  0  0
 14  9  1  0  0  0  0
 15 11  1  0  0  0  0
 15 16  2  0  0  0  0
 16 13  1  0  0  0  0
 18  5  1  0  0  0  0
 19 18  1  0  0  0  0
 20 19  1  0  0  0  0
 22 20  1  1  0  0  0
 22 21  1  0  0  0  0
 23 24  2  0  0  0  0
 23 21  1  0  0  0  0
 25 22  1  0  0  0  0
 26 25  2  0  0  0  0
 26 23  1  0  0  0  0
M  END
>  <MODEL>
5

>  <REMARK>
 VINA RESULT:      -8.0      2.544      5.701
  Name = 
  6 active torsions:
  status: ('A' for Active; 'I' for Inactive)
    1  A    between atoms: C_3  and  C_26
    2  A    between atoms: C_10  and  N_20
    3  A    between atoms: N_15  and  C_17
    4  A    between atoms: C_17  and  N_18
    5  A    between atoms: N_18  and  C_26
    6  A    between atoms: C_21  and  C_22
                            x       y       z     vdW  Elec       q    Type
                         _______ _______ _______ _____ _____    ______ ____

>  <TORSDO>
F 6

$$$$
=
 OpenBabel11042410523D

 26 30  0  0  1  0  0  0  0  0999 V2000
  185.0910  178.2040  143.1540 C   0  0  0  0  0  2  0  0  0  0  0  0
  185.0910  178.7450  145.6420 C   0  0  0  0  0  0  0  0  0  0  0  0
  183.8160  178.9880  145.5470 N   0  0  0  0  0  0  0  0  0  0  0  0
  183.7250  178.8120  143.1510 C   0  0  0  0  0  3  0  0  0  0  0  0
  185.6740  178.7760  146.9530 N   0  0  0  0  0  2  0  0  0  0  0  0
  185.9370  178.6320  144.3750 C   0  0  1  0  0  3  0  0  0  0  0  0
  183.1280  179.1250  144.2970 C   0  0  0  0  0  3  0  0  0  0  0  0
  187.0820  176.4490  144.2360 C   0  0  0  0  0  2  0  0  0  0  0  0
  187.7920  177.3490  143.2750 N   0  0  0  0  0  0  0  0  0  0  0  0
  187.2140  177.7810  144.5820 C   0  0  1  0  0  3  0  0  0  0  0  0
  188.6520  178.4880  139.8630 N   0  0  0  0  0  0  0  0  0  0  0  0
  187.9430  178.7120  141.1460 C   0  0  2  0  0  3  0  0  0  0  0  0
  189.5870  176.9020  141.7440 C   0  0  0  0  0  3  0  0  0  0  0  0
  188.4660  177.6110  142.0500 C   0  0  0  0  0  0  0  0  0  0  0  0
  189.8720  177.8780  139.5070 C   0  0  0  0  0  3  0  0  0  0  0  0
  190.3480  177.0730  140.4630 C   0  0  0  0  0  3  0  0  0  0  0  0
  187.1950  178.2530  140.0950 C   0  0  0  0  0  2  0  0  0  0  0  0
  187.0850  178.9880  147.2420 C   0  0  0  0  0  2  0  0  0  0  0  0
  187.5980  177.8760  148.0230 N   0  0  0  0  0  2  0  0  0  0  0  0
  189.0470  177.9560  147.9650 C   0  0  0  0  0  2  0  0  0  0  0  0
  190.4510  175.9090  147.7190 C   0  0  0  0  0  2  0  0  0  0  0  0
  189.5820  176.9320  146.9800 C   0  0  2  0  0  3  0  0  0  0  0  0
  191.7450  176.1210  147.0390 C   0  0  0  0  0  0  0  0  0  0  0  0
  192.8060  175.4940  147.2990 O   0  0  0  0  0  0  0  0  0  0  0  0
  190.4780  177.5810  146.0210 N   0  0  0  0  0  0  0  0  0  0  0  0
  191.6610  177.1280  146.0580 N   0  0  0  0  0  0  0  0  0  0  0  0
  2  5  1  0  0  0  0
  3  2  2  0  0  0  0
  4  1  1  0  0  0  0
  4  7  2  0  0  0  0
  5 18  1  0  0  0  0
  6  1  1  6  0  0  0
  6 10  1  0  0  0  0
  6  2  1  0  0  0  0
  7  3  1  0  0  0  0
  9  8  1  0  0  0  0
  9 10  1  0  0  0  0
 10  8  1  1  0  0  0
 11 17  1  0  0  0  0
 11 12  1  0  0  0  0
 12 17  1  6  0  0  0
 12 14  1  0  0  0  0
 13 14  2  0  0  0  0
 14  9  1  0  0  0  0
 15 11  1  0  0  0  0
 15 16  2  0  0  0  0
 16 13  1  0  0  0  0
 18 19  1  0  0  0  0
 20 19  1  0  0  0  0
 22 21  1  0  0  0  0
 22 20  1  1  0  0  0
 23 24  2  0  0  0  0
 23 21  1  0  0  0  0
 25 26  2  0  0  0  0
 25 22  1  0  0  0  0
 26 23  1  0  0  0  0
M  END
>  <MODEL>
6

>  <REMARK>
 VINA RESULT:      -7.9      2.760      6.792
  Name = 
  6 active torsions:
  status: ('A' for Active; 'I' for Inactive)
    1  A    between atoms: C_3  and  C_26
    2  A    between atoms: C_10  and  N_20
    3  A    between atoms: N_15  and  C_17
    4  A    between atoms: C_17  and  N_18
    5  A    between atoms: N_18  and  C_26
    6  A    between atoms: C_21  and  C_22
                            x       y       z     vdW  Elec       q    Type
                         _______ _______ _______ _____ _____    ______ ____

>  <TORSDO>
F 6

$$$$
=
 OpenBabel11042410523D

 26 30  0  0  1  0  0  0  0  0999 V2000
  190.4660  177.2180  143.0350 C   0  0  0  0  0  2  0  0  0  0  0  0
  189.1460  177.7720  140.9290 C   0  0  0  0  0  0  0  0  0  0  0  0
  190.2460  177.6200  140.2490 N   0  0  0  0  0  0  0  0  0  0  0  0
  191.6740  177.3880  142.1700 C   0  0  0  0  0  3  0  0  0  0  0  0
  187.9370  177.9960  140.1890 N   0  0  0  0  0  2  0  0  0  0  0  0
  189.2070  177.8980  142.4500 C   0  0  1  0  0  3  0  0  0  0  0  0
  191.5420  177.5240  140.8530 C   0  0  0  0  0  3  0  0  0  0  0  0
  187.8410  176.1480  143.5300 C   0  0  0  0  0  2  0  0  0  0  0  0
  188.1060  177.1750  144.5860 N   0  0  0  0  0  0  0  0  0  0  0  0
  187.8880  177.4730  143.1390 C   0  0  1  0  0  3  0  0  0  0  0  0
  189.7520  177.7980  147.8380 N   0  0  0  0  0  0  0  0  0  0  0  0
  189.8330  177.7040  146.3610 C   0  0  2  0  0  3  0  0  0  0  0  0
  187.3530  177.8640  146.7590 C   0  0  0  0  0  3  0  0  0  0  0  0
  188.3860  177.5700  145.9230 C   0  0  0  0  0  0  0  0  0  0  0  0
  188.7570  178.2170  148.7450 C   0  0  0  0  0  3  0  0  0  0  0  0
  187.5380  178.2520  148.1960 C   0  0  0  0  0  3  0  0  0  0  0  0
  190.2930  176.6310  147.0770 C   0  0  0  0  0  2  0  0  0  0  0  0
  186.7340  178.6260  140.7120 C   0  0  0  0  0  2  0  0  0  0  0  0
  185.7350  178.7240  139.6630 N   0  0  0  0  0  2  0  0  0  0  0  0
  184.5490  179.3070  140.2650 C   0  0  0  0  0  2  0  0  0  0  0  0
  182.4210  178.1870  140.9240 C   0  0  0  0  0  2  0  0  0  0  0  0
  183.9180  178.3160  141.2250 C   0  0  2  0  0  3  0  0  0  0  0  0
  181.8520  178.6390  142.2100 C   0  0  0  0  0  0  0  0  0  0  0  0
  180.6210  178.7120  142.4670 O   0  0  0  0  0  0  0  0  0  0  0  0
  183.9940  178.8270  142.5950 N   0  0  0  0  0  0  0  0  0  0  0  0
  182.8570  178.9980  143.1280 N   0  0  0  0  0  0  0  0  0  0  0  0
  2  6  1  0  0  0  0
  3  7  1  0  0  0  0
  3  2  2  0  0  0  0
  4  1  1  0  0  0  0
  5 18  1  0  0  0  0
  5  2  1  0  0  0  0
  6  1  1  1  0  0  0
  6 10  1  0  0  0  0
  7  4  2  0  0  0  0
  8  9  1  0  0  0  0
  9 14  1  0  0  0  0
 10  8  1  6  0  0  0
 10  9  1  0  0  0  0
 11 15  1  0  0  0  0
 12 17  1  1  0  0  0
 12 11  1  0  0  0  0
 13 16  1  0  0  0  0
 14 12  1  0  0  0  0
 14 13  2  0  0  0  0
 16 15  2  0  0  0  0
 17 11  1  0  0  0  0
 19 20  1  0  0  0  0
 19 18  1  0  0  0  0
 21 22  1  0  0  0  0
 21 23  1  0  0  0  0
 22 20  1  6  0  0  0
 22 25  1  0  0  0  0
 23 24  2  0  0  0  0
 23 26  1  0  0  0  0
 25 26  2  0  0  0  0
M  END
>  <MODEL>
7

>  <REMARK>
 VINA RESULT:      -7.7      2.668      5.751
  Name = 
  6 active torsions:
  status: ('A' for Active; 'I' for Inactive)
    1  A    between atoms: C_3  and  C_26
    2  A    between atoms: C_10  and  N_20
    3  A    between atoms: N_15  and  C_17
    4  A    between atoms: C_17  and  N_18
    5  A    between atoms: N_18  and  C_26
    6  A    between atoms: C_21  and  C_22
                            x       y       z     vdW  Elec       q    Type
                         _______ _______ _______ _____ _____    ______ ____

>  <TORSDO>
F 6

$$$$
=
 OpenBabel11042410523D

 26 30  0  0  1  0  0  0  0  0999 V2000
  191.5440  177.0940  145.2580 C   0  0  0  0  0  2  0  0  0  0  0  0
  189.3240  177.1170  146.5060 C   0  0  0  0  0  0  0  0  0  0  0  0
  189.9080  176.4660  147.4710 N   0  0  0  0  0  0  0  0  0  0  0  0
  191.9680  176.0970  146.2880 C   0  0  0  0  0  3  0  0  0  0  0  0
  187.9740  177.5490  146.7230 N   0  0  0  0  0  2  0  0  0  0  0  0
  190.0080  177.2250  145.1450 C   0  0  1  0  0  3  0  0  0  0  0  0
  191.2010  175.8590  147.3470 C   0  0  0  0  0  3  0  0  0  0  0  0
  190.5610  179.2970  143.9220 C   0  0  0  0  0  2  0  0  0  0  0  0
  189.9700  178.3660  142.9100 N   0  0  0  0  0  0  0  0  0  0  0  0
  189.5410  178.4610  144.3370 C   0  0  1  0  0  3  0  0  0  0  0  0
  190.7730  176.7430  139.6860 N   0  0  0  0  0  0  0  0  0  0  0  0
  191.0020  176.8720  141.1450 C   0  0  2  0  0  3  0  0  0  0  0  0
  188.8050  178.0610  140.8340 C   0  0  0  0  0  3  0  0  0  0  0  0
  189.8920  177.7980  141.6090 C   0  0  0  0  0  0  0  0  0  0  0  0
  189.6450  176.8760  138.8510 C   0  0  0  0  0  3  0  0  0  0  0  0
  188.6440  177.5440  139.4340 C   0  0  0  0  0  3  0  0  0  0  0  0
  191.9130  177.4740  140.3180 C   0  0  0  0  0  2  0  0  0  0  0  0
  187.0120  177.8630  145.6760 C   0  0  0  0  0  2  0  0  0  0  0  0
  186.0490  178.8320  146.1690 N   0  0  0  0  0  2  0  0  0  0  0  0
  185.2630  179.2610  145.0250 C   0  0  0  0  0  2  0  0  0  0  0  0
  186.1960  179.0540  142.7220 C   0  0  0  0  0  2  0  0  0  0  0  0
  185.4870  178.3140  143.8600 C   0  0  2  0  0  3  0  0  0  0  0  0
  185.1880  178.9240  141.6510 C   0  0  0  0  0  0  0  0  0  0  0  0
  185.3120  179.3830  140.4850 O   0  0  0  0  0  0  0  0  0  0  0  0
  184.2000  177.8910  143.3040 N   0  0  0  0  0  0  0  0  0  0  0  0
  184.0460  178.2270  142.0920 N   0  0  0  0  0  0  0  0  0  0  0  0
  1  4  1  0  0  0  0
  2  5  1  0  0  0  0
  2  3  2  0  0  0  0
  4  7  2  0  0  0  0
  6  1  1  1  0  0  0
  6  2  1  0  0  0  0
  7  3  1  0  0  0  0
  9  8  1  0  0  0  0
  9 10  1  0  0  0  0
 10  8  1  1  0  0  0
 10  6  1  0  0  0  0
 11 17  1  0  0  0  0
 11 12  1  0  0  0  0
 12 17  1  6  0  0  0
 12 14  1  0  0  0  0
 13 14  2  0  0  0  0
 14  9  1  0  0  0  0
 15 16  2  0  0  0  0
 15 11  1  0  0  0  0
 16 13  1  0  0  0  0
 18 19  1  0  0  0  0
 18  5  1  0  0  0  0
 20 19  1  0  0  0  0
 21 22  1  0  0  0  0
 22 20  1  1  0  0  0
 23 26  1  0  0  0  0
 23 21  1  0  0  0  0
 24 23  2  0  0  0  0
 25 22  1  0  0  0  0
 26 25  2  0  0  0  0
M  END
>  <MODEL>
8

>  <REMARK>
 VINA RESULT:      -7.6      1.971      5.462
  Name = 
  6 active torsions:
  status: ('A' for Active; 'I' for Inactive)
    1  A    between atoms: C_3  and  C_26
    2  A    between atoms: C_10  and  N_20
    3  A    between atoms: N_15  and  C_17
    4  A    between atoms: C_17  and  N_18
    5  A    between atoms: N_18  and  C_26
    6  A    between atoms: C_21  and  C_22
                            x       y       z     vdW  Elec       q    Type
                         _______ _______ _______ _____ _____    ______ ____

>  <TORSDO>
F 6

$$$$
=
 OpenBabel11042410523D

 26 30  0  0  1  0  0  0  0  0999 V2000
  190.6240  177.0910  143.3100 C   0  0  0  0  0  2  0  0  0  0  0  0
  189.8080  177.5470  140.9410 C   0  0  0  0  0  0  0  0  0  0  0  0
  191.0420  177.4410  140.5400 N   0  0  0  0  0  0  0  0  0  0  0  0
  191.9910  177.3100  142.7450 C   0  0  0  0  0  3  0  0  0  0  0  0
  188.7970  177.6980  139.9340 N   0  0  0  0  0  2  0  0  0  0  0  0
  189.5060  177.6970  142.4300 C   0  0  1  0  0  3  0  0  0  0  0  0
  192.1650  177.4200  141.4320 C   0  0  0  0  0  3  0  0  0  0  0  0
  188.0080  175.8950  143.2050 C   0  0  0  0  0  2  0  0  0  0  0  0
  187.9720  176.9460  144.2690 N   0  0  0  0  0  0  0  0  0  0  0  0
  188.0830  177.2160  142.8040 C   0  0  1  0  0  3  0  0  0  0  0  0
  186.8580  178.2990  147.5260 N   0  0  0  0  0  0  0  0  0  0  0  0
  186.5560  177.5580  146.2770 C   0  0  2  0  0  3  0  0  0  0  0  0
  189.0730  177.5550  146.3140 C   0  0  0  0  0  3  0  0  0  0  0  0
  187.9140  177.3720  145.6250 C   0  0  0  0  0  0  0  0  0  0  0  0
  187.9970  178.4190  148.3480 C   0  0  0  0  0  3  0  0  0  0  0  0
  189.1220  178.0400  147.7330 C   0  0  0  0  0  3  0  0  0  0  0  0
  186.1480  178.8640  146.3380 C   0  0  0  0  0  2  0  0  0  0  0  0
  187.4770  178.2730  140.1470 C   0  0  0  0  0  2  0  0  0  0  0  0
  186.8930  178.6460  138.8710 N   0  0  0  0  0  2  0  0  0  0  0  0
  185.5090  178.2080  138.8980 C   0  0  0  0  0  2  0  0  0  0  0  0
  183.4060  178.4140  140.2230 C   0  0  0  0  0  2  0  0  0  0  0  0
  184.6950  179.1230  139.7950 C   0  0  2  0  0  3  0  0  0  0  0  0
  182.3970  179.3280  139.6510 C   0  0  0  0  0  0  0  0  0  0  0  0
  181.1510  179.1730  139.7410 O   0  0  0  0  0  0  0  0  0  0  0  0
  184.2580  180.3010  139.0440 N   0  0  0  0  0  0  0  0  0  0  0  0
  182.9970  180.4080  138.9730 N   0  0  0  0  0  0  0  0  0  0  0  0
  2  6  1  0  0  0  0
  3  2  2  0  0  0  0
  3  7  1  0  0  0  0
  4  1  1  0  0  0  0
  5 18  1  0  0  0  0
  5  2  1  0  0  0  0
  6 10  1  0  0  0  0
  6  1  1  1  0  0  0
  7  4  2  0  0  0  0
  8  9  1  0  0  0  0
  9 14  1  0  0  0  0
 10  8  1  6  0  0  0
 10  9  1  0  0  0  0
 11 15  1  0  0  0  0
 12 17  1  6  0  0  0
 12 11  1  0  0  0  0
 13 16  1  0  0  0  0
 14 12  1  0  0  0  0
 14 13  2  0  0  0  0
 16 15  2  0  0  0  0
 17 11  1  0  0  0  0
 19 20  1  0  0  0  0
 19 18  1  0  0  0  0
 22 20  1  6  0  0  0
 22 21  1  0  0  0  0
 23 24  2  0  0  0  0
 23 21  1  0  0  0  0
 25 22  1  0  0  0  0
 26 25  2  0  0  0  0
 26 23  1  0  0  0  0
M  END
>  <MODEL>
9

>  <REMARK>
 VINA RESULT:      -7.6      2.796      5.017
  Name = 
  6 active torsions:
  status: ('A' for Active; 'I' for Inactive)
    1  A    between atoms: C_3  and  C_26
    2  A    between atoms: C_10  and  N_20
    3  A    between atoms: N_15  and  C_17
    4  A    between atoms: C_17  and  N_18
    5  A    between atoms: N_18  and  C_26
    6  A    between atoms: C_21  and  C_22
                            x       y       z     vdW  Elec       q    Type
                         _______ _______ _______ _____ _____    ______ ____

>  <TORSDO>
F 6

$$$$
