=
 OpenBabel11032420053D

 46 51  0  0  1  0  0  0  0  0999 V2000
  183.0110  179.7470  140.5830 C   0  0  0  0  0  1  0  0  0  0  0  0
  190.7740  177.5360  139.0130 C   0  0  0  0  0  0  0  0  0  0  0  0
  185.6030  178.2410  141.7400 O   0  0  0  0  0  0  0  0  0  0  0  0
  187.3000  177.0440  143.6940 O   0  0  0  0  0  0  0  0  0  0  0  0
  182.8780  176.4380  136.8400 C   0  0  0  0  0  3  0  0  0  0  0  0
  191.5310  177.6180  140.2580 C   0  0  2  0  0  3  0  0  0  0  0  0
  183.5030  177.2560  142.0380 N   0  0  0  0  0  2  0  0  0  0  0  0
  186.4840  177.3660  138.3400 S   0  0  0  0  0  0  0  0  0  0  0  0
  182.0700  178.4430  138.6810 C   0  0  1  0  0  3  0  0  0  0  0  0
  188.6090  176.7260  144.1550 C   0  0  0  0  0  2  0  0  0  0  0  0
  184.7340  177.7880  142.5370 C   0  0  0  0  0  0  0  0  0  0  0  0
  186.1030  179.3500  147.7580 F   0  0  0  0  0  0  0  0  0  0  0  0
  185.6720  177.4350  135.9690 C   0  0  0  0  0  3  0  0  0  0  0  0
  183.1960  177.2250  140.6160 C   0  0  0  0  0  2  0  0  0  0  0  0
  189.8580  177.5120  136.3560 O   0  0  0  0  0  0  0  0  0  0  0  0
  185.7940  179.0620  146.4730 C   0  0  0  0  0  0  0  0  0  0  0  0
  187.0280  177.5400  135.8880 N   0  0  0  0  0  0  0  0  0  0  0  0
  185.1940  177.3040  137.2710 C   0  0  0  0  0  0  0  0  0  0  0  0
  189.4260  176.0700  143.0550 C   0  0  0  0  0  2  0  0  0  0  0  0
  186.7510  178.3040  145.6440 C   0  0  0  0  0  3  0  0  0  0  0  0
  187.6160  177.5200  137.1070 C   0  0  0  0  0  0  0  0  0  0  0  0
  183.7760  177.2520  137.7150 C   0  0  1  0  0  3  0  0  0  0  0  0
  189.8760  177.1110  142.0460 C   0  0  0  0  0  2  0  0  0  0  0  0
  192.6630  177.1610  139.5880 N   0  0  0  0  0  2  0  0  0  0  0  0
  183.2450  178.5430  137.8880 O   0  0  0  0  0  0  0  0  0  0  0  0
  181.0570  177.3600  138.2270 C   0  0  0  0  0  2  0  0  0  0  0  0
  181.5610  176.5190  137.0750 C   0  0  0  0  0  0  0  0  0  0  0  0
  184.2740  179.1780  144.5320 C   0  0  0  0  0  2  0  0  0  0  0  0
  186.3810  177.7710  144.4650 C   0  0  0  0  0  0  0  0  0  0  0  0
  184.9280  177.8880  144.0160 C   0  0  2  0  0  3  0  0  0  0  0  0
  189.0610  177.5930  137.3290 C   0  0  0  0  0  0  0  0  0  0  0  0
  182.3530  178.4340  140.1920 C   0  0  1  0  0  3  0  0  0  0  0  0
  184.6090  179.4170  145.9780 C   0  0  0  0  0  3  0  0  0  0  0  0
  191.9980  177.0970  138.3720 O   0  0  0  0  0  0  0  0  0  0  0  0
  189.5450  177.7470  138.6620 N   0  0  0  0  0  0  0  0  0  0  0  0
  191.0430  176.5680  141.2420 C   0  0  0  0  0  2  0  0  0  0  0  0
  178.9310  173.4210  134.7020 C   0  0  0  0  0  1  0  0  0  0  0  0
  181.3430  173.0570  137.7260 C   0  0  0  0  0  1  0  0  0  0  0  0
  180.0960  173.4960  136.9530 C   0  0  0  0  0  0  0  0  0  0  0  0
  181.3150  174.7140  134.9510 S   0  0  0  0  0  0  0  0  0  0  0  0
  180.5750  175.6610  136.3310 C   0  0  1  0  0  3  0  0  0  0  0  0
  179.8410  174.8510  137.2290 O   0  0  0  0  0  0  0  0  0  0  0  0
  180.2790  173.3080  135.4330 C   0  0  2  0  0  0  0  0  0  0  0  0
  178.9350  172.6580  137.4870 C   0  0  0  0  0  1  0  0  0  0  0  0
  180.8980  172.0570  135.1770 O   0  0  0  0  0  0  0  0  0  0  0  0
  179.9710  171.1670  134.6030 C   0  0  0  0  0  1  0  0  0  0  0  0
  2  6  1  0  0  0  0
  3 11  2  0  0  0  0
  4 10  1  0  0  0  0
  4 29  1  0  0  0  0
  5 27  2  0  0  0  0
  6 36  1  1  0  0  0
  7 11  1  0  0  0  0
  9 26  1  6  0  0  0
  9 32  1  0  0  0  0
 11 30  1  0  0  0  0
 13 18  2  0  0  0  0
 14  7  1  0  0  0  0
 15 31  2  0  0  0  0
 16 12  1  0  0  0  0
 17 13  1  0  0  0  0
 17 21  2  0  0  0  0
 18 22  1  0  0  0  0
 18  8  1  0  0  0  0
 19 10  1  0  0  0  0
 20 16  1  0  0  0  0
 21 31  1  0  0  0  0
 21  8  1  0  0  0  0
 22  5  1  6  0  0  0
 22 25  1  0  0  0  0
 23 19  1  0  0  0  0
 24  6  1  0  0  0  0
 25  9  1  0  0  0  0
 27 26  1  0  0  0  0
 28 33  1  0  0  0  0
 29 20  2  0  0  0  0
 30 29  1  0  0  0  0
 30 28  1  6  0  0  0
 31 35  1  0  0  0  0
 32  1  1  6  0  0  0
 32 14  1  0  0  0  0
 33 16  2  0  0  0  0
 34  2  1  0  0  0  0
 34 24  1  0  0  0  0
 35  2  2  0  0  0  0
 36 23  1  0  0  0  0
 39 42  1  0  0  0  0
 39 44  1  0  0  0  0
 39 38  1  0  0  0  0
 40 43  1  0  0  0  0
 40 41  1  0  0  0  0
 41 27  1  1  0  0  0
 41 42  1  0  0  0  0
 43 37  1  6  0  0  0
 43 39  1  0  0  0  0
 45 43  1  0  0  0  0
 46 45  1  0  0  0  0
M  END
>  <MODEL>
1

>  <REMARK>
 VINA RESULT:      -6.3      0.000      0.000
  Name = 
  2 active torsions:
  status: ('A' for Active; 'I' for Inactive)
    1  A    between atoms: O_17  and  C_27
    2  A    between atoms: C_19  and  C_35
                            x       y       z     vdW  Elec       q    Type
                         _______ _______ _______ _____ _____    ______ ____

>  <TORSDO>
F 2

$$$$
=
 OpenBabel11032420053D

 46 51  0  0  1  0  0  0  0  0999 V2000
  187.9050  178.0630  135.1690 C   0  0  0  0  0  1  0  0  0  0  0  0
  186.2800  178.8570  143.1900 C   0  0  0  0  0  0  0  0  0  0  0  0
  185.7100  177.5940  137.4670 O   0  0  0  0  0  0  0  0  0  0  0  0
  183.1390  177.0760  138.5870 O   0  0  0  0  0  0  0  0  0  0  0  0
  190.9840  174.9780  137.6140 C   0  0  0  0  0  3  0  0  0  0  0  0
  184.8680  179.1950  143.3370 C   0  0  2  0  0  3  0  0  0  0  0  0
  186.0610  175.9070  135.8870 N   0  0  0  0  0  2  0  0  0  0  0  0
  188.4220  177.1410  139.8210 S   0  0  0  0  0  0  0  0  0  0  0  0
  189.8330  176.5290  135.5320 C   0  0  1  0  0  3  0  0  0  0  0  0
  182.2010  177.2530  139.6440 C   0  0  0  0  0  2  0  0  0  0  0  0
  185.2270  176.8460  136.5720 C   0  0  0  0  0  0  0  0  0  0  0  0
  180.1110  178.7390  135.2200 F   0  0  0  0  0  0  0  0  0  0  0  0
  190.9140  176.9370  140.0050 C   0  0  0  0  0  3  0  0  0  0  0  0
  187.4820  175.7830  136.1770 C   0  0  0  0  0  2  0  0  0  0  0  0
  189.0620  178.5310  143.4260 O   0  0  0  0  0  0  0  0  0  0  0  0
  181.3730  178.3730  135.5440 C   0  0  0  0  0  0  0  0  0  0  0  0
  190.5150  177.5300  141.1650 N   0  0  0  0  0  0  0  0  0  0  0  0
  189.8660  176.6250  139.1420 C   0  0  0  0  0  0  0  0  0  0  0  0
  182.8400  176.9530  140.9900 C   0  0  0  0  0  2  0  0  0  0  0  0
  181.6970  178.0260  136.9410 C   0  0  0  0  0  3  0  0  0  0  0  0
  189.1750  177.7110  141.2120 C   0  0  0  0  0  0  0  0  0  0  0  0
  189.9580  176.0530  137.7730 C   0  0  1  0  0  3  0  0  0  0  0  0
  183.7450  178.0980  141.4060 C   0  0  0  0  0  2  0  0  0  0  0  0
  185.0210  179.1910  144.7210 N   0  0  0  0  0  2  0  0  0  0  0  0
  190.1560  177.0600  136.8090 O   0  0  0  0  0  0  0  0  0  0  0  0
  190.4760  175.1560  135.2060 C   0  0  0  0  0  2  0  0  0  0  0  0
  191.2510  174.5700  136.3650 C   0  0  0  0  0  0  0  0  0  0  0  0
  183.7290  177.9490  134.9400 C   0  0  0  0  0  2  0  0  0  0  0  0
  182.8510  177.4090  137.2560 C   0  0  0  0  0  0  0  0  0  0  0  0
  183.8030  176.9930  136.1390 C   0  0  2  0  0  3  0  0  0  0  0  0
  188.4600  178.3050  142.3420 C   0  0  0  0  0  0  0  0  0  0  0  0
  188.3330  176.6060  135.2010 C   0  0  1  0  0  3  0  0  0  0  0  0
  182.3030  178.2760  134.5940 C   0  0  0  0  0  3  0  0  0  0  0  0
  186.3750  178.9020  144.6360 O   0  0  0  0  0  0  0  0  0  0  0  0
  187.0730  178.6090  142.1960 N   0  0  0  0  0  0  0  0  0  0  0  0
  183.9980  178.0280  142.9010 C   0  0  0  0  0  2  0  0  0  0  0  0
  194.5680  171.3950  135.3370 C   0  0  0  0  0  1  0  0  0  0  0  0
  194.6600  174.7700  137.2590 C   0  0  0  0  0  1  0  0  0  0  0  0
  194.3050  173.3070  136.9810 C   0  0  0  0  0  0  0  0  0  0  0  0
  193.2130  173.6390  134.6000 S   0  0  0  0  0  0  0  0  0  0  0  0
  192.1820  173.4200  136.0960 C   0  0  1  0  0  3  0  0  0  0  0  0
  192.9380  173.1100  137.2500 O   0  0  0  0  0  0  0  0  0  0  0  0
  194.6000  172.9220  135.5180 C   0  0  2  0  0  0  0  0  0  0  0  0
  195.1250  172.4660  137.9600 C   0  0  0  0  0  1  0  0  0  0  0  0
  195.8530  173.4580  135.1260 O   0  0  0  0  0  0  0  0  0  0  0  0
  196.7090  172.4270  134.6960 C   0  0  0  0  0  1  0  0  0  0  0  0
  2  6  1  0  0  0  0
  2 34  1  0  0  0  0
  4 10  1  0  0  0  0
  6 36  1  1  0  0  0
  6 24  1  0  0  0  0
  7 14  1  0  0  0  0
  7 11  1  0  0  0  0
  8 21  1  0  0  0  0
  9 26  1  1  0  0  0
  9 25  1  0  0  0  0
 10 19  1  0  0  0  0
 11  3  2  0  0  0  0
 12 16  1  0  0  0  0
 13 17  1  0  0  0  0
 16 20  1  0  0  0  0
 17 21  2  0  0  0  0
 18  8  1  0  0  0  0
 18 13  2  0  0  0  0
 19 23  1  0  0  0  0
 20 29  2  0  0  0  0
 21 31  1  0  0  0  0
 22  5  1  1  0  0  0
 22 18  1  0  0  0  0
 23 36  1  0  0  0  0
 25 22  1  0  0  0  0
 26 27  1  0  0  0  0
 27  5  2  0  0  0  0
 29  4  1  0  0  0  0
 30 28  1  6  0  0  0
 30 11  1  0  0  0  0
 30 29  1  0  0  0  0
 31 15  2  0  0  0  0
 32  1  1  1  0  0  0
 32  9  1  0  0  0  0
 32 14  1  0  0  0  0
 33 28  1  0  0  0  0
 33 16  2  0  0  0  0
 34 24  1  0  0  0  0
 35 31  1  0  0  0  0
 35  2  2  0  0  0  0
 39 42  1  0  0  0  0
 39 38  1  0  0  0  0
 39 44  1  0  0  0  0
 40 43  1  0  0  0  0
 40 41  1  0  0  0  0
 41 27  1  1  0  0  0
 41 42  1  0  0  0  0
 43 37  1  6  0  0  0
 43 39  1  0  0  0  0
 45 43  1  0  0  0  0
 46 45  1  0  0  0  0
M  END
>  <MODEL>
2

>  <REMARK>
 VINA RESULT:      -6.0      4.207      9.658
  Name = 
  2 active torsions:
  status: ('A' for Active; 'I' for Inactive)
    1  A    between atoms: O_17  and  C_27
    2  A    between atoms: C_19  and  C_35
                            x       y       z     vdW  Elec       q    Type
                         _______ _______ _______ _____ _____    ______ ____

>  <TORSDO>
F 2

$$$$
=
 OpenBabel11032420053D

 46 51  0  0  1  0  0  0  0  0999 V2000
  184.9040  180.1290  143.3360 C   0  0  0  0  0  1  0  0  0  0  0  0
  191.8560  177.6910  139.6840 C   0  0  0  0  0  0  0  0  0  0  0  0
  187.5110  178.2720  143.6150 O   0  0  0  0  0  0  0  0  0  0  0  0
  189.4570  176.6430  144.9150 O   0  0  0  0  0  0  0  0  0  0  0  0
  183.6050  177.5300  139.2690 C   0  0  0  0  0  3  0  0  0  0  0  0
  192.8710  177.5060  140.7160 C   0  0  2  0  0  3  0  0  0  0  0  0
  185.4350  177.3980  144.2410 N   0  0  0  0  0  2  0  0  0  0  0  0
  187.5290  177.9350  140.0110 S   0  0  0  0  0  0  0  0  0  0  0  0
  183.4370  179.2400  141.5310 C   0  0  1  0  0  3  0  0  0  0  0  0
  190.7940  176.1610  145.0050 C   0  0  0  0  0  2  0  0  0  0  0  0
  186.7940  177.7500  144.5140 C   0  0  0  0  0  0  0  0  0  0  0  0
  189.4290  178.2930  149.4480 F   0  0  0  0  0  0  0  0  0  0  0  0
  186.2310  178.4670  137.9330 C   0  0  0  0  0  3  0  0  0  0  0  0
  184.8230  177.6320  142.9420 C   0  0  0  0  0  2  0  0  0  0  0  0
  190.3840  178.1870  137.3410 O   0  0  0  0  0  0  0  0  0  0  0  0
  188.8180  178.2530  148.2410 C   0  0  0  0  0  0  0  0  0  0  0  0
  187.5400  178.4900  137.5560 N   0  0  0  0  0  0  0  0  0  0  0  0
  186.0370  178.1470  139.2750 C   0  0  0  0  0  0  0  0  0  0  0  0
  191.2750  175.6490  143.6580 C   0  0  0  0  0  2  0  0  0  0  0  0
  189.4840  177.5840  147.1080 C   0  0  0  0  0  3  0  0  0  0  0  0
  188.3740  178.2200  138.5860 C   0  0  0  0  0  0  0  0  0  0  0  0
  184.7530  178.1170  140.0240 C   0  0  1  0  0  3  0  0  0  0  0  0
  191.6020  176.8150  142.7420 C   0  0  0  0  0  2  0  0  0  0  0  0
  193.7740  177.0930  139.7390 N   0  0  0  0  0  2  0  0  0  0  0  0
  184.4130  179.3930  140.5100 O   0  0  0  0  0  0  0  0  0  0  0  0
  182.2400  178.3230  141.1660 C   0  0  0  0  0  2  0  0  0  0  0  0
  182.3870  177.6600  139.8150 C   0  0  0  0  0  0  0  0  0  0  0  0
  186.9310  178.8050  146.7480 C   0  0  0  0  0  2  0  0  0  0  0  0
  188.8110  177.2880  145.9800 C   0  0  0  0  0  0  0  0  0  0  0  0
  187.3160  177.5810  145.9050 C   0  0  2  0  0  3  0  0  0  0  0  0
  189.8320  178.1550  138.4730 C   0  0  0  0  0  0  0  0  0  0  0  0
  184.0410  178.9520  142.9150 C   0  0  1  0  0  3  0  0  0  0  0  0
  187.5970  178.7680  148.0960 C   0  0  0  0  0  3  0  0  0  0  0  0
  192.8570  177.2850  138.7160 O   0  0  0  0  0  0  0  0  0  0  0  0
  190.6090  178.0430  139.6650 N   0  0  0  0  0  0  0  0  0  0  0  0
  192.5010  176.3380  141.6150 C   0  0  0  0  0  2  0  0  0  0  0  0
  178.9310  175.6040  137.3720 C   0  0  0  0  0  1  0  0  0  0  0  0
  182.7320  174.8690  137.6830 C   0  0  0  0  0  1  0  0  0  0  0  0
  181.2700  174.9790  138.1230 C   0  0  0  0  0  0  0  0  0  0  0  0
  180.8780  177.5060  137.4630 S   0  0  0  0  0  0  0  0  0  0  0  0
  181.1770  177.0120  139.2000 C   0  0  1  0  0  3  0  0  0  0  0  0
  181.2170  175.6100  139.3790 O   0  0  0  0  0  0  0  0  0  0  0  0
  180.4350  175.7860  137.1090 C   0  0  2  0  0  0  0  0  0  0  0  0
  180.7490  173.5490  138.2680 C   0  0  0  0  0  1  0  0  0  0  0  0
  180.7750  175.3920  135.7890 O   0  0  0  0  0  0  0  0  0  0  0  0
  180.7800  176.5110  134.9350 C   0  0  0  0  0  1  0  0  0  0  0  0
  2  6  1  0  0  0  0
  3 11  2  0  0  0  0
  4 10  1  0  0  0  0
  4 29  1  0  0  0  0
  5 27  2  0  0  0  0
  6 36  1  1  0  0  0
  7 11  1  0  0  0  0
  9 26  1  6  0  0  0
  9 32  1  0  0  0  0
 11 30  1  0  0  0  0
 13 18  2  0  0  0  0
 14  7  1  0  0  0  0
 15 31  2  0  0  0  0
 16 12  1  0  0  0  0
 17 13  1  0  0  0  0
 17 21  2  0  0  0  0
 18  8  1  0  0  0  0
 18 22  1  0  0  0  0
 19 10  1  0  0  0  0
 20 16  1  0  0  0  0
 21  8  1  0  0  0  0
 22  5  1  6  0  0  0
 22 25  1  0  0  0  0
 23 19  1  0  0  0  0
 24  6  1  0  0  0  0
 25  9  1  0  0  0  0
 27 26  1  0  0  0  0
 28 33  1  0  0  0  0
 29 20  2  0  0  0  0
 30 29  1  0  0  0  0
 30 28  1  1  0  0  0
 31 21  1  0  0  0  0
 31 35  1  0  0  0  0
 32 14  1  0  0  0  0
 32  1  1  6  0  0  0
 33 16  2  0  0  0  0
 34  2  1  0  0  0  0
 34 24  1  0  0  0  0
 35  2  2  0  0  0  0
 36 23  1  0  0  0  0
 38 39  1  0  0  0  0
 39 44  1  0  0  0  0
 39 42  1  0  0  0  0
 40 41  1  0  0  0  0
 41 42  1  0  0  0  0
 41 27  1  6  0  0  0
 43 37  1  1  0  0  0
 43 40  1  0  0  0  0
 43 39  1  0  0  0  0
 45 43  1  0  0  0  0
 46 45  1  0  0  0  0
M  END
>  <MODEL>
3

>  <REMARK>
 VINA RESULT:      -5.5      2.012      2.777
  Name = 
  2 active torsions:
  status: ('A' for Active; 'I' for Inactive)
    1  A    between atoms: O_17  and  C_27
    2  A    between atoms: C_19  and  C_35
                            x       y       z     vdW  Elec       q    Type
                         _______ _______ _______ _____ _____    ______ ____

>  <TORSDO>
F 2

$$$$
=
 OpenBabel11032420053D

 46 51  0  0  1  0  0  0  0  0999 V2000
  187.0850  179.9530  137.4960 C   0  0  0  0  0  1  0  0  0  0  0  0
  186.5620  178.7260  145.6100 C   0  0  0  0  0  0  0  0  0  0  0  0
  185.1340  179.1260  139.9110 O   0  0  0  0  0  0  0  0  0  0  0  0
  182.6680  178.6120  141.2460 O   0  0  0  0  0  0  0  0  0  0  0  0
  189.9470  176.0020  138.5820 C   0  0  0  0  0  3  0  0  0  0  0  0
  185.2430  179.1660  146.0520 C   0  0  2  0  0  3  0  0  0  0  0  0
  185.0440  177.9000  137.9220 N   0  0  0  0  0  2  0  0  0  0  0  0
  188.0120  177.7580  141.6290 S   0  0  0  0  0  0  0  0  0  0  0  0
  188.7960  178.1740  137.1600 C   0  0  1  0  0  3  0  0  0  0  0  0
  181.8990  178.5990  142.4440 C   0  0  0  0  0  2  0  0  0  0  0  0
  184.4440  178.7050  138.9410 C   0  0  0  0  0  0  0  0  0  0  0  0
  179.5370  181.4440  138.9130 F   0  0  0  0  0  0  0  0  0  0  0  0
  190.4510  177.2380  141.3710 C   0  0  0  0  0  3  0  0  0  0  0  0
  186.4550  177.5460  137.9490 C   0  0  0  0  0  2  0  0  0  0  0  0
  189.2740  178.0440  145.3260 O   0  0  0  0  0  0  0  0  0  0  0  0
  180.7610  180.8680  138.9360 C   0  0  0  0  0  0  0  0  0  0  0  0
  190.2840  177.5360  142.6890 N   0  0  0  0  0  0  0  0  0  0  0  0
  189.2730  177.2880  140.6290 C   0  0  0  0  0  0  0  0  0  0  0  0
  182.6420  177.8780  143.5560 C   0  0  0  0  0  2  0  0  0  0  0  0
  181.1950  180.1230  140.1330 C   0  0  0  0  0  3  0  0  0  0  0  0
  189.0000  177.8450  142.9860 C   0  0  0  0  0  0  0  0  0  0  0  0
  189.1160  177.1010  139.1620 C   0  0  1  0  0  3  0  0  0  0  0  0
  183.7490  178.7620  144.1030 C   0  0  0  0  0  2  0  0  0  0  0  0
  185.5570  178.7710  147.3500 N   0  0  0  0  0  2  0  0  0  0  0  0
  189.3440  178.3020  138.4650 O   0  0  0  0  0  0  0  0  0  0  0  0
  189.1870  176.8780  136.4030 C   0  0  0  0  0  2  0  0  0  0  0  0
  190.0000  175.9200  137.2440 C   0  0  0  0  0  0  0  0  0  0  0  0
  182.9400  180.3660  137.8900 C   0  0  0  0  0  2  0  0  0  0  0  0
  182.2740  179.3210  140.1010 C   0  0  0  0  0  0  0  0  0  0  0  0
  183.0160  179.1190  138.7840 C   0  0  2  0  0  3  0  0  0  0  0  0
  188.5200  178.1860  144.3260 C   0  0  0  0  0  0  0  0  0  0  0  0
  187.2950  178.5030  137.0940 C   0  0  1  0  0  3  0  0  0  0  0  0
  181.5460  180.9300  137.8610 C   0  0  0  0  0  3  0  0  0  0  0  0
  186.8350  178.3690  146.9880 O   0  0  0  0  0  0  0  0  0  0  0  0
  187.1860  178.6700  144.4760 N   0  0  0  0  0  0  0  0  0  0  0  0
  184.1650  178.2630  145.4750 C   0  0  0  0  0  2  0  0  0  0  0  0
  192.6580  172.7990  134.9350 C   0  0  0  0  0  1  0  0  0  0  0  0
  193.4990  175.5560  137.5380 C   0  0  0  0  0  1  0  0  0  0  0  0
  192.9080  174.2510  136.9970 C   0  0  0  0  0  0  0  0  0  0  0  0
  191.5300  175.2760  134.9910 S   0  0  0  0  0  0  0  0  0  0  0  0
  190.7130  174.7900  136.5550 C   0  0  1  0  0  3  0  0  0  0  0  0
  191.5830  174.1270  137.4520 O   0  0  0  0  0  0  0  0  0  0  0  0
  192.9260  174.2200  135.4560 C   0  0  2  0  0  0  0  0  0  0  0  0
  193.7410  173.1160  137.5920 C   0  0  0  0  0  1  0  0  0  0  0  0
  194.1690  174.7140  134.9820 O   0  0  0  0  0  0  0  0  0  0  0  0
  194.9990  173.6450  134.5940 C   0  0  0  0  0  1  0  0  0  0  0  0
  2  6  1  0  0  0  0
  2 34  1  0  0  0  0
  4 10  1  0  0  0  0
  6 36  1  6  0  0  0
  6 24  1  0  0  0  0
  7 14  1  0  0  0  0
  7 11  1  0  0  0  0
  8 21  1  0  0  0  0
  9 26  1  1  0  0  0
  9 25  1  0  0  0  0
 10 19  1  0  0  0  0
 11  3  2  0  0  0  0
 12 16  1  0  0  0  0
 13 17  1  0  0  0  0
 16 20  1  0  0  0  0
 17 21  2  0  0  0  0
 18 13  2  0  0  0  0
 18  8  1  0  0  0  0
 19 23  1  0  0  0  0
 21 31  1  0  0  0  0
 22  5  1  6  0  0  0
 22 18  1  0  0  0  0
 23 36  1  0  0  0  0
 25 22  1  0  0  0  0
 26 27  1  0  0  0  0
 27  5  2  0  0  0  0
 29 20  2  0  0  0  0
 29  4  1  0  0  0  0
 30 28  1  1  0  0  0
 30 11  1  0  0  0  0
 30 29  1  0  0  0  0
 31 35  1  0  0  0  0
 31 15  2  0  0  0  0
 32  9  1  0  0  0  0
 32  1  1  1  0  0  0
 32 14  1  0  0  0  0
 33 28  1  0  0  0  0
 33 16  2  0  0  0  0
 34 24  1  0  0  0  0
 35  2  2  0  0  0  0
 39 42  1  0  0  0  0
 39 38  1  0  0  0  0
 39 44  1  0  0  0  0
 40 43  1  0  0  0  0
 40 41  1  0  0  0  0
 41 27  1  1  0  0  0
 41 42  1  0  0  0  0
 43 37  1  6  0  0  0
 43 39  1  0  0  0  0
 45 43  1  0  0  0  0
 46 45  1  0  0  0  0
M  END
>  <MODEL>
4

>  <REMARK>
 VINA RESULT:      -5.5      4.432      8.726
  Name = 
  2 active torsions:
  status: ('A' for Active; 'I' for Inactive)
    1  A    between atoms: O_17  and  C_27
    2  A    between atoms: C_19  and  C_35
                            x       y       z     vdW  Elec       q    Type
                         _______ _______ _______ _____ _____    ______ ____

>  <TORSDO>
F 2

$$$$
=
 OpenBabel11032420053D

 46 51  0  0  1  0  0  0  0  0999 V2000
  187.9480  176.7810  139.4550 C   0  0  0  0  0  1  0  0  0  0  0  0
  183.1230  171.5190  135.3750 C   0  0  0  0  0  0  0  0  0  0  0  0
  185.3720  176.5060  137.5550 O   0  0  0  0  0  0  0  0  0  0  0  0
  182.9640  177.3010  136.2520 O   0  0  0  0  0  0  0  0  0  0  0  0
  190.7190  174.7370  135.8310 C   0  0  0  0  0  3  0  0  0  0  0  0
  181.7530  172.0190  135.4350 C   0  0  2  0  0  3  0  0  0  0  0  0
  186.9200  178.2020  137.1130 N   0  0  0  0  0  2  0  0  0  0  0  0
  186.8910  173.5610  136.0970 S   0  0  0  0  0  0  0  0  0  0  0  0
  189.9960  176.1680  138.1760 C   0  0  1  0  0  3  0  0  0  0  0  0
  181.6930  176.9630  135.7060 C   0  0  0  0  0  2  0  0  0  0  0  0
  185.5990  177.7400  137.4100 C   0  0  0  0  0  0  0  0  0  0  0  0
  181.1300  180.6100  139.2450 F   0  0  0  0  0  0  0  0  0  0  0  0
  188.9870  172.1870  136.0590 C   0  0  0  0  0  3  0  0  0  0  0  0
  188.0450  177.2890  136.9790 C   0  0  0  0  0  2  0  0  0  0  0  0
  185.4880  170.0070  135.2360 O   0  0  0  0  0  0  0  0  0  0  0  0
  182.1980  179.8640  138.8800 C   0  0  0  0  0  0  0  0  0  0  0  0
  187.9740  171.3020  135.8450 N   0  0  0  0  0  0  0  0  0  0  0  0
  188.5640  173.5060  136.1980 C   0  0  0  0  0  0  0  0  0  0  0  0
  181.8100  175.7850  134.7530 C   0  0  0  0  0  2  0  0  0  0  0  0
  182.0490  178.8380  137.8310 C   0  0  0  0  0  3  0  0  0  0  0  0
  186.7620  171.9050  135.8400 C   0  0  0  0  0  0  0  0  0  0  0  0
  189.3940  174.6960  136.5220 C   0  0  1  0  0  3  0  0  0  0  0  0
  181.9800  174.4950  135.5360 C   0  0  0  0  0  2  0  0  0  0  0  0
  181.3370  170.9420  134.6560 N   0  0  0  0  0  2  0  0  0  0  0  0
  189.5660  174.8390  137.9110 O   0  0  0  0  0  0  0  0  0  0  0  0
  191.1760  176.6660  137.3020 C   0  0  0  0  0  2  0  0  0  0  0  0
  191.5880  175.6750  136.2360 C   0  0  0  0  0  0  0  0  0  0  0  0
  184.5740  179.2280  139.1000 C   0  0  0  0  0  2  0  0  0  0  0  0
  183.1230  178.2680  137.2560 C   0  0  0  0  0  0  0  0  0  0  0  0
  184.5190  178.7470  137.6430 C   0  0  2  0  0  3  0  0  0  0  0  0
  185.4940  171.2100  135.6120 C   0  0  0  0  0  0  0  0  0  0  0  0
  188.8380  177.1730  138.2870 C   0  0  1  0  0  3  0  0  0  0  0  0
  183.3900  180.0950  139.4310 C   0  0  0  0  0  3  0  0  0  0  0  0
  182.6150  170.4070  134.5960 O   0  0  0  0  0  0  0  0  0  0  0  0
  184.2740  171.9210  135.8140 N   0  0  0  0  0  0  0  0  0  0  0  0
  181.6290  173.3140  134.6490 C   0  0  0  0  0  2  0  0  0  0  0  0
  195.9680  176.1910  134.5950 C   0  0  0  0  0  1  0  0  0  0  0  0
  194.2930  173.4860  136.8230 C   0  0  0  0  0  1  0  0  0  0  0  0
  194.5810  174.3010  135.5600 C   0  0  0  0  0  0  0  0  0  0  0  0
  194.1690  176.7050  136.5730 S   0  0  0  0  0  0  0  0  0  0  0  0
  192.9040  175.8800  135.5390 C   0  0  1  0  0  3  0  0  0  0  0  0
  193.3600  174.6690  134.9670 O   0  0  0  0  0  0  0  0  0  0  0  0
  195.3970  175.5690  135.8800 C   0  0  2  0  0  0  0  0  0  0  0  0
  195.3330  173.3750  134.6050 C   0  0  0  0  0  1  0  0  0  0  0  0
  196.4310  175.2520  136.7990 O   0  0  0  0  0  0  0  0  0  0  0  0
  197.6770  175.2480  136.1440 C   0  0  0  0  0  1  0  0  0  0  0  0
  2  6  1  0  0  0  0
  2 35  2  0  0  0  0
  4 29  1  0  0  0  0
  5 27  2  0  0  0  0
  6 36  1  6  0  0  0
  7 11  1  0  0  0  0
  8 18  1  0  0  0  0
  9 26  1  6  0  0  0
  9 32  1  0  0  0  0
 10  4  1  0  0  0  0
 11  3  2  0  0  0  0
 11 30  1  0  0  0  0
 13 18  2  0  0  0  0
 14  7  1  0  0  0  0
 14 32  1  0  0  0  0
 15 31  2  0  0  0  0
 16 12  1  0  0  0  0
 16 33  2  0  0  0  0
 17 13  1  0  0  0  0
 18 22  1  0  0  0  0
 19 23  1  0  0  0  0
 19 10  1  0  0  0  0
 20 16  1  0  0  0  0
 21 17  2  0  0  0  0
 21  8  1  0  0  0  0
 22  5  1  6  0  0  0
 22 25  1  0  0  0  0
 24  6  1  0  0  0  0
 25  9  1  0  0  0  0
 27 26  1  0  0  0  0
 28 33  1  0  0  0  0
 29 30  1  0  0  0  0
 29 20  2  0  0  0  0
 30 28  1  1  0  0  0
 31 35  1  0  0  0  0
 31 21  1  0  0  0  0
 32  1  1  1  0  0  0
 34 24  1  0  0  0  0
 34  2  1  0  0  0  0
 36 23  1  0  0  0  0
 39 43  1  0  0  0  0
 39 38  1  0  0  0  0
 41 27  1  1  0  0  0
 41 40  1  0  0  0  0
 42 41  1  0  0  0  0
 42 39  1  0  0  0  0
 43 37  1  6  0  0  0
 43 40  1  0  0  0  0
 43 45  1  0  0  0  0
 44 39  1  0  0  0  0
 46 45  1  0  0  0  0
M  END
>  <MODEL>
5

>  <REMARK>
 VINA RESULT:      -4.6      4.483     10.311
  Name = 
  2 active torsions:
  status: ('A' for Active; 'I' for Inactive)
    1  A    between atoms: O_17  and  C_27
    2  A    between atoms: C_19  and  C_35
                            x       y       z     vdW  Elec       q    Type
                         _______ _______ _______ _____ _____    ______ ____

>  <TORSDO>
F 2

$$$$
