=
 OpenBabel11042409523D

 33 35  0  0  1  0  0  0  0  0999 V2000
  189.4070  177.1790  145.7600 C   0  0  0  0  0  0  0  0  0  0  0  0
  186.7270  178.6110  140.8030 C   0  0  0  0  0  1  0  0  0  0  0  0
  187.1910  178.2280  142.1610 C   0  0  0  0  0  0  0  0  0  0  0  0
  190.6550  177.3420  145.3540 C   0  0  0  0  0  0  0  0  0  0  0  0
  188.5960  178.1420  142.4250 N   0  0  0  0  0  2  0  0  0  0  0  0
  190.6600  177.7240  143.9060 C   0  0  2  0  0  3  0  0  0  0  0  0
  189.1810  177.7740  143.6800 C   0  0  0  0  0  0  0  0  0  0  0  0
  188.4820  177.4610  144.7230 N   0  0  0  0  0  0  0  0  0  0  0  0
  186.3440  177.9830  143.0600 O   0  0  0  0  0  0  0  0  0  0  0  0
  191.7670  177.2050  146.1880 O   0  0  0  0  0  0  0  0  0  0  0  0
  192.1720  175.9480  146.7050 C   0  0  0  0  0  1  0  0  0  0  0  0
  191.2550  176.6020  143.0670 C   0  0  0  0  0  2  0  0  0  0  0  0
  191.4040  177.0490  141.6550 C   0  0  0  0  0  3  0  0  0  0  0  0
  190.6640  176.4950  140.6980 C   0  0  0  0  0  3  0  0  0  0  0  0
  193.5410  175.3720  137.6270 C   0  0  0  0  0  0  0  0  0  0  0  0
  192.1300  176.7090  138.8480 C   0  0  0  0  0  0  0  0  0  0  0  0
  191.0510  175.8230  138.4670 C   0  0  0  0  0  0  0  0  0  0  0  0
  190.8140  176.9370  139.2830 C   0  0  1  0  0  3  0  0  0  0  0  0
  192.5750  173.3190  136.3820 C   0  0  0  0  0  1  0  0  0  0  0  0
  193.4200  176.5500  138.4670 C   0  0  0  0  0  3  0  0  0  0  0  0
  191.0760  174.7330  137.7160 N   0  0  0  0  0  0  0  0  0  0  0  0
  192.3770  174.4960  137.2770 C   0  0  0  0  0  0  0  0  0  0  0  0
  195.6890  174.0110  137.7690 N   0  0  0  0  0  2  0  0  0  0  0  0
  194.9000  175.0310  137.1460 C   0  0  0  0  0  0  0  0  0  0  0  0
  195.3800  175.6370  136.1510 O   0  0  0  0  0  0  0  0  0  0  0  0
  195.3130  173.4040  138.9740 N   0  0  0  0  0  1  0  0  0  0  0  0
  188.9950  176.8560  147.1590 C   0  0  0  0  0  2  0  0  0  0  0  0
  189.1300  178.0790  148.0530 C   0  0  0  0  0  2  0  0  0  0  0  0
  187.8380  178.4270  148.6180 N   0  0  0  0  0  2  0  0  0  0  0  0
  186.8330  177.9860  147.6700 C   0  0  0  0  0  2  0  0  0  0  0  0
  186.0530  179.1850  147.1680 C   0  0  0  0  0  2  0  0  0  0  0  0
  183.9040  178.9540  146.1560 O   0  0  0  0  0  1  0  0  0  0  0  0
  185.2720  178.8200  145.9190 C   0  0  0  0  0  2  0  0  0  0  0  0
  1 27  1  0  0  0  0
  2  3  1  0  0  0  0
  3  5  1  0  0  0  0
  3  9  2  0  0  0  0
  4  1  2  0  0  0  0
  4 10  1  0  0  0  0
  5  7  1  0  0  0  0
  6 12  1  6  0  0  0
  6  4  1  0  0  0  0
  7  6  1  0  0  0  0
  7  8  2  0  0  0  0
  8  1  1  0  0  0  0
 10 11  1  0  0  0  0
 13 12  1  0  0  0  0
 14 13  2  0  0  0  0
 15 20  1  0  0  0  0
 16 18  1  0  0  0  0
 17 16  1  0  0  0  0
 17 18  1  0  0  0  0
 18 14  1  1  0  0  0
 19 22  1  0  0  0  0
 20 16  2  0  0  0  0
 21 17  2  0  0  0  0
 22 15  2  0  0  0  0
 22 21  1  0  0  0  0
 23 26  1  0  0  0  0
 24 15  1  0  0  0  0
 24 23  1  0  0  0  0
 25 24  2  0  0  0  0
 27 28  1  0  0  0  0
 28 29  1  0  0  0  0
 30 29  1  0  0  0  0
 31 30  1  0  0  0  0
 33 32  1  0  0  0  0
 33 31  1  0  0  0  0
M  END
>  <MODEL>
1

>  <REMARK>
 VINA RESULT:      -7.8      0.000      0.000
  Name = 
  11 active torsions:
  status: ('A' for Active; 'I' for Inactive)
    1  A    between atoms: O_1  and  C_16
    2  A    between atoms: C_3  and  C_6
    3  A    between atoms: C_5  and  N_12
    4  A    between atoms: C_5  and  C_19
    5  A    between atoms: C_7  and  C_21
    6  A    between atoms: C_11  and  C_15
    7  A    between atoms: N_12  and  C_33
    8  A    between atoms: C_13  and  C_14
    9  A    between atoms: C_15  and  C_20
   10  A    between atoms: C_19  and  C_32
   11  A    between atoms: C_21  and  C_33
                            x       y       z     vdW  Elec       q    Type
                         _______ _______ _______ _____ _____    ______ ____

>  <TORSDO>
F 11

$$$$
=
 OpenBabel11042409523D

 33 35  0  0  1  0  0  0  0  0999 V2000
  189.1650  177.8520  143.7680 C   0  0  0  0  0  0  0  0  0  0  0  0
  183.7370  178.4820  141.7820 C   0  0  0  0  0  1  0  0  0  0  0  0
  185.0220  178.3020  142.5050 C   0  0  0  0  0  0  0  0  0  0  0  0
  189.8070  178.0410  142.6270 C   0  0  0  0  0  0  0  0  0  0  0  0
  186.2510  178.3380  141.7730 N   0  0  0  0  0  2  0  0  0  0  0  0
  188.8120  178.2390  141.5250 C   0  0  2  0  0  3  0  0  0  0  0  0
  187.5570  178.1670  142.3370 C   0  0  0  0  0  0  0  0  0  0  0  0
  187.7600  177.9430  143.5950 N   0  0  0  0  0  0  0  0  0  0  0  0
  185.0120  178.1180  143.7510 O   0  0  0  0  0  0  0  0  0  0  0  0
  191.1980  178.0790  142.5170 O   0  0  0  0  0  0  0  0  0  0  0  0
  191.9910  176.9040  142.5480 C   0  0  0  0  0  1  0  0  0  0  0  0
  188.8510  177.0610  140.5620 C   0  0  0  0  0  2  0  0  0  0  0  0
  189.8220  177.3320  139.4680 C   0  0  0  0  0  3  0  0  0  0  0  0
  190.0420  176.4150  138.5290 C   0  0  0  0  0  3  0  0  0  0  0  0
  194.0460  174.8600  137.8050 C   0  0  0  0  0  0  0  0  0  0  0  0
  192.3170  176.3700  137.8640 C   0  0  0  0  0  0  0  0  0  0  0  0
  191.5790  175.4730  137.0020 C   0  0  0  0  0  0  0  0  0  0  0  0
  191.0170  176.6810  137.4340 C   0  0  1  0  0  3  0  0  0  0  0  0
  193.7900  172.6990  136.4040 C   0  0  0  0  0  1  0  0  0  0  0  0
  193.5710  176.1330  138.3190 C   0  0  0  0  0  3  0  0  0  0  0  0
  191.9310  174.3010  136.4980 N   0  0  0  0  0  0  0  0  0  0  0  0
  193.2210  173.9790  136.9170 C   0  0  0  0  0  0  0  0  0  0  0  0
  196.5800  174.8580  137.5490 N   0  0  0  0  0  2  0  0  0  0  0  0
  195.3970  174.4300  138.2340 C   0  0  0  0  0  0  0  0  0  0  0  0
  195.5240  173.6820  139.2400 O   0  0  0  0  0  0  0  0  0  0  0  0
  196.5330  175.5470  136.3310 N   0  0  0  0  0  1  0  0  0  0  0  0
  189.8170  177.6810  145.1010 C   0  0  0  0  0  2  0  0  0  0  0  0
  188.8190  177.1600  146.1230 C   0  0  0  0  0  2  0  0  0  0  0  0
  189.1210  177.7040  147.4350 N   0  0  0  0  0  2  0  0  0  0  0  0
  187.8580  178.1130  148.0200 C   0  0  0  0  0  2  0  0  0  0  0  0
  186.7480  177.9200  147.0060 C   0  0  0  0  0  2  0  0  0  0  0  0
  184.4730  178.6200  146.8370 O   0  0  0  0  0  1  0  0  0  0  0  0
  185.7700  179.0780  147.0710 C   0  0  0  0  0  2  0  0  0  0  0  0
  1 27  1  0  0  0  0
  2  3  1  0  0  0  0
  3  9  2  0  0  0  0
  4  1  2  0  0  0  0
  5  7  1  0  0  0  0
  5  3  1  0  0  0  0
  6 12  1  6  0  0  0
  6  7  1  0  0  0  0
  6  4  1  0  0  0  0
  7  8  2  0  0  0  0
  8  1  1  0  0  0  0
 10 11  1  0  0  0  0
 10  4  1  0  0  0  0
 13 12  1  0  0  0  0
 14 13  2  0  0  0  0
 15 24  1  0  0  0  0
 15 20  1  0  0  0  0
 16 20  2  0  0  0  0
 17 18  1  0  0  0  0
 17 16  1  0  0  0  0
 18 16  1  0  0  0  0
 18 14  1  1  0  0  0
 19 22  1  0  0  0  0
 21 22  1  0  0  0  0
 21 17  2  0  0  0  0
 22 15  2  0  0  0  0
 23 24  1  0  0  0  0
 24 25  2  0  0  0  0
 26 23  1  0  0  0  0
 27 28  1  0  0  0  0
 28 29  1  0  0  0  0
 29 30  1  0  0  0  0
 31 33  1  0  0  0  0
 31 30  1  0  0  0  0
 32 33  1  0  0  0  0
M  END
>  <MODEL>
2

>  <REMARK>
 VINA RESULT:      -7.8      1.666      2.286
  Name = 
  11 active torsions:
  status: ('A' for Active; 'I' for Inactive)
    1  A    between atoms: O_1  and  C_16
    2  A    between atoms: C_3  and  C_6
    3  A    between atoms: C_5  and  N_12
    4  A    between atoms: C_5  and  C_19
    5  A    between atoms: C_7  and  C_21
    6  A    between atoms: C_11  and  C_15
    7  A    between atoms: N_12  and  C_33
    8  A    between atoms: C_13  and  C_14
    9  A    between atoms: C_15  and  C_20
   10  A    between atoms: C_19  and  C_32
   11  A    between atoms: C_21  and  C_33
                            x       y       z     vdW  Elec       q    Type
                         _______ _______ _______ _____ _____    ______ ____

>  <TORSDO>
F 11

$$$$
=
 OpenBabel11042409523D

 33 35  0  0  1  0  0  0  0  0999 V2000
  186.4040  178.0810  144.7400 C   0  0  0  0  0  0  0  0  0  0  0  0
  190.6630  176.9780  140.9370 C   0  0  0  0  0  1  0  0  0  0  0  0
  189.7440  177.2330  142.0760 C   0  0  0  0  0  0  0  0  0  0  0  0
  185.3990  178.1500  143.8830 C   0  0  0  0  0  0  0  0  0  0  0  0
  188.3570  177.4770  141.8190 N   0  0  0  0  0  2  0  0  0  0  0  0
  185.9210  177.9740  142.4900 C   0  0  2  0  0  3  0  0  0  0  0  0
  187.3650  177.7490  142.8160 C   0  0  0  0  0  0  0  0  0  0  0  0
  187.6320  177.8160  144.0800 N   0  0  0  0  0  0  0  0  0  0  0  0
  190.1970  177.2330  143.2510 O   0  0  0  0  0  0  0  0  0  0  0  0
  184.0670  178.3260  144.2620 O   0  0  0  0  0  0  0  0  0  0  0  0
  183.4140  179.5820  144.1680 C   0  0  0  0  0  1  0  0  0  0  0  0
  185.7830  179.2710  141.7070 C   0  0  0  0  0  2  0  0  0  0  0  0
  184.9400  179.0490  140.5010 C   0  0  0  0  0  3  0  0  0  0  0  0
  183.8730  178.2570  140.5690 C   0  0  0  0  0  3  0  0  0  0  0  0
  184.6540  176.0640  136.8870 C   0  0  0  0  0  0  0  0  0  0  0  0
  183.8430  177.7150  138.2610 C   0  0  0  0  0  0  0  0  0  0  0  0
  183.1170  176.6870  138.9740 C   0  0  0  0  0  0  0  0  0  0  0  0
  183.0290  178.0300  139.3620 C   0  0  1  0  0  3  0  0  0  0  0  0
  183.9140  173.6160  137.2790 C   0  0  0  0  0  1  0  0  0  0  0  0
  184.6460  177.4840  137.1950 C   0  0  0  0  0  3  0  0  0  0  0  0
  183.0750  175.3800  138.7660 N   0  0  0  0  0  0  0  0  0  0  0  0
  183.8780  175.0540  137.6750 C   0  0  0  0  0  0  0  0  0  0  0  0
  186.8760  175.2360  135.9570 N   0  0  0  0  0  2  0  0  0  0  0  0
  185.5140  175.6310  135.7600 C   0  0  0  0  0  0  0  0  0  0  0  0
  185.0380  175.5870  134.5950 O   0  0  0  0  0  0  0  0  0  0  0  0
  187.5390  175.4110  137.1790 N   0  0  0  0  0  1  0  0  0  0  0  0
  186.2710  178.1490  146.2260 C   0  0  0  0  0  2  0  0  0  0  0  0
  187.4140  177.4090  146.9010 C   0  0  0  0  0  2  0  0  0  0  0  0
  187.9530  178.2090  147.9870 N   0  0  0  0  0  2  0  0  0  0  0  0
  189.3680  177.9020  148.0720 C   0  0  0  0  0  2  0  0  0  0  0  0
  189.6790  176.7110  147.1870 C   0  0  0  0  0  2  0  0  0  0  0  0
  191.8460  177.2180  146.3260 O   0  0  0  0  0  1  0  0  0  0  0  0
  191.1640  176.4000  147.2270 C   0  0  0  0  0  2  0  0  0  0  0  0
  1 27  1  0  0  0  0
  2  3  1  0  0  0  0
  3  9  2  0  0  0  0
  4 10  1  0  0  0  0
  4  1  2  0  0  0  0
  5  3  1  0  0  0  0
  5  7  1  0  0  0  0
  6 12  1  6  0  0  0
  6  7  1  0  0  0  0
  6  4  1  0  0  0  0
  7  8  2  0  0  0  0
  8  1  1  0  0  0  0
 11 10  1  0  0  0  0
 13 14  2  0  0  0  0
 13 12  1  0  0  0  0
 15 20  2  0  0  0  0
 15 22  1  0  0  0  0
 16 17  2  0  0  0  0
 16 18  1  0  0  0  0
 17 18  1  0  0  0  0
 18 14  1  1  0  0  0
 19 22  1  0  0  0  0
 20 16  1  0  0  0  0
 21 17  1  0  0  0  0
 22 21  2  0  0  0  0
 23 26  1  0  0  0  0
 24 23  1  0  0  0  0
 24 15  1  0  0  0  0
 25 24  2  0  0  0  0
 27 28  1  0  0  0  0
 28 29  1  0  0  0  0
 29 30  1  0  0  0  0
 31 33  1  0  0  0  0
 31 30  1  0  0  0  0
 32 33  1  0  0  0  0
M  END
>  <MODEL>
3

>  <REMARK>
 VINA RESULT:      -7.7      3.610      6.692
  Name = 
  11 active torsions:
  status: ('A' for Active; 'I' for Inactive)
    1  A    between atoms: O_1  and  C_16
    2  A    between atoms: C_3  and  C_6
    3  A    between atoms: C_5  and  N_12
    4  A    between atoms: C_5  and  C_19
    5  A    between atoms: C_7  and  C_21
    6  A    between atoms: C_11  and  C_15
    7  A    between atoms: N_12  and  C_33
    8  A    between atoms: C_13  and  C_14
    9  A    between atoms: C_15  and  C_20
   10  A    between atoms: C_19  and  C_32
   11  A    between atoms: C_21  and  C_33
                            x       y       z     vdW  Elec       q    Type
                         _______ _______ _______ _____ _____    ______ ____

>  <TORSDO>
F 11

$$$$
=
 OpenBabel11042409523D

 33 35  0  0  1  0  0  0  0  0999 V2000
  187.9420  177.6610  143.5420 C   0  0  0  0  0  0  0  0  0  0  0  0
  184.2730  179.4940  139.4210 C   0  0  0  0  0  1  0  0  0  0  0  0
  185.0210  179.0370  140.6200 C   0  0  0  0  0  0  0  0  0  0  0  0
  189.0510  177.6610  142.8210 C   0  0  0  0  0  0  0  0  0  0  0  0
  186.4220  178.7610  140.5110 N   0  0  0  0  0  2  0  0  0  0  0  0
  188.7280  178.0540  141.4120 C   0  0  2  0  0  3  0  0  0  0  0  0
  187.2610  178.3050  141.5780 C   0  0  0  0  0  0  0  0  0  0  0  0
  186.8240  178.0760  142.7740 N   0  0  0  0  0  0  0  0  0  0  0  0
  184.4130  178.8980  141.7140 O   0  0  0  0  0  0  0  0  0  0  0  0
  190.3140  177.3670  143.3390 O   0  0  0  0  0  0  0  0  0  0  0  0
  191.4960  177.9640  142.8320 C   0  0  0  0  0  1  0  0  0  0  0  0
  188.9290  176.8730  140.4750 C   0  0  0  0  0  2  0  0  0  0  0  0
  189.9520  177.2090  139.4470 C   0  0  0  0  0  3  0  0  0  0  0  0
  190.1730  176.3800  138.4300 C   0  0  0  0  0  3  0  0  0  0  0  0
  194.1910  174.8310  137.7760 C   0  0  0  0  0  0  0  0  0  0  0  0
  192.4760  176.3540  137.8660 C   0  0  0  0  0  0  0  0  0  0  0  0
  191.7690  175.5300  136.9100 C   0  0  0  0  0  0  0  0  0  0  0  0
  191.1990  176.7110  137.4010 C   0  0  1  0  0  3  0  0  0  0  0  0
  193.9790  172.7790  136.2140 C   0  0  0  0  0  1  0  0  0  0  0  0
  193.7050  176.0700  138.3580 C   0  0  0  0  0  3  0  0  0  0  0  0
  192.1330  174.3930  136.3390 N   0  0  0  0  0  0  0  0  0  0  0  0
  193.4000  174.0260  136.7910 C   0  0  0  0  0  0  0  0  0  0  0  0
  196.7310  174.7670  137.5930 N   0  0  0  0  0  2  0  0  0  0  0  0
  195.5180  174.3550  138.2330 C   0  0  0  0  0  0  0  0  0  0  0  0
  195.5950  173.5800  139.2230 O   0  0  0  0  0  0  0  0  0  0  0  0
  196.7370  175.4870  136.3910 N   0  0  0  0  0  1  0  0  0  0  0  0
  187.8720  177.3810  145.0070 C   0  0  0  0  0  2  0  0  0  0  0  0
  188.9410  178.1630  145.7540 C   0  0  0  0  0  2  0  0  0  0  0  0
  188.9640  177.7650  147.1510 N   0  0  0  0  0  2  0  0  0  0  0  0
  189.7790  176.5690  147.2330 C   0  0  0  0  0  2  0  0  0  0  0  0
  191.1810  176.8810  146.7460 C   0  0  0  0  0  2  0  0  0  0  0  0
  192.8560  176.0840  148.2470 O   0  0  0  0  0  1  0  0  0  0  0  0
  192.1260  175.7500  147.1060 C   0  0  0  0  0  2  0  0  0  0  0  0
  1 27  1  0  0  0  0
  2  3  1  0  0  0  0
  3  9  2  0  0  0  0
  4 10  1  0  0  0  0
  4  1  2  0  0  0  0
  5  3  1  0  0  0  0
  5  7  1  0  0  0  0
  6 12  1  6  0  0  0
  6  7  1  0  0  0  0
  6  4  1  0  0  0  0
  7  8  2  0  0  0  0
  8  1  1  0  0  0  0
 11 10  1  0  0  0  0
 13 12  1  0  0  0  0
 14 13  2  0  0  0  0
 15 24  1  0  0  0  0
 15 20  1  0  0  0  0
 16 20  2  0  0  0  0
 17 18  1  0  0  0  0
 17 16  1  0  0  0  0
 18 16  1  0  0  0  0
 18 14  1  1  0  0  0
 19 22  1  0  0  0  0
 21 22  1  0  0  0  0
 21 17  2  0  0  0  0
 22 15  2  0  0  0  0
 23 24  1  0  0  0  0
 24 25  2  0  0  0  0
 26 23  1  0  0  0  0
 27 28  1  0  0  0  0
 28 29  1  0  0  0  0
 29 30  1  0  0  0  0
 31 33  1  0  0  0  0
 31 30  1  0  0  0  0
 33 32  1  0  0  0  0
M  END
>  <MODEL>
4

>  <REMARK>
 VINA RESULT:      -7.6      1.957      3.406
  Name = 
  11 active torsions:
  status: ('A' for Active; 'I' for Inactive)
    1  A    between atoms: O_1  and  C_16
    2  A    between atoms: C_3  and  C_6
    3  A    between atoms: C_5  and  N_12
    4  A    between atoms: C_5  and  C_19
    5  A    between atoms: C_7  and  C_21
    6  A    between atoms: C_11  and  C_15
    7  A    between atoms: N_12  and  C_33
    8  A    between atoms: C_13  and  C_14
    9  A    between atoms: C_15  and  C_20
   10  A    between atoms: C_19  and  C_32
   11  A    between atoms: C_21  and  C_33
                            x       y       z     vdW  Elec       q    Type
                         _______ _______ _______ _____ _____    ______ ____

>  <TORSDO>
F 11

$$$$
=
 OpenBabel11042409523D

 33 35  0  0  1  0  0  0  0  0999 V2000
  186.7690  178.0930  145.1880 C   0  0  0  0  0  0  0  0  0  0  0  0
  190.3140  176.7490  140.7790 C   0  0  0  0  0  1  0  0  0  0  0  0
  189.6010  177.0610  142.0450 C   0  0  0  0  0  0  0  0  0  0  0  0
  185.6430  178.1940  144.5010 C   0  0  0  0  0  0  0  0  0  0  0  0
  188.2010  177.3620  142.0060 N   0  0  0  0  0  2  0  0  0  0  0  0
  185.9270  177.9750  143.0470 C   0  0  2  0  0  3  0  0  0  0  0  0
  187.3940  177.6910  143.1430 C   0  0  0  0  0  0  0  0  0  0  0  0
  187.8630  177.7660  144.3470 N   0  0  0  0  0  0  0  0  0  0  0  0
  190.2360  177.0580  143.1320 O   0  0  0  0  0  0  0  0  0  0  0  0
  184.3970  178.4340  145.0840 O   0  0  0  0  0  0  0  0  0  0  0  0
  183.4150  179.2450  144.4600 C   0  0  0  0  0  1  0  0  0  0  0  0
  185.7190  179.2650  142.2680 C   0  0  0  0  0  2  0  0  0  0  0  0
  184.8040  179.0240  141.1200 C   0  0  0  0  0  3  0  0  0  0  0  0
  185.2960  178.6420  139.9440 C   0  0  0  0  0  3  0  0  0  0  0  0
  180.9820  178.0620  139.7660 C   0  0  0  0  0  0  0  0  0  0  0  0
  183.1990  177.7900  139.2360 C   0  0  0  0  0  0  0  0  0  0  0  0
  183.2400  179.2020  138.9230 C   0  0  0  0  0  0  0  0  0  0  0  0
  184.3820  178.4030  138.7900 C   0  0  1  0  0  3  0  0  0  0  0  0
  179.9020  180.4010  139.5220 C   0  0  0  0  0  1  0  0  0  0  0  0
  182.0970  177.1350  139.6710 C   0  0  0  0  0  3  0  0  0  0  0  0
  182.2800  180.1120  138.9880 N   0  0  0  0  0  0  0  0  0  0  0  0
  181.1000  179.5170  139.4290 C   0  0  0  0  0  0  0  0  0  0  0  0
  179.2830  177.6690  141.6220 N   0  0  0  0  0  2  0  0  0  0  0  0
  179.6980  177.5130  140.2600 C   0  0  0  0  0  0  0  0  0  0  0  0
  178.9320  176.9060  139.4650 O   0  0  0  0  0  0  0  0  0  0  0  0
  180.1350  178.1770  142.6120 N   0  0  0  0  0  1  0  0  0  0  0  0
  186.8780  178.1890  146.6740 C   0  0  0  0  0  2  0  0  0  0  0  0
  187.9030  177.1960  147.2010 C   0  0  0  0  0  2  0  0  0  0  0  0
  188.6470  177.7860  148.3000 N   0  0  0  0  0  2  0  0  0  0  0  0
  190.0510  177.7150  147.9420 C   0  0  0  0  0  2  0  0  0  0  0  0
  190.2270  176.7480  146.7880 C   0  0  0  0  0  2  0  0  0  0  0  0
  192.3430  176.5890  147.8790 O   0  0  0  0  0  1  0  0  0  0  0  0
  191.6760  176.3110  146.6860 C   0  0  0  0  0  2  0  0  0  0  0  0
  1 27  1  0  0  0  0
  2  3  1  0  0  0  0
  3  9  2  0  0  0  0
  4 10  1  0  0  0  0
  4  1  2  0  0  0  0
  5  3  1  0  0  0  0
  5  7  1  0  0  0  0
  6 12  1  6  0  0  0
  6  7  1  0  0  0  0
  6  4  1  0  0  0  0
  7  8  2  0  0  0  0
  8  1  1  0  0  0  0
 11 10  1  0  0  0  0
 13 12  1  0  0  0  0
 14 13  2  0  0  0  0
 15 24  1  0  0  0  0
 16 20  2  0  0  0  0
 17 21  2  0  0  0  0
 17 16  1  0  0  0  0
 18 17  1  0  0  0  0
 18 16  1  0  0  0  0
 18 14  1  1  0  0  0
 20 15  1  0  0  0  0
 21 22  1  0  0  0  0
 22 19  1  0  0  0  0
 22 15  2  0  0  0  0
 23 26  1  0  0  0  0
 24 23  1  0  0  0  0
 25 24  2  0  0  0  0
 27 28  1  0  0  0  0
 28 29  1  0  0  0  0
 30 29  1  0  0  0  0
 31 30  1  0  0  0  0
 33 31  1  0  0  0  0
 33 32  1  0  0  0  0
M  END
>  <MODEL>
5

>  <REMARK>
 VINA RESULT:      -7.6      4.174      8.912
  Name = 
  11 active torsions:
  status: ('A' for Active; 'I' for Inactive)
    1  A    between atoms: O_1  and  C_16
    2  A    between atoms: C_3  and  C_6
    3  A    between atoms: C_5  and  N_12
    4  A    between atoms: C_5  and  C_19
    5  A    between atoms: C_7  and  C_21
    6  A    between atoms: C_11  and  C_15
    7  A    between atoms: N_12  and  C_33
    8  A    between atoms: C_13  and  C_14
    9  A    between atoms: C_15  and  C_20
   10  A    between atoms: C_19  and  C_32
   11  A    between atoms: C_21  and  C_33
                            x       y       z     vdW  Elec       q    Type
                         _______ _______ _______ _____ _____    ______ ____

>  <TORSDO>
F 11

$$$$
=
 OpenBabel11042409523D

 33 35  0  0  1  0  0  0  0  0999 V2000
  190.9750  177.6970  142.3520 C   0  0  0  0  0  0  0  0  0  0  0  0
  193.0490  176.3140  137.0990 C   0  0  0  0  0  1  0  0  0  0  0  0
  192.7490  176.6650  138.5110 C   0  0  0  0  0  0  0  0  0  0  0  0
  189.6850  177.6400  142.0660 C   0  0  0  0  0  0  0  0  0  0  0  0
  191.3860  176.8350  138.9170 N   0  0  0  0  0  2  0  0  0  0  0  0
  189.5110  177.3270  140.6120 C   0  0  2  0  0  3  0  0  0  0  0  0
  190.9540  177.1840  140.2370 C   0  0  0  0  0  0  0  0  0  0  0  0
  191.7720  177.4000  141.2160 N   0  0  0  0  0  0  0  0  0  0  0  0
  193.6950  176.8080  139.3290 O   0  0  0  0  0  0  0  0  0  0  0  0
  188.6730  177.8150  143.0120 O   0  0  0  0  0  0  0  0  0  0  0  0
  187.4640  177.0730  142.9710 C   0  0  0  0  0  1  0  0  0  0  0  0
  188.9230  178.5250  139.8820 C   0  0  0  0  0  2  0  0  0  0  0  0
  188.1280  178.0650  138.7100 C   0  0  0  0  0  3  0  0  0  0  0  0
  188.4540  178.4670  137.4840 C   0  0  0  0  0  3  0  0  0  0  0  0
  185.9400  174.9580  136.9010 C   0  0  0  0  0  0  0  0  0  0  0  0
  187.4310  176.6280  136.3920 C   0  0  0  0  0  0  0  0  0  0  0  0
  186.3960  177.5790  136.7370 C   0  0  0  0  0  0  0  0  0  0  0  0
  187.6570  178.0120  136.3090 C   0  0  1  0  0  3  0  0  0  0  0  0
  183.5520  175.5860  137.6720 C   0  0  0  0  0  1  0  0  0  0  0  0
  187.2820  175.2830  136.4510 C   0  0  0  0  0  3  0  0  0  0  0  0
  185.1590  177.3690  137.1590 N   0  0  0  0  0  0  0  0  0  0  0  0
  184.9200  175.9990  137.2450 C   0  0  0  0  0  0  0  0  0  0  0  0
  185.0830  172.7470  135.9720 N   0  0  0  0  0  2  0  0  0  0  0  0
  185.6180  173.5190  137.0520 C   0  0  0  0  0  0  0  0  0  0  0  0
  185.8350  172.9440  138.1520 O   0  0  0  0  0  0  0  0  0  0  0  0
  184.6540  173.3310  134.7730 N   0  0  0  0  0  1  0  0  0  0  0  0
  191.5430  177.9240  143.7140 C   0  0  0  0  0  2  0  0  0  0  0  0
  191.6110  176.6190  144.4920 C   0  0  0  0  0  2  0  0  0  0  0  0
  191.4460  176.8760  145.9110 N   0  0  0  0  0  2  0  0  0  0  0  0
  190.1120  177.4170  146.0870 C   0  0  0  0  0  2  0  0  0  0  0  0
  189.4560  176.7610  147.2860 C   0  0  0  0  0  2  0  0  0  0  0  0
  188.3440  178.1100  148.9100 O   0  0  0  0  0  1  0  0  0  0  0  0
  188.1880  177.5030  147.6640 C   0  0  0  0  0  2  0  0  0  0  0  0
  1 27  1  0  0  0  0
  2  3  1  0  0  0  0
  3  5  1  0  0  0  0
  3  9  2  0  0  0  0
  4  1  2  0  0  0  0
  4 10  1  0  0  0  0
  5  7  1  0  0  0  0
  6 12  1  6  0  0  0
  6  4  1  0  0  0  0
  7  6  1  0  0  0  0
  7  8  2  0  0  0  0
  8  1  1  0  0  0  0
 11 10  1  0  0  0  0
 13 12  1  0  0  0  0
 14 13  2  0  0  0  0
 15 24  1  0  0  0  0
 15 22  1  0  0  0  0
 16 20  1  0  0  0  0
 16 17  2  0  0  0  0
 17 21  1  0  0  0  0
 18 16  1  0  0  0  0
 18 17  1  0  0  0  0
 18 14  1  1  0  0  0
 20 15  2  0  0  0  0
 21 22  2  0  0  0  0
 22 19  1  0  0  0  0
 23 24  1  0  0  0  0
 24 25  2  0  0  0  0
 26 23  1  0  0  0  0
 27 28  1  0  0  0  0
 28 29  1  0  0  0  0
 29 30  1  0  0  0  0
 30 31  1  0  0  0  0
 31 33  1  0  0  0  0
 33 32  1  0  0  0  0
M  END
>  <MODEL>
6

>  <REMARK>
 VINA RESULT:      -7.5      3.831      6.351
  Name = 
  11 active torsions:
  status: ('A' for Active; 'I' for Inactive)
    1  A    between atoms: O_1  and  C_16
    2  A    between atoms: C_3  and  C_6
    3  A    between atoms: C_5  and  N_12
    4  A    between atoms: C_5  and  C_19
    5  A    between atoms: C_7  and  C_21
    6  A    between atoms: C_11  and  C_15
    7  A    between atoms: N_12  and  C_33
    8  A    between atoms: C_13  and  C_14
    9  A    between atoms: C_15  and  C_20
   10  A    between atoms: C_19  and  C_32
   11  A    between atoms: C_21  and  C_33
                            x       y       z     vdW  Elec       q    Type
                         _______ _______ _______ _____ _____    ______ ____

>  <TORSDO>
F 11

$$$$
=
 OpenBabel11042409523D

 33 35  0  0  1  0  0  0  0  0999 V2000
  182.4770  179.5170  139.7260 C   0  0  0  0  0  0  0  0  0  0  0  0
  179.2950  178.9110  144.5540 C   0  0  0  0  0  1  0  0  0  0  0  0
  179.9140  179.1710  143.2290 C   0  0  0  0  0  0  0  0  0  0  0  0
  183.5570  178.8680  140.1280 C   0  0  0  0  0  0  0  0  0  0  0  0
  181.2540  178.7330  142.9810 N   0  0  0  0  0  2  0  0  0  0  0  0
  183.3710  178.4260  141.5470 C   0  0  2  0  0  3  0  0  0  0  0  0
  181.9750  178.9270  141.7590 C   0  0  0  0  0  0  0  0  0  0  0  0
  181.4810  179.5450  140.7350 N   0  0  0  0  0  0  0  0  0  0  0  0
  179.2510  179.7730  142.3430 O   0  0  0  0  0  0  0  0  0  0  0  0
  184.6640  178.6240  139.3130 O   0  0  0  0  0  0  0  0  0  0  0  0
  184.6790  177.5820  138.3510 C   0  0  0  0  0  1  0  0  0  0  0  0
  184.3170  179.1850  142.4650 C   0  0  0  0  0  2  0  0  0  0  0  0
  185.1520  178.2270  143.2390 C   0  0  0  0  0  3  0  0  0  0  0  0
  185.3730  178.4300  144.5350 C   0  0  0  0  0  3  0  0  0  0  0  0
  189.2340  176.6180  143.6510 C   0  0  0  0  0  0  0  0  0  0  0  0
  187.0900  176.7970  144.4490 C   0  0  0  0  0  0  0  0  0  0  0  0
  187.5490  177.8890  145.2790 C   0  0  0  0  0  0  0  0  0  0  0  0
  186.2120  177.4740  145.3120 C   0  0  1  0  0  3  0  0  0  0  0  0
  191.0580  178.2140  144.5580 C   0  0  0  0  0  1  0  0  0  0  0  0
  187.8780  176.1020  143.5950 C   0  0  0  0  0  3  0  0  0  0  0  0
  188.7560  178.4230  145.3850 N   0  0  0  0  0  0  0  0  0  0  0  0
  189.6380  177.7590  144.5340 C   0  0  0  0  0  0  0  0  0  0  0  0
  190.4830  176.4940  141.4340 N   0  0  0  0  0  2  0  0  0  0  0  0
  190.2260  175.9870  142.7480 C   0  0  0  0  0  0  0  0  0  0  0  0
  190.8820  174.9870  143.1440 O   0  0  0  0  0  0  0  0  0  0  0  0
  189.6910  177.4900  140.8470 N   0  0  0  0  0  1  0  0  0  0  0  0
  182.2630  180.0560  138.3490 C   0  0  0  0  0  2  0  0  0  0  0  0
  180.7810  180.2500  138.0730 C   0  0  0  0  0  2  0  0  0  0  0  0
  180.5920  181.2820  137.0690 N   0  0  0  0  0  2  0  0  0  0  0  0
  180.6730  182.5560  137.7560 C   0  0  0  0  0  2  0  0  0  0  0  0
  180.2990  183.6700  136.7980 C   0  0  0  0  0  2  0  0  0  0  0  0
  182.3410  184.6200  137.5890 O   0  0  0  0  0  1  0  0  0  0  0  0
  181.0570  184.9380  137.1450 C   0  0  0  0  0  2  0  0  0  0  0  0
  1  4  2  0  0  0  0
  1  8  1  0  0  0  0
  3  2  1  0  0  0  0
  4  6  1  0  0  0  0
  5  3  1  0  0  0  0
  6  7  1  0  0  0  0
  6 12  1  1  0  0  0
  7  5  1  0  0  0  0
  8  7  2  0  0  0  0
  9  3  2  0  0  0  0
 10  4  1  0  0  0  0
 11 10  1  0  0  0  0
 12 13  1  0  0  0  0
 13 14  2  0  0  0  0
 15 22  1  0  0  0  0
 16 17  2  0  0  0  0
 16 18  1  0  0  0  0
 17 18  1  0  0  0  0
 17 21  1  0  0  0  0
 18 14  1  6  0  0  0
 20 15  2  0  0  0  0
 20 16  1  0  0  0  0
 22 19  1  0  0  0  0
 22 21  2  0  0  0  0
 23 24  1  0  0  0  0
 24 25  2  0  0  0  0
 24 15  1  0  0  0  0
 26 23  1  0  0  0  0
 27  1  1  0  0  0  0
 28 27  1  0  0  0  0
 29 30  1  0  0  0  0
 29 28  1  0  0  0  0
 31 33  1  0  0  0  0
 31 30  1  0  0  0  0
 33 32  1  0  0  0  0
M  END
>  <MODEL>
7

>  <REMARK>
 VINA RESULT:      -7.5      5.157      9.171
  Name = 
  11 active torsions:
  status: ('A' for Active; 'I' for Inactive)
    1  A    between atoms: O_1  and  C_16
    2  A    between atoms: C_3  and  C_6
    3  A    between atoms: C_5  and  N_12
    4  A    between atoms: C_5  and  C_19
    5  A    between atoms: C_7  and  C_21
    6  A    between atoms: C_11  and  C_15
    7  A    between atoms: N_12  and  C_33
    8  A    between atoms: C_13  and  C_14
    9  A    between atoms: C_15  and  C_20
   10  A    between atoms: C_19  and  C_32
   11  A    between atoms: C_21  and  C_33
                            x       y       z     vdW  Elec       q    Type
                         _______ _______ _______ _____ _____    ______ ____

>  <TORSDO>
F 11

$$$$
=
 OpenBabel11042409523D

 33 35  0  0  1  0  0  0  0  0999 V2000
  187.2970  177.6530  144.9380 C   0  0  0  0  0  0  0  0  0  0  0  0
  190.2560  177.2320  139.9510 C   0  0  0  0  0  1  0  0  0  0  0  0
  189.7110  177.2980  141.3310 C   0  0  0  0  0  0  0  0  0  0  0  0
  186.0860  177.7970  144.4280 C   0  0  0  0  0  0  0  0  0  0  0  0
  188.3090  177.5200  141.5230 N   0  0  0  0  0  2  0  0  0  0  0  0
  186.1780  177.8290  142.9330 C   0  0  2  0  0  3  0  0  0  0  0  0
  187.6530  177.6180  142.7920 C   0  0  0  0  0  0  0  0  0  0  0  0
  188.2780  177.5260  143.9220 N   0  0  0  0  0  0  0  0  0  0  0  0
  190.4880  177.1580  142.3120 O   0  0  0  0  0  0  0  0  0  0  0  0
  184.9230  177.8700  145.1970 O   0  0  0  0  0  0  0  0  0  0  0  0
  184.2100  179.0830  145.3760 C   0  0  0  0  0  1  0  0  0  0  0  0
  185.8200  179.2120  142.4120 C   0  0  0  0  0  2  0  0  0  0  0  0
  184.7230  179.1100  141.4110 C   0  0  0  0  0  3  0  0  0  0  0  0
  183.6430  178.3800  141.6760 C   0  0  0  0  0  3  0  0  0  0  0  0
  183.6670  177.0970  137.5140 C   0  0  0  0  0  0  0  0  0  0  0  0
  183.0780  178.3050  139.3750 C   0  0  0  0  0  0  0  0  0  0  0  0
  182.6590  177.0600  139.9820 C   0  0  0  0  0  0  0  0  0  0  0  0
  182.5450  178.2720  140.6740 C   0  0  1  0  0  3  0  0  0  0  0  0
  183.2870  174.5370  137.4960 C   0  0  0  0  0  1  0  0  0  0  0  0
  183.6020  178.4100  138.1300 C   0  0  0  0  0  3  0  0  0  0  0  0
  182.6900  175.8290  139.4970 N   0  0  0  0  0  0  0  0  0  0  0  0
  183.2170  175.8470  138.2060 C   0  0  0  0  0  0  0  0  0  0  0  0
  185.6370  176.7540  135.9370 N   0  0  0  0  0  2  0  0  0  0  0  0
  184.2480  177.0260  136.1530 C   0  0  0  0  0  0  0  0  0  0  0  0
  183.5050  177.1900  135.1480 O   0  0  0  0  0  0  0  0  0  0  0  0
  186.5670  176.7250  136.9840 N   0  0  0  0  0  1  0  0  0  0  0  0
  187.6040  177.5170  146.3940 C   0  0  0  0  0  2  0  0  0  0  0  0
  189.0150  178.0000  146.6920 C   0  0  0  0  0  2  0  0  0  0  0  0
  189.8940  176.8650  146.9120 N   0  0  0  0  0  2  0  0  0  0  0  0
  190.8930  176.9000  145.8610 C   0  0  0  0  0  2  0  0  0  0  0  0
  192.0570  176.0070  146.2440 C   0  0  0  0  0  2  0  0  0  0  0  0
  192.8110  176.4260  148.4690 O   0  0  0  0  0  1  0  0  0  0  0  0
  191.9640  175.6210  147.7080 C   0  0  0  0  0  2  0  0  0  0  0  0
  1 27  1  0  0  0  0
  2  3  1  0  0  0  0
  3  5  1  0  0  0  0
  3  9  2  0  0  0  0
  4  1  2  0  0  0  0
  4 10  1  0  0  0  0
  5  7  1  0  0  0  0
  6 12  1  1  0  0  0
  6  4  1  0  0  0  0
  7  6  1  0  0  0  0
  7  8  2  0  0  0  0
  8  1  1  0  0  0  0
 10 11  1  0  0  0  0
 13 14  2  0  0  0  0
 13 12  1  0  0  0  0
 15 20  2  0  0  0  0
 15 22  1  0  0  0  0
 16 17  2  0  0  0  0
 16 18  1  0  0  0  0
 17 18  1  0  0  0  0
 18 14  1  1  0  0  0
 19 22  1  0  0  0  0
 20 16  1  0  0  0  0
 21 17  1  0  0  0  0
 22 21  2  0  0  0  0
 23 24  1  0  0  0  0
 23 26  1  0  0  0  0
 24 15  1  0  0  0  0
 25 24  2  0  0  0  0
 27 28  1  0  0  0  0
 28 29  1  0  0  0  0
 30 31  1  0  0  0  0
 30 29  1  0  0  0  0
 31 33  1  0  0  0  0
 33 32  1  0  0  0  0
M  END
>  <MODEL>
8

>  <REMARK>
 VINA RESULT:      -7.5      3.676      7.256
  Name = 
  11 active torsions:
  status: ('A' for Active; 'I' for Inactive)
    1  A    between atoms: O_1  and  C_16
    2  A    between atoms: C_3  and  C_6
    3  A    between atoms: C_5  and  N_12
    4  A    between atoms: C_5  and  C_19
    5  A    between atoms: C_7  and  C_21
    6  A    between atoms: C_11  and  C_15
    7  A    between atoms: N_12  and  C_33
    8  A    between atoms: C_13  and  C_14
    9  A    between atoms: C_15  and  C_20
   10  A    between atoms: C_19  and  C_32
   11  A    between atoms: C_21  and  C_33
                            x       y       z     vdW  Elec       q    Type
                         _______ _______ _______ _____ _____    ______ ____

>  <TORSDO>
F 11

$$$$
=
 OpenBabel11042409523D

 33 35  0  0  1  0  0  0  0  0999 V2000
  187.3510  177.8240  144.0020 C   0  0  0  0  0  0  0  0  0  0  0  0
  184.4220  179.1570  139.1600 C   0  0  0  0  0  1  0  0  0  0  0  0
  185.3640  178.8120  140.2560 C   0  0  0  0  0  0  0  0  0  0  0  0
  186.3220  177.7390  144.8280 C   0  0  0  0  0  0  0  0  0  0  0  0
  184.8580  178.6170  141.5810 N   0  0  0  0  0  2  0  0  0  0  0  0
  185.0630  178.0780  144.0910 C   0  0  2  0  0  3  0  0  0  0  0  0
  185.6500  178.2940  142.7300 C   0  0  0  0  0  0  0  0  0  0  0  0
  186.9360  178.1570  142.6880 N   0  0  0  0  0  0  0  0  0  0  0  0
  186.5920  178.6970  140.0040 O   0  0  0  0  0  0  0  0  0  0  0  0
  186.4300  177.3550  146.1660 O   0  0  0  0  0  0  0  0  0  0  0  0
  186.7060  178.2860  147.2000 C   0  0  0  0  0  1  0  0  0  0  0  0
  184.4900  179.3920  144.6010 C   0  0  0  0  0  2  0  0  0  0  0  0
  183.2680  179.7460  143.8300 C   0  0  0  0  0  3  0  0  0  0  0  0
  182.1590  179.0230  143.9660 C   0  0  0  0  0  3  0  0  0  0  0  0
  180.6490  177.5500  140.1560 C   0  0  0  0  0  0  0  0  0  0  0  0
  181.1120  179.0400  141.8390 C   0  0  0  0  0  0  0  0  0  0  0  0
  180.3280  178.2030  142.7210 C   0  0  0  0  0  0  0  0  0  0  0  0
  180.9340  179.3730  143.1930 C   0  0  1  0  0  3  0  0  0  0  0  0
  179.1630  175.4930  140.6610 C   0  0  0  0  0  1  0  0  0  0  0  0
  181.3260  178.7800  140.5280 C   0  0  0  0  0  3  0  0  0  0  0  0
  179.6880  177.0720  142.4670 N   0  0  0  0  0  0  0  0  0  0  0  0
  179.8560  176.7300  141.1260 C   0  0  0  0  0  0  0  0  0  0  0  0
  181.7830  176.1200  138.3790 N   0  0  0  0  0  2  0  0  0  0  0  0
  180.8070  177.1000  138.7530 C   0  0  0  0  0  0  0  0  0  0  0  0
  180.0550  177.5700  137.8580 O   0  0  0  0  0  0  0  0  0  0  0  0
  182.7680  175.6670  139.2660 N   0  0  0  0  0  1  0  0  0  0  0  0
  188.7650  177.4990  144.3570 C   0  0  0  0  0  2  0  0  0  0  0  0
  189.5130  176.9660  143.1460 C   0  0  0  0  0  2  0  0  0  0  0  0
  190.9180  177.3220  143.2310 N   0  0  0  0  0  2  0  0  0  0  0  0
  191.2550  177.3630  144.6410 C   0  0  0  0  0  2  0  0  0  0  0  0
  191.6760  175.9810  145.0990 C   0  0  0  0  0  2  0  0  0  0  0  0
  191.0590  176.6590  147.3020 O   0  0  0  0  0  1  0  0  0  0  0  0
  192.0500  176.0050  146.5690 C   0  0  0  0  0  2  0  0  0  0  0  0
  1 27  1  0  0  0  0
  1  4  2  0  0  0  0
  2  3  1  0  0  0  0
  3  5  1  0  0  0  0
  4 10  1  0  0  0  0
  5  7  1  0  0  0  0
  6 12  1  1  0  0  0
  6  4  1  0  0  0  0
  7  6  1  0  0  0  0
  8  7  2  0  0  0  0
  8  1  1  0  0  0  0
  9  3  2  0  0  0  0
 10 11  1  0  0  0  0
 13 14  2  0  0  0  0
 13 12  1  0  0  0  0
 15 20  2  0  0  0  0
 15 22  1  0  0  0  0
 16 17  2  0  0  0  0
 16 18  1  0  0  0  0
 17 18  1  0  0  0  0
 18 14  1  1  0  0  0
 19 22  1  0  0  0  0
 20 16  1  0  0  0  0
 21 17  1  0  0  0  0
 22 21  2  0  0  0  0
 23 24  1  0  0  0  0
 23 26  1  0  0  0  0
 24 15  1  0  0  0  0
 25 24  2  0  0  0  0
 28 29  1  0  0  0  0
 28 27  1  0  0  0  0
 29 30  1  0  0  0  0
 30 31  1  0  0  0  0
 31 33  1  0  0  0  0
 33 32  1  0  0  0  0
M  END
>  <MODEL>
9

>  <REMARK>
 VINA RESULT:      -7.4      4.626      9.111
  Name = 
  11 active torsions:
  status: ('A' for Active; 'I' for Inactive)
    1  A    between atoms: O_1  and  C_16
    2  A    between atoms: C_3  and  C_6
    3  A    between atoms: C_5  and  N_12
    4  A    between atoms: C_5  and  C_19
    5  A    between atoms: C_7  and  C_21
    6  A    between atoms: C_11  and  C_15
    7  A    between atoms: N_12  and  C_33
    8  A    between atoms: C_13  and  C_14
    9  A    between atoms: C_15  and  C_20
   10  A    between atoms: C_19  and  C_32
   11  A    between atoms: C_21  and  C_33
                            x       y       z     vdW  Elec       q    Type
                         _______ _______ _______ _____ _____    ______ ____

>  <TORSDO>
F 11

$$$$
