=
 OpenBabel11042409563D

 66 72  0  0  1  0  0  0  0  0999 V2000
  193.6120  174.8880  136.4490 C   0  0  0  0  0  0  0  0  0  0  0  0
  190.9660  177.5310  139.3830 C   0  0  0  0  0  2  0  0  0  0  0  0
  192.7900  175.9190  136.7210 N   0  0  0  0  0  0  0  0  0  0  0  0
  189.8410  176.6810  139.8740 N   0  0  0  0  0  0  0  0  0  0  0  0
  192.8060  173.8200  136.0660 C   0  0  0  0  0  0  0  0  0  0  0  0
  191.5470  175.5120  136.4890 C   0  0  0  0  0  0  0  0  0  0  0  0
  189.2840  175.6340  139.0860 N   0  0  0  0  0  2  0  0  0  0  0  0
  195.0760  174.8560  136.7360 C   0  0  0  0  0  1  0  0  0  0  0  0
  191.4940  174.2160  136.0980 N   0  0  0  0  0  0  0  0  0  0  0  0
  191.4590  177.0890  138.0330 C   0  0  0  0  0  0  0  0  0  0  0  0
  190.6530  176.2940  137.2240 C   0  0  0  0  0  0  0  0  0  0  0  0
  190.3290  173.3290  136.1380 C   0  0  0  0  0  1  0  0  0  0  0  0
  192.7760  176.8740  137.6680 C   0  0  0  0  0  0  0  0  0  0  0  0
  189.2560  176.0770  137.6990 C   0  0  1  0  0  3  0  0  0  0  0  0
  193.8420  171.8810  136.9340 F   0  0  0  0  0  0  0  0  0  0  0  0
  192.2370  171.6290  135.3750 F   0  0  0  0  0  0  0  0  0  0  0  0
  193.2940  172.4200  135.7830 C   0  0  0  0  0  0  0  0  0  0  0  0
  194.2550  172.4060  134.7870 F   0  0  0  0  0  0  0  0  0  0  0  0
  193.8880  177.1640  138.5120 N   0  0  0  0  0  2  0  0  0  0  0  0
  193.8780  176.7820  139.8090 O   0  0  0  0  0  1  0  0  0  0  0  0
  189.3950  176.8060  141.2380 C   0  0  0  0  0  0  0  0  0  0  0  0
  189.9870  176.0760  142.1860 C   0  0  0  0  0  2  0  0  0  0  0  0
  188.1900  178.8420  141.0160 O   0  0  0  0  0  0  0  0  0  0  0  0
  188.3090  177.7500  141.6160 C   0  0  0  0  0  0  0  0  0  0  0  0
  187.1960  177.4140  142.9860 S   0  0  0  0  0  0  0  0  0  0  0  0
  187.9780  178.6760  144.0490 C   0  0  0  0  0  2  0  0  0  0  0  0
  192.3180  178.3600  145.0030 O   0  0  0  0  0  1  0  0  0  0  0  0
  191.0200  176.3850  145.6690 C   0  0  1  0  0  3  0  0  0  0  0  0
  189.6900  176.0600  146.2050 N   0  0  0  0  0  2  0  0  0  0  0  0
  191.0530  177.7630  144.9730 C   0  0  1  0  0  3  0  0  0  0  0  0
  188.5690  178.1050  145.3530 C   0  0  2  0  0  0  0  0  0  0  0  0
  192.0300  176.2900  146.8020 C   0  0  0  0  0  1  0  0  0  0  0  0
  189.9830  178.7010  145.5270 C   0  0  0  0  0  2  0  0  0  0  0  0
  188.6290  176.5570  145.3110 C   0  0  0  0  0  2  0  0  0  0  0  0
  187.7180  178.5040  146.5470 C   0  0  0  0  0  0  0  0  0  0  0  0
  188.2750  178.6410  147.6730 O   0  0  0  0  0  0  0  0  0  0  0  0
  185.3640  177.5630  146.9920 C   0  0  0  0  0  1  0  0  0  0  0  0
  185.7240  179.6680  145.9500 O   0  0  0  0  0  0  0  0  0  0  0  0
  186.2470  178.6430  146.4680 C   0  0  0  0  0  0  0  0  0  0  0  0
  188.2890  175.3150  136.7980 C   0  0  2  0  0  3  0  0  0  0  0  0
  187.7210  176.1310  135.7560 O   0  0  0  0  0  0  0  0  0  0  0  0
  186.3770  176.5330  135.6850 C   0  0  0  0  0  0  0  0  0  0  0  0
  185.7390  176.4700  134.5940 O   0  0  0  0  0  0  0  0  0  0  0  0
  181.0950  177.3430  138.1670 C   0  0  2  0  0  3  0  0  0  0  0  0
  185.6380  176.9390  136.9250 C   0  0  1  0  0  3  0  0  0  0  0  0
  185.3560  178.6540  138.7210 C   0  0  0  0  0  3  0  0  0  0  0  0
  182.5690  176.9510  140.6660 O   0  0  0  0  0  1  0  0  0  0  0  0
  182.1660  178.2620  140.3390 C   0  0  2  0  0  0  0  0  0  0  0  0
  180.9510  178.2190  139.4100 C   0  0  0  0  0  2  0  0  0  0  0  0
  186.2270  178.2010  137.5730 C   0  0  0  0  0  2  0  0  0  0  0  0
  184.1680  177.1570  136.6440 C   0  0  0  0  0  3  0  0  0  0  0  0
  183.2620  178.9710  139.7510 O   0  0  0  0  0  0  0  0  0  0  0  0
  183.4120  177.8520  137.4920 C   0  0  0  0  0  0  0  0  0  0  0  0
  181.9810  178.0730  137.1550 C   0  0  0  0  0  2  0  0  0  0  0  0
  184.0250  178.5050  138.6730 C   0  0  0  0  0  0  0  0  0  0  0  0
  181.7330  179.0100  141.6070 C   0  0  2  0  0  3  0  0  0  0  0  0
  182.7700  178.9750  142.7070 C   0  0  0  0  0  2  0  0  0  0  0  0
  182.1470  178.7060  143.9420 O   0  0  0  0  0  0  0  0  0  0  0  0
  180.4960  178.4490  142.2480 C   0  0  0  0  0  2  0  0  0  0  0  0
  180.7550  178.6550  143.7150 C   0  0  0  0  0  2  0  0  0  0  0  0
  179.5920  175.7390  137.1830 C   0  0  0  0  0  1  0  0  0  0  0  0
  179.7520  177.1290  137.6240 N   0  0  0  0  0  2  0  0  0  0  0  0
  187.3100  174.5860  137.5050 O   0  0  0  0  0  0  0  0  0  0  0  0
  185.8080  172.8950  137.3680 C   0  0  0  0  0  1  0  0  0  0  0  0
  186.9500  173.5300  136.7280 N   0  0  0  0  0  0  0  0  0  0  0  0
  188.0460  172.5780  136.7980 C   0  0  0  0  0  1  0  0  0  0  0  0
  1  3  1  0  0  0  0
  1  8  1  0  0  0  0
  2  4  1  0  0  0  0
  3 13  1  0  0  0  0
  4 21  1  0  0  0  0
  5  9  1  0  0  0  0
  5  1  2  0  0  0  0
  6  3  1  0  0  0  0
  6 11  2  0  0  0  0
  7  4  1  0  0  0  0
  9 12  1  0  0  0  0
  9  6  1  0  0  0  0
 10  2  1  0  0  0  0
 11 14  1  0  0  0  0
 11 10  1  0  0  0  0
 13 10  2  0  0  0  0
 13 19  1  0  0  0  0
 14 40  1  6  0  0  0
 14  7  1  0  0  0  0
 16 17  1  0  0  0  0
 17  5  1  0  0  0  0
 17 15  1  0  0  0  0
 18 17  1  0  0  0  0
 19 20  1  0  0  0  0
 21 24  1  0  0  0  0
 21 22  2  0  0  0  0
 23 24  2  0  0  0  0
 24 25  1  0  0  0  0
 25 26  1  0  0  0  0
 28 29  1  0  0  0  0
 28 32  1  1  0  0  0
 30 27  1  1  0  0  0
 30 33  1  0  0  0  0
 30 28  1  0  0  0  0
 31 26  1  6  0  0  0
 31 33  1  0  0  0  0
 31 35  1  0  0  0  0
 34 31  1  0  0  0  0
 34 29  1  0  0  0  0
 35 36  2  0  0  0  0
 38 39  2  0  0  0  0
 39 35  1  0  0  0  0
 39 37  1  0  0  0  0
 40 41  1  6  0  0  0
 40 63  1  0  0  0  0
 42 41  1  0  0  0  0
 43 42  2  0  0  0  0
 44 62  1  6  0  0  0
 44 49  1  0  0  0  0
 45 42  1  6  0  0  0
 45 50  1  0  0  0  0
 48 47  1  1  0  0  0
 48 56  1  0  0  0  0
 49 48  1  0  0  0  0
 50 46  1  0  0  0  0
 51 45  1  0  0  0  0
 51 53  2  0  0  0  0
 52 48  1  0  0  0  0
 53 55  1  0  0  0  0
 54 53  1  0  0  0  0
 54 44  1  0  0  0  0
 55 46  2  0  0  0  0
 55 52  1  0  0  0  0
 56 59  1  1  0  0  0
 56 57  1  0  0  0  0
 57 58  1  0  0  0  0
 59 60  1  0  0  0  0
 60 58  1  0  0  0  0
 61 62  1  0  0  0  0
 65 66  1  0  0  0  0
 65 64  1  0  0  0  0
 65 63  1  0  0  0  0
M  END
>  <MODEL>
1

>  <REMARK>
 VINA RESULT:      -5.1      0.000      0.000
  Name = 
  17 active torsions:
  status: ('A' for Active; 'I' for Inactive)
    1  A    between atoms: C_1  and  N_46
    2  A    between atoms: C_5  and  N_22
    3  A    between atoms: C_5  and  C_66
    4  A    between atoms: C_6  and  O_35
    5  A    between atoms: C_6  and  C_62
    6  A    between atoms: C_6  and  O_65
    7  A    between atoms: C_7  and  C_27
    8  A    between atoms: N_9  and  C_61
    9  A    between atoms: C_10  and  C_43
   10  A    between atoms: C_10  and  C_47
   11  A    between atoms: C_11  and  C_43
   12  A    between atoms: C_11  and  S_58
   13  A    between atoms: C_13  and  C_25
   14  A    between atoms: C_24  and  C_32
   15  A    between atoms: C_25  and  O_35
   16  A    between atoms: N_41  and  O_65
   17  A    between atoms: S_58  and  C_66
                            x       y       z     vdW  Elec       q    Type
                         _______ _______ _______ _____ _____    ______ ____

>  <TORSDO>
F 17

$$$$
=
 OpenBabel11042409563D

 66 72  0  0  1  0  0  0  0  0999 V2000
  194.0010  174.5310  137.5300 C   0  0  0  0  0  0  0  0  0  0  0  0
  191.7110  177.4390  140.5130 C   0  0  0  0  0  2  0  0  0  0  0  0
  193.5060  175.7290  137.8920 N   0  0  0  0  0  0  0  0  0  0  0  0
  190.2930  176.9780  140.6010 N   0  0  0  0  0  0  0  0  0  0  0  0
  193.0130  173.8950  136.7830 C   0  0  0  0  0  0  0  0  0  0  0  0
  192.2900  175.8340  137.3690 C   0  0  0  0  0  0  0  0  0  0  0  0
  189.6370  176.3390  139.5120 N   0  0  0  0  0  2  0  0  0  0  0  0
  195.2700  173.9340  138.0410 C   0  0  0  0  0  1  0  0  0  0  0  0
  191.9240  174.7220  136.6870 N   0  0  0  0  0  0  0  0  0  0  0  0
  192.3420  177.0710  139.1980 C   0  0  0  0  0  0  0  0  0  0  0  0
  191.5400  176.7550  138.1050 C   0  0  0  0  0  0  0  0  0  0  0  0
  190.5630  174.3140  136.3290 C   0  0  0  0  0  1  0  0  0  0  0  0
  193.5720  176.4630  139.0180 C   0  0  0  0  0  0  0  0  0  0  0  0
  190.0760  176.9780  138.2800 C   0  0  1  0  0  3  0  0  0  0  0  0
  193.8300  171.7080  137.1500 F   0  0  0  0  0  0  0  0  0  0  0  0
  191.8150  171.9470  136.1740 F   0  0  0  0  0  0  0  0  0  0  0  0
  193.0880  172.4770  136.2710 C   0  0  0  0  0  0  0  0  0  0  0  0
  193.6790  172.4170  135.0210 F   0  0  0  0  0  0  0  0  0  0  0  0
  194.4870  176.1990  140.0780 N   0  0  0  0  0  2  0  0  0  0  0  0
  195.4980  177.0580  140.3370 O   0  0  0  0  0  1  0  0  0  0  0  0
  189.6030  177.0350  141.8640 C   0  0  0  0  0  0  0  0  0  0  0  0
  188.4720  176.3430  142.0210 C   0  0  0  0  0  2  0  0  0  0  0  0
  189.9420  179.0640  143.0540 O   0  0  0  0  0  0  0  0  0  0  0  0
  190.1360  177.8280  143.0040 C   0  0  0  0  0  0  0  0  0  0  0  0
  191.1450  177.0800  144.2900 S   0  0  0  0  0  0  0  0  0  0  0  0
  190.5670  178.2600  145.5570 C   0  0  0  0  0  2  0  0  0  0  0  0
  186.2470  177.6420  144.6620 O   0  0  0  0  0  1  0  0  0  0  0  0
  186.6680  178.5200  146.9170 C   0  0  1  0  0  3  0  0  0  0  0  0
  187.6580  178.3820  147.9950 N   0  0  0  0  0  2  0  0  0  0  0  0
  187.2330  178.1040  145.5420 C   0  0  1  0  0  3  0  0  0  0  0  0
  189.5290  177.6660  146.5270 C   0  0  2  0  0  0  0  0  0  0  0  0
  185.4320  177.7190  147.2960 C   0  0  0  0  0  1  0  0  0  0  0  0
  188.3700  177.0940  145.6810 C   0  0  0  0  0  2  0  0  0  0  0  0
  189.0070  178.7380  147.5170 C   0  0  0  0  0  2  0  0  0  0  0  0
  190.1400  176.5400  147.3450 C   0  0  0  0  0  0  0  0  0  0  0  0
  189.3890  175.6140  147.7640 O   0  0  0  0  0  0  0  0  0  0  0  0
  192.4490  175.4030  147.3590 C   0  0  0  0  0  1  0  0  0  0  0  0
  192.0380  177.4730  148.4480 O   0  0  0  0  0  0  0  0  0  0  0  0
  191.5630  176.5330  147.7540 C   0  0  0  0  0  0  0  0  0  0  0  0
  189.1590  176.7640  137.0790 C   0  0  2  0  0  3  0  0  0  0  0  0
  188.4960  175.4860  137.0910 O   0  0  0  0  0  0  0  0  0  0  0  0
  187.1970  175.2430  136.6150 C   0  0  0  0  0  0  0  0  0  0  0  0
  187.0050  174.5070  135.6040 O   0  0  0  0  0  0  0  0  0  0  0  0
  181.3160  175.3060  136.9640 C   0  0  2  0  0  3  0  0  0  0  0  0
  186.0030  175.7600  137.3620 C   0  0  1  0  0  3  0  0  0  0  0  0
  184.8330  177.7580  138.3020 C   0  0  0  0  0  3  0  0  0  0  0  0
  181.8120  175.9780  139.7700 O   0  0  0  0  0  1  0  0  0  0  0  0
  181.3690  177.0070  138.9160 C   0  0  2  0  0  0  0  0  0  0  0  0
  180.5980  176.4130  137.7350 C   0  0  0  0  0  2  0  0  0  0  0  0
  186.1210  177.2560  137.6940 C   0  0  0  0  0  2  0  0  0  0  0  0
  184.7240  175.5140  136.5950 C   0  0  0  0  0  3  0  0  0  0  0  0
  182.4860  177.7910  138.4830 O   0  0  0  0  0  0  0  0  0  0  0  0
  183.6160  176.1920  136.8900 C   0  0  0  0  0  0  0  0  0  0  0  0
  182.3920  175.9440  136.0830 C   0  0  0  0  0  2  0  0  0  0  0  0
  183.6510  177.2670  137.9090 C   0  0  0  0  0  0  0  0  0  0  0  0
  180.3950  177.9280  139.6650 C   0  0  2  0  0  3  0  0  0  0  0  0
  180.9850  179.2800  139.9980 C   0  0  0  0  0  2  0  0  0  0  0  0
  180.6570  179.6310  141.3230 O   0  0  0  0  0  0  0  0  0  0  0  0
  179.9470  177.3850  140.9910 C   0  0  0  0  0  2  0  0  0  0  0  0
  179.8110  178.6230  141.8330 C   0  0  0  0  0  2  0  0  0  0  0  0
  178.9630  175.0740  136.5050 C   0  0  0  0  0  1  0  0  0  0  0  0
  180.3120  174.6220  136.1460 N   0  0  0  0  0  2  0  0  0  0  0  0
  189.7740  177.0380  135.8400 O   0  0  0  0  0  0  0  0  0  0  0  0
  188.7290  178.9410  136.4890 C   0  0  0  0  0  1  0  0  0  0  0  0
  189.2130  178.1750  135.3500 N   0  0  0  0  0  0  0  0  0  0  0  0
  188.0380  177.7620  134.6010 C   0  0  0  0  0  1  0  0  0  0  0  0
  1  3  1  0  0  0  0
  1  8  1  0  0  0  0
  2  4  1  0  0  0  0
  3 13  1  0  0  0  0
  4 21  1  0  0  0  0
  5  1  2  0  0  0  0
  6  3  1  0  0  0  0
  6 11  2  0  0  0  0
  7  4  1  0  0  0  0
  9  5  1  0  0  0  0
  9  6  1  0  0  0  0
 10  2  1  0  0  0  0
 11 14  1  0  0  0  0
 11 10  1  0  0  0  0
 12  9  1  0  0  0  0
 13 10  2  0  0  0  0
 13 19  1  0  0  0  0
 14 40  1  6  0  0  0
 14  7  1  0  0  0  0
 16 17  1  0  0  0  0
 17  5  1  0  0  0  0
 17 15  1  0  0  0  0
 18 17  1  0  0  0  0
 19 20  1  0  0  0  0
 21 22  2  0  0  0  0
 21 24  1  0  0  0  0
 24 23  2  0  0  0  0
 24 25  1  0  0  0  0
 25 26  1  0  0  0  0
 28 32  1  1  0  0  0
 28 29  1  0  0  0  0
 30 27  1  6  0  0  0
 30 33  1  0  0  0  0
 30 28  1  0  0  0  0
 31 26  1  6  0  0  0
 31 35  1  0  0  0  0
 31 34  1  0  0  0  0
 33 31  1  0  0  0  0
 34 29  1  0  0  0  0
 35 39  1  0  0  0  0
 35 36  2  0  0  0  0
 37 39  1  0  0  0  0
 39 38  2  0  0  0  0
 40 63  1  6  0  0  0
 40 41  1  0  0  0  0
 42 41  1  0  0  0  0
 43 42  2  0  0  0  0
 44 62  1  6  0  0  0
 44 49  1  0  0  0  0
 45 42  1  6  0  0  0
 45 50  1  0  0  0  0
 48 56  1  0  0  0  0
 48 47  1  1  0  0  0
 49 48  1  0  0  0  0
 50 46  1  0  0  0  0
 51 53  2  0  0  0  0
 51 45  1  0  0  0  0
 52 48  1  0  0  0  0
 53 55  1  0  0  0  0
 54 53  1  0  0  0  0
 54 44  1  0  0  0  0
 55 46  2  0  0  0  0
 55 52  1  0  0  0  0
 56 57  1  1  0  0  0
 56 59  1  0  0  0  0
 57 58  1  0  0  0  0
 58 60  1  0  0  0  0
 59 60  1  0  0  0  0
 62 61  1  0  0  0  0
 65 63  1  0  0  0  0
 65 64  1  0  0  0  0
 66 65  1  0  0  0  0
M  END
>  <MODEL>
2

>  <REMARK>
 VINA RESULT:      -4.9      1.811      3.035
  Name = 
  17 active torsions:
  status: ('A' for Active; 'I' for Inactive)
    1  A    between atoms: C_1  and  N_46
    2  A    between atoms: C_5  and  N_22
    3  A    between atoms: C_5  and  C_66
    4  A    between atoms: C_6  and  O_35
    5  A    between atoms: C_6  and  C_62
    6  A    between atoms: C_6  and  O_65
    7  A    between atoms: C_7  and  C_27
    8  A    between atoms: N_9  and  C_61
    9  A    between atoms: C_10  and  C_43
   10  A    between atoms: C_10  and  C_47
   11  A    between atoms: C_11  and  C_43
   12  A    between atoms: C_11  and  S_58
   13  A    between atoms: C_13  and  C_25
   14  A    between atoms: C_24  and  C_32
   15  A    between atoms: C_25  and  O_35
   16  A    between atoms: N_41  and  O_65
   17  A    between atoms: S_58  and  C_66
                            x       y       z     vdW  Elec       q    Type
                         _______ _______ _______ _____ _____    ______ ____

>  <TORSDO>
F 17

$$$$
=
 OpenBabel11042409563D

 66 72  0  0  1  0  0  0  0  0999 V2000
  193.6240  173.7750  135.4630 C   0  0  0  0  0  0  0  0  0  0  0  0
  191.7080  177.1770  138.1740 C   0  0  0  0  0  2  0  0  0  0  0  0
  192.9290  174.9140  135.6450 N   0  0  0  0  0  0  0  0  0  0  0  0
  190.6370  176.5500  139.0050 N   0  0  0  0  0  0  0  0  0  0  0  0
  192.6990  172.7360  135.4440 C   0  0  0  0  0  0  0  0  0  0  0  0
  191.6420  174.5920  135.7040 C   0  0  0  0  0  0  0  0  0  0  0  0
  189.8870  175.4300  138.5500 N   0  0  0  0  0  2  0  0  0  0  0  0
  195.1110  173.6580  135.5110 C   0  0  0  0  0  1  0  0  0  0  0  0
  191.4400  173.2550  135.6040 N   0  0  0  0  0  0  0  0  0  0  0  0
  191.9260  176.4380  136.8830 C   0  0  0  0  0  0  0  0  0  0  0  0
  190.9420  175.5820  136.3960 C   0  0  0  0  0  0  0  0  0  0  0  0
  190.2480  172.5090  136.0140 C   0  0  0  0  0  1  0  0  0  0  0  0
  193.1420  176.0310  136.3630 C   0  0  0  0  0  0  0  0  0  0  0  0
  189.6400  175.5970  137.1250 C   0  0  1  0  0  3  0  0  0  0  0  0
  194.1730  171.0910  134.6020 F   0  0  0  0  0  0  0  0  0  0  0  0
  193.2940  170.7920  136.6550 F   0  0  0  0  0  0  0  0  0  0  0  0
  193.0420  171.2680  135.3810 C   0  0  0  0  0  0  0  0  0  0  0  0
  192.0090  170.5240  134.8370 F   0  0  0  0  0  0  0  0  0  0  0  0
  194.4010  176.3700  136.9390 N   0  0  0  0  0  2  0  0  0  0  0  0
  194.7420  175.9000  138.1600 O   0  0  0  0  0  1  0  0  0  0  0  0
  190.4490  176.9790  140.3670 C   0  0  0  0  0  0  0  0  0  0  0  0
  191.4890  176.9640  141.2040 C   0  0  0  0  0  2  0  0  0  0  0  0
  188.4800  178.2970  140.1840 O   0  0  0  0  0  0  0  0  0  0  0  0
  189.1280  177.4610  140.8530 C   0  0  0  0  0  0  0  0  0  0  0  0
  188.4570  176.9470  142.4390 S   0  0  0  0  0  0  0  0  0  0  0  0
  189.6620  177.9480  143.3760 C   0  0  0  0  0  2  0  0  0  0  0  0
  186.2900  176.9510  146.1110 O   0  0  0  0  0  1  0  0  0  0  0  0
  188.0440  178.3070  147.1670 C   0  0  1  0  0  3  0  0  0  0  0  0
  189.5070  178.4480  147.1370 N   0  0  0  0  0  2  0  0  0  0  0  0
  187.4910  177.6350  145.8920 C   0  0  1  0  0  3  0  0  0  0  0  0
  189.8010  177.5250  144.8510 C   0  0  2  0  0  0  0  0  0  0  0  0
  187.6620  177.5480  148.4280 C   0  0  0  0  0  1  0  0  0  0  0  0
  188.5320  176.7320  145.2330 C   0  0  0  0  0  2  0  0  0  0  0  0
  189.9760  178.7580  145.7740 C   0  0  0  0  0  2  0  0  0  0  0  0
  191.0140  176.6290  145.0410 C   0  0  0  0  0  0  0  0  0  0  0  0
  191.4930  176.0310  144.0360 O   0  0  0  0  0  0  0  0  0  0  0  0
  191.7420  174.9440  146.8450 C   0  0  0  0  0  1  0  0  0  0  0  0
  191.9730  177.2930  147.1210 O   0  0  0  0  0  0  0  0  0  0  0  0
  191.5990  176.3490  146.3720 C   0  0  0  0  0  0  0  0  0  0  0  0
  188.4840  174.7720  136.5680 C   0  0  2  0  0  3  0  0  0  0  0  0
  187.7660  175.4390  135.5130 O   0  0  0  0  0  0  0  0  0  0  0  0
  186.4040  175.7780  135.5500 C   0  0  0  0  0  0  0  0  0  0  0  0
  185.6340  175.4690  134.5940 O   0  0  0  0  0  0  0  0  0  0  0  0
  181.5980  176.3230  138.9140 C   0  0  2  0  0  3  0  0  0  0  0  0
  185.8100  176.4130  136.7720 C   0  0  1  0  0  3  0  0  0  0  0  0
  185.4140  178.5270  138.0430 C   0  0  0  0  0  3  0  0  0  0  0  0
  183.5300  177.0430  140.9930 O   0  0  0  0  0  1  0  0  0  0  0  0
  182.7570  178.0770  140.4270 C   0  0  2  0  0  0  0  0  0  0  0  0
  181.4510  177.5080  139.8680 C   0  0  0  0  0  2  0  0  0  0  0  0
  186.1610  177.9040  136.8880 C   0  0  0  0  0  2  0  0  0  0  0  0
  184.3070  176.2450  136.8060 C   0  0  0  0  0  3  0  0  0  0  0  0
  183.5180  178.7550  139.4210 O   0  0  0  0  0  0  0  0  0  0  0  0
  183.5570  177.0190  137.5880 C   0  0  0  0  0  0  0  0  0  0  0  0
  182.0810  176.8440  137.5590 C   0  0  0  0  0  2  0  0  0  0  0  0
  184.1770  178.1210  138.3610 C   0  0  0  0  0  0  0  0  0  0  0  0
  182.3710  179.0970  141.5080 C   0  0  2  0  0  3  0  0  0  0  0  0
  182.6680  178.6210  142.9130 C   0  0  0  0  0  2  0  0  0  0  0  0
  181.5800  178.9170  143.7580 O   0  0  0  0  0  0  0  0  0  0  0  0
  180.9070  179.4280  141.5330 C   0  0  0  0  0  2  0  0  0  0  0  0
  180.6350  179.6400  142.9970 C   0  0  0  0  0  2  0  0  0  0  0  0
  179.9620  174.9310  140.0030 C   0  0  0  0  0  1  0  0  0  0  0  0
  180.2800  175.6950  138.7920 N   0  0  0  0  0  2  0  0  0  0  0  0
  187.6250  174.2570  137.5610 O   0  0  0  0  0  0  0  0  0  0  0  0
  187.4950  172.8500  135.7910 C   0  0  0  0  0  1  0  0  0  0  0  0
  187.3530  172.9670  137.2340 N   0  0  0  0  0  0  0  0  0  0  0  0
  185.9460  172.7550  137.5300 C   0  0  0  0  0  1  0  0  0  0  0  0
  1  8  1  0  0  0  0
  1  3  1  0  0  0  0
  2  4  1  0  0  0  0
  3  6  1  0  0  0  0
  3 13  1  0  0  0  0
  4 21  1  0  0  0  0
  5  1  2  0  0  0  0
  5  9  1  0  0  0  0
  6 11  2  0  0  0  0
  7  4  1  0  0  0  0
  9  6  1  0  0  0  0
  9 12  1  0  0  0  0
 10  2  1  0  0  0  0
 11 10  1  0  0  0  0
 11 14  1  0  0  0  0
 13 10  2  0  0  0  0
 13 19  1  0  0  0  0
 14 40  1  6  0  0  0
 14  7  1  0  0  0  0
 15 17  1  0  0  0  0
 17  5  1  0  0  0  0
 17 16  1  0  0  0  0
 18 17  1  0  0  0  0
 19 20  1  0  0  0  0
 21 24  1  0  0  0  0
 21 22  2  0  0  0  0
 23 24  2  0  0  0  0
 24 25  1  0  0  0  0
 25 26  1  0  0  0  0
 28 32  1  1  0  0  0
 29 28  1  0  0  0  0
 30 27  1  1  0  0  0
 30 28  1  0  0  0  0
 31 26  1  6  0  0  0
 31 35  1  0  0  0  0
 31 33  1  0  0  0  0
 31 34  1  0  0  0  0
 33 30  1  0  0  0  0
 34 29  1  0  0  0  0
 35 39  1  0  0  0  0
 36 35  2  0  0  0  0
 39 37  1  0  0  0  0
 39 38  2  0  0  0  0
 40 41  1  6  0  0  0
 40 63  1  0  0  0  0
 41 42  1  0  0  0  0
 43 42  2  0  0  0  0
 44 62  1  6  0  0  0
 44 49  1  0  0  0  0
 45 42  1  6  0  0  0
 45 51  1  0  0  0  0
 45 50  1  0  0  0  0
 46 55  2  0  0  0  0
 48 47  1  1  0  0  0
 48 56  1  0  0  0  0
 49 48  1  0  0  0  0
 50 46  1  0  0  0  0
 51 53  2  0  0  0  0
 52 48  1  0  0  0  0
 53 55  1  0  0  0  0
 54 53  1  0  0  0  0
 54 44  1  0  0  0  0
 55 52  1  0  0  0  0
 56 59  1  1  0  0  0
 56 57  1  0  0  0  0
 57 58  1  0  0  0  0
 59 60  1  0  0  0  0
 60 58  1  0  0  0  0
 62 61  1  0  0  0  0
 64 65  1  0  0  0  0
 65 66  1  0  0  0  0
 65 63  1  0  0  0  0
M  END
>  <MODEL>
3

>  <REMARK>
 VINA RESULT:      -4.8      1.319      2.436
  Name = 
  17 active torsions:
  status: ('A' for Active; 'I' for Inactive)
    1  A    between atoms: C_1  and  N_46
    2  A    between atoms: C_5  and  N_22
    3  A    between atoms: C_5  and  C_66
    4  A    between atoms: C_6  and  O_35
    5  A    between atoms: C_6  and  C_62
    6  A    between atoms: C_6  and  O_65
    7  A    between atoms: C_7  and  C_27
    8  A    between atoms: N_9  and  C_61
    9  A    between atoms: C_10  and  C_43
   10  A    between atoms: C_10  and  C_47
   11  A    between atoms: C_11  and  C_43
   12  A    between atoms: C_11  and  S_58
   13  A    between atoms: C_13  and  C_25
   14  A    between atoms: C_24  and  C_32
   15  A    between atoms: C_25  and  O_35
   16  A    between atoms: N_41  and  O_65
   17  A    between atoms: S_58  and  C_66
                            x       y       z     vdW  Elec       q    Type
                         _______ _______ _______ _____ _____    ______ ____

>  <TORSDO>
F 17

$$$$
=
 OpenBabel11042409563D

 66 72  0  0  1  0  0  0  0  0999 V2000
  190.1940  172.3080  134.7890 C   0  0  0  0  0  0  0  0  0  0  0  0
  190.9200  176.3580  137.1700 C   0  0  0  0  0  2  0  0  0  0  0  0
  190.2180  173.6500  134.8920 N   0  0  0  0  0  0  0  0  0  0  0  0
  189.9140  176.4260  138.2710 N   0  0  0  0  0  0  0  0  0  0  0  0
  188.9020  171.9010  135.1120 C   0  0  0  0  0  0  0  0  0  0  0  0
  188.9970  174.0470  135.2320 C   0  0  0  0  0  0  0  0  0  0  0  0
  188.6240  175.8360  138.1550 N   0  0  0  0  0  2  0  0  0  0  0  0
  191.3910  171.4380  134.5940 C   0  0  0  0  0  1  0  0  0  0  0  0
  188.1440  173.0070  135.4000 N   0  0  0  0  0  0  0  0  0  0  0  0
  190.4280  175.5400  136.0070 C   0  0  0  0  0  0  0  0  0  0  0  0
  189.0660  175.2950  135.8560 C   0  0  0  0  0  0  0  0  0  0  0  0
  186.8780  173.0140  136.1350 C   0  0  0  0  0  1  0  0  0  0  0  0
  191.1190  174.5320  135.3590 C   0  0  0  0  0  0  0  0  0  0  0  0
  188.1600  176.0260  136.7880 C   0  0  1  0  0  3  0  0  0  0  0  0
  187.2000  170.3240  134.6660 F   0  0  0  0  0  0  0  0  0  0  0  0
  189.3430  169.6340  134.5970 F   0  0  0  0  0  0  0  0  0  0  0  0
  188.4490  170.4680  135.2440 C   0  0  0  0  0  0  0  0  0  0  0  0
  188.3720  170.0760  136.5690 F   0  0  0  0  0  0  0  0  0  0  0  0
  192.4770  174.1990  135.6380 N   0  0  0  0  0  2  0  0  0  0  0  0
  193.4730  175.0440  135.2850 O   0  0  0  0  0  1  0  0  0  0  0  0
  190.2940  176.9670  139.5510 C   0  0  0  0  0  0  0  0  0  0  0  0
  191.5280  177.4510  139.7130 C   0  0  0  0  0  2  0  0  0  0  0  0
  189.0920  175.9870  141.3520 O   0  0  0  0  0  0  0  0  0  0  0  0
  189.3350  177.0200  140.6870 C   0  0  0  0  0  0  0  0  0  0  0  0
  188.4260  178.5160  141.0910 S   0  0  0  0  0  0  0  0  0  0  0  0
  187.2490  177.6210  142.1620 C   0  0  0  0  0  2  0  0  0  0  0  0
  191.1640  178.8090  143.9240 O   0  0  0  0  0  1  0  0  0  0  0  0
  190.0490  176.9930  145.1430 C   0  0  1  0  0  3  0  0  0  0  0  0
  188.6890  176.5790  145.5180 N   0  0  0  0  0  2  0  0  0  0  0  0
  190.0610  177.9490  143.9310 C   0  0  1  0  0  3  0  0  0  0  0  0
  187.5440  177.7740  143.6660 C   0  0  2  0  0  0  0  0  0  0  0  0
  190.7170  177.6050  146.3640 C   0  0  0  0  0  1  0  0  0  0  0  0
  188.7510  178.7270  143.8130 C   0  0  0  0  0  2  0  0  0  0  0  0
  187.8470  176.4020  144.3210 C   0  0  0  0  0  2  0  0  0  0  0  0
  186.3520  178.3790  144.3890 C   0  0  0  0  0  0  0  0  0  0  0  0
  185.4420  178.9300  143.7070 O   0  0  0  0  0  0  0  0  0  0  0  0
  184.9340  178.3200  146.5360 C   0  0  0  0  0  1  0  0  0  0  0  0
  187.2930  178.5940  146.5700 O   0  0  0  0  0  0  0  0  0  0  0  0
  186.2580  178.4360  145.8650 C   0  0  0  0  0  0  0  0  0  0  0  0
  186.6530  175.8910  136.5940 C   0  0  2  0  0  3  0  0  0  0  0  0
  185.9930  177.1520  136.3760 O   0  0  0  0  0  0  0  0  0  0  0  0
  185.8000  178.1440  137.3510 C   0  0  0  0  0  0  0  0  0  0  0  0
  186.5840  179.1330  137.4330 O   0  0  0  0  0  0  0  0  0  0  0  0
  180.4170  180.3150  138.3680 C   0  0  2  0  0  3  0  0  0  0  0  0
  184.5950  178.1090  138.2450 C   0  0  1  0  0  3  0  0  0  0  0  0
  183.7260  178.2380  140.5840 C   0  0  0  0  0  3  0  0  0  0  0  0
  180.0290  177.8000  139.8160 O   0  0  0  0  0  1  0  0  0  0  0  0
  180.2050  178.9750  140.5740 C   0  0  2  0  0  0  0  0  0  0  0  0
  179.7840  180.1950  139.7530 C   0  0  0  0  0  2  0  0  0  0  0  0
  184.9690  178.1160  139.7350 C   0  0  0  0  0  2  0  0  0  0  0  0
  183.6590  179.2600  137.9540 C   0  0  0  0  0  3  0  0  0  0  0  0
  181.5650  179.0690  141.0110 O   0  0  0  0  0  0  0  0  0  0  0  0
  182.7360  179.6220  138.8430 C   0  0  0  0  0  0  0  0  0  0  0  0
  181.8640  180.7860  138.5310 C   0  0  0  0  0  2  0  0  0  0  0  0
  182.6800  178.9640  140.1700 C   0  0  0  0  0  0  0  0  0  0  0  0
  179.3010  178.9390  141.8150 C   0  0  2  0  0  3  0  0  0  0  0  0
  179.0800  180.3020  142.4340 C   0  0  0  0  0  2  0  0  0  0  0  0
  179.1990  180.2140  143.8350 O   0  0  0  0  0  0  0  0  0  0  0  0
  179.8490  178.1080  142.9390 C   0  0  0  0  0  2  0  0  0  0  0  0
  179.3930  178.8550  144.1620 C   0  0  0  0  0  2  0  0  0  0  0  0
  179.0080  180.6580  136.4450 C   0  0  0  0  0  1  0  0  0  0  0  0
  179.6330  181.2930  137.6110 N   0  0  0  0  0  2  0  0  0  0  0  0
  186.0190  175.1180  137.5890 O   0  0  0  0  0  0  0  0  0  0  0  0
  184.1240  173.9280  137.9410 C   0  0  0  0  0  1  0  0  0  0  0  0
  184.6890  175.1140  137.3160 N   0  0  0  0  0  0  0  0  0  0  0  0
  184.5640  174.9230  135.8800 C   0  0  0  0  0  1  0  0  0  0  0  0
  1  3  1  0  0  0  0
  1  5  2  0  0  0  0
  2  4  1  0  0  0  0
  3  6  1  0  0  0  0
  3 13  1  0  0  0  0
  4 21  1  0  0  0  0
  5 17  1  0  0  0  0
  5  9  1  0  0  0  0
  6  9  1  0  0  0  0
  6 11  2  0  0  0  0
  7  4  1  0  0  0  0
  8  1  1  0  0  0  0
  9 12  1  0  0  0  0
 10  2  1  0  0  0  0
 11 10  1  0  0  0  0
 11 14  1  0  0  0  0
 13 19  1  0  0  0  0
 13 10  2  0  0  0  0
 14 40  1  1  0  0  0
 14  7  1  0  0  0  0
 15 17  1  0  0  0  0
 16 17  1  0  0  0  0
 17 18  1  0  0  0  0
 20 19  1  0  0  0  0
 21 22  2  0  0  0  0
 21 24  1  0  0  0  0
 24 25  1  0  0  0  0
 24 23  2  0  0  0  0
 25 26  1  0  0  0  0
 28 29  1  0  0  0  0
 28 32  1  1  0  0  0
 30 27  1  1  0  0  0
 30 28  1  0  0  0  0
 31 26  1  6  0  0  0
 31 33  1  0  0  0  0
 31 34  1  0  0  0  0
 31 35  1  0  0  0  0
 33 30  1  0  0  0  0
 34 29  1  0  0  0  0
 35 39  1  0  0  0  0
 36 35  2  0  0  0  0
 39 37  1  0  0  0  0
 39 38  2  0  0  0  0
 40 41  1  1  0  0  0
 40 63  1  0  0  0  0
 41 42  1  0  0  0  0
 42 43  2  0  0  0  0
 44 62  1  6  0  0  0
 44 54  1  0  0  0  0
 44 49  1  0  0  0  0
 45 42  1  6  0  0  0
 45 50  1  0  0  0  0
 48 47  1  6  0  0  0
 48 52  1  0  0  0  0
 48 56  1  0  0  0  0
 49 48  1  0  0  0  0
 50 46  1  0  0  0  0
 51 45  1  0  0  0  0
 51 53  2  0  0  0  0
 53 55  1  0  0  0  0
 54 53  1  0  0  0  0
 55 46  2  0  0  0  0
 55 52  1  0  0  0  0
 56 57  1  1  0  0  0
 56 59  1  0  0  0  0
 57 58  1  0  0  0  0
 58 60  1  0  0  0  0
 59 60  1  0  0  0  0
 61 62  1  0  0  0  0
 65 63  1  0  0  0  0
 65 64  1  0  0  0  0
 66 65  1  0  0  0  0
M  END
>  <MODEL>
4

>  <REMARK>
 VINA RESULT:      -4.6      2.264      3.129
  Name = 
  17 active torsions:
  status: ('A' for Active; 'I' for Inactive)
    1  A    between atoms: C_1  and  N_46
    2  A    between atoms: C_5  and  N_22
    3  A    between atoms: C_5  and  C_66
    4  A    between atoms: C_6  and  O_35
    5  A    between atoms: C_6  and  C_62
    6  A    between atoms: C_6  and  O_65
    7  A    between atoms: C_7  and  C_27
    8  A    between atoms: N_9  and  C_61
    9  A    between atoms: C_10  and  C_43
   10  A    between atoms: C_10  and  C_47
   11  A    between atoms: C_11  and  C_43
   12  A    between atoms: C_11  and  S_58
   13  A    between atoms: C_13  and  C_25
   14  A    between atoms: C_24  and  C_32
   15  A    between atoms: C_25  and  O_35
   16  A    between atoms: N_41  and  O_65
   17  A    between atoms: S_58  and  C_66
                            x       y       z     vdW  Elec       q    Type
                         _______ _______ _______ _____ _____    ______ ____

>  <TORSDO>
F 17

$$$$
=
 OpenBabel11042409563D

 66 72  0  0  1  0  0  0  0  0999 V2000
  180.4810  180.1310  141.5320 C   0  0  0  0  0  0  0  0  0  0  0  0
  181.7580  179.3830  137.0140 C   0  0  0  0  0  2  0  0  0  0  0  0
  181.1860  180.4200  140.4220 N   0  0  0  0  0  0  0  0  0  0  0  0
  182.4540  178.0640  136.9490 N   0  0  0  0  0  0  0  0  0  0  0  0
  181.2670  179.2740  142.2970 C   0  0  0  0  0  0  0  0  0  0  0  0
  182.3550  179.7960  140.5160 C   0  0  0  0  0  0  0  0  0  0  0  0
  183.2030  177.5490  138.0440 N   0  0  0  0  0  2  0  0  0  0  0  0
  179.0490  180.4850  141.7580 C   0  0  0  0  0  1  0  0  0  0  0  0
  182.4550  179.0570  141.6480 N   0  0  0  0  0  0  0  0  0  0  0  0
  181.8870  180.0220  138.3690 C   0  0  0  0  0  0  0  0  0  0  0  0
  182.8910  179.6100  139.2400 C   0  0  0  0  0  0  0  0  0  0  0  0
  183.3860  177.9560  141.9030 C   0  0  0  0  0  1  0  0  0  0  0  0
  180.8620  180.5650  139.1240 C   0  0  0  0  0  0  0  0  0  0  0  0
  183.8960  178.6600  138.6810 C   0  0  1  0  0  3  0  0  0  0  0  0
  179.6200  179.1350  143.9870 F   0  0  0  0  0  0  0  0  0  0  0  0
  180.6660  177.2430  143.3540 F   0  0  0  0  0  0  0  0  0  0  0  0
  180.8270  178.5990  143.5730 C   0  0  0  0  0  0  0  0  0  0  0  0
  181.7560  178.7670  144.5860 F   0  0  0  0  0  0  0  0  0  0  0  0
  179.5230  180.7020  138.6560 N   0  0  0  0  0  2  0  0  0  0  0  0
  179.0500  181.9130  138.2840 O   0  0  0  0  0  1  0  0  0  0  0  0
  182.2460  177.2040  135.8120 C   0  0  0  0  0  0  0  0  0  0  0  0
  181.5120  177.6450  134.7870 C   0  0  0  0  0  2  0  0  0  0  0  0
  182.2960  174.8830  136.3200 O   0  0  0  0  0  0  0  0  0  0  0  0
  182.8510  175.8470  135.7450 C   0  0  0  0  0  0  0  0  0  0  0  0
  184.4250  175.5500  134.9310 S   0  0  0  0  0  0  0  0  0  0  0  0
  185.2070  174.9410  136.4640 C   0  0  0  0  0  2  0  0  0  0  0  0
  189.5970  175.2950  137.1300 O   0  0  0  0  0  1  0  0  0  0  0  0
  189.0090  174.0850  135.0750 C   0  0  1  0  0  3  0  0  0  0  0  0
  187.9840  173.1490  134.5930 N   0  0  0  0  0  2  0  0  0  0  0  0
  188.5410  174.8900  136.3070 C   0  0  1  0  0  3  0  0  0  0  0  0
  186.2410  173.8240  136.2290 C   0  0  2  0  0  0  0  0  0  0  0  0
  190.2820  173.3010  135.3530 C   0  0  0  0  0  1  0  0  0  0  0  0
  187.4760  174.1360  137.1020 C   0  0  0  0  0  2  0  0  0  0  0  0
  186.6360  173.7310  134.7330 C   0  0  0  0  0  2  0  0  0  0  0  0
  185.6770  172.4750  136.6430 C   0  0  0  0  0  0  0  0  0  0  0  0
  186.0550  171.9660  137.7370 O   0  0  0  0  0  0  0  0  0  0  0  0
  185.2940  170.4840  135.0570 C   0  0  0  0  0  1  0  0  0  0  0  0
  183.5710  172.0210  135.6190 O   0  0  0  0  0  0  0  0  0  0  0  0
  184.7770  171.6840  135.7730 C   0  0  0  0  0  0  0  0  0  0  0  0
  185.0880  178.2660  139.5480 C   0  0  2  0  0  3  0  0  0  0  0  0
  185.6370  179.3680  140.2940 O   0  0  0  0  0  0  0  0  0  0  0  0
  185.5150  179.5470  141.6810 C   0  0  0  0  0  0  0  0  0  0  0  0
  184.4370  179.9750  142.1870 O   0  0  0  0  0  0  0  0  0  0  0  0
  191.0410  177.5390  142.0710 C   0  0  2  0  0  3  0  0  0  0  0  0
  186.6230  179.1300  142.6030 C   0  0  1  0  0  3  0  0  0  0  0  0
  187.2980  177.7130  144.5480 C   0  0  0  0  0  3  0  0  0  0  0  0
  190.9510  178.7510  144.7340 O   0  0  0  0  0  1  0  0  0  0  0  0
  190.8760  177.3470  144.6480 C   0  0  2  0  0  0  0  0  0  0  0  0
  191.5310  176.8660  143.3520 C   0  0  0  0  0  2  0  0  0  0  0  0
  186.1280  178.2290  143.7460 C   0  0  0  0  0  2  0  0  0  0  0  0
  187.7310  178.4280  141.8520 C   0  0  0  0  0  3  0  0  0  0  0  0
  189.5100  176.9280  144.7420 O   0  0  0  0  0  0  0  0  0  0  0  0
  188.6160  177.6740  142.5010 C   0  0  0  0  0  0  0  0  0  0  0  0
  189.6660  176.9700  141.7160 C   0  0  0  0  0  2  0  0  0  0  0  0
  188.4670  177.4350  143.9560 C   0  0  0  0  0  0  0  0  0  0  0  0
  191.6570  176.7080  145.8060 C   0  0  2  0  0  3  0  0  0  0  0  0
  192.2700  175.3720  145.4490 C   0  0  0  0  0  2  0  0  0  0  0  0
  192.0590  174.4540  146.4970 O   0  0  0  0  0  0  0  0  0  0  0  0
  190.8150  176.4160  147.0140 C   0  0  0  0  0  2  0  0  0  0  0  0
  191.4240  175.1480  147.5490 C   0  0  0  0  0  2  0  0  0  0  0  0
  191.4180  177.4400  139.6940 C   0  0  0  0  0  1  0  0  0  0  0  0
  192.0150  177.2390  141.0190 N   0  0  0  0  0  2  0  0  0  0  0  0
  186.0780  177.5390  138.8550 O   0  0  0  0  0  0  0  0  0  0  0  0
  186.8860  178.1120  136.8170 C   0  0  0  0  0  1  0  0  0  0  0  0
  186.8840  178.4400  138.2350 N   0  0  0  0  0  0  0  0  0  0  0  0
  188.2310  178.1900  138.7200 C   0  0  0  0  0  1  0  0  0  0  0  0
  1  8  1  0  0  0  0
  1  5  2  0  0  0  0
  2 10  1  0  0  0  0
  3  6  1  0  0  0  0
  3  1  1  0  0  0  0
  4  2  1  0  0  0  0
  4  7  1  0  0  0  0
  5 17  1  0  0  0  0
  6  9  1  0  0  0  0
  7 14  1  0  0  0  0
  9 12  1  0  0  0  0
  9  5  1  0  0  0  0
 10 13  2  0  0  0  0
 10 11  1  0  0  0  0
 11  6  2  0  0  0  0
 13  3  1  0  0  0  0
 14 11  1  0  0  0  0
 14 40  1  1  0  0  0
 16 17  1  0  0  0  0
 17 15  1  0  0  0  0
 17 18  1  0  0  0  0
 19 13  1  0  0  0  0
 20 19  1  0  0  0  0
 21  4  1  0  0  0  0
 22 21  2  0  0  0  0
 24 21  1  0  0  0  0
 24 23  2  0  0  0  0
 25 24  1  0  0  0  0
 25 26  1  0  0  0  0
 28 32  1  1  0  0  0
 28 30  1  0  0  0  0
 29 34  1  0  0  0  0
 29 28  1  0  0  0  0
 30 33  1  0  0  0  0
 30 27  1  1  0  0  0
 31 26  1  1  0  0  0
 31 35  1  0  0  0  0
 31 33  1  0  0  0  0
 34 31  1  0  0  0  0
 35 36  2  0  0  0  0
 37 39  1  0  0  0  0
 38 39  2  0  0  0  0
 39 35  1  0  0  0  0
 40 63  1  6  0  0  0
 40 41  1  0  0  0  0
 41 42  1  0  0  0  0
 42 43  2  0  0  0  0
 44 62  1  6  0  0  0
 44 49  1  0  0  0  0
 45 42  1  6  0  0  0
 45 50  1  0  0  0  0
 48 47  1  1  0  0  0
 48 52  1  0  0  0  0
 48 56  1  0  0  0  0
 49 48  1  0  0  0  0
 50 46  1  0  0  0  0
 51 53  2  0  0  0  0
 51 45  1  0  0  0  0
 53 55  1  0  0  0  0
 54 44  1  0  0  0  0
 54 53  1  0  0  0  0
 55 46  2  0  0  0  0
 55 52  1  0  0  0  0
 56 57  1  6  0  0  0
 56 59  1  0  0  0  0
 57 58  1  0  0  0  0
 58 60  1  0  0  0  0
 59 60  1  0  0  0  0
 61 62  1  0  0  0  0
 64 65  1  0  0  0  0
 65 66  1  0  0  0  0
 65 63  1  0  0  0  0
M  END
>  <MODEL>
5

>  <REMARK>
 VINA RESULT:      -3.7      4.342     10.781
  Name = 
  17 active torsions:
  status: ('A' for Active; 'I' for Inactive)
    1  A    between atoms: C_1  and  N_46
    2  A    between atoms: C_5  and  N_22
    3  A    between atoms: C_5  and  C_66
    4  A    between atoms: C_6  and  O_35
    5  A    between atoms: C_6  and  C_62
    6  A    between atoms: C_6  and  O_65
    7  A    between atoms: C_7  and  C_27
    8  A    between atoms: N_9  and  C_61
    9  A    between atoms: C_10  and  C_43
   10  A    between atoms: C_10  and  C_47
   11  A    between atoms: C_11  and  C_43
   12  A    between atoms: C_11  and  S_58
   13  A    between atoms: C_13  and  C_25
   14  A    between atoms: C_24  and  C_32
   15  A    between atoms: C_25  and  O_35
   16  A    between atoms: N_41  and  O_65
   17  A    between atoms: S_58  and  C_66
                            x       y       z     vdW  Elec       q    Type
                         _______ _______ _______ _____ _____    ______ ____

>  <TORSDO>
F 17

$$$$
=
 OpenBabel11042409563D

 66 72  0  0  1  0  0  0  0  0999 V2000
  189.8160  172.1630  134.8440 C   0  0  0  0  0  0  0  0  0  0  0  0
  191.0730  176.1590  137.0920 C   0  0  0  0  0  2  0  0  0  0  0  0
  190.0060  173.4950  134.9060 N   0  0  0  0  0  0  0  0  0  0  0  0
  190.1020  176.3810  138.2040 N   0  0  0  0  0  0  0  0  0  0  0  0
  188.4910  171.9270  135.1970 C   0  0  0  0  0  0  0  0  0  0  0  0
  188.8490  174.0480  135.2510 C   0  0  0  0  0  0  0  0  0  0  0  0
  188.7480  175.9500  138.1240 N   0  0  0  0  0  2  0  0  0  0  0  0
  190.8950  171.1480  134.6590 C   0  0  0  0  0  1  0  0  0  0  0  0
  187.8790  173.1250  135.4620 N   0  0  0  0  0  0  0  0  0  0  0  0
  190.4640  175.3760  135.9610 C   0  0  0  0  0  0  0  0  0  0  0  0
  189.0800  175.2950  135.8360 C   0  0  0  0  0  0  0  0  0  0  0  0
  186.6350  173.3070  136.2140 C   0  0  0  0  0  1  0  0  0  0  0  0
  191.0160  174.2730  135.3340 C   0  0  0  0  0  0  0  0  0  0  0  0
  188.2860  176.1570  136.7590 C   0  0  1  0  0  3  0  0  0  0  0  0
  188.5410  169.6420  134.5940 F   0  0  0  0  0  0  0  0  0  0  0  0
  187.9610  170.1790  136.7030 F   0  0  0  0  0  0  0  0  0  0  0  0
  187.8690  170.5640  135.3780 C   0  0  0  0  0  0  0  0  0  0  0  0
  186.5330  170.5600  135.0180 F   0  0  0  0  0  0  0  0  0  0  0  0
  192.3280  173.7840  135.6040 N   0  0  0  0  0  2  0  0  0  0  0  0
  192.5420  172.9320  136.6310 O   0  0  0  0  0  1  0  0  0  0  0  0
  190.5680  176.9070  139.4620 C   0  0  0  0  0  0  0  0  0  0  0  0
  191.7330  177.5580  139.5050 C   0  0  0  0  0  2  0  0  0  0  0  0
  190.0340  175.8510  141.5230 O   0  0  0  0  0  0  0  0  0  0  0  0
  189.7670  176.7630  140.7070 C   0  0  0  0  0  0  0  0  0  0  0  0
  188.3470  177.8100  141.0480 S   0  0  0  0  0  0  0  0  0  0  0  0
  187.7790  176.7490  142.4210 C   0  0  0  0  0  2  0  0  0  0  0  0
  190.3580  178.4300  145.6410 O   0  0  0  0  0  1  0  0  0  0  0  0
  188.2970  177.3890  146.4760 C   0  0  1  0  0  3  0  0  0  0  0  0
  186.8890  177.2400  146.0800 N   0  0  0  0  0  2  0  0  0  0  0  0
  189.2160  177.7090  145.2770 C   0  0  1  0  0  3  0  0  0  0  0  0
  187.2800  177.5390  143.6460 C   0  0  2  0  0  0  0  0  0  0  0  0
  188.3800  178.4500  147.5620 C   0  0  0  0  0  1  0  0  0  0  0  0
  188.4530  178.4080  144.1530 C   0  0  0  0  0  2  0  0  0  0  0  0
  186.7810  176.5870  144.7630 C   0  0  0  0  0  2  0  0  0  0  0  0
  186.1260  178.4500  143.2640 C   0  0  0  0  0  0  0  0  0  0  0  0
  186.1270  178.9890  142.1210 O   0  0  0  0  0  0  0  0  0  0  0  0
  183.6200  178.6520  143.8170 C   0  0  0  0  0  1  0  0  0  0  0  0
  185.3220  179.2670  145.3560 O   0  0  0  0  0  0  0  0  0  0  0  0
  185.0480  178.8120  144.2120 C   0  0  0  0  0  0  0  0  0  0  0  0
  186.7710  176.2020  136.5890 C   0  0  2  0  0  3  0  0  0  0  0  0
  186.2360  177.5390  136.6120 O   0  0  0  0  0  0  0  0  0  0  0  0
  186.2590  178.4010  137.7190 C   0  0  0  0  0  0  0  0  0  0  0  0
  187.2520  179.1550  137.9340 O   0  0  0  0  0  0  0  0  0  0  0  0
  180.8310  176.4350  138.8990 C   0  0  2  0  0  3  0  0  0  0  0  0
  185.0580  178.5290  138.6100 C   0  0  1  0  0  3  0  0  0  0  0  0
  183.3750  180.0630  139.6380 C   0  0  0  0  0  3  0  0  0  0  0  0
  181.3890  177.4680  141.5810 O   0  0  0  0  0  1  0  0  0  0  0  0
  180.5080  178.2040  140.7630 C   0  0  2  0  0  0  0  0  0  0  0  0
  179.8640  177.2820  139.7260 C   0  0  0  0  0  2  0  0  0  0  0  0
  184.6730  179.9940  138.8700 C   0  0  0  0  0  2  0  0  0  0  0  0
  183.8690  177.7880  138.0420 C   0  0  0  0  0  3  0  0  0  0  0  0
  181.2100  179.2900  140.1490 O   0  0  0  0  0  0  0  0  0  0  0  0
  182.6360  178.0590  138.4680 C   0  0  0  0  0  0  0  0  0  0  0  0
  181.4940  177.3330  137.8520 C   0  0  0  0  0  2  0  0  0  0  0  0
  182.4070  179.1600  139.4340 C   0  0  0  0  0  0  0  0  0  0  0  0
  179.3670  178.7850  141.6110 C   0  0  2  0  0  3  0  0  0  0  0  0
  179.1260  180.2570  141.3610 C   0  0  0  0  0  2  0  0  0  0  0  0
  178.9460  180.9270  142.5880 O   0  0  0  0  0  0  0  0  0  0  0  0
  179.6070  178.6970  143.0900 C   0  0  0  0  0  2  0  0  0  0  0  0
  178.9660  179.9550  143.6100 C   0  0  0  0  0  2  0  0  0  0  0  0
  180.5810  174.0580  138.6090 C   0  0  0  0  0  1  0  0  0  0  0  0
  180.0470  175.3780  138.2570 N   0  0  0  0  0  2  0  0  0  0  0  0
  186.0770  175.3310  137.4560 O   0  0  0  0  0  0  0  0  0  0  0  0
  184.1230  174.1950  137.6080 C   0  0  0  0  0  1  0  0  0  0  0  0
  184.7560  175.4240  137.1530 N   0  0  0  0  0  0  0  0  0  0  0  0
  184.6660  175.4220  135.7020 C   0  0  0  0  0  1  0  0  0  0  0  0
  1  3  1  0  0  0  0
  1  5  2  0  0  0  0
  2  4  1  0  0  0  0
  3  6  1  0  0  0  0
  3 13  1  0  0  0  0
  4 21  1  0  0  0  0
  5 17  1  0  0  0  0
  5  9  1  0  0  0  0
  6  9  1  0  0  0  0
  6 11  2  0  0  0  0
  7  4  1  0  0  0  0
  8  1  1  0  0  0  0
  9 12  1  0  0  0  0
 10  2  1  0  0  0  0
 11 10  1  0  0  0  0
 11 14  1  0  0  0  0
 13 19  1  0  0  0  0
 13 10  2  0  0  0  0
 14 40  1  1  0  0  0
 14  7  1  0  0  0  0
 15 17  1  0  0  0  0
 17 16  1  0  0  0  0
 18 17  1  0  0  0  0
 19 20  1  0  0  0  0
 21 22  2  0  0  0  0
 21 24  1  0  0  0  0
 24 25  1  0  0  0  0
 24 23  2  0  0  0  0
 25 26  1  0  0  0  0
 28 32  1  1  0  0  0
 29 28  1  0  0  0  0
 30 27  1  1  0  0  0
 30 28  1  0  0  0  0
 31 26  1  6  0  0  0
 31 33  1  0  0  0  0
 31 34  1  0  0  0  0
 33 30  1  0  0  0  0
 34 29  1  0  0  0  0
 35 31  1  0  0  0  0
 35 39  1  0  0  0  0
 36 35  2  0  0  0  0
 37 39  1  0  0  0  0
 39 38  2  0  0  0  0
 40 41  1  1  0  0  0
 40 63  1  0  0  0  0
 41 42  1  0  0  0  0
 42 43  2  0  0  0  0
 44 62  1  6  0  0  0
 44 49  1  0  0  0  0
 45 42  1  6  0  0  0
 45 50  1  0  0  0  0
 48 47  1  1  0  0  0
 48 56  1  0  0  0  0
 49 48  1  0  0  0  0
 50 46  1  0  0  0  0
 51 53  2  0  0  0  0
 51 45  1  0  0  0  0
 52 48  1  0  0  0  0
 53 55  1  0  0  0  0
 54 53  1  0  0  0  0
 54 44  1  0  0  0  0
 55 46  2  0  0  0  0
 55 52  1  0  0  0  0
 56 57  1  6  0  0  0
 56 59  1  0  0  0  0
 57 58  1  0  0  0  0
 58 60  1  0  0  0  0
 59 60  1  0  0  0  0
 62 61  1  0  0  0  0
 65 63  1  0  0  0  0
 65 64  1  0  0  0  0
 66 65  1  0  0  0  0
M  END
>  <MODEL>
6

>  <REMARK>
 VINA RESULT:      -3.6      2.251      3.326
  Name = 
  17 active torsions:
  status: ('A' for Active; 'I' for Inactive)
    1  A    between atoms: C_1  and  N_46
    2  A    between atoms: C_5  and  N_22
    3  A    between atoms: C_5  and  C_66
    4  A    between atoms: C_6  and  O_35
    5  A    between atoms: C_6  and  C_62
    6  A    between atoms: C_6  and  O_65
    7  A    between atoms: C_7  and  C_27
    8  A    between atoms: N_9  and  C_61
    9  A    between atoms: C_10  and  C_43
   10  A    between atoms: C_10  and  C_47
   11  A    between atoms: C_11  and  C_43
   12  A    between atoms: C_11  and  S_58
   13  A    between atoms: C_13  and  C_25
   14  A    between atoms: C_24  and  C_32
   15  A    between atoms: C_25  and  O_35
   16  A    between atoms: N_41  and  O_65
   17  A    between atoms: S_58  and  C_66
                            x       y       z     vdW  Elec       q    Type
                         _______ _______ _______ _____ _____    ______ ____

>  <TORSDO>
F 17

$$$$
=
 OpenBabel11042409563D

 66 72  0  0  1  0  0  0  0  0999 V2000
  185.4120  178.8950  142.8180 C   0  0  0  0  0  0  0  0  0  0  0  0
  180.9050  177.7900  141.7880 C   0  0  0  0  0  2  0  0  0  0  0  0
  184.1360  179.2130  142.5300 N   0  0  0  0  0  0  0  0  0  0  0  0
  180.8940  177.1100  140.4590 N   0  0  0  0  0  0  0  0  0  0  0  0
  186.1010  178.8540  141.6090 C   0  0  0  0  0  0  0  0  0  0  0  0
  184.0540  179.3860  141.2150 C   0  0  0  0  0  0  0  0  0  0  0  0
  181.8510  177.4080  139.4490 N   0  0  0  0  0  2  0  0  0  0  0  0
  185.9080  178.4510  144.1530 C   0  0  0  0  0  1  0  0  0  0  0  0
  185.2350  179.1600  140.5900 N   0  0  0  0  0  0  0  0  0  0  0  0
  182.0690  178.7310  141.9300 C   0  0  0  0  0  0  0  0  0  0  0  0
  182.7350  179.1900  140.7980 C   0  0  0  0  0  0  0  0  0  0  0  0
  185.4400  178.8680  139.1700 C   0  0  0  0  0  1  0  0  0  0  0  0
  182.9450  178.8010  142.9990 C   0  0  0  0  0  0  0  0  0  0  0  0
  182.1180  178.8390  139.4860 C   0  0  1  0  0  3  0  0  0  0  0  0
  188.1740  179.2720  140.5530 F   0  0  0  0  0  0  0  0  0  0  0  0
  188.1870  178.4750  142.6600 F   0  0  0  0  0  0  0  0  0  0  0  0
  187.5370  178.4220  141.4400 C   0  0  0  0  0  0  0  0  0  0  0  0
  187.6270  177.1290  140.9560 F   0  0  0  0  0  0  0  0  0  0  0  0
  182.7880  178.0490  144.2000 N   0  0  0  0  0  2  0  0  0  0  0  0
  182.5470  178.6770  145.3730 O   0  0  0  0  0  1  0  0  0  0  0  0
  179.9930  176.0100  140.2290 C   0  0  0  0  0  0  0  0  0  0  0  0
  179.0710  175.7190  141.1500 C   0  0  0  0  0  2  0  0  0  0  0  0
  179.2850  175.4760  138.0240 O   0  0  0  0  0  0  0  0  0  0  0  0
  180.0510  175.2080  138.9780 C   0  0  0  0  0  0  0  0  0  0  0  0
  181.1370  173.7860  138.8130 S   0  0  0  0  0  0  0  0  0  0  0  0
  181.7250  174.3100  137.1660 C   0  0  0  0  0  2  0  0  0  0  0  0
  178.9310  171.8790  134.6910 O   0  0  0  0  0  1  0  0  0  0  0  0
  180.6580  170.5460  135.8190 C   0  0  1  0  0  3  0  0  0  0  0  0
  182.0740  170.6550  136.1960 N   0  0  0  0  0  2  0  0  0  0  0  0
  180.0010  171.9250  135.5920 C   0  0  1  0  0  3  0  0  0  0  0  0
  182.1290  173.1370  136.2530 C   0  0  2  0  0  0  0  0  0  0  0  0
  180.5550  169.6520  134.5940 C   0  0  0  0  0  1  0  0  0  0  0  0
  181.0280  172.9780  135.1800 C   0  0  0  0  0  2  0  0  0  0  0  0
  182.2980  171.8270  137.0630 C   0  0  0  0  0  2  0  0  0  0  0  0
  183.4490  173.4260  135.5590 C   0  0  0  0  0  0  0  0  0  0  0  0
  183.4650  174.2420  134.5940 O   0  0  0  0  0  0  0  0  0  0  0  0
  185.5080  173.1510  137.0800 C   0  0  0  0  0  1  0  0  0  0  0  0
  185.1090  171.7510  135.2020 O   0  0  0  0  0  0  0  0  0  0  0  0
  184.7030  172.7190  135.9030 C   0  0  0  0  0  0  0  0  0  0  0  0
  182.7340  179.4140  138.2140 C   0  0  2  0  0  3  0  0  0  0  0  0
  183.8850  178.6800  137.7580 O   0  0  0  0  0  0  0  0  0  0  0  0
  183.8430  177.4960  137.0050 C   0  0  0  0  0  0  0  0  0  0  0  0
  182.7400  177.0090  136.6220 O   0  0  0  0  0  0  0  0  0  0  0  0
  189.4240  176.1730  138.3590 C   0  0  2  0  0  3  0  0  0  0  0  0
  185.1120  176.8420  136.5420 C   0  0  1  0  0  3  0  0  0  0  0  0
  186.8210  176.6510  134.7290 C   0  0  0  0  0  3  0  0  0  0  0  0
  189.0650  174.0570  136.3680 O   0  0  0  0  0  1  0  0  0  0  0  0
  189.8430  175.1750  136.0060 C   0  0  2  0  0  0  0  0  0  0  0  0
  190.4270  175.8330  137.2580 C   0  0  0  0  0  2  0  0  0  0  0  0
  185.4640  177.2050  135.0910 C   0  0  0  0  0  2  0  0  0  0  0  0
  186.2740  177.1920  137.4440 C   0  0  0  0  0  3  0  0  0  0  0  0
  189.0500  176.0900  135.2430 O   0  0  0  0  0  0  0  0  0  0  0  0
  187.5280  177.0230  137.0290 C   0  0  0  0  0  0  0  0  0  0  0  0
  188.6380  177.4170  137.9370 C   0  0  0  0  0  2  0  0  0  0  0  0
  187.8000  176.5830  135.6400 C   0  0  0  0  0  0  0  0  0  0  0  0
  191.0310  174.7300  135.1410 C   0  0  2  0  0  3  0  0  0  0  0  0
  191.8910  173.6760  135.8020 C   0  0  0  0  0  2  0  0  0  0  0  0
  193.2530  173.9880  135.6220 O   0  0  0  0  0  0  0  0  0  0  0  0
  191.9910  175.8370  134.8150 C   0  0  0  0  0  2  0  0  0  0  0  0
  193.3220  175.1360  134.8030 C   0  0  0  0  0  2  0  0  0  0  0  0
  191.0610  177.5950  139.4050 C   0  0  0  0  0  1  0  0  0  0  0  0
  190.1870  176.4300  139.5820 N   0  0  0  0  0  2  0  0  0  0  0  0
  182.9730  180.8030  138.2780 O   0  0  0  0  0  0  0  0  0  0  0  0
  181.1890  181.2040  136.9400 C   0  0  0  0  0  1  0  0  0  0  0  0
  181.7650  181.4250  138.2580 N   0  0  0  0  0  0  0  0  0  0  0  0
  182.0330  182.8500  138.3590 C   0  0  0  0  0  1  0  0  0  0  0  0
  1  8  1  0  0  0  0
  2 10  1  0  0  0  0
  3  1  1  0  0  0  0
  3 13  1  0  0  0  0
  4  2  1  0  0  0  0
  5  1  2  0  0  0  0
  6  3  1  0  0  0  0
  7 14  1  0  0  0  0
  7  4  1  0  0  0  0
  9  6  1  0  0  0  0
  9  5  1  0  0  0  0
 10 13  2  0  0  0  0
 11  6  2  0  0  0  0
 11 10  1  0  0  0  0
 12  9  1  0  0  0  0
 13 19  1  0  0  0  0
 14 40  1  6  0  0  0
 14 11  1  0  0  0  0
 15 17  1  0  0  0  0
 17  5  1  0  0  0  0
 17 16  1  0  0  0  0
 18 17  1  0  0  0  0
 19 20  1  0  0  0  0
 21  4  1  0  0  0  0
 21 22  2  0  0  0  0
 23 24  2  0  0  0  0
 24 21  1  0  0  0  0
 25 24  1  0  0  0  0
 26 25  1  0  0  0  0
 28 32  1  6  0  0  0
 28 29  1  0  0  0  0
 29 34  1  0  0  0  0
 30 27  1  6  0  0  0
 30 28  1  0  0  0  0
 31 34  1  0  0  0  0
 31 26  1  1  0  0  0
 33 30  1  0  0  0  0
 33 31  1  0  0  0  0
 35 39  1  0  0  0  0
 35 31  1  0  0  0  0
 36 35  2  0  0  0  0
 38 39  2  0  0  0  0
 39 37  1  0  0  0  0
 40 41  1  1  0  0  0
 40 63  1  0  0  0  0
 42 41  1  0  0  0  0
 43 42  2  0  0  0  0
 44 62  1  1  0  0  0
 45 42  1  1  0  0  0
 45 51  1  0  0  0  0
 46 50  1  0  0  0  0
 46 55  2  0  0  0  0
 48 47  1  1  0  0  0
 48 49  1  0  0  0  0
 49 44  1  0  0  0  0
 50 45  1  0  0  0  0
 52 55  1  0  0  0  0
 52 48  1  0  0  0  0
 53 51  2  0  0  0  0
 53 54  1  0  0  0  0
 54 44  1  0  0  0  0
 55 53  1  0  0  0  0
 56 59  1  1  0  0  0
 56 57  1  0  0  0  0
 56 48  1  0  0  0  0
 58 57  1  0  0  0  0
 60 59  1  0  0  0  0
 60 58  1  0  0  0  0
 61 62  1  0  0  0  0
 64 65  1  0  0  0  0
 65 63  1  0  0  0  0
 65 66  1  0  0  0  0
M  END
>  <MODEL>
7

>  <REMARK>
 VINA RESULT:      -3.3      3.878     10.681
  Name = 
  17 active torsions:
  status: ('A' for Active; 'I' for Inactive)
    1  A    between atoms: C_1  and  N_46
    2  A    between atoms: C_5  and  N_22
    3  A    between atoms: C_5  and  C_66
    4  A    between atoms: C_6  and  O_35
    5  A    between atoms: C_6  and  C_62
    6  A    between atoms: C_6  and  O_65
    7  A    between atoms: C_7  and  C_27
    8  A    between atoms: N_9  and  C_61
    9  A    between atoms: C_10  and  C_43
   10  A    between atoms: C_10  and  C_47
   11  A    between atoms: C_11  and  C_43
   12  A    between atoms: C_11  and  S_58
   13  A    between atoms: C_13  and  C_25
   14  A    between atoms: C_24  and  C_32
   15  A    between atoms: C_25  and  O_35
   16  A    between atoms: N_41  and  O_65
   17  A    between atoms: S_58  and  C_66
                            x       y       z     vdW  Elec       q    Type
                         _______ _______ _______ _____ _____    ______ ____

>  <TORSDO>
F 17

$$$$
=
 OpenBabel11042409563D

 66 72  0  0  1  0  0  0  0  0999 V2000
  191.7790  172.9330  135.6940 C   0  0  0  0  0  0  0  0  0  0  0  0
  187.2530  174.3460  136.0370 C   0  0  0  0  0  2  0  0  0  0  0  0
  190.6130  173.0720  136.3530 N   0  0  0  0  0  0  0  0  0  0  0  0
  187.2340  175.8380  135.9650 N   0  0  0  0  0  0  0  0  0  0  0  0
  192.5520  174.0490  136.0020 C   0  0  0  0  0  0  0  0  0  0  0  0
  190.6790  174.1990  137.0510 C   0  0  0  0  0  0  0  0  0  0  0  0
  188.3140  176.6320  136.4410 N   0  0  0  0  0  2  0  0  0  0  0  0
  192.0650  171.8950  134.6610 C   0  0  0  0  0  1  0  0  0  0  0  0
  191.8490  174.8560  136.8600 N   0  0  0  0  0  0  0  0  0  0  0  0
  188.5530  173.8250  136.5830 C   0  0  0  0  0  0  0  0  0  0  0  0
  189.3890  174.6670  137.3120 C   0  0  0  0  0  0  0  0  0  0  0  0
  192.1210  176.2700  137.1260 C   0  0  0  0  0  1  0  0  0  0  0  0
  189.3300  172.8180  136.0390 C   0  0  0  0  0  0  0  0  0  0  0  0
  188.8350  176.0100  137.6500 C   0  0  1  0  0  3  0  0  0  0  0  0
  193.7790  175.5040  134.6020 F   0  0  0  0  0  0  0  0  0  0  0  0
  194.8170  174.6130  136.3910 F   0  0  0  0  0  0  0  0  0  0  0  0
  193.8930  174.3730  135.3910 C   0  0  0  0  0  0  0  0  0  0  0  0
  194.3620  173.3330  134.6090 F   0  0  0  0  0  0  0  0  0  0  0  0
  188.9330  172.0320  134.9170 N   0  0  0  0  0  2  0  0  0  0  0  0
  188.8180  170.6900  135.0300 O   0  0  0  0  0  1  0  0  0  0  0  0
  186.1700  176.5030  135.2570 C   0  0  0  0  0  0  0  0  0  0  0  0
  186.4170  177.6680  134.6540 C   0  0  0  0  0  2  0  0  0  0  0  0
  184.6450  174.6830  135.3660 O   0  0  0  0  0  0  0  0  0  0  0  0
  184.8100  175.9080  135.1630 C   0  0  0  0  0  0  0  0  0  0  0  0
  183.3810  176.8810  134.6710 S   0  0  0  0  0  0  0  0  0  0  0  0
  182.2460  175.9170  135.7280 C   0  0  0  0  0  2  0  0  0  0  0  0
  180.2690  179.8890  136.1240 O   0  0  0  0  0  1  0  0  0  0  0  0
  182.1110  179.5450  137.7120 C   0  0  1  0  0  3  0  0  0  0  0  0
  182.7000  178.4610  138.5100 N   0  0  0  0  0  2  0  0  0  0  0  0
  181.2910  179.0170  136.5150 C   0  0  1  0  0  3  0  0  0  0  0  0
  181.8980  176.6140  137.0560 C   0  0  2  0  0  0  0  0  0  0  0  0
  181.2790  180.4220  138.6350 C   0  0  0  0  0  1  0  0  0  0  0  0
  180.7520  177.6120  136.7760 C   0  0  0  0  0  2  0  0  0  0  0  0
  183.1300  177.3470  137.6450 C   0  0  0  0  0  2  0  0  0  0  0  0
  181.4250  175.6020  138.0860 C   0  0  0  0  0  0  0  0  0  0  0  0
  182.2860  174.9040  138.6940 O   0  0  0  0  0  0  0  0  0  0  0  0
  179.2910  174.2570  137.5770 C   0  0  0  0  0  1  0  0  0  0  0  0
  179.3480  176.0030  139.1870 O   0  0  0  0  0  0  0  0  0  0  0  0
  179.9920  175.3290  138.3370 C   0  0  0  0  0  0  0  0  0  0  0  0
  189.6550  176.9310  138.5480 C   0  0  2  0  0  3  0  0  0  0  0  0
  190.7660  176.2660  139.1810 O   0  0  0  0  0  0  0  0  0  0  0  0
  191.4230  176.7130  140.3380 C   0  0  0  0  0  0  0  0  0  0  0  0
  192.6650  176.9580  140.3240 O   0  0  0  0  0  0  0  0  0  0  0  0
  191.4960  176.7840  146.2290 C   0  0  2  0  0  3  0  0  0  0  0  0
  190.6480  177.0170  141.5860 C   0  0  1  0  0  3  0  0  0  0  0  0
  188.5260  176.6750  142.8610 C   0  0  0  0  0  3  0  0  0  0  0  0
  189.3780  178.7810  145.9090 O   0  0  0  0  0  1  0  0  0  0  0  0
  189.0060  177.4890  146.3320 C   0  0  2  0  0  0  0  0  0  0  0  0
  190.1880  176.8020  147.0190 C   0  0  0  0  0  2  0  0  0  0  0  0
  189.2090  176.4810  141.5280 C   0  0  0  0  0  2  0  0  0  0  0  0
  191.3410  176.4700  142.8130 C   0  0  0  0  0  3  0  0  0  0  0  0
  188.5250  176.7330  145.2150 O   0  0  0  0  0  0  0  0  0  0  0  0
  190.6710  176.3110  143.9540 C   0  0  0  0  0  0  0  0  0  0  0  0
  191.3850  175.7330  145.1240 C   0  0  0  0  0  2  0  0  0  0  0  0
  189.2150  176.5760  144.0060 C   0  0  0  0  0  0  0  0  0  0  0  0
  187.8790  177.5810  147.3720 C   0  0  2  0  0  3  0  0  0  0  0  0
  186.4990  177.4180  146.7750 C   0  0  0  0  0  2  0  0  0  0  0  0
  185.6270  178.3820  147.3160 O   0  0  0  0  0  0  0  0  0  0  0  0
  187.8190  178.9020  148.0830 C   0  0  0  0  0  2  0  0  0  0  0  0
  186.3430  179.1010  148.2980 C   0  0  0  0  0  2  0  0  0  0  0  0
  192.0090  175.8890  148.4050 C   0  0  0  0  0  1  0  0  0  0  0  0
  192.5680  176.4430  147.1670 N   0  0  0  0  0  2  0  0  0  0  0  0
  188.8770  177.6680  139.4650 O   0  0  0  0  0  0  0  0  0  0  0  0
  187.3250  179.1830  138.8090 C   0  0  0  0  0  1  0  0  0  0  0  0
  188.7490  178.9270  138.9680 N   0  0  0  0  0  0  0  0  0  0  0  0
  189.3160  178.9000  137.6300 C   0  0  0  0  0  1  0  0  0  0  0  0
  1  5  2  0  0  0  0
  1  3  1  0  0  0  0
  2 10  1  0  0  0  0
  3  6  1  0  0  0  0
  4  2  1  0  0  0  0
  4  7  1  0  0  0  0
  5  9  1  0  0  0  0
  6 11  2  0  0  0  0
  7 14  1  0  0  0  0
  8  1  1  0  0  0  0
  9  6  1  0  0  0  0
  9 12  1  0  0  0  0
 10 11  1  0  0  0  0
 11 14  1  0  0  0  0
 13  3  1  0  0  0  0
 13 10  2  0  0  0  0
 14 40  1  6  0  0  0
 15 17  1  0  0  0  0
 17  5  1  0  0  0  0
 17 16  1  0  0  0  0
 18 17  1  0  0  0  0
 19 20  1  0  0  0  0
 19 13  1  0  0  0  0
 21  4  1  0  0  0  0
 22 21  2  0  0  0  0
 24 21  1  0  0  0  0
 24 23  2  0  0  0  0
 25 24  1  0  0  0  0
 25 26  1  0  0  0  0
 28 29  1  0  0  0  0
 28 32  1  1  0  0  0
 30 27  1  1  0  0  0
 30 33  1  0  0  0  0
 30 28  1  0  0  0  0
 31 26  1  6  0  0  0
 31 34  1  0  0  0  0
 31 35  1  0  0  0  0
 33 31  1  0  0  0  0
 34 29  1  0  0  0  0
 35 39  1  0  0  0  0
 35 36  2  0  0  0  0
 37 39  1  0  0  0  0
 39 38  2  0  0  0  0
 40 41  1  1  0  0  0
 40 63  1  0  0  0  0
 41 42  1  0  0  0  0
 43 42  2  0  0  0  0
 44 49  1  0  0  0  0
 44 62  1  1  0  0  0
 45 42  1  6  0  0  0
 45 51  1  0  0  0  0
 46 55  2  0  0  0  0
 48 47  1  6  0  0  0
 48 49  1  0  0  0  0
 48 56  1  0  0  0  0
 50 45  1  0  0  0  0
 50 46  1  0  0  0  0
 51 53  2  0  0  0  0
 52 48  1  0  0  0  0
 53 55  1  0  0  0  0
 53 54  1  0  0  0  0
 54 44  1  0  0  0  0
 55 52  1  0  0  0  0
 56 57  1  6  0  0  0
 56 59  1  0  0  0  0
 57 58  1  0  0  0  0
 58 60  1  0  0  0  0
 59 60  1  0  0  0  0
 62 61  1  0  0  0  0
 64 65  1  0  0  0  0
 65 63  1  0  0  0  0
 66 65  1  0  0  0  0
M  END
>  <MODEL>
8

>  <REMARK>
 VINA RESULT:      -2.9      2.546      8.517
  Name = 
  17 active torsions:
  status: ('A' for Active; 'I' for Inactive)
    1  A    between atoms: C_1  and  N_46
    2  A    between atoms: C_5  and  N_22
    3  A    between atoms: C_5  and  C_66
    4  A    between atoms: C_6  and  O_35
    5  A    between atoms: C_6  and  C_62
    6  A    between atoms: C_6  and  O_65
    7  A    between atoms: C_7  and  C_27
    8  A    between atoms: N_9  and  C_61
    9  A    between atoms: C_10  and  C_43
   10  A    between atoms: C_10  and  C_47
   11  A    between atoms: C_11  and  C_43
   12  A    between atoms: C_11  and  S_58
   13  A    between atoms: C_13  and  C_25
   14  A    between atoms: C_24  and  C_32
   15  A    between atoms: C_25  and  O_35
   16  A    between atoms: N_41  and  O_65
   17  A    between atoms: S_58  and  C_66
                            x       y       z     vdW  Elec       q    Type
                         _______ _______ _______ _____ _____    ______ ____

>  <TORSDO>
F 17

$$$$
=
 OpenBabel11042409563D

 66 72  0  0  1  0  0  0  0  0999 V2000
  189.1050  176.9650  146.1870 C   0  0  0  0  0  0  0  0  0  0  0  0
  188.9990  176.7180  141.4410 C   0  0  0  0  0  2  0  0  0  0  0  0
  188.7210  176.4060  145.0240 N   0  0  0  0  0  0  0  0  0  0  0  0
  188.2900  177.9310  140.9370 N   0  0  0  0  0  0  0  0  0  0  0  0
  188.1160  177.8760  146.5440 C   0  0  0  0  0  0  0  0  0  0  0  0
  187.5420  176.9270  144.7010 C   0  0  0  0  0  0  0  0  0  0  0  0
  187.2650  178.5740  141.6860 N   0  0  0  0  0  2  0  0  0  0  0  0
  190.4450  176.7930  146.8230 C   0  0  0  0  0  1  0  0  0  0  0  0
  187.1260  177.8550  145.5960 N   0  0  0  0  0  0  0  0  0  0  0  0
  188.5530  176.3400  142.8270 C   0  0  0  0  0  0  0  0  0  0  0  0
  187.3430  176.8170  143.3230 C   0  0  0  0  0  0  0  0  0  0  0  0
  186.1160  178.8950  145.3830 C   0  0  0  0  0  1  0  0  0  0  0  0
  189.3710  176.0470  143.9030 C   0  0  0  0  0  0  0  0  0  0  0  0
  186.4770  177.5470  142.3520 C   0  0  1  0  0  3  0  0  0  0  0  0
  187.0350  179.5880  147.7650 F   0  0  0  0  0  0  0  0  0  0  0  0
  188.2890  178.0960  148.8940 F   0  0  0  0  0  0  0  0  0  0  0  0
  188.1860  178.8190  147.7200 C   0  0  0  0  0  0  0  0  0  0  0  0
  189.2790  179.6640  147.6330 F   0  0  0  0  0  0  0  0  0  0  0  0
  190.7910  175.9470  143.8130 N   0  0  0  0  0  2  0  0  0  0  0  0
  191.5390  177.0450  143.5640 O   0  0  0  0  0  1  0  0  0  0  0  0
  188.7470  178.5740  139.7310 C   0  0  0  0  0  0  0  0  0  0  0  0
  189.7620  179.4390  139.7980 C   0  0  0  0  0  2  0  0  0  0  0  0
  186.9000  178.0540  138.3300 O   0  0  0  0  0  0  0  0  0  0  0  0
  188.1290  178.2770  138.4110 C   0  0  0  0  0  0  0  0  0  0  0  0
  189.1130  178.1330  136.9150 S   0  0  0  0  0  0  0  0  0  0  0  0
  188.7930  176.3420  136.7670 C   0  0  0  0  0  2  0  0  0  0  0  0
  192.1400  176.7590  139.6770 O   0  0  0  0  0  1  0  0  0  0  0  0
  192.8860  176.3780  137.3690 C   0  0  1  0  0  3  0  0  0  0  0  0
  192.4740  175.6180  136.1800 N   0  0  0  0  0  2  0  0  0  0  0  0
  191.7190  176.6150  138.3510 C   0  0  1  0  0  3  0  0  0  0  0  0
  190.0710  175.4820  136.7900 C   0  0  2  0  0  0  0  0  0  0  0  0
  194.0490  175.6490  138.0250 C   0  0  0  0  0  1  0  0  0  0  0  0
  190.6460  175.5350  138.2230 C   0  0  0  0  0  2  0  0  0  0  0  0
  191.1120  175.9960  135.7630 C   0  0  0  0  0  2  0  0  0  0  0  0
  189.7520  174.0370  136.4430 C   0  0  0  0  0  0  0  0  0  0  0  0
  190.6870  173.1860  136.4600 O   0  0  0  0  0  0  0  0  0  0  0  0
  187.4940  172.9030  136.9340 C   0  0  0  0  0  1  0  0  0  0  0  0
  188.0350  173.8070  134.8050 O   0  0  0  0  0  0  0  0  0  0  0  0
  188.4120  173.6020  135.9910 C   0  0  0  0  0  0  0  0  0  0  0  0
  185.0890  177.9880  142.8030 C   0  0  2  0  0  3  0  0  0  0  0  0
  184.4390  178.8660  141.8650 O   0  0  0  0  0  0  0  0  0  0  0  0
  183.2810  178.5560  141.1330 C   0  0  0  0  0  0  0  0  0  0  0  0
  182.3250  179.3800  141.0530 O   0  0  0  0  0  0  0  0  0  0  0  0
  184.9120  175.7780  136.1990 C   0  0  2  0  0  3  0  0  0  0  0  0
  183.2010  177.2860  140.3390 C   0  0  1  0  0  3  0  0  0  0  0  0
  181.7210  175.5310  139.3510 C   0  0  0  0  0  3  0  0  0  0  0  0
  184.4210  173.3630  137.7810 O   0  0  0  0  0  1  0  0  0  0  0  0
  183.4750  173.7070  136.7940 C   0  0  2  0  0  0  0  0  0  0  0  0
  184.1370  174.5560  135.7070 C   0  0  0  0  0  2  0  0  0  0  0  0
  181.7750  176.7150  140.2870 C   0  0  0  0  0  2  0  0  0  0  0  0
  183.7170  177.4820  138.9320 C   0  0  0  0  0  3  0  0  0  0  0  0
  182.3680  174.3840  137.3990 O   0  0  0  0  0  0  0  0  0  0  0  0
  183.4120  176.6100  137.9720 C   0  0  0  0  0  0  0  0  0  0  0  0
  183.9100  176.8650  136.5930 C   0  0  0  0  0  2  0  0  0  0  0  0
  182.4810  175.4910  138.2490 C   0  0  0  0  0  0  0  0  0  0  0  0
  182.9470  172.4380  136.1080 C   0  0  2  0  0  3  0  0  0  0  0  0
  182.8980  171.2380  137.0270 C   0  0  0  0  0  2  0  0  0  0  0  0
  183.3980  170.1030  136.3580 O   0  0  0  0  0  0  0  0  0  0  0  0
  183.7880  171.9820  134.9510 C   0  0  0  0  0  2  0  0  0  0  0  0
  183.6810  170.4840  135.0280 C   0  0  0  0  0  2  0  0  0  0  0  0
  185.7840  177.6950  135.0320 C   0  0  0  0  0  1  0  0  0  0  0  0
  185.7630  176.2290  135.0960 N   0  0  0  0  0  2  0  0  0  0  0  0
  185.0540  178.4880  144.1220 O   0  0  0  0  0  0  0  0  0  0  0  0
  183.4140  180.0360  144.3420 C   0  0  0  0  0  1  0  0  0  0  0  0
  183.7470  178.6250  144.4690 N   0  0  0  0  0  0  0  0  0  0  0  0
  183.6620  178.3060  145.8850 C   0  0  0  0  0  1  0  0  0  0  0  0
  1  5  2  0  0  0  0
  1  8  1  0  0  0  0
  2 10  1  0  0  0  0
  3  1  1  0  0  0  0
  4  2  1  0  0  0  0
  4  7  1  0  0  0  0
  5 17  1  0  0  0  0
  6  3  1  0  0  0  0
  6  9  1  0  0  0  0
  7 14  1  0  0  0  0
  9  5  1  0  0  0  0
 10 11  1  0  0  0  0
 10 13  2  0  0  0  0
 11  6  2  0  0  0  0
 12  9  1  0  0  0  0
 13  3  1  0  0  0  0
 14 40  1  1  0  0  0
 14 11  1  0  0  0  0
 17 15  1  0  0  0  0
 17 16  1  0  0  0  0
 18 17  1  0  0  0  0
 19 13  1  0  0  0  0
 20 19  1  0  0  0  0
 21 22  2  0  0  0  0
 21  4  1  0  0  0  0
 23 24  2  0  0  0  0
 24 21  1  0  0  0  0
 25 24  1  0  0  0  0
 26 25  1  0  0  0  0
 28 32  1  1  0  0  0
 28 30  1  0  0  0  0
 29 28  1  0  0  0  0
 30 27  1  1  0  0  0
 31 26  1  6  0  0  0
 31 33  1  0  0  0  0
 33 30  1  0  0  0  0
 34 29  1  0  0  0  0
 34 31  1  0  0  0  0
 35 36  2  0  0  0  0
 35 31  1  0  0  0  0
 38 39  2  0  0  0  0
 39 35  1  0  0  0  0
 39 37  1  0  0  0  0
 40 41  1  6  0  0  0
 40 63  1  0  0  0  0
 42 41  1  0  0  0  0
 43 42  2  0  0  0  0
 44 62  1  6  0  0  0
 44 54  1  0  0  0  0
 45 42  1  6  0  0  0
 46 50  1  0  0  0  0
 48 52  1  0  0  0  0
 48 47  1  1  0  0  0
 49 44  1  0  0  0  0
 49 48  1  0  0  0  0
 50 45  1  0  0  0  0
 51 45  1  0  0  0  0
 52 55  1  0  0  0  0
 53 55  1  0  0  0  0
 53 51  2  0  0  0  0
 54 53  1  0  0  0  0
 55 46  2  0  0  0  0
 56 59  1  6  0  0  0
 56 48  1  0  0  0  0
 56 57  1  0  0  0  0
 58 57  1  0  0  0  0
 59 60  1  0  0  0  0
 60 58  1  0  0  0  0
 61 62  1  0  0  0  0
 63 65  1  0  0  0  0
 64 65  1  0  0  0  0
 65 66  1  0  0  0  0
M  END
>  <MODEL>
9

>  <REMARK>
 VINA RESULT:      -2.8      3.956      8.651
  Name = 
  17 active torsions:
  status: ('A' for Active; 'I' for Inactive)
    1  A    between atoms: C_1  and  N_46
    2  A    between atoms: C_5  and  N_22
    3  A    between atoms: C_5  and  C_66
    4  A    between atoms: C_6  and  O_35
    5  A    between atoms: C_6  and  C_62
    6  A    between atoms: C_6  and  O_65
    7  A    between atoms: C_7  and  C_27
    8  A    between atoms: N_9  and  C_61
    9  A    between atoms: C_10  and  C_43
   10  A    between atoms: C_10  and  C_47
   11  A    between atoms: C_11  and  C_43
   12  A    between atoms: C_11  and  S_58
   13  A    between atoms: C_13  and  C_25
   14  A    between atoms: C_24  and  C_32
   15  A    between atoms: C_25  and  O_35
   16  A    between atoms: N_41  and  O_65
   17  A    between atoms: S_58  and  C_66
                            x       y       z     vdW  Elec       q    Type
                         _______ _______ _______ _____ _____    ______ ____

>  <TORSDO>
F 17

$$$$
