=
 OpenBabel11032419163D

 30 34  0  0  1  0  0  0  0  0999 V2000
  186.9160  178.1120  142.8680 C   0  0  0  0  0  0  0  0  0  0  0  0
  184.4970  178.7940  139.6590 C   0  0  0  0  0  3  0  0  0  0  0  0
  183.8610  178.6850  140.8680 N   0  0  0  0  0  0  0  0  0  0  0  0
  186.7230  177.9190  144.3350 C   0  0  0  0  0  1  0  0  0  0  0  0
  186.5510  178.4470  140.7190 C   0  0  0  0  0  0  0  0  0  0  0  0
  187.8850  178.3030  140.8350 N   0  0  0  0  0  0  0  0  0  0  0  0
  185.9330  178.3350  141.9290 C   0  0  0  0  0  0  0  0  0  0  0  0
  185.8570  178.6740  139.5760 N   0  0  0  0  0  0  0  0  0  0  0  0
  188.1190  178.1010  142.1570 C   0  0  0  0  0  0  0  0  0  0  0  0
  184.5540  178.4550  142.0210 C   0  0  0  0  0  3  0  0  0  0  0  0
  188.8690  178.0280  136.3190 C   0  0  0  0  0  2  0  0  0  0  0  0
  188.8900  178.3540  139.7750 C   0  0  2  0  0  3  0  0  0  0  0  0
  189.9640  177.5870  137.1950 N   0  0  1  0  0  0  0  0  0  0  0  0
  190.1570  175.2530  137.8670 C   0  0  0  0  0  1  0  0  0  0  0  0
  189.3300  178.9250  137.3710 C   0  0  2  0  0  3  0  0  0  0  0  0
  188.3080  178.9820  138.5100 C   0  0  0  0  0  2  0  0  0  0  0  0
  189.4940  176.9650  139.5340 C   0  0  0  0  0  2  0  0  0  0  0  0
  189.4020  176.5510  138.0670 C   0  0  1  0  0  3  0  0  0  0  0  0
  191.5390  177.7090  144.6940 C   0  0  0  0  0  2  0  0  0  0  0  0
  191.2710  178.8410  143.6900 C   0  0  0  0  0  2  0  0  0  0  0  0
  190.3220  176.7880  144.8790 C   0  0  2  0  0  3  0  0  0  0  0  0
  190.1370  175.4760  142.7570 C   0  0  0  0  0  1  0  0  0  0  0  0
  189.4850  177.8840  142.7310 C   0  0  1  0  0  3  0  0  0  0  0  0
  189.8930  179.0090  143.4710 O   0  0  0  0  0  0  0  0  0  0  0  0
  189.5300  176.5990  143.5750 C   0  0  2  0  0  3  0  0  0  0  0  0
  189.4850  177.3200  145.8610 O   0  0  0  0  0  0  0  0  0  0  0  0
  190.1770  177.1420  147.0610 C   0  0  0  0  0  2  0  0  0  0  0  0
  189.4860  177.9070  148.1770 C   0  0  0  0  0  2  0  0  0  0  0  0
  188.0570  177.4240  148.3370 C   0  0  0  0  0  2  0  0  0  0  0  0
  187.1020  178.5340  147.9520 C   0  0  0  0  0  1  0  0  0  0  0  0
  1  4  1  0  0  0  0
  2  3  1  0  0  0  0
  3 10  2  0  0  0  0
  5  6  1  0  0  0  0
  5  7  2  0  0  0  0
  6  9  1  0  0  0  0
  7 10  1  0  0  0  0
  7  1  1  0  0  0  0
  8  2  2  0  0  0  0
  8  5  1  0  0  0  0
  9  1  2  0  0  0  0
 12 16  1  6  0  0  0
 12  6  1  0  0  0  0
 13 11  1  6  0  0  0
 13 15  1  0  0  0  0
 13 18  1  0  0  0  0
 15 11  1  6  0  0  0
 15 16  1  0  0  0  0
 17 12  1  0  0  0  0
 18 14  1  1  0  0  0
 18 17  1  0  0  0  0
 19 21  1  0  0  0  0
 20 19  1  0  0  0  0
 21 26  1  1  0  0  0
 23  9  1  1  0  0  0
 23 24  1  0  0  0  0
 23 25  1  0  0  0  0
 24 20  1  0  0  0  0
 25 22  1  6  0  0  0
 25 21  1  0  0  0  0
 26 27  1  0  0  0  0
 27 28  1  0  0  0  0
 28 29  1  0  0  0  0
 30 29  1  0  0  0  0
M  END
>  <MODEL>
1

>  <REMARK>
 VINA RESULT:      -8.1      0.000      0.000
  Name = 
  6 active torsions:
  status: ('A' for Active; 'I' for Inactive)
    1  A    between atoms: C_5  and  O_18
    2  A    between atoms: C_7  and  N_15
    3  A    between atoms: C_8  and  C_10
    4  A    between atoms: C_8  and  C_17
    5  A    between atoms: C_12  and  C_27
    6  A    between atoms: C_17  and  O_18
                            x       y       z     vdW  Elec       q    Type
                         _______ _______ _______ _____ _____    ______ ____

>  <TORSDO>
F 6

$$$$
=
 OpenBabel11032419163D

 30 34  0  0  1  0  0  0  0  0999 V2000
  186.6670  178.2720  142.6330 C   0  0  0  0  0  0  0  0  0  0  0  0
  183.3960  178.9360  144.9740 C   0  0  0  0  0  3  0  0  0  0  0  0
  183.2600  179.2790  143.6540 N   0  0  0  0  0  0  0  0  0  0  0  0
  187.0150  178.4710  141.1960 C   0  0  0  0  0  1  0  0  0  0  0  0
  185.5880  178.2390  144.5560 C   0  0  0  0  0  0  0  0  0  0  0  0
  186.8090  177.7380  144.8240 N   0  0  0  0  0  0  0  0  0  0  0  0
  185.4680  178.5740  143.2400 C   0  0  0  0  0  0  0  0  0  0  0  0
  184.5710  178.4110  145.4370 N   0  0  0  0  0  0  0  0  0  0  0  0
  187.4790  177.7510  143.6440 C   0  0  0  0  0  0  0  0  0  0  0  0
  184.2800  179.1090  142.7620 C   0  0  0  0  0  3  0  0  0  0  0  0
  189.0370  178.7040  148.7660 C   0  0  0  0  0  2  0  0  0  0  0  0
  187.3260  177.2690  146.1080 C   0  0  2  0  0  3  0  0  0  0  0  0
  189.2160  177.3190  148.3060 N   0  0  1  0  0  0  0  0  0  0  0  0
  191.0710  176.7220  146.8440 C   0  0  0  0  0  1  0  0  0  0  0  0
  187.8540  177.9030  148.4790 C   0  0  2  0  0  3  0  0  0  0  0  0
  187.2050  178.3620  147.1700 C   0  0  0  0  0  2  0  0  0  0  0  0
  188.7560  176.7370  145.9550 C   0  0  0  0  0  2  0  0  0  0  0  0
  189.7220  177.4040  146.9320 C   0  0  1  0  0  3  0  0  0  0  0  0
  191.2680  176.4040  142.1900 C   0  0  0  0  0  2  0  0  0  0  0  0
  190.2320  175.5650  142.9530 C   0  0  0  0  0  2  0  0  0  0  0  0
  190.7240  177.7830  141.7840 C   0  0  2  0  0  3  0  0  0  0  0  0
  190.5530  179.0970  143.9050 C   0  0  0  0  0  1  0  0  0  0  0  0
  188.8920  177.2810  143.4900 C   0  0  1  0  0  3  0  0  0  0  0  0
  188.9340  176.0720  142.7700 O   0  0  0  0  0  0  0  0  0  0  0  0
  189.7660  178.3650  142.8350 C   0  0  2  0  0  3  0  0  0  0  0  0
  190.0620  177.6750  140.5580 O   0  0  0  0  0  0  0  0  0  0  0  0
  191.0020  177.1190  139.6880 C   0  0  0  0  0  2  0  0  0  0  0  0
  190.3740  176.8880  138.3250 C   0  0  0  0  0  2  0  0  0  0  0  0
  189.0340  177.5930  138.2380 C   0  0  0  0  0  2  0  0  0  0  0  0
  189.1450  178.7780  137.3030 C   0  0  0  0  0  1  0  0  0  0  0  0
  1  7  1  0  0  0  0
  1  9  2  0  0  0  0
  2  8  1  0  0  0  0
  3  2  2  0  0  0  0
  4  1  1  0  0  0  0
  5  6  1  0  0  0  0
  5  8  2  0  0  0  0
  7  5  1  0  0  0  0
  9  6  1  0  0  0  0
 10  7  2  0  0  0  0
 10  3  1  0  0  0  0
 12  6  1  6  0  0  0
 12 16  1  0  0  0  0
 13 15  1  0  0  0  0
 13 11  1  1  0  0  0
 15 16  1  6  0  0  0
 15 11  1  0  0  0  0
 17 12  1  0  0  0  0
 17 18  1  0  0  0  0
 18 14  1  1  0  0  0
 18 13  1  0  0  0  0
 19 20  1  0  0  0  0
 21 26  1  6  0  0  0
 21 19  1  0  0  0  0
 21 25  1  0  0  0  0
 23  9  1  6  0  0  0
 24 20  1  0  0  0  0
 24 23  1  0  0  0  0
 25 23  1  0  0  0  0
 25 22  1  1  0  0  0
 27 26  1  0  0  0  0
 28 27  1  0  0  0  0
 29 28  1  0  0  0  0
 30 29  1  0  0  0  0
M  END
>  <MODEL>
2

>  <REMARK>
 VINA RESULT:      -7.9      2.440      6.629
  Name = 
  6 active torsions:
  status: ('A' for Active; 'I' for Inactive)
    1  A    between atoms: C_5  and  O_18
    2  A    between atoms: C_7  and  N_15
    3  A    between atoms: C_8  and  C_10
    4  A    between atoms: C_8  and  C_17
    5  A    between atoms: C_12  and  C_27
    6  A    between atoms: C_17  and  O_18
                            x       y       z     vdW  Elec       q    Type
                         _______ _______ _______ _____ _____    ______ ____

>  <TORSDO>
F 6

$$$$
=
 OpenBabel11032419163D

 30 34  0  0  1  0  0  0  0  0999 V2000
  187.7500  178.1850  140.4420 C   0  0  0  0  0  0  0  0  0  0  0  0
  187.5440  177.2420  136.4820 C   0  0  0  0  0  3  0  0  0  0  0  0
  186.4630  177.9150  136.9870 N   0  0  0  0  0  0  0  0  0  0  0  0
  186.8690  178.8780  141.4270 C   0  0  0  0  0  1  0  0  0  0  0  0
  188.5510  177.2930  138.5910 C   0  0  0  0  0  0  0  0  0  0  0  0
  189.4910  177.0710  139.5290 N   0  0  0  0  0  0  0  0  0  0  0  0
  187.4830  177.9630  139.1090 C   0  0  0  0  0  0  0  0  0  0  0  0
  188.6030  176.9230  137.2870 N   0  0  0  0  0  0  0  0  0  0  0  0
  189.0080  177.6210  140.6710 C   0  0  0  0  0  0  0  0  0  0  0  0
  186.4040  178.2890  138.2990 C   0  0  0  0  0  3  0  0  0  0  0  0
  193.4210  176.5660  137.1330 C   0  0  0  0  0  2  0  0  0  0  0  0
  190.7730  176.3870  139.3710 C   0  0  2  0  0  3  0  0  0  0  0  0
  192.9610  175.3330  137.7890 N   0  0  1  0  0  0  0  0  0  0  0  0
  191.4910  173.7780  136.6240 C   0  0  0  0  0  1  0  0  0  0  0  0
  193.1410  176.5960  138.5630 C   0  0  2  0  0  3  0  0  0  0  0  0
  191.8340  177.3470  138.8350 C   0  0  0  0  0  2  0  0  0  0  0  0
  190.6130  175.1270  138.5110 C   0  0  0  0  0  2  0  0  0  0  0  0
  191.5850  175.1140  137.3330 C   0  0  1  0  0  3  0  0  0  0  0  0
  190.2030  177.9250  144.7650 C   0  0  0  0  0  2  0  0  0  0  0  0
  190.6830  178.8110  143.6060 C   0  0  0  0  0  2  0  0  0  0  0  0
  189.0410  177.0050  144.3600 C   0  0  2  0  0  3  0  0  0  0  0  0
  190.0390  175.2750  142.8540 C   0  0  0  0  0  1  0  0  0  0  0  0
  189.7410  177.5930  141.9770 C   0  0  1  0  0  3  0  0  0  0  0  0
  189.7260  178.8650  142.5780 O   0  0  0  0  0  0  0  0  0  0  0  0
  189.1640  176.5130  142.9100 C   0  0  2  0  0  3  0  0  0  0  0  0
  187.8340  177.6890  144.5200 O   0  0  0  0  0  0  0  0  0  0  0  0
  187.6560  177.7900  145.9010 C   0  0  0  0  0  2  0  0  0  0  0  0
  186.1980  178.0780  146.2170 C   0  0  0  0  0  2  0  0  0  0  0  0
  185.4420  178.4150  144.9460 C   0  0  0  0  0  2  0  0  0  0  0  0
  184.0510  178.8980  145.2970 C   0  0  0  0  0  1  0  0  0  0  0  0
  1  9  2  0  0  0  0
  1  4  1  0  0  0  0
  2  3  2  0  0  0  0
  2  8  1  0  0  0  0
  3 10  1  0  0  0  0
  5  7  1  0  0  0  0
  5  6  1  0  0  0  0
  6  9  1  0  0  0  0
  7  1  1  0  0  0  0
  8  5  2  0  0  0  0
 10  7  2  0  0  0  0
 12 17  1  6  0  0  0
 12  6  1  0  0  0  0
 13 11  1  6  0  0  0
 13 15  1  0  0  0  0
 15 11  1  6  0  0  0
 15 16  1  0  0  0  0
 16 12  1  0  0  0  0
 18 14  1  1  0  0  0
 18 13  1  0  0  0  0
 18 17  1  0  0  0  0
 20 19  1  0  0  0  0
 21 26  1  6  0  0  0
 21 19  1  0  0  0  0
 23  9  1  6  0  0  0
 23 24  1  0  0  0  0
 23 25  1  0  0  0  0
 24 20  1  0  0  0  0
 25 22  1  1  0  0  0
 25 21  1  0  0  0  0
 26 27  1  0  0  0  0
 27 28  1  0  0  0  0
 29 30  1  0  0  0  0
 29 28  1  0  0  0  0
M  END
>  <MODEL>
3

>  <REMARK>
 VINA RESULT:      -7.5      1.939      3.125
  Name = 
  6 active torsions:
  status: ('A' for Active; 'I' for Inactive)
    1  A    between atoms: C_5  and  O_18
    2  A    between atoms: C_7  and  N_15
    3  A    between atoms: C_8  and  C_10
    4  A    between atoms: C_8  and  C_17
    5  A    between atoms: C_12  and  C_27
    6  A    between atoms: C_17  and  O_18
                            x       y       z     vdW  Elec       q    Type
                         _______ _______ _______ _____ _____    ______ ____

>  <TORSDO>
F 6

$$$$
=
 OpenBabel11032419163D

 30 34  0  0  1  0  0  0  0  0999 V2000
  185.4400  178.7720  140.5800 C   0  0  0  0  0  0  0  0  0  0  0  0
  185.6840  178.1940  144.6080 C   0  0  0  0  0  3  0  0  0  0  0  0
  184.4610  178.5990  144.1410 N   0  0  0  0  0  0  0  0  0  0  0  0
  184.3810  179.1980  139.6200 C   0  0  0  0  0  1  0  0  0  0  0  0
  186.5210  178.2360  142.4260 C   0  0  0  0  0  0  0  0  0  0  0  0
  187.4240  178.1070  141.4350 N   0  0  0  0  0  0  0  0  0  0  0  0
  185.3110  178.6390  141.9460 C   0  0  0  0  0  0  0  0  0  0  0  0
  186.7310  178.0100  143.7470 N   0  0  0  0  0  0  0  0  0  0  0  0
  186.7650  178.4300  140.2940 C   0  0  0  0  0  0  0  0  0  0  0  0
  184.2450  178.8300  142.8120 C   0  0  0  0  0  3  0  0  0  0  0  0
  190.7280  175.9490  143.8560 C   0  0  0  0  0  2  0  0  0  0  0  0
  188.8240  177.7000  141.5410 C   0  0  2  0  0  3  0  0  0  0  0  0
  191.2230  177.0680  143.0400 N   0  0  1  0  0  0  0  0  0  0  0  0
  191.3510  179.3190  143.9620 C   0  0  0  0  0  1  0  0  0  0  0  0
  190.4110  175.9730  142.4340 C   0  0  2  0  0  3  0  0  0  0  0  0
  188.9390  176.3370  142.2210 C   0  0  0  0  0  2  0  0  0  0  0  0
  189.6530  178.7890  142.2330 C   0  0  0  0  0  2  0  0  0  0  0  0
  190.4320  178.2400  143.4270 C   0  0  1  0  0  3  0  0  0  0  0  0
  189.3410  177.8900  136.9240 C   0  0  0  0  0  2  0  0  0  0  0  0
  189.0860  179.2040  137.6770 C   0  0  0  0  0  2  0  0  0  0  0  0
  188.7290  176.6740  137.6390 C   0  0  2  0  0  3  0  0  0  0  0  0
  186.2540  176.8900  137.3450 C   0  0  0  0  0  1  0  0  0  0  0  0
  187.4050  178.4270  138.9400 C   0  0  1  0  0  3  0  0  0  0  0  0
  188.7050  178.9610  139.0070 O   0  0  0  0  0  0  0  0  0  0  0  0
  187.3990  177.0130  138.3310 C   0  0  2  0  0  3  0  0  0  0  0  0
  189.6370  176.1890  138.5830 O   0  0  0  0  0  0  0  0  0  0  0  0
  190.6220  175.5410  137.8360 C   0  0  0  0  0  2  0  0  0  0  0  0
  192.0000  175.9370  138.3400 C   0  0  0  0  0  2  0  0  0  0  0  0
  191.8850  177.0580  139.3550 C   0  0  0  0  0  2  0  0  0  0  0  0
  193.2310  177.2910  140.0070 C   0  0  0  0  0  1  0  0  0  0  0  0
  1  7  1  0  0  0  0
  3  2  1  0  0  0  0
  4  1  1  0  0  0  0
  5  8  1  0  0  0  0
  6  5  1  0  0  0  0
  7  5  2  0  0  0  0
  7 10  1  0  0  0  0
  8  2  2  0  0  0  0
  9  1  2  0  0  0  0
  9  6  1  0  0  0  0
 10  3  2  0  0  0  0
 12  6  1  1  0  0  0
 12 16  1  0  0  0  0
 12 17  1  0  0  0  0
 13 18  1  0  0  0  0
 13 11  1  1  0  0  0
 15 16  1  1  0  0  0
 15 13  1  0  0  0  0
 15 11  1  0  0  0  0
 17 18  1  0  0  0  0
 18 14  1  6  0  0  0
 19 21  1  0  0  0  0
 19 20  1  0  0  0  0
 20 24  1  0  0  0  0
 21 25  1  0  0  0  0
 21 26  1  1  0  0  0
 23 24  1  0  0  0  0
 23  9  1  1  0  0  0
 25 22  1  6  0  0  0
 25 23  1  0  0  0  0
 27 28  1  0  0  0  0
 27 26  1  0  0  0  0
 28 29  1  0  0  0  0
 29 30  1  0  0  0  0
M  END
>  <MODEL>
4

>  <REMARK>
 VINA RESULT:      -7.5      2.621      6.027
  Name = 
  6 active torsions:
  status: ('A' for Active; 'I' for Inactive)
    1  A    between atoms: C_5  and  O_18
    2  A    between atoms: C_7  and  N_15
    3  A    between atoms: C_8  and  C_10
    4  A    between atoms: C_8  and  C_17
    5  A    between atoms: C_12  and  C_27
    6  A    between atoms: C_17  and  O_18
                            x       y       z     vdW  Elec       q    Type
                         _______ _______ _______ _____ _____    ______ ____

>  <TORSDO>
F 6

$$$$
=
 OpenBabel11032419163D

 30 34  0  0  1  0  0  0  0  0999 V2000
  186.6440  178.0410  144.3460 C   0  0  0  0  0  0  0  0  0  0  0  0
  182.7130  179.0530  144.7210 C   0  0  0  0  0  3  0  0  0  0  0  0
  183.4300  179.0190  145.8880 N   0  0  0  0  0  0  0  0  0  0  0  0
  187.8000  177.8650  145.2730 C   0  0  0  0  0  1  0  0  0  0  0  0
  184.6310  178.4340  143.5360 C   0  0  0  0  0  0  0  0  0  0  0  0
  185.3880  178.1160  142.4690 N   0  0  0  0  0  0  0  0  0  0  0  0
  185.3580  178.3960  144.6880 C   0  0  0  0  0  0  0  0  0  0  0  0
  183.3140  178.7570  143.5280 N   0  0  0  0  0  0  0  0  0  0  0  0
  186.6310  177.8780  142.9580 C   0  0  0  0  0  0  0  0  0  0  0  0
  184.7560  178.6940  145.9030 C   0  0  0  0  0  3  0  0  0  0  0  0
  183.1780  180.0700  138.9000 C   0  0  0  0  0  2  0  0  0  0  0  0
  184.9800  178.0430  141.0670 C   0  0  2  0  0  3  0  0  0  0  0  0
  183.1720  178.6000  138.8710 N   0  0  1  0  0  0  0  0  0  0  0  0
  181.3670  177.3430  139.9180 C   0  0  0  0  0  1  0  0  0  0  0  0
  184.4480  179.3620  138.9980 C   0  0  2  0  0  3  0  0  0  0  0  0
  184.9880  179.4320  140.4300 C   0  0  0  0  0  2  0  0  0  0  0  0
  183.6290  177.3290  140.9330 C   0  0  0  0  0  2  0  0  0  0  0  0
  182.6150  178.1660  140.1560 C   0  0  1  0  0  3  0  0  0  0  0  0
  190.4100  177.5560  140.9840 C   0  0  0  0  0  2  0  0  0  0  0  0
  189.0900  178.0290  140.3580 C   0  0  0  0  0  2  0  0  0  0  0  0
  190.3130  177.3970  142.5100 C   0  0  2  0  0  3  0  0  0  0  0  0
  188.8850  175.3790  142.8900 C   0  0  0  0  0  1  0  0  0  0  0  0
  187.7940  177.4810  142.1020 C   0  0  1  0  0  3  0  0  0  0  0  0
  188.2330  178.5720  141.3300 O   0  0  0  0  0  0  0  0  0  0  0  0
  188.9310  176.8930  142.9570 C   0  0  2  0  0  3  0  0  0  0  0  0
  190.5830  178.6230  143.1200 O   0  0  0  0  0  0  0  0  0  0  0  0
  191.7150  178.3960  143.9040 C   0  0  0  0  0  2  0  0  0  0  0  0
  191.3020  177.9490  145.2960 C   0  0  0  0  0  2  0  0  0  0  0  0
  191.6950  176.5010  145.5200 C   0  0  0  0  0  2  0  0  0  0  0  0
  191.7370  176.2120  147.0050 C   0  0  0  0  0  1  0  0  0  0  0  0
  1  7  1  0  0  0  0
  1  4  1  0  0  0  0
  2  3  1  0  0  0  0
  3 10  2  0  0  0  0
  5  7  2  0  0  0  0
  6  9  1  0  0  0  0
  6  5  1  0  0  0  0
  7 10  1  0  0  0  0
  8  5  1  0  0  0  0
  8  2  2  0  0  0  0
  9  1  2  0  0  0  0
 12 16  1  1  0  0  0
 12  6  1  0  0  0  0
 13 11  1  1  0  0  0
 13 15  1  0  0  0  0
 13 18  1  0  0  0  0
 15 11  1  1  0  0  0
 15 16  1  0  0  0  0
 17 12  1  0  0  0  0
 18 14  1  6  0  0  0
 18 17  1  0  0  0  0
 19 21  1  0  0  0  0
 20 19  1  0  0  0  0
 20 24  1  0  0  0  0
 21 25  1  0  0  0  0
 21 26  1  1  0  0  0
 23 25  1  0  0  0  0
 23  9  1  1  0  0  0
 24 23  1  0  0  0  0
 25 22  1  6  0  0  0
 26 27  1  0  0  0  0
 27 28  1  0  0  0  0
 28 29  1  0  0  0  0
 29 30  1  0  0  0  0
M  END
>  <MODEL>
5

>  <REMARK>
 VINA RESULT:      -7.2      2.461      4.439
  Name = 
  6 active torsions:
  status: ('A' for Active; 'I' for Inactive)
    1  A    between atoms: C_5  and  O_18
    2  A    between atoms: C_7  and  N_15
    3  A    between atoms: C_8  and  C_10
    4  A    between atoms: C_8  and  C_17
    5  A    between atoms: C_12  and  C_27
    6  A    between atoms: C_17  and  O_18
                            x       y       z     vdW  Elec       q    Type
                         _______ _______ _______ _____ _____    ______ ____

>  <TORSDO>
F 6

$$$$
=
 OpenBabel11032419163D

 30 34  0  0  1  0  0  0  0  0999 V2000
  187.5050  178.2180  141.5530 C   0  0  0  0  0  0  0  0  0  0  0  0
  183.6150  178.8870  142.5720 C   0  0  0  0  0  3  0  0  0  0  0  0
  183.9470  179.1790  141.2750 N   0  0  0  0  0  0  0  0  0  0  0  0
  188.3340  178.3730  140.3220 C   0  0  0  0  0  1  0  0  0  0  0  0
  185.8210  178.2280  142.9770 C   0  0  0  0  0  0  0  0  0  0  0  0
  186.8760  177.7670  143.6770 N   0  0  0  0  0  0  0  0  0  0  0  0
  186.1660  178.5130  141.6900 C   0  0  0  0  0  0  0  0  0  0  0  0
  184.5580  178.4070  143.4380 N   0  0  0  0  0  0  0  0  0  0  0  0
  187.9160  177.7530  142.8060 C   0  0  0  0  0  0  0  0  0  0  0  0
  185.2160  179.0020  140.8050 C   0  0  0  0  0  3  0  0  0  0  0  0
  187.6430  178.9080  148.0980 C   0  0  0  0  0  2  0  0  0  0  0  0
  186.9140  177.3560  145.0790 C   0  0  2  0  0  3  0  0  0  0  0  0
  187.9400  177.5020  147.7860 N   0  0  1  0  0  0  0  0  0  0  0  0
  190.1710  176.8310  147.0730 C   0  0  0  0  0  1  0  0  0  0  0  0
  186.6130  178.0990  147.4580 C   0  0  2  0  0  3  0  0  0  0  0  0
  186.4590  178.4980  145.9870 C   0  0  0  0  0  2  0  0  0  0  0  0
  188.3000  176.8120  145.4460 C   0  0  0  0  0  2  0  0  0  0  0  0
  188.8860  177.5210  146.6660 C   0  0  1  0  0  3  0  0  0  0  0  0
  191.9730  176.4010  142.8300 C   0  0  0  0  0  2  0  0  0  0  0  0
  190.7390  175.5970  143.2670 C   0  0  0  0  0  2  0  0  0  0  0  0
  191.5980  177.7270  142.1490 C   0  0  2  0  0  3  0  0  0  0  0  0
  190.7230  179.2000  143.9720 C   0  0  0  0  0  1  0  0  0  0  0  0
  189.2980  177.3110  143.1760 C   0  0  1  0  0  3  0  0  0  0  0  0
  189.5800  176.0510  142.6160 O   0  0  0  0  0  0  0  0  0  0  0  0
  190.3420  178.3640  142.7650 C   0  0  2  0  0  3  0  0  0  0  0  0
  191.3890  177.5040  140.7870 O   0  0  0  0  0  0  0  0  0  0  0  0
  192.6660  177.4810  140.2240 C   0  0  0  0  0  2  0  0  0  0  0  0
  192.6130  176.8570  138.8400 C   0  0  0  0  0  2  0  0  0  0  0  0
  193.8260  175.9740  138.6160 C   0  0  0  0  0  2  0  0  0  0  0  0
  193.4070  174.7130  137.8910 C   0  0  0  0  0  1  0  0  0  0  0  0
  1  7  1  0  0  0  0
  1  9  2  0  0  0  0
  2  8  1  0  0  0  0
  3  2  2  0  0  0  0
  4  1  1  0  0  0  0
  5  8  2  0  0  0  0
  5  6  1  0  0  0  0
  7  5  1  0  0  0  0
  9  6  1  0  0  0  0
 10  3  1  0  0  0  0
 10  7  2  0  0  0  0
 12  6  1  6  0  0  0
 12 17  1  0  0  0  0
 12 16  1  0  0  0  0
 13 11  1  1  0  0  0
 15 16  1  6  0  0  0
 15 13  1  0  0  0  0
 15 11  1  0  0  0  0
 17 18  1  0  0  0  0
 18 14  1  1  0  0  0
 18 13  1  0  0  0  0
 19 20  1  0  0  0  0
 21 26  1  6  0  0  0
 21 25  1  0  0  0  0
 21 19  1  0  0  0  0
 23  9  1  6  0  0  0
 24 23  1  0  0  0  0
 24 20  1  0  0  0  0
 25 23  1  0  0  0  0
 25 22  1  1  0  0  0
 27 26  1  0  0  0  0
 28 27  1  0  0  0  0
 29 28  1  0  0  0  0
 30 29  1  0  0  0  0
M  END
>  <MODEL>
6

>  <REMARK>
 VINA RESULT:      -7.1      2.356      6.446
  Name = 
  6 active torsions:
  status: ('A' for Active; 'I' for Inactive)
    1  A    between atoms: C_5  and  O_18
    2  A    between atoms: C_7  and  N_15
    3  A    between atoms: C_8  and  C_10
    4  A    between atoms: C_8  and  C_17
    5  A    between atoms: C_12  and  C_27
    6  A    between atoms: C_17  and  O_18
                            x       y       z     vdW  Elec       q    Type
                         _______ _______ _______ _____ _____    ______ ____

>  <TORSDO>
F 6

$$$$
=
 OpenBabel11032419163D

 30 34  0  0  1  0  0  0  0  0999 V2000
  185.4860  178.6910  140.2820 C   0  0  0  0  0  0  0  0  0  0  0  0
  185.6540  178.2430  144.3300 C   0  0  0  0  0  3  0  0  0  0  0  0
  184.4260  178.5730  143.8210 N   0  0  0  0  0  0  0  0  0  0  0  0
  184.4330  179.0360  139.2840 C   0  0  0  0  0  1  0  0  0  0  0  0
  186.5440  178.2630  142.1690 C   0  0  0  0  0  0  0  0  0  0  0  0
  187.4780  178.1500  141.2040 N   0  0  0  0  0  0  0  0  0  0  0  0
  185.3290  178.5910  141.6470 C   0  0  0  0  0  0  0  0  0  0  0  0
  186.7300  178.0850  143.5000 N   0  0  0  0  0  0  0  0  0  0  0  0
  186.8330  178.4070  140.0380 C   0  0  0  0  0  0  0  0  0  0  0  0
  184.2330  178.7540  142.4810 C   0  0  0  0  0  3  0  0  0  0  0  0
  190.7800  176.0000  143.6340 C   0  0  0  0  0  2  0  0  0  0  0  0
  188.8930  177.8160  141.3570 C   0  0  2  0  0  3  0  0  0  0  0  0
  191.2460  177.2050  142.9340 N   0  0  1  0  0  0  0  0  0  0  0  0
  191.1910  179.3810  144.0280 C   0  0  0  0  0  1  0  0  0  0  0  0
  190.5350  176.1170  142.2030 C   0  0  2  0  0  3  0  0  0  0  0  0
  189.0550  176.4120  141.9380 C   0  0  0  0  0  2  0  0  0  0  0  0
  189.6180  178.8920  142.1740 C   0  0  0  0  0  2  0  0  0  0  0  0
  190.3670  178.2970  143.3640 C   0  0  1  0  0  3  0  0  0  0  0  0
  189.5240  177.9090  136.7520 C   0  0  0  0  0  2  0  0  0  0  0  0
  189.1710  179.2300  137.4510 C   0  0  0  0  0  2  0  0  0  0  0  0
  188.9680  176.6840  137.4960 C   0  0  2  0  0  3  0  0  0  0  0  0
  186.4930  176.7380  137.1350 C   0  0  0  0  0  1  0  0  0  0  0  0
  187.5070  178.3960  138.7010 C   0  0  1  0  0  3  0  0  0  0  0  0
  188.7710  179.0100  138.7800 O   0  0  0  0  0  0  0  0  0  0  0  0
  187.6030  176.9650  138.1430 C   0  0  2  0  0  3  0  0  0  0  0  0
  189.8780  176.2870  138.4780 O   0  0  0  0  0  0  0  0  0  0  0  0
  190.5500  175.1940  137.9280 C   0  0  0  0  0  2  0  0  0  0  0  0
  190.0340  174.9210  136.5250 C   0  0  0  0  0  2  0  0  0  0  0  0
  189.8520  173.4300  136.3140 C   0  0  0  0  0  2  0  0  0  0  0  0
  188.5830  172.9730  137.0020 C   0  0  0  0  0  1  0  0  0  0  0  0
  1  7  1  0  0  0  0
  3  2  1  0  0  0  0
  4  1  1  0  0  0  0
  5  8  1  0  0  0  0
  6  5  1  0  0  0  0
  7  5  2  0  0  0  0
  7 10  1  0  0  0  0
  8  2  2  0  0  0  0
  9  1  2  0  0  0  0
  9  6  1  0  0  0  0
 10  3  2  0  0  0  0
 12  6  1  1  0  0  0
 12 16  1  0  0  0  0
 12 17  1  0  0  0  0
 13 18  1  0  0  0  0
 13 11  1  1  0  0  0
 15 16  1  1  0  0  0
 15 13  1  0  0  0  0
 15 11  1  0  0  0  0
 17 18  1  0  0  0  0
 18 14  1  6  0  0  0
 19 20  1  0  0  0  0
 19 21  1  0  0  0  0
 20 24  1  0  0  0  0
 21 25  1  0  0  0  0
 21 26  1  1  0  0  0
 23 24  1  0  0  0  0
 23  9  1  1  0  0  0
 25 22  1  6  0  0  0
 25 23  1  0  0  0  0
 27 26  1  0  0  0  0
 28 27  1  0  0  0  0
 29 28  1  0  0  0  0
 29 30  1  0  0  0  0
M  END
>  <MODEL>
7

>  <REMARK>
 VINA RESULT:      -6.6      2.662      6.440
  Name = 
  6 active torsions:
  status: ('A' for Active; 'I' for Inactive)
    1  A    between atoms: C_5  and  O_18
    2  A    between atoms: C_7  and  N_15
    3  A    between atoms: C_8  and  C_10
    4  A    between atoms: C_8  and  C_17
    5  A    between atoms: C_12  and  C_27
    6  A    between atoms: C_17  and  O_18
                            x       y       z     vdW  Elec       q    Type
                         _______ _______ _______ _____ _____    ______ ____

>  <TORSDO>
F 6

$$$$
=
 OpenBabel11032419163D

 30 34  0  0  1  0  0  0  0  0999 V2000
  191.5790  176.9410  140.3080 C   0  0  0  0  0  0  0  0  0  0  0  0
  192.5380  176.3560  136.3890 C   0  0  0  0  0  3  0  0  0  0  0  0
  193.5910  176.6260  137.2230 N   0  0  0  0  0  0  0  0  0  0  0  0
  192.3260  177.2550  141.5600 C   0  0  0  0  0  1  0  0  0  0  0  0
  191.0730  176.5110  138.2040 C   0  0  0  0  0  0  0  0  0  0  0  0
  189.8990  176.4930  138.8630 N   0  0  0  0  0  0  0  0  0  0  0  0
  192.1100  176.7810  139.0470 C   0  0  0  0  0  0  0  0  0  0  0  0
  191.2620  176.2970  136.8780 N   0  0  0  0  0  0  0  0  0  0  0  0
  190.2010  176.7520  140.1600 C   0  0  0  0  0  0  0  0  0  0  0  0
  193.4070  176.8440  138.5590 C   0  0  0  0  0  3  0  0  0  0  0  0
  187.3010  174.8260  135.4130 C   0  0  0  0  0  2  0  0  0  0  0  0
  188.5660  176.2440  138.3180 C   0  0  2  0  0  3  0  0  0  0  0  0
  186.6830  175.9480  136.1340 N   0  0  1  0  0  0  0  0  0  0  0  0
  187.0330  178.2440  135.3990 C   0  0  0  0  0  1  0  0  0  0  0  0
  187.1770  174.7430  136.8620 C   0  0  2  0  0  3  0  0  0  0  0  0
  188.5430  174.9370  137.5260 C   0  0  0  0  0  2  0  0  0  0  0  0
  188.0810  177.4490  137.5020 C   0  0  0  0  0  2  0  0  0  0  0  0
  187.6520  177.0470  136.0920 C   0  0  1  0  0  3  0  0  0  0  0  0
  188.0940  177.2640  143.8460 C   0  0  0  0  0  2  0  0  0  0  0  0
  188.4120  175.9310  143.1530 C   0  0  0  0  0  2  0  0  0  0  0  0
  188.8090  178.4540  143.1860 C   0  0  2  0  0  3  0  0  0  0  0  0
  187.6630  178.8010  140.9900 C   0  0  0  0  0  1  0  0  0  0  0  0
  189.1760  176.8330  141.2480 C   0  0  1  0  0  3  0  0  0  0  0  0
  189.5570  176.0390  142.3450 O   0  0  0  0  0  0  0  0  0  0  0  0
  188.9250  178.2940  141.6620 C   0  0  2  0  0  3  0  0  0  0  0  0
  190.0840  178.5900  143.7390 O   0  0  0  0  0  0  0  0  0  0  0  0
  189.9450  178.1910  145.0690 C   0  0  0  0  0  2  0  0  0  0  0  0
  191.1590  177.3840  145.4990 C   0  0  0  0  0  2  0  0  0  0  0  0
  190.8950  176.7050  146.8290 C   0  0  0  0  0  2  0  0  0  0  0  0
  189.5500  177.1500  147.3650 C   0  0  0  0  0  1  0  0  0  0  0  0
  1  4  1  0  0  0  0
  2  8  2  0  0  0  0
  2  3  1  0  0  0  0
  3 10  2  0  0  0  0
  5  6  1  0  0  0  0
  5  7  2  0  0  0  0
  6  9  1  0  0  0  0
  7  1  1  0  0  0  0
  8  5  1  0  0  0  0
  9  1  2  0  0  0  0
 10  7  1  0  0  0  0
 12 17  1  6  0  0  0
 12  6  1  0  0  0  0
 13 11  1  6  0  0  0
 13 15  1  0  0  0  0
 15 11  1  6  0  0  0
 15 16  1  0  0  0  0
 16 12  1  0  0  0  0
 18 14  1  1  0  0  0
 18 13  1  0  0  0  0
 18 17  1  0  0  0  0
 20 19  1  0  0  0  0
 21 26  1  1  0  0  0
 21 19  1  0  0  0  0
 23  9  1  6  0  0  0
 23 25  1  0  0  0  0
 23 24  1  0  0  0  0
 24 20  1  0  0  0  0
 25 22  1  6  0  0  0
 25 21  1  0  0  0  0
 26 27  1  0  0  0  0
 27 28  1  0  0  0  0
 28 29  1  0  0  0  0
 29 30  1  0  0  0  0
M  END
>  <MODEL>
8

>  <REMARK>
 VINA RESULT:      -6.6      2.287      4.936
  Name = 
  6 active torsions:
  status: ('A' for Active; 'I' for Inactive)
    1  A    between atoms: C_5  and  O_18
    2  A    between atoms: C_7  and  N_15
    3  A    between atoms: C_8  and  C_10
    4  A    between atoms: C_8  and  C_17
    5  A    between atoms: C_12  and  C_27
    6  A    between atoms: C_17  and  O_18
                            x       y       z     vdW  Elec       q    Type
                         _______ _______ _______ _____ _____    ______ ____

>  <TORSDO>
F 6

$$$$
=
 OpenBabel11032419163D

 30 34  0  0  1  0  0  0  0  0999 V2000
  184.1040  178.5140  143.7190 C   0  0  0  0  0  0  0  0  0  0  0  0
  186.6020  178.6250  146.9380 C   0  0  0  0  0  3  0  0  0  0  0  0
  185.3050  178.9940  147.1820 N   0  0  0  0  0  0  0  0  0  0  0  0
  182.6630  178.8120  143.4680 C   0  0  0  0  0  1  0  0  0  0  0  0
  186.0660  178.2580  144.6930 C   0  0  0  0  0  0  0  0  0  0  0  0
  186.2620  177.9240  143.4030 N   0  0  0  0  0  0  0  0  0  0  0  0
  184.7720  178.6220  144.9190 C   0  0  0  0  0  0  0  0  0  0  0  0
  186.9940  178.2530  145.6820 N   0  0  0  0  0  0  0  0  0  0  0  0
  185.0580  178.0740  142.7970 C   0  0  0  0  0  0  0  0  0  0  0  0
  184.3660  179.0020  146.1900 C   0  0  0  0  0  3  0  0  0  0  0  0
  190.3630  175.8130  143.8050 C   0  0  0  0  0  2  0  0  0  0  0  0
  187.5030  177.4840  142.7670 C   0  0  2  0  0  3  0  0  0  0  0  0
  190.3350  176.8690  142.7820 N   0  0  1  0  0  0  0  0  0  0  0  0
  190.9240  179.1650  143.3480 C   0  0  0  0  0  1  0  0  0  0  0  0
  189.3320  175.7650  142.7760 C   0  0  2  0  0  3  0  0  0  0  0  0
  187.9740  176.1580  143.3640 C   0  0  0  0  0  2  0  0  0  0  0  0
  188.5670  178.5860  142.8370 C   0  0  0  0  0  2  0  0  0  0  0  0
  189.8690  178.0840  143.4590 C   0  0  1  0  0  3  0  0  0  0  0  0
  183.6710  178.0670  138.7520 C   0  0  0  0  0  2  0  0  0  0  0  0
  183.4280  176.9730  139.8020 C   0  0  0  0  0  2  0  0  0  0  0  0
  184.3070  179.3300  139.3540 C   0  0  2  0  0  3  0  0  0  0  0  0
  186.6650  178.7030  139.9070 C   0  0  0  0  0  1  0  0  0  0  0  0
  184.8260  177.8120  141.3410 C   0  0  1  0  0  3  0  0  0  0  0  0
  183.4750  177.5000  141.1040 O   0  0  0  0  0  0  0  0  0  0  0  0
  185.2950  179.0030  140.4850 C   0  0  2  0  0  3  0  0  0  0  0  0
  183.3000  180.1660  139.8420 O   0  0  0  0  0  0  0  0  0  0  0  0
  182.5420  180.5100  138.7200 C   0  0  0  0  0  2  0  0  0  0  0  0
  181.0820  180.1600  138.9540 C   0  0  0  0  0  2  0  0  0  0  0  0
  180.8320  179.9090  140.4280 C   0  0  0  0  0  2  0  0  0  0  0  0
  180.1090  178.5900  140.6020 C   0  0  0  0  0  1  0  0  0  0  0  0
  1  7  1  0  0  0  0
  2  3  1  0  0  0  0
  4  1  1  0  0  0  0
  5  7  2  0  0  0  0
  5  8  1  0  0  0  0
  6  5  1  0  0  0  0
  7 10  1  0  0  0  0
  8  2  2  0  0  0  0
  9  6  1  0  0  0  0
  9  1  2  0  0  0  0
 10  3  2  0  0  0  0
 12 17  1  1  0  0  0
 12 16  1  0  0  0  0
 12  6  1  0  0  0  0
 13 18  1  0  0  0  0
 13 11  1  1  0  0  0
 15 13  1  0  0  0  0
 15 16  1  1  0  0  0
 15 11  1  0  0  0  0
 17 18  1  0  0  0  0
 18 14  1  6  0  0  0
 19 21  1  0  0  0  0
 19 20  1  0  0  0  0
 20 24  1  0  0  0  0
 21 26  1  1  0  0  0
 21 25  1  0  0  0  0
 23  9  1  1  0  0  0
 24 23  1  0  0  0  0
 25 22  1  6  0  0  0
 25 23  1  0  0  0  0
 27 28  1  0  0  0  0
 27 26  1  0  0  0  0
 28 29  1  0  0  0  0
 29 30  1  0  0  0  0
M  END
>  <MODEL>
9

>  <REMARK>
 VINA RESULT:      -6.6      3.244      7.051
  Name = 
  6 active torsions:
  status: ('A' for Active; 'I' for Inactive)
    1  A    between atoms: C_5  and  O_18
    2  A    between atoms: C_7  and  N_15
    3  A    between atoms: C_8  and  C_10
    4  A    between atoms: C_8  and  C_17
    5  A    between atoms: C_12  and  C_27
    6  A    between atoms: C_17  and  O_18
                            x       y       z     vdW  Elec       q    Type
                         _______ _______ _______ _____ _____    ______ ____

>  <TORSDO>
F 6

$$$$
