=
 OpenBabel11032419213D

 70 72  0  0  1  0  0  0  0  0999 V2000
  184.6700  176.8620  137.4950 C   0  0  0  0  0  0  0  0  0  0  0  0
  188.4830  176.7640  141.8870 C   0  0  0  0  0  2  0  0  0  0  0  0
  192.2870  174.2510  136.4990 C   0  0  0  0  0  2  0  0  0  0  0  0
  187.9510  178.6800  138.8530 O   0  0  0  0  0  1  0  0  0  0  0  0
  190.8980  175.1210  134.6010 C   0  0  0  0  0  2  0  0  0  0  0  0
  183.3860  176.5920  137.1650 C   0  0  0  0  0  0  0  0  0  0  0  0
  189.8380  176.9840  139.8720 C   0  0  0  0  0  2  0  0  0  0  0  0
  192.5580  175.8900  139.1560 C   0  0  0  0  0  2  0  0  0  0  0  0
  191.1420  177.4620  140.4960 C   0  0  0  0  0  2  0  0  0  0  0  0
  192.1990  175.2730  135.3730 C   0  0  0  0  0  2  0  0  0  0  0  0
  189.7540  177.1260  135.5410 C   0  0  0  0  0  1  0  0  0  0  0  0
  189.7100  175.6150  135.4130 C   0  0  1  0  0  3  0  0  0  0  0  0
  186.6260  176.1200  136.1580 C   0  0  0  0  0  2  0  0  0  0  0  0
  185.1220  178.3490  139.4490 C   0  0  0  0  0  2  0  0  0  0  0  0
  193.5320  174.4520  137.3660 C   0  0  2  0  0  3  0  0  0  0  0  0
  186.2500  177.5430  140.0870 C   0  0  0  0  0  2  0  0  0  0  0  0
  185.1230  178.2250  137.9340 C   0  0  0  0  0  2  0  0  0  0  0  0
  187.5900  178.3000  140.1510 C   0  0  1  0  0  0  0  0  0  0  0  0
  187.3330  174.8540  135.6790 C   0  0  2  0  0  3  0  0  0  0  0  0
  183.0290  175.2390  136.6200 C   0  0  0  0  0  1  0  0  0  0  0  0
  185.7310  175.8130  137.3380 C   0  0  0  0  0  2  0  0  0  0  0  0
  193.5530  175.8280  138.0190 C   0  0  0  0  0  2  0  0  0  0  0  0
  192.2710  177.3410  139.4880 C   0  0  0  0  0  2  0  0  0  0  0  0
  188.6570  177.3770  140.7110 C   0  0  0  0  0  0  0  0  0  0  0  0
  188.4330  175.2070  134.6960 C   0  0  0  0  0  2  0  0  0  0  0  0
  180.5080  178.5850  138.6040 C   0  0  0  0  0  3  0  0  0  0  0  0
  181.5210  177.6380  138.4530 C   0  0  0  0  0  3  0  0  0  0  0  0
  182.0260  178.5160  136.2620 C   0  0  0  0  0  3  0  0  0  0  0  0
  182.2810  177.5810  137.2740 C   0  0  0  0  0  0  0  0  0  0  0  0
  180.2360  179.4920  137.5750 C   0  0  0  0  0  0  0  0  0  0  0  0
  181.0070  179.4630  136.4080 C   0  0  0  0  0  3  0  0  0  0  0  0
  179.1740  180.5250  137.7710 C   0  0  0  0  0  2  0  0  0  0  0  0
  179.7270  181.9070  137.6440 C   0  0  0  0  0  0  0  0  0  0  0  0
  179.5470  182.6500  136.4440 N   0  0  0  0  0  1  0  0  0  0  0  0
  180.3300  182.4300  138.6210 O   0  0  0  0  0  0  0  0  0  0  0  0
  195.0540  174.2040  136.4040 S   0  0  0  0  0  0  0  0  0  0  0  0
  196.0550  173.9830  137.9030 C   0  0  0  0  0  2  0  0  0  0  0  0
  197.4680  174.5320  137.7030 C   0  0  2  0  0  3  0  0  0  0  0  0
  198.9090  174.1100  135.5660 C   0  0  1  0  0  3  0  0  0  0  0  0
  198.8830  172.3120  137.3640 C   0  0  0  0  0  1  0  0  0  0  0  0
  198.2960  173.5980  136.8130 C   0  0  1  0  0  0  0  0  0  0  0  0
  197.6950  173.3880  135.5590 O   0  0  0  0  0  0  0  0  0  0  0  0
  198.6340  175.4700  135.3750 O   0  0  0  0  0  1  0  0  0  0  0  0
  197.4600  174.3350  140.1160 O   0  0  0  0  0  1  0  0  0  0  0  0
  198.4310  176.1740  139.1770 O   0  0  0  0  0  1  0  0  0  0  0  0
  198.1920  174.8060  139.0240 C   0  0  0  0  0  3  0  0  0  0  0  0
  187.4890  179.5880  140.9890 C   0  0  0  0  0  2  0  0  0  0  0  0
  186.2770  179.6440  141.9180 C   0  0  0  0  0  2  0  0  0  0  0  0
  185.5920  178.0190  143.7470 C   0  0  0  0  0  0  0  0  0  0  0  0
  186.5380  178.9140  143.1530 N   0  0  0  0  0  2  0  0  0  0  0  0
  184.4090  177.9620  143.3240 O   0  0  0  0  0  0  0  0  0  0  0  0
  186.1250  176.9060  145.0490 S   0  0  0  0  0  0  0  0  0  0  0  0
  187.5220  177.9200  145.6700 C   0  0  1  0  0  3  0  0  0  0  0  0
  187.1430  178.5840  146.9870 C   0  0  0  0  0  1  0  0  0  0  0  0
  188.8630  177.1650  145.7590 C   0  0  2  0  0  3  0  0  0  0  0  0
  189.4600  177.1740  147.5010 P   0  0  2  0  0  0  0  0  0  0  0  0
  190.8140  176.1620  147.6320 O   0  0  0  0  0  0  0  0  0  0  0  0
  188.1780  176.5540  148.6310 C   0  0  0  0  0  1  0  0  0  0  0  0
  189.8610  178.5630  147.9360 O   0  0  0  0  0  1  0  0  0  0  0  0
  190.1370  177.8550  144.5470 P   0  0  1  0  0  0  0  0  0  0  0  0
  191.3410  178.3840  145.6820 O   0  0  0  0  0  1  0  0  0  0  0  0
  190.9970  176.3100  143.9630 C   0  0  0  0  0  1  0  0  0  0  0  0
  186.3810  173.9730  135.0170 N   0  0  0  0  0  2  0  0  0  0  0  0
  186.2390  172.7920  135.8500 C   0  0  0  0  0  2  0  0  0  0  0  0
  184.8040  170.3840  135.4000 O   0  0  0  0  0  0  0  0  0  0  0  0
  184.8330  172.5900  136.1570 N   0  0  0  0  0  2  0  0  0  0  0  0
  184.1670  171.3520  135.8960 C   0  0  0  0  0  0  0  0  0  0  0  0
  182.7400  171.2070  136.2150 C   0  0  0  0  0  0  0  0  0  0  0  0
  181.6900  171.4500  135.1860 C   0  0  0  0  0  1  0  0  0  0  0  0
  182.3950  170.8910  137.3840 O   0  0  0  0  0  0  0  0  0  0  0  0
  1 17  1  0  0  0  0
  3 15  1  0  0  0  0
  5 10  1  0  0  0  0
  5 12  1  0  0  0  0
  6 29  1  0  0  0  0
  6  1  2  0  0  0  0
  7  9  1  0  0  0  0
  7 24  1  0  0  0  0
  8 23  1  0  0  0  0
 10  3  1  0  0  0  0
 12 11  1  6  0  0  0
 13 21  1  0  0  0  0
 14 16  1  0  0  0  0
 15 36  1  6  0  0  0
 15 22  1  0  0  0  0
 16 18  1  0  0  0  0
 17 14  1  0  0  0  0
 18  4  1  6  0  0  0
 18 24  1  0  0  0  0
 18 47  1  0  0  0  0
 19 63  1  6  0  0  0
 19 13  1  0  0  0  0
 20  6  1  0  0  0  0
 21  1  1  0  0  0  0
 22  8  1  0  0  0  0
 23  9  1  0  0  0  0
 24  2  2  0  0  0  0
 25 12  1  0  0  0  0
 25 19  1  0  0  0  0
 27 26  1  0  0  0  0
 28 31  2  0  0  0  0
 28 29  1  0  0  0  0
 29 27  2  0  0  0  0
 30 32  1  0  0  0  0
 30 26  2  0  0  0  0
 31 30  1  0  0  0  0
 33 32  1  0  0  0  0
 33 35  2  0  0  0  0
 34 33  1  0  0  0  0
 36 37  1  0  0  0  0
 38 37  1  1  0  0  0
 38 46  1  0  0  0  0
 39 43  1  1  0  0  0
 39 41  1  0  0  0  0
 41 40  1  1  0  0  0
 41 38  1  0  0  0  0
 42 39  1  0  0  0  0
 42 41  1  0  0  0  0
 46 45  1  0  0  0  0
 46 44  1  0  0  0  0
 47 48  1  0  0  0  0
 48 50  1  0  0  0  0
 49 52  1  0  0  0  0
 50 49  1  0  0  0  0
 51 49  2  0  0  0  0
 52 53  1  0  0  0  0
 53 54  1  1  0  0  0
 55 53  1  1  0  0  0
 55 56  1  0  0  0  0
 56 57  2  0  0  0  0
 56 59  1  0  0  0  0
 56 58  1  1  0  0  0
 60 62  1  6  0  0  0
 60 61  1  0  0  0  0
 60 55  1  0  0  0  0
 63 64  1  0  0  0  0
 64 66  1  0  0  0  0
 65 67  2  0  0  0  0
 67 66  1  0  0  0  0
 67 68  1  0  0  0  0
 68 70  2  0  0  0  0
 69 68  1  0  0  0  0
M  END
>  <MODEL>
1

>  <REMARK>
 VINA RESULT:      -3.5      0.000      0.000
  Name = 
  20 active torsions:
  status: ('A' for Active; 'I' for Inactive)
    1  A    between atoms: C_3  and  C_15
    2  A    between atoms: C_3  and  P_16
    3  A    between atoms: C_3  and  P_28
    4  A    between atoms: C_5  and  C_51
    5  A    between atoms: C_7  and  C_21
    6  A    between atoms: S_12  and  C_41
    7  A    between atoms: S_12  and  C_46
    8  A    between atoms: C_13  and  C_26
    9  A    between atoms: C_14  and  S_54
   10  A    between atoms: C_15  and  S_54
   11  A    between atoms: C_17  and  C_25
   12  A    between atoms: C_19  and  C_45
   13  A    between atoms: C_19  and  C_55
   14  A    between atoms: C_21  and  C_47
   15  A    between atoms: N_24  and  C_56
   16  A    between atoms: C_25  and  C_41
   17  A    between atoms: C_25  and  C_66
   18  A    between atoms: N_32  and  C_45
   19  A    between atoms: N_40  and  C_56
   20  A    between atoms: N_40  and  C_57
                            x       y       z     vdW  Elec       q    Type
                         _______ _______ _______ _____ _____    ______ ____

>  <TORSDO>
F 20

$$$$
=
 OpenBabel11032419213D

 70 72  0  0  1  0  0  0  0  0999 V2000
  184.7110  177.5390  137.7340 C   0  0  0  0  0  0  0  0  0  0  0  0
  188.4620  176.4410  142.0430 C   0  0  0  0  0  2  0  0  0  0  0  0
  192.3260  175.1460  136.2790 C   0  0  0  0  0  2  0  0  0  0  0  0
  187.9830  178.9840  139.5000 O   0  0  0  0  0  1  0  0  0  0  0  0
  190.9680  176.4270  134.6040 C   0  0  0  0  0  2  0  0  0  0  0  0
  183.4300  177.3600  137.3370 C   0  0  0  0  0  0  0  0  0  0  0  0
  189.8460  177.0880  140.1420 C   0  0  0  0  0  2  0  0  0  0  0  0
  192.5700  176.1560  139.2360 C   0  0  0  0  0  2  0  0  0  0  0  0
  191.1440  177.4050  140.8730 C   0  0  0  0  0  2  0  0  0  0  0  0
  192.2590  176.3930  135.4070 C   0  0  0  0  0  2  0  0  0  0  0  0
  189.8230  178.1840  135.9500 C   0  0  0  0  0  1  0  0  0  0  0  0
  189.7720  176.7390  135.4900 C   0  0  1  0  0  3  0  0  0  0  0  0
  186.6810  177.0940  136.2910 C   0  0  0  0  0  2  0  0  0  0  0  0
  185.1450  178.5540  139.9740 C   0  0  0  0  0  2  0  0  0  0  0  0
  193.5590  175.1400  137.1840 C   0  0  2  0  0  3  0  0  0  0  0  0
  186.2590  177.6170  140.4320 C   0  0  0  0  0  2  0  0  0  0  0  0
  185.1660  178.7670  138.4690 C   0  0  0  0  0  2  0  0  0  0  0  0
  187.6020  178.3300  140.6780 C   0  0  1  0  0  0  0  0  0  0  0  0
  187.3870  175.9590  135.5520 C   0  0  2  0  0  3  0  0  0  0  0  0
  183.0730  176.1640  136.5020 C   0  0  0  0  0  1  0  0  0  0  0  0
  185.7670  176.5410  137.3620 C   0  0  0  0  0  2  0  0  0  0  0  0
  193.5790  176.3380  138.1250 C   0  0  0  0  0  2  0  0  0  0  0  0
  192.2860  177.5000  139.8770 C   0  0  0  0  0  2  0  0  0  0  0  0
  188.6560  177.2970  141.0330 C   0  0  0  0  0  0  0  0  0  0  0  0
  188.5030  176.5100  134.6860 C   0  0  0  0  0  2  0  0  0  0  0  0
  181.3810  179.9820  139.1400 C   0  0  0  0  0  3  0  0  0  0  0  0
  182.3730  179.0490  138.8410 C   0  0  0  0  0  3  0  0  0  0  0  0
  181.2850  178.5500  136.7450 C   0  0  0  0  0  3  0  0  0  0  0  0
  182.3290  178.3100  137.6480 C   0  0  0  0  0  0  0  0  0  0  0  0
  180.3230  180.1900  138.2500 C   0  0  0  0  0  0  0  0  0  0  0  0
  180.2850  179.4810  137.0450 C   0  0  0  0  0  3  0  0  0  0  0  0
  179.2910  181.2230  138.5690 C   0  0  0  0  0  2  0  0  0  0  0  0
  179.8260  182.6050  138.3860 C   0  0  0  0  0  0  0  0  0  0  0  0
  179.1280  183.7270  138.9140 N   0  0  0  0  0  1  0  0  0  0  0  0
  180.9220  182.7750  137.7850 O   0  0  0  0  0  0  0  0  0  0  0  0
  195.0930  175.0980  136.2100 S   0  0  0  0  0  0  0  0  0  0  0  0
  195.7830  173.7510  137.2150 C   0  0  0  0  0  2  0  0  0  0  0  0
  196.3230  172.6290  136.3280 C   0  0  2  0  0  3  0  0  0  0  0  0
  194.9200  170.4290  136.4390 C   0  0  1  0  0  3  0  0  0  0  0  0
  197.1020  170.5230  137.7430 C   0  0  0  0  0  1  0  0  0  0  0  0
  196.0380  171.2560  136.9490 C   0  0  1  0  0  0  0  0  0  0  0  0
  194.7940  171.2170  137.6040 O   0  0  0  0  0  0  0  0  0  0  0  0
  194.2490  171.0590  135.3840 O   0  0  0  0  0  1  0  0  0  0  0  0
  198.3750  173.8540  136.7150 O   0  0  0  0  0  1  0  0  0  0  0  0
  198.0100  172.9660  134.6440 O   0  0  0  0  0  1  0  0  0  0  0  0
  197.8140  172.7840  136.0150 C   0  0  0  0  0  3  0  0  0  0  0  0
  187.4970  179.4020  141.7790 C   0  0  0  0  0  2  0  0  0  0  0  0
  186.2790  179.2540  142.6900 C   0  0  0  0  0  2  0  0  0  0  0  0
  186.0240  178.2200  144.9960 C   0  0  0  0  0  0  0  0  0  0  0  0
  186.6900  179.0950  144.0790 N   0  0  0  0  0  2  0  0  0  0  0  0
  184.9290  177.6820  144.6910 O   0  0  0  0  0  0  0  0  0  0  0  0
  186.8040  177.8190  146.5620 S   0  0  0  0  0  0  0  0  0  0  0  0
  188.4950  178.3890  146.1350 C   0  0  1  0  0  3  0  0  0  0  0  0
  189.0520  179.2600  147.2530 C   0  0  0  0  0  1  0  0  0  0  0  0
  189.4630  177.2570  145.7380 C   0  0  2  0  0  3  0  0  0  0  0  0
  190.0250  176.3680  147.2490 P   0  0  2  0  0  0  0  0  0  0  0  0
  190.5260  177.4990  148.4080 O   0  0  0  0  0  1  0  0  0  0  0  0
  191.4310  175.2770  146.8760 C   0  0  0  0  0  1  0  0  0  0  0  0
  188.9120  175.5390  147.8440 O   0  0  0  0  0  0  0  0  0  0  0  0
  190.9000  177.9010  144.6930 P   0  0  1  0  0  0  0  0  0  0  0  0
  192.1800  177.7500  145.8580 O   0  0  0  0  0  1  0  0  0  0  0  0
  191.3230  176.4140  143.6540 C   0  0  0  0  0  1  0  0  0  0  0  0
  186.4390  175.2540  134.7000 N   0  0  0  0  0  2  0  0  0  0  0  0
  186.7720  173.8420  134.7650 C   0  0  0  0  0  2  0  0  0  0  0  0
  186.0830  172.4910  137.1650 O   0  0  0  0  0  0  0  0  0  0  0  0
  185.5550  173.0730  134.9700 N   0  0  0  0  0  2  0  0  0  0  0  0
  185.2730  172.4090  136.2030 C   0  0  0  0  0  0  0  0  0  0  0  0
  184.0320  171.6350  136.3510 C   0  0  0  0  0  0  0  0  0  0  0  0
  183.7440  170.4630  135.4790 C   0  0  0  0  0  1  0  0  0  0  0  0
  183.1870  171.9800  137.2180 O   0  0  0  0  0  0  0  0  0  0  0  0
  1 17  1  0  0  0  0
  3 15  1  0  0  0  0
  5 10  1  0  0  0  0
  5 12  1  0  0  0  0
  6 29  1  0  0  0  0
  6  1  2  0  0  0  0
  7  9  1  0  0  0  0
  7 24  1  0  0  0  0
  8 23  1  0  0  0  0
 10  3  1  0  0  0  0
 12 11  1  6  0  0  0
 13 21  1  0  0  0  0
 14 16  1  0  0  0  0
 15 36  1  6  0  0  0
 15 22  1  0  0  0  0
 16 18  1  0  0  0  0
 17 14  1  0  0  0  0
 18  4  1  6  0  0  0
 18 24  1  0  0  0  0
 18 47  1  0  0  0  0
 19 63  1  6  0  0  0
 19 13  1  0  0  0  0
 20  6  1  0  0  0  0
 21  1  1  0  0  0  0
 22  8  1  0  0  0  0
 23  9  1  0  0  0  0
 24  2  2  0  0  0  0
 25 12  1  0  0  0  0
 25 19  1  0  0  0  0
 27 26  1  0  0  0  0
 28 31  2  0  0  0  0
 28 29  1  0  0  0  0
 29 27  2  0  0  0  0
 30 32  1  0  0  0  0
 30 26  2  0  0  0  0
 31 30  1  0  0  0  0
 33 32  1  0  0  0  0
 33 34  1  0  0  0  0
 35 33  2  0  0  0  0
 36 37  1  0  0  0  0
 38 41  1  0  0  0  0
 38 37  1  1  0  0  0
 39 43  1  6  0  0  0
 39 41  1  0  0  0  0
 39 42  1  0  0  0  0
 41 42  1  0  0  0  0
 41 40  1  1  0  0  0
 45 46  1  0  0  0  0
 46 38  1  0  0  0  0
 46 44  1  0  0  0  0
 47 48  1  0  0  0  0
 48 50  1  0  0  0  0
 49 52  1  0  0  0  0
 50 49  1  0  0  0  0
 51 49  2  0  0  0  0
 53 52  1  0  0  0  0
 53 54  1  1  0  0  0
 55 53  1  1  0  0  0
 55 56  1  0  0  0  0
 56 58  1  6  0  0  0
 56 59  2  0  0  0  0
 56 57  1  0  0  0  0
 60 62  1  6  0  0  0
 60 55  1  0  0  0  0
 60 61  1  0  0  0  0
 63 64  1  0  0  0  0
 64 66  1  0  0  0  0
 66 67  1  0  0  0  0
 67 68  1  0  0  0  0
 67 65  2  0  0  0  0
 68 70  2  0  0  0  0
 69 68  1  0  0  0  0
M  END
>  <MODEL>
2

>  <REMARK>
 VINA RESULT:      -1.9      1.529      1.994
  Name = 
  20 active torsions:
  status: ('A' for Active; 'I' for Inactive)
    1  A    between atoms: C_3  and  C_15
    2  A    between atoms: C_3  and  P_16
    3  A    between atoms: C_3  and  P_28
    4  A    between atoms: C_5  and  C_51
    5  A    between atoms: C_7  and  C_21
    6  A    between atoms: S_12  and  C_41
    7  A    between atoms: S_12  and  C_46
    8  A    between atoms: C_13  and  C_26
    9  A    between atoms: C_14  and  S_54
   10  A    between atoms: C_15  and  S_54
   11  A    between atoms: C_17  and  C_25
   12  A    between atoms: C_19  and  C_45
   13  A    between atoms: C_19  and  C_55
   14  A    between atoms: C_21  and  C_47
   15  A    between atoms: N_24  and  C_56
   16  A    between atoms: C_25  and  C_41
   17  A    between atoms: C_25  and  C_66
   18  A    between atoms: N_32  and  C_45
   19  A    between atoms: N_40  and  C_56
   20  A    between atoms: N_40  and  C_57
                            x       y       z     vdW  Elec       q    Type
                         _______ _______ _______ _____ _____    ______ ____

>  <TORSDO>
F 20

$$$$
=
 OpenBabel11032419213D

 70 72  0  0  1  0  0  0  0  0999 V2000
  184.5590  176.6140  137.5900 C   0  0  0  0  0  0  0  0  0  0  0  0
  188.5620  176.8800  141.8030 C   0  0  0  0  0  2  0  0  0  0  0  0
  192.1160  173.8680  136.5000 C   0  0  0  0  0  2  0  0  0  0  0  0
  187.9040  178.5220  138.6360 O   0  0  0  0  0  1  0  0  0  0  0  0
  190.6480  174.5760  134.5950 C   0  0  0  0  0  2  0  0  0  0  0  0
  183.2610  176.3260  137.3430 C   0  0  0  0  0  0  0  0  0  0  0  0
  189.8280  176.9090  139.7180 C   0  0  0  0  0  2  0  0  0  0  0  0
  192.5100  175.7360  138.9860 C   0  0  0  0  0  2  0  0  0  0  0  0
  191.1600  177.4310  140.2410 C   0  0  0  0  0  2  0  0  0  0  0  0
  191.9820  174.7870  135.2930 C   0  0  0  0  0  2  0  0  0  0  0  0
  189.5540  176.6660  135.4000 C   0  0  0  0  0  1  0  0  0  0  0  0
  189.4980  175.1490  135.4100 C   0  0  1  0  0  3  0  0  0  0  0  0
  186.4530  175.7410  136.2410 C   0  0  0  0  0  2  0  0  0  0  0  0
  185.1030  178.2660  139.3820 C   0  0  0  0  0  2  0  0  0  0  0  0
  193.3980  174.1360  137.2900 C   0  0  2  0  0  3  0  0  0  0  0  0
  186.2550  177.5120  140.0400 C   0  0  0  0  0  2  0  0  0  0  0  0
  185.0360  178.0070  137.8860 C   0  0  0  0  0  2  0  0  0  0  0  0
  187.5990  178.2620  139.9770 C   0  0  1  0  0  0  0  0  0  0  0  0
  187.1330  174.4330  135.8460 C   0  0  2  0  0  3  0  0  0  0  0  0
  182.8760  174.9320  136.9360 C   0  0  0  0  0  1  0  0  0  0  0  0
  185.6090  175.5470  137.4810 C   0  0  0  0  0  2  0  0  0  0  0  0
  193.4530  175.5650  137.8160 C   0  0  0  0  0  2  0  0  0  0  0  0
  192.2430  177.2130  139.1990 C   0  0  0  0  0  2  0  0  0  0  0  0
  188.6870  177.3840  140.5700 C   0  0  0  0  0  0  0  0  0  0  0  0
  188.1900  174.6890  134.7890 C   0  0  0  0  0  2  0  0  0  0  0  0
  181.4750  179.6620  137.4050 C   0  0  0  0  0  3  0  0  0  0  0  0
  182.4810  178.6960  137.3900 C   0  0  0  0  0  3  0  0  0  0  0  0
  180.8170  176.9480  137.4140 C   0  0  0  0  0  3  0  0  0  0  0  0
  182.1660  177.3290  137.4110 C   0  0  0  0  0  0  0  0  0  0  0  0
  180.1320  179.2750  137.4450 C   0  0  0  0  0  0  0  0  0  0  0  0
  179.8060  177.9140  137.4360 C   0  0  0  0  0  3  0  0  0  0  0  0
  179.0670  180.3220  137.4210 C   0  0  0  0  0  2  0  0  0  0  0  0
  179.6000  181.6540  137.8380 C   0  0  0  0  0  0  0  0  0  0  0  0
  180.1270  182.5570  136.8740 N   0  0  0  0  0  1  0  0  0  0  0  0
  179.5520  181.9910  139.0530 O   0  0  0  0  0  0  0  0  0  0  0  0
  194.8760  173.7930  136.2890 S   0  0  0  0  0  0  0  0  0  0  0  0
  195.6470  172.8280  137.6210 C   0  0  0  0  0  2  0  0  0  0  0  0
  196.7640  171.9380  137.0750 C   0  0  2  0  0  3  0  0  0  0  0  0
  198.2010  172.5920  134.9950 C   0  0  1  0  0  3  0  0  0  0  0  0
  195.9790  171.4210  134.5940 C   0  0  0  0  0  1  0  0  0  0  0  0
  196.9160  172.1190  135.5610 C   0  0  1  0  0  0  0  0  0  0  0  0
  197.1100  173.4650  135.2030 O   0  0  0  0  0  0  0  0  0  0  0  0
  199.1580  172.8080  135.9940 O   0  0  0  0  0  1  0  0  0  0  0  0
  195.5490  170.2860  138.3630 O   0  0  0  0  0  1  0  0  0  0  0  0
  197.7600  169.9190  137.9300 O   0  0  0  0  0  1  0  0  0  0  0  0
  196.5730  170.4600  137.4300 C   0  0  0  0  0  3  0  0  0  0  0  0
  187.5400  179.6200  140.7000 C   0  0  0  0  0  2  0  0  0  0  0  0
  186.3750  179.7640  141.6790 C   0  0  0  0  0  2  0  0  0  0  0  0
  186.0300  177.9710  143.4440 C   0  0  0  0  0  0  0  0  0  0  0  0
  186.6940  179.1410  142.9570 N   0  0  0  0  0  2  0  0  0  0  0  0
  185.0030  177.5280  142.8680 O   0  0  0  0  0  0  0  0  0  0  0  0
  186.7210  177.0760  144.8370 S   0  0  0  0  0  0  0  0  0  0  0  0
  187.4570  178.5170  145.7010 C   0  0  1  0  0  3  0  0  0  0  0  0
  186.4310  179.1490  146.6330 C   0  0  0  0  0  1  0  0  0  0  0  0
  188.7880  178.2150  146.4160 C   0  0  2  0  0  3  0  0  0  0  0  0
  190.0830  177.8200  145.1680 P   0  0  2  0  0  0  0  0  0  0  0  0
  191.5520  177.5280  145.9610 O   0  0  0  0  0  1  0  0  0  0  0  0
  190.3250  179.2100  144.0210 C   0  0  0  0  0  1  0  0  0  0  0  0
  189.7200  176.5900  144.3710 O   0  0  0  0  0  0  0  0  0  0  0  0
  188.5910  176.8580  147.7170 P   0  0  1  0  0  0  0  0  0  0  0  0
  190.2670  176.4890  147.9880 O   0  0  0  0  0  1  0  0  0  0  0  0
  188.2930  177.8460  149.2670 C   0  0  0  0  0  1  0  0  0  0  0  0
  186.1490  173.5030  135.3080 N   0  0  0  0  0  2  0  0  0  0  0  0
  185.6670  172.6990  136.4180 C   0  0  0  0  0  2  0  0  0  0  0  0
  184.6130  170.2450  135.4550 O   0  0  0  0  0  0  0  0  0  0  0  0
  184.2540  172.4180  136.2240 N   0  0  0  0  0  2  0  0  0  0  0  0
  183.7900  171.1610  135.7260 C   0  0  0  0  0  0  0  0  0  0  0  0
  182.3500  170.9350  135.5380 C   0  0  0  0  0  0  0  0  0  0  0  0
  181.4290  172.0560  135.2000 C   0  0  0  0  0  1  0  0  0  0  0  0
  181.8810  169.7750  135.6840 O   0  0  0  0  0  0  0  0  0  0  0  0
  1 17  1  0  0  0  0
  3 15  1  0  0  0  0
  5 10  1  0  0  0  0
  5 12  1  0  0  0  0
  6 29  1  0  0  0  0
  6  1  2  0  0  0  0
  7  9  1  0  0  0  0
  7 24  1  0  0  0  0
  8 23  1  0  0  0  0
 10  3  1  0  0  0  0
 12 11  1  6  0  0  0
 13 21  1  0  0  0  0
 14 16  1  0  0  0  0
 15 36  1  6  0  0  0
 15 22  1  0  0  0  0
 17 14  1  0  0  0  0
 18  4  1  6  0  0  0
 18 16  1  0  0  0  0
 18 24  1  0  0  0  0
 18 47  1  0  0  0  0
 19 63  1  6  0  0  0
 19 13  1  0  0  0  0
 20  6  1  0  0  0  0
 21  1  1  0  0  0  0
 22  8  1  0  0  0  0
 23  9  1  0  0  0  0
 24  2  2  0  0  0  0
 25 12  1  0  0  0  0
 25 19  1  0  0  0  0
 26 30  1  0  0  0  0
 27 26  2  0  0  0  0
 27 29  1  0  0  0  0
 28 31  1  0  0  0  0
 29 28  2  0  0  0  0
 31 30  2  0  0  0  0
 32 30  1  0  0  0  0
 32 33  1  0  0  0  0
 33 35  2  0  0  0  0
 34 33  1  0  0  0  0
 36 37  1  0  0  0  0
 38 46  1  0  0  0  0
 38 37  1  6  0  0  0
 39 42  1  0  0  0  0
 39 41  1  0  0  0  0
 39 43  1  1  0  0  0
 41 40  1  6  0  0  0
 41 38  1  0  0  0  0
 42 41  1  0  0  0  0
 46 45  1  0  0  0  0
 46 44  1  0  0  0  0
 47 48  1  0  0  0  0
 48 50  1  0  0  0  0
 49 52  1  0  0  0  0
 50 49  1  0  0  0  0
 51 49  2  0  0  0  0
 52 53  1  0  0  0  0
 53 54  1  1  0  0  0
 55 53  1  6  0  0  0
 55 60  1  0  0  0  0
 56 58  1  6  0  0  0
 56 57  1  0  0  0  0
 56 55  1  0  0  0  0
 59 56  2  0  0  0  0
 60 61  1  0  0  0  0
 60 62  1  1  0  0  0
 63 64  1  0  0  0  0
 65 67  2  0  0  0  0
 66 64  1  0  0  0  0
 67 66  1  0  0  0  0
 68 70  2  0  0  0  0
 68 67  1  0  0  0  0
 69 68  1  0  0  0  0
M  END
>  <MODEL>
3

>  <REMARK>
 VINA RESULT:      -1.3      1.348      2.028
  Name = 
  20 active torsions:
  status: ('A' for Active; 'I' for Inactive)
    1  A    between atoms: C_3  and  C_15
    2  A    between atoms: C_3  and  P_16
    3  A    between atoms: C_3  and  P_28
    4  A    between atoms: C_5  and  C_51
    5  A    between atoms: C_7  and  C_21
    6  A    between atoms: S_12  and  C_41
    7  A    between atoms: S_12  and  C_46
    8  A    between atoms: C_13  and  C_26
    9  A    between atoms: C_14  and  S_54
   10  A    between atoms: C_15  and  S_54
   11  A    between atoms: C_17  and  C_25
   12  A    between atoms: C_19  and  C_45
   13  A    between atoms: C_19  and  C_55
   14  A    between atoms: C_21  and  C_47
   15  A    between atoms: N_24  and  C_56
   16  A    between atoms: C_25  and  C_41
   17  A    between atoms: C_25  and  C_66
   18  A    between atoms: N_32  and  C_45
   19  A    between atoms: N_40  and  C_56
   20  A    between atoms: N_40  and  C_57
                            x       y       z     vdW  Elec       q    Type
                         _______ _______ _______ _____ _____    ______ ____

>  <TORSDO>
F 20

$$$$
=
 OpenBabel11032419213D

 70 72  0  0  1  0  0  0  0  0999 V2000
  184.7650  177.5780  137.7900 C   0  0  0  0  0  0  0  0  0  0  0  0
  188.6000  176.6880  142.0730 C   0  0  0  0  0  2  0  0  0  0  0  0
  192.3620  175.1450  136.3030 C   0  0  0  0  0  2  0  0  0  0  0  0
  188.0640  179.1120  139.4270 O   0  0  0  0  0  1  0  0  0  0  0  0
  190.9690  176.3440  134.5970 C   0  0  0  0  0  2  0  0  0  0  0  0
  183.4780  177.3770  137.4250 C   0  0  0  0  0  0  0  0  0  0  0  0
  189.9460  177.2530  140.1200 C   0  0  0  0  0  2  0  0  0  0  0  0
  192.6560  176.2880  139.2070 C   0  0  0  0  0  2  0  0  0  0  0  0
  191.2560  177.6060  140.8110 C   0  0  0  0  0  2  0  0  0  0  0  0
  192.2750  176.3500  135.3760 C   0  0  0  0  0  2  0  0  0  0  0  0
  189.8420  178.1570  135.8830 C   0  0  0  0  0  1  0  0  0  0  0  0
  189.7880  176.6920  135.4910 C   0  0  1  0  0  3  0  0  0  0  0  0
  186.7110  177.0730  136.3310 C   0  0  0  0  0  2  0  0  0  0  0  0
  185.2360  178.6940  139.9730 C   0  0  0  0  0  2  0  0  0  0  0  0
  193.6120  175.1840  137.1850 C   0  0  2  0  0  3  0  0  0  0  0  0
  186.3630  177.7830  140.4520 C   0  0  0  0  0  2  0  0  0  0  0  0
  185.2290  178.8390  138.4590 C   0  0  0  0  0  2  0  0  0  0  0  0
  187.7070  178.5100  140.6400 C   0  0  1  0  0  0  0  0  0  0  0  0
  187.4080  175.9080  135.6320 C   0  0  2  0  0  3  0  0  0  0  0  0
  183.1100  176.1430  136.6520 C   0  0  0  0  0  1  0  0  0  0  0  0
  185.8190  176.5670  137.4430 C   0  0  0  0  0  2  0  0  0  0  0  0
  193.6440  176.4230  138.0700 C   0  0  0  0  0  2  0  0  0  0  0  0
  192.3790  177.6600  139.7910 C   0  0  0  0  0  2  0  0  0  0  0  0
  188.7720  177.4980  141.0220 C   0  0  0  0  0  0  0  0  0  0  0  0
  188.5050  176.4230  134.7210 C   0  0  0  0  0  2  0  0  0  0  0  0
  180.6250  179.8030  136.8830 C   0  0  0  0  0  3  0  0  0  0  0  0
  181.6900  178.9350  136.6470 C   0  0  0  0  0  3  0  0  0  0  0  0
  181.9570  178.6020  139.0220 C   0  0  0  0  0  3  0  0  0  0  0  0
  182.3800  178.3360  137.7130 C   0  0  0  0  0  0  0  0  0  0  0  0
  180.2320  180.0910  138.1930 C   0  0  0  0  0  0  0  0  0  0  0  0
  180.8930  179.4780  139.2630 C   0  0  0  0  0  3  0  0  0  0  0  0
  179.0630  180.9930  138.4260 C   0  0  0  0  0  2  0  0  0  0  0  0
  179.4240  182.4250  138.2040 C   0  0  0  0  0  0  0  0  0  0  0  0
  179.7630  182.8920  136.9040 N   0  0  0  0  0  1  0  0  0  0  0  0
  179.3980  183.2320  139.1730 O   0  0  0  0  0  0  0  0  0  0  0  0
  195.1280  175.1020  136.1850 S   0  0  0  0  0  0  0  0  0  0  0  0
  195.9430  173.9990  137.3760 C   0  0  0  0  0  2  0  0  0  0  0  0
  196.8100  172.9650  136.6580 C   0  0  2  0  0  3  0  0  0  0  0  0
  195.1020  171.0090  136.3790 C   0  0  1  0  0  3  0  0  0  0  0  0
  197.3150  170.5090  137.5290 C   0  0  0  0  0  1  0  0  0  0  0  0
  196.3450  171.5400  136.9830 C   0  0  1  0  0  0  0  0  0  0  0  0
  195.1310  171.5270  137.6930 O   0  0  0  0  0  0  0  0  0  0  0  0
  194.4970  171.9460  135.5320 O   0  0  0  0  0  1  0  0  0  0  0  0
  198.5320  174.1700  137.8600 O   0  0  0  0  0  1  0  0  0  0  0  0
  199.0150  173.3680  135.7790 O   0  0  0  0  0  1  0  0  0  0  0  0
  198.3040  173.1300  136.9570 C   0  0  0  0  0  3  0  0  0  0  0  0
  187.6180  179.6310  141.6930 C   0  0  0  0  0  2  0  0  0  0  0  0
  186.3420  179.6090  142.5330 C   0  0  0  0  0  2  0  0  0  0  0  0
  185.7330  178.2320  144.5780 C   0  0  0  0  0  0  0  0  0  0  0  0
  186.6150  179.1130  143.8750 N   0  0  0  0  0  2  0  0  0  0  0  0
  184.5800  177.9880  144.1360 O   0  0  0  0  0  0  0  0  0  0  0  0
  186.3090  177.3970  146.0580 S   0  0  0  0  0  0  0  0  0  0  0  0
  187.1840  178.8250  146.8080 C   0  0  1  0  0  3  0  0  0  0  0  0
  186.2940  179.5000  147.8430 C   0  0  0  0  0  1  0  0  0  0  0  0
  188.5800  178.4890  147.3670 C   0  0  2  0  0  3  0  0  0  0  0  0
  189.6220  177.7640  146.0330 P   0  0  2  0  0  0  0  0  0  0  0  0
  188.6290  176.9320  144.9400 O   0  0  0  0  0  0  0  0  0  0  0  0
  190.8260  176.5860  146.7170 C   0  0  0  0  0  1  0  0  0  0  0  0
  190.3680  178.8370  145.2760 O   0  0  0  0  0  1  0  0  0  0  0  0
  188.4750  177.3810  148.8940 P   0  0  1  0  0  0  0  0  0  0  0  0
  186.7950  177.5970  149.2780 O   0  0  0  0  0  1  0  0  0  0  0  0
  188.3480  175.6850  148.1360 C   0  0  0  0  0  1  0  0  0  0  0  0
  186.4470  175.1630  134.8310 N   0  0  0  0  0  2  0  0  0  0  0  0
  186.6710  173.7520  135.0960 C   0  0  0  0  0  2  0  0  0  0  0  0
  185.0120  171.5040  134.5940 O   0  0  0  0  0  0  0  0  0  0  0  0
  185.6340  173.2640  135.9910 N   0  0  0  0  0  2  0  0  0  0  0  0
  184.8270  172.1290  135.6730 C   0  0  0  0  0  0  0  0  0  0  0  0
  183.7840  171.6860  136.6090 C   0  0  0  0  0  0  0  0  0  0  0  0
  183.2960  172.5760  137.6990 C   0  0  0  0  0  1  0  0  0  0  0  0
  183.3070  170.5260  136.5020 O   0  0  0  0  0  0  0  0  0  0  0  0
  1 17  1  0  0  0  0
  3 15  1  0  0  0  0
  5 10  1  0  0  0  0
  5 12  1  0  0  0  0
  6 29  1  0  0  0  0
  6  1  2  0  0  0  0
  7  9  1  0  0  0  0
  7 24  1  0  0  0  0
  8 23  1  0  0  0  0
 10  3  1  0  0  0  0
 12 11  1  6  0  0  0
 13 21  1  0  0  0  0
 14 16  1  0  0  0  0
 15 36  1  6  0  0  0
 15 22  1  0  0  0  0
 16 18  1  0  0  0  0
 17 14  1  0  0  0  0
 18  4  1  6  0  0  0
 18 24  1  0  0  0  0
 18 47  1  0  0  0  0
 19 63  1  6  0  0  0
 19 13  1  0  0  0  0
 20  6  1  0  0  0  0
 21  1  1  0  0  0  0
 22  8  1  0  0  0  0
 23  9  1  0  0  0  0
 24  2  2  0  0  0  0
 25 12  1  0  0  0  0
 25 19  1  0  0  0  0
 26 30  1  0  0  0  0
 27 26  2  0  0  0  0
 27 29  1  0  0  0  0
 28 31  1  0  0  0  0
 29 28  2  0  0  0  0
 30 32  1  0  0  0  0
 30 31  2  0  0  0  0
 33 32  1  0  0  0  0
 33 35  2  0  0  0  0
 34 33  1  0  0  0  0
 36 37  1  0  0  0  0
 38 46  1  0  0  0  0
 38 41  1  0  0  0  0
 38 37  1  1  0  0  0
 39 43  1  6  0  0  0
 39 41  1  0  0  0  0
 39 42  1  0  0  0  0
 41 40  1  1  0  0  0
 41 42  1  0  0  0  0
 45 46  1  0  0  0  0
 46 44  1  0  0  0  0
 47 48  1  0  0  0  0
 48 50  1  0  0  0  0
 49 52  1  0  0  0  0
 50 49  1  0  0  0  0
 51 49  2  0  0  0  0
 52 53  1  0  0  0  0
 53 54  1  1  0  0  0
 55 53  1  6  0  0  0
 55 60  1  0  0  0  0
 56 58  1  1  0  0  0
 56 55  1  0  0  0  0
 57 56  2  0  0  0  0
 59 56  1  0  0  0  0
 60 62  1  6  0  0  0
 60 61  1  0  0  0  0
 63 64  1  0  0  0  0
 64 66  1  0  0  0  0
 65 67  2  0  0  0  0
 67 66  1  0  0  0  0
 67 68  1  0  0  0  0
 68 69  1  0  0  0  0
 70 68  2  0  0  0  0
M  END
>  <MODEL>
4

>  <REMARK>
 VINA RESULT:      -1.2      1.437      2.122
  Name = 
  20 active torsions:
  status: ('A' for Active; 'I' for Inactive)
    1  A    between atoms: C_3  and  C_15
    2  A    between atoms: C_3  and  P_16
    3  A    between atoms: C_3  and  P_28
    4  A    between atoms: C_5  and  C_51
    5  A    between atoms: C_7  and  C_21
    6  A    between atoms: S_12  and  C_41
    7  A    between atoms: S_12  and  C_46
    8  A    between atoms: C_13  and  C_26
    9  A    between atoms: C_14  and  S_54
   10  A    between atoms: C_15  and  S_54
   11  A    between atoms: C_17  and  C_25
   12  A    between atoms: C_19  and  C_45
   13  A    between atoms: C_19  and  C_55
   14  A    between atoms: C_21  and  C_47
   15  A    between atoms: N_24  and  C_56
   16  A    between atoms: C_25  and  C_41
   17  A    between atoms: C_25  and  C_66
   18  A    between atoms: N_32  and  C_45
   19  A    between atoms: N_40  and  C_56
   20  A    between atoms: N_40  and  C_57
                            x       y       z     vdW  Elec       q    Type
                         _______ _______ _______ _____ _____    ______ ____

>  <TORSDO>
F 20

$$$$
