=
 OpenBabel11042411593D

 28 29  0  0  1  0  0  0  0  0999 V2000
  191.6550  178.0150  144.1340 C   0  0  0  0  0  3  0  0  0  0  0  0
  188.8920  177.5580  143.9380 C   0  0  0  0  0  0  0  0  0  0  0  0
  189.5930  178.1090  142.8370 C   0  0  0  0  0  0  0  0  0  0  0  0
  190.9680  177.4640  145.2160 C   0  0  0  0  0  0  0  0  0  0  0  0
  190.9750  178.3300  142.9580 C   0  0  0  0  0  3  0  0  0  0  0  0
  189.5880  177.2380  145.1070 C   0  0  0  0  0  3  0  0  0  0  0  0
  191.6920  177.1450  146.4090 N   0  0  0  0  0  0  0  0  0  0  0  0
  192.6230  175.6830  148.0840 C   0  0  0  0  0  1  0  0  0  0  0  0
  191.8580  175.9340  146.8350 C   0  0  0  0  0  3  0  0  0  0  0  0
  187.4810  177.2930  143.9120 N   0  0  0  0  0  2  0  0  0  0  0  0
  186.0770  177.6860  145.8570 C   0  0  0  0  0  1  0  0  0  0  0  0
  186.4410  178.1530  144.4580 C   0  0  2  0  0  3  0  0  0  0  0  0
  185.2210  178.0930  143.5590 C   0  0  0  0  0  2  0  0  0  0  0  0
  185.6150  178.3670  142.1120 C   0  0  0  0  0  2  0  0  0  0  0  0
  183.5080  177.6170  141.2160 O   0  0  0  0  0  1  0  0  0  0  0  0
  184.4080  178.6860  141.2350 C   0  0  2  0  0  3  0  0  0  0  0  0
  185.5930  178.1990  139.0820 O   0  0  0  0  0  0  0  0  0  0  0  0
  184.4700  180.1750  139.3750 O   0  0  0  0  0  1  0  0  0  0  0  0
  184.8120  179.0590  139.8450 C   0  0  0  0  0  0  0  0  0  0  0  0
  188.9100  178.3920  141.6420 O   0  0  0  0  0  0  0  0  0  0  0  0
  188.8340  178.6450  139.2390 N   0  0  0  0  0  0  0  0  0  0  0  0
  189.9880  177.1210  137.8050 C   0  0  0  0  0  0  0  0  0  0  0  0
  190.4420  176.4270  138.9270 C   0  0  0  0  0  3  0  0  0  0  0  0
  190.0830  176.8580  140.2040 C   0  0  0  0  0  3  0  0  0  0  0  0
  190.3490  176.6920  136.5340 O   0  0  0  0  0  1  0  0  0  0  0  0
  189.2700  177.9850  140.3490 C   0  0  0  0  0  0  0  0  0  0  0  0
  188.6630  179.0130  136.8120 C   0  0  0  0  0  1  0  0  0  0  0  0
  189.1710  178.2460  137.9820 C   0  0  0  0  0  0  0  0  0  0  0  0
  1  4  1  0  0  0  0
  2  6  1  0  0  0  0
  3  5  1  0  0  0  0
  3  2  2  0  0  0  0
  4  7  1  0  0  0  0
  5  1  2  0  0  0  0
  6  4  2  0  0  0  0
  7  9  2  0  0  0  0
  9  8  1  0  0  0  0
 10  2  1  0  0  0  0
 10 12  1  0  0  0  0
 12 11  1  1  0  0  0
 13 12  1  0  0  0  0
 14 13  1  0  0  0  0
 16 15  1  6  0  0  0
 16 14  1  0  0  0  0
 17 19  2  0  0  0  0
 18 19  1  0  0  0  0
 19 16  1  0  0  0  0
 20  3  1  0  0  0  0
 21 26  2  0  0  0  0
 22 28  2  0  0  0  0
 22 23  1  0  0  0  0
 23 24  2  0  0  0  0
 24 26  1  0  0  0  0
 25 22  1  0  0  0  0
 26 20  1  0  0  0  0
 27 28  1  0  0  0  0
 28 21  1  0  0  0  0
M  END
>  <MODEL>
1

>  <REMARK>
 VINA RESULT:      -7.9      0.000      0.000
  Name = 
  9 active torsions:
  status: ('A' for Active; 'I' for Inactive)
    1  A    between atoms: C_6  and  N_10
    2  A    between atoms: C_8  and  C_12
    3  A    between atoms: C_8  and  C_27
    4  A    between atoms: N_9  and  C_23
    5  A    between atoms: N_10  and  C_21
    6  A    between atoms: C_12  and  C_14
    7  A    between atoms: C_14  and  C_21
    8  A    between atoms: C_15  and  O_17
    9  A    between atoms: C_16  and  O_17
                            x       y       z     vdW  Elec       q    Type
                         _______ _______ _______ _____ _____    ______ ____

>  <TORSDO>
F 9

$$$$
=
 OpenBabel11042411593D

 28 29  0  0  1  0  0  0  0  0999 V2000
  189.4470  177.3830  138.7340 C   0  0  0  0  0  3  0  0  0  0  0  0
  189.5010  177.4510  141.5410 C   0  0  0  0  0  0  0  0  0  0  0  0
  188.5400  178.2180  140.8370 C   0  0  0  0  0  0  0  0  0  0  0  0
  190.3890  176.6210  139.4250 C   0  0  0  0  0  0  0  0  0  0  0  0
  188.5310  178.1690  139.4330 C   0  0  0  0  0  3  0  0  0  0  0  0
  190.4070  176.6600  140.8270 C   0  0  0  0  0  3  0  0  0  0  0  0
  191.3140  175.8190  138.6820 N   0  0  0  0  0  0  0  0  0  0  0  0
  193.3660  175.3620  137.5040 C   0  0  0  0  0  1  0  0  0  0  0  0
  192.4600  176.2570  138.2710 C   0  0  0  0  0  3  0  0  0  0  0  0
  189.5890  177.4320  142.9740 N   0  0  0  0  0  2  0  0  0  0  0  0
  191.5900  178.4500  143.9050 C   0  0  0  0  0  1  0  0  0  0  0  0
  190.0750  178.5170  143.8140 C   0  0  2  0  0  3  0  0  0  0  0  0
  189.4670  178.3870  145.1980 C   0  0  0  0  0  2  0  0  0  0  0  0
  189.4720  176.9290  145.6430 C   0  0  0  0  0  2  0  0  0  0  0  0
  189.5850  177.8660  147.8590 O   0  0  0  0  0  1  0  0  0  0  0  0
  189.9530  176.7660  147.0820 C   0  0  2  0  0  3  0  0  0  0  0  0
  192.0810  175.8150  146.1620 O   0  0  0  0  0  0  0  0  0  0  0  0
  192.0820  176.9830  148.1330 O   0  0  0  0  0  1  0  0  0  0  0  0
  191.4290  176.5410  147.1520 C   0  0  0  0  0  0  0  0  0  0  0  0
  187.5960  178.9800  141.5470 O   0  0  0  0  0  0  0  0  0  0  0  0
  185.4960  179.2470  140.3800 N   0  0  0  0  0  0  0  0  0  0  0  0
  183.4290  178.6450  141.4150 C   0  0  0  0  0  0  0  0  0  0  0  0
  184.1280  178.2530  142.5570 C   0  0  0  0  0  3  0  0  0  0  0  0
  185.5180  178.3630  142.5940 C   0  0  0  0  0  3  0  0  0  0  0  0
  182.0440  178.5330  141.3790 O   0  0  0  0  0  1  0  0  0  0  0  0
  186.2000  178.8660  141.4830 C   0  0  0  0  0  0  0  0  0  0  0  0
  183.4330  179.5810  139.0810 C   0  0  0  0  0  1  0  0  0  0  0  0
  184.1400  179.1490  140.3170 C   0  0  0  0  0  0  0  0  0  0  0  0
  1  4  2  0  0  0  0
  1  5  1  0  0  0  0
  2 10  1  0  0  0  0
  3  2  1  0  0  0  0
  3 20  1  0  0  0  0
  4  6  1  0  0  0  0
  5  3  2  0  0  0  0
  6  2  2  0  0  0  0
  7  4  1  0  0  0  0
  8  9  1  0  0  0  0
  9  7  2  0  0  0  0
 10 12  1  0  0  0  0
 12 11  1  1  0  0  0
 12 13  1  0  0  0  0
 13 14  1  0  0  0  0
 14 16  1  0  0  0  0
 16 19  1  0  0  0  0
 16 15  1  1  0  0  0
 17 19  2  0  0  0  0
 19 18  1  0  0  0  0
 21 26  2  0  0  0  0
 22 23  1  0  0  0  0
 23 24  2  0  0  0  0
 25 22  1  0  0  0  0
 26 20  1  0  0  0  0
 26 24  1  0  0  0  0
 27 28  1  0  0  0  0
 28 21  1  0  0  0  0
 28 22  2  0  0  0  0
M  END
>  <MODEL>
2

>  <REMARK>
 VINA RESULT:      -7.8      2.716      6.804
  Name = 
  9 active torsions:
  status: ('A' for Active; 'I' for Inactive)
    1  A    between atoms: C_6  and  N_10
    2  A    between atoms: C_8  and  C_12
    3  A    between atoms: C_8  and  C_27
    4  A    between atoms: N_9  and  C_23
    5  A    between atoms: N_10  and  C_21
    6  A    between atoms: C_12  and  C_14
    7  A    between atoms: C_14  and  C_21
    8  A    between atoms: C_15  and  O_17
    9  A    between atoms: C_16  and  O_17
                            x       y       z     vdW  Elec       q    Type
                         _______ _______ _______ _____ _____    ______ ____

>  <TORSDO>
F 9

$$$$
=
 OpenBabel11042411593D

 28 29  0  0  1  0  0  0  0  0999 V2000
  188.1470  177.1520  146.1820 C   0  0  0  0  0  3  0  0  0  0  0  0
  189.1100  177.7000  143.6030 C   0  0  0  0  0  0  0  0  0  0  0  0
  187.7190  177.7640  143.8610 C   0  0  0  0  0  0  0  0  0  0  0  0
  189.5170  177.0970  145.9310 C   0  0  0  0  0  0  0  0  0  0  0  0
  187.2590  177.4860  145.1590 C   0  0  0  0  0  3  0  0  0  0  0  0
  189.9900  177.3740  144.6400 C   0  0  0  0  0  3  0  0  0  0  0  0
  190.4060  176.7570  147.0010 N   0  0  0  0  0  0  0  0  0  0  0  0
  192.4500  175.9300  147.9750 C   0  0  0  0  0  1  0  0  0  0  0  0
  191.5850  176.2570  146.8120 C   0  0  0  0  0  3  0  0  0  0  0  0
  189.6790  177.9690  142.3110 N   0  0  0  0  0  2  0  0  0  0  0  0
  191.8300  177.4750  141.2940 C   0  0  0  0  0  1  0  0  0  0  0  0
  190.3940  177.0140  141.4780 C   0  0  2  0  0  3  0  0  0  0  0  0
  189.7060  176.9160  140.1290 C   0  0  0  0  0  2  0  0  0  0  0  0
  189.0390  178.2410  139.7770 C   0  0  0  0  0  2  0  0  0  0  0  0
  188.9220  179.5820  137.7800 O   0  0  0  0  0  1  0  0  0  0  0  0
  188.6460  178.3170  138.3050 C   0  0  2  0  0  3  0  0  0  0  0  0
  186.2080  178.6220  138.7900 O   0  0  0  0  0  1  0  0  0  0  0  0
  186.9110  177.0270  137.3020 O   0  0  0  0  0  0  0  0  0  0  0  0
  187.2110  177.9590  138.0930 C   0  0  0  0  0  0  0  0  0  0  0  0
  186.8320  178.1350  142.8360 O   0  0  0  0  0  0  0  0  0  0  0  0
  184.5910  178.2240  141.9360 N   0  0  0  0  0  0  0  0  0  0  0  0
  182.7630  179.0060  143.2620 C   0  0  0  0  0  0  0  0  0  0  0  0
  183.6400  179.2130  144.3280 C   0  0  0  0  0  3  0  0  0  0  0  0
  184.9950  178.9170  144.1810 C   0  0  0  0  0  3  0  0  0  0  0  0
  181.4130  179.3000  143.4100 O   0  0  0  0  0  1  0  0  0  0  0  0
  185.4640  178.4130  142.9650 C   0  0  0  0  0  0  0  0  0  0  0  0
  182.3640  178.2710  140.8910 C   0  0  0  0  0  1  0  0  0  0  0  0
  183.2640  178.5040  142.0530 C   0  0  0  0  0  0  0  0  0  0  0  0
  2  3  2  0  0  0  0
  2  6  1  0  0  0  0
  3  5  1  0  0  0  0
  4  1  1  0  0  0  0
  4  7  1  0  0  0  0
  5  1  2  0  0  0  0
  6  4  2  0  0  0  0
  9  7  2  0  0  0  0
  9  8  1  0  0  0  0
 10  2  1  0  0  0  0
 12 11  1  6  0  0  0
 12 10  1  0  0  0  0
 13 12  1  0  0  0  0
 14 13  1  0  0  0  0
 16 15  1  1  0  0  0
 16 14  1  0  0  0  0
 18 19  2  0  0  0  0
 19 16  1  0  0  0  0
 19 17  1  0  0  0  0
 20 26  1  0  0  0  0
 20  3  1  0  0  0  0
 21 28  1  0  0  0  0
 21 26  2  0  0  0  0
 22 25  1  0  0  0  0
 22 23  1  0  0  0  0
 24 23  2  0  0  0  0
 26 24  1  0  0  0  0
 27 28  1  0  0  0  0
 28 22  2  0  0  0  0
M  END
>  <MODEL>
3

>  <REMARK>
 VINA RESULT:      -7.7      1.870      5.336
  Name = 
  9 active torsions:
  status: ('A' for Active; 'I' for Inactive)
    1  A    between atoms: C_6  and  N_10
    2  A    between atoms: C_8  and  C_12
    3  A    between atoms: C_8  and  C_27
    4  A    between atoms: N_9  and  C_23
    5  A    between atoms: N_10  and  C_21
    6  A    between atoms: C_12  and  C_14
    7  A    between atoms: C_14  and  C_21
    8  A    between atoms: C_15  and  O_17
    9  A    between atoms: C_16  and  O_17
                            x       y       z     vdW  Elec       q    Type
                         _______ _______ _______ _____ _____    ______ ____

>  <TORSDO>
F 9

$$$$
=
 OpenBabel11042411593D

 28 29  0  0  1  0  0  0  0  0999 V2000
  191.6580  178.3250  144.2270 C   0  0  0  0  0  3  0  0  0  0  0  0
  189.1050  177.2580  143.7550 C   0  0  0  0  0  0  0  0  0  0  0  0
  189.6850  178.1370  142.8080 C   0  0  0  0  0  0  0  0  0  0  0  0
  191.0920  177.4530  145.1560 C   0  0  0  0  0  0  0  0  0  0  0  0
  190.9630  178.6600  143.0640 C   0  0  0  0  0  3  0  0  0  0  0  0
  189.8170  176.9230  144.9110 C   0  0  0  0  0  3  0  0  0  0  0  0
  191.8310  177.1220  146.3380 N   0  0  0  0  0  0  0  0  0  0  0  0
  192.6340  175.6730  148.0870 C   0  0  0  0  0  1  0  0  0  0  0  0
  191.8420  175.9370  146.8580 C   0  0  0  0  0  3  0  0  0  0  0  0
  187.8060  176.6690  143.5830 N   0  0  0  0  0  2  0  0  0  0  0  0
  185.9800  178.0580  142.7800 C   0  0  0  0  0  1  0  0  0  0  0  0
  186.5380  177.2770  143.9580 C   0  0  2  0  0  3  0  0  0  0  0  0
  186.7600  178.2070  145.1360 C   0  0  0  0  0  2  0  0  0  0  0  0
  186.0050  177.7000  146.3600 C   0  0  0  0  0  2  0  0  0  0  0  0
  186.4210  179.7100  147.6200 O   0  0  0  0  0  1  0  0  0  0  0  0
  186.5240  178.3180  147.6550 C   0  0  2  0  0  3  0  0  0  0  0  0
  188.2800  176.5550  147.9450 O   0  0  0  0  0  0  0  0  0  0  0  0
  188.7940  178.7700  148.2270 O   0  0  0  0  0  1  0  0  0  0  0  0
  187.9290  177.9000  147.9470 C   0  0  0  0  0  0  0  0  0  0  0  0
  188.9950  178.4430  141.6220 O   0  0  0  0  0  0  0  0  0  0  0  0
  188.8600  178.6670  139.2190 N   0  0  0  0  0  0  0  0  0  0  0  0
  189.9630  177.1160  137.7750 C   0  0  0  0  0  0  0  0  0  0  0  0
  190.4400  176.4310  138.8940 C   0  0  0  0  0  3  0  0  0  0  0  0
  190.1170  176.8800  140.1740 C   0  0  0  0  0  3  0  0  0  0  0  0
  190.2870  176.6680  136.5000 O   0  0  0  0  0  1  0  0  0  0  0  0
  189.3180  178.0170  140.3250 C   0  0  0  0  0  0  0  0  0  0  0  0
  188.6290  179.0070  136.7930 C   0  0  0  0  0  1  0  0  0  0  0  0
  189.1610  178.2500  137.9590 C   0  0  0  0  0  0  0  0  0  0  0  0
  1  4  1  0  0  0  0
  2  6  1  0  0  0  0
  3  5  1  0  0  0  0
  3  2  2  0  0  0  0
  4  7  1  0  0  0  0
  5  1  2  0  0  0  0
  6  4  2  0  0  0  0
  7  9  2  0  0  0  0
  9  8  1  0  0  0  0
 10  2  1  0  0  0  0
 10 12  1  0  0  0  0
 12 11  1  6  0  0  0
 12 13  1  0  0  0  0
 13 14  1  0  0  0  0
 14 16  1  0  0  0  0
 16 15  1  6  0  0  0
 16 19  1  0  0  0  0
 17 19  2  0  0  0  0
 19 18  1  0  0  0  0
 20  3  1  0  0  0  0
 21 26  2  0  0  0  0
 22 28  2  0  0  0  0
 22 23  1  0  0  0  0
 23 24  2  0  0  0  0
 24 26  1  0  0  0  0
 25 22  1  0  0  0  0
 26 20  1  0  0  0  0
 27 28  1  0  0  0  0
 28 21  1  0  0  0  0
M  END
>  <MODEL>
4

>  <REMARK>
 VINA RESULT:      -7.7      2.285      3.776
  Name = 
  9 active torsions:
  status: ('A' for Active; 'I' for Inactive)
    1  A    between atoms: C_6  and  N_10
    2  A    between atoms: C_8  and  C_12
    3  A    between atoms: C_8  and  C_27
    4  A    between atoms: N_9  and  C_23
    5  A    between atoms: N_10  and  C_21
    6  A    between atoms: C_12  and  C_14
    7  A    between atoms: C_14  and  C_21
    8  A    between atoms: C_15  and  O_17
    9  A    between atoms: C_16  and  O_17
                            x       y       z     vdW  Elec       q    Type
                         _______ _______ _______ _____ _____    ______ ____

>  <TORSDO>
F 9

$$$$
=
 OpenBabel11042411593D

 28 29  0  0  1  0  0  0  0  0999 V2000
  189.5150  178.0260  138.3070 C   0  0  0  0  0  3  0  0  0  0  0  0
  189.7400  177.1900  140.9780 C   0  0  0  0  0  0  0  0  0  0  0  0
  188.7580  178.1470  140.6210 C   0  0  0  0  0  0  0  0  0  0  0  0
  190.4760  177.0770  138.6550 C   0  0  0  0  0  0  0  0  0  0  0  0
  188.6640  178.5520  139.2790 C   0  0  0  0  0  3  0  0  0  0  0  0
  190.5800  176.6640  139.9910 C   0  0  0  0  0  3  0  0  0  0  0  0
  191.3330  176.5510  137.6350 N   0  0  0  0  0  0  0  0  0  0  0  0
  193.4200  175.7830  136.7060 C   0  0  0  0  0  1  0  0  0  0  0  0
  192.5960  176.3320  137.8150 C   0  0  0  0  0  3  0  0  0  0  0  0
  189.9140  176.7120  142.3210 N   0  0  0  0  0  2  0  0  0  0  0  0
  191.5400  176.1070  144.0230 C   0  0  0  0  0  1  0  0  0  0  0  0
  190.8420  177.2500  143.3050 C   0  0  2  0  0  3  0  0  0  0  0  0
  190.0740  178.0960  144.3040 C   0  0  0  0  0  2  0  0  0  0  0  0
  189.2290  177.2090  145.2100 C   0  0  0  0  0  2  0  0  0  0  0  0
  190.1830  176.5920  147.3340 O   0  0  0  0  0  1  0  0  0  0  0  0
  189.4060  177.5550  146.6850 C   0  0  2  0  0  3  0  0  0  0  0  0
  187.9990  177.5850  148.7570 O   0  0  0  0  0  1  0  0  0  0  0  0
  187.0590  177.9730  146.7040 O   0  0  0  0  0  0  0  0  0  0  0  0
  188.0930  177.7280  147.3780 C   0  0  0  0  0  0  0  0  0  0  0  0
  187.8800  178.6470  141.5980 O   0  0  0  0  0  0  0  0  0  0  0  0
  185.8000  179.0770  140.4430 N   0  0  0  0  0  0  0  0  0  0  0  0
  183.6980  178.6750  141.5040 C   0  0  0  0  0  0  0  0  0  0  0  0
  184.3710  178.2420  142.6480 C   0  0  0  0  0  3  0  0  0  0  0  0
  185.7650  178.2320  142.6720 C   0  0  0  0  0  3  0  0  0  0  0  0
  182.3090  178.6830  141.4810 O   0  0  0  0  0  1  0  0  0  0  0  0
  186.4780  178.6540  141.5470 C   0  0  0  0  0  0  0  0  0  0  0  0
  183.7620  179.5670  139.1550 C   0  0  0  0  0  1  0  0  0  0  0  0
  184.4410  179.0960  140.3930 C   0  0  0  0  0  0  0  0  0  0  0  0
  1  4  2  0  0  0  0
  1  5  1  0  0  0  0
  2 10  1  0  0  0  0
  3  2  1  0  0  0  0
  3 20  1  0  0  0  0
  4  6  1  0  0  0  0
  5  3  2  0  0  0  0
  6  2  2  0  0  0  0
  7  9  2  0  0  0  0
  7  4  1  0  0  0  0
  8  9  1  0  0  0  0
 10 12  1  0  0  0  0
 12 11  1  1  0  0  0
 12 13  1  0  0  0  0
 13 14  1  0  0  0  0
 14 16  1  0  0  0  0
 16 15  1  1  0  0  0
 16 19  1  0  0  0  0
 18 19  2  0  0  0  0
 19 17  1  0  0  0  0
 21 26  2  0  0  0  0
 22 23  1  0  0  0  0
 23 24  2  0  0  0  0
 25 22  1  0  0  0  0
 26 20  1  0  0  0  0
 26 24  1  0  0  0  0
 27 28  1  0  0  0  0
 28 21  1  0  0  0  0
 28 22  2  0  0  0  0
M  END
>  <MODEL>
5

>  <REMARK>
 VINA RESULT:      -7.6      2.679      6.629
  Name = 
  9 active torsions:
  status: ('A' for Active; 'I' for Inactive)
    1  A    between atoms: C_6  and  N_10
    2  A    between atoms: C_8  and  C_12
    3  A    between atoms: C_8  and  C_27
    4  A    between atoms: N_9  and  C_23
    5  A    between atoms: N_10  and  C_21
    6  A    between atoms: C_12  and  C_14
    7  A    between atoms: C_14  and  C_21
    8  A    between atoms: C_15  and  O_17
    9  A    between atoms: C_16  and  O_17
                            x       y       z     vdW  Elec       q    Type
                         _______ _______ _______ _____ _____    ______ ____

>  <TORSDO>
F 9

$$$$
=
 OpenBabel11042411593D

 28 29  0  0  1  0  0  0  0  0999 V2000
  185.4630  178.7570  141.4060 C   0  0  0  0  0  3  0  0  0  0  0  0
  187.9480  177.8570  142.3540 C   0  0  0  0  0  0  0  0  0  0  0  0
  187.8390  178.3550  141.0330 C   0  0  0  0  0  0  0  0  0  0  0  0
  185.5710  178.2740  142.7100 C   0  0  0  0  0  0  0  0  0  0  0  0
  186.5860  178.8000  140.5790 C   0  0  0  0  0  3  0  0  0  0  0  0
  186.8170  177.8290  143.1760 C   0  0  0  0  0  3  0  0  0  0  0  0
  184.4030  178.2460  143.5390 N   0  0  0  0  0  0  0  0  0  0  0  0
  182.2590  179.0090  144.3320 C   0  0  0  0  0  1  0  0  0  0  0  0
  183.4400  179.1040  143.4340 C   0  0  0  0  0  3  0  0  0  0  0  0
  189.1840  177.3830  142.9110 N   0  0  0  0  0  2  0  0  0  0  0  0
  191.6020  177.5930  143.0330 C   0  0  0  0  0  1  0  0  0  0  0  0
  190.2690  178.2140  143.4130 C   0  0  2  0  0  3  0  0  0  0  0  0
  190.1590  178.3200  144.9220 C   0  0  0  0  0  2  0  0  0  0  0  0
  189.4930  177.0730  145.4940 C   0  0  0  0  0  2  0  0  0  0  0  0
  189.4700  177.8620  147.7690 O   0  0  0  0  0  1  0  0  0  0  0  0
  189.8940  176.8180  146.9430 C   0  0  2  0  0  3  0  0  0  0  0  0
  192.0480  175.7950  146.1780 O   0  0  0  0  0  0  0  0  0  0  0  0
  191.9840  177.1160  148.0490 O   0  0  0  0  0  1  0  0  0  0  0  0
  191.3650  176.5980  147.0840 C   0  0  0  0  0  0  0  0  0  0  0  0
  188.9800  178.4300  140.2150 O   0  0  0  0  0  0  0  0  0  0  0  0
  189.3270  176.6100  138.6630 N   0  0  0  0  0  0  0  0  0  0  0  0
  189.4080  177.0010  136.3080 C   0  0  0  0  0  0  0  0  0  0  0  0
  189.1980  178.3620  136.5380 C   0  0  0  0  0  3  0  0  0  0  0  0
  189.0520  178.8310  137.8430 C   0  0  0  0  0  3  0  0  0  0  0  0
  189.5510  176.5340  135.0070 O   0  0  0  0  0  1  0  0  0  0  0  0
  189.1160  177.9330  138.9110 C   0  0  0  0  0  0  0  0  0  0  0  0
  189.6960  174.6680  137.1980 C   0  0  0  0  0  1  0  0  0  0  0  0
  189.4710  176.1250  137.4000 C   0  0  0  0  0  0  0  0  0  0  0  0
  1  4  1  0  0  0  0
  2 10  1  0  0  0  0
  2  6  1  0  0  0  0
  3  2  2  0  0  0  0
  4  6  2  0  0  0  0
  4  7  1  0  0  0  0
  5  3  1  0  0  0  0
  5  1  2  0  0  0  0
  9  7  2  0  0  0  0
  9  8  1  0  0  0  0
 10 12  1  0  0  0  0
 12 11  1  1  0  0  0
 12 13  1  0  0  0  0
 13 14  1  0  0  0  0
 14 16  1  0  0  0  0
 16 19  1  0  0  0  0
 16 15  1  1  0  0  0
 17 19  2  0  0  0  0
 19 18  1  0  0  0  0
 20  3  1  0  0  0  0
 21 26  2  0  0  0  0
 22 23  1  0  0  0  0
 22 28  2  0  0  0  0
 23 24  2  0  0  0  0
 24 26  1  0  0  0  0
 25 22  1  0  0  0  0
 26 20  1  0  0  0  0
 27 28  1  0  0  0  0
 28 21  1  0  0  0  0
M  END
>  <MODEL>
6

>  <REMARK>
 VINA RESULT:      -7.3      2.662      6.197
  Name = 
  9 active torsions:
  status: ('A' for Active; 'I' for Inactive)
    1  A    between atoms: C_6  and  N_10
    2  A    between atoms: C_8  and  C_12
    3  A    between atoms: C_8  and  C_27
    4  A    between atoms: N_9  and  C_23
    5  A    between atoms: N_10  and  C_21
    6  A    between atoms: C_12  and  C_14
    7  A    between atoms: C_14  and  C_21
    8  A    between atoms: C_15  and  O_17
    9  A    between atoms: C_16  and  O_17
                            x       y       z     vdW  Elec       q    Type
                         _______ _______ _______ _____ _____    ______ ____

>  <TORSDO>
F 9

$$$$
=
 OpenBabel11042411593D

 28 29  0  0  1  0  0  0  0  0999 V2000
  191.6230  177.3520  143.1220 C   0  0  0  0  0  3  0  0  0  0  0  0
  188.8150  177.3550  143.1050 C   0  0  0  0  0  0  0  0  0  0  0  0
  189.5250  177.8150  141.9700 C   0  0  0  0  0  0  0  0  0  0  0  0
  190.9250  176.8910  144.2390 C   0  0  0  0  0  0  0  0  0  0  0  0
  190.9290  177.8060  142.0000 C   0  0  0  0  0  3  0  0  0  0  0  0
  189.5230  176.8940  144.2200 C   0  0  0  0  0  3  0  0  0  0  0  0
  191.6630  176.4260  145.3750 N   0  0  0  0  0  0  0  0  0  0  0  0
  192.0500  176.0110  147.7170 C   0  0  0  0  0  1  0  0  0  0  0  0
  191.2250  176.5170  146.5890 C   0  0  0  0  0  3  0  0  0  0  0  0
  187.3810  177.3220  143.1710 N   0  0  0  0  0  2  0  0  0  0  0  0
  186.2330  177.4470  145.3100 C   0  0  0  0  0  1  0  0  0  0  0  0
  186.5460  178.1690  144.0100 C   0  0  2  0  0  3  0  0  0  0  0  0
  185.2580  178.4880  143.2730 C   0  0  0  0  0  2  0  0  0  0  0  0
  185.5610  178.9280  141.8460 C   0  0  0  0  0  2  0  0  0  0  0  0
  183.7150  177.6670  140.9490 O   0  0  0  0  0  1  0  0  0  0  0  0
  184.3150  178.9280  140.9650 C   0  0  2  0  0  3  0  0  0  0  0  0
  185.5970  178.7550  138.8200 O   0  0  0  0  0  0  0  0  0  0  0  0
  183.9990  180.3740  139.0960 O   0  0  0  0  0  1  0  0  0  0  0  0
  184.6160  179.3870  139.5750 C   0  0  0  0  0  0  0  0  0  0  0  0
  188.8220  178.2380  140.8280 O   0  0  0  0  0  0  0  0  0  0  0  0
  189.4880  176.6640  139.1180 N   0  0  0  0  0  0  0  0  0  0  0  0
  189.7090  177.3460  136.8390 C   0  0  0  0  0  0  0  0  0  0  0  0
  189.3320  178.6400  137.2010 C   0  0  0  0  0  3  0  0  0  0  0  0
  189.0350  178.9310  138.5320 C   0  0  0  0  0  3  0  0  0  0  0  0
  190.0030  177.0580  135.5120 O   0  0  0  0  0  1  0  0  0  0  0  0
  189.1140  177.9200  139.4930 C   0  0  0  0  0  0  0  0  0  0  0  0
  190.1820  174.9620  137.4820 C   0  0  0  0  0  1  0  0  0  0  0  0
  189.7830  176.3540  137.8260 C   0  0  0  0  0  0  0  0  0  0  0  0
  1  4  1  0  0  0  0
  2 10  1  0  0  0  0
  2  6  1  0  0  0  0
  3  5  1  0  0  0  0
  3  2  2  0  0  0  0
  4  7  1  0  0  0  0
  5  1  2  0  0  0  0
  6  4  2  0  0  0  0
  7  9  2  0  0  0  0
  9  8  1  0  0  0  0
 10 12  1  0  0  0  0
 12 11  1  1  0  0  0
 13 12  1  0  0  0  0
 14 13  1  0  0  0  0
 16 15  1  6  0  0  0
 16 14  1  0  0  0  0
 17 19  2  0  0  0  0
 18 19  1  0  0  0  0
 19 16  1  0  0  0  0
 20  3  1  0  0  0  0
 21 26  2  0  0  0  0
 22 23  1  0  0  0  0
 22 28  2  0  0  0  0
 23 24  2  0  0  0  0
 24 26  1  0  0  0  0
 25 22  1  0  0  0  0
 26 20  1  0  0  0  0
 27 28  1  0  0  0  0
 28 21  1  0  0  0  0
M  END
>  <MODEL>
7

>  <REMARK>
 VINA RESULT:      -7.3      0.981      1.476
  Name = 
  9 active torsions:
  status: ('A' for Active; 'I' for Inactive)
    1  A    between atoms: C_6  and  N_10
    2  A    between atoms: C_8  and  C_12
    3  A    between atoms: C_8  and  C_27
    4  A    between atoms: N_9  and  C_23
    5  A    between atoms: N_10  and  C_21
    6  A    between atoms: C_12  and  C_14
    7  A    between atoms: C_14  and  C_21
    8  A    between atoms: C_15  and  O_17
    9  A    between atoms: C_16  and  O_17
                            x       y       z     vdW  Elec       q    Type
                         _______ _______ _______ _____ _____    ______ ____

>  <TORSDO>
F 9

$$$$
=
 OpenBabel11042411593D

 28 29  0  0  1  0  0  0  0  0999 V2000
  183.5520  178.4950  139.9620 C   0  0  0  0  0  3  0  0  0  0  0  0
  184.7290  178.8890  142.4810 C   0  0  0  0  0  0  0  0  0  0  0  0
  185.5270  178.9610  141.3130 C   0  0  0  0  0  0  0  0  0  0  0  0
  182.7630  178.4320  141.1110 C   0  0  0  0  0  0  0  0  0  0  0  0
  184.9180  178.7600  140.0630 C   0  0  0  0  0  3  0  0  0  0  0  0
  183.3590  178.6330  142.3640 C   0  0  0  0  0  3  0  0  0  0  0  0
  181.3620  178.1640  140.9770 N   0  0  0  0  0  0  0  0  0  0  0  0
  179.4220  177.0160  140.1270 C   0  0  0  0  0  1  0  0  0  0  0  0
  180.8890  177.2340  140.2120 C   0  0  0  0  0  3  0  0  0  0  0  0
  185.2580  179.0820  143.8020 N   0  0  0  0  0  2  0  0  0  0  0  0
  185.2020  178.6270  146.1890 C   0  0  0  0  0  1  0  0  0  0  0  0
  185.4450  178.0450  144.8060 C   0  0  2  0  0  3  0  0  0  0  0  0
  186.8610  177.5090  144.7120 C   0  0  0  0  0  2  0  0  0  0  0  0
  187.6610  177.9070  145.9470 C   0  0  0  0  0  2  0  0  0  0  0  0
  189.3550  176.6130  144.8250 O   0  0  0  0  0  1  0  0  0  0  0  0
  189.1470  177.5930  145.7980 C   0  0  2  0  0  3  0  0  0  0  0  0
  190.9800  176.5160  147.1220 O   0  0  0  0  0  0  0  0  0  0  0  0
  189.1580  177.4230  148.1750 O   0  0  0  0  0  1  0  0  0  0  0  0
  189.7630  177.1860  147.0980 C   0  0  0  0  0  0  0  0  0  0  0  0
  186.8960  179.2630  141.4170 O   0  0  0  0  0  0  0  0  0  0  0  0
  188.1770  178.6230  139.4700 N   0  0  0  0  0  0  0  0  0  0  0  0
  190.0650  177.1730  139.6620 C   0  0  0  0  0  0  0  0  0  0  0  0
  189.8590  177.1060  141.0410 C   0  0  0  0  0  3  0  0  0  0  0  0
  188.8030  177.8080  141.6210 C   0  0  0  0  0  3  0  0  0  0  0  0
  191.1190  176.4740  139.0860 O   0  0  0  0  0  1  0  0  0  0  0  0
  187.9600  178.5760  140.8140 C   0  0  0  0  0  0  0  0  0  0  0  0
  189.3830  178.0450  137.4050 C   0  0  0  0  0  1  0  0  0  0  0  0
  189.2000  177.9490  138.8790 C   0  0  0  0  0  0  0  0  0  0  0  0
  1  5  2  0  0  0  0
  1  4  1  0  0  0  0
  2 10  1  0  0  0  0
  3 20  1  0  0  0  0
  3  2  2  0  0  0  0
  4  6  2  0  0  0  0
  5  3  1  0  0  0  0
  6  2  1  0  0  0  0
  7  4  1  0  0  0  0
  8  9  1  0  0  0  0
  9  7  2  0  0  0  0
 10 12  1  0  0  0  0
 12 11  1  1  0  0  0
 13 12  1  0  0  0  0
 13 14  1  0  0  0  0
 16 15  1  6  0  0  0
 16 14  1  0  0  0  0
 16 19  1  0  0  0  0
 19 17  2  0  0  0  0
 19 18  1  0  0  0  0
 21 26  2  0  0  0  0
 22 23  1  0  0  0  0
 23 24  2  0  0  0  0
 25 22  1  0  0  0  0
 26 20  1  0  0  0  0
 26 24  1  0  0  0  0
 27 28  1  0  0  0  0
 28 21  1  0  0  0  0
 28 22  2  0  0  0  0
M  END
>  <MODEL>
8

>  <REMARK>
 VINA RESULT:      -7.3      2.890      6.780
  Name = 
  9 active torsions:
  status: ('A' for Active; 'I' for Inactive)
    1  A    between atoms: C_6  and  N_10
    2  A    between atoms: C_8  and  C_12
    3  A    between atoms: C_8  and  C_27
    4  A    between atoms: N_9  and  C_23
    5  A    between atoms: N_10  and  C_21
    6  A    between atoms: C_12  and  C_14
    7  A    between atoms: C_14  and  C_21
    8  A    between atoms: C_15  and  O_17
    9  A    between atoms: C_16  and  O_17
                            x       y       z     vdW  Elec       q    Type
                         _______ _______ _______ _____ _____    ______ ____

>  <TORSDO>
F 9

$$$$
=
 OpenBabel11042411593D

 28 29  0  0  1  0  0  0  0  0999 V2000
  189.0720  177.2410  141.1280 C   0  0  0  0  0  3  0  0  0  0  0  0
  186.7740  178.2500  142.3860 C   0  0  0  0  0  0  0  0  0  0  0  0
  187.5440  177.2500  143.0280 C   0  0  0  0  0  0  0  0  0  0  0  0
  188.3190  178.2320  140.4980 C   0  0  0  0  0  0  0  0  0  0  0  0
  188.6900  176.7590  142.3800 C   0  0  0  0  0  3  0  0  0  0  0  0
  187.1740  178.7320  141.1360 C   0  0  0  0  0  3  0  0  0  0  0  0
  188.7370  178.7130  139.2160 N   0  0  0  0  0  0  0  0  0  0  0  0
  189.0310  178.6130  136.8260 C   0  0  0  0  0  1  0  0  0  0  0  0
  188.5690  178.0460  138.1200 C   0  0  0  0  0  3  0  0  0  0  0  0
  185.5890  178.8170  142.9670 N   0  0  0  0  0  2  0  0  0  0  0  0
  183.8410  178.1690  141.4080 C   0  0  0  0  0  1  0  0  0  0  0  0
  184.2440  178.2680  142.8700 C   0  0  2  0  0  3  0  0  0  0  0  0
  183.2800  179.1760  143.6110 C   0  0  0  0  0  2  0  0  0  0  0  0
  181.9830  178.4350  143.9140 C   0  0  0  0  0  2  0  0  0  0  0  0
  179.6330  178.8240  144.2720 O   0  0  0  0  0  1  0  0  0  0  0  0
  180.7500  179.2580  143.5540 C   0  0  2  0  0  3  0  0  0  0  0  0
  180.3440  180.4220  141.3740 O   0  0  0  0  0  0  0  0  0  0  0  0
  180.3300  178.1340  141.4950 O   0  0  0  0  0  1  0  0  0  0  0  0
  180.4750  179.2350  142.0850 C   0  0  0  0  0  0  0  0  0  0  0  0
  187.1750  176.7920  144.3050 O   0  0  0  0  0  0  0  0  0  0  0  0
  189.0190  176.8090  145.8680 N   0  0  0  0  0  0  0  0  0  0  0  0
  188.8260  177.8990  147.9850 C   0  0  0  0  0  0  0  0  0  0  0  0
  187.5190  178.2690  147.6630 C   0  0  0  0  0  3  0  0  0  0  0  0
  186.9760  177.9000  146.4330 C   0  0  0  0  0  3  0  0  0  0  0  0
  189.3670  178.2690  149.2110 O   0  0  0  0  0  1  0  0  0  0  0  0
  187.7470  177.1630  145.5300 C   0  0  0  0  0  0  0  0  0  0  0  0
  190.9690  176.7390  147.3670 C   0  0  0  0  0  1  0  0  0  0  0  0
  189.5730  177.1560  147.0610 C   0  0  0  0  0  0  0  0  0  0  0  0
  1  5  1  0  0  0  0
  2 10  1  0  0  0  0
  2  3  1  0  0  0  0
  3 20  1  0  0  0  0
  4  1  2  0  0  0  0
  4  6  1  0  0  0  0
  5  3  2  0  0  0  0
  6  2  2  0  0  0  0
  7  4  1  0  0  0  0
  8  9  1  0  0  0  0
  9  7  2  0  0  0  0
 12 11  1  6  0  0  0
 12 10  1  0  0  0  0
 12 13  1  0  0  0  0
 13 14  1  0  0  0  0
 16 14  1  0  0  0  0
 16 15  1  1  0  0  0
 17 19  2  0  0  0  0
 18 19  1  0  0  0  0
 19 16  1  0  0  0  0
 20 26  1  0  0  0  0
 21 28  1  0  0  0  0
 22 25  1  0  0  0  0
 23 22  1  0  0  0  0
 24 23  2  0  0  0  0
 26 21  2  0  0  0  0
 26 24  1  0  0  0  0
 28 27  1  0  0  0  0
 28 22  2  0  0  0  0
M  END
>  <MODEL>
9

>  <REMARK>
 VINA RESULT:      -7.3      2.861      6.784
  Name = 
  9 active torsions:
  status: ('A' for Active; 'I' for Inactive)
    1  A    between atoms: C_6  and  N_10
    2  A    between atoms: C_8  and  C_12
    3  A    between atoms: C_8  and  C_27
    4  A    between atoms: N_9  and  C_23
    5  A    between atoms: N_10  and  C_21
    6  A    between atoms: C_12  and  C_14
    7  A    between atoms: C_14  and  C_21
    8  A    between atoms: C_15  and  O_17
    9  A    between atoms: C_16  and  O_17
                            x       y       z     vdW  Elec       q    Type
                         _______ _______ _______ _____ _____    ______ ____

>  <TORSDO>
F 9

$$$$
