=
 OpenBabel11032420183D

 64 69  0  0  1  0  0  0  0  0999 V2000
  189.6410  178.1350  143.9620 N   0  0  0  0  0  0  0  0  0  0  0  0
  191.7420  177.9610  142.7240 C   0  0  0  0  0  2  0  0  0  0  0  0
  190.9680  177.2760  141.6330 C   0  0  2  0  0  3  0  0  0  0  0  0
  189.6740  176.9460  141.8610 C   0  0  1  0  0  3  0  0  0  0  0  0
  190.8270  178.8740  143.5400 C   0  0  0  0  0  2  0  0  0  0  0  0
  189.0680  177.2730  143.1750 C   0  0  0  0  0  0  0  0  0  0  0  0
  188.7460  176.4940  140.7650 C   0  0  0  0  0  2  0  0  0  0  0  0
  189.3880  178.5440  139.5630 N   0  0  0  0  0  0  0  0  0  0  0  0
  187.3420  179.0910  136.8380 O   0  0  0  0  0  0  0  0  0  0  0  0
  187.9150  178.6830  137.8810 C   0  0  0  0  0  0  0  0  0  0  0  0
  189.0490  179.3090  138.4490 N   0  0  0  0  0  2  0  0  0  0  0  0
  187.5140  177.4850  138.6590 C   0  0  0  0  0  2  0  0  0  0  0  0
  188.5550  177.5640  139.7300 C   0  0  0  0  0  0  0  0  0  0  0  0
  191.6870  176.9570  140.4640 O   0  0  0  0  0  0  0  0  0  0  0  0
  193.5600  177.1350  139.0000 C   0  0  0  0  0  3  0  0  0  0  0  0
  192.9530  177.4440  140.1390 C   0  0  0  0  0  3  0  0  0  0  0  0
  192.9450  176.2710  137.9280 C   0  0  1  0  0  3  0  0  0  0  0  0
  193.9040  175.2230  137.4070 C   0  0  0  0  0  0  0  0  0  0  0  0
  193.6210  174.6020  136.3430 O   0  0  0  0  0  0  0  0  0  0  0  0
  195.1820  175.0460  138.0350 N   0  0  0  0  0  2  0  0  0  0  0  0
  196.1780  172.6810  137.9170 C   0  0  0  0  0  0  0  0  0  0  0  0
  197.1230  171.8030  137.2110 C   0  0  0  0  0  3  0  0  0  0  0  0
  197.2960  174.6480  137.0240 C   0  0  0  0  0  3  0  0  0  0  0  0
  198.1700  172.3320  136.5720 C   0  0  0  0  0  3  0  0  0  0  0  0
  195.3530  172.1810  138.7250 O   0  0  0  0  0  0  0  0  0  0  0  0
  198.4840  173.8070  136.6420 C   0  0  0  0  0  2  0  0  0  0  0  0
  196.2320  174.1430  137.6610 C   0  0  0  0  0  0  0  0  0  0  0  0
  191.5830  175.6520  138.3310 C   0  0  0  0  0  2  0  0  0  0  0  0
  190.4940  176.6620  136.3190 C   0  0  0  0  0  3  0  0  0  0  0  0
  188.5750  175.6330  135.2670 C   0  0  0  0  0  3  0  0  0  0  0  0
  188.6260  174.5840  136.1840 C   0  0  0  0  0  0  0  0  0  0  0  0
  190.5510  175.6210  137.2470 C   0  0  0  0  0  0  0  0  0  0  0  0
  189.6200  174.5790  137.1800 C   0  0  0  0  0  3  0  0  0  0  0  0
  189.5060  176.6740  135.3310 C   0  0  0  0  0  3  0  0  0  0  0  0
  187.5440  172.5110  137.0350 C   0  0  0  0  0  1  0  0  0  0  0  0
  187.6740  173.5670  136.0800 O   0  0  0  0  0  0  0  0  0  0  0  0
  187.8170  176.5710  143.6210 C   0  0  0  0  0  2  0  0  0  0  0  0
  186.6530  177.5370  143.8090 C   0  0  1  0  0  3  0  0  0  0  0  0
  185.8220  179.1210  145.5520 O   0  0  0  0  0  0  0  0  0  0  0  0
  187.2030  177.3850  146.1410 O   0  0  0  0  0  1  0  0  0  0  0  0
  186.5760  177.9940  145.2330 C   0  0  0  0  0  0  0  0  0  0  0  0
  186.7540  178.7460  142.8830 C   0  0  0  0  0  2  0  0  0  0  0  0
  185.6080  178.7190  141.8880 C   0  0  0  0  0  2  0  0  0  0  0  0
  184.3680  178.1020  142.5150 C   0  0  0  0  0  2  0  0  0  0  0  0
  182.1600  178.8750  143.3270 C   0  0  0  0  0  1  0  0  0  0  0  0
  183.1210  178.9000  142.1510 C   0  0  2  0  0  3  0  0  0  0  0  0
  181.4830  179.2860  140.2430 N   0  0  0  0  0  2  0  0  0  0  0  0
  182.4530  178.4420  140.8770 C   0  0  0  0  0  0  0  0  0  0  0  0
  182.8320  177.3860  140.3010 O   0  0  0  0  0  0  0  0  0  0  0  0
  180.4410  181.0180  136.8560 C   0  0  2  0  0  3  0  0  0  0  0  0
  181.6500  181.1890  138.2190 S   0  0  0  0  0  0  0  0  0  0  0  0
  181.1530  178.6670  136.5260 C   0  0  0  0  0  0  0  0  0  0  0  0
  181.2720  178.4810  137.9830 C   0  0  0  0  0  3  0  0  0  0  0  0
  180.8060  179.8450  135.9950 C   0  0  0  0  0  3  0  0  0  0  0  0
  181.3870  179.5110  138.8330 C   0  0  0  0  0  0  0  0  0  0  0  0
  180.4250  182.1790  136.0880 O   0  0  0  0  0  0  0  0  0  0  0  0
  180.7600  183.2050  136.9780 C   0  0  0  0  0  1  0  0  0  0  0  0
  181.3480  177.4920  135.6240 C   0  0  0  0  0  2  0  0  0  0  0  0
  183.5570  174.8950  137.2630 C   0  0  0  0  0  3  0  0  0  0  0  0
  184.8280  175.3710  136.9330 C   0  0  0  0  0  3  0  0  0  0  0  0
  182.5580  176.7220  136.0270 C   0  0  0  0  0  0  0  0  0  0  0  0
  183.8330  177.1940  135.6980 C   0  0  0  0  0  3  0  0  0  0  0  0
  184.9660  176.5180  136.1490 C   0  0  0  0  0  3  0  0  0  0  0  0
  182.4240  175.5710  136.8130 C   0  0  0  0  0  3  0  0  0  0  0  0
  2  5  1  0  0  0  0
  3 14  1  1  0  0  0
  3  4  1  0  0  0  0
  3  2  1  0  0  0  0
  4  7  1  6  0  0  0
  4  6  1  0  0  0  0
  5  1  1  0  0  0  0
  6 37  1  0  0  0  0
  6  1  2  0  0  0  0
  8 13  2  0  0  0  0
  9 10  2  0  0  0  0
 10 11  1  0  0  0  0
 10 12  1  0  0  0  0
 11  8  1  0  0  0  0
 12 13  1  0  0  0  0
 13  7  1  0  0  0  0
 15 16  2  0  0  0  0
 16 14  1  0  0  0  0
 17 28  1  1  0  0  0
 17 15  1  0  0  0  0
 18 17  1  0  0  0  0
 18 20  1  0  0  0  0
 19 18  2  0  0  0  0
 21 25  2  0  0  0  0
 22 21  1  0  0  0  0
 23 27  2  0  0  0  0
 24 26  1  0  0  0  0
 24 22  2  0  0  0  0
 26 23  1  0  0  0  0
 27 21  1  0  0  0  0
 27 20  1  0  0  0  0
 29 32  1  0  0  0  0
 30 34  1  0  0  0  0
 30 31  2  0  0  0  0
 31 33  1  0  0  0  0
 32 28  1  0  0  0  0
 33 32  2  0  0  0  0
 34 29  2  0  0  0  0
 36 31  1  0  0  0  0
 36 35  1  0  0  0  0
 37 38  1  0  0  0  0
 38 42  1  6  0  0  0
 38 41  1  0  0  0  0
 41 39  2  0  0  0  0
 41 40  1  0  0  0  0
 43 44  1  0  0  0  0
 43 42  1  0  0  0  0
 46 44  1  0  0  0  0
 46 45  1  1  0  0  0
 47 48  1  0  0  0  0
 48 46  1  0  0  0  0
 49 48  2  0  0  0  0
 50 56  1  6  0  0  0
 50 51  1  0  0  0  0
 51 55  1  0  0  0  0
 52 53  1  0  0  0  0
 53 55  2  0  0  0  0
 54 52  2  0  0  0  0
 54 50  1  0  0  0  0
 55 47  1  0  0  0  0
 56 57  1  0  0  0  0
 58 61  1  0  0  0  0
 58 52  1  0  0  0  0
 60 59  1  0  0  0  0
 61 64  1  0  0  0  0
 62 61  2  0  0  0  0
 62 63  1  0  0  0  0
 63 60  2  0  0  0  0
 64 59  2  0  0  0  0
M  END
>  <MODEL>
1

>  <REMARK>
 VINA RESULT:      -6.8      0.000      0.000
  Name = 
  22 active torsions:
  status: ('A' for Active; 'I' for Inactive)
    1  A    between atoms: C_4  and  C_13
    2  A    between atoms: C_4  and  C_55
    3  A    between atoms: C_8  and  C_45
    4  A    between atoms: C_13  and  C_36
    5  A    between atoms: C_13  and  C_53
    6  A    between atoms: C_14  and  C_53
    7  A    between atoms: C_14  and  C_59
    8  A    between atoms: C_15  and  C_26
    9  A    between atoms: C_15  and  C_45
   10  A    between atoms: O_21  and  C_31
   11  A    between atoms: O_21  and  C_54
   12  A    between atoms: C_22  and  O_32
   13  A    between atoms: C_23  and  C_35
   14  A    between atoms: O_25  and  C_27
   15  A    between atoms: C_29  and  C_35
   16  A    between atoms: N_30  and  C_58
   17  A    between atoms: C_33  and  C_62
   18  A    between atoms: C_34  and  C_56
   19  A    between atoms: C_45  and  C_46
   20  A    between atoms: C_56  and  C_61
   21  A    between atoms: C_59  and  C_62
   22  A    between atoms: N_63  and  C_64
                            x       y       z     vdW  Elec       q    Type
                         _______ _______ _______ _____ _____    ______ ____

>  <TORSDO>
F 22

$$$$
=
 OpenBabel11032420183D

 64 69  0  0  1  0  0  0  0  0999 V2000
  189.5780  178.1780  143.8590 N   0  0  0  0  0  0  0  0  0  0  0  0
  191.7060  178.0180  142.6670 C   0  0  0  0  0  2  0  0  0  0  0  0
  190.9620  177.3220  141.5620 C   0  0  2  0  0  3  0  0  0  0  0  0
  189.6660  176.9810  141.7640 C   0  0  1  0  0  3  0  0  0  0  0  0
  190.7660  178.9260  143.4590 C   0  0  0  0  0  2  0  0  0  0  0  0
  189.0300  177.3070  143.0640 C   0  0  0  0  0  0  0  0  0  0  0  0
  188.7660  176.5170  140.6500 C   0  0  0  0  0  2  0  0  0  0  0  0
  189.4150  178.5620  139.4440 N   0  0  0  0  0  0  0  0  0  0  0  0
  187.3750  179.1070  136.7140 O   0  0  0  0  0  0  0  0  0  0  0  0
  187.9450  178.7000  137.7590 C   0  0  0  0  0  0  0  0  0  0  0  0
  189.0800  179.3250  138.3270 N   0  0  0  0  0  2  0  0  0  0  0  0
  187.5390  177.5060  138.5400 C   0  0  0  0  0  2  0  0  0  0  0  0
  188.5790  177.5840  139.6120 C   0  0  0  0  0  0  0  0  0  0  0  0
  191.7080  177.0050  140.4090 O   0  0  0  0  0  0  0  0  0  0  0  0
  193.5880  177.2330  138.9610 C   0  0  0  0  0  3  0  0  0  0  0  0
  192.9640  177.5250  140.0960 C   0  0  0  0  0  3  0  0  0  0  0  0
  193.0040  176.3550  137.8830 C   0  0  1  0  0  3  0  0  0  0  0  0
  194.0130  175.3780  137.3200 C   0  0  0  0  0  0  0  0  0  0  0  0
  193.9170  175.0190  136.1120 O   0  0  0  0  0  0  0  0  0  0  0  0
  195.1440  174.9830  138.1090 N   0  0  0  0  0  2  0  0  0  0  0  0
  196.1890  172.6410  137.9550 C   0  0  0  0  0  0  0  0  0  0  0  0
  197.1650  171.7990  137.2480 C   0  0  0  0  0  3  0  0  0  0  0  0
  197.2860  174.6500  137.1340 C   0  0  0  0  0  3  0  0  0  0  0  0
  198.2140  172.3640  136.6440 C   0  0  0  0  0  3  0  0  0  0  0  0
  195.3580  172.1070  138.7350 O   0  0  0  0  0  0  0  0  0  0  0  0
  198.4980  173.8420  136.7560 C   0  0  0  0  0  2  0  0  0  0  0  0
  196.2200  174.1100  137.7360 C   0  0  0  0  0  0  0  0  0  0  0  0
  191.6900  175.6460  138.2990 C   0  0  0  0  0  2  0  0  0  0  0  0
  190.6130  176.5980  136.2530 C   0  0  0  0  0  3  0  0  0  0  0  0
  188.5760  175.6650  135.3450 C   0  0  0  0  0  3  0  0  0  0  0  0
  188.5740  174.6850  136.3360 C   0  0  0  0  0  0  0  0  0  0  0  0
  190.6190  175.6260  137.2550 C   0  0  0  0  0  0  0  0  0  0  0  0
  189.6020  174.6670  137.2970 C   0  0  0  0  0  3  0  0  0  0  0  0
  189.5920  176.6230  135.2990 C   0  0  0  0  0  3  0  0  0  0  0  0
  186.3000  173.9510  137.0330 C   0  0  0  0  0  1  0  0  0  0  0  0
  187.5360  173.7500  136.3410 O   0  0  0  0  0  0  0  0  0  0  0  0
  187.7760  176.5960  143.4850 C   0  0  0  0  0  2  0  0  0  0  0  0
  186.5820  177.5390  143.5740 C   0  0  1  0  0  3  0  0  0  0  0  0
  187.0320  177.3390  146.0220 O   0  0  0  0  0  1  0  0  0  0  0  0
  185.6240  178.9760  145.2420 O   0  0  0  0  0  0  0  0  0  0  0  0
  186.3850  178.0040  144.9830 C   0  0  0  0  0  0  0  0  0  0  0  0
  186.7320  178.7440  142.6490 C   0  0  0  0  0  2  0  0  0  0  0  0
  185.6610  178.6950  141.5740 C   0  0  0  0  0  2  0  0  0  0  0  0
  184.4120  178.0010  142.0940 C   0  0  0  0  0  2  0  0  0  0  0  0
  182.5840  178.7970  143.5620 C   0  0  0  0  0  1  0  0  0  0  0  0
  183.2540  178.9850  142.2120 C   0  0  2  0  0  3  0  0  0  0  0  0
  182.6080  179.4140  139.7880 N   0  0  0  0  0  2  0  0  0  0  0  0
  182.2600  178.8980  141.0800 C   0  0  0  0  0  0  0  0  0  0  0  0
  181.1790  178.2650  141.2270 O   0  0  0  0  0  0  0  0  0  0  0  0
  183.1750  177.2390  136.5470 C   0  0  2  0  0  3  0  0  0  0  0  0
  182.8170  177.0510  138.3320 S   0  0  0  0  0  0  0  0  0  0  0  0
  181.2360  178.7660  136.3240 C   0  0  0  0  0  0  0  0  0  0  0  0
  181.5480  179.3810  137.6270 C   0  0  0  0  0  3  0  0  0  0  0  0
  181.9590  177.7520  135.8340 C   0  0  0  0  0  3  0  0  0  0  0  0
  182.3160  178.7740  138.5430 C   0  0  0  0  0  0  0  0  0  0  0  0
  183.5550  176.0120  136.0090 O   0  0  0  0  0  0  0  0  0  0  0  0
  182.6860  175.0800  136.5850 C   0  0  0  0  0  1  0  0  0  0  0  0
  180.1350  179.3400  135.4940 C   0  0  0  0  0  2  0  0  0  0  0  0
  179.1970  182.7650  136.7980 C   0  0  0  0  0  3  0  0  0  0  0  0
  179.8230  183.5940  135.8640 C   0  0  0  0  0  3  0  0  0  0  0  0
  180.0780  180.8210  135.6560 C   0  0  0  0  0  0  0  0  0  0  0  0
  180.7050  181.6540  134.7240 C   0  0  0  0  0  3  0  0  0  0  0  0
  180.5790  183.0390  134.8290 C   0  0  0  0  0  3  0  0  0  0  0  0
  179.3220  181.3810  136.6920 C   0  0  0  0  0  3  0  0  0  0  0  0
  2  5  1  0  0  0  0
  3 14  1  1  0  0  0
  3  4  1  0  0  0  0
  3  2  1  0  0  0  0
  4  7  1  6  0  0  0
  4  6  1  0  0  0  0
  5  1  1  0  0  0  0
  6 37  1  0  0  0  0
  6  1  2  0  0  0  0
  8 13  2  0  0  0  0
  9 10  2  0  0  0  0
 10 11  1  0  0  0  0
 10 12  1  0  0  0  0
 11  8  1  0  0  0  0
 12 13  1  0  0  0  0
 13  7  1  0  0  0  0
 15 16  2  0  0  0  0
 16 14  1  0  0  0  0
 17 28  1  1  0  0  0
 17 15  1  0  0  0  0
 18 17  1  0  0  0  0
 18 20  1  0  0  0  0
 19 18  2  0  0  0  0
 21 25  2  0  0  0  0
 22 21  1  0  0  0  0
 23 27  2  0  0  0  0
 24 26  1  0  0  0  0
 24 22  2  0  0  0  0
 26 23  1  0  0  0  0
 27 21  1  0  0  0  0
 27 20  1  0  0  0  0
 29 32  1  0  0  0  0
 30 31  2  0  0  0  0
 31 36  1  0  0  0  0
 31 33  1  0  0  0  0
 32 33  2  0  0  0  0
 32 28  1  0  0  0  0
 34 30  1  0  0  0  0
 34 29  2  0  0  0  0
 36 35  1  0  0  0  0
 37 38  1  0  0  0  0
 38 42  1  6  0  0  0
 38 41  1  0  0  0  0
 41 40  2  0  0  0  0
 41 39  1  0  0  0  0
 43 44  1  0  0  0  0
 43 42  1  0  0  0  0
 44 46  1  0  0  0  0
 46 45  1  1  0  0  0
 47 48  1  0  0  0  0
 48 49  2  0  0  0  0
 48 46  1  0  0  0  0
 50 56  1  6  0  0  0
 50 51  1  0  0  0  0
 51 55  1  0  0  0  0
 52 53  1  0  0  0  0
 53 55  2  0  0  0  0
 54 52  2  0  0  0  0
 54 50  1  0  0  0  0
 55 47  1  0  0  0  0
 56 57  1  0  0  0  0
 58 61  1  0  0  0  0
 58 52  1  0  0  0  0
 60 59  2  0  0  0  0
 61 64  2  0  0  0  0
 62 63  2  0  0  0  0
 62 61  1  0  0  0  0
 63 60  1  0  0  0  0
 64 59  1  0  0  0  0
M  END
>  <MODEL>
2

>  <REMARK>
 VINA RESULT:      -6.8      1.198      2.875
  Name = 
  22 active torsions:
  status: ('A' for Active; 'I' for Inactive)
    1  A    between atoms: C_4  and  C_13
    2  A    between atoms: C_4  and  C_55
    3  A    between atoms: C_8  and  C_45
    4  A    between atoms: C_13  and  C_36
    5  A    between atoms: C_13  and  C_53
    6  A    between atoms: C_14  and  C_53
    7  A    between atoms: C_14  and  C_59
    8  A    between atoms: C_15  and  C_26
    9  A    between atoms: C_15  and  C_45
   10  A    between atoms: O_21  and  C_31
   11  A    between atoms: O_21  and  C_54
   12  A    between atoms: C_22  and  O_32
   13  A    between atoms: C_23  and  C_35
   14  A    between atoms: O_25  and  C_27
   15  A    between atoms: C_29  and  C_35
   16  A    between atoms: N_30  and  C_58
   17  A    between atoms: C_33  and  C_62
   18  A    between atoms: C_34  and  C_56
   19  A    between atoms: C_45  and  C_46
   20  A    between atoms: C_56  and  C_61
   21  A    between atoms: C_59  and  C_62
   22  A    between atoms: N_63  and  C_64
                            x       y       z     vdW  Elec       q    Type
                         _______ _______ _______ _____ _____    ______ ____

>  <TORSDO>
F 22

$$$$
=
 OpenBabel11032420183D

 64 69  0  0  1  0  0  0  0  0999 V2000
  184.2160  179.1120  140.7130 N   0  0  0  0  0  0  0  0  0  0  0  0
  186.6410  178.8290  140.8210 C   0  0  0  0  0  2  0  0  0  0  0  0
  186.4500  178.2640  142.2000 C   0  0  2  0  0  3  0  0  0  0  0  0
  185.2180  178.3190  142.7620 C   0  0  1  0  0  3  0  0  0  0  0  0
  185.3820  178.6310  139.9790 C   0  0  0  0  0  2  0  0  0  0  0  0
  184.1050  178.9320  141.9960 C   0  0  0  0  0  0  0  0  0  0  0  0
  184.8620  177.5640  144.0150 C   0  0  0  0  0  2  0  0  0  0  0  0
  184.9960  179.4110  145.6360 N   0  0  0  0  0  0  0  0  0  0  0  0
  186.9810  178.5690  148.3310 O   0  0  0  0  0  0  0  0  0  0  0  0
  186.3400  178.6320  147.2510 C   0  0  0  0  0  0  0  0  0  0  0  0
  185.5530  179.7440  146.8690 N   0  0  0  0  0  2  0  0  0  0  0  0
  186.2890  177.5590  146.2280 C   0  0  0  0  0  2  0  0  0  0  0  0
  185.4010  178.2450  145.2390 C   0  0  0  0  0  0  0  0  0  0  0  0
  187.6070  177.7800  142.8420 O   0  0  0  0  0  0  0  0  0  0  0  0
  189.1090  175.9290  142.8800 C   0  0  0  0  0  3  0  0  0  0  0  0
  187.8970  176.4350  143.0730 C   0  0  0  0  0  3  0  0  0  0  0  0
  190.2980  176.7430  142.4350 C   0  0  1  0  0  3  0  0  0  0  0  0
  190.1590  177.2450  141.0150 C   0  0  0  0  0  0  0  0  0  0  0  0
  190.6330  178.3760  140.7110 O   0  0  0  0  0  0  0  0  0  0  0  0
  189.6280  176.3810  139.9990 N   0  0  0  0  0  2  0  0  0  0  0  0
  190.5800  176.6200  137.6250 C   0  0  0  0  0  0  0  0  0  0  0  0
  190.2650  176.5840  136.1900 C   0  0  0  0  0  3  0  0  0  0  0  0
  188.2290  176.9390  138.1600 C   0  0  0  0  0  3  0  0  0  0  0  0
  189.0240  176.8540  135.7750 C   0  0  0  0  0  3  0  0  0  0  0  0
  191.7820  176.6250  137.9960 O   0  0  0  0  0  0  0  0  0  0  0  0
  187.9460  177.3080  136.7290 C   0  0  0  0  0  2  0  0  0  0  0  0
  189.4610  176.6600  138.6010 C   0  0  0  0  0  0  0  0  0  0  0  0
  190.6740  177.8850  143.4130 C   0  0  0  0  0  2  0  0  0  0  0  0
  189.7230  178.0160  145.7220 C   0  0  0  0  0  3  0  0  0  0  0  0
  190.7650  176.8820  147.5860 C   0  0  0  0  0  3  0  0  0  0  0  0
  191.7370  176.3590  146.7340 C   0  0  0  0  0  0  0  0  0  0  0  0
  190.6940  177.5040  144.8600 C   0  0  0  0  0  0  0  0  0  0  0  0
  191.7010  176.6740  145.3630 C   0  0  0  0  0  3  0  0  0  0  0  0
  189.7570  177.7100  147.0860 C   0  0  0  0  0  3  0  0  0  0  0  0
  193.0620  175.5330  148.6710 C   0  0  0  0  0  1  0  0  0  0  0  0
  192.7250  175.5380  147.2820 O   0  0  0  0  0  0  0  0  0  0  0  0
  182.8660  179.3910  142.7110 C   0  0  0  0  0  2  0  0  0  0  0  0
  181.6000  178.7990  142.1040 C   0  0  1  0  0  3  0  0  0  0  0  0
  179.8770  180.0560  143.4030 O   0  0  0  0  0  0  0  0  0  0  0  0
  180.0820  177.7840  143.6640 O   0  0  0  0  0  1  0  0  0  0  0  0
  180.4770  178.8370  143.0930 C   0  0  0  0  0  0  0  0  0  0  0  0
  181.1850  179.5180  140.8230 C   0  0  0  0  0  2  0  0  0  0  0  0
  181.2230  178.5440  139.6590 C   0  0  0  0  0  2  0  0  0  0  0  0
  181.5660  179.2670  138.3670 C   0  0  0  0  0  2  0  0  0  0  0  0
  179.2270  178.5350  138.0110 C   0  0  0  0  0  1  0  0  0  0  0  0
  180.4770  179.0530  137.3210 C   0  0  2  0  0  3  0  0  0  0  0  0
  182.2740  177.8040  136.0220 N   0  0  0  0  0  2  0  0  0  0  0  0
  180.8930  178.1580  136.1790 C   0  0  0  0  0  0  0  0  0  0  0  0
  180.0240  177.6200  135.4410 O   0  0  0  0  0  0  0  0  0  0  0  0
  182.5560  173.8700  136.0280 C   0  0  2  0  0  3  0  0  0  0  0  0
  181.5370  175.2140  135.3190 S   0  0  0  0  0  0  0  0  0  0  0  0
  184.5990  174.9550  135.1380 C   0  0  0  0  0  0  0  0  0  0  0  0
  184.0600  176.2850  135.4740 C   0  0  0  0  0  3  0  0  0  0  0  0
  183.8970  173.8370  135.3560 C   0  0  0  0  0  3  0  0  0  0  0  0
  182.7520  176.5000  135.6810 C   0  0  0  0  0  0  0  0  0  0  0  0
  181.9120  172.6470  135.8590 O   0  0  0  0  0  0  0  0  0  0  0  0
  182.4680  171.8080  136.8300 C   0  0  0  0  0  1  0  0  0  0  0  0
  185.9930  174.8460  134.6140 C   0  0  0  0  0  2  0  0  0  0  0  0
  186.6750  171.1550  135.0850 C   0  0  0  0  0  3  0  0  0  0  0  0
  187.6800  171.1850  136.0540 C   0  0  0  0  0  3  0  0  0  0  0  0
  186.6240  173.5760  135.0710 C   0  0  0  0  0  0  0  0  0  0  0  0
  187.6310  173.6010  136.0410 C   0  0  0  0  0  3  0  0  0  0  0  0
  188.1600  172.4070  136.5310 C   0  0  0  0  0  3  0  0  0  0  0  0
  186.1460  172.3490  134.5970 C   0  0  0  0  0  3  0  0  0  0  0  0
  1  6  2  0  0  0  0
  2  3  1  0  0  0  0
  3  4  1  0  0  0  0
  3 14  1  1  0  0  0
  4  7  1  6  0  0  0
  5  1  1  0  0  0  0
  5  2  1  0  0  0  0
  6 37  1  0  0  0  0
  6  4  1  0  0  0  0
  7 13  1  0  0  0  0
  8 11  1  0  0  0  0
 10  9  2  0  0  0  0
 11 10  1  0  0  0  0
 12 10  1  0  0  0  0
 13  8  2  0  0  0  0
 13 12  1  0  0  0  0
 14 16  1  0  0  0  0
 15 16  2  0  0  0  0
 17 15  1  1  0  0  0
 17 28  1  0  0  0  0
 18 17  1  0  0  0  0
 19 18  2  0  0  0  0
 20 18  1  0  0  0  0
 21 25  2  0  0  0  0
 21 27  1  0  0  0  0
 22 21  1  0  0  0  0
 23 27  2  0  0  0  0
 24 22  2  0  0  0  0
 24 26  1  0  0  0  0
 26 23  1  0  0  0  0
 27 20  1  0  0  0  0
 28 32  1  0  0  0  0
 29 34  1  0  0  0  0
 31 36  1  0  0  0  0
 31 30  1  0  0  0  0
 32 33  1  0  0  0  0
 32 29  2  0  0  0  0
 33 31  2  0  0  0  0
 34 30  2  0  0  0  0
 36 35  1  0  0  0  0
 38 42  1  6  0  0  0
 38 37  1  0  0  0  0
 38 41  1  0  0  0  0
 41 39  2  0  0  0  0
 41 40  1  0  0  0  0
 43 42  1  0  0  0  0
 44 43  1  0  0  0  0
 46 45  1  1  0  0  0
 46 44  1  0  0  0  0
 47 48  1  0  0  0  0
 48 46  1  0  0  0  0
 49 48  2  0  0  0  0
 50 56  1  6  0  0  0
 51 55  1  0  0  0  0
 51 50  1  0  0  0  0
 52 54  2  0  0  0  0
 52 53  1  0  0  0  0
 53 55  2  0  0  0  0
 54 50  1  0  0  0  0
 55 47  1  0  0  0  0
 56 57  1  0  0  0  0
 58 61  1  0  0  0  0
 58 52  1  0  0  0  0
 59 60  1  0  0  0  0
 60 63  2  0  0  0  0
 61 62  2  0  0  0  0
 62 63  1  0  0  0  0
 64 61  1  0  0  0  0
 64 59  2  0  0  0  0
M  END
>  <MODEL>
3

>  <REMARK>
 VINA RESULT:      -6.2      3.422      7.405
  Name = 
  22 active torsions:
  status: ('A' for Active; 'I' for Inactive)
    1  A    between atoms: C_4  and  C_13
    2  A    between atoms: C_4  and  C_55
    3  A    between atoms: C_8  and  C_45
    4  A    between atoms: C_13  and  C_36
    5  A    between atoms: C_13  and  C_53
    6  A    between atoms: C_14  and  C_53
    7  A    between atoms: C_14  and  C_59
    8  A    between atoms: C_15  and  C_26
    9  A    between atoms: C_15  and  C_45
   10  A    between atoms: O_21  and  C_31
   11  A    between atoms: O_21  and  C_54
   12  A    between atoms: C_22  and  O_32
   13  A    between atoms: C_23  and  C_35
   14  A    between atoms: O_25  and  C_27
   15  A    between atoms: C_29  and  C_35
   16  A    between atoms: N_30  and  C_58
   17  A    between atoms: C_33  and  C_62
   18  A    between atoms: C_34  and  C_56
   19  A    between atoms: C_45  and  C_46
   20  A    between atoms: C_56  and  C_61
   21  A    between atoms: C_59  and  C_62
   22  A    between atoms: N_63  and  C_64
                            x       y       z     vdW  Elec       q    Type
                         _______ _______ _______ _____ _____    ______ ____

>  <TORSDO>
F 22

$$$$
=
 OpenBabel11032420183D

 64 69  0  0  1  0  0  0  0  0999 V2000
  184.8780  177.5740  137.4510 N   0  0  0  0  0  0  0  0  0  0  0  0
  182.8710  178.9070  137.8640 C   0  0  0  0  0  2  0  0  0  0  0  0
  182.1770  178.0650  136.8290 C   0  0  2  0  0  3  0  0  0  0  0  0
  182.9120  177.1870  136.1040 C   0  0  1  0  0  3  0  0  0  0  0  0
  184.0280  178.1350  138.4960 C   0  0  0  0  0  2  0  0  0  0  0  0
  184.3710  177.0880  136.3570 C   0  0  0  0  0  0  0  0  0  0  0  0
  182.2870  176.1290  135.2340 C   0  0  0  0  0  2  0  0  0  0  0  0
  182.4050  174.3510  136.9320 N   0  0  0  0  0  0  0  0  0  0  0  0
  183.3680  171.3460  135.5320 O   0  0  0  0  0  0  0  0  0  0  0  0
  183.0650  172.5400  135.7900 C   0  0  0  0  0  0  0  0  0  0  0  0
  182.6790  172.9920  137.0730 N   0  0  0  0  0  2  0  0  0  0  0  0
  183.0430  173.6450  134.8000 C   0  0  0  0  0  2  0  0  0  0  0  0
  182.6250  174.7500  135.7170 C   0  0  0  0  0  0  0  0  0  0  0  0
  180.8030  178.3150  136.6400 O   0  0  0  0  0  0  0  0  0  0  0  0
  179.7850  179.5600  138.4000 C   0  0  0  0  0  3  0  0  0  0  0  0
  180.1140  179.4290  137.1210 C   0  0  0  0  0  3  0  0  0  0  0  0
  180.1460  178.5570  139.4670 C   0  0  1  0  0  3  0  0  0  0  0  0
  180.9230  179.1780  140.6080 C   0  0  0  0  0  0  0  0  0  0  0  0
  180.7380  180.3960  140.8890 O   0  0  0  0  0  0  0  0  0  0  0  0
  181.7460  178.3530  141.4460 N   0  0  0  0  0  2  0  0  0  0  0  0
  181.9980  178.6820  143.9810 C   0  0  0  0  0  0  0  0  0  0  0  0
  182.9510  178.7810  145.0960 C   0  0  0  0  0  3  0  0  0  0  0  0
  183.7710  179.1660  142.3880 C   0  0  0  0  0  3  0  0  0  0  0  0
  184.2020  179.1880  144.8660 C   0  0  0  0  0  3  0  0  0  0  0  0
  180.7700  178.5550  144.2240 O   0  0  0  0  0  0  0  0  0  0  0  0
  184.6480  179.6630  143.5040 C   0  0  0  0  0  2  0  0  0  0  0  0
  182.5160  178.7480  142.5900 C   0  0  0  0  0  0  0  0  0  0  0  0
  178.9400  177.7290  139.9790 C   0  0  0  0  0  2  0  0  0  0  0  0
  179.3560  175.4480  140.9160 C   0  0  0  0  0  3  0  0  0  0  0  0
  179.3980  173.4870  139.5010 C   0  0  0  0  0  3  0  0  0  0  0  0
  179.1010  174.2750  138.3890 C   0  0  0  0  0  0  0  0  0  0  0  0
  179.0660  176.2480  139.8090 C   0  0  0  0  0  0  0  0  0  0  0  0
  178.9350  175.6630  138.5450 C   0  0  0  0  0  3  0  0  0  0  0  0
  179.5270  174.0690  140.7660 C   0  0  0  0  0  3  0  0  0  0  0  0
  179.2900  172.2680  136.9300 C   0  0  0  0  0  1  0  0  0  0  0  0
  178.9830  173.6470  137.1470 O   0  0  0  0  0  0  0  0  0  0  0  0
  185.2710  176.4680  135.3270 C   0  0  0  0  0  2  0  0  0  0  0  0
  186.5730  175.9600  135.9330 C   0  0  1  0  0  3  0  0  0  0  0  0
  187.4590  174.0470  134.5940 O   0  0  0  0  0  0  0  0  0  0  0  0
  186.1810  173.6510  136.4580 O   0  0  0  0  0  1  0  0  0  0  0  0
  186.7260  174.4910  135.6920 C   0  0  0  0  0  0  0  0  0  0  0  0
  187.7900  176.7020  135.3850 C   0  0  0  0  0  2  0  0  0  0  0  0
  188.9010  176.6880  136.4190 C   0  0  0  0  0  2  0  0  0  0  0  0
  190.2620  176.6610  135.7420 C   0  0  0  0  0  2  0  0  0  0  0  0
  190.4890  174.2290  136.1470 C   0  0  0  0  0  1  0  0  0  0  0  0
  191.1490  175.5820  136.3520 C   0  0  2  0  0  3  0  0  0  0  0  0
  191.1690  177.0770  138.4100 N   0  0  0  0  0  2  0  0  0  0  0  0
  191.4920  175.8200  137.8030 C   0  0  0  0  0  0  0  0  0  0  0  0
  191.9430  174.8820  138.5140 O   0  0  0  0  0  0  0  0  0  0  0  0
  188.7690  178.3560  141.2680 C   0  0  2  0  0  3  0  0  0  0  0  0
  188.8340  177.1140  139.9250 S   0  0  0  0  0  0  0  0  0  0  0  0
  190.9140  177.4940  142.1610 C   0  0  0  0  0  0  0  0  0  0  0  0
  191.4300  177.3110  140.7930 C   0  0  0  0  0  3  0  0  0  0  0  0
  189.6730  177.9410  142.3900 C   0  0  0  0  0  3  0  0  0  0  0  0
  190.6240  177.2380  139.7240 C   0  0  0  0  0  0  0  0  0  0  0  0
  187.4630  178.4800  141.7350 O   0  0  0  0  0  0  0  0  0  0  0  0
  186.6940  178.7320  140.5950 C   0  0  0  0  0  1  0  0  0  0  0  0
  191.8230  177.2500  143.3210 C   0  0  0  0  0  2  0  0  0  0  0  0
  188.9430  177.3200  145.7720 C   0  0  0  0  0  3  0  0  0  0  0  0
  189.5880  176.9700  146.9610 C   0  0  0  0  0  3  0  0  0  0  0  0
  191.0350  177.0930  144.5760 C   0  0  0  0  0  0  0  0  0  0  0  0
  191.6770  176.7430  145.7680 C   0  0  0  0  0  3  0  0  0  0  0  0
  190.9530  176.6800  146.9590 C   0  0  0  0  0  3  0  0  0  0  0  0
  189.6660  177.3830  144.5820 C   0  0  0  0  0  3  0  0  0  0  0  0
  1  5  1  0  0  0  0
  2  5  1  0  0  0  0
  3 14  1  6  0  0  0
  3  2  1  0  0  0  0
  4  7  1  1  0  0  0
  4  6  1  0  0  0  0
  4  3  1  0  0  0  0
  6  1  2  0  0  0  0
  7 13  1  0  0  0  0
  8 11  1  0  0  0  0
  9 10  2  0  0  0  0
 10 11  1  0  0  0  0
 12 13  1  0  0  0  0
 12 10  1  0  0  0  0
 13  8  2  0  0  0  0
 14 16  1  0  0  0  0
 16 15  2  0  0  0  0
 17 15  1  6  0  0  0
 17 28  1  0  0  0  0
 17 18  1  0  0  0  0
 18 19  2  0  0  0  0
 18 20  1  0  0  0  0
 20 27  1  0  0  0  0
 21 25  2  0  0  0  0
 21 22  1  0  0  0  0
 23 27  2  0  0  0  0
 23 26  1  0  0  0  0
 24 22  2  0  0  0  0
 26 24  1  0  0  0  0
 27 21  1  0  0  0  0
 30 34  2  0  0  0  0
 31 33  2  0  0  0  0
 31 30  1  0  0  0  0
 32 28  1  0  0  0  0
 32 29  2  0  0  0  0
 33 32  1  0  0  0  0
 34 29  1  0  0  0  0
 35 36  1  0  0  0  0
 36 31  1  0  0  0  0
 37  6  1  0  0  0  0
 38 37  1  6  0  0  0
 39 41  2  0  0  0  0
 41 38  1  0  0  0  0
 41 40  1  0  0  0  0
 42 38  1  0  0  0  0
 42 43  1  0  0  0  0
 44 46  1  0  0  0  0
 44 43  1  0  0  0  0
 46 45  1  1  0  0  0
 46 48  1  0  0  0  0
 47 55  1  0  0  0  0
 48 47  1  0  0  0  0
 48 49  2  0  0  0  0
 50 56  1  1  0  0  0
 50 54  1  0  0  0  0
 51 50  1  0  0  0  0
 52 54  2  0  0  0  0
 52 58  1  0  0  0  0
 53 52  1  0  0  0  0
 55 51  1  0  0  0  0
 55 53  2  0  0  0  0
 57 56  1  0  0  0  0
 58 61  1  0  0  0  0
 59 60  1  0  0  0  0
 61 64  1  0  0  0  0
 61 62  2  0  0  0  0
 62 63  1  0  0  0  0
 63 60  2  0  0  0  0
 64 59  2  0  0  0  0
M  END
>  <MODEL>
4

>  <REMARK>
 VINA RESULT:      -5.9      3.215     11.345
  Name = 
  22 active torsions:
  status: ('A' for Active; 'I' for Inactive)
    1  A    between atoms: C_4  and  C_13
    2  A    between atoms: C_4  and  C_55
    3  A    between atoms: C_8  and  C_45
    4  A    between atoms: C_13  and  C_36
    5  A    between atoms: C_13  and  C_53
    6  A    between atoms: C_14  and  C_53
    7  A    between atoms: C_14  and  C_59
    8  A    between atoms: C_15  and  C_26
    9  A    between atoms: C_15  and  C_45
   10  A    between atoms: O_21  and  C_31
   11  A    between atoms: O_21  and  C_54
   12  A    between atoms: C_22  and  O_32
   13  A    between atoms: C_23  and  C_35
   14  A    between atoms: O_25  and  C_27
   15  A    between atoms: C_29  and  C_35
   16  A    between atoms: N_30  and  C_58
   17  A    between atoms: C_33  and  C_62
   18  A    between atoms: C_34  and  C_56
   19  A    between atoms: C_45  and  C_46
   20  A    between atoms: C_56  and  C_61
   21  A    between atoms: C_59  and  C_62
   22  A    between atoms: N_63  and  C_64
                            x       y       z     vdW  Elec       q    Type
                         _______ _______ _______ _____ _____    ______ ____

>  <TORSDO>
F 22

$$$$
=
 OpenBabel11032420183D

 64 69  0  0  1  0  0  0  0  0999 V2000
  184.4090  179.3280  140.5230 N   0  0  0  0  0  0  0  0  0  0  0  0
  186.8150  178.9150  140.6450 C   0  0  0  0  0  2  0  0  0  0  0  0
  186.5770  178.3070  141.9990 C   0  0  2  0  0  3  0  0  0  0  0  0
  185.3420  178.4050  142.5490 C   0  0  1  0  0  3  0  0  0  0  0  0
  185.5570  178.8150  139.7830 C   0  0  0  0  0  2  0  0  0  0  0  0
  184.2720  179.1060  141.7970 C   0  0  0  0  0  0  0  0  0  0  0  0
  184.9320  177.6230  143.7680 C   0  0  0  0  0  2  0  0  0  0  0  0
  185.0670  179.4800  145.3790 N   0  0  0  0  0  0  0  0  0  0  0  0
  186.7260  178.5280  148.2510 O   0  0  0  0  0  0  0  0  0  0  0  0
  186.1920  178.6240  147.1160 C   0  0  0  0  0  0  0  0  0  0  0  0
  185.5350  179.7880  146.6540 N   0  0  0  0  0  2  0  0  0  0  0  0
  186.1480  177.5410  146.1020 C   0  0  0  0  0  2  0  0  0  0  0  0
  185.4110  178.2790  145.0300 C   0  0  0  0  0  0  0  0  0  0  0  0
  187.6990  177.7390  142.6340 O   0  0  0  0  0  0  0  0  0  0  0  0
  189.0980  175.8090  142.6860 C   0  0  0  0  0  3  0  0  0  0  0  0
  187.9050  176.3740  142.8340 C   0  0  0  0  0  3  0  0  0  0  0  0
  190.3500  176.5710  142.3300 C   0  0  1  0  0  3  0  0  0  0  0  0
  190.4050  176.9450  140.8650 C   0  0  0  0  0  0  0  0  0  0  0  0
  190.2160  178.1470  140.5280 O   0  0  0  0  0  0  0  0  0  0  0  0
  190.8130  175.9710  139.8930 N   0  0  0  0  0  2  0  0  0  0  0  0
  192.2650  175.9810  137.7730 C   0  0  0  0  0  0  0  0  0  0  0  0
  192.2630  175.8490  136.3090 C   0  0  0  0  0  3  0  0  0  0  0  0
  189.8770  176.4460  137.7600 C   0  0  0  0  0  3  0  0  0  0  0  0
  191.1590  176.1410  135.6170 C   0  0  0  0  0  3  0  0  0  0  0  0
  193.3570  175.9620  138.3970 O   0  0  0  0  0  0  0  0  0  0  0  0
  189.9310  176.7160  136.2810 C   0  0  0  0  0  2  0  0  0  0  0  0
  190.9670  176.1470  138.4770 C   0  0  0  0  0  0  0  0  0  0  0  0
  190.6180  177.7930  143.2440 C   0  0  0  0  0  2  0  0  0  0  0  0
  189.7310  178.1650  145.5530 C   0  0  0  0  0  3  0  0  0  0  0  0
  190.6830  177.0430  147.4710 C   0  0  0  0  0  3  0  0  0  0  0  0
  191.5790  176.3690  146.6410 C   0  0  0  0  0  0  0  0  0  0  0  0
  190.6260  177.5020  144.7120 C   0  0  0  0  0  0  0  0  0  0  0  0
  191.5490  176.6010  145.2530 C   0  0  0  0  0  3  0  0  0  0  0  0
  189.7590  177.9420  146.9320 C   0  0  0  0  0  3  0  0  0  0  0  0
  193.0960  175.7080  148.4990 C   0  0  0  0  0  1  0  0  0  0  0  0
  192.4850  175.4810  147.2270 O   0  0  0  0  0  0  0  0  0  0  0  0
  183.0500  179.6010  142.5160 C   0  0  0  0  0  2  0  0  0  0  0  0
  181.7880  178.8710  142.0740 C   0  0  1  0  0  3  0  0  0  0  0  0
  179.4510  179.3320  142.8240 O   0  0  0  0  0  0  0  0  0  0  0  0
  181.0300  178.6410  144.3400 O   0  0  0  0  0  1  0  0  0  0  0  0
  180.7450  178.9300  143.1460 C   0  0  0  0  0  0  0  0  0  0  0  0
  181.2230  179.4350  140.7730 C   0  0  0  0  0  2  0  0  0  0  0  0
  181.6930  178.5860  139.6050 C   0  0  0  0  0  2  0  0  0  0  0  0
  181.0280  179.0360  138.3140 C   0  0  0  0  0  2  0  0  0  0  0  0
  179.2400  177.5500  139.1660 C   0  0  0  0  0  1  0  0  0  0  0  0
  179.9190  178.0710  137.9110 C   0  0  2  0  0  3  0  0  0  0  0  0
  181.6860  177.0000  136.4270 N   0  0  0  0  0  2  0  0  0  0  0  0
  180.3830  176.9440  137.0200 C   0  0  0  0  0  0  0  0  0  0  0  0
  179.6860  175.9010  136.8970 O   0  0  0  0  0  0  0  0  0  0  0  0
  185.1080  175.0400  136.3250 C   0  0  2  0  0  3  0  0  0  0  0  0
  183.9360  175.7800  137.5200 S   0  0  0  0  0  0  0  0  0  0  0  0
  183.2530  173.7400  135.3180 C   0  0  0  0  0  0  0  0  0  0  0  0
  182.3420  174.8890  135.4710 C   0  0  0  0  0  3  0  0  0  0  0  0
  184.5210  173.7880  135.7430 C   0  0  0  0  0  3  0  0  0  0  0  0
  182.5890  175.8940  136.3240 C   0  0  0  0  0  0  0  0  0  0  0  0
  186.3110  174.7460  136.9610 O   0  0  0  0  0  0  0  0  0  0  0  0
  186.9710  173.8670  136.0960 C   0  0  0  0  0  1  0  0  0  0  0  0
  182.7720  172.5210  134.6020 C   0  0  0  0  0  2  0  0  0  0  0  0
  180.1780  171.7430  137.2430 C   0  0  0  0  0  3  0  0  0  0  0  0
  179.3750  170.8170  136.5720 C   0  0  0  0  0  3  0  0  0  0  0  0
  181.5550  171.9740  135.2650 C   0  0  0  0  0  0  0  0  0  0  0  0
  180.7480  171.0480  134.5970 C   0  0  0  0  0  3  0  0  0  0  0  0
  179.6580  170.4710  135.2490 C   0  0  0  0  0  3  0  0  0  0  0  0
  181.2670  172.3180  136.5910 C   0  0  0  0  0  3  0  0  0  0  0  0
  1  6  2  0  0  0  0
  2  3  1  0  0  0  0
  3  4  1  0  0  0  0
  3 14  1  1  0  0  0
  4  7  1  6  0  0  0
  5  1  1  0  0  0  0
  5  2  1  0  0  0  0
  6 37  1  0  0  0  0
  6  4  1  0  0  0  0
  7 13  1  0  0  0  0
  8 11  1  0  0  0  0
 10  9  2  0  0  0  0
 11 10  1  0  0  0  0
 12 10  1  0  0  0  0
 13  8  2  0  0  0  0
 13 12  1  0  0  0  0
 14 16  1  0  0  0  0
 15 16  2  0  0  0  0
 17 15  1  1  0  0  0
 17 28  1  0  0  0  0
 18 17  1  0  0  0  0
 19 18  2  0  0  0  0
 20 18  1  0  0  0  0
 21 25  2  0  0  0  0
 21 27  1  0  0  0  0
 22 21  1  0  0  0  0
 23 27  2  0  0  0  0
 24 26  1  0  0  0  0
 24 22  2  0  0  0  0
 26 23  1  0  0  0  0
 27 20  1  0  0  0  0
 28 32  1  0  0  0  0
 29 34  1  0  0  0  0
 31 36  1  0  0  0  0
 31 30  1  0  0  0  0
 32 33  1  0  0  0  0
 32 29  2  0  0  0  0
 33 31  2  0  0  0  0
 34 30  2  0  0  0  0
 36 35  1  0  0  0  0
 38 42  1  6  0  0  0
 38 37  1  0  0  0  0
 38 41  1  0  0  0  0
 39 41  2  0  0  0  0
 41 40  1  0  0  0  0
 43 42  1  0  0  0  0
 44 43  1  0  0  0  0
 46 44  1  0  0  0  0
 46 45  1  1  0  0  0
 47 48  1  0  0  0  0
 48 46  1  0  0  0  0
 49 48  2  0  0  0  0
 50 56  1  1  0  0  0
 50 51  1  0  0  0  0
 52 53  1  0  0  0  0
 52 54  2  0  0  0  0
 53 55  2  0  0  0  0
 54 50  1  0  0  0  0
 55 47  1  0  0  0  0
 55 51  1  0  0  0  0
 57 56  1  0  0  0  0
 58 61  1  0  0  0  0
 58 52  1  0  0  0  0
 60 59  2  0  0  0  0
 61 64  2  0  0  0  0
 62 63  2  0  0  0  0
 62 61  1  0  0  0  0
 63 60  1  0  0  0  0
 64 59  1  0  0  0  0
M  END
>  <MODEL>
5

>  <REMARK>
 VINA RESULT:      -5.8      3.029      7.131
  Name = 
  22 active torsions:
  status: ('A' for Active; 'I' for Inactive)
    1  A    between atoms: C_4  and  C_13
    2  A    between atoms: C_4  and  C_55
    3  A    between atoms: C_8  and  C_45
    4  A    between atoms: C_13  and  C_36
    5  A    between atoms: C_13  and  C_53
    6  A    between atoms: C_14  and  C_53
    7  A    between atoms: C_14  and  C_59
    8  A    between atoms: C_15  and  C_26
    9  A    between atoms: C_15  and  C_45
   10  A    between atoms: O_21  and  C_31
   11  A    between atoms: O_21  and  C_54
   12  A    between atoms: C_22  and  O_32
   13  A    between atoms: C_23  and  C_35
   14  A    between atoms: O_25  and  C_27
   15  A    between atoms: C_29  and  C_35
   16  A    between atoms: N_30  and  C_58
   17  A    between atoms: C_33  and  C_62
   18  A    between atoms: C_34  and  C_56
   19  A    between atoms: C_45  and  C_46
   20  A    between atoms: C_56  and  C_61
   21  A    between atoms: C_59  and  C_62
   22  A    between atoms: N_63  and  C_64
                            x       y       z     vdW  Elec       q    Type
                         _______ _______ _______ _____ _____    ______ ____

>  <TORSDO>
F 22

$$$$
=
 OpenBabel11032420183D

 64 69  0  0  1  0  0  0  0  0999 V2000
  191.4790  177.4120  141.7610 N   0  0  0  0  0  0  0  0  0  0  0  0
  192.8340  176.8920  139.7950 C   0  0  0  0  0  2  0  0  0  0  0  0
  191.5720  176.4150  139.1310 C   0  0  2  0  0  3  0  0  0  0  0  0
  190.4390  176.3300  139.8700 C   0  0  1  0  0  3  0  0  0  0  0  0
  192.5160  177.9270  140.8720 C   0  0  0  0  0  2  0  0  0  0  0  0
  190.4850  176.7100  141.3030 C   0  0  0  0  0  0  0  0  0  0  0  0
  189.0830  176.1130  139.2540 C   0  0  0  0  0  2  0  0  0  0  0  0
  189.1870  178.4810  138.5920 N   0  0  0  0  0  0  0  0  0  0  0  0
  187.0940  179.1290  135.9250 O   0  0  0  0  0  0  0  0  0  0  0  0
  187.7430  178.6420  136.8870 C   0  0  0  0  0  0  0  0  0  0  0  0
  188.6730  179.3780  137.6580 N   0  0  0  0  0  2  0  0  0  0  0  0
  187.6560  177.2340  137.3460 C   0  0  0  0  0  2  0  0  0  0  0  0
  188.6330  177.3140  138.4760 C   0  0  0  0  0  0  0  0  0  0  0  0
  191.6880  176.0150  137.7850 O   0  0  0  0  0  0  0  0  0  0  0  0
  191.1160  176.2130  135.4790 C   0  0  0  0  0  3  0  0  0  0  0  0
  191.2470  176.7510  136.6850 C   0  0  0  0  0  3  0  0  0  0  0  0
  191.3840  174.7610  135.1730 C   0  0  1  0  0  3  0  0  0  0  0  0
  192.8560  174.4160  135.2410 C   0  0  0  0  0  0  0  0  0  0  0  0
  193.6840  175.1170  134.5940 O   0  0  0  0  0  0  0  0  0  0  0  0
  193.3120  173.3980  136.1440 N   0  0  0  0  0  2  0  0  0  0  0  0
  195.6050  173.6920  137.2640 C   0  0  0  0  0  0  0  0  0  0  0  0
  196.8280  173.0080  137.7070 C   0  0  0  0  0  3  0  0  0  0  0  0
  195.0660  171.8330  135.7920 C   0  0  0  0  0  3  0  0  0  0  0  0
  197.2060  171.8720  137.1140 C   0  0  0  0  0  3  0  0  0  0  0  0
  195.3890  174.8760  137.6320 O   0  0  0  0  0  0  0  0  0  0  0  0
  196.4740  171.3180  135.9150 C   0  0  0  0  0  2  0  0  0  0  0  0
  194.6600  172.9650  136.3790 C   0  0  0  0  0  0  0  0  0  0  0  0
  190.5260  173.7780  136.0100 C   0  0  0  0  0  2  0  0  0  0  0  0
  188.4610  174.7380  134.9770 C   0  0  0  0  0  3  0  0  0  0  0  0
  186.4060  173.4710  134.8450 C   0  0  0  0  0  3  0  0  0  0  0  0
  187.0340  172.3770  135.4390 C   0  0  0  0  0  0  0  0  0  0  0  0
  189.0990  173.6510  135.5780 C   0  0  0  0  0  0  0  0  0  0  0  0
  188.3890  172.4690  135.8080 C   0  0  0  0  0  3  0  0  0  0  0  0
  187.1140  174.6530  134.6130 C   0  0  0  0  0  3  0  0  0  0  0  0
  186.4550  170.0190  134.8920 C   0  0  0  0  0  1  0  0  0  0  0  0
  186.2830  171.2180  135.6520 O   0  0  0  0  0  0  0  0  0  0  0  0
  189.4060  176.2430  142.2380 C   0  0  0  0  0  2  0  0  0  0  0  0
  188.6630  177.4060  142.8840 C   0  0  1  0  0  3  0  0  0  0  0  0
  188.7710  176.9280  145.3330 O   0  0  0  0  0  1  0  0  0  0  0  0
  190.0480  178.6100  144.4330 O   0  0  0  0  0  0  0  0  0  0  0  0
  189.2110  177.6850  144.2490 C   0  0  0  0  0  0  0  0  0  0  0  0
  188.7260  178.6720  142.0340 C   0  0  0  0  0  2  0  0  0  0  0  0
  187.3860  178.8960  141.3570 C   0  0  0  0  0  2  0  0  0  0  0  0
  186.2490  178.4390  142.2570 C   0  0  0  0  0  2  0  0  0  0  0  0
  183.8320  178.6100  142.7690 C   0  0  0  0  0  1  0  0  0  0  0  0
  184.9250  179.0500  141.8110 C   0  0  2  0  0  3  0  0  0  0  0  0
  183.2320  178.3210  140.0570 N   0  0  0  0  0  2  0  0  0  0  0  0
  184.5630  178.7460  140.3770 C   0  0  0  0  0  0  0  0  0  0  0  0
  185.3820  178.9840  139.4480 O   0  0  0  0  0  0  0  0  0  0  0  0
  180.4030  180.1650  138.0200 C   0  0  2  0  0  3  0  0  0  0  0  0
  181.9910  180.5070  138.8630 S   0  0  0  0  0  0  0  0  0  0  0  0
  181.4950  178.3760  136.6980 C   0  0  0  0  0  0  0  0  0  0  0  0
  182.2810  177.9630  137.8740 C   0  0  0  0  0  3  0  0  0  0  0  0
  180.6530  179.4150  136.7450 C   0  0  0  0  0  3  0  0  0  0  0  0
  182.4770  178.7690  138.9270 C   0  0  0  0  0  0  0  0  0  0  0  0
  179.7460  181.3620  137.7430 O   0  0  0  0  0  0  0  0  0  0  0  0
  180.7620  182.3180  137.6520 C   0  0  0  0  0  1  0  0  0  0  0  0
  181.5810  177.5680  135.4450 C   0  0  0  0  0  2  0  0  0  0  0  0
  180.6490  174.1820  136.8500 C   0  0  0  0  0  3  0  0  0  0  0  0
  181.7800  173.4300  136.5230 C   0  0  0  0  0  3  0  0  0  0  0  0
  181.6260  176.1130  135.7650 C   0  0  0  0  0  0  0  0  0  0  0  0
  182.7560  175.3570  135.4390 C   0  0  0  0  0  3  0  0  0  0  0  0
  182.8320  174.0160  135.8160 C   0  0  0  0  0  3  0  0  0  0  0  0
  180.5740  175.5220  136.4740 C   0  0  0  0  0  3  0  0  0  0  0  0
  2  5  1  0  0  0  0
  3 14  1  1  0  0  0
  3  2  1  0  0  0  0
  3  4  1  0  0  0  0
  4  7  1  6  0  0  0
  4  6  1  0  0  0  0
  5  1  1  0  0  0  0
  6  1  2  0  0  0  0
  6 37  1  0  0  0  0
  9 10  2  0  0  0  0
 10 12  1  0  0  0  0
 10 11  1  0  0  0  0
 11  8  1  0  0  0  0
 12 13  1  0  0  0  0
 13  8  2  0  0  0  0
 13  7  1  0  0  0  0
 15 16  2  0  0  0  0
 16 14  1  0  0  0  0
 17 18  1  0  0  0  0
 17 15  1  1  0  0  0
 17 28  1  0  0  0  0
 18 20  1  0  0  0  0
 19 18  2  0  0  0  0
 20 27  1  0  0  0  0
 21 25  2  0  0  0  0
 21 22  1  0  0  0  0
 23 26  1  0  0  0  0
 23 27  2  0  0  0  0
 24 22  2  0  0  0  0
 26 24  1  0  0  0  0
 27 21  1  0  0  0  0
 29 32  1  0  0  0  0
 30 31  2  0  0  0  0
 31 36  1  0  0  0  0
 31 33  1  0  0  0  0
 32 33  2  0  0  0  0
 32 28  1  0  0  0  0
 34 30  1  0  0  0  0
 34 29  2  0  0  0  0
 35 36  1  0  0  0  0
 37 38  1  0  0  0  0
 38 42  1  6  0  0  0
 38 41  1  0  0  0  0
 41 40  2  0  0  0  0
 41 39  1  0  0  0  0
 43 42  1  0  0  0  0
 43 44  1  0  0  0  0
 46 44  1  0  0  0  0
 46 45  1  1  0  0  0
 47 48  1  0  0  0  0
 48 46  1  0  0  0  0
 49 48  2  0  0  0  0
 50 56  1  6  0  0  0
 50 51  1  0  0  0  0
 51 55  1  0  0  0  0
 52 54  2  0  0  0  0
 52 53  1  0  0  0  0
 53 55  2  0  0  0  0
 54 50  1  0  0  0  0
 55 47  1  0  0  0  0
 57 56  1  0  0  0  0
 58 61  1  0  0  0  0
 58 52  1  0  0  0  0
 60 59  1  0  0  0  0
 61 64  1  0  0  0  0
 62 61  2  0  0  0  0
 62 63  1  0  0  0  0
 63 60  2  0  0  0  0
 64 59  2  0  0  0  0
M  END
>  <MODEL>
6

>  <REMARK>
 VINA RESULT:      -5.2      1.749      2.488
  Name = 
  22 active torsions:
  status: ('A' for Active; 'I' for Inactive)
    1  A    between atoms: C_4  and  C_13
    2  A    between atoms: C_4  and  C_55
    3  A    between atoms: C_8  and  C_45
    4  A    between atoms: C_13  and  C_36
    5  A    between atoms: C_13  and  C_53
    6  A    between atoms: C_14  and  C_53
    7  A    between atoms: C_14  and  C_59
    8  A    between atoms: C_15  and  C_26
    9  A    between atoms: C_15  and  C_45
   10  A    between atoms: O_21  and  C_31
   11  A    between atoms: O_21  and  C_54
   12  A    between atoms: C_22  and  O_32
   13  A    between atoms: C_23  and  C_35
   14  A    between atoms: O_25  and  C_27
   15  A    between atoms: C_29  and  C_35
   16  A    between atoms: N_30  and  C_58
   17  A    between atoms: C_33  and  C_62
   18  A    between atoms: C_34  and  C_56
   19  A    between atoms: C_45  and  C_46
   20  A    between atoms: C_56  and  C_61
   21  A    between atoms: C_59  and  C_62
   22  A    between atoms: N_63  and  C_64
                            x       y       z     vdW  Elec       q    Type
                         _______ _______ _______ _____ _____    ______ ____

>  <TORSDO>
F 22

$$$$
=
 OpenBabel11032420183D

 64 69  0  0  1  0  0  0  0  0999 V2000
  191.3180  177.5000  141.7910 N   0  0  0  0  0  0  0  0  0  0  0  0
  192.8340  176.9200  139.9640 C   0  0  0  0  0  2  0  0  0  0  0  0
  191.6380  176.3910  139.2240 C   0  0  2  0  0  3  0  0  0  0  0  0
  190.4500  176.3170  139.8730 C   0  0  1  0  0  3  0  0  0  0  0  0
  192.4150  177.9950  140.9650 C   0  0  0  0  0  2  0  0  0  0  0  0
  190.3750  176.7610  141.2870 C   0  0  0  0  0  0  0  0  0  0  0  0
  189.1510  176.0480  139.1620 C   0  0  0  0  0  2  0  0  0  0  0  0
  189.1580  178.4410  138.5850 N   0  0  0  0  0  0  0  0  0  0  0  0
  187.2430  179.0580  135.7800 O   0  0  0  0  0  0  0  0  0  0  0  0
  187.8450  178.5760  136.7750 C   0  0  0  0  0  0  0  0  0  0  0  0
  188.6620  179.3390  137.6410 N   0  0  0  0  0  2  0  0  0  0  0  0
  187.8110  177.1500  137.1810 C   0  0  0  0  0  2  0  0  0  0  0  0
  188.6890  177.2480  138.3880 C   0  0  0  0  0  0  0  0  0  0  0  0
  191.8670  175.9350  137.9100 O   0  0  0  0  0  0  0  0  0  0  0  0
  191.3300  176.0150  135.5890 C   0  0  0  0  0  3  0  0  0  0  0  0
  191.5370  176.6300  136.7470 C   0  0  0  0  0  3  0  0  0  0  0  0
  191.3890  174.5190  135.4110 C   0  0  1  0  0  3  0  0  0  0  0  0
  192.8060  173.9890  135.4100 C   0  0  0  0  0  0  0  0  0  0  0  0
  193.1240  173.0790  134.5940 O   0  0  0  0  0  0  0  0  0  0  0  0
  193.8050  174.6170  136.2270 N   0  0  0  0  0  2  0  0  0  0  0  0
  196.2850  175.2300  135.9530 C   0  0  0  0  0  0  0  0  0  0  0  0
  197.6550  174.9420  136.3990 C   0  0  0  0  0  3  0  0  0  0  0  0
  195.5250  173.0840  136.8100 C   0  0  0  0  0  3  0  0  0  0  0  0
  197.9540  173.7360  136.8900 C   0  0  0  0  0  3  0  0  0  0  0  0
  196.0610  176.2560  135.2590 O   0  0  0  0  0  0  0  0  0  0  0  0
  196.9500  172.6090  136.9000 C   0  0  0  0  0  2  0  0  0  0  0  0
  195.1990  174.2890  136.3260 C   0  0  0  0  0  0  0  0  0  0  0  0
  190.4850  173.7370  136.3970 C   0  0  0  0  0  2  0  0  0  0  0  0
  188.5770  174.4100  134.9270 C   0  0  0  0  0  3  0  0  0  0  0  0
  186.3150  173.6850  135.3780 C   0  0  0  0  0  3  0  0  0  0  0  0
  186.7610  172.9540  136.4790 C   0  0  0  0  0  0  0  0  0  0  0  0
  189.0350  173.6870  136.0310 C   0  0  0  0  0  0  0  0  0  0  0  0
  188.1290  172.9560  136.8060 C   0  0  0  0  0  3  0  0  0  0  0  0
  187.2180  174.4140  134.6000 C   0  0  0  0  0  3  0  0  0  0  0  0
  184.4090  172.3420  137.0140 C   0  0  0  0  0  1  0  0  0  0  0  0
  185.8190  172.2420  137.2260 O   0  0  0  0  0  0  0  0  0  0  0  0
  189.2310  176.3150  142.1530 C   0  0  0  0  0  2  0  0  0  0  0  0
  188.4980  177.4910  142.7870 C   0  0  1  0  0  3  0  0  0  0  0  0
  190.2020  178.6960  144.1590 O   0  0  0  0  0  0  0  0  0  0  0  0
  188.6530  177.3430  145.1780 O   0  0  0  0  0  1  0  0  0  0  0  0
  189.1070  177.8370  144.1100 C   0  0  0  0  0  0  0  0  0  0  0  0
  188.4950  178.7210  141.8820 C   0  0  0  0  0  2  0  0  0  0  0  0
  187.0980  179.3140  141.8370 C   0  0  0  0  0  2  0  0  0  0  0  0
  186.0500  178.2260  142.0070 C   0  0  0  0  0  2  0  0  0  0  0  0
  183.8190  178.5920  143.0190 C   0  0  0  0  0  1  0  0  0  0  0  0
  184.6510  178.7790  141.7610 C   0  0  2  0  0  3  0  0  0  0  0  0
  182.5360  178.2420  140.4520 N   0  0  0  0  0  2  0  0  0  0  0  0
  183.9650  178.1940  140.5490 C   0  0  0  0  0  0  0  0  0  0  0  0
  184.6440  177.7800  139.5710 O   0  0  0  0  0  0  0  0  0  0  0  0
  181.6320  178.3720  136.6150 C   0  0  2  0  0  3  0  0  0  0  0  0
  181.5420  177.2430  138.0520 S   0  0  0  0  0  0  0  0  0  0  0  0
  180.4460  180.1160  137.9170 C   0  0  0  0  0  0  0  0  0  0  0  0
  181.1940  179.7430  139.1300 C   0  0  0  0  0  3  0  0  0  0  0  0
  180.6150  179.4650  136.7600 C   0  0  0  0  0  3  0  0  0  0  0  0
  181.8050  178.5570  139.2630 C   0  0  0  0  0  0  0  0  0  0  0  0
  181.3990  177.6630  135.4390 O   0  0  0  0  0  0  0  0  0  0  0  0
  180.3440  176.7960  135.7440 C   0  0  0  0  0  1  0  0  0  0  0  0
  179.5370  181.3000  137.9580 C   0  0  0  0  0  2  0  0  0  0  0  0
  181.5600  184.3930  137.1550 C   0  0  0  0  0  3  0  0  0  0  0  0
  181.1180  184.6800  135.8610 C   0  0  0  0  0  3  0  0  0  0  0  0
  180.1310  182.4400  137.2050 C   0  0  0  0  0  0  0  0  0  0  0  0
  179.6920  182.7300  135.9090 C   0  0  0  0  0  3  0  0  0  0  0  0
  180.1870  183.8480  135.2370 C   0  0  0  0  0  3  0  0  0  0  0  0
  181.0650  183.2770  137.8260 C   0  0  0  0  0  3  0  0  0  0  0  0
  2  5  1  0  0  0  0
  3 14  1  1  0  0  0
  3  4  1  0  0  0  0
  3  2  1  0  0  0  0
  4  7  1  6  0  0  0
  4  6  1  0  0  0  0
  5  1  1  0  0  0  0
  6  1  2  0  0  0  0
  6 37  1  0  0  0  0
  9 10  2  0  0  0  0
 10 12  1  0  0  0  0
 10 11  1  0  0  0  0
 11  8  1  0  0  0  0
 12 13  1  0  0  0  0
 13  8  2  0  0  0  0
 13  7  1  0  0  0  0
 15 16  2  0  0  0  0
 16 14  1  0  0  0  0
 17 15  1  1  0  0  0
 17 28  1  0  0  0  0
 18 17  1  0  0  0  0
 18 20  1  0  0  0  0
 19 18  2  0  0  0  0
 20 27  1  0  0  0  0
 21 27  1  0  0  0  0
 21 22  1  0  0  0  0
 22 24  2  0  0  0  0
 23 26  1  0  0  0  0
 24 26  1  0  0  0  0
 25 21  2  0  0  0  0
 27 23  2  0  0  0  0
 29 32  1  0  0  0  0
 30 31  2  0  0  0  0
 31 33  1  0  0  0  0
 31 36  1  0  0  0  0
 32 28  1  0  0  0  0
 32 33  2  0  0  0  0
 34 29  2  0  0  0  0
 34 30  1  0  0  0  0
 35 36  1  0  0  0  0
 37 38  1  0  0  0  0
 38 42  1  6  0  0  0
 38 41  1  0  0  0  0
 41 39  2  0  0  0  0
 41 40  1  0  0  0  0
 43 42  1  0  0  0  0
 43 44  1  0  0  0  0
 46 44  1  0  0  0  0
 46 45  1  1  0  0  0
 47 48  1  0  0  0  0
 48 46  1  0  0  0  0
 49 48  2  0  0  0  0
 50 56  1  6  0  0  0
 50 54  1  0  0  0  0
 50 51  1  0  0  0  0
 51 55  1  0  0  0  0
 52 58  1  0  0  0  0
 52 53  1  0  0  0  0
 53 55  2  0  0  0  0
 54 52  2  0  0  0  0
 55 47  1  0  0  0  0
 56 57  1  0  0  0  0
 59 64  1  0  0  0  0
 60 59  2  0  0  0  0
 61 64  2  0  0  0  0
 61 58  1  0  0  0  0
 62 61  1  0  0  0  0
 63 60  1  0  0  0  0
 63 62  2  0  0  0  0
M  END
>  <MODEL>
7

>  <REMARK>
 VINA RESULT:      -5.1      1.923      3.695
  Name = 
  22 active torsions:
  status: ('A' for Active; 'I' for Inactive)
    1  A    between atoms: C_4  and  C_13
    2  A    between atoms: C_4  and  C_55
    3  A    between atoms: C_8  and  C_45
    4  A    between atoms: C_13  and  C_36
    5  A    between atoms: C_13  and  C_53
    6  A    between atoms: C_14  and  C_53
    7  A    between atoms: C_14  and  C_59
    8  A    between atoms: C_15  and  C_26
    9  A    between atoms: C_15  and  C_45
   10  A    between atoms: O_21  and  C_31
   11  A    between atoms: O_21  and  C_54
   12  A    between atoms: C_22  and  O_32
   13  A    between atoms: C_23  and  C_35
   14  A    between atoms: O_25  and  C_27
   15  A    between atoms: C_29  and  C_35
   16  A    between atoms: N_30  and  C_58
   17  A    between atoms: C_33  and  C_62
   18  A    between atoms: C_34  and  C_56
   19  A    between atoms: C_45  and  C_46
   20  A    between atoms: C_56  and  C_61
   21  A    between atoms: C_59  and  C_62
   22  A    between atoms: N_63  and  C_64
                            x       y       z     vdW  Elec       q    Type
                         _______ _______ _______ _____ _____    ______ ____

>  <TORSDO>
F 22

$$$$
=
 OpenBabel11032420183D

 64 69  0  0  1  0  0  0  0  0999 V2000
  184.2670  178.5220  137.4300 N   0  0  0  0  0  0  0  0  0  0  0  0
  181.9910  179.2690  136.9450 C   0  0  0  0  0  2  0  0  0  0  0  0
  181.9410  178.2160  135.8740 C   0  0  2  0  0  3  0  0  0  0  0  0
  183.0760  177.5370  135.5750 C   0  0  1  0  0  3  0  0  0  0  0  0
  182.9880  178.8810  138.0360 C   0  0  0  0  0  2  0  0  0  0  0  0
  184.3220  177.8580  136.3140 C   0  0  0  0  0  0  0  0  0  0  0  0
  183.0800  176.3040  134.7120 C   0  0  0  0  0  2  0  0  0  0  0  0
  183.8610  173.9880  135.0040 N   0  0  0  0  0  0  0  0  0  0  0  0
  183.9780  173.1180  138.3420 O   0  0  0  0  0  0  0  0  0  0  0  0
  183.8230  173.6680  137.2210 C   0  0  0  0  0  0  0  0  0  0  0  0
  184.1530  173.0500  135.9920 N   0  0  0  0  0  2  0  0  0  0  0  0
  183.2990  175.0400  137.0110 C   0  0  0  0  0  2  0  0  0  0  0  0
  183.3620  175.0700  135.5170 C   0  0  0  0  0  0  0  0  0  0  0  0
  180.7120  178.0670  135.2010 O   0  0  0  0  0  0  0  0  0  0  0  0
  178.9560  178.2050  136.8070 C   0  0  0  0  0  3  0  0  0  0  0  0
  179.4870  178.5640  135.6450 C   0  0  0  0  0  3  0  0  0  0  0  0
  179.6240  177.2680  137.7820 C   0  0  1  0  0  3  0  0  0  0  0  0
  179.8360  177.8980  139.1410 C   0  0  0  0  0  0  0  0  0  0  0  0
  179.0290  178.7830  139.5430 O   0  0  0  0  0  0  0  0  0  0  0  0
  180.8530  177.3880  140.0160 N   0  0  0  0  0  2  0  0  0  0  0  0
  182.5370  178.2330  141.7630 C   0  0  0  0  0  0  0  0  0  0  0  0
  182.7000  178.9710  143.0230 C   0  0  0  0  0  3  0  0  0  0  0  0
  180.1780  177.8830  142.2400 C   0  0  0  0  0  3  0  0  0  0  0  0
  181.6880  179.0290  143.8940 C   0  0  0  0  0  3  0  0  0  0  0  0
  183.5510  177.9580  141.0700 O   0  0  0  0  0  0  0  0  0  0  0  0
  180.4070  178.2610  143.6790 C   0  0  0  0  0  2  0  0  0  0  0  0
  181.1720  177.8210  141.3460 C   0  0  0  0  0  0  0  0  0  0  0  0
  178.9330  175.8850  137.8920 C   0  0  0  0  0  2  0  0  0  0  0  0
  179.6260  175.2140  135.5850 C   0  0  0  0  0  3  0  0  0  0  0  0
  180.2110  172.9280  135.0540 C   0  0  0  0  0  3  0  0  0  0  0  0
  180.0040  172.5590  136.3830 C   0  0  0  0  0  0  0  0  0  0  0  0
  179.4090  174.8550  136.9170 C   0  0  0  0  0  0  0  0  0  0  0  0
  179.6000  173.5290  137.3190 C   0  0  0  0  0  3  0  0  0  0  0  0
  180.0230  174.2530  134.6510 C   0  0  0  0  0  3  0  0  0  0  0  0
  179.6820  170.1230  135.9840 C   0  0  0  0  0  1  0  0  0  0  0  0
  180.2030  171.2220  136.7370 O   0  0  0  0  0  0  0  0  0  0  0  0
  185.6540  177.4560  135.7480 C   0  0  0  0  0  2  0  0  0  0  0  0
  186.6540  177.0890  136.8370 C   0  0  1  0  0  3  0  0  0  0  0  0
  187.0920  174.6550  137.1850 O   0  0  0  0  0  1  0  0  0  0  0  0
  188.2480  175.8120  135.5750 O   0  0  0  0  0  0  0  0  0  0  0  0
  187.3740  175.8250  136.4840 C   0  0  0  0  0  0  0  0  0  0  0  0
  187.6640  178.2050  137.0910 C   0  0  0  0  0  2  0  0  0  0  0  0
  188.5050  177.8620  138.3060 C   0  0  0  0  0  2  0  0  0  0  0  0
  189.8630  178.5410  138.2260 C   0  0  0  0  0  2  0  0  0  0  0  0
  191.0060  176.5440  137.3120 C   0  0  0  0  0  1  0  0  0  0  0  0
  190.9860  177.5380  138.4610 C   0  0  2  0  0  3  0  0  0  0  0  0
  191.4580  177.4780  140.9610 N   0  0  0  0  0  0  0  0  0  0  0  0
  190.9140  176.8400  139.7980 C   0  0  0  0  0  0  0  0  0  0  0  0
  190.2700  175.7630  139.9220 O   0  0  0  0  0  0  0  0  0  0  0  0
  191.0900  177.1030  144.8700 C   0  0  2  0  0  3  0  0  0  0  0  0
  191.7390  178.2660  143.6150 S   0  0  0  0  0  0  0  0  0  0  0  0
  188.8970  177.0900  143.7170 C   0  0  0  0  0  0  0  0  0  0  0  0
  189.5670  177.1050  142.4040 C   0  0  0  0  0  2  0  0  0  0  0  0
  189.5910  177.1270  144.8610 C   0  0  0  0  0  3  0  0  0  0  0  0
  190.8400  177.4970  142.2510 C   0  0  0  0  0  0  0  0  0  0  0  0
  191.5600  177.4570  146.1320 O   0  0  0  0  0  0  0  0  0  0  0  0
  190.9420  176.5620  147.0110 C   0  0  0  0  0  1  0  0  0  0  0  0
  187.4110  176.9520  143.7730 C   0  0  0  0  0  2  0  0  0  0  0  0
  187.1100  178.1850  147.3370 C   0  0  0  0  0  3  0  0  0  0  0  0
  185.8070  178.6870  147.3430 C   0  0  0  0  0  3  0  0  0  0  0  0
  186.8730  177.6110  144.9970 C   0  0  0  0  0  0  0  0  0  0  0  0
  185.5680  178.1160  145.0070 C   0  0  0  0  0  3  0  0  0  0  0  0
  185.0360  178.6550  146.1780 C   0  0  0  0  0  3  0  0  0  0  0  0
  187.6410  177.6460  146.1660 C   0  0  0  0  0  3  0  0  0  0  0  0
  1  5  1  0  0  0  0
  2  5  1  0  0  0  0
  3 14  1  6  0  0  0
  3  2  1  0  0  0  0
  4  7  1  1  0  0  0
  4  3  1  0  0  0  0
  4  6  1  0  0  0  0
  6  1  2  0  0  0  0
  7 13  1  0  0  0  0
  8 13  2  0  0  0  0
  8 11  1  0  0  0  0
 10  9  2  0  0  0  0
 11 10  1  0  0  0  0
 12 10  1  0  0  0  0
 13 12  1  0  0  0  0
 14 16  1  0  0  0  0
 16 15  2  0  0  0  0
 17 15  1  6  0  0  0
 17 28  1  0  0  0  0
 17 18  1  0  0  0  0
 18 19  2  0  0  0  0
 18 20  1  0  0  0  0
 20 27  1  0  0  0  0
 21 22  1  0  0  0  0
 22 24  2  0  0  0  0
 23 26  1  0  0  0  0
 25 21  2  0  0  0  0
 26 24  1  0  0  0  0
 27 21  1  0  0  0  0
 27 23  2  0  0  0  0
 29 32  1  0  0  0  0
 30 31  2  0  0  0  0
 31 36  1  0  0  0  0
 31 33  1  0  0  0  0
 32 33  2  0  0  0  0
 32 28  1  0  0  0  0
 34 30  1  0  0  0  0
 34 29  2  0  0  0  0
 35 36  1  0  0  0  0
 37  6  1  0  0  0  0
 38 37  1  6  0  0  0
 38 42  1  0  0  0  0
 40 41  2  0  0  0  0
 41 38  1  0  0  0  0
 41 39  1  0  0  0  0
 42 43  1  0  0  0  0
 44 43  1  0  0  0  0
 44 46  1  0  0  0  0
 46 45  1  6  0  0  0
 46 48  1  0  0  0  0
 47 55  2  0  0  0  0
 48 49  2  0  0  0  0
 48 47  1  0  0  0  0
 50 56  1  1  0  0  0
 51 50  1  0  0  0  0
 52 58  1  0  0  0  0
 52 54  2  0  0  0  0
 53 52  1  0  0  0  0
 54 50  1  0  0  0  0
 55 53  1  0  0  0  0
 55 51  1  0  0  0  0
 56 57  1  0  0  0  0
 58 61  1  0  0  0  0
 59 60  1  0  0  0  0
 61 62  2  0  0  0  0
 61 64  1  0  0  0  0
 62 63  1  0  0  0  0
 63 60  2  0  0  0  0
 64 59  2  0  0  0  0
M  END
>  <MODEL>
8

>  <REMARK>
 VINA RESULT:      -4.9      3.546     11.393
  Name = 
  22 active torsions:
  status: ('A' for Active; 'I' for Inactive)
    1  A    between atoms: C_4  and  C_13
    2  A    between atoms: C_4  and  C_55
    3  A    between atoms: C_8  and  C_45
    4  A    between atoms: C_13  and  C_36
    5  A    between atoms: C_13  and  C_53
    6  A    between atoms: C_14  and  C_53
    7  A    between atoms: C_14  and  C_59
    8  A    between atoms: C_15  and  C_26
    9  A    between atoms: C_15  and  C_45
   10  A    between atoms: O_21  and  C_31
   11  A    between atoms: O_21  and  C_54
   12  A    between atoms: C_22  and  O_32
   13  A    between atoms: C_23  and  C_35
   14  A    between atoms: O_25  and  C_27
   15  A    between atoms: C_29  and  C_35
   16  A    between atoms: N_30  and  C_58
   17  A    between atoms: C_33  and  C_62
   18  A    between atoms: C_34  and  C_56
   19  A    between atoms: C_45  and  C_46
   20  A    between atoms: C_56  and  C_61
   21  A    between atoms: C_59  and  C_62
   22  A    between atoms: N_63  and  C_64
                            x       y       z     vdW  Elec       q    Type
                         _______ _______ _______ _____ _____    ______ ____

>  <TORSDO>
F 22

$$$$
=
 OpenBabel11032420183D

 64 69  0  0  1  0  0  0  0  0999 V2000
  184.2180  178.6220  140.7480 N   0  0  0  0  0  0  0  0  0  0  0  0
  183.6770  177.0170  138.9860 C   0  0  0  0  0  2  0  0  0  0  0  0
  182.2270  177.2900  139.2710 C   0  0  2  0  0  3  0  0  0  0  0  0
  181.9060  178.0560  140.3410 C   0  0  1  0  0  3  0  0  0  0  0  0
  184.5380  178.2150  139.3840 C   0  0  0  0  0  2  0  0  0  0  0  0
  182.9950  178.5980  141.1910 C   0  0  0  0  0  0  0  0  0  0  0  0
  180.5190  178.5960  140.5670 C   0  0  0  0  0  2  0  0  0  0  0  0
  179.2960  180.6660  140.0390 N   0  0  0  0  0  0  0  0  0  0  0  0
  181.0530  182.6210  137.8020 O   0  0  0  0  0  0  0  0  0  0  0  0
  180.6160  181.7280  138.5730 C   0  0  0  0  0  0  0  0  0  0  0  0
  179.4020  181.8370  139.2910 N   0  0  0  0  0  2  0  0  0  0  0  0
  181.3020  180.4450  138.8640 C   0  0  0  0  0  2  0  0  0  0  0  0
  180.2930  179.8690  139.8060 C   0  0  0  0  0  0  0  0  0  0  0  0
  181.2940  176.6510  138.4290 O   0  0  0  0  0  0  0  0  0  0  0  0
  181.6770  176.7030  136.0760 C   0  0  0  0  0  3  0  0  0  0  0  0
  180.9640  177.0610  137.1370 C   0  0  0  0  0  3  0  0  0  0  0  0
  182.8800  175.7960  136.1400 C   0  0  1  0  0  3  0  0  0  0  0  0
  182.5050  174.3500  136.3810 C   0  0  0  0  0  0  0  0  0  0  0  0
  182.7960  173.8140  137.4880 O   0  0  0  0  0  0  0  0  0  0  0  0
  181.7030  173.6490  135.4200 N   0  0  0  0  0  2  0  0  0  0  0  0
  179.7970  171.9650  135.7840 C   0  0  0  0  0  0  0  0  0  0  0  0
  179.3230  170.6010  135.5070 C   0  0  0  0  0  3  0  0  0  0  0  0
  182.0790  171.3080  135.2540 C   0  0  0  0  0  3  0  0  0  0  0  0
  180.2050  169.6290  135.2600 C   0  0  0  0  0  3  0  0  0  0  0  0
  179.0020  172.8120  136.2680 O   0  0  0  0  0  0  0  0  0  0  0  0
  181.6940  169.8580  135.3640 C   0  0  0  0  0  2  0  0  0  0  0  0
  181.2140  172.3020  135.4920 C   0  0  0  0  0  0  0  0  0  0  0  0
  183.8390  175.9460  134.9320 C   0  0  0  0  0  2  0  0  0  0  0  0
  185.5830  177.4590  135.8930 C   0  0  0  0  0  3  0  0  0  0  0  0
  187.9280  176.8680  135.8630 C   0  0  0  0  0  3  0  0  0  0  0  0
  187.6200  175.6490  135.2580 C   0  0  0  0  0  0  0  0  0  0  0  0
  185.2630  176.2450  135.2820 C   0  0  0  0  0  0  0  0  0  0  0  0
  186.2790  175.3380  134.9660 C   0  0  0  0  0  3  0  0  0  0  0  0
  186.9140  177.7750  136.1820 C   0  0  0  0  0  3  0  0  0  0  0  0
  189.3520  173.9990  135.9440 C   0  0  0  0  0  1  0  0  0  0  0  0
  188.6680  174.7760  134.9580 O   0  0  0  0  0  0  0  0  0  0  0  0
  182.6950  179.0760  142.5820 C   0  0  0  0  0  2  0  0  0  0  0  0
  183.8260  178.7640  143.5540 C   0  0  1  0  0  3  0  0  0  0  0  0
  184.9380  180.8400  144.3850 O   0  0  0  0  0  1  0  0  0  0  0  0
  185.7600  179.7580  142.5360 O   0  0  0  0  0  0  0  0  0  0  0  0
  184.9010  179.8020  143.4580 C   0  0  0  0  0  0  0  0  0  0  0  0
  183.3340  178.6630  144.9960 C   0  0  0  0  0  2  0  0  0  0  0  0
  184.2160  177.6980  145.7660 C   0  0  0  0  0  2  0  0  0  0  0  0
  184.5480  178.2570  147.1410 C   0  0  0  0  0  2  0  0  0  0  0  0
  186.2030  180.0780  147.4180 C   0  0  0  0  0  1  0  0  0  0  0  0
  186.0340  178.5770  147.2510 C   0  0  2  0  0  3  0  0  0  0  0  0
  188.2400  178.4210  145.9940 N   0  0  0  0  0  2  0  0  0  0  0  0
  186.8610  178.0480  146.1040 C   0  0  0  0  0  0  0  0  0  0  0  0
  186.3840  177.1850  145.3190 O   0  0  0  0  0  0  0  0  0  0  0  0
  191.8060  176.7360  146.0670 C   0  0  2  0  0  3  0  0  0  0  0  0
  190.2130  176.7180  146.9690 S   0  0  0  0  0  0  0  0  0  0  0  0
  190.6040  176.2950  143.9450 C   0  0  0  0  0  0  0  0  0  0  0  0
  189.5100  177.1910  144.3590 C   0  0  0  0  0  3  0  0  0  0  0  0
  191.6500  176.0490  144.7430 C   0  0  0  0  0  3  0  0  0  0  0  0
  189.3050  177.5330  145.6380 C   0  0  0  0  0  0  0  0  0  0  0  0
  192.7840  176.0930  146.8210 O   0  0  0  0  0  0  0  0  0  0  0  0
  192.2300  175.9650  148.0980 C   0  0  0  0  0  1  0  0  0  0  0  0
  190.5840  175.7070  142.5720 C   0  0  0  0  0  2  0  0  0  0  0  0
  188.1040  177.9620  140.8190 C   0  0  0  0  0  3  0  0  0  0  0  0
  188.8340  178.3470  139.6930 C   0  0  0  0  0  3  0  0  0  0  0  0
  189.9990  176.6740  141.6010 C   0  0  0  0  0  0  0  0  0  0  0  0
  190.7260  177.0620  140.4720 C   0  0  0  0  0  3  0  0  0  0  0  0
  190.1460  177.9000  139.5190 C   0  0  0  0  0  3  0  0  0  0  0  0
  188.6850  177.1250  141.7700 C   0  0  0  0  0  3  0  0  0  0  0  0
  1  6  2  0  0  0  0
  2  3  1  0  0  0  0
  2  5  1  0  0  0  0
  3 14  1  1  0  0  0
  3  4  1  0  0  0  0
  4  7  1  6  0  0  0
  4  6  1  0  0  0  0
  5  1  1  0  0  0  0
  6 37  1  0  0  0  0
  9 10  2  0  0  0  0
 10 12  1  0  0  0  0
 10 11  1  0  0  0  0
 11  8  1  0  0  0  0
 12 13  1  0  0  0  0
 13  8  2  0  0  0  0
 13  7  1  0  0  0  0
 15 17  1  0  0  0  0
 15 16  2  0  0  0  0
 16 14  1  0  0  0  0
 17 28  1  6  0  0  0
 17 18  1  0  0  0  0
 18 19  2  0  0  0  0
 20 27  1  0  0  0  0
 20 18  1  0  0  0  0
 21 25  2  0  0  0  0
 22 21  1  0  0  0  0
 23 26  1  0  0  0  0
 23 27  2  0  0  0  0
 24 26  1  0  0  0  0
 24 22  2  0  0  0  0
 27 21  1  0  0  0  0
 28 32  1  0  0  0  0
 29 34  1  0  0  0  0
 30 34  2  0  0  0  0
 31 30  1  0  0  0  0
 32 29  2  0  0  0  0
 33 31  2  0  0  0  0
 33 32  1  0  0  0  0
 36 31  1  0  0  0  0
 36 35  1  0  0  0  0
 38 37  1  6  0  0  0
 38 42  1  0  0  0  0
 40 41  2  0  0  0  0
 41 38  1  0  0  0  0
 41 39  1  0  0  0  0
 42 43  1  0  0  0  0
 43 44  1  0  0  0  0
 44 46  1  0  0  0  0
 46 45  1  6  0  0  0
 47 48  1  0  0  0  0
 48 46  1  0  0  0  0
 49 48  2  0  0  0  0
 50 56  1  1  0  0  0
 50 51  1  0  0  0  0
 52 53  1  0  0  0  0
 52 54  2  0  0  0  0
 53 55  2  0  0  0  0
 54 50  1  0  0  0  0
 55 47  1  0  0  0  0
 55 51  1  0  0  0  0
 56 57  1  0  0  0  0
 58 52  1  0  0  0  0
 59 64  1  0  0  0  0
 60 59  2  0  0  0  0
 61 64  2  0  0  0  0
 61 58  1  0  0  0  0
 62 61  1  0  0  0  0
 63 60  1  0  0  0  0
 63 62  2  0  0  0  0
M  END
>  <MODEL>
9

>  <REMARK>
 VINA RESULT:      -4.8      4.140     10.023
  Name = 
  22 active torsions:
  status: ('A' for Active; 'I' for Inactive)
    1  A    between atoms: C_4  and  C_13
    2  A    between atoms: C_4  and  C_55
    3  A    between atoms: C_8  and  C_45
    4  A    between atoms: C_13  and  C_36
    5  A    between atoms: C_13  and  C_53
    6  A    between atoms: C_14  and  C_53
    7  A    between atoms: C_14  and  C_59
    8  A    between atoms: C_15  and  C_26
    9  A    between atoms: C_15  and  C_45
   10  A    between atoms: O_21  and  C_31
   11  A    between atoms: O_21  and  C_54
   12  A    between atoms: C_22  and  O_32
   13  A    between atoms: C_23  and  C_35
   14  A    between atoms: O_25  and  C_27
   15  A    between atoms: C_29  and  C_35
   16  A    between atoms: N_30  and  C_58
   17  A    between atoms: C_33  and  C_62
   18  A    between atoms: C_34  and  C_56
   19  A    between atoms: C_45  and  C_46
   20  A    between atoms: C_56  and  C_61
   21  A    between atoms: C_59  and  C_62
   22  A    between atoms: N_63  and  C_64
                            x       y       z     vdW  Elec       q    Type
                         _______ _______ _______ _____ _____    ______ ____

>  <TORSDO>
F 22

$$$$
