=
 OpenBabel11042410023D

 38 42  0  0  1  0  0  0  0  0999 V2000
  188.2660  175.1800  135.6630 C   0  0  2  0  0  3  0  0  0  0  0  0
  186.4360  178.2340  137.8750 C   0  0  2  0  0  3  0  0  0  0  0  0
  183.8820  176.3360  138.2730 N   0  0  0  0  0  2  0  0  0  0  0  0
  188.1560  174.1280  136.7440 C   0  0  2  0  0  3  0  0  0  0  0  0
  183.5690  174.1130  137.1890 C   0  0  0  0  0  0  0  0  0  0  0  0
  181.9510  175.8450  137.0570 O   0  0  0  0  0  0  0  0  0  0  0  0
  183.0640  175.4540  137.5060 C   0  0  0  0  0  0  0  0  0  0  0  0
  186.2010  178.1200  136.4760 O   0  0  0  0  0  0  0  0  0  0  0  0
  187.4080  177.2040  138.4710 C   0  0  2  0  0  3  0  0  0  0  0  0
  184.8620  179.6950  138.9840 O   0  0  0  0  0  0  0  0  0  0  0  0
  185.1470  178.3540  138.6980 C   0  0  1  0  0  3  0  0  0  0  0  0
  182.7600  173.1460  136.5790 C   0  0  0  0  0  3  0  0  0  0  0  0
  185.4360  172.5920  137.0530 C   0  0  0  0  0  0  0  0  0  0  0  0
  189.7180  175.0520  135.2370 C   0  0  2  0  0  3  0  0  0  0  0  0
  189.6050  173.8570  137.1290 C   0  0  0  0  0  2  0  0  0  0  0  0
  185.9880  176.6790  134.5940 C   0  0  0  0  0  1  0  0  0  0  0  0
  186.4810  176.8100  136.0270 C   0  0  1  0  0  3  0  0  0  0  0  0
  183.4790  179.7350  139.2490 C   0  0  2  0  0  3  0  0  0  0  0  0
  190.4650  174.6620  136.3580 O   0  0  0  0  0  0  0  0  0  0  0  0
  183.9330  177.7640  138.0260 C   0  0  2  0  0  3  0  0  0  0  0  0
  182.8120  178.4810  138.7070 C   0  0  0  0  0  2  0  0  0  0  0  0
  184.9140  173.8280  137.4230 C   0  0  0  0  0  3  0  0  0  0  0  0
  183.3170  171.9130  136.2250 C   0  0  0  0  0  3  0  0  0  0  0  0
  186.8930  172.3420  137.2240 C   0  0  0  0  0  2  0  0  0  0  0  0
  187.9320  176.5540  136.1080 N   0  0  1  0  0  0  0  0  0  0  0  0
  188.0000  177.7180  139.6230 O   0  0  0  0  0  1  0  0  0  0  0  0
  184.6350  171.6660  136.4600 N   0  0  0  0  0  0  0  0  0  0  0  0
  187.6050  172.9640  136.1910 O   0  0  0  0  0  0  0  0  0  0  0  0
  188.4870  176.8790  137.4390 C   0  0  0  0  0  2  0  0  0  0  0  0
  190.2400  176.2940  134.6800 N   0  0  0  0  0  2  0  0  0  0  0  0
  191.4770  176.6000  135.3790 C   0  0  0  0  0  2  0  0  0  0  0  0
  192.6560  176.0440  134.6010 C   0  0  0  0  0  2  0  0  0  0  0  0
  194.4950  176.7460  136.1270 O   0  0  0  0  0  1  0  0  0  0  0  0
  194.0290  174.5240  135.8130 O   0  0  0  0  0  0  0  0  0  0  0  0
  193.7670  175.7230  135.5340 C   0  0  0  0  0  0  0  0  0  0  0  0
  182.8540  180.9950  138.6610 C   0  0  0  0  0  2  0  0  0  0  0  0
  181.0370  180.8790  138.5660 S   0  0  0  0  0  0  0  0  0  0  0  0
  180.9000  182.5410  137.8540 C   0  0  0  0  0  1  0  0  0  0  0  0
  1 25  1  0  0  0  0
  1  4  1  0  0  0  0
  2  9  1  0  0  0  0
  2 11  1  0  0  0  0
  4 15  1  0  0  0  0
  5 22  1  0  0  0  0
  5  7  1  0  0  0  0
  6  7  2  0  0  0  0
  7  3  1  0  0  0  0
  8  2  1  0  0  0  0
  9 26  1  0  0  0  0
 10 18  1  0  0  0  0
 11 10  1  0  0  0  0
 12  5  2  0  0  0  0
 13 24  1  0  0  0  0
 13 22  2  0  0  0  0
 14  1  1  0  0  0  0
 14 19  1  0  0  0  0
 16 17  1  0  0  0  0
 17 25  1  0  0  0  0
 17  8  1  0  0  0  0
 19 15  1  0  0  0  0
 20  3  1  0  0  0  0
 20 11  1  0  0  0  0
 20 21  1  0  0  0  0
 21 18  1  0  0  0  0
 23 27  2  0  0  0  0
 23 12  1  0  0  0  0
 25 29  1  0  0  0  0
 27 13  1  0  0  0  0
 28  4  1  0  0  0  0
 28 24  1  0  0  0  0
 29  9  1  0  0  0  0
 30 14  1  0  0  0  0
 30 31  1  0  0  0  0
 32 31  1  0  0  0  0
 32 35  1  0  0  0  0
 35 34  2  0  0  0  0
 35 33  1  0  0  0  0
 36 18  1  0  0  0  0
 37 36  1  0  0  0  0
 38 37  1  0  0  0  0
M  END
>  <MODEL>
1

>  <REMARK>
 VINA RESULT:      -5.1      0.000      0.000
  Name = 
  6 active torsions:
  status: ('A' for Active; 'I' for Inactive)
    1  A    between atoms: C_11  and  C_19
    2  A    between atoms: C_11  and  N_25
    3  A    between atoms: S_14  and  C_33
    4  A    between atoms: C_17  and  N_25
    5  A    between atoms: C_19  and  C_27
    6  A    between atoms: C_23  and  C_33
                            x       y       z     vdW  Elec       q    Type
                         _______ _______ _______ _____ _____    ______ ____

>  <TORSDO>
F 6

$$$$
=
 OpenBabel11042410023D

 38 42  0  0  1  0  0  0  0  0999 V2000
  180.4720  178.9030  140.1170 C   0  0  2  0  0  3  0  0  0  0  0  0
  184.5600  178.9660  139.1930 C   0  0  2  0  0  3  0  0  0  0  0  0
  183.9610  177.0720  136.6760 N   0  0  0  0  0  2  0  0  0  0  0  0
  180.0080  179.4100  138.7700 C   0  0  2  0  0  3  0  0  0  0  0  0
  181.7520  176.0390  136.1560 C   0  0  0  0  0  0  0  0  0  0  0  0
  183.7550  174.7750  136.3160 O   0  0  0  0  0  0  0  0  0  0  0  0
  183.2000  175.9070  136.3590 C   0  0  0  0  0  0  0  0  0  0  0  0
  184.0220  177.9250  140.0010 O   0  0  0  0  0  0  0  0  0  0  0  0
  183.5580  180.0400  138.7400 C   0  0  2  0  0  3  0  0  0  0  0  0
  186.7770  178.4740  138.3650 O   0  0  0  0  0  0  0  0  0  0  0  0
  185.4170  178.4490  138.0310 C   0  0  1  0  0  3  0  0  0  0  0  0
  180.9730  174.9720  135.6910 C   0  0  0  0  0  3  0  0  0  0  0  0
  179.7450  177.3500  136.4160 C   0  0  0  0  0  0  0  0  0  0  0  0
  179.7000  179.7890  141.0780 C   0  0  2  0  0  3  0  0  0  0  0  0
  179.4150  180.7770  139.0880 C   0  0  0  0  0  2  0  0  0  0  0  0
  182.1540  176.5330  140.4880 C   0  0  0  0  0  1  0  0  0  0  0  0
  182.6300  177.8010  139.7940 C   0  0  1  0  0  3  0  0  0  0  0  0
  187.3900  177.5390  137.5070 C   0  0  2  0  0  3  0  0  0  0  0  0
  179.5220  181.0390  140.4670 O   0  0  0  0  0  0  0  0  0  0  0  0
  185.0800  177.0450  137.5980 C   0  0  2  0  0  3  0  0  0  0  0  0
  186.3400  176.6090  136.9200 C   0  0  0  0  0  2  0  0  0  0  0  0
  181.1270  177.2310  136.5200 C   0  0  0  0  0  3  0  0  0  0  0  0
  179.5870  175.1280  135.5940 C   0  0  0  0  0  3  0  0  0  0  0  0
  179.0880  178.5960  136.8980 C   0  0  0  0  0  2  0  0  0  0  0  0
  181.9360  178.9860  140.3330 N   0  0  1  0  0  0  0  0  0  0  0  0
  184.2250  181.2370  138.4860 O   0  0  0  0  0  1  0  0  0  0  0  0
  179.0040  176.3030  135.9630 N   0  0  0  0  0  0  0  0  0  0  0  0
  178.9910  178.5710  138.2950 O   0  0  0  0  0  0  0  0  0  0  0  0
  182.5190  180.2520  139.8390 C   0  0  0  0  0  2  0  0  0  0  0  0
  180.3800  179.9370  142.3590 N   0  0  0  0  0  2  0  0  0  0  0  0
  180.6230  178.6020  142.8800 C   0  0  0  0  0  2  0  0  0  0  0  0
  181.1480  178.6940  144.3010 C   0  0  0  0  0  2  0  0  0  0  0  0
  183.3280  178.6550  143.0960 O   0  0  0  0  0  0  0  0  0  0  0  0
  183.2470  179.1310  145.3370 O   0  0  0  0  0  1  0  0  0  0  0  0
  182.6280  178.8280  144.2830 C   0  0  0  0  0  0  0  0  0  0  0  0
  188.4720  176.7590  138.2460 C   0  0  0  0  0  2  0  0  0  0  0  0
  189.6310  177.8590  139.1240 S   0  0  0  0  0  0  0  0  0  0  0  0
  189.0690  177.2680  140.7440 C   0  0  0  0  0  1  0  0  0  0  0  0
  1 25  1  0  0  0  0
  1 14  1  0  0  0  0
  2  8  1  0  0  0  0
  3 20  1  0  0  0  0
  4 15  1  0  0  0  0
  4  1  1  0  0  0  0
  5  7  1  0  0  0  0
  5 22  1  0  0  0  0
  6  7  2  0  0  0  0
  7  3  1  0  0  0  0
  9  2  1  0  0  0  0
  9 29  1  0  0  0  0
 11 10  1  0  0  0  0
 11  2  1  0  0  0  0
 12  5  2  0  0  0  0
 13 22  2  0  0  0  0
 13 24  1  0  0  0  0
 14 30  1  0  0  0  0
 15 19  1  0  0  0  0
 17  8  1  0  0  0  0
 17 25  1  0  0  0  0
 17 16  1  0  0  0  0
 18 36  1  0  0  0  0
 18 10  1  0  0  0  0
 19 14  1  0  0  0  0
 20 11  1  0  0  0  0
 21 18  1  0  0  0  0
 21 20  1  0  0  0  0
 23 12  1  0  0  0  0
 23 27  2  0  0  0  0
 24 28  1  0  0  0  0
 26  9  1  0  0  0  0
 27 13  1  0  0  0  0
 28  4  1  0  0  0  0
 29 25  1  0  0  0  0
 30 31  1  0  0  0  0
 31 32  1  0  0  0  0
 33 35  2  0  0  0  0
 35 32  1  0  0  0  0
 35 34  1  0  0  0  0
 36 37  1  0  0  0  0
 37 38  1  0  0  0  0
M  END
>  <MODEL>
2

>  <REMARK>
 VINA RESULT:      -4.8      3.988      8.625
  Name = 
  6 active torsions:
  status: ('A' for Active; 'I' for Inactive)
    1  A    between atoms: C_11  and  C_19
    2  A    between atoms: C_11  and  N_25
    3  A    between atoms: S_14  and  C_33
    4  A    between atoms: C_17  and  N_25
    5  A    between atoms: C_19  and  C_27
    6  A    between atoms: C_23  and  C_33
                            x       y       z     vdW  Elec       q    Type
                         _______ _______ _______ _____ _____    ______ ____

>  <TORSDO>
F 6

$$$$
=
 OpenBabel11042410023D

 38 42  0  0  1  0  0  0  0  0999 V2000
  182.9150  176.3110  136.2310 C   0  0  2  0  0  3  0  0  0  0  0  0
  182.9980  178.1280  140.0080 C   0  0  2  0  0  3  0  0  0  0  0  0
  186.1420  178.6300  139.6330 N   0  0  0  0  0  2  0  0  0  0  0  0
  183.4990  177.4910  135.4870 C   0  0  2  0  0  3  0  0  0  0  0  0
  187.5130  177.7720  137.7350 C   0  0  0  0  0  0  0  0  0  0  0  0
  188.0940  177.4040  140.0060 O   0  0  0  0  0  0  0  0  0  0  0  0
  187.3000  177.9300  139.1790 C   0  0  0  0  0  0  0  0  0  0  0  0
  183.2860  176.7410  139.8710 O   0  0  0  0  0  0  0  0  0  0  0  0
  182.6330  178.8620  138.7070 C   0  0  2  0  0  3  0  0  0  0  0  0
  183.6480  179.0240  142.1560 O   0  0  0  0  0  0  0  0  0  0  0  0
  184.0520  178.8880  140.8220 C   0  0  1  0  0  3  0  0  0  0  0  0
  188.7000  177.2370  137.2190 C   0  0  0  0  0  3  0  0  0  0  0  0
  186.6160  177.8610  135.4970 C   0  0  0  0  0  0  0  0  0  0  0  0
  181.7140  175.9530  135.3740 C   0  0  2  0  0  3  0  0  0  0  0  0
  182.3540  177.9530  134.5940 C   0  0  0  0  0  2  0  0  0  0  0  0
  184.2040  175.0120  138.5180 C   0  0  0  0  0  1  0  0  0  0  0  0
  183.6820  176.4410  138.5490 C   0  0  1  0  0  3  0  0  0  0  0  0
  184.8340  179.2340  142.8870 C   0  0  2  0  0  3  0  0  0  0  0  0
  181.2280  177.1340  134.7950 O   0  0  0  0  0  0  0  0  0  0  0  0
  185.4120  178.2380  140.8230 C   0  0  2  0  0  3  0  0  0  0  0  0
  186.0350  178.8020  142.0610 C   0  0  0  0  0  2  0  0  0  0  0  0
  186.4690  178.0820  136.8630 C   0  0  0  0  0  3  0  0  0  0  0  0
  188.8150  177.0330  135.8400 C   0  0  0  0  0  3  0  0  0  0  0  0
  185.4590  178.1090  134.5950 C   0  0  0  0  0  2  0  0  0  0  0  0
  182.5340  176.5990  137.6350 N   0  0  1  0  0  0  0  0  0  0  0  0
  181.8450  179.9750  138.9930 O   0  0  0  0  0  1  0  0  0  0  0  0
  187.7760  177.3390  135.0140 N   0  0  0  0  0  0  0  0  0  0  0  0
  184.5550  177.0420  134.6810 O   0  0  0  0  0  0  0  0  0  0  0  0
  181.8660  177.9090  137.7930 C   0  0  0  0  0  2  0  0  0  0  0  0
  180.6680  175.2880  136.1420 N   0  0  0  0  0  2  0  0  0  0  0  0
  180.6350  173.8980  135.7210 C   0  0  0  0  0  2  0  0  0  0  0  0
  180.9970  173.0000  136.8900 C   0  0  0  0  0  2  0  0  0  0  0  0
  179.2550  173.3240  138.6420 O   0  0  0  0  0  1  0  0  0  0  0  0
  179.1530  171.5300  137.2190 O   0  0  0  0  0  0  0  0  0  0  0  0
  179.7610  172.5660  137.5930 C   0  0  0  0  0  0  0  0  0  0  0  0
  184.7830  178.4970  144.2210 C   0  0  0  0  0  2  0  0  0  0  0  0
  186.4440  178.0240  144.8060 S   0  0  0  0  0  0  0  0  0  0  0  0
  186.0660  178.5380  146.5030 C   0  0  0  0  0  1  0  0  0  0  0  0
  1 25  1  0  0  0  0
  2 11  1  0  0  0  0
  3 20  1  0  0  0  0
  4  1  1  0  0  0  0
  5  7  1  0  0  0  0
  7  3  1  0  0  0  0
  7  6  2  0  0  0  0
  8  2  1  0  0  0  0
  9 26  1  0  0  0  0
  9  2  1  0  0  0  0
 10 18  1  0  0  0  0
 11 20  1  0  0  0  0
 11 10  1  0  0  0  0
 12  5  1  0  0  0  0
 13 22  1  0  0  0  0
 14 30  1  0  0  0  0
 14  1  1  0  0  0  0
 15 19  1  0  0  0  0
 15  4  1  0  0  0  0
 16 17  1  0  0  0  0
 17  8  1  0  0  0  0
 18 36  1  0  0  0  0
 19 14  1  0  0  0  0
 20 21  1  0  0  0  0
 21 18  1  0  0  0  0
 22  5  2  0  0  0  0
 23 12  2  0  0  0  0
 24 28  1  0  0  0  0
 24 13  1  0  0  0  0
 25 29  1  0  0  0  0
 25 17  1  0  0  0  0
 27 13  2  0  0  0  0
 27 23  1  0  0  0  0
 28  4  1  0  0  0  0
 29  9  1  0  0  0  0
 31 30  1  0  0  0  0
 31 32  1  0  0  0  0
 32 35  1  0  0  0  0
 34 35  2  0  0  0  0
 35 33  1  0  0  0  0
 36 37  1  0  0  0  0
 37 38  1  0  0  0  0
M  END
>  <MODEL>
3

>  <REMARK>
 VINA RESULT:      -4.4      3.537      7.738
  Name = 
  6 active torsions:
  status: ('A' for Active; 'I' for Inactive)
    1  A    between atoms: C_11  and  C_19
    2  A    between atoms: C_11  and  N_25
    3  A    between atoms: S_14  and  C_33
    4  A    between atoms: C_17  and  N_25
    5  A    between atoms: C_19  and  C_27
    6  A    between atoms: C_23  and  C_33
                            x       y       z     vdW  Elec       q    Type
                         _______ _______ _______ _____ _____    ______ ____

>  <TORSDO>
F 6

$$$$
=
 OpenBabel11042410023D

 38 42  0  0  1  0  0  0  0  0999 V2000
  180.4890  177.1860  137.7770 C   0  0  2  0  0  3  0  0  0  0  0  0
  184.4900  176.7460  136.6060 C   0  0  2  0  0  3  0  0  0  0  0  0
  183.9050  173.6590  135.9730 N   0  0  0  0  0  2  0  0  0  0  0  0
  179.8990  176.6870  136.4770 C   0  0  2  0  0  3  0  0  0  0  0  0
  181.7680  172.4750  136.4720 C   0  0  0  0  0  0  0  0  0  0  0  0
  183.8810  171.6700  137.1950 O   0  0  0  0  0  0  0  0  0  0  0  0
  183.2310  172.5450  136.5600 C   0  0  0  0  0  0  0  0  0  0  0  0
  184.0970  176.4620  137.9440 O   0  0  0  0  0  0  0  0  0  0  0  0
  183.3710  177.2430  135.6770 C   0  0  2  0  0  3  0  0  0  0  0  0
  186.6850  175.8960  136.0610 O   0  0  0  0  0  0  0  0  0  0  0  0
  185.3150  175.6240  135.9650 C   0  0  1  0  0  3  0  0  0  0  0  0
  181.0590  171.3400  136.8860 C   0  0  0  0  0  3  0  0  0  0  0  0
  179.6730  173.5870  136.0380 C   0  0  0  0  0  0  0  0  0  0  0  0
  179.7030  178.4620  138.0190 C   0  0  2  0  0  3  0  0  0  0  0  0
  179.2090  177.9180  135.9030 C   0  0  0  0  0  2  0  0  0  0  0  0
  182.3940  175.6670  139.4040 C   0  0  0  0  0  1  0  0  0  0  0  0
  182.7120  176.1960  138.0130 C   0  0  1  0  0  3  0  0  0  0  0  0
  187.3240  174.6450  135.9450 C   0  0  2  0  0  3  0  0  0  0  0  0
  179.3770  179.0130  136.7710 O   0  0  0  0  0  0  0  0  0  0  0  0
  185.0770  174.2650  136.5730 C   0  0  2  0  0  3  0  0  0  0  0  0
  186.3260  173.5280  136.2060 C   0  0  0  0  0  2  0  0  0  0  0  0
  181.0640  173.6020  136.0490 C   0  0  0  0  0  3  0  0  0  0  0  0
  179.6610  171.3590  136.8570 C   0  0  0  0  0  3  0  0  0  0  0  0
  178.9390  174.8300  135.6730 C   0  0  0  0  0  2  0  0  0  0  0  0
  181.9510  177.4290  137.7340 N   0  0  1  0  0  0  0  0  0  0  0  0
  183.9110  178.0090  134.6460 O   0  0  0  0  0  1  0  0  0  0  0  0
  179.0010  172.4760  136.4440 N   0  0  0  0  0  0  0  0  0  0  0  0
  178.9320  175.7120  136.7610 O   0  0  0  0  0  0  0  0  0  0  0  0
  182.3880  178.0890  136.4850 C   0  0  0  0  0  2  0  0  0  0  0  0
  180.4460  179.4220  138.8260 N   0  0  0  0  0  2  0  0  0  0  0  0
  180.0410  179.2350  140.2090 C   0  0  0  0  0  2  0  0  0  0  0  0
  181.2630  178.9680  141.0690 C   0  0  0  0  0  2  0  0  0  0  0  0
  181.9130  179.1040  143.4700 O   0  0  0  0  0  1  0  0  0  0  0  0
  179.9630  180.0600  142.7380 O   0  0  0  0  0  0  0  0  0  0  0  0
  180.9990  179.3990  142.4670 C   0  0  0  0  0  0  0  0  0  0  0  0
  188.5150  174.5590  136.8930 C   0  0  0  0  0  2  0  0  0  0  0  0
  188.8800  176.1610  137.6830 S   0  0  0  0  0  0  0  0  0  0  0  0
  190.5850  175.6650  138.0540 C   0  0  0  0  0  1  0  0  0  0  0  0
  1 14  1  0  0  0  0
  2  8  1  0  0  0  0
  3  7  1  0  0  0  0
  3 20  1  0  0  0  0
  4 28  1  0  0  0  0
  4  1  1  0  0  0  0
  5  7  1  0  0  0  0
  5 12  1  0  0  0  0
  7  6  2  0  0  0  0
  8 17  1  0  0  0  0
  9 29  1  0  0  0  0
  9  2  1  0  0  0  0
 11 10  1  0  0  0  0
 11 20  1  0  0  0  0
 11  2  1  0  0  0  0
 13 22  1  0  0  0  0
 13 27  2  0  0  0  0
 14 30  1  0  0  0  0
 15  4  1  0  0  0  0
 15 19  1  0  0  0  0
 17 16  1  0  0  0  0
 18 10  1  0  0  0  0
 18 21  1  0  0  0  0
 18 36  1  0  0  0  0
 19 14  1  0  0  0  0
 21 20  1  0  0  0  0
 22  5  2  0  0  0  0
 23 12  2  0  0  0  0
 24 13  1  0  0  0  0
 24 28  1  0  0  0  0
 25  1  1  0  0  0  0
 25 17  1  0  0  0  0
 26  9  1  0  0  0  0
 27 23  1  0  0  0  0
 29 25  1  0  0  0  0
 30 31  1  0  0  0  0
 31 32  1  0  0  0  0
 32 35  1  0  0  0  0
 35 34  2  0  0  0  0
 35 33  1  0  0  0  0
 36 37  1  0  0  0  0
 37 38  1  0  0  0  0
M  END
>  <MODEL>
4

>  <REMARK>
 VINA RESULT:      -4.3      3.616      8.421
  Name = 
  6 active torsions:
  status: ('A' for Active; 'I' for Inactive)
    1  A    between atoms: C_11  and  C_19
    2  A    between atoms: C_11  and  N_25
    3  A    between atoms: S_14  and  C_33
    4  A    between atoms: C_17  and  N_25
    5  A    between atoms: C_19  and  C_27
    6  A    between atoms: C_23  and  C_33
                            x       y       z     vdW  Elec       q    Type
                         _______ _______ _______ _____ _____    ______ ____

>  <TORSDO>
F 6

$$$$
=
 OpenBabel11042410023D

 38 42  0  0  1  0  0  0  0  0999 V2000
  190.1660  176.5760  141.8160 C   0  0  2  0  0  3  0  0  0  0  0  0
  186.4400  178.4010  142.4150 C   0  0  2  0  0  3  0  0  0  0  0  0
  187.1100  178.6100  145.5430 N   0  0  0  0  0  2  0  0  0  0  0  0
  190.9780  177.6930  142.4330 C   0  0  2  0  0  3  0  0  0  0  0  0
  189.1140  177.6200  146.6470 C   0  0  0  0  0  0  0  0  0  0  0  0
  186.9000  177.2130  147.4010 O   0  0  0  0  0  0  0  0  0  0  0  0
  187.6590  177.8040  146.5850 C   0  0  0  0  0  0  0  0  0  0  0  0
  186.5820  176.9920  142.5610 O   0  0  0  0  0  0  0  0  0  0  0  0
  187.7110  179.1570  141.9980 C   0  0  2  0  0  3  0  0  0  0  0  0
  184.3730  179.2460  143.3400 O   0  0  0  0  0  0  0  0  0  0  0  0
  185.7370  179.0660  143.6040 C   0  0  1  0  0  3  0  0  0  0  0  0
  189.7290  176.9750  147.7280 C   0  0  0  0  0  3  0  0  0  0  0  0
  191.2600  177.7760  145.5580 C   0  0  0  0  0  0  0  0  0  0  0  0
  190.9040  176.3240  140.5140 C   0  0  2  0  0  3  0  0  0  0  0  0
  191.7690  178.2520  141.2560 C   0  0  0  0  0  2  0  0  0  0  0  0
  187.9890  175.1780  143.1900 C   0  0  0  0  0  1  0  0  0  0  0  0
  187.9310  176.6490  142.8040 C   0  0  1  0  0  3  0  0  0  0  0  0
  183.7580  179.3510  144.6030 C   0  0  2  0  0  3  0  0  0  0  0  0
  191.4530  177.5410  140.0840 O   0  0  0  0  0  0  0  0  0  0  0  0
  185.8520  178.2940  144.8940 C   0  0  2  0  0  3  0  0  0  0  0  0
  184.6860  178.8060  145.6780 C   0  0  0  0  0  2  0  0  0  0  0  0
  189.8900  178.0180  145.5590 C   0  0  0  0  0  3  0  0  0  0  0  0
  191.1090  176.7530  147.6950 C   0  0  0  0  0  3  0  0  0  0  0  0
  192.0560  178.1240  144.3490 C   0  0  0  0  0  2  0  0  0  0  0  0
  188.7380  176.9060  141.5950 N   0  0  1  0  0  0  0  0  0  0  0  0
  187.3710  180.3390  141.3440 O   0  0  0  0  0  1  0  0  0  0  0  0
  191.8400  177.1480  146.6160 N   0  0  0  0  0  0  0  0  0  0  0  0
  191.8710  177.1450  143.3640 O   0  0  0  0  0  0  0  0  0  0  0  0
  188.5380  178.2720  141.0660 C   0  0  0  0  0  2  0  0  0  0  0  0
  190.0330  175.7630  139.4870 N   0  0  0  0  0  2  0  0  0  0  0  0
  190.2350  176.5370  138.2740 C   0  0  0  0  0  2  0  0  0  0  0  0
  188.8910  176.8910  137.6630 C   0  0  0  0  0  2  0  0  0  0  0  0
  189.0540  179.3760  137.7130 O   0  0  0  0  0  1  0  0  0  0  0  0
  189.0290  178.2520  135.7150 O   0  0  0  0  0  0  0  0  0  0  0  0
  188.9830  178.2040  136.9720 C   0  0  0  0  0  0  0  0  0  0  0  0
  182.4150  178.6290  144.6100 C   0  0  0  0  0  2  0  0  0  0  0  0
  181.4280  179.0030  143.1230 S   0  0  0  0  0  0  0  0  0  0  0  0
  179.8740  178.6270  143.9780 C   0  0  0  0  0  1  0  0  0  0  0  0
  1  4  1  0  0  0  0
  2  8  1  0  0  0  0
  2 11  1  0  0  0  0
  3  7  1  0  0  0  0
  4 28  1  0  0  0  0
  5 12  1  0  0  0  0
  7  5  1  0  0  0  0
  7  6  2  0  0  0  0
  8 17  1  0  0  0  0
  9  2  1  0  0  0  0
 10 11  1  0  0  0  0
 10 18  1  0  0  0  0
 11 20  1  0  0  0  0
 13 22  1  0  0  0  0
 13 27  2  0  0  0  0
 14  1  1  0  0  0  0
 15  4  1  0  0  0  0
 17 16  1  0  0  0  0
 18 36  1  0  0  0  0
 18 21  1  0  0  0  0
 19 14  1  0  0  0  0
 19 15  1  0  0  0  0
 20  3  1  0  0  0  0
 20 21  1  0  0  0  0
 22  5  2  0  0  0  0
 23 12  2  0  0  0  0
 24 13  1  0  0  0  0
 25  1  1  0  0  0  0
 25 17  1  0  0  0  0
 26  9  1  0  0  0  0
 27 23  1  0  0  0  0
 28 24  1  0  0  0  0
 29 25  1  0  0  0  0
 29  9  1  0  0  0  0
 30 14  1  0  0  0  0
 31 30  1  0  0  0  0
 32 31  1  0  0  0  0
 34 35  2  0  0  0  0
 35 32  1  0  0  0  0
 35 33  1  0  0  0  0
 37 38  1  0  0  0  0
 37 36  1  0  0  0  0
M  END
>  <MODEL>
5

>  <REMARK>
 VINA RESULT:      -4.3      5.894      7.923
  Name = 
  6 active torsions:
  status: ('A' for Active; 'I' for Inactive)
    1  A    between atoms: C_11  and  C_19
    2  A    between atoms: C_11  and  N_25
    3  A    between atoms: S_14  and  C_33
    4  A    between atoms: C_17  and  N_25
    5  A    between atoms: C_19  and  C_27
    6  A    between atoms: C_23  and  C_33
                            x       y       z     vdW  Elec       q    Type
                         _______ _______ _______ _____ _____    ______ ____

>  <TORSDO>
F 6

$$$$
=
 OpenBabel11042410023D

 38 42  0  0  1  0  0  0  0  0999 V2000
  180.4270  177.3260  137.8290 C   0  0  2  0  0  3  0  0  0  0  0  0
  184.4300  177.0960  136.6080 C   0  0  2  0  0  3  0  0  0  0  0  0
  184.0450  173.9480  136.1360 N   0  0  0  0  0  2  0  0  0  0  0  0
  179.8520  176.7260  136.5650 C   0  0  2  0  0  3  0  0  0  0  0  0
  182.0000  172.6510  136.7300 C   0  0  0  0  0  0  0  0  0  0  0  0
  184.1720  172.0260  137.4530 O   0  0  0  0  0  0  0  0  0  0  0  0
  183.4560  172.8230  136.7880 C   0  0  0  0  0  0  0  0  0  0  0  0
  184.0770  176.8530  137.9660 O   0  0  0  0  0  0  0  0  0  0  0  0
  183.2660  177.4710  135.6770 C   0  0  2  0  0  3  0  0  0  0  0  0
  186.6700  176.3670  136.0660 O   0  0  0  0  0  0  0  0  0  0  0  0
  185.3190  176.0010  136.0080 C   0  0  1  0  0  3  0  0  0  0  0  0
  181.3750  171.4940  137.2110 C   0  0  0  0  0  3  0  0  0  0  0  0
  179.8280  173.6000  136.2810 C   0  0  0  0  0  0  0  0  0  0  0  0
  179.5600  178.5570  138.0230 C   0  0  2  0  0  3  0  0  0  0  0  0
  179.0720  177.8780  135.9440 C   0  0  0  0  0  2  0  0  0  0  0  0
  182.4530  176.0190  139.4930 C   0  0  0  0  0  1  0  0  0  0  0  0
  182.7140  176.4990  138.0720 C   0  0  1  0  0  3  0  0  0  0  0  0
  187.3890  175.1570  135.9990 C   0  0  2  0  0  3  0  0  0  0  0  0
  179.1800  179.0230  136.7560 O   0  0  0  0  0  0  0  0  0  0  0  0
  185.1820  174.6600  136.6850 C   0  0  2  0  0  3  0  0  0  0  0  0
  186.4720  173.9910  136.3310 C   0  0  0  0  0  2  0  0  0  0  0  0
  181.2160  173.7070  136.2660 C   0  0  0  0  0  3  0  0  0  0  0  0
  179.9790  171.4190  137.2070 C   0  0  0  0  0  3  0  0  0  0  0  0
  179.0070  174.7720  135.8700 C   0  0  0  0  0  2  0  0  0  0  0  0
  181.8680  177.6630  137.7480 N   0  0  1  0  0  0  0  0  0  0  0  0
  183.7390  178.2190  134.6000 O   0  0  0  0  0  1  0  0  0  0  0  0
  179.2390  172.4680  136.7530 N   0  0  0  0  0  0  0  0  0  0  0  0
  178.9580  175.7040  136.9140 O   0  0  0  0  0  0  0  0  0  0  0  0
  182.2410  178.2890  136.4610 C   0  0  0  0  0  2  0  0  0  0  0  0
  180.2490  179.6040  138.7690 N   0  0  0  0  0  2  0  0  0  0  0  0
  179.8780  180.8780  138.1760 C   0  0  0  0  0  2  0  0  0  0  0  0
  181.1140  181.7420  138.0040 C   0  0  0  0  0  2  0  0  0  0  0  0
  181.6970  184.0420  137.2460 O   0  0  0  0  0  0  0  0  0  0  0  0
  179.5100  183.3610  137.3190 O   0  0  0  0  0  1  0  0  0  0  0  0
  180.7220  183.0900  137.5170 C   0  0  0  0  0  0  0  0  0  0  0  0
  188.5970  175.1970  136.9290 C   0  0  0  0  0  2  0  0  0  0  0  0
  189.6580  176.6460  136.6130 S   0  0  0  0  0  0  0  0  0  0  0  0
  190.1040  176.7860  138.3650 C   0  0  0  0  0  1  0  0  0  0  0  0
  1 14  1  0  0  0  0
  2  8  1  0  0  0  0
  3 20  1  0  0  0  0
  3  7  1  0  0  0  0
  4 28  1  0  0  0  0
  4  1  1  0  0  0  0
  5  7  1  0  0  0  0
  5 12  1  0  0  0  0
  7  6  2  0  0  0  0
  8 17  1  0  0  0  0
  9 29  1  0  0  0  0
  9  2  1  0  0  0  0
 11 10  1  0  0  0  0
 11  2  1  0  0  0  0
 11 20  1  0  0  0  0
 13 27  2  0  0  0  0
 14 30  1  0  0  0  0
 15  4  1  0  0  0  0
 15 19  1  0  0  0  0
 17 16  1  0  0  0  0
 18 10  1  0  0  0  0
 18 21  1  0  0  0  0
 18 36  1  0  0  0  0
 19 14  1  0  0  0  0
 21 20  1  0  0  0  0
 22 13  1  0  0  0  0
 22  5  2  0  0  0  0
 23 12  2  0  0  0  0
 24 13  1  0  0  0  0
 24 28  1  0  0  0  0
 25  1  1  0  0  0  0
 25 17  1  0  0  0  0
 26  9  1  0  0  0  0
 27 23  1  0  0  0  0
 29 25  1  0  0  0  0
 31 30  1  0  0  0  0
 32 31  1  0  0  0  0
 33 35  2  0  0  0  0
 34 35  1  0  0  0  0
 35 32  1  0  0  0  0
 37 36  1  0  0  0  0
 37 38  1  0  0  0  0
M  END
>  <MODEL>
6

>  <REMARK>
 VINA RESULT:      -4.3      3.589      8.396
  Name = 
  6 active torsions:
  status: ('A' for Active; 'I' for Inactive)
    1  A    between atoms: C_11  and  C_19
    2  A    between atoms: C_11  and  N_25
    3  A    between atoms: S_14  and  C_33
    4  A    between atoms: C_17  and  N_25
    5  A    between atoms: C_19  and  C_27
    6  A    between atoms: C_23  and  C_33
                            x       y       z     vdW  Elec       q    Type
                         _______ _______ _______ _____ _____    ______ ____

>  <TORSDO>
F 6

$$$$
=
 OpenBabel11042410023D

 38 42  0  0  1  0  0  0  0  0999 V2000
  190.1820  176.5740  141.8230 C   0  0  2  0  0  3  0  0  0  0  0  0
  186.4540  178.4000  142.4010 C   0  0  2  0  0  3  0  0  0  0  0  0
  187.1030  178.5990  145.5350 N   0  0  0  0  0  2  0  0  0  0  0  0
  190.9910  177.6880  142.4490 C   0  0  2  0  0  3  0  0  0  0  0  0
  189.0980  177.6020  146.6500 C   0  0  0  0  0  0  0  0  0  0  0  0
  186.8790  177.1960  147.3870 O   0  0  0  0  0  0  0  0  0  0  0  0
  187.6440  177.7890  146.5780 C   0  0  0  0  0  0  0  0  0  0  0  0
  186.5940  176.9910  142.5440 O   0  0  0  0  0  0  0  0  0  0  0  0
  187.7300  179.1560  141.9960 C   0  0  2  0  0  3  0  0  0  0  0  0
  184.3820  179.2450  143.3150 O   0  0  0  0  0  0  0  0  0  0  0  0
  185.7440  179.0620  143.5880 C   0  0  1  0  0  3  0  0  0  0  0  0
  189.7050  176.9530  147.7320 C   0  0  0  0  0  3  0  0  0  0  0  0
  191.2520  177.7600  145.5760 C   0  0  0  0  0  0  0  0  0  0  0  0
  190.9290  176.3250  140.5240 C   0  0  2  0  0  3  0  0  0  0  0  0
  191.7910  178.2500  141.2800 C   0  0  0  0  0  2  0  0  0  0  0  0
  187.9940  175.1730  143.1770 C   0  0  0  0  0  1  0  0  0  0  0  0
  187.9410  176.6450  142.7950 C   0  0  1  0  0  3  0  0  0  0  0  0
  183.7590  179.3460  144.5740 C   0  0  2  0  0  3  0  0  0  0  0  0
  191.4820  177.5430  140.1030 O   0  0  0  0  0  0  0  0  0  0  0  0
  185.8500  178.2860  144.8760 C   0  0  2  0  0  3  0  0  0  0  0  0
  184.6780  178.7970  145.6530 C   0  0  0  0  0  2  0  0  0  0  0  0
  189.8820  178.0030  145.5680 C   0  0  0  0  0  3  0  0  0  0  0  0
  191.0850  176.7300  147.7090 C   0  0  0  0  0  3  0  0  0  0  0  0
  192.0560  178.1100  144.3730 C   0  0  0  0  0  2  0  0  0  0  0  0
  188.7560  176.9060  141.5930 N   0  0  1  0  0  0  0  0  0  0  0  0
  187.3950  180.3410  141.3430 O   0  0  0  0  0  1  0  0  0  0  0  0
  191.8240  177.1270  146.6360 N   0  0  0  0  0  0  0  0  0  0  0  0
  191.8780  177.1350  143.3840 O   0  0  0  0  0  0  0  0  0  0  0  0
  188.5610  178.2740  141.0670 C   0  0  0  0  0  2  0  0  0  0  0  0
  190.0650  175.7680  139.4900 N   0  0  0  0  0  2  0  0  0  0  0  0
  190.5500  176.2540  138.2090 C   0  0  0  0  0  2  0  0  0  0  0  0
  191.5500  175.2690  137.6320 C   0  0  0  0  0  2  0  0  0  0  0  0
  193.5540  176.7450  137.7300 O   0  0  0  0  0  1  0  0  0  0  0  0
  192.8030  175.9370  135.7210 O   0  0  0  0  0  0  0  0  0  0  0  0
  192.6570  176.0070  136.9690 C   0  0  0  0  0  0  0  0  0  0  0  0
  182.4140  178.6260  144.5690 C   0  0  0  0  0  2  0  0  0  0  0  0
  181.4400  179.0030  143.0750 S   0  0  0  0  0  0  0  0  0  0  0  0
  179.8780  178.6420  143.9210 C   0  0  0  0  0  1  0  0  0  0  0  0
  1  4  1  0  0  0  0
  2  8  1  0  0  0  0
  2 11  1  0  0  0  0
  3  7  1  0  0  0  0
  4 28  1  0  0  0  0
  5 12  1  0  0  0  0
  7  5  1  0  0  0  0
  7  6  2  0  0  0  0
  8 17  1  0  0  0  0
  9  2  1  0  0  0  0
 10 11  1  0  0  0  0
 10 18  1  0  0  0  0
 11 20  1  0  0  0  0
 13 27  2  0  0  0  0
 14  1  1  0  0  0  0
 15  4  1  0  0  0  0
 17 16  1  0  0  0  0
 18 21  1  0  0  0  0
 19 14  1  0  0  0  0
 19 15  1  0  0  0  0
 20  3  1  0  0  0  0
 20 21  1  0  0  0  0
 22 13  1  0  0  0  0
 22  5  2  0  0  0  0
 23 12  2  0  0  0  0
 24 13  1  0  0  0  0
 25  1  1  0  0  0  0
 25 17  1  0  0  0  0
 26  9  1  0  0  0  0
 27 23  1  0  0  0  0
 28 24  1  0  0  0  0
 29 25  1  0  0  0  0
 29  9  1  0  0  0  0
 30 14  1  0  0  0  0
 31 30  1  0  0  0  0
 32 31  1  0  0  0  0
 34 35  2  0  0  0  0
 35 32  1  0  0  0  0
 35 33  1  0  0  0  0
 36 18  1  0  0  0  0
 37 38  1  0  0  0  0
 37 36  1  0  0  0  0
M  END
>  <MODEL>
7

>  <REMARK>
 VINA RESULT:      -4.0      5.889      7.726
  Name = 
  6 active torsions:
  status: ('A' for Active; 'I' for Inactive)
    1  A    between atoms: C_11  and  C_19
    2  A    between atoms: C_11  and  N_25
    3  A    between atoms: S_14  and  C_33
    4  A    between atoms: C_17  and  N_25
    5  A    between atoms: C_19  and  C_27
    6  A    between atoms: C_23  and  C_33
                            x       y       z     vdW  Elec       q    Type
                         _______ _______ _______ _____ _____    ______ ____

>  <TORSDO>
F 6

$$$$
=
 OpenBabel11042410023D

 38 42  0  0  1  0  0  0  0  0999 V2000
  181.2290  175.5380  136.7230 C   0  0  2  0  0  3  0  0  0  0  0  0
  181.5640  177.5850  140.3650 C   0  0  2  0  0  3  0  0  0  0  0  0
  184.4100  178.7080  139.4060 N   0  0  0  0  0  2  0  0  0  0  0  0
  181.4040  176.7610  135.8500 C   0  0  2  0  0  3  0  0  0  0  0  0
  185.5860  178.0290  137.3150 C   0  0  0  0  0  0  0  0  0  0  0  0
  186.6160  177.9460  139.4510 O   0  0  0  0  0  0  0  0  0  0  0  0
  185.5970  178.2360  138.7680 C   0  0  0  0  0  0  0  0  0  0  0  0
  182.1200  176.2830  140.2190 O   0  0  0  0  0  0  0  0  0  0  0  0
  180.8290  178.1360  139.1330 C   0  0  2  0  0  3  0  0  0  0  0  0
  182.3640  178.7410  142.3310 O   0  0  0  0  0  0  0  0  0  0  0  0
  182.5510  178.6030  140.9500 C   0  0  1  0  0  3  0  0  0  0  0  0
  186.7540  177.7200  136.6060 C   0  0  0  0  0  3  0  0  0  0  0  0
  184.3190  177.7750  135.2780 C   0  0  0  0  0  0  0  0  0  0  0  0
  180.0060  174.8790  136.1110 C   0  0  2  0  0  3  0  0  0  0  0  0
  180.0490  176.9110  135.1680 C   0  0  0  0  0  2  0  0  0  0  0  0
  183.1460  174.6970  138.7720 C   0  0  0  0  0  1  0  0  0  0  0  0
  182.3380  175.9830  138.8560 C   0  0  1  0  0  3  0  0  0  0  0  0
  183.5830  179.2450  142.8260 C   0  0  2  0  0  3  0  0  0  0  0  0
  179.1810  175.8890  135.5960 O   0  0  0  0  0  0  0  0  0  0  0  0
  184.0000  178.2540  140.7200 C   0  0  2  0  0  3  0  0  0  0  0  0
  184.6880  179.0180  141.8060 C   0  0  0  0  0  2  0  0  0  0  0  0
  184.3650  178.0530  136.6410 C   0  0  0  0  0  3  0  0  0  0  0  0
  186.6710  177.4520  135.2360 C   0  0  0  0  0  3  0  0  0  0  0  0
  182.9970  177.7130  134.5960 C   0  0  0  0  0  2  0  0  0  0  0  0
  181.0430  175.8350  138.1630 N   0  0  1  0  0  0  0  0  0  0  0  0
  179.8780  179.0760  139.5250 O   0  0  0  0  0  1  0  0  0  0  0  0
  185.4640  177.4760  134.6060 N   0  0  0  0  0  0  0  0  0  0  0  0
  182.3770  176.4890  134.8770 O   0  0  0  0  0  0  0  0  0  0  0  0
  180.1420  176.9830  138.4030 C   0  0  0  0  0  2  0  0  0  0  0  0
  179.2790  174.0640  137.0760 N   0  0  0  0  0  2  0  0  0  0  0  0
  179.8720  172.7370  137.0620 C   0  0  0  0  0  2  0  0  0  0  0  0
  179.8290  172.1710  135.6550 C   0  0  0  0  0  2  0  0  0  0  0  0
  180.2610  169.7210  135.5390 O   0  0  0  0  0  1  0  0  0  0  0  0
  181.9970  171.2130  135.4320 O   0  0  0  0  0  0  0  0  0  0  0  0
  180.7600  171.0170  135.5480 C   0  0  0  0  0  0  0  0  0  0  0  0
  183.9260  178.6050  144.1670 C   0  0  0  0  0  2  0  0  0  0  0  0
  185.6900  178.1600  144.2840 S   0  0  0  0  0  0  0  0  0  0  0  0
  185.6440  178.1780  146.0960 C   0  0  0  0  0  1  0  0  0  0  0  0
  1 25  1  0  0  0  0
  2 11  1  0  0  0  0
  3 20  1  0  0  0  0
  4  1  1  0  0  0  0
  5  7  1  0  0  0  0
  7  3  1  0  0  0  0
  7  6  2  0  0  0  0
  8  2  1  0  0  0  0
  9 26  1  0  0  0  0
  9  2  1  0  0  0  0
 10 18  1  0  0  0  0
 11 10  1  0  0  0  0
 12  5  2  0  0  0  0
 13 22  2  0  0  0  0
 14  1  1  0  0  0  0
 14 30  1  0  0  0  0
 15 19  1  0  0  0  0
 15  4  1  0  0  0  0
 16 17  1  0  0  0  0
 17  8  1  0  0  0  0
 18 36  1  0  0  0  0
 19 14  1  0  0  0  0
 20 11  1  0  0  0  0
 20 21  1  0  0  0  0
 21 18  1  0  0  0  0
 22  5  1  0  0  0  0
 23 12  1  0  0  0  0
 24 28  1  0  0  0  0
 24 13  1  0  0  0  0
 25 29  1  0  0  0  0
 25 17  1  0  0  0  0
 27 23  2  0  0  0  0
 27 13  1  0  0  0  0
 28  4  1  0  0  0  0
 29  9  1  0  0  0  0
 31 30  1  0  0  0  0
 32 31  1  0  0  0  0
 33 35  1  0  0  0  0
 34 35  2  0  0  0  0
 35 32  1  0  0  0  0
 36 37  1  0  0  0  0
 37 38  1  0  0  0  0
M  END
>  <MODEL>
8

>  <REMARK>
 VINA RESULT:      -3.6      4.217      8.043
  Name = 
  6 active torsions:
  status: ('A' for Active; 'I' for Inactive)
    1  A    between atoms: C_11  and  C_19
    2  A    between atoms: C_11  and  N_25
    3  A    between atoms: S_14  and  C_33
    4  A    between atoms: C_17  and  N_25
    5  A    between atoms: C_19  and  C_27
    6  A    between atoms: C_23  and  C_33
                            x       y       z     vdW  Elec       q    Type
                         _______ _______ _______ _____ _____    ______ ____

>  <TORSDO>
F 6

$$$$
=
 OpenBabel11042410023D

 38 42  0  0  1  0  0  0  0  0999 V2000
  182.8730  176.4450  137.3080 C   0  0  2  0  0  3  0  0  0  0  0  0
  186.8430  175.8190  136.1140 C   0  0  2  0  0  3  0  0  0  0  0  0
  185.9080  173.1470  134.6100 N   0  0  0  0  0  2  0  0  0  0  0  0
  182.2930  176.4200  135.9120 C   0  0  2  0  0  3  0  0  0  0  0  0
  183.6160  172.1700  134.7180 C   0  0  0  0  0  0  0  0  0  0  0  0
  185.5710  170.9160  135.2070 O   0  0  0  0  0  0  0  0  0  0  0  0
  185.0710  172.0150  134.8420 C   0  0  0  0  0  0  0  0  0  0  0  0
  186.3490  175.2230  137.3080 O   0  0  0  0  0  0  0  0  0  0  0  0
  185.8440  176.7060  135.3530 C   0  0  2  0  0  3  0  0  0  0  0  0
  188.9390  174.8700  135.3770 O   0  0  0  0  0  0  0  0  0  0  0  0
  187.5520  174.8240  135.1880 C   0  0  1  0  0  3  0  0  0  0  0  0
  182.7500  171.0710  134.7780 C   0  0  0  0  0  3  0  0  0  0  0  0
  181.7030  173.6330  134.5950 C   0  0  0  0  0  0  0  0  0  0  0  0
  182.2420  177.6940  137.8970 C   0  0  2  0  0  3  0  0  0  0  0  0
  181.7940  177.8450  135.7080 C   0  0  0  0  0  2  0  0  0  0  0  0
  184.4860  174.2840  138.4540 C   0  0  0  0  0  1  0  0  0  0  0  0
  184.9390  175.1380  137.2790 C   0  0  1  0  0  3  0  0  0  0  0  0
  189.4210  173.6290  134.9140 C   0  0  2  0  0  3  0  0  0  0  0  0
  182.0540  178.6150  136.8570 O   0  0  0  0  0  0  0  0  0  0  0  0
  187.1140  173.3940  135.3750 C   0  0  2  0  0  3  0  0  0  0  0  0
  188.2780  172.6300  134.8280 C   0  0  0  0  0  2  0  0  0  0  0  0
  183.0820  173.4550  134.6280 C   0  0  0  0  0  3  0  0  0  0  0  0
  181.3690  171.2860  134.7370 C   0  0  0  0  0  3  0  0  0  0  0  0
  181.1510  175.0160  134.5940 C   0  0  0  0  0  2  0  0  0  0  0  0
  184.3540  176.4900  137.3570 N   0  0  1  0  0  0  0  0  0  0  0  0
  186.5290  177.6530  134.5940 O   0  0  0  0  0  1  0  0  0  0  0  0
  180.8770  172.5540  134.6550 N   0  0  0  0  0  0  0  0  0  0  0  0
  181.1990  175.5450  135.8900 O   0  0  0  0  0  0  0  0  0  0  0  0
  184.9350  177.4130  136.3570 C   0  0  0  0  0  2  0  0  0  0  0  0
  183.0570  178.2760  138.9570 N   0  0  0  0  0  2  0  0  0  0  0  0
  182.6300  177.6810  140.2120 C   0  0  0  0  0  2  0  0  0  0  0  0
  182.8390  178.6700  141.3450 C   0  0  0  0  0  2  0  0  0  0  0  0
  184.7410  177.9230  142.7690 O   0  0  0  0  0  1  0  0  0  0  0  0
  185.0790  179.4250  141.0710 O   0  0  0  0  0  0  0  0  0  0  0  0
  184.2760  178.7070  141.7220 C   0  0  0  0  0  0  0  0  0  0  0  0
  190.5410  173.1170  135.8130 C   0  0  0  0  0  2  0  0  0  0  0  0
  191.8770  174.3420  136.0090 S   0  0  0  0  0  0  0  0  0  0  0  0
  193.1580  173.0660  135.8680 C   0  0  0  0  0  1  0  0  0  0  0  0
  1 25  1  0  0  0  0
  1 14  1  0  0  0  0
  2  8  1  0  0  0  0
  3  7  1  0  0  0  0
  3 20  1  0  0  0  0
  4  1  1  0  0  0  0
  5 12  1  0  0  0  0
  5  7  1  0  0  0  0
  7  6  2  0  0  0  0
  9  2  1  0  0  0  0
  9 29  1  0  0  0  0
 11 20  1  0  0  0  0
 11 10  1  0  0  0  0
 11  2  1  0  0  0  0
 13 22  1  0  0  0  0
 13 27  2  0  0  0  0
 14 30  1  0  0  0  0
 15  4  1  0  0  0  0
 15 19  1  0  0  0  0
 17  8  1  0  0  0  0
 17 25  1  0  0  0  0
 17 16  1  0  0  0  0
 18 10  1  0  0  0  0
 18 36  1  0  0  0  0
 19 14  1  0  0  0  0
 21 18  1  0  0  0  0
 21 20  1  0  0  0  0
 22  5  2  0  0  0  0
 23 12  2  0  0  0  0
 24 13  1  0  0  0  0
 24 28  1  0  0  0  0
 26  9  1  0  0  0  0
 27 23  1  0  0  0  0
 28  4  1  0  0  0  0
 29 25  1  0  0  0  0
 30 31  1  0  0  0  0
 31 32  1  0  0  0  0
 32 35  1  0  0  0  0
 34 35  2  0  0  0  0
 35 33  1  0  0  0  0
 36 37  1  0  0  0  0
 38 37  1  0  0  0  0
M  END
>  <MODEL>
9

>  <REMARK>
 VINA RESULT:      -3.2      3.437      7.697
  Name = 
  6 active torsions:
  status: ('A' for Active; 'I' for Inactive)
    1  A    between atoms: C_11  and  C_19
    2  A    between atoms: C_11  and  N_25
    3  A    between atoms: S_14  and  C_33
    4  A    between atoms: C_17  and  N_25
    5  A    between atoms: C_19  and  C_27
    6  A    between atoms: C_23  and  C_33
                            x       y       z     vdW  Elec       q    Type
                         _______ _______ _______ _____ _____    ______ ____

>  <TORSDO>
F 6

$$$$
