=
 OpenBabel11032420253D

 39 45  0  0  1  0  0  0  0  0999 V2000
  189.8720  176.7140  139.6230 C   0  0  2  0  0  3  0  0  0  0  0  0
  190.6340  177.6020  141.7310 C   0  0  1  0  0  3  0  0  0  0  0  0
  191.8500  177.4670  140.8300 C   0  0  0  0  0  2  0  0  0  0  0  0
  189.4360  177.5610  140.8010 C   0  0  0  0  0  2  0  0  0  0  0  0
  191.3650  176.9540  139.4810 C   0  0  0  0  0  2  0  0  0  0  0  0
  185.6830  178.3080  137.6350 N   0  0  0  0  0  2  0  0  0  0  0  0
  187.7940  178.3450  136.2080 C   0  0  1  0  0  3  0  0  0  0  0  0
  186.8780  178.3430  134.9970 C   0  0  0  0  0  1  0  0  0  0  0  0
  189.0990  177.0560  138.3810 C   0  0  0  0  0  0  0  0  0  0  0  0
  187.0540  177.9460  137.4660 C   0  0  0  0  0  0  0  0  0  0  0  0
  188.9670  177.3950  135.9460 C   0  0  0  0  0  2  0  0  0  0  0  0
  189.7360  177.1180  137.2040 C   0  0  0  0  0  3  0  0  0  0  0  0
  187.7000  177.3900  138.4550 N   0  0  0  0  0  0  0  0  0  0  0  0
  185.0070  178.0370  138.8330 N   0  0  0  0  0  2  0  0  0  0  0  0
  184.3150  180.2470  139.1120 O   0  0  0  0  0  0  0  0  0  0  0  0
  184.3470  179.0710  139.5600 C   0  0  0  0  0  0  0  0  0  0  0  0
  183.7240  178.7660  140.8760 C   0  0  0  0  0  2  0  0  0  0  0  0
  182.7700  177.7530  140.7100 O   0  0  0  0  0  0  0  0  0  0  0  0
  181.5930  178.2800  141.2420 C   0  0  0  0  0  2  0  0  0  0  0  0
  181.9220  179.1220  142.4650 C   0  0  2  0  0  3  0  0  0  0  0  0
  179.8390  178.5370  143.6920 C   0  0  0  0  0  2  0  0  0  0  0  0
  181.3560  178.4880  143.7220 C   0  0  2  0  0  3  0  0  0  0  0  0
  180.6500  179.6690  143.0910 C   0  0  1  0  0  3  0  0  0  0  0  0
  190.5980  176.4690  142.6460 N   0  0  0  0  0  2  0  0  0  0  0  0
  189.6410  176.7510  143.6330 N   0  0  0  0  0  2  0  0  0  0  0  0
  189.0860  177.3360  145.9670 C   0  0  0  0  0  0  0  0  0  0  0  0
  185.8080  178.5250  147.0260 C   0  0  0  0  0  3  0  0  0  0  0  0
  190.7310  177.1060  147.7080 N   0  0  0  0  0  0  0  0  0  0  0  0
  189.4850  177.4500  147.2940 C   0  0  0  0  0  0  0  0  0  0  0  0
  187.7440  177.7080  145.7900 C   0  0  0  0  0  0  0  0  0  0  0  0
  187.0130  177.7020  144.5970 C   0  0  0  0  0  3  0  0  0  0  0  0
  191.6420  176.6510  146.8010 C   0  0  0  0  0  3  0  0  0  0  0  0
  190.0050  176.8780  145.0090 C   0  0  0  0  0  0  0  0  0  0  0  0
  191.2990  176.5330  145.4430 C   0  0  0  0  0  3  0  0  0  0  0  0
  188.2260  178.0090  148.2690 S   0  0  0  0  0  0  0  0  0  0  0  0
  185.6710  178.1110  144.6260 C   0  0  0  0  0  3  0  0  0  0  0  0
  187.1370  178.1070  146.9820 C   0  0  0  0  0  0  0  0  0  0  0  0
  183.7760  178.9190  145.8390 F   0  0  0  0  0  0  0  0  0  0  0  0
  185.0720  178.5250  145.8320 C   0  0  0  0  0  0  0  0  0  0  0  0
  1  9  1  6  0  0  0
  1  4  1  0  0  0  0
  2 24  1  1  0  0  0
  3  2  1  0  0  0  0
  4  2  1  0  0  0  0
  5  1  1  0  0  0  0
  5  3  1  0  0  0  0
  6 14  1  0  0  0  0
  7  8  1  6  0  0  0
  7 10  1  0  0  0  0
  9 13  1  0  0  0  0
 10  6  1  0  0  0  0
 10 13  2  0  0  0  0
 11  7  1  0  0  0  0
 11 12  1  0  0  0  0
 12  9  2  0  0  0  0
 14 16  1  0  0  0  0
 15 16  2  0  0  0  0
 16 17  1  0  0  0  0
 18 17  1  0  0  0  0
 18 19  1  0  0  0  0
 20 19  1  6  0  0  0
 20 23  1  0  0  0  0
 20 22  1  0  0  0  0
 22 21  1  6  0  0  0
 23 21  1  6  0  0  0
 23 22  1  0  0  0  0
 24 25  1  0  0  0  0
 25 33  1  0  0  0  0
 26 29  1  0  0  0  0
 29 28  2  0  0  0  0
 29 35  1  0  0  0  0
 30 26  1  0  0  0  0
 30 37  2  0  0  0  0
 31 36  2  0  0  0  0
 31 30  1  0  0  0  0
 32 28  1  0  0  0  0
 33 34  1  0  0  0  0
 33 26  2  0  0  0  0
 34 32  2  0  0  0  0
 36 39  1  0  0  0  0
 37 27  1  0  0  0  0
 37 35  1  0  0  0  0
 39 38  1  0  0  0  0
 39 27  2  0  0  0  0
M  END
>  <MODEL>
1

>  <REMARK>
 VINA RESULT:     -10.4      0.000      0.000
  Name = 
  9 active torsions:
  status: ('A' for Active; 'I' for Inactive)
    1  A    between atoms: O_1  and  C_35
    2  A    between atoms: O_1  and  C_37
    3  A    between atoms: N_2  and  N_16
    4  A    between atoms: C_3  and  C_20
    5  A    between atoms: C_5  and  C_35
    6  A    between atoms: N_6  and  C_7
    7  A    between atoms: N_6  and  N_11
    8  A    between atoms: N_11  and  C_28
    9  A    between atoms: C_23  and  C_37
                            x       y       z     vdW  Elec       q    Type
                         _______ _______ _______ _____ _____    ______ ____

>  <TORSDO>
F 9

$$$$
=
 OpenBabel11032420253D

 39 45  0  0  1  0  0  0  0  0999 V2000
  190.0260  177.1750  141.8590 C   0  0  2  0  0  3  0  0  0  0  0  0
  191.6390  177.3050  143.6460 C   0  0  1  0  0  3  0  0  0  0  0  0
  191.1090  175.8810  143.6170 C   0  0  0  0  0  2  0  0  0  0  0  0
  191.2860  177.8950  142.2940 C   0  0  0  0  0  2  0  0  0  0  0  0
  190.1270  175.7830  142.4570 C   0  0  0  0  0  2  0  0  0  0  0  0
  187.3590  178.3800  137.9250 N   0  0  0  0  0  2  0  0  0  0  0  0
  189.8180  177.7980  137.5920 C   0  0  1  0  0  3  0  0  0  0  0  0
  189.4650  177.4850  136.1490 C   0  0  0  0  0  1  0  0  0  0  0  0
  189.8840  177.1660  140.3640 C   0  0  0  0  0  0  0  0  0  0  0  0
  188.5830  177.8770  138.4630 C   0  0  0  0  0  0  0  0  0  0  0  0
  190.7800  176.7270  138.1140 C   0  0  0  0  0  2  0  0  0  0  0  0
  190.9250  176.8020  139.6050 C   0  0  0  0  0  3  0  0  0  0  0  0
  188.6660  177.6150  139.7390 N   0  0  0  0  0  0  0  0  0  0  0  0
  186.2310  178.5550  138.7390 N   0  0  0  0  0  2  0  0  0  0  0  0
  184.7940  177.5240  137.2180 O   0  0  0  0  0  0  0  0  0  0  0  0
  184.9400  178.1210  138.3160 C   0  0  0  0  0  0  0  0  0  0  0  0
  183.7510  178.4100  139.1620 C   0  0  0  0  0  2  0  0  0  0  0  0
  183.1360  177.2040  139.5190 O   0  0  0  0  0  0  0  0  0  0  0  0
  181.7700  177.4890  139.5320 C   0  0  0  0  0  2  0  0  0  0  0  0
  181.5330  178.7990  140.2670 C   0  0  2  0  0  3  0  0  0  0  0  0
  179.6140  177.9480  141.6020 C   0  0  0  0  0  2  0  0  0  0  0  0
  181.0100  178.5410  141.6690 C   0  0  2  0  0  3  0  0  0  0  0  0
  180.0550  178.9750  140.5760 C   0  0  1  0  0  3  0  0  0  0  0  0
  190.9610  178.0380  144.7070 N   0  0  0  0  0  2  0  0  0  0  0  0
  189.9810  177.1910  145.2490 N   0  0  0  0  0  2  0  0  0  0  0  0
  187.8810  177.9270  146.3190 C   0  0  0  0  0  0  0  0  0  0  0  0
  184.7790  178.5030  144.4960 C   0  0  0  0  0  3  0  0  0  0  0  0
  187.7790  178.2740  148.6980 N   0  0  0  0  0  0  0  0  0  0  0  0
  187.1940  178.2880  147.4730 C   0  0  0  0  0  0  0  0  0  0  0  0
  187.0580  177.9760  145.1840 C   0  0  0  0  0  0  0  0  0  0  0  0
  187.4120  177.6660  143.8660 C   0  0  0  0  0  3  0  0  0  0  0  0
  189.0900  177.9170  148.8160 C   0  0  0  0  0  3  0  0  0  0  0  0
  189.2340  177.5630  146.4090 C   0  0  0  0  0  0  0  0  0  0  0  0
  189.8380  177.5620  147.6810 C   0  0  0  0  0  3  0  0  0  0  0  0
  185.5880  178.6780  147.1360 S   0  0  0  0  0  0  0  0  0  0  0  0
  186.4380  177.7760  142.8610 C   0  0  0  0  0  3  0  0  0  0  0  0
  185.7550  178.3790  145.4820 C   0  0  0  0  0  0  0  0  0  0  0  0
  184.2040  178.3000  142.1890 F   0  0  0  0  0  0  0  0  0  0  0  0
  185.1300  178.1970  143.1720 C   0  0  0  0  0  0  0  0  0  0  0  0
  1  9  1  6  0  0  0
  1  4  1  0  0  0  0
  1  5  1  0  0  0  0
  2 24  1  1  0  0  0
  3  2  1  0  0  0  0
  4  2  1  0  0  0  0
  5  3  1  0  0  0  0
  6 10  1  0  0  0  0
  6 14  1  0  0  0  0
  7  8  1  6  0  0  0
  7 11  1  0  0  0  0
  7 10  1  0  0  0  0
 10 13  2  0  0  0  0
 11 12  1  0  0  0  0
 12  9  2  0  0  0  0
 13  9  1  0  0  0  0
 15 16  2  0  0  0  0
 16 14  1  0  0  0  0
 16 17  1  0  0  0  0
 17 18  1  0  0  0  0
 18 19  1  0  0  0  0
 20 19  1  6  0  0  0
 20 23  1  0  0  0  0
 20 22  1  0  0  0  0
 22 21  1  6  0  0  0
 23 21  1  6  0  0  0
 23 22  1  0  0  0  0
 24 25  1  0  0  0  0
 25 33  1  0  0  0  0
 26 33  2  0  0  0  0
 26 29  1  0  0  0  0
 27 37  1  0  0  0  0
 28 32  1  0  0  0  0
 29 28  2  0  0  0  0
 30 37  2  0  0  0  0
 30 26  1  0  0  0  0
 31 30  1  0  0  0  0
 33 34  1  0  0  0  0
 34 32  2  0  0  0  0
 35 29  1  0  0  0  0
 36 39  1  0  0  0  0
 36 31  2  0  0  0  0
 37 35  1  0  0  0  0
 38 39  1  0  0  0  0
 39 27  2  0  0  0  0
M  END
>  <MODEL>
2

>  <REMARK>
 VINA RESULT:      -9.6      1.713      2.414
  Name = 
  9 active torsions:
  status: ('A' for Active; 'I' for Inactive)
    1  A    between atoms: O_1  and  C_35
    2  A    between atoms: O_1  and  C_37
    3  A    between atoms: N_2  and  N_16
    4  A    between atoms: C_3  and  C_20
    5  A    between atoms: C_5  and  C_35
    6  A    between atoms: N_6  and  C_7
    7  A    between atoms: N_6  and  N_11
    8  A    between atoms: N_11  and  C_28
    9  A    between atoms: C_23  and  C_37
                            x       y       z     vdW  Elec       q    Type
                         _______ _______ _______ _____ _____    ______ ____

>  <TORSDO>
F 9

$$$$
=
 OpenBabel11032420253D

 39 45  0  0  1  0  0  0  0  0999 V2000
  183.6790  178.4720  143.4400 C   0  0  2  0  0  3  0  0  0  0  0  0
  184.6970  179.2220  145.4930 C   0  0  1  0  0  3  0  0  0  0  0  0
  185.6830  179.4990  144.3710 C   0  0  0  0  0  2  0  0  0  0  0  0
  183.3550  179.0260  144.8120 C   0  0  0  0  0  2  0  0  0  0  0  0
  185.0230  179.0720  143.0670 C   0  0  0  0  0  2  0  0  0  0  0  0
  182.2950  178.7700  138.7450 N   0  0  0  0  0  2  0  0  0  0  0  0
  180.4880  178.7010  140.5420 C   0  0  1  0  0  3  0  0  0  0  0  0
  179.5670  179.3520  139.5250 C   0  0  0  0  0  1  0  0  0  0  0  0
  182.5960  178.7860  142.4480 C   0  0  0  0  0  0  0  0  0  0  0  0
  181.9400  178.8120  140.1280 C   0  0  0  0  0  0  0  0  0  0  0  0
  180.2630  179.3560  141.9080 C   0  0  0  0  0  2  0  0  0  0  0  0
  181.3430  178.9780  142.8790 C   0  0  0  0  0  3  0  0  0  0  0  0
  182.8790  178.8090  141.0350 N   0  0  0  0  0  0  0  0  0  0  0  0
  183.6390  178.7700  138.3460 N   0  0  0  0  0  2  0  0  0  0  0  0
  183.6290  176.5000  137.8080 O   0  0  0  0  0  0  0  0  0  0  0  0
  184.2780  177.5750  137.8990 C   0  0  0  0  0  0  0  0  0  0  0  0
  185.7290  177.5910  137.5760 C   0  0  0  0  0  2  0  0  0  0  0  0
  186.3830  178.4830  138.4350 O   0  0  0  0  0  0  0  0  0  0  0  0
  187.4940  177.7810  138.9020 C   0  0  0  0  0  2  0  0  0  0  0  0
  188.7450  178.6240  138.7090 C   0  0  2  0  0  3  0  0  0  0  0  0
  189.3400  177.6210  136.5130 C   0  0  0  0  0  2  0  0  0  0  0  0
  188.9810  178.9060  137.2360 C   0  0  2  0  0  3  0  0  0  0  0  0
  189.7990  177.8450  137.9410 C   0  0  1  0  0  3  0  0  0  0  0  0
  185.0940  178.0000  146.1790 N   0  0  0  0  0  2  0  0  0  0  0  0
  186.3360  177.6050  145.6570 N   0  0  0  0  0  2  0  0  0  0  0  0
  188.7800  177.3520  145.8990 C   0  0  0  0  0  0  0  0  0  0  0  0
  191.0160  176.5880  143.1250 C   0  0  0  0  0  3  0  0  0  0  0  0
  189.8320  177.6430  148.0440 N   0  0  0  0  0  0  0  0  0  0  0  0
  189.9040  177.3620  146.7180 C   0  0  0  0  0  0  0  0  0  0  0  0
  189.1090  177.0800  144.5620 C   0  0  0  0  0  0  0  0  0  0  0  0
  188.2360  177.0080  143.4720 C   0  0  0  0  0  3  0  0  0  0  0  0
  188.6200  177.9060  148.6130 C   0  0  0  0  0  3  0  0  0  0  0  0
  187.5180  177.6120  146.4590 C   0  0  0  0  0  0  0  0  0  0  0  0
  187.4490  177.8910  147.8370 C   0  0  0  0  0  3  0  0  0  0  0  0
  191.3070  177.0340  145.8400 S   0  0  0  0  0  0  0  0  0  0  0  0
  188.7620  176.7230  142.2020 C   0  0  0  0  0  3  0  0  0  0  0  0
  190.4780  176.8800  144.3770 C   0  0  0  0  0  0  0  0  0  0  0  0
  190.6330  176.2330  140.7970 F   0  0  0  0  0  0  0  0  0  0  0  0
  190.1440  176.5100  142.0290 C   0  0  0  0  0  0  0  0  0  0  0  0
  1  9  1  6  0  0  0
  1  4  1  0  0  0  0
  2 24  1  6  0  0  0
  3  2  1  0  0  0  0
  4  2  1  0  0  0  0
  5  1  1  0  0  0  0
  5  3  1  0  0  0  0
  6 10  1  0  0  0  0
  7  8  1  6  0  0  0
  7 11  1  0  0  0  0
  9 12  2  0  0  0  0
 10  7  1  0  0  0  0
 10 13  2  0  0  0  0
 11 12  1  0  0  0  0
 13  9  1  0  0  0  0
 14  6  1  0  0  0  0
 15 16  2  0  0  0  0
 16 14  1  0  0  0  0
 17 16  1  0  0  0  0
 17 18  1  0  0  0  0
 18 19  1  0  0  0  0
 20 19  1  6  0  0  0
 22 21  1  6  0  0  0
 22 23  1  0  0  0  0
 22 20  1  0  0  0  0
 23 21  1  6  0  0  0
 23 20  1  0  0  0  0
 25 24  1  0  0  0  0
 25 33  1  0  0  0  0
 26 33  2  0  0  0  0
 26 29  1  0  0  0  0
 27 37  1  0  0  0  0
 28 32  1  0  0  0  0
 29 28  2  0  0  0  0
 30 26  1  0  0  0  0
 31 30  1  0  0  0  0
 33 34  1  0  0  0  0
 34 32  2  0  0  0  0
 35 29  1  0  0  0  0
 36 31  2  0  0  0  0
 37 30  2  0  0  0  0
 37 35  1  0  0  0  0
 38 39  1  0  0  0  0
 39 36  1  0  0  0  0
 39 27  2  0  0  0  0
M  END
>  <MODEL>
3

>  <REMARK>
 VINA RESULT:      -9.5      2.558      6.484
  Name = 
  9 active torsions:
  status: ('A' for Active; 'I' for Inactive)
    1  A    between atoms: O_1  and  C_35
    2  A    between atoms: O_1  and  C_37
    3  A    between atoms: N_2  and  N_16
    4  A    between atoms: C_3  and  C_20
    5  A    between atoms: C_5  and  C_35
    6  A    between atoms: N_6  and  C_7
    7  A    between atoms: N_6  and  N_11
    8  A    between atoms: N_11  and  C_28
    9  A    between atoms: C_23  and  C_37
                            x       y       z     vdW  Elec       q    Type
                         _______ _______ _______ _____ _____    ______ ____

>  <TORSDO>
F 9

$$$$
=
 OpenBabel11032420253D

 39 45  0  0  1  0  0  0  0  0999 V2000
  188.7850  177.3920  141.1070 C   0  0  2  0  0  3  0  0  0  0  0  0
  190.8180  177.8180  142.3320 C   0  0  1  0  0  3  0  0  0  0  0  0
  191.2100  177.5130  140.8960 C   0  0  0  0  0  2  0  0  0  0  0  0
  189.3420  178.1690  142.2820 C   0  0  0  0  0  2  0  0  0  0  0  0
  189.9240  177.2940  140.1080 C   0  0  0  0  0  2  0  0  0  0  0  0
  186.0710  178.4420  137.1600 N   0  0  0  0  0  2  0  0  0  0  0  0
  185.0000  178.6600  139.4620 C   0  0  1  0  0  3  0  0  0  0  0  0
  184.0020  179.6060  138.8190 C   0  0  0  0  0  1  0  0  0  0  0  0
  187.5600  178.0510  140.5410 C   0  0  0  0  0  0  0  0  0  0  0  0
  186.2120  178.4460  138.5810 C   0  0  0  0  0  0  0  0  0  0  0  0
  185.4140  179.2240  140.8240 C   0  0  0  0  0  2  0  0  0  0  0  0
  186.6130  178.5070  141.3710 C   0  0  0  0  0  3  0  0  0  0  0  0
  187.3600  178.1310  139.1160 N   0  0  0  0  0  0  0  0  0  0  0  0
  187.1610  178.1460  136.3290 N   0  0  0  0  0  2  0  0  0  0  0  0
  186.6250  175.8810  136.1880 O   0  0  0  0  0  0  0  0  0  0  0  0
  187.4110  176.8150  135.8820 C   0  0  0  0  0  0  0  0  0  0  0  0
  188.6300  176.5220  135.0820 C   0  0  0  0  0  2  0  0  0  0  0  0
  189.7640  176.7280  135.8770 O   0  0  0  0  0  0  0  0  0  0  0  0
  190.4280  175.5010  135.8790 C   0  0  0  0  0  2  0  0  0  0  0  0
  190.9480  175.2090  137.2780 C   0  0  2  0  0  3  0  0  0  0  0  0
  193.3330  175.6300  136.7100 C   0  0  0  0  0  2  0  0  0  0  0  0
  192.1690  176.0570  137.5850 C   0  0  2  0  0  3  0  0  0  0  0  0
  192.3390  174.6000  137.2110 C   0  0  1  0  0  3  0  0  0  0  0  0
  191.0220  176.6230  143.1390 N   0  0  0  0  0  2  0  0  0  0  0  0
  190.0060  176.5850  144.1060 N   0  0  0  0  0  2  0  0  0  0  0  0
  189.3060  177.2880  146.3680 C   0  0  0  0  0  0  0  0  0  0  0  0
  185.9540  178.4740  147.1670 C   0  0  0  0  0  3  0  0  0  0  0  0
  190.8490  177.1850  148.2110 N   0  0  0  0  0  0  0  0  0  0  0  0
  189.6240  177.4830  147.7070 C   0  0  0  0  0  0  0  0  0  0  0  0
  187.9710  177.6250  146.0930 C   0  0  0  0  0  0  0  0  0  0  0  0
  187.3120  177.5400  144.8620 C   0  0  0  0  0  3  0  0  0  0  0  0
  191.8180  176.6960  147.3850 C   0  0  0  0  0  3  0  0  0  0  0  0
  190.2860  176.7940  145.4920 C   0  0  0  0  0  0  0  0  0  0  0  0
  191.5580  176.4980  146.0180 C   0  0  0  0  0  3  0  0  0  0  0  0
  188.3020  178.0720  148.5740 S   0  0  0  0  0  0  0  0  0  0  0  0
  185.9640  177.9260  144.7890 C   0  0  0  0  0  3  0  0  0  0  0  0
  187.2890  178.0780  147.2230 C   0  0  0  0  0  0  0  0  0  0  0  0
  183.9890  178.7650  145.8440 F   0  0  0  0  0  0  0  0  0  0  0  0
  185.2890  178.3940  145.9330 C   0  0  0  0  0  0  0  0  0  0  0  0
  1  9  1  6  0  0  0
  1  4  1  0  0  0  0
  2 24  1  1  0  0  0
  3  2  1  0  0  0  0
  4  2  1  0  0  0  0
  5  3  1  0  0  0  0
  5  1  1  0  0  0  0
  6 10  1  0  0  0  0
  7  8  1  6  0  0  0
  7 11  1  0  0  0  0
  9 12  2  0  0  0  0
 10 13  2  0  0  0  0
 10  7  1  0  0  0  0
 11 12  1  0  0  0  0
 13  9  1  0  0  0  0
 14  6  1  0  0  0  0
 16 15  2  0  0  0  0
 16 14  1  0  0  0  0
 17 18  1  0  0  0  0
 17 16  1  0  0  0  0
 18 19  1  0  0  0  0
 20 19  1  6  0  0  0
 20 22  1  0  0  0  0
 22 21  1  6  0  0  0
 23 21  1  6  0  0  0
 23 20  1  0  0  0  0
 23 22  1  0  0  0  0
 24 25  1  0  0  0  0
 25 33  1  0  0  0  0
 26 29  1  0  0  0  0
 27 37  1  0  0  0  0
 29 28  2  0  0  0  0
 29 35  1  0  0  0  0
 30 26  1  0  0  0  0
 30 37  2  0  0  0  0
 31 30  1  0  0  0  0
 32 28  1  0  0  0  0
 33 34  1  0  0  0  0
 33 26  2  0  0  0  0
 34 32  2  0  0  0  0
 36 31  2  0  0  0  0
 36 39  1  0  0  0  0
 37 35  1  0  0  0  0
 38 39  1  0  0  0  0
 39 27  2  0  0  0  0
M  END
>  <MODEL>
4

>  <REMARK>
 VINA RESULT:      -9.4      2.368      5.500
  Name = 
  9 active torsions:
  status: ('A' for Active; 'I' for Inactive)
    1  A    between atoms: O_1  and  C_35
    2  A    between atoms: O_1  and  C_37
    3  A    between atoms: N_2  and  N_16
    4  A    between atoms: C_3  and  C_20
    5  A    between atoms: C_5  and  C_35
    6  A    between atoms: N_6  and  C_7
    7  A    between atoms: N_6  and  N_11
    8  A    between atoms: N_11  and  C_28
    9  A    between atoms: C_23  and  C_37
                            x       y       z     vdW  Elec       q    Type
                         _______ _______ _______ _____ _____    ______ ____

>  <TORSDO>
F 9

$$$$
=
 OpenBabel11032420253D

 39 45  0  0  1  0  0  0  0  0999 V2000
  189.7730  176.6880  142.0460 C   0  0  2  0  0  3  0  0  0  0  0  0
  190.6510  177.3370  139.8970 C   0  0  1  0  0  3  0  0  0  0  0  0
  189.2200  177.8420  139.9730 C   0  0  0  0  0  2  0  0  0  0  0  0
  191.0570  177.0560  141.3310 C   0  0  0  0  0  2  0  0  0  0  0  0
  188.6800  177.4780  141.3490 C   0  0  0  0  0  2  0  0  0  0  0  0
  187.4250  177.4730  146.2790 N   0  0  0  0  0  2  0  0  0  0  0  0
  189.8950  176.8470  146.3590 C   0  0  1  0  0  3  0  0  0  0  0  0
  189.9300  177.4900  147.7340 C   0  0  0  0  0  1  0  0  0  0  0  0
  189.8600  176.9740  143.5190 C   0  0  0  0  0  0  0  0  0  0  0  0
  188.6550  177.2480  145.5890 C   0  0  0  0  0  0  0  0  0  0  0  0
  191.1600  177.2420  145.5920 C   0  0  0  0  0  2  0  0  0  0  0  0
  191.0460  176.8970  144.1360 C   0  0  0  0  0  3  0  0  0  0  0  0
  188.6720  177.2560  144.2840 N   0  0  0  0  0  0  0  0  0  0  0  0
  186.2440  177.7470  145.5770 N   0  0  0  0  0  2  0  0  0  0  0  0
  185.5500  179.3800  147.0910 O   0  0  0  0  0  0  0  0  0  0  0  0
  185.3080  178.7140  146.0510 C   0  0  0  0  0  0  0  0  0  0  0  0
  184.0200  178.9090  145.3340 C   0  0  0  0  0  2  0  0  0  0  0  0
  184.2330  179.7320  144.2210 O   0  0  0  0  0  0  0  0  0  0  0  0
  183.5320  179.1190  143.1830 C   0  0  0  0  0  2  0  0  0  0  0  0
  184.4880  178.2760  142.3540 C   0  0  2  0  0  3  0  0  0  0  0  0
  183.6680  179.1170  140.1620 C   0  0  0  0  0  2  0  0  0  0  0  0
  184.8730  178.9990  141.0760 C   0  0  2  0  0  3  0  0  0  0  0  0
  183.8460  177.8880  141.0320 C   0  0  1  0  0  3  0  0  0  0  0  0
  190.6750  176.1060  139.1180 N   0  0  0  0  0  2  0  0  0  0  0  0
  189.7580  176.2520  138.0650 N   0  0  0  0  0  2  0  0  0  0  0  0
  188.1450  175.0090  136.6680 C   0  0  0  0  0  0  0  0  0  0  0  0
  184.6800  176.0300  136.1910 C   0  0  0  0  0  3  0  0  0  0  0  0
  188.8240  173.0220  135.4930 N   0  0  0  0  0  0  0  0  0  0  0  0
  187.8740  173.9280  135.8360 C   0  0  0  0  0  0  0  0  0  0  0  0
  187.0210  175.8310  136.8420 C   0  0  0  0  0  0  0  0  0  0  0  0
  186.9380  177.0050  137.5980 C   0  0  0  0  0  3  0  0  0  0  0  0
  190.0880  173.1490  135.9890 C   0  0  0  0  0  3  0  0  0  0  0  0
  189.4360  175.1610  137.2010 C   0  0  0  0  0  0  0  0  0  0  0  0
  190.4140  174.2110  136.8500 C   0  0  0  0  0  3  0  0  0  0  0  0
  186.2720  173.9470  135.3070 S   0  0  0  0  0  0  0  0  0  0  0  0
  185.7140  177.6930  137.6470 C   0  0  0  0  0  3  0  0  0  0  0  0
  185.9040  175.3660  136.1460 C   0  0  0  0  0  0  0  0  0  0  0  0
  183.4170  177.8810  137.0120 F   0  0  0  0  0  0  0  0  0  0  0  0
  184.5900  177.2060  136.9510 C   0  0  0  0  0  0  0  0  0  0  0  0
  1  9  1  1  0  0  0
  2 24  1  6  0  0  0
  2  3  1  0  0  0  0
  2  4  1  0  0  0  0
  3  5  1  0  0  0  0
  4  1  1  0  0  0  0
  5  1  1  0  0  0  0
  7  8  1  1  0  0  0
  9 12  2  0  0  0  0
  9 13  1  0  0  0  0
 10  6  1  0  0  0  0
 10  7  1  0  0  0  0
 11  7  1  0  0  0  0
 12 11  1  0  0  0  0
 13 10  2  0  0  0  0
 14 16  1  0  0  0  0
 14  6  1  0  0  0  0
 16 15  2  0  0  0  0
 17 16  1  0  0  0  0
 18 17  1  0  0  0  0
 19 18  1  0  0  0  0
 20 19  1  1  0  0  0
 22 21  1  1  0  0  0
 22 20  1  0  0  0  0
 23 21  1  1  0  0  0
 23 22  1  0  0  0  0
 23 20  1  0  0  0  0
 25 24  1  0  0  0  0
 26 30  1  0  0  0  0
 26 33  1  0  0  0  0
 27 39  1  0  0  0  0
 28 29  1  0  0  0  0
 28 32  2  0  0  0  0
 29 26  2  0  0  0  0
 30 31  2  0  0  0  0
 31 36  1  0  0  0  0
 32 34  1  0  0  0  0
 33 25  1  0  0  0  0
 34 33  2  0  0  0  0
 35 29  1  0  0  0  0
 35 37  1  0  0  0  0
 37 27  2  0  0  0  0
 37 30  1  0  0  0  0
 39 38  1  0  0  0  0
 39 36  2  0  0  0  0
M  END
>  <MODEL>
5

>  <REMARK>
 VINA RESULT:      -9.2      3.653      7.935
  Name = 
  9 active torsions:
  status: ('A' for Active; 'I' for Inactive)
    1  A    between atoms: O_1  and  C_35
    2  A    between atoms: O_1  and  C_37
    3  A    between atoms: N_2  and  N_16
    4  A    between atoms: C_3  and  C_20
    5  A    between atoms: C_5  and  C_35
    6  A    between atoms: N_6  and  C_7
    7  A    between atoms: N_6  and  N_11
    8  A    between atoms: N_11  and  C_28
    9  A    between atoms: C_23  and  C_37
                            x       y       z     vdW  Elec       q    Type
                         _______ _______ _______ _____ _____    ______ ____

>  <TORSDO>
F 9

$$$$
=
 OpenBabel11032420253D

 39 45  0  0  1  0  0  0  0  0999 V2000
  186.3990  177.4900  145.3670 C   0  0  2  0  0  3  0  0  0  0  0  0
  185.0080  179.1390  144.2900 C   0  0  1  0  0  3  0  0  0  0  0  0
  184.8390  179.3140  145.7890 C   0  0  0  0  0  2  0  0  0  0  0  0
  186.2860  178.3390  144.1170 C   0  0  0  0  0  2  0  0  0  0  0  0
  185.7560  178.3080  146.4730 C   0  0  0  0  0  2  0  0  0  0  0  0
  190.8700  176.4660  143.6330 N   0  0  0  0  0  2  0  0  0  0  0  0
  190.6370  177.0970  146.0910 C   0  0  1  0  0  3  0  0  0  0  0  0
  191.9560  176.3800  146.3160 C   0  0  0  0  0  1  0  0  0  0  0  0
  187.8270  177.1250  145.6580 C   0  0  0  0  0  0  0  0  0  0  0  0
  190.0270  176.7330  144.7550 C   0  0  0  0  0  0  0  0  0  0  0  0
  189.6800  176.7490  147.2350 C   0  0  0  0  0  2  0  0  0  0  0  0
  188.2750  177.1730  146.9190 C   0  0  0  0  0  3  0  0  0  0  0  0
  188.7340  176.7960  144.5880 N   0  0  0  0  0  0  0  0  0  0  0  0
  190.3260  176.2260  142.3630 N   0  0  0  0  0  2  0  0  0  0  0  0
  191.7760  177.7130  141.3020 O   0  0  0  0  0  0  0  0  0  0  0  0
  190.8110  176.9110  141.2090 C   0  0  0  0  0  0  0  0  0  0  0  0
  190.1460  176.7040  139.8950 C   0  0  0  0  0  2  0  0  0  0  0  0
  189.7960  177.9480  139.3550 O   0  0  0  0  0  0  0  0  0  0  0  0
  189.8620  177.7690  137.9730 C   0  0  0  0  0  2  0  0  0  0  0  0
  188.7820  178.6030  137.3020 C   0  0  2  0  0  3  0  0  0  0  0  0
  187.1220  176.7550  137.1940 C   0  0  0  0  0  2  0  0  0  0  0  0
  187.4020  178.1450  137.7350 C   0  0  2  0  0  3  0  0  0  0  0  0
  187.9390  177.7400  136.3790 C   0  0  1  0  0  3  0  0  0  0  0  0
  183.8720  178.3860  143.7730 N   0  0  0  0  0  2  0  0  0  0  0  0
  182.9550  179.3090  143.2460 N   0  0  0  0  0  2  0  0  0  0  0  0
  181.2520  178.5130  141.6450 C   0  0  0  0  0  0  0  0  0  0  0  0
  181.9680  177.7250  138.1600 C   0  0  0  0  0  3  0  0  0  0  0  0
  178.9750  178.1800  142.3490 N   0  0  0  0  0  0  0  0  0  0  0  0
  179.9310  178.1620  141.3860 C   0  0  0  0  0  0  0  0  0  0  0  0
  182.0630  178.3740  140.5080 C   0  0  0  0  0  0  0  0  0  0  0  0
  183.4360  178.6230  140.4110 C   0  0  0  0  0  3  0  0  0  0  0  0
  179.2980  178.5750  143.6140 C   0  0  0  0  0  3  0  0  0  0  0  0
  181.6120  178.9320  142.9370 C   0  0  0  0  0  0  0  0  0  0  0  0
  180.6130  178.9600  143.9280 C   0  0  0  0  0  3  0  0  0  0  0  0
  179.7260  177.6860  139.7810 S   0  0  0  0  0  0  0  0  0  0  0  0
  184.0740  178.4210  139.1770 C   0  0  0  0  0  3  0  0  0  0  0  0
  181.3520  177.9230  139.3950 C   0  0  0  0  0  0  0  0  0  0  0  0
  183.9760  177.7910  136.8720 F   0  0  0  0  0  0  0  0  0  0  0  0
  183.3440  177.9780  138.0560 C   0  0  0  0  0  0  0  0  0  0  0  0
  1  9  1  1  0  0  0
  1  5  1  0  0  0  0
  2 24  1  1  0  0  0
  2  3  1  0  0  0  0
  3  5  1  0  0  0  0
  4  2  1  0  0  0  0
  4  1  1  0  0  0  0
  6 10  1  0  0  0  0
  7  8  1  1  0  0  0
  7 11  1  0  0  0  0
  9 12  2  0  0  0  0
 10  7  1  0  0  0  0
 12 11  1  0  0  0  0
 13 10  2  0  0  0  0
 13  9  1  0  0  0  0
 14  6  1  0  0  0  0
 16 15  2  0  0  0  0
 16 14  1  0  0  0  0
 17 16  1  0  0  0  0
 18 17  1  0  0  0  0
 19 18  1  0  0  0  0
 20 22  1  0  0  0  0
 20 19  1  1  0  0  0
 22 21  1  1  0  0  0
 23 21  1  1  0  0  0
 23 20  1  0  0  0  0
 23 22  1  0  0  0  0
 25 24  1  0  0  0  0
 26 33  1  0  0  0  0
 27 37  1  0  0  0  0
 28 32  2  0  0  0  0
 29 26  2  0  0  0  0
 29 28  1  0  0  0  0
 30 26  1  0  0  0  0
 31 30  1  0  0  0  0
 32 34  1  0  0  0  0
 33 25  1  0  0  0  0
 33 34  2  0  0  0  0
 35 29  1  0  0  0  0
 36 31  2  0  0  0  0
 37 35  1  0  0  0  0
 37 30  2  0  0  0  0
 38 39  1  0  0  0  0
 39 27  2  0  0  0  0
 39 36  1  0  0  0  0
M  END
>  <MODEL>
6

>  <REMARK>
 VINA RESULT:      -9.1      3.471      8.928
  Name = 
  9 active torsions:
  status: ('A' for Active; 'I' for Inactive)
    1  A    between atoms: O_1  and  C_35
    2  A    between atoms: O_1  and  C_37
    3  A    between atoms: N_2  and  N_16
    4  A    between atoms: C_3  and  C_20
    5  A    between atoms: C_5  and  C_35
    6  A    between atoms: N_6  and  C_7
    7  A    between atoms: N_6  and  N_11
    8  A    between atoms: N_11  and  C_28
    9  A    between atoms: C_23  and  C_37
                            x       y       z     vdW  Elec       q    Type
                         _______ _______ _______ _____ _____    ______ ____

>  <TORSDO>
F 9

$$$$
=
 OpenBabel11032420253D

 39 45  0  0  1  0  0  0  0  0999 V2000
  184.1510  179.1010  142.6130 C   0  0  2  0  0  3  0  0  0  0  0  0
  184.5780  178.1330  144.7790 C   0  0  1  0  0  3  0  0  0  0  0  0
  183.3130  178.9660  144.8970 C   0  0  0  0  0  2  0  0  0  0  0  0
  184.7690  177.8960  143.2930 C   0  0  0  0  0  2  0  0  0  0  0  0
  183.0120  179.5380  143.5180 C   0  0  0  0  0  2  0  0  0  0  0  0
  185.3840  178.0110  137.9940 N   0  0  0  0  0  0  0  0  0  0  0  0
  183.0030  177.5230  138.7620 C   0  0  1  0  0  3  0  0  0  0  0  0
  182.6090  177.5620  137.2960 C   0  0  0  0  0  1  0  0  0  0  0  0
  183.7030  178.7760  141.2160 C   0  0  0  0  0  0  0  0  0  0  0  0
  184.3660  178.1400  138.9880 C   0  0  0  0  0  0  0  0  0  0  0  0
  181.9360  178.2510  139.5840 C   0  0  0  0  0  2  0  0  0  0  0  0
  182.4100  178.5140  140.9830 C   0  0  0  0  0  3  0  0  0  0  0  0
  184.6590  178.6720  140.1430 N   0  0  0  0  0  0  0  0  0  0  0  0
  186.6820  178.4880  138.2240 N   0  0  0  0  0  0  0  0  0  0  0  0
  187.3460  178.1750  136.0110 O   0  0  0  0  0  0  0  0  0  0  0  0
  187.6530  178.5250  137.1800 C   0  0  0  0  0  0  0  0  0  0  0  0
  189.0470  178.9450  137.4830 C   0  0  0  0  0  2  0  0  0  0  0  0
  189.6860  177.9310  138.2060 O   0  0  0  0  0  0  0  0  0  0  0  0
  190.0800  177.0000  137.2450 C   0  0  0  0  0  2  0  0  0  0  0  0
  190.7810  175.8340  137.9260 C   0  0  2  0  0  3  0  0  0  0  0  0
  192.8540  176.0070  136.5630 C   0  0  0  0  0  2  0  0  0  0  0  0
  192.2810  176.0590  137.9680 C   0  0  2  0  0  3  0  0  0  0  0  0
  191.6890  175.1130  136.9440 C   0  0  1  0  0  3  0  0  0  0  0  0
  185.6970  178.8970  145.3140 N   0  0  0  0  0  2  0  0  0  0  0  0
  186.8790  178.2570  144.9120 N   0  0  0  0  0  2  0  0  0  0  0  0
  189.1720  177.5230  145.4610 C   0  0  0  0  0  0  0  0  0  0  0  0
  191.8060  177.1000  142.9780 C   0  0  0  0  0  3  0  0  0  0  0  0
  189.7980  177.0720  147.7400 N   0  0  0  0  0  0  0  0  0  0  0  0
  190.1000  177.1260  146.4180 C   0  0  0  0  0  0  0  0  0  0  0  0
  189.7270  177.5430  144.1720 C   0  0  0  0  0  0  0  0  0  0  0  0
  189.0890  177.9040  142.9800 C   0  0  0  0  0  3  0  0  0  0  0  0
  188.5410  177.3930  148.1590 C   0  0  0  0  0  3  0  0  0  0  0  0
  187.8670  177.8510  145.8620 C   0  0  0  0  0  0  0  0  0  0  0  0
  187.5570  177.7820  147.2330 C   0  0  0  0  0  3  0  0  0  0  0  0
  191.5980  176.7880  145.7190 S   0  0  0  0  0  0  0  0  0  0  0  0
  189.8200  177.8610  141.7820 C   0  0  0  0  0  3  0  0  0  0  0  0
  191.0680  177.1570  144.1590 C   0  0  0  0  0  0  0  0  0  0  0  0
  191.8580  177.4180  140.6140 F   0  0  0  0  0  0  0  0  0  0  0  0
  191.1690  177.4570  141.7790 C   0  0  0  0  0  0  0  0  0  0  0  0
  1  9  1  6  0  0  0
  1  4  1  0  0  0  0
  1  5  1  0  0  0  0
  2  3  1  0  0  0  0
  2 24  1  6  0  0  0
  4  2  1  0  0  0  0
  5  3  1  0  0  0  0
  6 14  2  0  0  0  0
  6 10  1  0  0  0  0
  7  8  1  6  0  0  0
  7 10  1  0  0  0  0
  7 11  1  0  0  0  0
 10 13  2  0  0  0  0
 11 12  1  0  0  0  0
 12  9  2  0  0  0  0
 13  9  1  0  0  0  0
 15 16  2  0  0  0  0
 16 17  1  0  0  0  0
 16 14  1  0  0  0  0
 17 18  1  0  0  0  0
 19 18  1  0  0  0  0
 20 19  1  6  0  0  0
 20 22  1  0  0  0  0
 22 21  1  6  0  0  0
 23 21  1  6  0  0  0
 23 20  1  0  0  0  0
 23 22  1  0  0  0  0
 25 24  1  0  0  0  0
 25 33  1  0  0  0  0
 26 33  2  0  0  0  0
 26 29  1  0  0  0  0
 27 37  1  0  0  0  0
 28 32  1  0  0  0  0
 29 28  2  0  0  0  0
 30 26  1  0  0  0  0
 31 30  1  0  0  0  0
 33 34  1  0  0  0  0
 34 32  2  0  0  0  0
 35 29  1  0  0  0  0
 36 31  2  0  0  0  0
 37 30  2  0  0  0  0
 37 35  1  0  0  0  0
 38 39  1  0  0  0  0
 39 36  1  0  0  0  0
 39 27  2  0  0  0  0
M  END
>  <MODEL>
7

>  <REMARK>
 VINA RESULT:      -9.0      2.735      6.858
  Name = 
  9 active torsions:
  status: ('A' for Active; 'I' for Inactive)
    1  A    between atoms: O_1  and  C_35
    2  A    between atoms: O_1  and  C_37
    3  A    between atoms: N_2  and  N_16
    4  A    between atoms: C_3  and  C_20
    5  A    between atoms: C_5  and  C_35
    6  A    between atoms: N_6  and  C_7
    7  A    between atoms: N_6  and  N_11
    8  A    between atoms: N_11  and  C_28
    9  A    between atoms: C_23  and  C_37
                            x       y       z     vdW  Elec       q    Type
                         _______ _______ _______ _____ _____    ______ ____

>  <TORSDO>
F 9

$$$$
=
 OpenBabel11032420253D

 39 45  0  0  1  0  0  0  0  0999 V2000
  189.8730  178.1200  141.8080 C   0  0  2  0  0  3  0  0  0  0  0  0
  188.7780  177.6850  139.7050 C   0  0  1  0  0  3  0  0  0  0  0  0
  189.9860  176.7670  139.7850 C   0  0  0  0  0  2  0  0  0  0  0  0
  188.5180  178.1360  141.1300 C   0  0  0  0  0  2  0  0  0  0  0  0
  190.6510  177.0040  141.1350 C   0  0  0  0  0  2  0  0  0  0  0  0
  186.9380  177.4690  145.6820 N   0  0  0  0  0  2  0  0  0  0  0  0
  189.4160  176.9310  145.9340 C   0  0  1  0  0  3  0  0  0  0  0  0
  189.2220  177.1150  147.4280 C   0  0  0  0  0  1  0  0  0  0  0  0
  189.7440  177.9360  143.2940 C   0  0  0  0  0  0  0  0  0  0  0  0
  188.2610  177.5110  145.1470 C   0  0  0  0  0  0  0  0  0  0  0  0
  190.7370  177.5870  145.5190 C   0  0  0  0  0  2  0  0  0  0  0  0
  190.8410  177.7100  144.0270 C   0  0  0  0  0  3  0  0  0  0  0  0
  188.4480  177.9260  143.9230 N   0  0  0  0  0  0  0  0  0  0  0  0
  185.8400  177.9090  144.9290 N   0  0  0  0  0  2  0  0  0  0  0  0
  184.8160  178.9380  146.7540 O   0  0  0  0  0  0  0  0  0  0  0  0
  184.7710  178.6340  145.5340 C   0  0  0  0  0  0  0  0  0  0  0  0
  183.5780  179.0000  144.7250 C   0  0  0  0  0  2  0  0  0  0  0  0
  183.7920  178.6260  143.3930 O   0  0  0  0  0  0  0  0  0  0  0  0
  182.5770  178.8730  142.7530 C   0  0  0  0  0  2  0  0  0  0  0  0
  181.4740  179.0070  143.7920 C   0  0  2  0  0  3  0  0  0  0  0  0
  179.6150  178.8990  142.1430 C   0  0  0  0  0  2  0  0  0  0  0  0
  180.2360  178.2410  143.3620 C   0  0  2  0  0  3  0  0  0  0  0  0
  180.2820  179.7470  143.2100 C   0  0  1  0  0  3  0  0  0  0  0  0
  189.1110  178.8300  138.8690 N   0  0  0  0  0  2  0  0  0  0  0  0
  188.0650  179.0030  137.9500 N   0  0  0  0  0  2  0  0  0  0  0  0
  186.4920  177.4280  136.8800 C   0  0  0  0  0  0  0  0  0  0  0  0
  183.0280  177.0080  137.9290 C   0  0  0  0  0  3  0  0  0  0  0  0
  187.1930  176.0810  135.0130 N   0  0  0  0  0  0  0  0  0  0  0  0
  186.2480  176.4630  135.9090 C   0  0  0  0  0  0  0  0  0  0  0  0
  185.3540  177.6870  137.6590 C   0  0  0  0  0  0  0  0  0  0  0  0
  185.2350  178.6030  138.7100 C   0  0  0  0  0  3  0  0  0  0  0  0
  188.4360  176.6380  135.0660 C   0  0  0  0  0  3  0  0  0  0  0  0
  187.7660  178.0130  136.9640 C   0  0  0  0  0  0  0  0  0  0  0  0
  188.7460  177.6040  136.0390 C   0  0  0  0  0  3  0  0  0  0  0  0
  184.6570  175.9040  135.9850 S   0  0  0  0  0  0  0  0  0  0  0  0
  184.0020  178.7190  139.3710 C   0  0  0  0  0  3  0  0  0  0  0  0
  184.2560  176.9130  137.2790 C   0  0  0  0  0  0  0  0  0  0  0  0
  181.7240  178.0460  139.6380 F   0  0  0  0  0  0  0  0  0  0  0  0
  182.9050  177.9230  138.9870 C   0  0  0  0  0  0  0  0  0  0  0  0
  1  9  1  1  0  0  0
  2 24  1  6  0  0  0
  2  3  1  0  0  0  0
  2  4  1  0  0  0  0
  3  5  1  0  0  0  0
  4  1  1  0  0  0  0
  5  1  1  0  0  0  0
  7  8  1  1  0  0  0
  9 13  1  0  0  0  0
  9 12  2  0  0  0  0
 10  6  1  0  0  0  0
 10  7  1  0  0  0  0
 11  7  1  0  0  0  0
 12 11  1  0  0  0  0
 13 10  2  0  0  0  0
 14 16  1  0  0  0  0
 14  6  1  0  0  0  0
 16 15  2  0  0  0  0
 17 16  1  0  0  0  0
 18 17  1  0  0  0  0
 19 18  1  0  0  0  0
 20 19  1  6  0  0  0
 22 21  1  6  0  0  0
 22 20  1  0  0  0  0
 23 21  1  6  0  0  0
 23 22  1  0  0  0  0
 23 20  1  0  0  0  0
 25 24  1  0  0  0  0
 26 33  1  0  0  0  0
 26 30  1  0  0  0  0
 27 39  1  0  0  0  0
 28 32  2  0  0  0  0
 28 29  1  0  0  0  0
 29 35  1  0  0  0  0
 29 26  2  0  0  0  0
 30 31  2  0  0  0  0
 31 36  1  0  0  0  0
 32 34  1  0  0  0  0
 33 25  1  0  0  0  0
 34 33  2  0  0  0  0
 35 37  1  0  0  0  0
 37 30  1  0  0  0  0
 37 27  2  0  0  0  0
 39 36  2  0  0  0  0
 39 38  1  0  0  0  0
M  END
>  <MODEL>
8

>  <REMARK>
 VINA RESULT:      -9.0      3.084      7.447
  Name = 
  9 active torsions:
  status: ('A' for Active; 'I' for Inactive)
    1  A    between atoms: O_1  and  C_35
    2  A    between atoms: O_1  and  C_37
    3  A    between atoms: N_2  and  N_16
    4  A    between atoms: C_3  and  C_20
    5  A    between atoms: C_5  and  C_35
    6  A    between atoms: N_6  and  C_7
    7  A    between atoms: N_6  and  N_11
    8  A    between atoms: N_11  and  C_28
    9  A    between atoms: C_23  and  C_37
                            x       y       z     vdW  Elec       q    Type
                         _______ _______ _______ _____ _____    ______ ____

>  <TORSDO>
F 9

$$$$
=
 OpenBabel11032420253D

 39 45  0  0  1  0  0  0  0  0999 V2000
  187.9730  178.2720  137.6250 C   0  0  2  0  0  3  0  0  0  0  0  0
  185.6450  177.7580  137.9850 C   0  0  1  0  0  3  0  0  0  0  0  0
  185.8630  177.8440  136.4840 C   0  0  0  0  0  2  0  0  0  0  0  0
  187.0270  177.5790  138.5840 C   0  0  0  0  0  2  0  0  0  0  0  0
  187.3430  178.1180  136.2520 C   0  0  0  0  0  2  0  0  0  0  0  0
  191.7160  176.8090  140.4350 N   0  0  0  0  0  2  0  0  0  0  0  0
  191.6460  176.0350  138.0070 C   0  0  1  0  0  3  0  0  0  0  0  0
  193.1440  175.8170  138.1190 C   0  0  0  0  0  1  0  0  0  0  0  0
  189.3590  177.6980  137.7050 C   0  0  0  0  0  0  0  0  0  0  0  0
  191.1240  176.8950  139.1380 C   0  0  0  0  0  0  0  0  0  0  0  0
  191.3360  176.6770  136.6520 C   0  0  0  0  0  2  0  0  0  0  0  0
  189.9290  177.1960  136.6020 C   0  0  0  0  0  3  0  0  0  0  0  0
  190.0480  177.6140  138.9670 N   0  0  0  0  0  0  0  0  0  0  0  0
  191.1840  177.5210  141.5190 N   0  0  0  0  0  2  0  0  0  0  0  0
  190.2080  175.6280  142.4700 O   0  0  0  0  0  0  0  0  0  0  0  0
  190.3990  176.8710  142.5170 C   0  0  0  0  0  0  0  0  0  0  0  0
  189.7700  177.6740  143.5990 C   0  0  0  0  0  2  0  0  0  0  0  0
  189.5380  176.8510  144.7080 O   0  0  0  0  0  0  0  0  0  0  0  0
  189.3290  177.7310  145.7700 C   0  0  0  0  0  2  0  0  0  0  0  0
  189.5170  176.9920  147.0850 C   0  0  2  0  0  3  0  0  0  0  0  0
  188.0160  178.4870  148.3870 C   0  0  0  0  0  2  0  0  0  0  0  0
  188.2560  177.0610  147.9270 C   0  0  2  0  0  3  0  0  0  0  0  0
  189.4310  177.9570  148.2550 C   0  0  1  0  0  3  0  0  0  0  0  0
  185.0560  179.0080  138.4470 N   0  0  0  0  0  2  0  0  0  0  0  0
  184.6550  178.8220  139.7790 N   0  0  0  0  0  2  0  0  0  0  0  0
  182.9060  178.9100  141.5200 C   0  0  0  0  0  0  0  0  0  0  0  0
  183.6010  178.7350  145.0930 C   0  0  0  0  0  3  0  0  0  0  0  0
  180.5900  179.1580  140.9130 N   0  0  0  0  0  0  0  0  0  0  0  0
  181.5590  179.0110  141.8520 C   0  0  0  0  0  0  0  0  0  0  0  0
  183.7200  178.8110  142.6590 C   0  0  0  0  0  0  0  0  0  0  0  0
  185.1150  178.7090  142.6980 C   0  0  0  0  0  3  0  0  0  0  0  0
  180.9300  179.1880  139.5920 C   0  0  0  0  0  3  0  0  0  0  0  0
  183.2840  178.9300  140.1670 C   0  0  0  0  0  0  0  0  0  0  0  0
  182.2740  179.0710  139.1980 C   0  0  0  0  0  3  0  0  0  0  0  0
  181.3340  178.9740  143.5240 S   0  0  0  0  0  0  0  0  0  0  0  0
  185.7510  178.6210  143.9460 C   0  0  0  0  0  3  0  0  0  0  0  0
  182.9860  178.8310  143.8460 C   0  0  0  0  0  0  0  0  0  0  0  0
  185.6300  178.5400  146.3320 F   0  0  0  0  0  0  0  0  0  0  0  0
  184.9990  178.6290  145.1370 C   0  0  0  0  0  0  0  0  0  0  0  0
  1  9  1  6  0  0  0
  1  4  1  0  0  0  0
  2 24  1  1  0  0  0
  2  4  1  0  0  0  0
  3  2  1  0  0  0  0
  5  3  1  0  0  0  0
  5  1  1  0  0  0  0
  6 14  1  0  0  0  0
  7  8  1  1  0  0  0
  7 10  1  0  0  0  0
  9 13  1  0  0  0  0
 10  6  1  0  0  0  0
 11  7  1  0  0  0  0
 12 11  1  0  0  0  0
 12  9  2  0  0  0  0
 13 10  2  0  0  0  0
 14 16  1  0  0  0  0
 15 16  2  0  0  0  0
 16 17  1  0  0  0  0
 17 18  1  0  0  0  0
 18 19  1  0  0  0  0
 20 19  1  6  0  0  0
 20 22  1  0  0  0  0
 20 23  1  0  0  0  0
 22 23  1  0  0  0  0
 22 21  1  6  0  0  0
 23 21  1  6  0  0  0
 24 25  1  0  0  0  0
 25 33  1  0  0  0  0
 26 29  1  0  0  0  0
 26 30  1  0  0  0  0
 27 39  1  0  0  0  0
 28 29  2  0  0  0  0
 29 35  1  0  0  0  0
 30 31  2  0  0  0  0
 30 37  1  0  0  0  0
 31 36  1  0  0  0  0
 32 28  1  0  0  0  0
 33 26  2  0  0  0  0
 34 32  2  0  0  0  0
 34 33  1  0  0  0  0
 35 37  1  0  0  0  0
 36 39  2  0  0  0  0
 37 27  2  0  0  0  0
 39 38  1  0  0  0  0
M  END
>  <MODEL>
9

>  <REMARK>
 VINA RESULT:      -9.0      2.869      7.031
  Name = 
  9 active torsions:
  status: ('A' for Active; 'I' for Inactive)
    1  A    between atoms: O_1  and  C_35
    2  A    between atoms: O_1  and  C_37
    3  A    between atoms: N_2  and  N_16
    4  A    between atoms: C_3  and  C_20
    5  A    between atoms: C_5  and  C_35
    6  A    between atoms: N_6  and  C_7
    7  A    between atoms: N_6  and  N_11
    8  A    between atoms: N_11  and  C_28
    9  A    between atoms: C_23  and  C_37
                            x       y       z     vdW  Elec       q    Type
                         _______ _______ _______ _____ _____    ______ ____

>  <TORSDO>
F 9

$$$$
