=
 OpenBabel11032419513D

 27 28  0  0  1  0  0  0  0  0999 V2000
  185.2250  178.2820  144.6030 C   0  0  0  0  0  0  0  0  0  0  0  0
  188.8350  177.3280  147.4920 C   0  0  0  0  0  3  0  0  0  0  0  0
  186.7390  178.1410  146.9270 C   0  0  0  0  0  0  0  0  0  0  0  0
  187.2600  177.6780  145.7510 C   0  0  0  0  0  0  0  0  0  0  0  0
  187.0560  177.2360  143.3780 O   0  0  0  0  0  1  0  0  0  0  0  0
  186.5200  177.7270  144.5650 C   0  0  0  0  0  0  0  0  0  0  0  0
  184.7050  178.7690  145.8190 C   0  0  0  0  0  3  0  0  0  0  0  0
  185.4640  178.6970  146.9980 C   0  0  0  0  0  3  0  0  0  0  0  0
  188.6270  177.1370  145.9720 C   0  0  1  0  0  3  0  0  0  0  0  0
  187.6280  177.9740  148.0080 N   0  0  0  0  0  0  0  0  0  0  0  0
  189.6480  177.9660  145.2040 C   0  0  0  0  0  2  0  0  0  0  0  0
  190.3680  177.1190  144.1650 C   0  0  0  0  0  2  0  0  0  0  0  0
  191.9280  178.3540  142.8320 O   0  0  0  0  0  1  0  0  0  0  0  0
  190.6050  177.9110  142.8860 C   0  0  1  0  0  3  0  0  0  0  0  0
  189.8540  175.9420  141.8180 O   0  0  0  0  0  0  0  0  0  0  0  0
  190.3010  177.0710  141.6870 C   0  0  0  0  0  0  0  0  0  0  0  0
  190.5330  177.6310  140.3230 C   0  0  0  0  0  2  0  0  0  0  0  0
  188.5110  176.7200  138.7310 O   0  0  0  0  0  1  0  0  0  0  0  0
  187.7830  178.3610  140.6330 O   0  0  0  0  0  1  0  0  0  0  0  0
  188.9540  177.9560  139.4820 P   0  0  0  0  0  0  0  0  0  0  0  0
  189.1420  179.2390  138.3980 O   0  0  0  0  0  0  0  0  0  0  0  0
  184.4000  178.3900  143.3610 C   0  0  0  0  0  2  0  0  0  0  0  0
  182.9680  180.2380  143.8070 O   0  0  0  0  0  0  0  0  0  0  0  0
  181.9220  178.1470  143.7670 N   0  0  0  0  0  2  0  0  0  0  0  0
  183.0710  178.9890  143.6680 C   0  0  0  0  0  0  0  0  0  0  0  0
  180.6420  178.6580  144.0270 C   0  0  0  0  0  0  0  0  0  0  0  0
  179.5420  179.0970  144.2500 C   0  0  0  0  0  3  0  0  0  0  0  0
  1  7  1  0  0  0  0
  2 10  2  0  0  0  0
  3  8  1  0  0  0  0
  3 10  1  0  0  0  0
  4  9  1  0  0  0  0
  4  3  2  0  0  0  0
  5  6  1  0  0  0  0
  6  1  2  0  0  0  0
  6  4  1  0  0  0  0
  7  8  2  0  0  0  0
  9 11  1  6  0  0  0
  9  2  1  0  0  0  0
 12 11  1  0  0  0  0
 14 13  1  6  0  0  0
 14 12  1  0  0  0  0
 16 15  2  0  0  0  0
 16 14  1  0  0  0  0
 17 16  1  0  0  0  0
 18 20  1  0  0  0  0
 20 17  1  0  0  0  0
 20 19  1  0  0  0  0
 21 20  2  0  0  0  0
 22 25  1  0  0  0  0
 22  1  1  0  0  0  0
 24 26  1  0  0  0  0
 25 24  1  0  0  0  0
 25 23  2  0  0  0  0
 26 27  3  0  0  0  0
M  END
>  <MODEL>
1

>  <REMARK>
 VINA RESULT:      -7.6      0.000      0.000
  Name = 
  9 active torsions:
  status: ('A' for Active; 'I' for Inactive)
    1  A    between atoms: C_1  and  C_19
    2  A    between atoms: C_4  and  C_17
    3  A    between atoms: C_4  and  C_18
    4  A    between atoms: C_9  and  N_12
    5  A    between atoms: C_13  and  C_19
    6  A    between atoms: C_17  and  C_26
    7  A    between atoms: C_18  and  C_24
    8  A    between atoms: P_22  and  C_23
    9  A    between atoms: C_23  and  C_26
                            x       y       z     vdW  Elec       q    Type
                         _______ _______ _______ _____ _____    ______ ____

>  <TORSDO>
F 9

$$$$
=
 OpenBabel11032419513D

 27 28  0  0  1  0  0  0  0  0999 V2000
  185.4290  178.2800  142.9260 C   0  0  0  0  0  0  0  0  0  0  0  0
  186.7860  178.2980  147.4480 C   0  0  0  0  0  3  0  0  0  0  0  0
  185.5070  178.9370  145.6230 C   0  0  0  0  0  0  0  0  0  0  0  0
  186.4170  178.0530  145.1160 C   0  0  0  0  0  0  0  0  0  0  0  0
  187.3210  176.7790  143.2640 O   0  0  0  0  0  1  0  0  0  0  0  0
  186.4000  177.6940  143.7640 C   0  0  0  0  0  0  0  0  0  0  0  0
  184.5060  179.2010  143.4590 C   0  0  0  0  0  3  0  0  0  0  0  0
  184.5370  179.5350  144.8220 C   0  0  0  0  0  3  0  0  0  0  0  0
  187.3220  177.5720  146.1930 C   0  0  1  0  0  3  0  0  0  0  0  0
  185.6740  179.1400  147.0080 N   0  0  0  0  0  0  0  0  0  0  0  0
  188.7520  178.0160  145.9120 C   0  0  0  0  0  2  0  0  0  0  0  0
  189.7340  176.8790  146.1550 C   0  0  0  0  0  2  0  0  0  0  0  0
  192.0350  176.4460  146.6600 O   0  0  0  0  0  1  0  0  0  0  0  0
  191.1710  177.3770  146.0790 C   0  0  1  0  0  3  0  0  0  0  0  0
  192.0170  178.6990  144.3120 O   0  0  0  0  0  0  0  0  0  0  0  0
  191.5660  177.6170  144.6560 C   0  0  0  0  0  0  0  0  0  0  0  0
  191.4180  176.5150  143.6600 C   0  0  0  0  0  2  0  0  0  0  0  0
  190.0880  176.0610  141.3190 O   0  0  0  0  0  1  0  0  0  0  0  0
  189.7260  178.4290  142.3690 O   0  0  0  0  0  1  0  0  0  0  0  0
  190.8030  177.1590  142.0750 P   0  0  0  0  0  0  0  0  0  0  0  0
  192.1000  177.7280  141.1510 O   0  0  0  0  0  0  0  0  0  0  0  0
  185.3830  177.9590  141.4670 C   0  0  0  0  0  2  0  0  0  0  0  0
  184.7020  179.8060  140.1280 O   0  0  0  0  0  0  0  0  0  0  0  0
  182.9760  178.4030  140.8500 N   0  0  0  0  0  2  0  0  0  0  0  0
  184.3490  178.7880  140.7830 C   0  0  0  0  0  0  0  0  0  0  0  0
  181.9650  179.1290  140.2040 C   0  0  0  0  0  0  0  0  0  0  0  0
  181.0960  179.7540  139.6500 C   0  0  0  0  0  3  0  0  0  0  0  0
  1  7  2  0  0  0  0
  1  6  1  0  0  0  0
  3 10  1  0  0  0  0
  4  3  1  0  0  0  0
  4  9  1  0  0  0  0
  5  6  1  0  0  0  0
  6  4  2  0  0  0  0
  7  8  1  0  0  0  0
  8  3  2  0  0  0  0
  9 11  1  6  0  0  0
  9  2  1  0  0  0  0
 10  2  2  0  0  0  0
 11 12  1  0  0  0  0
 14 12  1  0  0  0  0
 14 13  1  6  0  0  0
 15 16  2  0  0  0  0
 16 14  1  0  0  0  0
 17 16  1  0  0  0  0
 18 20  1  0  0  0  0
 20 19  1  0  0  0  0
 20 17  1  0  0  0  0
 21 20  2  0  0  0  0
 22  1  1  0  0  0  0
 23 25  2  0  0  0  0
 25 24  1  0  0  0  0
 25 22  1  0  0  0  0
 26 24  1  0  0  0  0
 27 26  3  0  0  0  0
M  END
>  <MODEL>
2

>  <REMARK>
 VINA RESULT:      -7.6      2.386      2.975
  Name = 
  9 active torsions:
  status: ('A' for Active; 'I' for Inactive)
    1  A    between atoms: C_1  and  C_19
    2  A    between atoms: C_4  and  C_17
    3  A    between atoms: C_4  and  C_18
    4  A    between atoms: C_9  and  N_12
    5  A    between atoms: C_13  and  C_19
    6  A    between atoms: C_17  and  C_26
    7  A    between atoms: C_18  and  C_24
    8  A    between atoms: P_22  and  C_23
    9  A    between atoms: C_23  and  C_26
                            x       y       z     vdW  Elec       q    Type
                         _______ _______ _______ _____ _____    ______ ____

>  <TORSDO>
F 9

$$$$
=
 OpenBabel11032419513D

 27 28  0  0  1  0  0  0  0  0999 V2000
  185.2530  178.2900  143.0600 C   0  0  0  0  0  0  0  0  0  0  0  0
  186.8220  178.1670  147.5120 C   0  0  0  0  0  3  0  0  0  0  0  0
  185.4450  178.8450  145.7740 C   0  0  0  0  0  0  0  0  0  0  0  0
  186.3480  178.0020  145.1910 C   0  0  0  0  0  0  0  0  0  0  0  0
  187.1900  176.8200  143.2520 O   0  0  0  0  0  1  0  0  0  0  0  0
  186.2750  177.6940  143.8290 C   0  0  0  0  0  0  0  0  0  0  0  0
  184.3370  179.1690  143.6710 C   0  0  0  0  0  3  0  0  0  0  0  0
  184.4260  179.4510  145.0430 C   0  0  0  0  0  3  0  0  0  0  0  0
  187.3130  177.5010  146.2060 C   0  0  1  0  0  3  0  0  0  0  0  0
  185.6730  179.0000  147.1580 N   0  0  0  0  0  0  0  0  0  0  0  0
  188.7180  177.9880  145.8760 C   0  0  0  0  0  2  0  0  0  0  0  0
  189.7400  176.8760  146.0680 C   0  0  0  0  0  2  0  0  0  0  0  0
  192.0530  176.5230  146.5800 O   0  0  0  0  0  1  0  0  0  0  0  0
  191.1590  177.4230  145.9950 C   0  0  1  0  0  3  0  0  0  0  0  0
  191.9680  178.7700  144.2300 O   0  0  0  0  0  0  0  0  0  0  0  0
  191.5490  177.6760  144.5740 C   0  0  0  0  0  0  0  0  0  0  0  0
  191.4370  176.5700  143.5770 C   0  0  0  0  0  2  0  0  0  0  0  0
  190.0530  176.0640  141.2780 O   0  0  0  0  0  1  0  0  0  0  0  0
  189.6600  178.4300  142.3220 O   0  0  0  0  0  1  0  0  0  0  0  0
  190.7610  177.1850  142.0060 P   0  0  0  0  0  0  0  0  0  0  0  0
  192.0160  177.7790  141.0410 O   0  0  0  0  0  0  0  0  0  0  0  0
  185.1440  178.0240  141.5940 C   0  0  0  0  0  2  0  0  0  0  0  0
  186.6960  179.7710  141.1380 O   0  0  0  0  0  0  0  0  0  0  0  0
  187.0100  177.8070  139.9080 N   0  0  0  0  0  2  0  0  0  0  0  0
  186.3140  178.5990  140.8710 C   0  0  0  0  0  0  0  0  0  0  0  0
  188.1320  178.2870  139.2180 C   0  0  0  0  0  0  0  0  0  0  0  0
  189.0970  178.7000  138.6250 C   0  0  0  0  0  3  0  0  0  0  0  0
  1  7  2  0  0  0  0
  1  6  1  0  0  0  0
  3 10  1  0  0  0  0
  4  3  1  0  0  0  0
  4  9  1  0  0  0  0
  5  6  1  0  0  0  0
  6  4  2  0  0  0  0
  7  8  1  0  0  0  0
  8  3  2  0  0  0  0
  9 11  1  6  0  0  0
  9  2  1  0  0  0  0
 10  2  2  0  0  0  0
 11 12  1  0  0  0  0
 14 12  1  0  0  0  0
 14 13  1  6  0  0  0
 15 16  2  0  0  0  0
 16 14  1  0  0  0  0
 17 16  1  0  0  0  0
 18 20  1  0  0  0  0
 20 19  1  0  0  0  0
 20 17  1  0  0  0  0
 21 20  2  0  0  0  0
 22  1  1  0  0  0  0
 24 25  1  0  0  0  0
 25 23  2  0  0  0  0
 25 22  1  0  0  0  0
 26 24  1  0  0  0  0
 27 26  3  0  0  0  0
M  END
>  <MODEL>
3

>  <REMARK>
 VINA RESULT:      -7.5      2.420      4.013
  Name = 
  9 active torsions:
  status: ('A' for Active; 'I' for Inactive)
    1  A    between atoms: C_1  and  C_19
    2  A    between atoms: C_4  and  C_17
    3  A    between atoms: C_4  and  C_18
    4  A    between atoms: C_9  and  N_12
    5  A    between atoms: C_13  and  C_19
    6  A    between atoms: C_17  and  C_26
    7  A    between atoms: C_18  and  C_24
    8  A    between atoms: P_22  and  C_23
    9  A    between atoms: C_23  and  C_26
                            x       y       z     vdW  Elec       q    Type
                         _______ _______ _______ _____ _____    ______ ____

>  <TORSDO>
F 9

$$$$
=
 OpenBabel11032419513D

 27 28  0  0  1  0  0  0  0  0999 V2000
  190.8830  177.3770  144.6910 C   0  0  0  0  0  0  0  0  0  0  0  0
  187.0470  177.7700  147.4160 C   0  0  0  0  0  3  0  0  0  0  0  0
  189.2090  177.1180  146.8920 C   0  0  0  0  0  0  0  0  0  0  0  0
  188.7510  177.7360  145.7630 C   0  0  0  0  0  0  0  0  0  0  0  0
  189.0960  178.5370  143.5030 O   0  0  0  0  0  1  0  0  0  0  0  0
  189.5700  177.8900  144.6400 C   0  0  0  0  0  0  0  0  0  0  0  0
  191.3390  176.7290  145.8560 C   0  0  0  0  0  3  0  0  0  0  0  0
  190.4990  176.5980  146.9740 C   0  0  0  0  0  3  0  0  0  0  0  0
  187.3500  178.1940  145.9600 C   0  0  1  0  0  3  0  0  0  0  0  0
  188.2420  177.0920  147.9180 N   0  0  0  0  0  0  0  0  0  0  0  0
  186.4200  177.4580  145.0050 C   0  0  0  0  0  2  0  0  0  0  0  0
  186.0060  178.3550  143.8460 C   0  0  0  0  0  2  0  0  0  0  0  0
  183.7900  178.9840  144.5000 O   0  0  0  0  0  1  0  0  0  0  0  0
  184.5140  178.2340  143.5710 C   0  0  1  0  0  3  0  0  0  0  0  0
  183.0410  178.8500  141.8290 O   0  0  0  0  0  0  0  0  0  0  0  0
  184.1990  178.7010  142.1850 C   0  0  0  0  0  0  0  0  0  0  0  0
  185.3180  179.0000  141.2420 C   0  0  0  0  0  2  0  0  0  0  0  0
  184.0950  180.2060  139.1200 O   0  0  0  0  0  1  0  0  0  0  0  0
  186.0760  178.6110  138.5100 O   0  0  0  0  0  0  0  0  0  0  0  0
  184.7500  178.9020  139.5180 P   0  0  0  0  0  0  0  0  0  0  0  0
  183.6360  177.6400  139.3570 O   0  0  0  0  0  1  0  0  0  0  0  0
  191.7940  177.4840  143.5100 C   0  0  0  0  0  2  0  0  0  0  0  0
  190.6010  175.6990  142.4820 O   0  0  0  0  0  0  0  0  0  0  0  0
  191.2810  177.4110  141.0410 N   0  0  0  0  0  2  0  0  0  0  0  0
  191.1980  176.7980  142.3280 C   0  0  0  0  0  0  0  0  0  0  0  0
  190.7150  176.8250  139.8990 C   0  0  0  0  0  0  0  0  0  0  0  0
  190.2300  176.3220  138.9170 C   0  0  0  0  0  3  0  0  0  0  0  0
  1  7  1  0  0  0  0
  2 10  2  0  0  0  0
  3  8  1  0  0  0  0
  3 10  1  0  0  0  0
  4  9  1  0  0  0  0
  4  3  2  0  0  0  0
  5  6  1  0  0  0  0
  6  1  2  0  0  0  0
  6  4  1  0  0  0  0
  7  8  2  0  0  0  0
  9 11  1  6  0  0  0
  9  2  1  0  0  0  0
 12 11  1  0  0  0  0
 14 12  1  0  0  0  0
 14 13  1  1  0  0  0
 15 16  2  0  0  0  0
 16 14  1  0  0  0  0
 17 16  1  0  0  0  0
 18 20  1  0  0  0  0
 19 20  2  0  0  0  0
 20 17  1  0  0  0  0
 21 20  1  0  0  0  0
 22  1  1  0  0  0  0
 24 25  1  0  0  0  0
 25 23  2  0  0  0  0
 25 22  1  0  0  0  0
 26 24  1  0  0  0  0
 27 26  3  0  0  0  0
M  END
>  <MODEL>
4

>  <REMARK>
 VINA RESULT:      -7.4      2.612      6.308
  Name = 
  9 active torsions:
  status: ('A' for Active; 'I' for Inactive)
    1  A    between atoms: C_1  and  C_19
    2  A    between atoms: C_4  and  C_17
    3  A    between atoms: C_4  and  C_18
    4  A    between atoms: C_9  and  N_12
    5  A    between atoms: C_13  and  C_19
    6  A    between atoms: C_17  and  C_26
    7  A    between atoms: C_18  and  C_24
    8  A    between atoms: P_22  and  C_23
    9  A    between atoms: C_23  and  C_26
                            x       y       z     vdW  Elec       q    Type
                         _______ _______ _______ _____ _____    ______ ____

>  <TORSDO>
F 9

$$$$
=
 OpenBabel11032419513D

 27 28  0  0  1  0  0  0  0  0999 V2000
  184.9710  178.8050  142.6440 C   0  0  0  0  0  0  0  0  0  0  0  0
  186.2240  177.7570  147.0740 C   0  0  0  0  0  3  0  0  0  0  0  0
  184.8940  178.6850  145.4170 C   0  0  0  0  0  0  0  0  0  0  0  0
  185.9420  178.1220  144.7450 C   0  0  0  0  0  0  0  0  0  0  0  0
  187.0720  177.5660  142.6760 O   0  0  0  0  0  1  0  0  0  0  0  0
  186.0080  178.1570  143.3490 C   0  0  0  0  0  0  0  0  0  0  0  0
  183.9040  179.3930  143.3500 C   0  0  0  0  0  3  0  0  0  0  0  0
  183.8560  179.3330  144.7520 C   0  0  0  0  0  3  0  0  0  0  0  0
  186.8920  177.4990  145.7040 C   0  0  1  0  0  3  0  0  0  0  0  0
  185.0000  178.5150  146.8130 N   0  0  0  0  0  0  0  0  0  0  0  0
  188.2380  178.2100  145.6450 C   0  0  0  0  0  2  0  0  0  0  0  0
  189.3640  177.2250  145.3640 C   0  0  0  0  0  2  0  0  0  0  0  0
  191.2240  178.5120  144.5770 O   0  0  0  0  0  1  0  0  0  0  0  0
  190.1890  177.6700  144.1640 C   0  0  1  0  0  3  0  0  0  0  0  0
  191.7490  175.9190  143.8750 O   0  0  0  0  0  0  0  0  0  0  0  0
  190.7530  176.4840  143.4490 C   0  0  0  0  0  0  0  0  0  0  0  0
  190.0780  175.9850  142.2150 C   0  0  0  0  0  2  0  0  0  0  0  0
  191.8790  177.6590  141.0280 O   0  0  0  0  0  1  0  0  0  0  0  0
  190.6770  175.9860  139.4160 O   0  0  0  0  0  0  0  0  0  0  0  0
  190.5480  176.9870  140.7730 P   0  0  0  0  0  0  0  0  0  0  0  0
  189.3670  178.1640  140.4900 O   0  0  0  0  0  1  0  0  0  0  0  0
  185.0040  178.9020  141.1530 C   0  0  0  0  0  2  0  0  0  0  0  0
  183.3500  177.2390  140.7420 O   0  0  0  0  0  0  0  0  0  0  0  0
  182.8870  179.3530  139.8560 N   0  0  0  0  0  2  0  0  0  0  0  0
  183.7130  178.4340  140.5720 C   0  0  0  0  0  0  0  0  0  0  0  0
  181.6510  178.9760  139.3110 C   0  0  0  0  0  0  0  0  0  0  0  0
  180.5880  178.6510  138.8440 C   0  0  0  0  0  3  0  0  0  0  0  0
  1  6  2  0  0  0  0
  1  7  1  0  0  0  0
  3 10  1  0  0  0  0
  4  3  2  0  0  0  0
  4  9  1  0  0  0  0
  5  6  1  0  0  0  0
  6  4  1  0  0  0  0
  7  8  2  0  0  0  0
  8  3  1  0  0  0  0
  9 11  1  1  0  0  0
  9  2  1  0  0  0  0
 10  2  2  0  0  0  0
 12 11  1  0  0  0  0
 14 13  1  1  0  0  0
 14 12  1  0  0  0  0
 16 15  2  0  0  0  0
 16 14  1  0  0  0  0
 17 16  1  0  0  0  0
 19 20  2  0  0  0  0
 20 18  1  0  0  0  0
 20 17  1  0  0  0  0
 21 20  1  0  0  0  0
 22  1  1  0  0  0  0
 24 25  1  0  0  0  0
 25 23  2  0  0  0  0
 25 22  1  0  0  0  0
 26 24  1  0  0  0  0
 27 26  3  0  0  0  0
M  END
>  <MODEL>
5

>  <REMARK>
 VINA RESULT:      -7.3      2.332      2.903
  Name = 
  9 active torsions:
  status: ('A' for Active; 'I' for Inactive)
    1  A    between atoms: C_1  and  C_19
    2  A    between atoms: C_4  and  C_17
    3  A    between atoms: C_4  and  C_18
    4  A    between atoms: C_9  and  N_12
    5  A    between atoms: C_13  and  C_19
    6  A    between atoms: C_17  and  C_26
    7  A    between atoms: C_18  and  C_24
    8  A    between atoms: P_22  and  C_23
    9  A    between atoms: C_23  and  C_26
                            x       y       z     vdW  Elec       q    Type
                         _______ _______ _______ _____ _____    ______ ____

>  <TORSDO>
F 9

$$$$
=
 OpenBabel11032419513D

 27 28  0  0  1  0  0  0  0  0999 V2000
  185.5510  178.2530  145.8090 C   0  0  0  0  0  0  0  0  0  0  0  0
  190.0150  177.1530  146.8860 C   0  0  0  0  0  3  0  0  0  0  0  0
  187.9340  178.1160  147.2280 C   0  0  0  0  0  0  0  0  0  0  0  0
  187.8490  177.5390  145.9930 C   0  0  0  0  0  0  0  0  0  0  0  0
  186.5840  176.9770  144.0050 O   0  0  0  0  0  1  0  0  0  0  0  0
  186.6620  177.5830  145.2550 C   0  0  0  0  0  0  0  0  0  0  0  0
  185.6570  178.8560  147.0780 C   0  0  0  0  0  3  0  0  0  0  0  0
  186.8570  178.7870  147.8030 C   0  0  0  0  0  3  0  0  0  0  0  0
  189.1400  176.8920  145.6380 C   0  0  1  0  0  3  0  0  0  0  0  0
  189.2020  177.9340  147.8180 N   0  0  0  0  0  0  0  0  0  0  0  0
  189.7530  177.5790  144.4250 C   0  0  0  0  0  2  0  0  0  0  0  0
  190.8610  176.7290  143.8180 C   0  0  0  0  0  2  0  0  0  0  0  0
  189.0330  175.7520  142.6180 O   0  0  0  0  0  1  0  0  0  0  0  0
  190.3920  176.0630  142.5320 C   0  0  1  0  0  3  0  0  0  0  0  0
  191.3850  177.9190  141.4580 O   0  0  0  0  0  0  0  0  0  0  0  0
  190.6350  176.9600  141.3600 C   0  0  0  0  0  0  0  0  0  0  0  0
  189.9650  176.6620  140.0600 C   0  0  0  0  0  2  0  0  0  0  0  0
  189.3550  179.0610  138.9060 O   0  0  0  0  0  1  0  0  0  0  0  0
  187.4910  177.2330  138.7380 O   0  0  0  0  0  0  0  0  0  0  0  0
  188.7160  177.9270  139.6760 P   0  0  0  0  0  0  0  0  0  0  0  0
  188.0520  178.5230  141.1110 O   0  0  0  0  0  1  0  0  0  0  0  0
  184.2660  178.3600  145.0530 C   0  0  0  0  0  2  0  0  0  0  0  0
  184.9890  180.1400  143.6470 O   0  0  0  0  0  0  0  0  0  0  0  0
  184.1880  178.2460  142.5330 N   0  0  0  0  0  2  0  0  0  0  0  0
  184.4970  178.9820  143.7180 C   0  0  0  0  0  0  0  0  0  0  0  0
  184.4090  178.7700  141.2510 C   0  0  0  0  0  0  0  0  0  0  0  0
  184.5980  179.2210  140.1490 C   0  0  0  0  0  3  0  0  0  0  0  0
  1  7  1  0  0  0  0
  2 10  2  0  0  0  0
  3  8  1  0  0  0  0
  3 10  1  0  0  0  0
  4  3  2  0  0  0  0
  5  6  1  0  0  0  0
  6  1  2  0  0  0  0
  6  4  1  0  0  0  0
  7  8  2  0  0  0  0
  9 11  1  6  0  0  0
  9  4  1  0  0  0  0
  9  2  1  0  0  0  0
 12 11  1  0  0  0  0
 14 13  1  1  0  0  0
 14 12  1  0  0  0  0
 16 15  2  0  0  0  0
 16 14  1  0  0  0  0
 17 16  1  0  0  0  0
 18 20  1  0  0  0  0
 19 20  2  0  0  0  0
 20 17  1  0  0  0  0
 20 21  1  0  0  0  0
 22  1  1  0  0  0  0
 23 25  2  0  0  0  0
 24 25  1  0  0  0  0
 25 22  1  0  0  0  0
 26 24  1  0  0  0  0
 27 26  3  0  0  0  0
M  END
>  <MODEL>
6

>  <REMARK>
 VINA RESULT:      -7.2      1.627      2.300
  Name = 
  9 active torsions:
  status: ('A' for Active; 'I' for Inactive)
    1  A    between atoms: C_1  and  C_19
    2  A    between atoms: C_4  and  C_17
    3  A    between atoms: C_4  and  C_18
    4  A    between atoms: C_9  and  N_12
    5  A    between atoms: C_13  and  C_19
    6  A    between atoms: C_17  and  C_26
    7  A    between atoms: C_18  and  C_24
    8  A    between atoms: P_22  and  C_23
    9  A    between atoms: C_23  and  C_26
                            x       y       z     vdW  Elec       q    Type
                         _______ _______ _______ _____ _____    ______ ____

>  <TORSDO>
F 9

$$$$
=
 OpenBabel11032419513D

 27 28  0  0  1  0  0  0  0  0999 V2000
  190.8890  177.4930  144.9370 C   0  0  0  0  0  0  0  0  0  0  0  0
  187.0240  177.8090  147.6300 C   0  0  0  0  0  3  0  0  0  0  0  0
  189.2070  177.2120  147.1290 C   0  0  0  0  0  0  0  0  0  0  0  0
  188.7400  177.8040  145.9900 C   0  0  0  0  0  0  0  0  0  0  0  0
  189.0790  178.5890  143.7230 O   0  0  0  0  0  1  0  0  0  0  0  0
  189.5630  177.9690  144.8710 C   0  0  0  0  0  0  0  0  0  0  0  0
  191.3540  176.8720  146.1130 C   0  0  0  0  0  3  0  0  0  0  0  0
  190.5100  176.7300  147.2260 C   0  0  0  0  0  3  0  0  0  0  0  0
  187.3250  178.2240  146.1720 C   0  0  1  0  0  3  0  0  0  0  0  0
  188.2340  177.1700  148.1490 N   0  0  0  0  0  0  0  0  0  0  0  0
  186.4230  177.4520  145.2190 C   0  0  0  0  0  2  0  0  0  0  0  0
  185.6210  178.4000  144.3370 C   0  0  0  0  0  2  0  0  0  0  0  0
  184.0790  178.9840  146.0740 O   0  0  0  0  0  1  0  0  0  0  0  0
  184.1670  178.4580  144.7830 C   0  0  1  0  0  3  0  0  0  0  0  0
  183.3210  180.5080  143.9680 O   0  0  0  0  0  0  0  0  0  0  0  0
  183.3640  179.2950  143.8390 C   0  0  0  0  0  0  0  0  0  0  0  0
  182.6270  178.6340  142.7220 C   0  0  0  0  0  2  0  0  0  0  0  0
  180.4300  178.6250  144.3450 O   0  0  0  0  0  1  0  0  0  0  0  0
  180.4300  180.4520  142.4730 O   0  0  0  0  0  1  0  0  0  0  0  0
  180.8330  178.8680  142.9070 P   0  0  0  0  0  0  0  0  0  0  0  0
  180.0120  177.7850  141.9010 O   0  0  0  0  0  0  0  0  0  0  0  0
  191.8040  177.6130  143.7620 C   0  0  0  0  0  2  0  0  0  0  0  0
  190.6380  175.8070  142.7390 O   0  0  0  0  0  0  0  0  0  0  0  0
  191.3310  177.5030  141.2860 N   0  0  0  0  0  2  0  0  0  0  0  0
  191.2310  176.9080  142.5800 C   0  0  0  0  0  0  0  0  0  0  0  0
  190.7870  176.8980  140.1430 C   0  0  0  0  0  0  0  0  0  0  0  0
  190.3190  176.3790  139.1610 C   0  0  0  0  0  3  0  0  0  0  0  0
  1  7  1  0  0  0  0
  2 10  2  0  0  0  0
  3  8  1  0  0  0  0
  3 10  1  0  0  0  0
  4  9  1  0  0  0  0
  4  3  2  0  0  0  0
  5  6  1  0  0  0  0
  6  1  2  0  0  0  0
  6  4  1  0  0  0  0
  7  8  2  0  0  0  0
  9 11  1  6  0  0  0
  9  2  1  0  0  0  0
 12 14  1  0  0  0  0
 12 11  1  0  0  0  0
 14 13  1  1  0  0  0
 16 15  2  0  0  0  0
 16 14  1  0  0  0  0
 17 20  1  0  0  0  0
 17 16  1  0  0  0  0
 19 20  1  0  0  0  0
 20 18  1  0  0  0  0
 21 20  2  0  0  0  0
 22  1  1  0  0  0  0
 24 25  1  0  0  0  0
 25 23  2  0  0  0  0
 25 22  1  0  0  0  0
 26 24  1  0  0  0  0
 27 26  3  0  0  0  0
M  END
>  <MODEL>
7

>  <REMARK>
 VINA RESULT:      -7.2      3.041      7.205
  Name = 
  9 active torsions:
  status: ('A' for Active; 'I' for Inactive)
    1  A    between atoms: C_1  and  C_19
    2  A    between atoms: C_4  and  C_17
    3  A    between atoms: C_4  and  C_18
    4  A    between atoms: C_9  and  N_12
    5  A    between atoms: C_13  and  C_19
    6  A    between atoms: C_17  and  C_26
    7  A    between atoms: C_18  and  C_24
    8  A    between atoms: P_22  and  C_23
    9  A    between atoms: C_23  and  C_26
                            x       y       z     vdW  Elec       q    Type
                         _______ _______ _______ _____ _____    ______ ____

>  <TORSDO>
F 9

$$$$
=
 OpenBabel11032419513D

 27 28  0  0  1  0  0  0  0  0999 V2000
  190.2940  177.3140  140.0430 C   0  0  0  0  0  0  0  0  0  0  0  0
  186.4650  177.8790  142.7460 C   0  0  0  0  0  3  0  0  0  0  0  0
  187.8110  178.2230  140.8910 C   0  0  0  0  0  0  0  0  0  0  0  0
  188.5330  177.3840  141.6910 C   0  0  0  0  0  0  0  0  0  0  0  0
  190.5000  176.0330  142.1080 O   0  0  0  0  0  1  0  0  0  0  0  0
  189.7830  176.9000  141.2910 C   0  0  0  0  0  0  0  0  0  0  0  0
  189.5460  178.1910  139.2330 C   0  0  0  0  0  3  0  0  0  0  0  0
  188.2880  178.6520  139.6540 C   0  0  0  0  0  3  0  0  0  0  0  0
  187.7810  177.0920  142.9410 C   0  0  1  0  0  3  0  0  0  0  0  0
  186.5690  178.5700  141.4610 N   0  0  0  0  0  0  0  0  0  0  0  0
  188.5360  177.6380  144.1450 C   0  0  0  0  0  2  0  0  0  0  0  0
  187.9350  177.1240  145.4460 C   0  0  0  0  0  2  0  0  0  0  0  0
  186.8740  178.4290  147.1510 O   0  0  0  0  0  1  0  0  0  0  0  0
  188.1080  178.1410  146.5650 C   0  0  1  0  0  3  0  0  0  0  0  0
  189.2580  178.2520  148.6270 O   0  0  0  0  0  0  0  0  0  0  0  0
  189.0530  177.6210  147.6010 C   0  0  0  0  0  0  0  0  0  0  0  0
  189.7350  176.3120  147.3780 C   0  0  0  0  0  2  0  0  0  0  0  0
  192.1300  175.2460  146.6150 O   0  0  0  0  0  1  0  0  0  0  0  0
  191.6800  177.6870  145.7920 O   0  0  0  0  0  0  0  0  0  0  0  0
  191.5040  176.5560  147.0370 P   0  0  0  0  0  0  0  0  0  0  0  0
  192.2760  177.1290  148.4280 O   0  0  0  0  0  1  0  0  0  0  0  0
  191.6380  176.8550  139.5760 C   0  0  0  0  0  2  0  0  0  0  0  0
  192.0710  176.5870  137.2510 O   0  0  0  0  0  0  0  0  0  0  0  0
  190.8110  174.8820  138.2380 N   0  0  0  0  0  2  0  0  0  0  0  0
  191.5190  176.1210  138.2840 C   0  0  0  0  0  0  0  0  0  0  0  0
  190.6900  174.1360  137.0570 C   0  0  0  0  0  0  0  0  0  0  0  0
  190.5870  173.4930  136.0420 C   0  0  0  0  0  3  0  0  0  0  0  0
  1  6  1  0  0  0  0
  2  9  1  0  0  0  0
  3 10  1  0  0  0  0
  3  4  1  0  0  0  0
  4  9  1  0  0  0  0
  6  4  2  0  0  0  0
  6  5  1  0  0  0  0
  7  8  1  0  0  0  0
  7  1  2  0  0  0  0
  8  3  2  0  0  0  0
  9 11  1  1  0  0  0
 10  2  2  0  0  0  0
 11 12  1  0  0  0  0
 12 14  1  0  0  0  0
 14 13  1  1  0  0  0
 14 16  1  0  0  0  0
 16 15  2  0  0  0  0
 17 16  1  0  0  0  0
 18 20  1  0  0  0  0
 19 20  2  0  0  0  0
 20 17  1  0  0  0  0
 20 21  1  0  0  0  0
 22  1  1  0  0  0  0
 23 25  2  0  0  0  0
 24 25  1  0  0  0  0
 25 22  1  0  0  0  0
 26 24  1  0  0  0  0
 27 26  3  0  0  0  0
M  END
>  <MODEL>
8

>  <REMARK>
 VINA RESULT:      -7.2      4.048      7.923
  Name = 
  9 active torsions:
  status: ('A' for Active; 'I' for Inactive)
    1  A    between atoms: C_1  and  C_19
    2  A    between atoms: C_4  and  C_17
    3  A    between atoms: C_4  and  C_18
    4  A    between atoms: C_9  and  N_12
    5  A    between atoms: C_13  and  C_19
    6  A    between atoms: C_17  and  C_26
    7  A    between atoms: C_18  and  C_24
    8  A    between atoms: P_22  and  C_23
    9  A    between atoms: C_23  and  C_26
                            x       y       z     vdW  Elec       q    Type
                         _______ _______ _______ _____ _____    ______ ____

>  <TORSDO>
F 9

$$$$
=
 OpenBabel11032419513D

 27 28  0  0  1  0  0  0  0  0999 V2000
  187.5250  177.6220  144.4910 C   0  0  0  0  0  0  0  0  0  0  0  0
  183.1760  179.4570  144.6140 C   0  0  0  0  0  3  0  0  0  0  0  0
  185.0900  178.4940  145.5010 C   0  0  0  0  0  0  0  0  0  0  0  0
  185.3300  178.5680  144.1580 C   0  0  0  0  0  0  0  0  0  0  0  0
  186.7870  178.2410  142.2500 O   0  0  0  0  0  1  0  0  0  0  0  0
  186.5490  178.1450  143.6170 C   0  0  0  0  0  0  0  0  0  0  0  0
  187.2590  177.5380  145.8720 C   0  0  0  0  0  3  0  0  0  0  0  0
  186.0320  177.9810  146.3900 C   0  0  0  0  0  3  0  0  0  0  0  0
  184.1590  179.1590  143.4570 C   0  0  1  0  0  3  0  0  0  0  0  0
  183.8190  178.9980  145.8450 N   0  0  0  0  0  0  0  0  0  0  0  0
  183.5450  178.1360  142.5100 C   0  0  0  0  0  2  0  0  0  0  0  0
  183.3150  178.7400  141.1310 C   0  0  0  0  0  2  0  0  0  0  0  0
  183.0120  176.9950  139.5180 O   0  0  0  0  0  1  0  0  0  0  0  0
  183.9530  177.8800  140.0480 C   0  0  1  0  0  3  0  0  0  0  0  0
  184.5590  179.9540  139.0910 O   0  0  0  0  0  0  0  0  0  0  0  0
  184.5110  178.7410  138.9600 C   0  0  0  0  0  0  0  0  0  0  0  0
  185.0250  178.1010  137.7120 C   0  0  0  0  0  2  0  0  0  0  0  0
  187.2810  179.3710  136.8440 O   0  0  0  0  0  0  0  0  0  0  0  0
  187.4440  178.3080  139.2280 O   0  0  0  0  0  1  0  0  0  0  0  0
  186.8410  178.1720  137.6540 P   0  0  0  0  0  0  0  0  0  0  0  0
  187.4420  176.7610  136.9440 O   0  0  0  0  0  1  0  0  0  0  0  0
  188.8340  177.1240  143.9670 C   0  0  0  0  0  2  0  0  0  0  0  0
  190.5090  178.4310  145.0400 O   0  0  0  0  0  0  0  0  0  0  0  0
  190.2280  176.2700  145.8890 N   0  0  0  0  0  2  0  0  0  0  0  0
  189.9100  177.3230  144.9790 C   0  0  0  0  0  0  0  0  0  0  0  0
  191.2120  176.4100  146.8780 C   0  0  0  0  0  0  0  0  0  0  0  0
  192.0570  176.5320  147.7290 C   0  0  0  0  0  3  0  0  0  0  0  0
  1  7  1  0  0  0  0
  2 10  2  0  0  0  0
  3 10  1  0  0  0  0
  3  8  1  0  0  0  0
  4  3  2  0  0  0  0
  5  6  1  0  0  0  0
  6  4  1  0  0  0  0
  6  1  2  0  0  0  0
  7  8  2  0  0  0  0
  9 11  1  6  0  0  0
  9  4  1  0  0  0  0
  9  2  1  0  0  0  0
 12 11  1  0  0  0  0
 14 13  1  6  0  0  0
 14 12  1  0  0  0  0
 16 15  2  0  0  0  0
 16 14  1  0  0  0  0
 17 16  1  0  0  0  0
 18 20  2  0  0  0  0
 20 17  1  0  0  0  0
 20 19  1  0  0  0  0
 21 20  1  0  0  0  0
 22  1  1  0  0  0  0
 22 25  1  0  0  0  0
 24 26  1  0  0  0  0
 25 23  2  0  0  0  0
 25 24  1  0  0  0  0
 26 27  3  0  0  0  0
M  END
>  <MODEL>
9

>  <REMARK>
 VINA RESULT:      -7.2      2.658      6.249
  Name = 
  9 active torsions:
  status: ('A' for Active; 'I' for Inactive)
    1  A    between atoms: C_1  and  C_19
    2  A    between atoms: C_4  and  C_17
    3  A    between atoms: C_4  and  C_18
    4  A    between atoms: C_9  and  N_12
    5  A    between atoms: C_13  and  C_19
    6  A    between atoms: C_17  and  C_26
    7  A    between atoms: C_18  and  C_24
    8  A    between atoms: P_22  and  C_23
    9  A    between atoms: C_23  and  C_26
                            x       y       z     vdW  Elec       q    Type
                         _______ _______ _______ _____ _____    ______ ____

>  <TORSDO>
F 9

$$$$
