=
 OpenBabel11042412193D

 34 35  0  0  1  0  0  0  0  0999 V2000
  184.6660  178.9600  140.9010 C   0  0  2  0  0  3  0  0  0  0  0  0
  185.7990  178.4850  138.7030 C   0  0  0  0  0  1  0  0  0  0  0  0
  185.7860  178.1870  140.1940 C   0  0  1  0  0  3  0  0  0  0  0  0
  188.2820  177.8160  140.1830 N   0  0  0  0  0  2  0  0  0  0  0  0
  187.2660  179.1320  141.8310 O   0  0  0  0  0  0  0  0  0  0  0  0
  187.1390  178.4150  140.8000 C   0  0  0  0  0  0  0  0  0  0  0  0
  189.5630  177.6420  140.8010 C   0  0  0  0  0  0  0  0  0  0  0  0
  190.5920  177.6730  140.0750 O   0  0  0  0  0  0  0  0  0  0  0  0
  191.0180  177.7110  145.1530 C   0  0  0  0  0  2  0  0  0  0  0  0
  189.6980  177.3660  142.2500 C   0  0  1  0  0  3  0  0  0  0  0  0
  191.6700  176.4740  144.5340 C   0  0  0  0  0  3  0  0  0  0  0  0
  190.6500  178.7640  144.1390 C   0  0  0  0  0  2  0  0  0  0  0  0
  189.8350  175.9670  142.8010 C   0  0  0  0  0  2  0  0  0  0  0  0
  191.1600  175.7240  143.5220 C   0  0  0  0  0  3  0  0  0  0  0  0
  190.0860  178.2730  143.0870 C   0  0  0  0  0  2  0  0  0  0  0  0
  184.2160  178.2620  142.1000 N   0  0  0  0  0  2  0  0  0  0  0  0
  182.5700  178.4730  143.7840 C   0  0  0  0  0  2  0  0  0  0  0  0
  183.6800  178.9490  143.2350 C   0  0  0  0  0  0  0  0  0  0  0  0
  184.4790  179.9940  143.9120 C   0  0  0  0  0  3  0  0  0  0  0  0
  185.3700  179.8400  144.9020 C   0  0  0  0  0  3  0  0  0  0  0  0
  184.9980  178.2890  146.7520 C   0  0  0  0  0  2  0  0  0  0  0  0
  185.6830  178.6110  145.6550 C   0  0  0  0  0  0  0  0  0  0  0  0
  187.6740  177.5130  146.6770 C   0  0  0  0  0  1  0  0  0  0  0  0
  186.8880  176.8030  144.4200 C   0  0  0  0  0  1  0  0  0  0  0  0
  187.0090  177.9680  145.3880 C   0  0  0  0  0  3  0  0  0  0  0  0
  183.2610  179.2490  139.7780 S   0  0  0  0  0  0  0  0  0  0  0  0
  182.4980  177.6320  140.1390 C   0  0  1  0  0  3  0  0  0  0  0  0
  181.0100  177.8040  140.4290 C   0  0  0  0  0  1  0  0  0  0  0  0
  182.7680  176.6630  139.0680 N   0  0  0  0  0  0  0  0  0  0  0  0
  181.8500  176.0680  136.9880 C   0  0  0  0  0  2  0  0  0  0  0  0
  180.5090  174.3200  137.9720 N   0  0  0  0  0  1  0  0  0  0  0  0
  181.9830  175.5670  139.2800 O   0  0  0  0  0  0  0  0  0  0  0  0
  182.4190  177.2110  137.7610 C   0  0  0  0  0  2  0  0  0  0  0  0
  181.8000  174.9790  138.0190 C   0  0  2  0  0  3  0  0  0  0  0  0
  1 26  1  6  0  0  0
  1 16  1  0  0  0  0
  3  2  1  6  0  0  0
  3  6  1  0  0  0  0
  3  1  1  0  0  0  0
  4  6  1  0  0  0  0
  4  7  1  0  0  0  0
  6  5  2  0  0  0  0
  8  7  2  0  0  0  0
 10  7  1  6  0  0  0
 10 13  1  0  0  0  0
 10 15  1  0  0  0  0
 11  9  1  0  0  0  0
 12  9  1  0  0  0  0
 13 14  1  0  0  0  0
 14 11  2  0  0  0  0
 15 12  1  0  0  0  0
 16 18  1  0  0  0  0
 18 17  2  0  0  0  0
 18 19  1  0  0  0  0
 19 20  2  0  0  0  0
 20 22  1  0  0  0  0
 22 21  2  0  0  0  0
 24 25  1  0  0  0  0
 25 22  1  0  0  0  0
 25 23  1  0  0  0  0
 26 27  1  0  0  0  0
 27 28  1  6  0  0  0
 29 32  1  0  0  0  0
 29 27  1  0  0  0  0
 30 33  1  0  0  0  0
 30 34  1  0  0  0  0
 33 29  1  0  0  0  0
 34 31  1  1  0  0  0
 34 32  1  0  0  0  0
M  END
>  <MODEL>
1

>  <REMARK>
 VINA RESULT:      -7.0      0.000      0.000
  Name = 
  11 active torsions:
  status: ('A' for Active; 'I' for Inactive)
    1  A    between atoms: N_1  and  C_11
    2  A    between atoms: C_3  and  C_32
    3  A    between atoms: C_4  and  C_23
    4  A    between atoms: C_11  and  S_28
    5  A    between atoms: N_16  and  C_31
    6  A    between atoms: N_16  and  C_32
    7  A    between atoms: C_19  and  C_20
    8  A    between atoms: C_20  and  C_31
    9  A    between atoms: S_28  and  C_31
   10  A    between atoms: C_30  and  C_34
   11  A    between atoms: C_33  and  C_34
                            x       y       z     vdW  Elec       q    Type
                         _______ _______ _______ _____ _____    ______ ____

>  <TORSDO>
F 11

$$$$
=
 OpenBabel11042412193D

 34 35  0  0  1  0  0  0  0  0999 V2000
  185.9270  178.1290  142.4610 C   0  0  2  0  0  3  0  0  0  0  0  0
  184.8500  179.3170  144.4030 C   0  0  0  0  0  1  0  0  0  0  0  0
  184.6890  178.2200  143.3600 C   0  0  1  0  0  3  0  0  0  0  0  0
  183.2230  177.6430  141.3890 N   0  0  0  0  0  2  0  0  0  0  0  0
  182.5110  179.1680  143.0160 O   0  0  0  0  0  0  0  0  0  0  0  0
  183.4100  178.3890  142.5960 C   0  0  0  0  0  0  0  0  0  0  0  0
  182.2470  177.9300  140.3790 C   0  0  0  0  0  0  0  0  0  0  0  0
  181.7690  176.9730  139.7140 O   0  0  0  0  0  0  0  0  0  0  0  0
  179.7380  181.6190  139.3040 C   0  0  0  0  0  2  0  0  0  0  0  0
  181.8410  179.3180  140.0600 C   0  0  1  0  0  3  0  0  0  0  0  0
  180.3590  181.1610  137.9850 C   0  0  0  0  0  3  0  0  0  0  0  0
  179.6220  180.5170  140.3260 C   0  0  0  0  0  2  0  0  0  0  0  0
  182.5010  180.1270  138.9690 C   0  0  0  0  0  2  0  0  0  0  0  0
  181.5480  180.5190  137.8410 C   0  0  0  0  0  3  0  0  0  0  0  0
  180.6870  179.7900  140.4040 C   0  0  0  0  0  2  0  0  0  0  0  0
  187.1550  178.2730  143.2340 N   0  0  0  0  0  2  0  0  0  0  0  0
  188.0690  176.0930  143.3080 C   0  0  0  0  0  2  0  0  0  0  0  0
  187.7320  177.1910  143.9730 C   0  0  0  0  0  0  0  0  0  0  0  0
  188.1590  177.3980  145.3740 C   0  0  0  0  0  3  0  0  0  0  0  0
  189.3520  177.8160  145.8190 C   0  0  0  0  0  3  0  0  0  0  0  0
  190.5960  178.9380  144.0400 C   0  0  0  0  0  2  0  0  0  0  0  0
  190.5800  178.0510  145.0350 C   0  0  0  0  0  0  0  0  0  0  0  0
  191.6450  176.3190  146.4780 C   0  0  0  0  0  1  0  0  0  0  0  0
  191.5440  175.9850  144.0090 C   0  0  0  0  0  1  0  0  0  0  0  0
  191.6550  177.0110  145.1250 C   0  0  0  0  0  3  0  0  0  0  0  0
  185.8680  179.3800  141.1380 S   0  0  0  0  0  0  0  0  0  0  0  0
  186.5230  178.2350  139.8770 C   0  0  1  0  0  3  0  0  0  0  0  0
  185.6150  178.2230  138.6520 C   0  0  0  0  0  1  0  0  0  0  0  0
  187.9240  178.5420  139.5530 N   0  0  0  0  0  0  0  0  0  0  0  0
  189.5980  177.7240  138.1200 C   0  0  0  0  0  2  0  0  0  0  0  0
  190.5070  176.2970  139.8400 N   0  0  0  0  0  1  0  0  0  0  0  0
  188.7210  177.7240  140.3000 O   0  0  0  0  0  0  0  0  0  0  0  0
  188.2100  178.2750  138.1470 C   0  0  0  0  0  2  0  0  0  0  0  0
  189.9190  177.5970  139.5810 C   0  0  2  0  0  3  0  0  0  0  0  0
  1 26  1  6  0  0  0
  1 16  1  0  0  0  0
  1  3  1  0  0  0  0
  3  2  1  1  0  0  0
  4  6  1  0  0  0  0
  6  5  2  0  0  0  0
  6  3  1  0  0  0  0
  7  4  1  0  0  0  0
  8  7  2  0  0  0  0
  9 12  1  0  0  0  0
 10  7  1  6  0  0  0
 10 15  1  0  0  0  0
 11  9  1  0  0  0  0
 12 15  1  0  0  0  0
 13 10  1  0  0  0  0
 14 11  2  0  0  0  0
 14 13  1  0  0  0  0
 16 18  1  0  0  0  0
 17 18  2  0  0  0  0
 18 19  1  0  0  0  0
 19 20  2  0  0  0  0
 21 22  2  0  0  0  0
 22 25  1  0  0  0  0
 22 20  1  0  0  0  0
 24 25  1  0  0  0  0
 25 23  1  0  0  0  0
 27 28  1  6  0  0  0
 27 26  1  0  0  0  0
 29 27  1  0  0  0  0
 29 32  1  0  0  0  0
 30 33  1  0  0  0  0
 30 34  1  0  0  0  0
 33 29  1  0  0  0  0
 34 31  1  6  0  0  0
 34 32  1  0  0  0  0
M  END
>  <MODEL>
2

>  <REMARK>
 VINA RESULT:      -6.6      2.218      7.294
  Name = 
  11 active torsions:
  status: ('A' for Active; 'I' for Inactive)
    1  A    between atoms: N_1  and  C_11
    2  A    between atoms: C_3  and  C_32
    3  A    between atoms: C_4  and  C_23
    4  A    between atoms: C_11  and  S_28
    5  A    between atoms: N_16  and  C_31
    6  A    between atoms: N_16  and  C_32
    7  A    between atoms: C_19  and  C_20
    8  A    between atoms: C_20  and  C_31
    9  A    between atoms: S_28  and  C_31
   10  A    between atoms: C_30  and  C_34
   11  A    between atoms: C_33  and  C_34
                            x       y       z     vdW  Elec       q    Type
                         _______ _______ _______ _____ _____    ______ ____

>  <TORSDO>
F 11

$$$$
=
 OpenBabel11042412193D

 34 35  0  0  1  0  0  0  0  0999 V2000
  188.1440  178.3300  139.4410 C   0  0  2  0  0  3  0  0  0  0  0  0
  190.3470  177.1630  139.7910 C   0  0  0  0  0  1  0  0  0  0  0  0
  188.9400  177.3710  140.3320 C   0  0  1  0  0  3  0  0  0  0  0  0
  190.1030  178.5230  142.2520 N   0  0  0  0  0  2  0  0  0  0  0  0
  188.0180  177.5010  142.5440 O   0  0  0  0  0  0  0  0  0  0  0  0
  188.9740  177.7870  141.7730 C   0  0  0  0  0  0  0  0  0  0  0  0
  190.4570  178.6940  143.6310 C   0  0  0  0  0  0  0  0  0  0  0  0
  191.0410  179.7570  143.9760 O   0  0  0  0  0  0  0  0  0  0  0  0
  189.5690  176.5240  147.5750 C   0  0  0  0  0  2  0  0  0  0  0  0
  190.2120  177.6350  144.6360 C   0  0  1  0  0  3  0  0  0  0  0  0
  191.0900  176.4690  147.4230 C   0  0  0  0  0  3  0  0  0  0  0  0
  188.9330  177.6660  146.8250 C   0  0  0  0  0  2  0  0  0  0  0  0
  191.1660  176.4830  144.8500 C   0  0  0  0  0  2  0  0  0  0  0  0
  191.7760  176.4520  146.2510 C   0  0  0  0  0  3  0  0  0  0  0  0
  189.4050  177.8080  145.6320 C   0  0  0  0  0  2  0  0  0  0  0  0
  186.8070  177.8140  139.1690 N   0  0  0  0  0  2  0  0  0  0  0  0
  185.5780  178.9900  140.8110 C   0  0  0  0  0  2  0  0  0  0  0  0
  185.6190  178.4970  139.5800 C   0  0  0  0  0  0  0  0  0  0  0  0
  184.5860  178.8490  138.5820 C   0  0  0  0  0  3  0  0  0  0  0  0
  183.2940  178.4940  138.5710 C   0  0  0  0  0  3  0  0  0  0  0  0
  182.7520  176.2380  139.3380 C   0  0  0  0  0  2  0  0  0  0  0  0
  182.6050  177.5550  139.4770 C   0  0  0  0  0  0  0  0  0  0  0  0
  180.3940  177.0390  140.5070 C   0  0  0  0  0  1  0  0  0  0  0  0
  181.9200  178.6780  141.6020 C   0  0  0  0  0  1  0  0  0  0  0  0
  181.4590  178.0980  140.2760 C   0  0  0  0  0  3  0  0  0  0  0  0
  189.0220  178.6550  137.8790 S   0  0  0  0  0  0  0  0  0  0  0  0
  187.9530  177.5320  136.9180 C   0  0  1  0  0  3  0  0  0  0  0  0
  187.1420  178.3220  135.8950 C   0  0  0  0  0  1  0  0  0  0  0  0
  188.7300  176.4390  136.3160 N   0  0  0  0  0  0  0  0  0  0  0  0
  190.0480  174.6350  137.0450 C   0  0  0  0  0  2  0  0  0  0  0  0
  192.0800  175.9230  136.8680 N   0  0  0  0  0  1  0  0  0  0  0  0
  190.0320  176.8400  136.2340 O   0  0  0  0  0  0  0  0  0  0  0  0
  188.6880  175.2420  137.1490 C   0  0  0  0  0  2  0  0  0  0  0  0
  190.7960  175.6630  136.2470 C   0  0  2  0  0  3  0  0  0  0  0  0
  1 26  1  6  0  0  0
  1  3  1  0  0  0  0
  3  2  1  6  0  0  0
  3  6  1  0  0  0  0
  4  7  1  0  0  0  0
  6  4  1  0  0  0  0
  6  5  2  0  0  0  0
  7  8  2  0  0  0  0
 10  7  1  1  0  0  0
 10 13  1  0  0  0  0
 10 15  1  0  0  0  0
 11  9  1  0  0  0  0
 12  9  1  0  0  0  0
 13 14  1  0  0  0  0
 14 11  2  0  0  0  0
 15 12  1  0  0  0  0
 16  1  1  0  0  0  0
 16 18  1  0  0  0  0
 18 17  2  0  0  0  0
 19 18  1  0  0  0  0
 20 19  2  0  0  0  0
 20 22  1  0  0  0  0
 21 22  2  0  0  0  0
 22 25  1  0  0  0  0
 25 23  1  0  0  0  0
 25 24  1  0  0  0  0
 27 28  1  6  0  0  0
 27 26  1  0  0  0  0
 29 27  1  0  0  0  0
 29 33  1  0  0  0  0
 30 33  1  0  0  0  0
 32 34  1  0  0  0  0
 32 29  1  0  0  0  0
 34 31  1  1  0  0  0
 34 30  1  0  0  0  0
M  END
>  <MODEL>
3

>  <REMARK>
 VINA RESULT:      -6.5      3.020      5.857
  Name = 
  11 active torsions:
  status: ('A' for Active; 'I' for Inactive)
    1  A    between atoms: N_1  and  C_11
    2  A    between atoms: C_3  and  C_32
    3  A    between atoms: C_4  and  C_23
    4  A    between atoms: C_11  and  S_28
    5  A    between atoms: N_16  and  C_31
    6  A    between atoms: N_16  and  C_32
    7  A    between atoms: C_19  and  C_20
    8  A    between atoms: C_20  and  C_31
    9  A    between atoms: S_28  and  C_31
   10  A    between atoms: C_30  and  C_34
   11  A    between atoms: C_33  and  C_34
                            x       y       z     vdW  Elec       q    Type
                         _______ _______ _______ _____ _____    ______ ____

>  <TORSDO>
F 11

$$$$
=
 OpenBabel11042412193D

 34 35  0  0  1  0  0  0  0  0999 V2000
  187.7130  178.0240  139.7430 C   0  0  2  0  0  3  0  0  0  0  0  0
  186.3640  178.0240  137.6170 C   0  0  0  0  0  1  0  0  0  0  0  0
  186.5550  178.6750  138.9790 C   0  0  1  0  0  3  0  0  0  0  0  0
  184.2690  177.7160  139.4500 N   0  0  0  0  0  2  0  0  0  0  0  0
  185.0790  179.5510  140.6570 O   0  0  0  0  0  0  0  0  0  0  0  0
  185.2700  178.6930  139.7510 C   0  0  0  0  0  0  0  0  0  0  0  0
  182.8900  177.7960  139.8300 C   0  0  0  0  0  0  0  0  0  0  0  0
  182.2630  176.7260  140.0530 O   0  0  0  0  0  0  0  0  0  0  0  0
  179.6450  180.9750  140.4810 C   0  0  0  0  0  2  0  0  0  0  0  0
  182.1760  179.0910  139.9040 C   0  0  1  0  0  3  0  0  0  0  0  0
  179.6290  180.6900  138.9790 C   0  0  0  0  0  3  0  0  0  0  0  0
  180.1950  179.8360  141.3000 C   0  0  0  0  0  2  0  0  0  0  0  0
  182.1100  180.0490  138.7380 C   0  0  0  0  0  2  0  0  0  0  0  0
  180.6900  180.2920  138.2300 C   0  0  0  0  0  3  0  0  0  0  0  0
  181.2660  179.3230  140.7930 C   0  0  0  0  0  2  0  0  0  0  0  0
  187.8340  178.5720  141.0890 N   0  0  0  0  0  2  0  0  0  0  0  0
  189.5800  178.3830  142.6730 C   0  0  0  0  0  2  0  0  0  0  0  0
  188.4730  177.8640  142.1550 C   0  0  0  0  0  0  0  0  0  0  0  0
  187.7810  176.7330  142.8110 C   0  0  0  0  0  3  0  0  0  0  0  0
  187.1920  176.7130  144.0150 C   0  0  0  0  0  3  0  0  0  0  0  0
  188.0840  177.7510  146.0390 C   0  0  0  0  0  2  0  0  0  0  0  0
  187.1980  177.7700  145.0440 C   0  0  0  0  0  0  0  0  0  0  0  0
  185.0080  178.3580  144.0070 C   0  0  0  0  0  1  0  0  0  0  0  0
  185.2590  178.4060  146.4870 C   0  0  0  0  0  1  0  0  0  0  0  0
  185.9650  178.6150  145.1580 C   0  0  0  0  0  3  0  0  0  0  0  0
  189.2850  178.2200  138.8430 S   0  0  0  0  0  0  0  0  0  0  0  0
  189.5750  176.4220  138.7380 C   0  0  1  0  0  3  0  0  0  0  0  0
  189.2200  175.9100  137.3450 C   0  0  0  0  0  1  0  0  0  0  0  0
  190.9440  176.0770  139.1470 N   0  0  0  0  0  0  0  0  0  0  0  0
  192.9850  177.1870  139.5030 C   0  0  0  0  0  2  0  0  0  0  0  0
  193.7400  176.7200  137.2600 N   0  0  0  0  0  1  0  0  0  0  0  0
  191.6920  175.9040  138.0190 O   0  0  0  0  0  0  0  0  0  0  0  0
  191.5510  177.1570  139.9180 C   0  0  0  0  0  2  0  0  0  0  0  0
  193.0160  176.1770  138.3930 C   0  0  2  0  0  3  0  0  0  0  0  0
  1 26  1  6  0  0  0
  1 16  1  0  0  0  0
  3  2  1  6  0  0  0
  3  1  1  0  0  0  0
  3  6  1  0  0  0  0
  4  6  1  0  0  0  0
  4  7  1  0  0  0  0
  6  5  2  0  0  0  0
  7  8  2  0  0  0  0
  9 12  1  0  0  0  0
 10  7  1  6  0  0  0
 10 15  1  0  0  0  0
 11  9  1  0  0  0  0
 13 10  1  0  0  0  0
 14 13  1  0  0  0  0
 14 11  2  0  0  0  0
 15 12  1  0  0  0  0
 16 18  1  0  0  0  0
 18 17  2  0  0  0  0
 18 19  1  0  0  0  0
 19 20  2  0  0  0  0
 20 22  1  0  0  0  0
 22 25  1  0  0  0  0
 22 21  2  0  0  0  0
 23 25  1  0  0  0  0
 25 24  1  0  0  0  0
 27 28  1  6  0  0  0
 27 26  1  0  0  0  0
 27 29  1  0  0  0  0
 29 33  1  0  0  0  0
 30 33  1  0  0  0  0
 32 34  1  0  0  0  0
 32 29  1  0  0  0  0
 34 31  1  6  0  0  0
 34 30  1  0  0  0  0
M  END
>  <MODEL>
4

>  <REMARK>
 VINA RESULT:      -6.3      2.650      7.790
  Name = 
  11 active torsions:
  status: ('A' for Active; 'I' for Inactive)
    1  A    between atoms: N_1  and  C_11
    2  A    between atoms: C_3  and  C_32
    3  A    between atoms: C_4  and  C_23
    4  A    between atoms: C_11  and  S_28
    5  A    between atoms: N_16  and  C_31
    6  A    between atoms: N_16  and  C_32
    7  A    between atoms: C_19  and  C_20
    8  A    between atoms: C_20  and  C_31
    9  A    between atoms: S_28  and  C_31
   10  A    between atoms: C_30  and  C_34
   11  A    between atoms: C_33  and  C_34
                            x       y       z     vdW  Elec       q    Type
                         _______ _______ _______ _____ _____    ______ ____

>  <TORSDO>
F 11

$$$$
=
 OpenBabel11042412193D

 34 35  0  0  1  0  0  0  0  0999 V2000
  187.8430  177.7980  138.7500 C   0  0  2  0  0  3  0  0  0  0  0  0
  186.2820  177.8370  136.7750 C   0  0  0  0  0  1  0  0  0  0  0  0
  186.6170  178.4650  138.1190 C   0  0  1  0  0  3  0  0  0  0  0  0
  184.4290  177.4530  138.8670 N   0  0  0  0  0  2  0  0  0  0  0  0
  185.2900  179.3670  139.9040 O   0  0  0  0  0  0  0  0  0  0  0  0
  185.4170  178.4760  139.0200 C   0  0  0  0  0  0  0  0  0  0  0  0
  183.0940  177.5050  139.3860 C   0  0  0  0  0  0  0  0  0  0  0  0
  182.5340  176.4270  139.7180 O   0  0  0  0  0  0  0  0  0  0  0  0
  179.8680  180.6240  140.3480 C   0  0  0  0  0  2  0  0  0  0  0  0
  182.3430  178.7780  139.4790 C   0  0  1  0  0  3  0  0  0  0  0  0
  179.5980  180.2040  138.9030 C   0  0  0  0  0  3  0  0  0  0  0  0
  180.6100  179.5830  141.1450 C   0  0  0  0  0  2  0  0  0  0  0  0
  182.0240  179.6230  138.2680 C   0  0  0  0  0  2  0  0  0  0  0  0
  180.5260  179.7730  138.0090 C   0  0  0  0  0  3  0  0  0  0  0  0
  181.5960  179.0610  140.4960 C   0  0  0  0  0  2  0  0  0  0  0  0
  188.3660  178.5890  139.8580 N   0  0  0  0  0  2  0  0  0  0  0  0
  187.7610  177.8870  142.0330 C   0  0  0  0  0  2  0  0  0  0  0  0
  188.7150  178.0120  141.1200 C   0  0  0  0  0  0  0  0  0  0  0  0
  190.0300  177.3560  141.2940 C   0  0  0  0  0  3  0  0  0  0  0  0
  190.7830  177.3000  142.4020 C   0  0  0  0  0  3  0  0  0  0  0  0
  191.0140  179.2200  143.8950 C   0  0  0  0  0  2  0  0  0  0  0  0
  190.5550  177.9860  143.6870 C   0  0  0  0  0  0  0  0  0  0  0  0
  191.3410  176.8410  145.7580 C   0  0  0  0  0  1  0  0  0  0  0  0
  189.0260  177.7600  145.6520 C   0  0  0  0  0  1  0  0  0  0  0  0
  190.1560  177.1330  144.8530 C   0  0  0  0  0  3  0  0  0  0  0  0
  189.1470  177.5170  137.5080 S   0  0  0  0  0  0  0  0  0  0  0  0
  189.3490  175.7600  137.9580 C   0  0  1  0  0  3  0  0  0  0  0  0
  188.8550  174.8650  136.8250 C   0  0  0  0  0  1  0  0  0  0  0  0
  190.7310  175.4680  138.3610 N   0  0  0  0  0  0  0  0  0  0  0  0
  192.9020  175.8840  137.5630 C   0  0  0  0  0  2  0  0  0  0  0  0
  192.9900  173.7640  136.4150 N   0  0  0  0  0  1  0  0  0  0  0  0
  191.1350  174.3410  137.7050 O   0  0  0  0  0  0  0  0  0  0  0  0
  191.6330  176.5500  137.9780 C   0  0  0  0  0  2  0  0  0  0  0  0
  192.5330  174.4300  137.6190 C   0  0  2  0  0  3  0  0  0  0  0  0
  1 26  1  6  0  0  0
  1 16  1  0  0  0  0
  3  2  1  6  0  0  0
  3  1  1  0  0  0  0
  3  6  1  0  0  0  0
  4  6  1  0  0  0  0
  4  7  1  0  0  0  0
  6  5  2  0  0  0  0
  7  8  2  0  0  0  0
  9 12  1  0  0  0  0
 10  7  1  6  0  0  0
 10 15  1  0  0  0  0
 11  9  1  0  0  0  0
 13 10  1  0  0  0  0
 14 13  1  0  0  0  0
 14 11  2  0  0  0  0
 15 12  1  0  0  0  0
 16 18  1  0  0  0  0
 18 19  1  0  0  0  0
 18 17  2  0  0  0  0
 19 20  2  0  0  0  0
 20 22  1  0  0  0  0
 22 21  2  0  0  0  0
 22 25  1  0  0  0  0
 25 24  1  0  0  0  0
 25 23  1  0  0  0  0
 26 27  1  0  0  0  0
 27 28  1  6  0  0  0
 27 29  1  0  0  0  0
 30 34  1  0  0  0  0
 30 33  1  0  0  0  0
 32 29  1  0  0  0  0
 33 29  1  0  0  0  0
 34 31  1  6  0  0  0
 34 32  1  0  0  0  0
M  END
>  <MODEL>
5

>  <REMARK>
 VINA RESULT:      -6.2      3.016      7.886
  Name = 
  11 active torsions:
  status: ('A' for Active; 'I' for Inactive)
    1  A    between atoms: N_1  and  C_11
    2  A    between atoms: C_3  and  C_32
    3  A    between atoms: C_4  and  C_23
    4  A    between atoms: C_11  and  S_28
    5  A    between atoms: N_16  and  C_31
    6  A    between atoms: N_16  and  C_32
    7  A    between atoms: C_19  and  C_20
    8  A    between atoms: C_20  and  C_31
    9  A    between atoms: S_28  and  C_31
   10  A    between atoms: C_30  and  C_34
   11  A    between atoms: C_33  and  C_34
                            x       y       z     vdW  Elec       q    Type
                         _______ _______ _______ _____ _____    ______ ____

>  <TORSDO>
F 11

$$$$
=
 OpenBabel11042412193D

 34 35  0  0  1  0  0  0  0  0999 V2000
  185.5670  178.3500  141.1700 C   0  0  2  0  0  3  0  0  0  0  0  0
  184.5140  179.5200  143.1350 C   0  0  0  0  0  1  0  0  0  0  0  0
  184.4810  178.2840  142.2490 C   0  0  1  0  0  3  0  0  0  0  0  0
  182.9340  177.1040  140.6420 N   0  0  0  0  0  2  0  0  0  0  0  0
  182.1170  178.6890  142.1590 O   0  0  0  0  0  0  0  0  0  0  0  0
  183.1060  178.0570  141.6950 C   0  0  0  0  0  0  0  0  0  0  0  0
  181.7900  177.0150  139.7820 C   0  0  0  0  0  0  0  0  0  0  0  0
  181.4610  175.8850  139.3330 O   0  0  0  0  0  0  0  0  0  0  0  0
  180.6000  181.3690  138.9560 C   0  0  0  0  0  2  0  0  0  0  0  0
  181.0350  178.2170  139.3630 C   0  0  1  0  0  3  0  0  0  0  0  0
  179.9180  181.0130  140.2770 C   0  0  0  0  0  3  0  0  0  0  0  0
  181.8150  180.5270  138.6640 C   0  0  0  0  0  2  0  0  0  0  0  0
  179.6260  178.4950  139.8290 C   0  0  0  0  0  2  0  0  0  0  0  0
  179.4990  179.7760  140.6520 C   0  0  0  0  0  3  0  0  0  0  0  0
  181.6260  179.2720  138.9020 C   0  0  0  0  0  2  0  0  0  0  0  0
  186.8090  178.9010  141.7010 N   0  0  0  0  0  2  0  0  0  0  0  0
  189.1470  178.5640  141.7830 C   0  0  0  0  0  2  0  0  0  0  0  0
  187.9350  178.0840  142.0320 C   0  0  0  0  0  0  0  0  0  0  0  0
  187.7490  176.8650  142.8490 C   0  0  0  0  0  3  0  0  0  0  0  0
  187.8840  176.7330  144.1760 C   0  0  0  0  0  3  0  0  0  0  0  0
  189.6860  177.9160  145.3270 C   0  0  0  0  0  2  0  0  0  0  0  0
  188.3790  177.7340  145.1400 C   0  0  0  0  0  0  0  0  0  0  0  0
  186.0000  177.7190  145.8870 C   0  0  0  0  0  1  0  0  0  0  0  0
  187.8290  177.8860  147.5740 C   0  0  0  0  0  1  0  0  0  0  0  0
  187.4020  178.2380  146.1590 C   0  0  0  0  0  3  0  0  0  0  0  0
  185.0080  179.3250  139.7370 S   0  0  0  0  0  0  0  0  0  0  0  0
  185.7260  178.1640  138.5280 C   0  0  1  0  0  3  0  0  0  0  0  0
  184.6410  177.6350  137.5940 C   0  0  0  0  0  1  0  0  0  0  0  0
  186.8570  178.7700  137.8110 N   0  0  0  0  0  0  0  0  0  0  0  0
  188.5860  178.0720  136.3800 C   0  0  0  0  0  2  0  0  0  0  0  0
  190.1320  177.8180  138.2150 N   0  0  0  0  0  1  0  0  0  0  0  0
  187.9750  178.6240  138.5810 O   0  0  0  0  0  0  0  0  0  0  0  0
  187.1020  178.0910  136.5420 C   0  0  0  0  0  2  0  0  0  0  0  0
  189.0570  178.6370  137.6880 C   0  0  2  0  0  3  0  0  0  0  0  0
  1 26  1  6  0  0  0
  1 16  1  0  0  0  0
  1  3  1  0  0  0  0
  3  2  1  6  0  0  0
  4  6  1  0  0  0  0
  6  5  2  0  0  0  0
  6  3  1  0  0  0  0
  7  4  1  0  0  0  0
  8  7  2  0  0  0  0
  9 11  1  0  0  0  0
 10  7  1  1  0  0  0
 10 13  1  0  0  0  0
 11 14  2  0  0  0  0
 12 15  1  0  0  0  0
 12  9  1  0  0  0  0
 13 14  1  0  0  0  0
 15 10  1  0  0  0  0
 16 18  1  0  0  0  0
 17 18  2  0  0  0  0
 18 19  1  0  0  0  0
 19 20  2  0  0  0  0
 20 22  1  0  0  0  0
 22 21  2  0  0  0  0
 22 25  1  0  0  0  0
 23 25  1  0  0  0  0
 25 24  1  0  0  0  0
 27 28  1  6  0  0  0
 27 26  1  0  0  0  0
 29 27  1  0  0  0  0
 29 32  1  0  0  0  0
 30 33  1  0  0  0  0
 30 34  1  0  0  0  0
 33 29  1  0  0  0  0
 34 31  1  1  0  0  0
 34 32  1  0  0  0  0
M  END
>  <MODEL>
6

>  <REMARK>
 VINA RESULT:      -6.0      2.207      7.003
  Name = 
  11 active torsions:
  status: ('A' for Active; 'I' for Inactive)
    1  A    between atoms: N_1  and  C_11
    2  A    between atoms: C_3  and  C_32
    3  A    between atoms: C_4  and  C_23
    4  A    between atoms: C_11  and  S_28
    5  A    between atoms: N_16  and  C_31
    6  A    between atoms: N_16  and  C_32
    7  A    between atoms: C_19  and  C_20
    8  A    between atoms: C_20  and  C_31
    9  A    between atoms: S_28  and  C_31
   10  A    between atoms: C_30  and  C_34
   11  A    between atoms: C_33  and  C_34
                            x       y       z     vdW  Elec       q    Type
                         _______ _______ _______ _____ _____    ______ ____

>  <TORSDO>
F 11

$$$$
=
 OpenBabel11042412193D

 34 35  0  0  1  0  0  0  0  0999 V2000
  189.9940  176.8310  137.0490 C   0  0  2  0  0  3  0  0  0  0  0  0
  188.7210  179.0030  137.0930 C   0  0  0  0  0  1  0  0  0  0  0  0
  189.5690  178.0320  137.9000 C   0  0  1  0  0  3  0  0  0  0  0  0
  188.1160  178.6310  139.8750 N   0  0  0  0  0  2  0  0  0  0  0  0
  188.9550  176.4620  139.6080 O   0  0  0  0  0  0  0  0  0  0  0  0
  188.8760  177.6430  139.1720 C   0  0  0  0  0  0  0  0  0  0  0  0
  187.6920  178.5350  141.2400 C   0  0  0  0  0  0  0  0  0  0  0  0
  186.6130  179.0920  141.5770 O   0  0  0  0  0  0  0  0  0  0  0  0
  189.3410  177.0760  145.2670 C   0  0  0  0  0  2  0  0  0  0  0  0
  188.5160  177.8570  142.2670 C   0  0  1  0  0  3  0  0  0  0  0  0
  190.2320  178.2550  144.8740 C   0  0  0  0  0  3  0  0  0  0  0  0
  187.9750  177.1210  144.6320 C   0  0  0  0  0  2  0  0  0  0  0  0
  190.0190  177.9950  142.3220 C   0  0  0  0  0  2  0  0  0  0  0  0
  190.5230  178.6500  143.6070 C   0  0  0  0  0  3  0  0  0  0  0  0
  188.0120  177.4320  143.3800 C   0  0  0  0  0  2  0  0  0  0  0  0
  191.4450  176.7550  136.9260 N   0  0  0  0  0  2  0  0  0  0  0  0
  192.6200  176.5590  138.9690 C   0  0  0  0  0  2  0  0  0  0  0  0
  192.2550  175.9920  137.8260 C   0  0  0  0  0  0  0  0  0  0  0  0
  192.4590  174.5460  137.5920 C   0  0  0  0  0  3  0  0  0  0  0  0
  193.6100  173.9040  137.3470 C   0  0  0  0  0  3  0  0  0  0  0  0
  195.1910  175.2270  136.0350 C   0  0  0  0  0  2  0  0  0  0  0  0
  194.9440  174.4920  137.1190 C   0  0  0  0  0  0  0  0  0  0  0  0
  196.1250  174.5020  139.3150 C   0  0  0  0  0  1  0  0  0  0  0  0
  196.0290  172.4060  137.9680 C   0  0  0  0  0  1  0  0  0  0  0  0
  196.0830  173.9240  137.9100 C   0  0  0  0  0  3  0  0  0  0  0  0
  189.2270  176.8950  135.3970 S   0  0  0  0  0  0  0  0  0  0  0  0
  188.3070  175.3390  135.6440 C   0  0  1  0  0  3  0  0  0  0  0  0
  188.8730  174.5750  136.8370 C   0  0  0  0  0  1  0  0  0  0  0  0
  186.8620  175.5850  135.7520 N   0  0  0  0  0  0  0  0  0  0  0  0
  185.3900  177.4110  135.5900 C   0  0  0  0  0  2  0  0  0  0  0  0
  185.4380  177.7840  137.9730 N   0  0  0  0  0  1  0  0  0  0  0  0
  186.5950  175.9940  137.0260 O   0  0  0  0  0  0  0  0  0  0  0  0
  186.4400  176.6510  134.8480 C   0  0  0  0  0  2  0  0  0  0  0  0
  185.4240  176.7630  136.9440 C   0  0  2  0  0  3  0  0  0  0  0  0
  1 26  1  6  0  0  0
  1  3  1  0  0  0  0
  3  2  1  6  0  0  0
  3  6  1  0  0  0  0
  4  7  1  0  0  0  0
  6  5  2  0  0  0  0
  6  4  1  0  0  0  0
  7  8  2  0  0  0  0
 10  7  1  1  0  0  0
 10 13  1  0  0  0  0
 10 15  1  0  0  0  0
 11  9  1  0  0  0  0
 12  9  1  0  0  0  0
 13 14  1  0  0  0  0
 14 11  2  0  0  0  0
 15 12  1  0  0  0  0
 16  1  1  0  0  0  0
 16 18  1  0  0  0  0
 18 17  2  0  0  0  0
 19 18  1  0  0  0  0
 20 19  2  0  0  0  0
 21 22  2  0  0  0  0
 22 20  1  0  0  0  0
 22 25  1  0  0  0  0
 25 24  1  0  0  0  0
 25 23  1  0  0  0  0
 26 27  1  0  0  0  0
 27 29  1  0  0  0  0
 27 28  1  1  0  0  0
 29 32  1  0  0  0  0
 30 34  1  0  0  0  0
 33 30  1  0  0  0  0
 33 29  1  0  0  0  0
 34 32  1  0  0  0  0
 34 31  1  1  0  0  0
M  END
>  <MODEL>
7

>  <REMARK>
 VINA RESULT:      -6.0      4.442      7.614
  Name = 
  11 active torsions:
  status: ('A' for Active; 'I' for Inactive)
    1  A    between atoms: N_1  and  C_11
    2  A    between atoms: C_3  and  C_32
    3  A    between atoms: C_4  and  C_23
    4  A    between atoms: C_11  and  S_28
    5  A    between atoms: N_16  and  C_31
    6  A    between atoms: N_16  and  C_32
    7  A    between atoms: C_19  and  C_20
    8  A    between atoms: C_20  and  C_31
    9  A    between atoms: S_28  and  C_31
   10  A    between atoms: C_30  and  C_34
   11  A    between atoms: C_33  and  C_34
                            x       y       z     vdW  Elec       q    Type
                         _______ _______ _______ _____ _____    ______ ____

>  <TORSDO>
F 11

$$$$
=
 OpenBabel11042412193D

 34 35  0  0  1  0  0  0  0  0999 V2000
  186.9940  177.9680  143.9030 C   0  0  2  0  0  3  0  0  0  0  0  0
  185.4190  178.9780  145.5870 C   0  0  0  0  0  1  0  0  0  0  0  0
  185.5280  178.1760  144.3000 C   0  0  1  0  0  3  0  0  0  0  0  0
  183.2770  178.6510  143.2640 N   0  0  0  0  0  2  0  0  0  0  0  0
  185.2490  179.4300  142.2720 O   0  0  0  0  0  0  0  0  0  0  0  0
  184.7000  178.7910  143.2110 C   0  0  0  0  0  0  0  0  0  0  0  0
  182.3810  178.8650  142.1650 C   0  0  0  0  0  0  0  0  0  0  0  0
  181.2200  179.2880  142.4080 O   0  0  0  0  0  0  0  0  0  0  0  0
  182.4040  178.5750  137.5850 C   0  0  0  0  0  2  0  0  0  0  0  0
  182.7650  178.5410  140.7720 C   0  0  1  0  0  3  0  0  0  0  0  0
  181.8120  177.2490  138.0660 C   0  0  0  0  0  3  0  0  0  0  0  0
  182.2410  179.6970  138.5780 C   0  0  0  0  0  2  0  0  0  0  0  0
  183.0550  177.1300  140.3170 C   0  0  0  0  0  2  0  0  0  0  0  0
  182.0930  176.6290  139.2410 C   0  0  0  0  0  3  0  0  0  0  0  0
  182.5150  179.3420  139.7880 C   0  0  0  0  0  2  0  0  0  0  0  0
  187.1110  177.5460  142.5110 N   0  0  0  0  0  2  0  0  0  0  0  0
  189.0680  176.3950  141.8500 C   0  0  0  0  0  2  0  0  0  0  0  0
  188.3620  177.5180  141.8180 C   0  0  0  0  0  0  0  0  0  0  0  0
  188.7220  178.6200  140.8980 C   0  0  0  0  0  3  0  0  0  0  0  0
  188.6660  178.6280  139.5590 C   0  0  0  0  0  3  0  0  0  0  0  0
  189.3000  176.6270  138.3090 C   0  0  0  0  0  2  0  0  0  0  0  0
  188.3570  177.5010  138.6590 C   0  0  0  0  0  0  0  0  0  0  0  0
  185.9800  178.2530  138.6550 C   0  0  0  0  0  1  0  0  0  0  0  0
  187.3100  178.3360  136.5480 C   0  0  0  0  0  1  0  0  0  0  0  0
  187.0940  177.5960  137.8580 C   0  0  0  0  0  3  0  0  0  0  0  0
  187.8030  176.7570  144.9970 S   0  0  0  0  0  0  0  0  0  0  0  0
  188.6940  178.0400  145.9400 C   0  0  1  0  0  3  0  0  0  0  0  0
  188.3150  177.9680  147.4160 C   0  0  0  0  0  1  0  0  0  0  0  0
  190.1430  177.9600  145.7120 N   0  0  0  0  0  0  0  0  0  0  0  0
  191.6140  177.8470  143.8830 C   0  0  0  0  0  2  0  0  0  0  0  0
  191.6870  175.4370  143.9680 N   0  0  0  0  0  1  0  0  0  0  0  0
  190.4760  176.6470  145.5510 O   0  0  0  0  0  0  0  0  0  0  0  0
  190.5250  178.6660  144.4930 C   0  0  0  0  0  2  0  0  0  0  0  0
  191.6450  176.6410  144.7750 C   0  0  2  0  0  3  0  0  0  0  0  0
  1 16  1  6  0  0  0
  1  3  1  0  0  0  0
  1 26  1  0  0  0  0
  3  2  1  1  0  0  0
  5  6  2  0  0  0  0
  6  4  1  0  0  0  0
  6  3  1  0  0  0  0
  7  8  2  0  0  0  0
  7  4  1  0  0  0  0
  9 11  1  0  0  0  0
  9 12  1  0  0  0  0
 10  7  1  1  0  0  0
 11 14  2  0  0  0  0
 12 15  1  0  0  0  0
 13 10  1  0  0  0  0
 14 13  1  0  0  0  0
 15 10  1  0  0  0  0
 18 17  2  0  0  0  0
 18 16  1  0  0  0  0
 19 18  1  0  0  0  0
 20 19  2  0  0  0  0
 21 22  2  0  0  0  0
 22 20  1  0  0  0  0
 24 25  1  0  0  0  0
 25 23  1  0  0  0  0
 25 22  1  0  0  0  0
 26 27  1  0  0  0  0
 27 28  1  1  0  0  0
 29 27  1  0  0  0  0
 30 33  1  0  0  0  0
 30 34  1  0  0  0  0
 32 29  1  0  0  0  0
 33 29  1  0  0  0  0
 34 31  1  6  0  0  0
 34 32  1  0  0  0  0
M  END
>  <MODEL>
8

>  <REMARK>
 VINA RESULT:      -5.9      2.705      8.462
  Name = 
  11 active torsions:
  status: ('A' for Active; 'I' for Inactive)
    1  A    between atoms: N_1  and  C_11
    2  A    between atoms: C_3  and  C_32
    3  A    between atoms: C_4  and  C_23
    4  A    between atoms: C_11  and  S_28
    5  A    between atoms: N_16  and  C_31
    6  A    between atoms: N_16  and  C_32
    7  A    between atoms: C_19  and  C_20
    8  A    between atoms: C_20  and  C_31
    9  A    between atoms: S_28  and  C_31
   10  A    between atoms: C_30  and  C_34
   11  A    between atoms: C_33  and  C_34
                            x       y       z     vdW  Elec       q    Type
                         _______ _______ _______ _____ _____    ______ ____

>  <TORSDO>
F 11

$$$$
=
 OpenBabel11042412193D

 34 35  0  0  1  0  0  0  0  0999 V2000
  186.5670  178.2720  139.9320 C   0  0  2  0  0  3  0  0  0  0  0  0
  185.5970  178.2550  142.2540 C   0  0  0  0  0  1  0  0  0  0  0  0
  186.7620  178.7060  141.3880 C   0  0  1  0  0  3  0  0  0  0  0  0
  188.2860  176.8630  142.1950 N   0  0  0  0  0  2  0  0  0  0  0  0
  188.9680  179.1020  142.2500 O   0  0  0  0  0  0  0  0  0  0  0  0
  188.0700  178.2600  141.9720 C   0  0  0  0  0  0  0  0  0  0  0  0
  189.3010  176.3050  143.0390 C   0  0  0  0  0  0  0  0  0  0  0  0
  189.7840  175.1810  142.7380 O   0  0  0  0  0  0  0  0  0  0  0  0
  191.2040  177.1410  147.1300 C   0  0  0  0  0  2  0  0  0  0  0  0
  189.7420  176.9820  144.2790 C   0  0  1  0  0  3  0  0  0  0  0  0
  189.7270  176.8760  147.4240 C   0  0  0  0  0  3  0  0  0  0  0  0
  191.6800  176.5130  145.8450 C   0  0  0  0  0  2  0  0  0  0  0  0
  188.7870  177.7260  145.1830 C   0  0  0  0  0  2  0  0  0  0  0  0
  188.6880  177.1280  146.5850 C   0  0  0  0  0  3  0  0  0  0  0  0
  190.8530  176.6780  144.8680 C   0  0  0  0  0  2  0  0  0  0  0  0
  187.7220  178.6260  139.1140 N   0  0  0  0  0  2  0  0  0  0  0  0
  188.4400  178.6280  136.8610 C   0  0  0  0  0  2  0  0  0  0  0  0
  188.0660  177.9190  137.9190 C   0  0  0  0  0  0  0  0  0  0  0  0
  188.2360  176.4500  137.9520 C   0  0  0  0  0  3  0  0  0  0  0  0
  189.3290  175.7540  138.2960 C   0  0  0  0  0  3  0  0  0  0  0  0
  190.9110  176.9380  139.7330 C   0  0  0  0  0  2  0  0  0  0  0  0
  190.6750  176.2740  138.6020 C   0  0  0  0  0  0  0  0  0  0  0  0
  193.0780  176.3800  137.9470 C   0  0  0  0  0  1  0  0  0  0  0  0
  191.4290  175.2760  136.4380 C   0  0  0  0  0  1  0  0  0  0  0  0
  191.6390  176.3810  137.4590 C   0  0  0  0  0  3  0  0  0  0  0  0
  185.0530  179.0000  139.2280 S   0  0  0  0  0  0  0  0  0  0  0  0
  184.2850  177.3740  138.9180 C   0  0  1  0  0  3  0  0  0  0  0  0
  183.1080  177.1570  139.8650 C   0  0  0  0  0  1  0  0  0  0  0  0
  183.9220  177.2160  137.5030 N   0  0  0  0  0  0  0  0  0  0  0  0
  184.0690  175.5570  135.8440 C   0  0  0  0  0  2  0  0  0  0  0  0
  186.1570  176.4360  135.0150 N   0  0  0  0  0  1  0  0  0  0  0  0
  185.0220  177.5050  136.7490 O   0  0  0  0  0  0  0  0  0  0  0  0
  183.5340  175.8400  137.2090 C   0  0  0  0  0  2  0  0  0  0  0  0
  184.8590  176.7990  135.5470 C   0  0  2  0  0  3  0  0  0  0  0  0
  1 16  1  6  0  0  0
  1  3  1  0  0  0  0
  3  6  1  0  0  0  0
  3  2  1  1  0  0  0
  4  7  1  0  0  0  0
  6  4  1  0  0  0  0
  6  5  2  0  0  0  0
  8  7  2  0  0  0  0
  9 11  1  0  0  0  0
 10  7  1  1  0  0  0
 10 15  1  0  0  0  0
 10 13  1  0  0  0  0
 12  9  1  0  0  0  0
 13 14  1  0  0  0  0
 14 11  2  0  0  0  0
 15 12  1  0  0  0  0
 17 18  2  0  0  0  0
 18 19  1  0  0  0  0
 18 16  1  0  0  0  0
 19 20  2  0  0  0  0
 20 22  1  0  0  0  0
 22 21  2  0  0  0  0
 24 25  1  0  0  0  0
 25 23  1  0  0  0  0
 25 22  1  0  0  0  0
 26  1  1  0  0  0  0
 27 26  1  0  0  0  0
 27 28  1  1  0  0  0
 29 27  1  0  0  0  0
 30 33  1  0  0  0  0
 32 29  1  0  0  0  0
 33 29  1  0  0  0  0
 34 31  1  1  0  0  0
 34 30  1  0  0  0  0
 34 32  1  0  0  0  0
M  END
>  <MODEL>
9

>  <REMARK>
 VINA RESULT:      -5.9      2.690      5.321
  Name = 
  11 active torsions:
  status: ('A' for Active; 'I' for Inactive)
    1  A    between atoms: N_1  and  C_11
    2  A    between atoms: C_3  and  C_32
    3  A    between atoms: C_4  and  C_23
    4  A    between atoms: C_11  and  S_28
    5  A    between atoms: N_16  and  C_31
    6  A    between atoms: N_16  and  C_32
    7  A    between atoms: C_19  and  C_20
    8  A    between atoms: C_20  and  C_31
    9  A    between atoms: S_28  and  C_31
   10  A    between atoms: C_30  and  C_34
   11  A    between atoms: C_33  and  C_34
                            x       y       z     vdW  Elec       q    Type
                         _______ _______ _______ _____ _____    ______ ____

>  <TORSDO>
F 11

$$$$
