=
 OpenBabel11042412113D

 37 43  0  0  1  0  0  0  0  0999 V2000
  189.4540  176.2510  141.8140 C   0  0  0  0  0  2  0  0  0  0  0  0
  191.6550  175.8030  147.3710 C   0  0  0  0  0  2  0  0  0  0  0  0
  187.7890  177.8320  145.9890 C   0  0  0  0  0  0  0  0  0  0  0  0
  190.5620  176.8310  140.9140 C   0  0  1  0  0  3  0  0  0  0  0  0
  185.9950  177.6640  142.6400 O   0  0  0  0  0  0  0  0  0  0  0  0
  189.8470  177.5530  147.3450 C   0  0  0  0  0  0  0  0  0  0  0  0
  187.3950  177.7530  144.5840 C   0  0  0  0  0  0  0  0  0  0  0  0
  189.1030  177.4330  146.0780 C   0  0  0  0  0  0  0  0  0  0  0  0
  186.1420  177.9710  143.9970 C   0  0  0  0  0  0  0  0  0  0  0  0
  189.2430  178.0580  148.3790 N   0  0  0  0  0  0  0  0  0  0  0  0
  190.3200  178.2890  140.4820 C   0  0  0  0  0  2  0  0  0  0  0  0
  189.5730  177.1320  144.8080 C   0  0  0  0  0  0  0  0  0  0  0  0
  191.3540  175.4320  144.9220 C   0  0  0  0  0  2  0  0  0  0  0  0
  185.7930  178.7530  147.0700 C   0  0  0  0  0  3  0  0  0  0  0  0
  187.8200  178.4320  148.4220 C   0  0  0  0  0  2  0  0  0  0  0  0
  190.9860  176.8240  144.4470 C   0  0  0  0  0  2  0  0  0  0  0  0
  188.8370  178.6070  140.3290 C   0  0  2  0  0  3  0  0  0  0  0  0
  186.6090  178.4190  141.6020 C   0  0  0  0  0  2  0  0  0  0  0  0
  187.1120  178.3380  147.0890 C   0  0  0  0  0  0  0  0  0  0  0  0
  188.5330  177.3190  143.9030 C   0  0  0  0  0  0  0  0  0  0  0  0
  191.2250  177.1900  147.4550 N   0  0  0  0  0  2  0  0  0  0  0  0
  184.9940  178.4190  144.6770 C   0  0  0  0  0  0  0  0  0  0  0  0
  192.3590  175.5320  146.0540 C   0  0  0  0  0  2  0  0  0  0  0  0
  188.1380  178.4290  141.6940 C   0  0  1  0  0  3  0  0  0  0  0  0
  188.6750  177.3040  142.4720 N   0  0  0  0  0  0  0  0  0  0  0  0
  184.8820  178.7730  146.0240 C   0  0  0  0  0  3  0  0  0  0  0  0
  182.5220  178.6800  144.5670 C   0  0  0  0  0  3  0  0  0  0  0  0
  183.7550  178.5890  143.9040 C   0  0  0  0  0  0  0  0  0  0  0  0
  183.8020  178.6480  142.5060 C   0  0  0  0  0  3  0  0  0  0  0  0
  182.6700  178.8490  140.3890 O   0  0  0  0  0  1  0  0  0  0  0  0
  181.3930  178.8820  142.4350 C   0  0  0  0  0  3  0  0  0  0  0  0
  182.6210  178.7940  141.7730 C   0  0  0  0  0  0  0  0  0  0  0  0
  181.3430  178.8260  143.8320 C   0  0  0  0  0  3  0  0  0  0  0  0
  188.2240  177.7660  139.2080 C   0  0  0  0  0  2  0  0  0  0  0  0
  187.7100  178.5950  138.2120 O   0  0  0  0  0  1  0  0  0  0  0  0
  192.6730  177.4860  140.7650 C   0  0  0  0  0  1  0  0  0  0  0  0
  191.7990  176.7280  141.5500 O   0  0  0  0  0  0  0  0  0  0  0  0
  1 25  1  0  0  0  0
  2 21  1  0  0  0  0
  3  8  1  0  0  0  0
  3 19  2  0  0  0  0
  4 37  1  1  0  0  0
  4  1  1  0  0  0  0
  5  9  1  0  0  0  0
  6 21  1  0  0  0  0
  6 10  2  0  0  0  0
  7  3  1  0  0  0  0
  8  6  1  0  0  0  0
  9  7  1  0  0  0  0
  9 22  2  0  0  0  0
 10 15  1  0  0  0  0
 11  4  1  0  0  0  0
 12  8  2  0  0  0  0
 13 23  1  0  0  0  0
 14 19  1  0  0  0  0
 16 12  1  0  0  0  0
 16 13  1  0  0  0  0
 17 34  1  6  0  0  0
 17 11  1  0  0  0  0
 17 24  1  0  0  0  0
 18  5  1  0  0  0  0
 19 15  1  0  0  0  0
 20  7  2  0  0  0  0
 20 12  1  0  0  0  0
 22 26  1  0  0  0  0
 23  2  1  0  0  0  0
 24 18  1  6  0  0  0
 24 25  1  0  0  0  0
 25 20  1  0  0  0  0
 26 14  2  0  0  0  0
 28 27  1  0  0  0  0
 28 22  1  0  0  0  0
 29 28  2  0  0  0  0
 30 32  1  0  0  0  0
 31 33  1  0  0  0  0
 32 31  2  0  0  0  0
 32 29  1  0  0  0  0
 33 27  2  0  0  0  0
 35 34  1  0  0  0  0
 36 37  1  0  0  0  0
M  END
>  <MODEL>
1

>  <REMARK>
 VINA RESULT:     -11.9      0.000      0.000
  Name = 
  3 active torsions:
  status: ('A' for Active; 'I' for Inactive)
    1  A    between atoms: C_5  and  O_23
    2  A    between atoms: C_6  and  C_31
    3  A    between atoms: C_11  and  C_26
                            x       y       z     vdW  Elec       q    Type
                         _______ _______ _______ _____ _____    ______ ____

>  <TORSDO>
F 3

$$$$
=
 OpenBabel11042412113D

 37 43  0  0  1  0  0  0  0  0999 V2000
  188.5300  176.7600  143.8120 C   0  0  0  0  0  2  0  0  0  0  0  0
  183.4650  178.5760  141.1710 C   0  0  0  0  0  2  0  0  0  0  0  0
  187.5800  177.8930  139.2820 C   0  0  0  0  0  0  0  0  0  0  0  0
  188.7860  177.6790  145.0220 C   0  0  1  0  0  3  0  0  0  0  0  0
  190.6720  176.1850  140.6920 O   0  0  0  0  0  0  0  0  0  0  0  0
  185.4000  179.0240  139.6260 C   0  0  0  0  0  0  0  0  0  0  0  0
  188.6710  177.3650  140.0990 C   0  0  0  0  0  0  0  0  0  0  0  0
  186.5770  178.2960  140.1330 C   0  0  0  0  0  0  0  0  0  0  0  0
  189.8690  176.7570  139.7000 C   0  0  0  0  0  0  0  0  0  0  0  0
  185.3310  179.2940  138.3570 N   0  0  0  0  0  0  0  0  0  0  0  0
  189.9510  178.6660  144.8250 C   0  0  0  0  0  2  0  0  0  0  0  0
  186.9800  178.0790  141.4430 C   0  0  0  0  0  0  0  0  0  0  0  0
  185.0290  177.6740  142.8940 C   0  0  0  0  0  2  0  0  0  0  0  0
  188.4790  177.7560  137.0070 C   0  0  0  0  0  3  0  0  0  0  0  0
  186.2980  178.8350  137.3460 C   0  0  0  0  0  2  0  0  0  0  0  0
  186.2570  178.5310  142.6670 C   0  0  0  0  0  2  0  0  0  0  0  0
  191.0490  178.0930  143.9370 C   0  0  2  0  0  3  0  0  0  0  0  0
  191.3850  176.9540  141.6540 C   0  0  0  0  0  2  0  0  0  0  0  0
  187.5100  178.1350  137.9180 C   0  0  0  0  0  0  0  0  0  0  0  0
  188.2470  177.5060  141.4200 C   0  0  0  0  0  0  0  0  0  0  0  0
  184.3660  179.4950  140.4920 N   0  0  0  0  0  2  0  0  0  0  0  0
  190.3060  176.6220  138.3690 C   0  0  0  0  0  0  0  0  0  0  0  0
  183.7810  178.5030  142.6550 C   0  0  0  0  0  2  0  0  0  0  0  0
  190.4680  177.8090  142.5340 C   0  0  1  0  0  3  0  0  0  0  0  0
  189.0850  177.3170  142.5740 N   0  0  0  0  0  0  0  0  0  0  0  0
  189.6800  177.0900  137.2120 C   0  0  0  0  0  3  0  0  0  0  0  0
  192.7920  176.5840  138.4900 C   0  0  0  0  0  3  0  0  0  0  0  0
  191.5920  175.9510  138.1300 C   0  0  0  0  0  0  0  0  0  0  0  0
  191.6240  174.6860  137.5290 C   0  0  0  0  0  3  0  0  0  0  0  0
  192.8770  172.8070  136.6920 O   0  0  0  0  0  1  0  0  0  0  0  0
  194.0420  174.6910  137.6470 C   0  0  0  0  0  3  0  0  0  0  0  0
  192.8480  174.0580  137.2890 C   0  0  0  0  0  0  0  0  0  0  0  0
  194.0150  175.9540  138.2490 C   0  0  0  0  0  3  0  0  0  0  0  0
  191.6880  176.8710  144.5990 C   0  0  0  0  0  2  0  0  0  0  0  0
  191.9180  177.1230  145.9500 O   0  0  0  0  0  1  0  0  0  0  0  0
  187.0050  177.6130  146.3370 C   0  0  0  0  0  1  0  0  0  0  0  0
  187.6250  178.3790  145.3450 O   0  0  0  0  0  0  0  0  0  0  0  0
  1  4  1  0  0  0  0
  2 23  1  0  0  0  0
  3  7  1  0  0  0  0
  3  8  2  0  0  0  0
  4 37  1  6  0  0  0
  5 18  1  0  0  0  0
  6  8  1  0  0  0  0
  6 21  1  0  0  0  0
  7 20  1  0  0  0  0
  8 12  1  0  0  0  0
  9  7  2  0  0  0  0
  9  5  1  0  0  0  0
 10  6  2  0  0  0  0
 11  4  1  0  0  0  0
 12 16  1  0  0  0  0
 14 26  1  0  0  0  0
 14 19  2  0  0  0  0
 15 19  1  0  0  0  0
 15 10  1  0  0  0  0
 16 13  1  0  0  0  0
 17 34  1  1  0  0  0
 17 11  1  0  0  0  0
 19  3  1  0  0  0  0
 20 12  2  0  0  0  0
 20 25  1  0  0  0  0
 21  2  1  0  0  0  0
 22  9  1  0  0  0  0
 23 13  1  0  0  0  0
 24 18  1  1  0  0  0
 24 25  1  0  0  0  0
 24 17  1  0  0  0  0
 25  1  1  0  0  0  0
 26 22  2  0  0  0  0
 28 22  1  0  0  0  0
 28 27  2  0  0  0  0
 29 28  1  0  0  0  0
 30 32  1  0  0  0  0
 31 33  2  0  0  0  0
 32 29  2  0  0  0  0
 32 31  1  0  0  0  0
 33 27  1  0  0  0  0
 34 35  1  0  0  0  0
 37 36  1  0  0  0  0
M  END
>  <MODEL>
2

>  <REMARK>
 VINA RESULT:     -10.0      2.733      8.448
  Name = 
  3 active torsions:
  status: ('A' for Active; 'I' for Inactive)
    1  A    between atoms: C_5  and  O_23
    2  A    between atoms: C_6  and  C_31
    3  A    between atoms: C_11  and  C_26
                            x       y       z     vdW  Elec       q    Type
                         _______ _______ _______ _____ _____    ______ ____

>  <TORSDO>
F 3

$$$$
=
 OpenBabel11042412113D

 37 43  0  0  1  0  0  0  0  0999 V2000
  188.5100  176.7530  144.3130 C   0  0  0  0  0  2  0  0  0  0  0  0
  183.1290  178.8900  142.7640 C   0  0  0  0  0  2  0  0  0  0  0  0
  186.7830  178.1630  140.1010 C   0  0  0  0  0  0  0  0  0  0  0  0
  189.0290  177.5940  145.4940 C   0  0  1  0  0  3  0  0  0  0  0  0
  190.0030  176.2710  140.8220 O   0  0  0  0  0  0  0  0  0  0  0  0
  184.7600  179.3510  140.9040 C   0  0  0  0  0  0  0  0  0  0  0  0
  187.9820  177.5520  140.6730 C   0  0  0  0  0  0  0  0  0  0  0  0
  185.9770  178.5550  141.1450 C   0  0  0  0  0  0  0  0  0  0  0  0
  189.0560  176.9250  140.0270 C   0  0  0  0  0  0  0  0  0  0  0  0
  184.4670  179.6920  139.6840 N   0  0  0  0  0  0  0  0  0  0  0  0
  190.1800  178.5490  145.1270 C   0  0  0  0  0  2  0  0  0  0  0  0
  186.6060  178.2530  142.3440 C   0  0  0  0  0  0  0  0  0  0  0  0
  184.9440  177.8400  144.1160 C   0  0  0  0  0  2  0  0  0  0  0  0
  187.2340  178.1170  137.6940 C   0  0  0  0  0  3  0  0  0  0  0  0
  185.2060  179.2530  138.4890 C   0  0  0  0  0  2  0  0  0  0  0  0
  186.1470  178.6630  143.7020 C   0  0  0  0  0  2  0  0  0  0  0  0
  191.0660  177.9850  144.0220 C   0  0  2  0  0  3  0  0  0  0  0  0
  190.9180  176.9610  141.6660 C   0  0  0  0  0  2  0  0  0  0  0  0
  186.4710  178.4810  138.7880 C   0  0  0  0  0  0  0  0  0  0  0  0
  187.8190  177.6370  142.0550 C   0  0  0  0  0  0  0  0  0  0  0  0
  183.9280  179.8110  141.9710 N   0  0  0  0  0  2  0  0  0  0  0  0
  189.2300  176.8460  138.6320 C   0  0  0  0  0  0  0  0  0  0  0  0
  183.7120  178.7250  144.1560 C   0  0  0  0  0  2  0  0  0  0  0  0
  190.2210  177.7990  142.7420 C   0  0  1  0  0  3  0  0  0  0  0  0
  188.8480  177.3550  143.0200 N   0  0  0  0  0  0  0  0  0  0  0  0
  188.4210  177.3990  137.6370 C   0  0  0  0  0  3  0  0  0  0  0  0
  190.3080  174.8180  137.6740 C   0  0  0  0  0  3  0  0  0  0  0  0
  190.4170  176.1430  138.1230 C   0  0  0  0  0  0  0  0  0  0  0  0
  191.6590  176.7880  138.0980 C   0  0  0  0  0  3  0  0  0  0  0  0
  194.0170  176.7530  137.6060 O   0  0  0  0  0  1  0  0  0  0  0  0
  192.6780  174.7920  137.1830 C   0  0  0  0  0  3  0  0  0  0  0  0
  192.7880  176.1130  137.6280 C   0  0  0  0  0  0  0  0  0  0  0  0
  191.4380  174.1440  137.2050 C   0  0  0  0  0  3  0  0  0  0  0  0
  191.7610  176.7070  144.4940 C   0  0  0  0  0  2  0  0  0  0  0  0
  192.0550  176.7950  145.8530 O   0  0  0  0  0  1  0  0  0  0  0  0
  187.5920  177.5710  147.1790 C   0  0  0  0  0  1  0  0  0  0  0  0
  187.9820  178.3170  146.0640 O   0  0  0  0  0  0  0  0  0  0  0  0
  1  4  1  0  0  0  0
  2 23  1  0  0  0  0
  3  7  1  0  0  0  0
  3  8  2  0  0  0  0
  4 37  1  6  0  0  0
  5 18  1  0  0  0  0
  6  8  1  0  0  0  0
  6 21  1  0  0  0  0
  7 20  1  0  0  0  0
  8 12  1  0  0  0  0
  9  7  2  0  0  0  0
  9  5  1  0  0  0  0
 10  6  2  0  0  0  0
 11  4  1  0  0  0  0
 12 16  1  0  0  0  0
 13 23  1  0  0  0  0
 14 19  2  0  0  0  0
 15 19  1  0  0  0  0
 15 10  1  0  0  0  0
 16 13  1  0  0  0  0
 17 34  1  1  0  0  0
 17 11  1  0  0  0  0
 19  3  1  0  0  0  0
 20 12  2  0  0  0  0
 20 25  1  0  0  0  0
 21  2  1  0  0  0  0
 22  9  1  0  0  0  0
 24 18  1  6  0  0  0
 24 25  1  0  0  0  0
 24 17  1  0  0  0  0
 25  1  1  0  0  0  0
 26 14  1  0  0  0  0
 26 22  2  0  0  0  0
 27 28  1  0  0  0  0
 28 22  1  0  0  0  0
 29 28  2  0  0  0  0
 30 32  1  0  0  0  0
 31 33  1  0  0  0  0
 31 32  2  0  0  0  0
 32 29  1  0  0  0  0
 33 27  2  0  0  0  0
 34 35  1  0  0  0  0
 37 36  1  0  0  0  0
M  END
>  <MODEL>
3

>  <REMARK>
 VINA RESULT:      -9.5      2.618      7.910
  Name = 
  3 active torsions:
  status: ('A' for Active; 'I' for Inactive)
    1  A    between atoms: C_5  and  O_23
    2  A    between atoms: C_6  and  C_31
    3  A    between atoms: C_11  and  C_26
                            x       y       z     vdW  Elec       q    Type
                         _______ _______ _______ _____ _____    ______ ____

>  <TORSDO>
F 3

$$$$
=
 OpenBabel11042412113D

 37 43  0  0  1  0  0  0  0  0999 V2000
  189.3550  178.6330  143.0050 C   0  0  0  0  0  2  0  0  0  0  0  0
  192.8900  176.8810  138.4920 C   0  0  0  0  0  2  0  0  0  0  0  0
  188.3220  177.2060  138.5770 C   0  0  0  0  0  0  0  0  0  0  0  0
  189.7260  177.7990  144.2450 C   0  0  1  0  0  3  0  0  0  0  0  0
  186.0300  178.8570  141.1230 O   0  0  0  0  0  0  0  0  0  0  0  0
  190.5170  176.2180  137.9790 C   0  0  0  0  0  0  0  0  0  0  0  0
  187.6590  177.7390  139.7650 C   0  0  0  0  0  0  0  0  0  0  0  0
  189.6250  176.9220  138.9180 C   0  0  0  0  0  0  0  0  0  0  0  0
  186.3630  178.2520  139.9060 C   0  0  0  0  0  0  0  0  0  0  0  0
  190.0480  175.8550  136.8230 N   0  0  0  0  0  0  0  0  0  0  0  0
  188.6750  176.7410  144.6270 C   0  0  0  0  0  2  0  0  0  0  0  0
  189.8180  177.2180  140.2600 C   0  0  0  0  0  0  0  0  0  0  0  0
  192.1670  177.8320  140.6830 C   0  0  0  0  0  2  0  0  0  0  0  0
  186.5140  177.1220  136.9270 C   0  0  0  0  0  3  0  0  0  0  0  0
  188.7040  176.1850  136.3210 C   0  0  0  0  0  2  0  0  0  0  0  0
  191.0350  176.8990  141.0600 C   0  0  0  0  0  2  0  0  0  0  0  0
  187.2570  177.1880  144.2870 C   0  0  2  0  0  3  0  0  0  0  0  0
  185.8700  178.1290  142.3350 C   0  0  0  0  0  2  0  0  0  0  0  0
  187.8100  176.8640  137.3340 C   0  0  0  0  0  0  0  0  0  0  0  0
  188.6260  177.7220  140.7700 C   0  0  0  0  0  0  0  0  0  0  0  0
  191.8590  175.8680  138.3230 N   0  0  0  0  0  2  0  0  0  0  0  0
  185.3800  178.2630  138.8990 C   0  0  0  0  0  0  0  0  0  0  0  0
  193.2470  177.0520  139.9580 C   0  0  0  0  0  2  0  0  0  0  0  0
  187.1440  177.3920  142.7600 C   0  0  1  0  0  3  0  0  0  0  0  0
  188.3630  177.9560  142.1650 N   0  0  0  0  0  0  0  0  0  0  0  0
  185.4740  177.7390  137.6070 C   0  0  0  0  0  3  0  0  0  0  0  0
  183.1630  178.1390  140.0230 C   0  0  0  0  0  3  0  0  0  0  0  0
  184.0690  178.8470  139.2190 C   0  0  0  0  0  0  0  0  0  0  0  0
  183.7170  180.1030  138.7110 C   0  0  0  0  0  3  0  0  0  0  0  0
  182.1170  181.8920  138.4970 O   0  0  0  0  0  1  0  0  0  0  0  0
  181.5620  179.9410  139.8040 C   0  0  0  0  0  3  0  0  0  0  0  0
  182.4650  180.6490  139.0030 C   0  0  0  0  0  0  0  0  0  0  0  0
  181.9120  178.6860  140.3150 C   0  0  0  0  0  3  0  0  0  0  0  0
  186.8760  178.4230  145.1050 C   0  0  0  0  0  2  0  0  0  0  0  0
  186.8070  178.0990  146.4590 O   0  0  0  0  0  1  0  0  0  0  0  0
  191.3610  176.7740  145.3330 C   0  0  0  0  0  1  0  0  0  0  0  0
  190.9640  177.1860  144.0570 O   0  0  0  0  0  0  0  0  0  0  0  0
  1  4  1  0  0  0  0
  2 23  1  0  0  0  0
  3  8  2  0  0  0  0
  3  7  1  0  0  0  0
  4 37  1  6  0  0  0
  4 11  1  0  0  0  0
  5 18  1  0  0  0  0
  6 21  1  0  0  0  0
  6  8  1  0  0  0  0
  7  9  2  0  0  0  0
  7 20  1  0  0  0  0
  8 12  1  0  0  0  0
  9  5  1  0  0  0  0
 10  6  2  0  0  0  0
 12 20  2  0  0  0  0
 12 16  1  0  0  0  0
 13 16  1  0  0  0  0
 14 19  2  0  0  0  0
 14 26  1  0  0  0  0
 15 10  1  0  0  0  0
 15 19  1  0  0  0  0
 17 11  1  0  0  0  0
 17 34  1  1  0  0  0
 19  3  1  0  0  0  0
 20 25  1  0  0  0  0
 21  2  1  0  0  0  0
 22 28  1  0  0  0  0
 22  9  1  0  0  0  0
 23 13  1  0  0  0  0
 24 18  1  1  0  0  0
 24 17  1  0  0  0  0
 25 24  1  0  0  0  0
 25  1  1  0  0  0  0
 26 22  2  0  0  0  0
 27 33  1  0  0  0  0
 28 27  2  0  0  0  0
 29 32  2  0  0  0  0
 29 28  1  0  0  0  0
 30 32  1  0  0  0  0
 31 33  2  0  0  0  0
 32 31  1  0  0  0  0
 34 35  1  0  0  0  0
 37 36  1  0  0  0  0
M  END
>  <MODEL>
4

>  <REMARK>
 VINA RESULT:      -9.5      2.491      6.206
  Name = 
  3 active torsions:
  status: ('A' for Active; 'I' for Inactive)
    1  A    between atoms: C_5  and  O_23
    2  A    between atoms: C_6  and  C_31
    3  A    between atoms: C_11  and  C_26
                            x       y       z     vdW  Elec       q    Type
                         _______ _______ _______ _____ _____    ______ ____

>  <TORSDO>
F 3

$$$$
=
 OpenBabel11042412113D

 37 43  0  0  1  0  0  0  0  0999 V2000
  184.7720  177.5270  143.3100 C   0  0  0  0  0  2  0  0  0  0  0  0
  185.5040  178.0560  137.3840 C   0  0  0  0  0  2  0  0  0  0  0  0
  188.7110  177.8050  140.6440 C   0  0  0  0  0  0  0  0  0  0  0  0
  183.8130  178.6430  143.7670 C   0  0  1  0  0  3  0  0  0  0  0  0
  188.4050  176.8690  144.3170 O   0  0  0  0  0  0  0  0  0  0  0  0
  187.6800  178.5910  138.5300 C   0  0  0  0  0  0  0  0  0  0  0  0
  188.3120  177.5940  142.0340 C   0  0  0  0  0  0  0  0  0  0  0  0
  187.5850  178.1540  139.9350 C   0  0  0  0  0  0  0  0  0  0  0  0
  189.0750  177.1450  143.1200 C   0  0  0  0  0  0  0  0  0  0  0  0
  188.8520  178.6550  137.9730 N   0  0  0  0  0  0  0  0  0  0  0  0
  184.4980  179.7730  144.5580 C   0  0  0  0  0  2  0  0  0  0  0  0
  186.5010  178.2030  140.7990 C   0  0  0  0  0  0  0  0  0  0  0  0
  184.4100  177.6920  139.5980 C   0  0  0  0  0  2  0  0  0  0  0  0
  191.1390  177.4880  140.7130 C   0  0  0  0  0  3  0  0  0  0  0  0
  190.1080  178.2220  138.6060 C   0  0  0  0  0  2  0  0  0  0  0  0
  185.1360  178.7010  140.4640 C   0  0  0  0  0  2  0  0  0  0  0  0
  185.6810  179.2690  145.3780 C   0  0  2  0  0  3  0  0  0  0  0  0
  187.8330  177.8800  145.1400 C   0  0  0  0  0  2  0  0  0  0  0  0
  189.9690  177.8280  140.0590 C   0  0  0  0  0  0  0  0  0  0  0  0
  186.9420  177.8550  142.0710 C   0  0  0  0  0  0  0  0  0  0  0  0
  186.5340  179.0030  137.7820 N   0  0  0  0  0  2  0  0  0  0  0  0
  190.4590  176.8910  143.0920 C   0  0  0  0  0  0  0  0  0  0  0  0
  184.2380  178.2550  138.2000 C   0  0  0  0  0  2  0  0  0  0  0  0
  186.7470  178.6880  144.4240 C   0  0  1  0  0  3  0  0  0  0  0  0
  186.1650  177.9810  143.2750 N   0  0  0  0  0  0  0  0  0  0  0  0
  191.3380  177.0720  142.0220 C   0  0  0  0  0  3  0  0  0  0  0  0
  191.7650  175.1820  144.3430 C   0  0  0  0  0  3  0  0  0  0  0  0
  191.1010  176.4180  144.3270 C   0  0  0  0  0  0  0  0  0  0  0  0
  191.0390  177.1930  145.4920 C   0  0  0  0  0  3  0  0  0  0  0  0
  191.5720  177.5010  147.8210 O   0  0  0  0  0  1  0  0  0  0  0  0
  192.2960  175.5010  146.6830 C   0  0  0  0  0  3  0  0  0  0  0  0
  191.6370  176.7340  146.6680 C   0  0  0  0  0  0  0  0  0  0  0  0
  192.3610  174.7250  145.5200 C   0  0  0  0  0  3  0  0  0  0  0  0
  185.2070  178.2820  146.4470 C   0  0  0  0  0  2  0  0  0  0  0  0
  185.4950  178.7780  147.7180 O   0  0  0  0  0  1  0  0  0  0  0  0
  181.7850  179.0030  142.9550 C   0  0  0  0  0  1  0  0  0  0  0  0
  183.1420  179.1780  142.6690 O   0  0  0  0  0  0  0  0  0  0  0  0
  1  4  1  0  0  0  0
  2 21  1  0  0  0  0
  2 23  1  0  0  0  0
  3  7  1  0  0  0  0
  4 37  1  6  0  0  0
  4 11  1  0  0  0  0
  5 18  1  0  0  0  0
  6  8  1  0  0  0  0
  7 20  1  0  0  0  0
  7  9  2  0  0  0  0
  8  3  2  0  0  0  0
  8 12  1  0  0  0  0
  9  5  1  0  0  0  0
 10  6  2  0  0  0  0
 10 15  1  0  0  0  0
 11 17  1  0  0  0  0
 12 20  2  0  0  0  0
 13 16  1  0  0  0  0
 14 26  1  0  0  0  0
 15 19  1  0  0  0  0
 16 12  1  0  0  0  0
 17 34  1  1  0  0  0
 19  3  1  0  0  0  0
 19 14  2  0  0  0  0
 20 25  1  0  0  0  0
 21  6  1  0  0  0  0
 22  9  1  0  0  0  0
 22 28  1  0  0  0  0
 23 13  1  0  0  0  0
 24 18  1  1  0  0  0
 24 17  1  0  0  0  0
 25  1  1  0  0  0  0
 25 24  1  0  0  0  0
 26 22  2  0  0  0  0
 27 33  1  0  0  0  0
 28 27  2  0  0  0  0
 28 29  1  0  0  0  0
 29 32  2  0  0  0  0
 32 31  1  0  0  0  0
 32 30  1  0  0  0  0
 33 31  2  0  0  0  0
 34 35  1  0  0  0  0
 37 36  1  0  0  0  0
M  END
>  <MODEL>
5

>  <REMARK>
 VINA RESULT:      -9.0      2.391      8.223
  Name = 
  3 active torsions:
  status: ('A' for Active; 'I' for Inactive)
    1  A    between atoms: C_5  and  O_23
    2  A    between atoms: C_6  and  C_31
    3  A    between atoms: C_11  and  C_26
                            x       y       z     vdW  Elec       q    Type
                         _______ _______ _______ _____ _____    ______ ____

>  <TORSDO>
F 3

$$$$
=
 OpenBabel11042412113D

 37 43  0  0  1  0  0  0  0  0999 V2000
  184.2020  179.6890  142.6150 C   0  0  0  0  0  2  0  0  0  0  0  0
  187.3170  178.6090  147.6210 C   0  0  0  0  0  2  0  0  0  0  0  0
  188.3780  177.5010  143.3060 C   0  0  0  0  0  0  0  0  0  0  0  0
  182.7700  179.1640  142.8300 C   0  0  1  0  0  3  0  0  0  0  0  0
  186.8210  178.6420  140.0290 O   0  0  0  0  0  0  0  0  0  0  0  0
  188.2350  177.1840  145.7610 C   0  0  0  0  0  0  0  0  0  0  0  0
  187.5090  177.9370  142.2150 C   0  0  0  0  0  0  0  0  0  0  0  0
  187.6910  177.6800  144.4840 C   0  0  0  0  0  0  0  0  0  0  0  0
  187.7820  178.0330  140.8430 C   0  0  0  0  0  0  0  0  0  0  0  0
  189.3750  176.5600  145.7550 N   0  0  0  0  0  0  0  0  0  0  0  0
  182.4460  177.8830  142.0380 C   0  0  0  0  0  2  0  0  0  0  0  0
  186.4260  178.1760  144.2010 C   0  0  0  0  0  0  0  0  0  0  0  0
  185.5900  179.5380  146.0780 C   0  0  0  0  0  2  0  0  0  0  0  0
  190.3590  176.6650  142.1330 C   0  0  0  0  0  3  0  0  0  0  0  0
  190.2350  176.3930  144.5720 C   0  0  0  0  0  2  0  0  0  0  0  0
  185.3150  178.3490  145.1800 C   0  0  0  0  0  2  0  0  0  0  0  0
  183.1920  177.8220  140.7100 C   0  0  2  0  0  3  0  0  0  0  0  0
  185.5620  178.0480  139.7340 C   0  0  0  0  0  2  0  0  0  0  0  0
  189.6150  176.8730  143.2790 C   0  0  0  0  0  0  0  0  0  0  0  0
  186.3210  178.3400  142.8240 C   0  0  0  0  0  0  0  0  0  0  0  0
  187.5230  177.3130  146.9930 N   0  0  0  0  0  2  0  0  0  0  0  0
  188.9740  177.6180  140.2220 C   0  0  0  0  0  0  0  0  0  0  0  0
  185.8720  179.0540  147.4880 C   0  0  0  0  0  2  0  0  0  0  0  0
  184.7120  177.8000  140.9840 C   0  0  1  0  0  3  0  0  0  0  0  0
  185.1020  178.6420  142.1230 N   0  0  0  0  0  0  0  0  0  0  0  0
  190.0780  177.0020  140.8160 C   0  0  0  0  0  3  0  0  0  0  0  0
  188.9530  179.0750  138.2050 C   0  0  0  0  0  3  0  0  0  0  0  0
  189.0940  177.7970  138.7670 C   0  0  0  0  0  0  0  0  0  0  0  0
  189.3350  176.6930  137.9400 C   0  0  0  0  0  3  0  0  0  0  0  0
  189.6700  175.7700  135.7400 O   0  0  0  0  0  1  0  0  0  0  0  0
  189.2900  178.1390  135.9980 C   0  0  0  0  0  3  0  0  0  0  0  0
  189.4330  176.8650  136.5580 C   0  0  0  0  0  0  0  0  0  0  0  0
  189.0510  179.2440  136.8220 C   0  0  0  0  0  3  0  0  0  0  0  0
  182.7470  178.9640  139.7950 C   0  0  0  0  0  2  0  0  0  0  0  0
  181.3770  178.8760  139.5490 O   0  0  0  0  0  1  0  0  0  0  0  0
  181.1820  178.6120  144.2720 C   0  0  0  0  0  1  0  0  0  0  0  0
  182.5360  178.9490  144.1870 O   0  0  0  0  0  0  0  0  0  0  0  0
  1  4  1  0  0  0  0
  3  8  2  0  0  0  0
  4 37  1  1  0  0  0
  5  9  1  0  0  0  0
  6 21  1  0  0  0  0
  7 20  1  0  0  0  0
  7  3  1  0  0  0  0
  8  6  1  0  0  0  0
  9  7  2  0  0  0  0
 10  6  2  0  0  0  0
 11  4  1  0  0  0  0
 12  8  1  0  0  0  0
 12 16  1  0  0  0  0
 13 23  1  0  0  0  0
 14 19  2  0  0  0  0
 15 10  1  0  0  0  0
 16 13  1  0  0  0  0
 17 34  1  6  0  0  0
 17 24  1  0  0  0  0
 17 11  1  0  0  0  0
 18  5  1  0  0  0  0
 19  3  1  0  0  0  0
 19 15  1  0  0  0  0
 20 12  2  0  0  0  0
 21  2  1  0  0  0  0
 22 26  2  0  0  0  0
 22  9  1  0  0  0  0
 23  2  1  0  0  0  0
 24 18  1  6  0  0  0
 24 25  1  0  0  0  0
 25  1  1  0  0  0  0
 25 20  1  0  0  0  0
 26 14  1  0  0  0  0
 27 28  1  0  0  0  0
 28 22  1  0  0  0  0
 29 28  2  0  0  0  0
 30 32  1  0  0  0  0
 31 32  2  0  0  0  0
 31 33  1  0  0  0  0
 32 29  1  0  0  0  0
 33 27  2  0  0  0  0
 35 34  1  0  0  0  0
 37 36  1  0  0  0  0
M  END
>  <MODEL>
6

>  <REMARK>
 VINA RESULT:      -9.0      1.902      6.506
  Name = 
  3 active torsions:
  status: ('A' for Active; 'I' for Inactive)
    1  A    between atoms: C_5  and  O_23
    2  A    between atoms: C_6  and  C_31
    3  A    between atoms: C_11  and  C_26
                            x       y       z     vdW  Elec       q    Type
                         _______ _______ _______ _____ _____    ______ ____

>  <TORSDO>
F 3

$$$$
=
 OpenBabel11042412113D

 37 43  0  0  1  0  0  0  0  0999 V2000
  189.5100  176.3290  142.4820 C   0  0  0  0  0  2  0  0  0  0  0  0
  188.2430  177.0370  148.2970 C   0  0  0  0  0  2  0  0  0  0  0  0
  185.7740  178.3280  144.6620 C   0  0  0  0  0  0  0  0  0  0  0  0
  190.9220  176.8930  142.2350 C   0  0  1  0  0  3  0  0  0  0  0  0
  186.1560  177.4150  140.9910 O   0  0  0  0  0  0  0  0  0  0  0  0
  186.7300  178.5240  146.9420 C   0  0  0  0  0  0  0  0  0  0  0  0
  186.2330  177.9810  143.3190 C   0  0  0  0  0  0  0  0  0  0  0  0
  186.8210  178.1140  145.5290 C   0  0  0  0  0  0  0  0  0  0  0  0
  185.5160  177.9470  142.1150 C   0  0  0  0  0  0  0  0  0  0  0  0
  185.6450  179.1060  147.3560 N   0  0  0  0  0  0  0  0  0  0  0  0
  190.9400  178.2230  141.4600 C   0  0  0  0  0  2  0  0  0  0  0  0
  187.9240  177.6780  144.8100 C   0  0  0  0  0  0  0  0  0  0  0  0
  189.3650  176.2510  146.2120 C   0  0  0  0  0  2  0  0  0  0  0  0
  183.5010  179.1540  144.2740 C   0  0  0  0  0  3  0  0  0  0  0  0
  184.4340  179.3030  146.5420 C   0  0  0  0  0  2  0  0  0  0  0  0
  189.3030  177.4940  145.3470 C   0  0  0  0  0  2  0  0  0  0  0  0
  189.7890  178.3270  140.4650 C   0  0  2  0  0  3  0  0  0  0  0  0
  187.2330  178.0670  140.3270 C   0  0  0  0  0  2  0  0  0  0  0  0
  184.5910  178.9130  145.0890 C   0  0  0  0  0  0  0  0  0  0  0  0
  187.5630  177.5900  143.4700 C   0  0  0  0  0  0  0  0  0  0  0  0
  187.8180  178.3560  147.8540 N   0  0  0  0  0  2  0  0  0  0  0  0
  184.1780  178.3510  141.9550 C   0  0  0  0  0  0  0  0  0  0  0  0
  189.5670  176.6510  147.6610 C   0  0  0  0  0  2  0  0  0  0  0  0
  188.4500  178.2800  141.2330 C   0  0  1  0  0  3  0  0  0  0  0  0
  188.4790  177.3670  142.3840 N   0  0  0  0  0  0  0  0  0  0  0  0
  183.3280  178.8950  142.9210 C   0  0  0  0  0  3  0  0  0  0  0  0
  183.6610  179.3200  139.7220 C   0  0  0  0  0  3  0  0  0  0  0  0
  183.5780  178.2420  140.6170 C   0  0  0  0  0  0  0  0  0  0  0  0
  182.9120  177.0700  140.2380 C   0  0  0  0  0  3  0  0  0  0  0  0
  181.6700  175.8160  138.5990 O   0  0  0  0  0  1  0  0  0  0  0  0
  182.4120  178.0520  138.0820 C   0  0  0  0  0  3  0  0  0  0  0  0
  182.3310  176.9760  138.9720 C   0  0  0  0  0  0  0  0  0  0  0  0
  183.0790  179.2240  138.4560 C   0  0  0  0  0  3  0  0  0  0  0  0
  189.9190  177.2500  139.3860 C   0  0  0  0  0  2  0  0  0  0  0  0
  189.9580  177.8390  138.1230 O   0  0  0  0  0  1  0  0  0  0  0  0
  191.8590  175.7420  143.8790 C   0  0  0  0  0  1  0  0  0  0  0  0
  191.5950  177.0450  143.4460 O   0  0  0  0  0  0  0  0  0  0  0  0
  3 19  1  0  0  0  0
  3  8  2  0  0  0  0
  4  1  1  0  0  0  0
  4 37  1  1  0  0  0
  5  9  1  0  0  0  0
  6 10  2  0  0  0  0
  6 21  1  0  0  0  0
  7 20  1  0  0  0  0
  7  3  1  0  0  0  0
  8  6  1  0  0  0  0
  9  7  2  0  0  0  0
 11  4  1  0  0  0  0
 12 16  1  0  0  0  0
 12  8  1  0  0  0  0
 13 23  1  0  0  0  0
 14 19  2  0  0  0  0
 15 10  1  0  0  0  0
 16 13  1  0  0  0  0
 17 34  1  6  0  0  0
 17 24  1  0  0  0  0
 17 11  1  0  0  0  0
 18  5  1  0  0  0  0
 19 15  1  0  0  0  0
 20 12  2  0  0  0  0
 21  2  1  0  0  0  0
 22  9  1  0  0  0  0
 22 26  2  0  0  0  0
 23  2  1  0  0  0  0
 24 18  1  6  0  0  0
 24 25  1  0  0  0  0
 25  1  1  0  0  0  0
 25 20  1  0  0  0  0
 26 14  1  0  0  0  0
 27 28  1  0  0  0  0
 28 22  1  0  0  0  0
 29 28  2  0  0  0  0
 30 32  1  0  0  0  0
 31 33  1  0  0  0  0
 31 32  2  0  0  0  0
 32 29  1  0  0  0  0
 33 27  2  0  0  0  0
 35 34  1  0  0  0  0
 37 36  1  0  0  0  0
M  END
>  <MODEL>
7

>  <REMARK>
 VINA RESULT:      -8.9      1.782      2.922
  Name = 
  3 active torsions:
  status: ('A' for Active; 'I' for Inactive)
    1  A    between atoms: C_5  and  O_23
    2  A    between atoms: C_6  and  C_31
    3  A    between atoms: C_11  and  C_26
                            x       y       z     vdW  Elec       q    Type
                         _______ _______ _______ _____ _____    ______ ____

>  <TORSDO>
F 3

$$$$
