=
 OpenBabel11042413063D

 32 33  0  0  1  0  0  0  0  0999 V2000
  188.7430  177.5500  145.4690 C   0  0  0  0  0  0  0  0  0  0  0  0
  192.0440  176.1320  146.2870 O   0  0  0  0  0  0  0  0  0  0  0  0
  190.9470  179.4120  143.8180 C   0  0  0  0  0  1  0  0  0  0  0  0
  186.5930  178.1950  143.7550 C   0  0  0  0  0  0  0  0  0  0  0  0
  188.9940  177.9080  144.1200 C   0  0  0  0  0  0  0  0  0  0  0  0
  188.6600  177.4220  148.5380 C   0  0  0  0  0  1  0  0  0  0  0  0
  191.2930  177.0490  144.2870 N   0  0  0  0  0  2  0  0  0  0  0  0
  189.8260  177.0510  147.6860 C   0  0  0  0  0  3  0  0  0  0  0  0
  190.4180  178.0040  143.6150 C   0  0  2  0  0  3  0  0  0  0  0  0
  187.9200  178.2450  143.2620 C   0  0  0  0  0  0  0  0  0  0  0  0
  186.3610  177.8410  145.0850 C   0  0  0  0  0  3  0  0  0  0  0  0
  187.4200  177.5170  145.9260 C   0  0  0  0  0  3  0  0  0  0  0  0
  189.8750  177.1230  146.3460 C   0  0  0  0  0  0  0  0  0  0  0  0
  191.1300  176.7430  145.6720 C   0  0  0  0  0  0  0  0  0  0  0  0
  185.4230  178.5090  142.9140 C   0  0  0  0  0  0  0  0  0  0  0  0
  185.2330  177.7880  141.8080 C   0  0  0  0  0  3  0  0  0  0  0  0
  184.0840  178.0200  140.8790 C   0  0  0  0  0  2  0  0  0  0  0  0
  185.6590  178.6150  139.1880 O   0  0  0  0  0  1  0  0  0  0  0  0
  184.4590  179.0070  139.7860 C   0  0  1  0  0  3  0  0  0  0  0  0
  183.3530  179.0470  138.7470 C   0  0  0  0  0  2  0  0  0  0  0  0
  181.1570  180.0360  139.4990 N   0  0  0  0  0  1  0  0  0  0  0  0
  182.4640  180.2210  138.9720 C   0  0  0  0  0  0  0  0  0  0  0  0
  182.8790  181.3820  138.7160 O   0  0  0  0  0  0  0  0  0  0  0  0
  184.5080  179.5260  143.2410 O   0  0  0  0  0  0  0  0  0  0  0  0
  182.2010  179.3400  143.4590 O   0  0  0  0  0  0  0  0  0  0  0  0
  183.3390  179.3760  144.0000 C   0  0  0  0  0  0  0  0  0  0  0  0
  183.4390  179.2450  145.3780 O   0  0  0  0  0  1  0  0  0  0  0  0
  187.2900  179.5550  141.3610 F   0  0  0  0  0  0  0  0  0  0  0  0
  188.2210  178.6500  141.8400 C   0  0  2  0  0  3  0  0  0  0  0  0
  188.3260  177.4400  140.9270 C   0  0  0  0  0  2  0  0  0  0  0  0
  189.5240  177.4870  140.2150 O   0  0  0  0  0  0  0  0  0  0  0  0
  189.2310  178.2620  139.0930 C   0  0  0  0  0  1  0  0  0  0  0  0
  1 12  1  0  0  0  0
  1 13  1  0  0  0  0
  4 11  1  0  0  0  0
  5  1  2  0  0  0  0
  7 14  1  0  0  0  0
  8  6  1  0  0  0  0
  9  3  1  1  0  0  0
  9  5  1  0  0  0  0
  9  7  1  0  0  0  0
 10  4  2  0  0  0  0
 10  5  1  0  0  0  0
 11 12  2  0  0  0  0
 13  8  2  0  0  0  0
 14  2  2  0  0  0  0
 14 13  1  0  0  0  0
 15 24  1  0  0  0  0
 15  4  1  0  0  0  0
 16 15  2  0  0  0  0
 17 16  1  0  0  0  0
 19 18  1  6  0  0  0
 19 17  1  0  0  0  0
 20 22  1  0  0  0  0
 20 19  1  0  0  0  0
 22 21  1  0  0  0  0
 23 22  2  0  0  0  0
 24 26  1  0  0  0  0
 25 26  2  0  0  0  0
 26 27  1  0  0  0  0
 29 28  1  6  0  0  0
 29 10  1  0  0  0  0
 30 29  1  0  0  0  0
 31 30  1  0  0  0  0
 32 31  1  0  0  0  0
M  END
>  <MODEL>
1

>  <REMARK>
 VINA RESULT:      -7.9      0.000      0.000
  Name = 
  10 active torsions:
  status: ('A' for Active; 'I' for Inactive)
    1  A    between atoms: C_1  and  C_11
    2  A    between atoms: C_1  and  O_30
    3  A    between atoms: C_3  and  C_5
    4  A    between atoms: C_3  and  C_8
    5  A    between atoms: O_4  and  C_24
    6  A    between atoms: C_5  and  C_25
    7  A    between atoms: C_12  and  C_25
    8  A    between atoms: C_20  and  C_29
    9  A    between atoms: C_24  and  C_29
   10  A    between atoms: C_26  and  O_30
                            x       y       z     vdW  Elec       q    Type
                         _______ _______ _______ _____ _____    ______ ____

>  <TORSDO>
F 10

$$$$
=
 OpenBabel11042413063D

 32 33  0  0  1  0  0  0  0  0999 V2000
  187.5650  177.9410  145.3380 C   0  0  0  0  0  0  0  0  0  0  0  0
  190.2010  176.2730  147.3000 O   0  0  0  0  0  0  0  0  0  0  0  0
  190.3990  178.5260  143.7030 C   0  0  0  0  0  1  0  0  0  0  0  0
  185.9270  178.3280  143.0710 C   0  0  0  0  0  0  0  0  0  0  0  0
  188.0810  177.6990  144.0400 C   0  0  0  0  0  0  0  0  0  0  0  0
  187.0450  179.0050  148.1740 C   0  0  0  0  0  1  0  0  0  0  0  0
  190.0070  176.5010  144.9950 N   0  0  0  0  0  2  0  0  0  0  0  0
  188.1630  178.1010  147.7790 C   0  0  0  0  0  3  0  0  0  0  0  0
  189.5290  177.2920  143.8650 C   0  0  2  0  0  3  0  0  0  0  0  0
  187.2680  177.9050  142.9000 C   0  0  0  0  0  0  0  0  0  0  0  0
  185.4320  178.5620  144.3540 C   0  0  0  0  0  3  0  0  0  0  0  0
  186.2370  178.3640  145.4710 C   0  0  0  0  0  3  0  0  0  0  0  0
  188.4070  177.6480  146.5380 C   0  0  0  0  0  0  0  0  0  0  0  0
  189.5830  176.7850  146.3280 C   0  0  0  0  0  0  0  0  0  0  0  0
  185.0120  178.5400  141.9330 C   0  0  0  0  0  0  0  0  0  0  0  0
  183.8850  177.8290  141.8930 C   0  0  0  0  0  3  0  0  0  0  0  0
  182.8860  177.9590  140.7870 C   0  0  0  0  0  2  0  0  0  0  0  0
  180.5100  178.1770  140.7680 O   0  0  0  0  0  1  0  0  0  0  0  0
  181.6840  178.7740  141.2330 C   0  0  1  0  0  3  0  0  0  0  0  0
  181.6610  178.8430  142.7500 C   0  0  0  0  0  2  0  0  0  0  0  0
  179.4640  178.5250  143.9480 N   0  0  0  0  0  1  0  0  0  0  0  0
  180.3540  179.3700  143.2310 C   0  0  0  0  0  0  0  0  0  0  0  0
  180.0450  180.5720  143.0210 O   0  0  0  0  0  0  0  0  0  0  0  0
  185.2850  179.4620  140.9070 O   0  0  0  0  0  0  0  0  0  0  0  0
  184.3230  180.1270  138.8980 O   0  0  0  0  0  1  0  0  0  0  0  0
  185.0080  179.2900  139.5440 C   0  0  0  0  0  0  0  0  0  0  0  0
  185.5170  178.1790  138.8860 O   0  0  0  0  0  0  0  0  0  0  0  0
  188.6790  176.5560  141.5170 F   0  0  0  0  0  0  0  0  0  0  0  0
  187.8550  177.6680  141.5310 C   0  0  2  0  0  3  0  0  0  0  0  0
  188.5870  178.8960  141.0180 C   0  0  0  0  0  2  0  0  0  0  0  0
  188.4900  178.9590  139.6280 O   0  0  0  0  0  0  0  0  0  0  0  0
  189.5280  178.1480  139.1700 C   0  0  0  0  0  1  0  0  0  0  0  0
  1 12  1  0  0  0  0
  1 13  1  0  0  0  0
  4 11  1  0  0  0  0
  5  1  2  0  0  0  0
  7 14  1  0  0  0  0
  8  6  1  0  0  0  0
  9  3  1  1  0  0  0
  9  5  1  0  0  0  0
  9  7  1  0  0  0  0
 10  4  2  0  0  0  0
 10  5  1  0  0  0  0
 11 12  2  0  0  0  0
 13  8  2  0  0  0  0
 14 13  1  0  0  0  0
 14  2  2  0  0  0  0
 15  4  1  0  0  0  0
 16 15  2  0  0  0  0
 17 19  1  0  0  0  0
 17 16  1  0  0  0  0
 19 18  1  1  0  0  0
 19 20  1  0  0  0  0
 20 22  1  0  0  0  0
 22 21  1  0  0  0  0
 23 22  2  0  0  0  0
 24 15  1  0  0  0  0
 25 26  1  0  0  0  0
 26 24  1  0  0  0  0
 27 26  2  0  0  0  0
 29 28  1  1  0  0  0
 29 10  1  0  0  0  0
 30 29  1  0  0  0  0
 31 30  1  0  0  0  0
 32 31  1  0  0  0  0
M  END
>  <MODEL>
2

>  <REMARK>
 VINA RESULT:      -7.7      1.885      3.011
  Name = 
  10 active torsions:
  status: ('A' for Active; 'I' for Inactive)
    1  A    between atoms: C_1  and  C_11
    2  A    between atoms: C_1  and  O_30
    3  A    between atoms: C_3  and  C_5
    4  A    between atoms: C_3  and  C_8
    5  A    between atoms: O_4  and  C_24
    6  A    between atoms: C_5  and  C_25
    7  A    between atoms: C_12  and  C_25
    8  A    between atoms: C_20  and  C_29
    9  A    between atoms: C_24  and  C_29
   10  A    between atoms: C_26  and  O_30
                            x       y       z     vdW  Elec       q    Type
                         _______ _______ _______ _____ _____    ______ ____

>  <TORSDO>
F 10

$$$$
=
 OpenBabel11042413063D

 32 33  0  0  1  0  0  0  0  0999 V2000
  188.6380  177.4880  145.3310 C   0  0  0  0  0  0  0  0  0  0  0  0
  191.9770  176.0750  145.9940 O   0  0  0  0  0  0  0  0  0  0  0  0
  190.7700  179.4150  143.6610 C   0  0  0  0  0  1  0  0  0  0  0  0
  186.4260  178.1630  143.7110 C   0  0  0  0  0  0  0  0  0  0  0  0
  188.8400  177.8860  143.9850 C   0  0  0  0  0  0  0  0  0  0  0  0
  188.6620  177.2710  148.3960 C   0  0  0  0  0  1  0  0  0  0  0  0
  191.1510  177.0430  144.0490 N   0  0  0  0  0  2  0  0  0  0  0  0
  189.8010  176.9350  147.4950 C   0  0  0  0  0  3  0  0  0  0  0  0
  190.2450  178.0090  143.4340 C   0  0  2  0  0  3  0  0  0  0  0  0
  187.7350  178.2390  143.1740 C   0  0  0  0  0  0  0  0  0  0  0  0
  186.2430  177.7690  145.0360 C   0  0  0  0  0  3  0  0  0  0  0  0
  187.3320  177.4300  145.8320 C   0  0  0  0  0  3  0  0  0  0  0  0
  189.8040  177.0450  146.1560 C   0  0  0  0  0  0  0  0  0  0  0  0
  191.0370  176.6960  145.4290 C   0  0  0  0  0  0  0  0  0  0  0  0
  185.2260  178.4910  142.9190 C   0  0  0  0  0  0  0  0  0  0  0  0
  184.9740  177.7640  141.8290 C   0  0  0  0  0  3  0  0  0  0  0  0
  183.7890  178.0090  140.9510 C   0  0  0  0  0  2  0  0  0  0  0  0
  182.8330  177.0970  138.9630 O   0  0  0  0  0  1  0  0  0  0  0  0
  184.0410  177.4940  139.5430 C   0  0  1  0  0  3  0  0  0  0  0  0
  184.6740  178.5960  138.7130 C   0  0  0  0  0  2  0  0  0  0  0  0
  186.9840  178.8450  137.7280 N   0  0  0  0  0  1  0  0  0  0  0  0
  185.8120  178.0610  137.9140 C   0  0  0  0  0  0  0  0  0  0  0  0
  185.7460  176.9050  137.4200 O   0  0  0  0  0  0  0  0  0  0  0  0
  184.3450  179.5270  143.2770 O   0  0  0  0  0  0  0  0  0  0  0  0
  183.2950  179.2800  145.3370 O   0  0  0  0  0  1  0  0  0  0  0  0
  183.2060  179.4040  144.0860 C   0  0  0  0  0  0  0  0  0  0  0  0
  181.9510  179.4390  143.4950 O   0  0  0  0  0  0  0  0  0  0  0  0
  186.9130  179.4060  141.2540 F   0  0  0  0  0  0  0  0  0  0  0  0
  187.9840  178.6870  141.7550 C   0  0  2  0  0  3  0  0  0  0  0  0
  188.3240  177.5130  140.8520 C   0  0  0  0  0  2  0  0  0  0  0  0
  189.3310  177.8790  139.9590 O   0  0  0  0  0  0  0  0  0  0  0  0
  190.2140  176.7990  139.9700 C   0  0  0  0  0  1  0  0  0  0  0  0
  1 12  1  0  0  0  0
  1 13  1  0  0  0  0
  4 11  1  0  0  0  0
  5  1  2  0  0  0  0
  7 14  1  0  0  0  0
  8  6  1  0  0  0  0
  9  3  1  1  0  0  0
  9  5  1  0  0  0  0
  9  7  1  0  0  0  0
 10  4  2  0  0  0  0
 10  5  1  0  0  0  0
 11 12  2  0  0  0  0
 13  8  2  0  0  0  0
 14  2  2  0  0  0  0
 14 13  1  0  0  0  0
 15 24  1  0  0  0  0
 15  4  1  0  0  0  0
 16 15  2  0  0  0  0
 17 16  1  0  0  0  0
 19 18  1  6  0  0  0
 19 17  1  0  0  0  0
 20 19  1  0  0  0  0
 21 22  1  0  0  0  0
 22 20  1  0  0  0  0
 23 22  2  0  0  0  0
 24 26  1  0  0  0  0
 26 25  1  0  0  0  0
 27 26  2  0  0  0  0
 29 28  1  6  0  0  0
 29 10  1  0  0  0  0
 30 29  1  0  0  0  0
 31 32  1  0  0  0  0
 31 30  1  0  0  0  0
M  END
>  <MODEL>
3

>  <REMARK>
 VINA RESULT:      -7.7      1.575      1.905
  Name = 
  10 active torsions:
  status: ('A' for Active; 'I' for Inactive)
    1  A    between atoms: C_1  and  C_11
    2  A    between atoms: C_1  and  O_30
    3  A    between atoms: C_3  and  C_5
    4  A    between atoms: C_3  and  C_8
    5  A    between atoms: O_4  and  C_24
    6  A    between atoms: C_5  and  C_25
    7  A    between atoms: C_12  and  C_25
    8  A    between atoms: C_20  and  C_29
    9  A    between atoms: C_24  and  C_29
   10  A    between atoms: C_26  and  O_30
                            x       y       z     vdW  Elec       q    Type
                         _______ _______ _______ _____ _____    ______ ____

>  <TORSDO>
F 10

$$$$
=
 OpenBabel11042413063D

 32 33  0  0  1  0  0  0  0  0999 V2000
  190.1580  177.1850  140.0740 C   0  0  0  0  0  0  0  0  0  0  0  0
  193.8000  177.1910  139.5110 O   0  0  0  0  0  0  0  0  0  0  0  0
  191.5110  176.3000  142.9790 C   0  0  0  0  0  1  0  0  0  0  0  0
  187.7510  178.1020  141.2310 C   0  0  0  0  0  0  0  0  0  0  0  0
  190.1490  177.6610  141.4100 C   0  0  0  0  0  0  0  0  0  0  0  0
  190.4320  175.4740  137.5360 C   0  0  0  0  0  1  0  0  0  0  0  0
  192.6050  177.8030  141.4090 N   0  0  0  0  0  2  0  0  0  0  0  0
  191.5620  176.0530  138.3180 C   0  0  0  0  0  3  0  0  0  0  0  0
  191.4170  177.6200  142.2360 C   0  0  2  0  0  3  0  0  0  0  0  0
  188.9420  178.1080  141.9980 C   0  0  0  0  0  0  0  0  0  0  0  0
  187.7740  177.6310  139.9180 C   0  0  0  0  0  3  0  0  0  0  0  0
  188.9620  177.1850  139.3470 C   0  0  0  0  0  3  0  0  0  0  0  0
  191.4500  176.7850  139.4380 C   0  0  0  0  0  0  0  0  0  0  0  0
  192.6850  177.2490  140.0960 C   0  0  0  0  0  0  0  0  0  0  0  0
  186.4610  178.5750  141.7670 C   0  0  0  0  0  0  0  0  0  0  0  0
  186.0400  178.0720  142.9280 C   0  0  0  0  0  3  0  0  0  0  0  0
  184.7480  178.4760  143.5640 C   0  0  0  0  0  2  0  0  0  0  0  0
  183.7560  179.1060  145.6410 O   0  0  0  0  0  1  0  0  0  0  0  0
  184.9770  179.0060  144.9700 C   0  0  1  0  0  3  0  0  0  0  0  0
  185.9010  178.0610  145.7170 C   0  0  0  0  0  2  0  0  0  0  0  0
  187.1830  177.9370  147.8860 N   0  0  0  0  0  1  0  0  0  0  0  0
  186.2900  178.6410  147.0330 C   0  0  0  0  0  0  0  0  0  0  0  0
  185.8460  179.7660  147.3810 O   0  0  0  0  0  0  0  0  0  0  0  0
  185.6740  179.5340  141.1040 O   0  0  0  0  0  0  0  0  0  0  0  0
  184.0820  178.1810  140.0850 O   0  0  0  0  0  1  0  0  0  0  0  0
  184.7030  179.2770  140.1260 C   0  0  0  0  0  0  0  0  0  0  0  0
  184.4060  180.2600  139.1930 O   0  0  0  0  0  0  0  0  0  0  0  0
  189.9770  179.4910  143.6530 F   0  0  0  0  0  0  0  0  0  0  0  0
  188.9580  178.5820  143.4300 C   0  0  2  0  0  3  0  0  0  0  0  0
  189.0440  177.4170  144.4010 C   0  0  0  0  0  2  0  0  0  0  0  0
  189.5500  177.8560  145.6240 O   0  0  0  0  0  0  0  0  0  0  0  0
  190.0110  176.6960  146.2460 C   0  0  0  0  0  1  0  0  0  0  0  0
  1  5  1  0  0  0  0
  2 14  2  0  0  0  0
  4 15  1  0  0  0  0
  4 10  1  0  0  0  0
  5 10  2  0  0  0  0
  5  9  1  0  0  0  0
  6  8  1  0  0  0  0
  7  9  1  0  0  0  0
  8 13  2  0  0  0  0
  9  3  1  6  0  0  0
 10 29  1  0  0  0  0
 11  4  2  0  0  0  0
 12 11  1  0  0  0  0
 12  1  2  0  0  0  0
 13  1  1  0  0  0  0
 13 14  1  0  0  0  0
 14  7  1  0  0  0  0
 15 16  2  0  0  0  0
 16 17  1  0  0  0  0
 17 19  1  0  0  0  0
 19 18  1  1  0  0  0
 19 20  1  0  0  0  0
 20 22  1  0  0  0  0
 22 23  2  0  0  0  0
 22 21  1  0  0  0  0
 24 15  1  0  0  0  0
 25 26  1  0  0  0  0
 26 24  1  0  0  0  0
 27 26  2  0  0  0  0
 29 28  1  6  0  0  0
 29 30  1  0  0  0  0
 30 31  1  0  0  0  0
 31 32  1  0  0  0  0
M  END
>  <MODEL>
4

>  <REMARK>
 VINA RESULT:      -7.4      2.690      5.902
  Name = 
  10 active torsions:
  status: ('A' for Active; 'I' for Inactive)
    1  A    between atoms: C_1  and  C_11
    2  A    between atoms: C_1  and  O_30
    3  A    between atoms: C_3  and  C_5
    4  A    between atoms: C_3  and  C_8
    5  A    between atoms: O_4  and  C_24
    6  A    between atoms: C_5  and  C_25
    7  A    between atoms: C_12  and  C_25
    8  A    between atoms: C_20  and  C_29
    9  A    between atoms: C_24  and  C_29
   10  A    between atoms: C_26  and  O_30
                            x       y       z     vdW  Elec       q    Type
                         _______ _______ _______ _____ _____    ______ ____

>  <TORSDO>
F 10

$$$$
=
 OpenBabel11042413063D

 32 33  0  0  1  0  0  0  0  0999 V2000
  189.2560  177.4240  146.0690 C   0  0  0  0  0  0  0  0  0  0  0  0
  192.3460  175.8800  147.3560 O   0  0  0  0  0  0  0  0  0  0  0  0
  191.6020  178.1090  143.8150 C   0  0  0  0  0  1  0  0  0  0  0  0
  187.1180  177.7260  144.2500 C   0  0  0  0  0  0  0  0  0  0  0  0
  189.4640  177.1920  144.6860 C   0  0  0  0  0  0  0  0  0  0  0  0
  189.3730  178.4910  148.9490 C   0  0  0  0  0  1  0  0  0  0  0  0
  191.6070  176.0810  145.1610 N   0  0  0  0  0  2  0  0  0  0  0  0
  190.4040  177.6290  148.3010 C   0  0  0  0  0  3  0  0  0  0  0  0
  190.8460  176.8430  144.1750 C   0  0  2  0  0  3  0  0  0  0  0  0
  188.3980  177.3560  143.7690 C   0  0  0  0  0  0  0  0  0  0  0  0
  186.9280  177.9510  145.6140 C   0  0  0  0  0  3  0  0  0  0  0  0
  187.9810  177.7950  146.5100 C   0  0  0  0  0  3  0  0  0  0  0  0
  190.3680  177.1750  147.0370 C   0  0  0  0  0  0  0  0  0  0  0  0
  191.4960  176.3580  146.5560 C   0  0  0  0  0  0  0  0  0  0  0  0
  185.9550  177.8920  143.3590 C   0  0  0  0  0  0  0  0  0  0  0  0
  184.7740  178.1720  143.9130 C   0  0  0  0  0  3  0  0  0  0  0  0
  183.5270  178.3580  143.1080 C   0  0  0  0  0  2  0  0  0  0  0  0
  182.7380  179.3810  145.1140 O   0  0  0  0  0  1  0  0  0  0  0  0
  182.3330  178.6260  144.0100 C   0  0  1  0  0  3  0  0  0  0  0  0
  181.2750  179.3820  143.2280 C   0  0  0  0  0  2  0  0  0  0  0  0
  179.4230  178.5930  141.7070 N   0  0  0  0  0  1  0  0  0  0  0  0
  180.1010  178.5070  142.9540 C   0  0  0  0  0  0  0  0  0  0  0  0
  179.7220  177.6740  143.8180 O   0  0  0  0  0  0  0  0  0  0  0  0
  186.0500  177.7720  141.9610 O   0  0  0  0  0  0  0  0  0  0  0  0
  185.8100  178.6120  139.8070 O   0  0  0  0  0  0  0  0  0  0  0  0
  186.0010  178.8230  141.0340 C   0  0  0  0  0  0  0  0  0  0  0  0
  186.1470  180.1280  141.4840 O   0  0  0  0  0  1  0  0  0  0  0  0
  189.3280  175.9410  142.0790 F   0  0  0  0  0  0  0  0  0  0  0  0
  188.6570  177.1310  142.3000 C   0  0  2  0  0  3  0  0  0  0  0  0
  189.4010  178.3000  141.6790 C   0  0  0  0  0  2  0  0  0  0  0  0
  189.0590  178.4190  140.3330 O   0  0  0  0  0  0  0  0  0  0  0  0
  190.0660  177.7310  139.6560 C   0  0  0  0  0  1  0  0  0  0  0  0
  1 12  1  0  0  0  0
  1 13  1  0  0  0  0
  4 11  1  0  0  0  0
  5  1  2  0  0  0  0
  7 14  1  0  0  0  0
  8  6  1  0  0  0  0
  9  3  1  1  0  0  0
  9  5  1  0  0  0  0
  9  7  1  0  0  0  0
 10  4  2  0  0  0  0
 10  5  1  0  0  0  0
 11 12  2  0  0  0  0
 13  8  2  0  0  0  0
 14 13  1  0  0  0  0
 14  2  2  0  0  0  0
 15 16  2  0  0  0  0
 15  4  1  0  0  0  0
 17 16  1  0  0  0  0
 17 19  1  0  0  0  0
 19 18  1  1  0  0  0
 20 19  1  0  0  0  0
 21 22  1  0  0  0  0
 22 20  1  0  0  0  0
 22 23  2  0  0  0  0
 24 15  1  0  0  0  0
 25 26  2  0  0  0  0
 26 27  1  0  0  0  0
 26 24  1  0  0  0  0
 29 28  1  1  0  0  0
 29 10  1  0  0  0  0
 30 29  1  0  0  0  0
 31 30  1  0  0  0  0
 32 31  1  0  0  0  0
M  END
>  <MODEL>
5

>  <REMARK>
 VINA RESULT:      -7.1      1.942      3.072
  Name = 
  10 active torsions:
  status: ('A' for Active; 'I' for Inactive)
    1  A    between atoms: C_1  and  C_11
    2  A    between atoms: C_1  and  O_30
    3  A    between atoms: C_3  and  C_5
    4  A    between atoms: C_3  and  C_8
    5  A    between atoms: O_4  and  C_24
    6  A    between atoms: C_5  and  C_25
    7  A    between atoms: C_12  and  C_25
    8  A    between atoms: C_20  and  C_29
    9  A    between atoms: C_24  and  C_29
   10  A    between atoms: C_26  and  O_30
                            x       y       z     vdW  Elec       q    Type
                         _______ _______ _______ _____ _____    ______ ____

>  <TORSDO>
F 10

$$$$
=
 OpenBabel11042413063D

 32 33  0  0  1  0  0  0  0  0999 V2000
  188.0350  177.8330  144.5110 C   0  0  0  0  0  0  0  0  0  0  0  0
  190.2840  176.3920  147.0500 O   0  0  0  0  0  0  0  0  0  0  0  0
  190.9970  179.2480  143.9860 C   0  0  0  0  0  1  0  0  0  0  0  0
  187.1110  178.2910  141.8820 C   0  0  0  0  0  0  0  0  0  0  0  0
  188.9600  177.9350  143.4410 C   0  0  0  0  0  0  0  0  0  0  0  0
  186.4450  178.2480  147.1080 C   0  0  0  0  0  1  0  0  0  0  0  0
  190.7410  176.9880  144.8500 N   0  0  0  0  0  2  0  0  0  0  0  0
  187.8150  177.6670  147.0140 C   0  0  0  0  0  3  0  0  0  0  0  0
  190.4470  177.8590  143.7170 C   0  0  2  0  0  3  0  0  0  0  0  0
  188.5020  178.1780  142.1250 C   0  0  0  0  0  0  0  0  0  0  0  0
  186.2120  178.1880  142.9450 C   0  0  0  0  0  3  0  0  0  0  0  0
  186.6680  177.9560  144.2380 C   0  0  0  0  0  3  0  0  0  0  0  0
  188.5230  177.5010  145.8840 C   0  0  0  0  0  0  0  0  0  0  0  0
  189.8810  176.9380  145.9880 C   0  0  0  0  0  0  0  0  0  0  0  0
  186.5570  178.5190  140.5350 C   0  0  0  0  0  0  0  0  0  0  0  0
  186.9690  177.7270  139.5440 C   0  0  0  0  0  3  0  0  0  0  0  0
  186.4780  177.8680  138.1380 C   0  0  0  0  0  2  0  0  0  0  0  0
  188.6830  178.0210  137.2400 O   0  0  0  0  0  1  0  0  0  0  0  0
  187.4870  177.3050  137.1510 C   0  0  1  0  0  3  0  0  0  0  0  0
  187.7360  175.8420  137.4710 C   0  0  0  0  0  2  0  0  0  0  0  0
  188.9000  175.2960  135.2990 N   0  0  0  0  0  1  0  0  0  0  0  0
  188.9200  175.3360  136.7200 C   0  0  0  0  0  0  0  0  0  0  0  0
  189.9480  174.9630  137.3440 O   0  0  0  0  0  0  0  0  0  0  0  0
  185.6160  179.5290  140.2660 O   0  0  0  0  0  0  0  0  0  0  0  0
  183.5800  178.4710  140.6400 O   0  0  0  0  0  1  0  0  0  0  0  0
  184.2480  179.3430  140.0220 C   0  0  0  0  0  0  0  0  0  0  0  0
  183.6110  180.1520  139.0930 O   0  0  0  0  0  0  0  0  0  0  0  0
  189.0550  179.1430  140.0060 F   0  0  0  0  0  0  0  0  0  0  0  0
  189.5120  178.3100  141.0120 C   0  0  2  0  0  3  0  0  0  0  0  0
  189.9110  176.9530  140.4580 C   0  0  0  0  0  2  0  0  0  0  0  0
  190.9780  177.0980  139.5720 O   0  0  0  0  0  0  0  0  0  0  0  0
  192.0440  177.5020  140.3760 C   0  0  0  0  0  1  0  0  0  0  0  0
  1 13  1  0  0  0  0
  4 10  2  0  0  0  0
  4 11  1  0  0  0  0
  5  9  1  0  0  0  0
  5  1  2  0  0  0  0
  7 14  1  0  0  0  0
  8  6  1  0  0  0  0
  9  3  1  1  0  0  0
  9  7  1  0  0  0  0
 10  5  1  0  0  0  0
 11 12  2  0  0  0  0
 12  1  1  0  0  0  0
 13 14  1  0  0  0  0
 13  8  2  0  0  0  0
 14  2  2  0  0  0  0
 15  4  1  0  0  0  0
 16 15  2  0  0  0  0
 17 16  1  0  0  0  0
 19 18  1  1  0  0  0
 19 20  1  0  0  0  0
 19 17  1  0  0  0  0
 21 22  1  0  0  0  0
 22 23  2  0  0  0  0
 22 20  1  0  0  0  0
 24 15  1  0  0  0  0
 26 24  1  0  0  0  0
 26 25  1  0  0  0  0
 27 26  2  0  0  0  0
 29 28  1  6  0  0  0
 29 10  1  0  0  0  0
 30 29  1  0  0  0  0
 31 32  1  0  0  0  0
 31 30  1  0  0  0  0
M  END
>  <MODEL>
6

>  <REMARK>
 VINA RESULT:      -6.9      2.562      3.926
  Name = 
  10 active torsions:
  status: ('A' for Active; 'I' for Inactive)
    1  A    between atoms: C_1  and  C_11
    2  A    between atoms: C_1  and  O_30
    3  A    between atoms: C_3  and  C_5
    4  A    between atoms: C_3  and  C_8
    5  A    between atoms: O_4  and  C_24
    6  A    between atoms: C_5  and  C_25
    7  A    between atoms: C_12  and  C_25
    8  A    between atoms: C_20  and  C_29
    9  A    between atoms: C_24  and  C_29
   10  A    between atoms: C_26  and  O_30
                            x       y       z     vdW  Elec       q    Type
                         _______ _______ _______ _____ _____    ______ ____

>  <TORSDO>
F 10

$$$$
=
 OpenBabel11042413063D

 32 33  0  0  1  0  0  0  0  0999 V2000
  183.5250  178.7900  141.4470 C   0  0  0  0  0  0  0  0  0  0  0  0
  182.3650  180.2210  138.2540 O   0  0  0  0  0  0  0  0  0  0  0  0
  185.6440  177.6690  139.1440 C   0  0  0  0  0  1  0  0  0  0  0  0
  185.3370  178.4530  143.5860 C   0  0  0  0  0  0  0  0  0  0  0  0
  184.9220  178.8450  141.2090 C   0  0  0  0  0  0  0  0  0  0  0  0
  180.5420  178.0530  141.4420 C   0  0  0  0  0  1  0  0  0  0  0  0
  184.5370  179.8300  138.9870 N   0  0  0  0  0  2  0  0  0  0  0  0
  181.2640  178.7510  140.3400 C   0  0  0  0  0  3  0  0  0  0  0  0
  185.4430  179.0240  139.7980 C   0  0  2  0  0  3  0  0  0  0  0  0
  185.8330  178.6630  142.2760 C   0  0  0  0  0  0  0  0  0  0  0  0
  183.9600  178.4020  143.8050 C   0  0  0  0  0  3  0  0  0  0  0  0
  183.0680  178.5740  142.7520 C   0  0  0  0  0  3  0  0  0  0  0  0
  182.5720  179.0590  140.3270 C   0  0  0  0  0  0  0  0  0  0  0  0
  183.1210  179.7230  139.1320 C   0  0  0  0  0  0  0  0  0  0  0  0
  186.2240  178.2800  144.7510 C   0  0  0  0  0  0  0  0  0  0  0  0
  186.9620  177.1710  144.8190 C   0  0  0  0  0  3  0  0  0  0  0  0
  187.8940  176.8880  145.9540 C   0  0  0  0  0  2  0  0  0  0  0  0
  189.4350  178.3340  144.8460 O   0  0  0  0  0  1  0  0  0  0  0  0
  189.3380  177.1280  145.5450 C   0  0  1  0  0  3  0  0  0  0  0  0
  190.2080  177.1800  146.7880 C   0  0  0  0  0  2  0  0  0  0  0  0
  191.9130  176.0660  145.2970 N   0  0  0  0  0  1  0  0  0  0  0  0
  191.4320  176.3510  146.6050 C   0  0  0  0  0  0  0  0  0  0  0  0
  192.0550  175.9190  147.6100 O   0  0  0  0  0  0  0  0  0  0  0  0
  186.3210  179.2380  145.7760 O   0  0  0  0  0  0  0  0  0  0  0  0
  185.8700  180.0520  147.9060 O   0  0  0  0  0  1  0  0  0  0  0  0
  185.6130  179.2310  146.9860 C   0  0  0  0  0  0  0  0  0  0  0  0
  184.5910  178.3090  147.1660 O   0  0  0  0  0  0  0  0  0  0  0  0
  187.6070  179.5580  140.9430 F   0  0  0  0  0  0  0  0  0  0  0  0
  187.3140  178.6980  141.9870 C   0  0  2  0  0  3  0  0  0  0  0  0
  187.8620  177.3070  141.7190 C   0  0  0  0  0  2  0  0  0  0  0  0
  188.9070  177.3790  140.7990 O   0  0  0  0  0  0  0  0  0  0  0  0
  190.0460  177.0680  141.5410 C   0  0  0  0  0  1  0  0  0  0  0  0
  1 12  1  0  0  0  0
  2 14  2  0  0  0  0
  4 11  1  0  0  0  0
  4 15  1  0  0  0  0
  5  1  2  0  0  0  0
  5 10  1  0  0  0  0
  7 14  1  0  0  0  0
  7  9  1  0  0  0  0
  8  6  1  0  0  0  0
  9  3  1  6  0  0  0
  9  5  1  0  0  0  0
 10  4  2  0  0  0  0
 12 11  2  0  0  0  0
 13  8  2  0  0  0  0
 13  1  1  0  0  0  0
 14 13  1  0  0  0  0
 15 16  2  0  0  0  0
 15 24  1  0  0  0  0
 16 17  1  0  0  0  0
 19 18  1  1  0  0  0
 19 17  1  0  0  0  0
 19 20  1  0  0  0  0
 21 22  1  0  0  0  0
 22 20  1  0  0  0  0
 22 23  2  0  0  0  0
 24 26  1  0  0  0  0
 26 27  2  0  0  0  0
 26 25  1  0  0  0  0
 29 28  1  6  0  0  0
 29 10  1  0  0  0  0
 30 29  1  0  0  0  0
 31 32  1  0  0  0  0
 31 30  1  0  0  0  0
M  END
>  <MODEL>
7

>  <REMARK>
 VINA RESULT:      -6.8      1.911      7.474
  Name = 
  10 active torsions:
  status: ('A' for Active; 'I' for Inactive)
    1  A    between atoms: C_1  and  C_11
    2  A    between atoms: C_1  and  O_30
    3  A    between atoms: C_3  and  C_5
    4  A    between atoms: C_3  and  C_8
    5  A    between atoms: O_4  and  C_24
    6  A    between atoms: C_5  and  C_25
    7  A    between atoms: C_12  and  C_25
    8  A    between atoms: C_20  and  C_29
    9  A    between atoms: C_24  and  C_29
   10  A    between atoms: C_26  and  O_30
                            x       y       z     vdW  Elec       q    Type
                         _______ _______ _______ _____ _____    ______ ____

>  <TORSDO>
F 10

$$$$
=
 OpenBabel11042413063D

 32 33  0  0  1  0  0  0  0  0999 V2000
  189.4280  177.4980  141.1480 C   0  0  0  0  0  0  0  0  0  0  0  0
  192.8790  177.4620  139.8550 O   0  0  0  0  0  0  0  0  0  0  0  0
  191.2230  175.8930  143.4410 C   0  0  0  0  0  1  0  0  0  0  0  0
  187.3840  178.2320  142.9530 C   0  0  0  0  0  0  0  0  0  0  0  0
  189.7200  177.6470  142.5270 C   0  0  0  0  0  0  0  0  0  0  0  0
  189.0490  176.4180  138.2960 C   0  0  0  0  0  1  0  0  0  0  0  0
  192.1330  177.6690  142.0470 N   0  0  0  0  0  2  0  0  0  0  0  0
  190.3580  176.7440  138.9330 C   0  0  0  0  0  3  0  0  0  0  0  0
  191.1130  177.3540  143.0430 C   0  0  2  0  0  3  0  0  0  0  0  0
  188.6960  178.0010  143.4380 C   0  0  0  0  0  0  0  0  0  0  0  0
  187.1120  178.0810  141.5930 C   0  0  0  0  0  3  0  0  0  0  0  0
  188.1210  177.7260  140.7040 C   0  0  0  0  0  3  0  0  0  0  0  0
  190.5320  177.1980  140.1860 C   0  0  0  0  0  0  0  0  0  0  0  0
  191.9070  177.4350  140.6580 C   0  0  0  0  0  0  0  0  0  0  0  0
  186.2720  178.6280  143.8360 C   0  0  0  0  0  0  0  0  0  0  0  0
  185.0260  178.4660  143.3880 C   0  0  0  0  0  3  0  0  0  0  0  0
  183.8220  178.8350  144.1950 C   0  0  0  0  0  2  0  0  0  0  0  0
  182.9310  178.8240  141.9810 O   0  0  0  0  0  1  0  0  0  0  0  0
  182.6610  179.2210  143.2930 C   0  0  1  0  0  3  0  0  0  0  0  0
  181.3960  178.5420  143.7880 C   0  0  0  0  0  2  0  0  0  0  0  0
  178.9320  178.6230  143.2520 N   0  0  0  0  0  1  0  0  0  0  0  0
  180.1890  179.2830  143.3250 C   0  0  0  0  0  0  0  0  0  0  0  0
  180.2770  180.5010  143.0210 O   0  0  0  0  0  0  0  0  0  0  0  0
  186.4800  179.1570  145.1220 O   0  0  0  0  0  0  0  0  0  0  0  0
  185.6180  179.3640  147.2710 O   0  0  0  0  0  1  0  0  0  0  0  0
  185.9990  178.6230  146.3260 C   0  0  0  0  0  0  0  0  0  0  0  0
  185.9230  177.2450  146.4710 O   0  0  0  0  0  0  0  0  0  0  0  0
  190.2120  178.8180  145.0980 F   0  0  0  0  0  0  0  0  0  0  0  0
  189.0310  178.1250  144.9030 C   0  0  2  0  0  3  0  0  0  0  0  0
  189.0770  176.7660  145.5810 C   0  0  0  0  0  2  0  0  0  0  0  0
  189.9490  176.8070  146.6670 O   0  0  0  0  0  0  0  0  0  0  0  0
  189.1430  177.1700  147.7460 C   0  0  0  0  0  1  0  0  0  0  0  0
  1  5  1  0  0  0  0
  2 14  2  0  0  0  0
  4 10  1  0  0  0  0
  4 15  1  0  0  0  0
  5  9  1  0  0  0  0
  5 10  2  0  0  0  0
  6  8  1  0  0  0  0
  7  9  1  0  0  0  0
  8 13  2  0  0  0  0
  9  3  1  6  0  0  0
 10 29  1  0  0  0  0
 11  4  2  0  0  0  0
 12  1  2  0  0  0  0
 12 11  1  0  0  0  0
 13 14  1  0  0  0  0
 13  1  1  0  0  0  0
 14  7  1  0  0  0  0
 15 24  1  0  0  0  0
 16 15  2  0  0  0  0
 16 17  1  0  0  0  0
 19 18  1  6  0  0  0
 19 20  1  0  0  0  0
 19 17  1  0  0  0  0
 21 22  1  0  0  0  0
 22 20  1  0  0  0  0
 23 22  2  0  0  0  0
 24 26  1  0  0  0  0
 26 27  2  0  0  0  0
 26 25  1  0  0  0  0
 29 28  1  6  0  0  0
 29 30  1  0  0  0  0
 30 31  1  0  0  0  0
 31 32  1  0  0  0  0
M  END
>  <MODEL>
8

>  <REMARK>
 VINA RESULT:      -6.7      2.527      4.866
  Name = 
  10 active torsions:
  status: ('A' for Active; 'I' for Inactive)
    1  A    between atoms: C_1  and  C_11
    2  A    between atoms: C_1  and  O_30
    3  A    between atoms: C_3  and  C_5
    4  A    between atoms: C_3  and  C_8
    5  A    between atoms: O_4  and  C_24
    6  A    between atoms: C_5  and  C_25
    7  A    between atoms: C_12  and  C_25
    8  A    between atoms: C_20  and  C_29
    9  A    between atoms: C_24  and  C_29
   10  A    between atoms: C_26  and  O_30
                            x       y       z     vdW  Elec       q    Type
                         _______ _______ _______ _____ _____    ______ ____

>  <TORSDO>
F 10

$$$$
=
 OpenBabel11042413063D

 32 33  0  0  1  0  0  0  0  0999 V2000
  184.9200  178.2930  144.0240 C   0  0  0  0  0  0  0  0  0  0  0  0
  188.2080  176.7830  144.7240 O   0  0  0  0  0  0  0  0  0  0  0  0
  186.9320  179.3780  141.6100 C   0  0  0  0  0  1  0  0  0  0  0  0
  182.5580  178.6910  142.5280 C   0  0  0  0  0  0  0  0  0  0  0  0
  184.9610  178.2430  142.6080 C   0  0  0  0  0  0  0  0  0  0  0  0
  185.3550  179.0090  146.9810 C   0  0  0  0  0  1  0  0  0  0  0  0
  187.1910  177.2060  142.6770 N   0  0  0  0  0  2  0  0  0  0  0  0
  186.3300  178.2920  146.1100 C   0  0  0  0  0  3  0  0  0  0  0  0
  186.2800  178.0370  141.8950 C   0  0  2  0  0  3  0  0  0  0  0  0
  183.7820  178.4550  141.8540 C   0  0  0  0  0  0  0  0  0  0  0  0
  182.5330  178.7370  143.9230 C   0  0  0  0  0  3  0  0  0  0  0  0
  183.6960  178.5350  144.6590 C   0  0  0  0  0  3  0  0  0  0  0  0
  186.1540  177.9930  144.8120 C   0  0  0  0  0  0  0  0  0  0  0  0
  187.2460  177.3060  144.1000 C   0  0  0  0  0  0  0  0  0  0  0  0
  181.2860  178.8960  141.8120 C   0  0  0  0  0  0  0  0  0  0  0  0
  180.5700  177.8210  141.4830 C   0  0  0  0  0  3  0  0  0  0  0  0
  179.2670  177.9090  140.7530 C   0  0  0  0  0  2  0  0  0  0  0  0
  179.1080  177.0220  138.5430 O   0  0  0  0  0  1  0  0  0  0  0  0
  179.0400  176.6750  139.8950 C   0  0  1  0  0  3  0  0  0  0  0  0
  180.1030  175.6400  140.2160 C   0  0  0  0  0  2  0  0  0  0  0  0
  179.0770  173.6230  139.1000 N   0  0  0  0  0  1  0  0  0  0  0  0
  179.5030  174.2780  140.2880 C   0  0  0  0  0  0  0  0  0  0  0  0
  179.3920  173.6970  141.3990 O   0  0  0  0  0  0  0  0  0  0  0  0
  180.8060  180.1750  141.4760 O   0  0  0  0  0  0  0  0  0  0  0  0
  178.9940  181.6250  141.3460 O   0  0  0  0  0  0  0  0  0  0  0  0
  179.6760  180.8040  142.0160 C   0  0  0  0  0  0  0  0  0  0  0  0
  179.2900  180.5020  143.3140 O   0  0  0  0  0  1  0  0  0  0  0  0
  183.2380  179.5220  139.7830 F   0  0  0  0  0  0  0  0  0  0  0  0
  183.8620  178.4240  140.3480 C   0  0  2  0  0  3  0  0  0  0  0  0
  183.3010  177.1290  139.7860 C   0  0  0  0  0  2  0  0  0  0  0  0
  183.7910  176.9200  138.4980 O   0  0  0  0  0  0  0  0  0  0  0  0
  183.2450  175.6950  138.1130 C   0  0  0  0  0  1  0  0  0  0  0  0
  1 12  1  0  0  0  0
  1 13  1  0  0  0  0
  4 11  1  0  0  0  0
  5  1  2  0  0  0  0
  7 14  1  0  0  0  0
  8  6  1  0  0  0  0
  9  3  1  1  0  0  0
  9  5  1  0  0  0  0
  9  7  1  0  0  0  0
 10  4  2  0  0  0  0
 10  5  1  0  0  0  0
 11 12  2  0  0  0  0
 13  8  2  0  0  0  0
 14  2  2  0  0  0  0
 14 13  1  0  0  0  0
 15  4  1  0  0  0  0
 16 15  2  0  0  0  0
 17 16  1  0  0  0  0
 19 18  1  6  0  0  0
 19 20  1  0  0  0  0
 19 17  1  0  0  0  0
 20 22  1  0  0  0  0
 21 22  1  0  0  0  0
 22 23  2  0  0  0  0
 24 15  1  0  0  0  0
 24 26  1  0  0  0  0
 25 26  2  0  0  0  0
 26 27  1  0  0  0  0
 29 28  1  6  0  0  0
 29 10  1  0  0  0  0
 30 29  1  0  0  0  0
 31 30  1  0  0  0  0
 32 31  1  0  0  0  0
M  END
>  <MODEL>
9

>  <REMARK>
 VINA RESULT:      -6.7      3.527      5.050
  Name = 
  10 active torsions:
  status: ('A' for Active; 'I' for Inactive)
    1  A    between atoms: C_1  and  C_11
    2  A    between atoms: C_1  and  O_30
    3  A    between atoms: C_3  and  C_5
    4  A    between atoms: C_3  and  C_8
    5  A    between atoms: O_4  and  C_24
    6  A    between atoms: C_5  and  C_25
    7  A    between atoms: C_12  and  C_25
    8  A    between atoms: C_20  and  C_29
    9  A    between atoms: C_24  and  C_29
   10  A    between atoms: C_26  and  O_30
                            x       y       z     vdW  Elec       q    Type
                         _______ _______ _______ _____ _____    ______ ____

>  <TORSDO>
F 10

$$$$
