=
 OpenBabel11032419423D

 62 68  0  0  1  0  0  0  0  0999 V2000
  183.6230  177.3380  138.7780 C   0  0  1  0  0  3  0  0  0  0  0  0
  181.2020  176.5400  138.1930 C   0  0  2  0  0  3  0  0  0  0  0  0
  182.0130  175.7400  135.9140 N   0  0  0  0  0  2  0  0  0  0  0  0
  181.9990  177.3750  139.6190 S   0  0  0  0  0  0  0  0  0  0  0  0
  183.4180  176.8830  137.4110 N   0  0  0  0  0  0  0  0  0  0  0  0
  182.2350  176.4590  137.1200 C   0  0  0  0  0  0  0  0  0  0  0  0
  182.1870  174.2920  135.9390 C   0  0  0  0  0  2  0  0  0  0  0  0
  186.7580  174.1020  135.8220 N   0  0  0  0  0  0  0  0  0  0  0  0
  185.6530  174.1030  134.9790 N   0  0  0  0  0  0  0  0  0  0  0  0
  184.5970  173.8290  135.6580 C   0  0  0  0  0  0  0  0  0  0  0  0
  186.3920  173.7100  137.1720 C   0  0  0  0  0  3  0  0  0  0  0  0
  183.2900  173.9210  135.0840 N   0  0  0  0  0  2  0  0  0  0  0  0
  184.8620  173.6560  137.1230 C   0  0  0  0  0  3  0  0  0  0  0  0
  188.0840  174.4710  135.3770 C   0  0  0  0  0  2  0  0  0  0  0  0
  189.1860  173.8270  136.2080 C   0  0  1  0  0  3  0  0  0  0  0  0
  189.7120  172.6460  135.6510 O   0  0  0  0  0  1  0  0  0  0  0  0
  191.0600  175.1740  135.4190 O   0  0  0  0  0  0  0  0  0  0  0  0
  190.2990  174.8090  136.5480 C   0  0  2  0  0  3  0  0  0  0  0  0
  192.4560  175.0640  137.3720 C   0  0  1  0  0  3  0  0  0  0  0  0
  192.3850  175.4120  135.8730 C   0  0  1  0  0  3  0  0  0  0  0  0
  191.2240  174.2440  137.6010 C   0  0  0  0  0  2  0  0  0  0  0  0
  194.5790  175.4600  134.6090 C   0  0  0  0  0  1  0  0  0  0  0  0
  193.3630  174.6160  134.9850 C   0  0  0  0  0  2  0  0  0  0  0  0
  193.7250  174.3670  137.8640 C   0  0  0  0  0  2  0  0  0  0  0  0
  195.6940  174.5280  138.8620 C   0  0  0  0  0  1  0  0  0  0  0  0
  194.5870  175.2740  138.4640 O   0  0  0  0  0  0  0  0  0  0  0  0
  184.3680  178.6850  138.8630 C   0  0  1  0  0  3  0  0  0  0  0  0
  184.0060  178.4960  141.3490 N   0  0  0  0  0  2  0  0  0  0  0  0
  185.8690  179.6150  140.4930 O   0  0  0  0  0  0  0  0  0  0  0  0
  184.8230  178.9510  140.2620 C   0  0  0  0  0  0  0  0  0  0  0  0
  184.2730  178.7210  142.7490 C   0  0  0  0  0  2  0  0  0  0  0  0
  185.1200  177.6240  143.3660 C   0  0  0  0  0  2  0  0  0  0  0  0
  186.5080  178.1900  143.5470 C   0  0  0  0  0  2  0  0  0  0  0  0
  187.5950  177.1230  143.6500 C   0  0  0  0  0  2  0  0  0  0  0  0
  191.2840  177.0780  144.9430 C   0  0  0  0  0  2  0  0  0  0  0  0
  191.2210  177.2450  141.9410 C   0  0  2  0  0  3  0  0  0  0  0  0
  188.6040  178.8530  142.1810 C   0  0  0  0  0  3  0  0  0  0  0  0
  192.1070  178.1530  144.1440 C   0  0  0  0  0  2  0  0  0  0  0  0
  189.8910  176.2140  140.0940 O   0  0  0  0  0  1  0  0  0  0  0  0
  191.3010  175.6710  144.2860 C   0  0  0  0  0  2  0  0  0  0  0  0
  189.8390  176.7420  142.4410 C   0  0  2  0  0  0  0  0  0  0  0  0
  189.1760  178.4880  140.8280 C   0  0  0  0  0  3  0  0  0  0  0  0
  191.5890  178.5010  142.7320 C   0  0  0  0  0  2  0  0  0  0  0  0
  190.2110  175.4520  143.1960 C   0  0  0  0  0  2  0  0  0  0  0  0
  190.0110  177.2380  141.0330 C   0  0  1  0  0  0  0  0  0  0  0  0
  188.9030  177.7330  143.1500 C   0  0  2  0  0  3  0  0  0  0  0  0
  185.5600  178.7720  137.8880 C   0  0  0  0  0  2  0  0  0  0  0  0
  186.5050  177.5740  138.0330 C   0  0  0  0  0  2  0  0  0  0  0  0
  187.8650  177.9520  137.6710 N   0  0  0  0  0  2  0  0  0  0  0  0
  187.8650  178.3260  136.2720 C   0  0  0  0  0  1  0  0  0  0  0  0
  179.9920  177.3330  137.7100 C   0  0  0  0  0  2  0  0  0  0  0  0
  180.3760  178.6090  137.0990 N   0  0  0  0  0  2  0  0  0  0  0  0
  179.1840  179.9650  138.5830 O   0  0  0  0  0  0  0  0  0  0  0  0
  179.9280  179.8920  137.5670 C   0  0  0  0  0  0  0  0  0  0  0  0
  181.7080  184.6200  137.5660 C   0  0  0  0  0  1  0  0  0  0  0  0
  181.0260  183.4610  135.4710 C   0  0  0  0  0  3  0  0  0  0  0  0
  180.6010  182.3330  134.7740 C   0  0  0  0  0  3  0  0  0  0  0  0
  180.3210  181.1440  136.8730 C   0  0  0  0  0  0  0  0  0  0  0  0
  181.1610  183.4270  136.8640 C   0  0  0  0  0  0  0  0  0  0  0  0
  180.8200  182.2660  137.5720 C   0  0  0  0  0  0  0  0  0  0  0  0
  181.0450  182.2000  138.9140 F   0  0  0  0  0  0  0  0  0  0  0  0
  180.2660  181.1770  135.4720 C   0  0  0  0  0  3  0  0  0  0  0  0
  1 27  1  6  0  0  0
  1  4  1  0  0  0  0
  2 51  1  6  0  0  0
  2  4  1  0  0  0  0
  3  7  1  0  0  0  0
  3  6  1  0  0  0  0
  5  1  1  0  0  0  0
  6  5  2  0  0  0  0
  6  2  1  0  0  0  0
  8 11  1  0  0  0  0
  9 10  2  0  0  0  0
  9  8  1  0  0  0  0
 10 13  1  0  0  0  0
 12 10  1  0  0  0  0
 12  7  1  0  0  0  0
 13 11  2  0  0  0  0
 14  8  1  0  0  0  0
 14 15  1  0  0  0  0
 15 16  1  6  0  0  0
 17 20  1  0  0  0  0
 17 18  1  0  0  0  0
 18 15  1  6  0  0  0
 18 21  1  0  0  0  0
 19 21  1  0  0  0  0
 19 24  1  6  0  0  0
 20 23  1  6  0  0  0
 20 19  1  0  0  0  0
 22 23  1  0  0  0  0
 24 26  1  0  0  0  0
 26 25  1  0  0  0  0
 27 47  1  6  0  0  0
 27 30  1  0  0  0  0
 28 31  1  0  0  0  0
 30 29  2  0  0  0  0
 30 28  1  0  0  0  0
 31 32  1  0  0  0  0
 32 33  1  0  0  0  0
 33 34  1  0  0  0  0
 36 41  1  0  0  0  0
 36 43  1  1  0  0  0
 37 46  1  0  0  0  0
 38 35  1  0  0  0  0
 40 35  1  0  0  0  0
 41 46  1  0  0  0  0
 41 44  1  1  0  0  0
 42 45  1  0  0  0  0
 42 37  2  0  0  0  0
 43 38  1  0  0  0  0
 44 40  1  0  0  0  0
 45 39  1  6  0  0  0
 45 36  1  0  0  0  0
 45 41  1  0  0  0  0
 46 34  1  6  0  0  0
 47 48  1  0  0  0  0
 49 48  1  0  0  0  0
 50 49  1  0  0  0  0
 52 54  1  0  0  0  0
 52 51  1  0  0  0  0
 54 53  2  0  0  0  0
 56 59  1  0  0  0  0
 57 56  2  0  0  0  0
 57 62  1  0  0  0  0
 58 54  1  0  0  0  0
 58 60  1  0  0  0  0
 59 55  1  0  0  0  0
 59 60  2  0  0  0  0
 60 61  1  0  0  0  0
 62 58  2  0  0  0  0
M  END
>  <MODEL>
1

>  <REMARK>
 VINA RESULT:      -6.2      0.000      0.000
  Name = 
  21 active torsions:
  status: ('A' for Active; 'I' for Inactive)
    1  A    between atoms: N_1  and  C_54
    2  A    between atoms: C_3  and  C_60
    3  A    between atoms: C_3  and  C_62
    4  A    between atoms: C_5  and  C_18
    5  A    between atoms: C_5  and  C_20
    6  A    between atoms: C_6  and  C_44
    7  A    between atoms: C_6  and  C_60
    8  A    between atoms: C_7  and  C_47
    9  A    between atoms: C_8  and  C_54
   10  A    between atoms: N_11  and  C_20
   11  A    between atoms: C_14  and  C_38
   12  A    between atoms: N_15  and  C_44
   13  A    between atoms: C_19  and  N_24
   14  A    between atoms: C_19  and  N_55
   15  A    between atoms: N_21  and  C_46
   16  A    between atoms: O_26  and  C_31
   17  A    between atoms: C_30  and  C_53
   18  A    between atoms: C_31  and  C_36
   19  A    between atoms: C_39  and  C_46
   20  A    between atoms: C_39  and  C_47
   21  A    between atoms: C_47  and  C_49
                            x       y       z     vdW  Elec       q    Type
                         _______ _______ _______ _____ _____    ______ ____

>  <TORSDO>
F 21

$$$$
=
 OpenBabel11032419423D

 62 68  0  0  1  0  0  0  0  0999 V2000
  188.8040  176.7910  142.7420 C   0  0  1  0  0  3  0  0  0  0  0  0
  186.3270  177.6100  142.5700 C   0  0  2  0  0  3  0  0  0  0  0  0
  186.8900  178.8710  140.4280 N   0  0  0  0  0  2  0  0  0  0  0  0
  187.2920  176.5950  143.7540 S   0  0  0  0  0  0  0  0  0  0  0  0
  188.5290  177.7640  141.6960 N   0  0  0  0  0  0  0  0  0  0  0  0
  187.3050  178.1530  141.5830 C   0  0  0  0  0  0  0  0  0  0  0  0
  186.4260  178.1060  139.2760 C   0  0  0  0  0  2  0  0  0  0  0  0
  183.0590  177.4900  136.2380 N   0  0  0  0  0  0  0  0  0  0  0  0
  183.3760  178.2390  137.3650 N   0  0  0  0  0  0  0  0  0  0  0  0
  184.3660  177.6950  137.9760 C   0  0  0  0  0  0  0  0  0  0  0  0
  183.8770  176.2930  136.1520 C   0  0  0  0  0  3  0  0  0  0  0  0
  185.0130  178.3350  139.0790 N   0  0  0  0  0  2  0  0  0  0  0  0
  184.9030  176.4830  137.2750 C   0  0  0  0  0  3  0  0  0  0  0  0
  182.0500  177.8980  135.2850 C   0  0  0  0  0  2  0  0  0  0  0  0
  180.7750  178.3980  135.9530 C   0  0  1  0  0  3  0  0  0  0  0  0
  180.0600  179.3430  135.1930 O   0  0  0  0  0  1  0  0  0  0  0  0
  180.0240  176.9380  137.7560 O   0  0  0  0  0  0  0  0  0  0  0  0
  179.8690  177.2550  136.3920 C   0  0  2  0  0  3  0  0  0  0  0  0
  179.5800  174.9520  136.4780 C   0  0  1  0  0  3  0  0  0  0  0  0
  179.7900  175.5430  137.8860 C   0  0  1  0  0  3  0  0  0  0  0  0
  180.1170  176.0130  135.5680 C   0  0  0  0  0  2  0  0  0  0  0  0
  181.4360  175.8490  139.7840 C   0  0  0  0  0  1  0  0  0  0  0  0
  180.9570  174.9160  138.6740 C   0  0  0  0  0  2  0  0  0  0  0  0
  180.1910  173.5780  136.2030 C   0  0  0  0  0  2  0  0  0  0  0  0
  182.0640  172.5450  135.6370 C   0  0  0  0  0  1  0  0  0  0  0  0
  181.3080  173.6870  135.3860 O   0  0  0  0  0  0  0  0  0  0  0  0
  190.0440  177.1440  143.5880 C   0  0  1  0  0  3  0  0  0  0  0  0
  191.3470  177.0440  141.4340 N   0  0  0  0  0  2  0  0  0  0  0  0
  191.9420  178.5440  143.1230 O   0  0  0  0  0  0  0  0  0  0  0  0
  191.1510  177.6490  142.7190 C   0  0  0  0  0  0  0  0  0  0  0  0
  192.4000  177.3750  140.5030 C   0  0  0  0  0  2  0  0  0  0  0  0
  192.0790  176.9510  139.0830 C   0  0  0  0  0  2  0  0  0  0  0  0
  193.2660  176.1640  138.5810 C   0  0  0  0  0  2  0  0  0  0  0  0
  192.9060  175.1240  137.5230 C   0  0  0  0  0  2  0  0  0  0  0  0
  193.1590  171.5310  136.0050 C   0  0  0  0  0  2  0  0  0  0  0  0
  195.8820  172.7920  136.1850 C   0  0  2  0  0  3  0  0  0  0  0  0
  194.9200  174.2790  138.7060 C   0  0  0  0  0  3  0  0  0  0  0  0
  194.3840  170.7950  136.6610 C   0  0  0  0  0  2  0  0  0  0  0  0
  196.8660  175.0520  135.7750 O   0  0  0  0  0  1  0  0  0  0  0  0
  193.5230  172.3050  134.7080 C   0  0  0  0  0  2  0  0  0  0  0  0
  194.8090  173.9100  136.2770 C   0  0  2  0  0  0  0  0  0  0  0  0
  196.3070  174.5100  138.1440 C   0  0  0  0  0  3  0  0  0  0  0  0
  195.5200  171.6960  137.1880 C   0  0  0  0  0  2  0  0  0  0  0  0
  194.0510  173.7510  134.9460 C   0  0  0  0  0  2  0  0  0  0  0  0
  196.2340  174.1830  136.6640 C   0  0  1  0  0  0  0  0  0  0  0  0
  193.9690  174.0280  137.5590 C   0  0  2  0  0  3  0  0  0  0  0  0
  189.7360  178.1620  144.7050 C   0  0  0  0  0  2  0  0  0  0  0  0
  190.0180  177.5870  146.0970 C   0  0  0  0  0  2  0  0  0  0  0  0
  191.3160  176.9270  146.1210 N   0  0  0  0  0  2  0  0  0  0  0  0
  191.5630  176.4800  147.4770 C   0  0  0  0  0  1  0  0  0  0  0  0
  185.6120  178.7480  143.2920 C   0  0  0  0  0  2  0  0  0  0  0  0
  184.2030  178.8540  142.8980 N   0  0  0  0  0  2  0  0  0  0  0  0
  183.3320  178.7900  145.0650 O   0  0  0  0  0  0  0  0  0  0  0  0
  183.1060  178.8520  143.8250 C   0  0  0  0  0  0  0  0  0  0  0  0
  179.6400  179.2180  140.1680 C   0  0  0  0  0  1  0  0  0  0  0  0
  179.0160  179.0380  142.5720 C   0  0  0  0  0  3  0  0  0  0  0  0
  179.3380  178.8480  143.9130 C   0  0  0  0  0  3  0  0  0  0  0  0
  181.7000  178.9170  143.3540 C   0  0  0  0  0  0  0  0  0  0  0  0
  180.0230  179.1100  141.6020 C   0  0  0  0  0  0  0  0  0  0  0  0
  181.3700  179.0380  141.9860 C   0  0  0  0  0  0  0  0  0  0  0  0
  182.3450  179.0080  141.0350 F   0  0  0  0  0  0  0  0  0  0  0  0
  180.6720  178.7720  144.2980 C   0  0  0  0  0  3  0  0  0  0  0  0
  1 27  1  1  0  0  0
  1  4  1  0  0  0  0
  2 51  1  1  0  0  0
  2  4  1  0  0  0  0
  3  6  1  0  0  0  0
  5  1  1  0  0  0  0
  6  5  2  0  0  0  0
  6  2  1  0  0  0  0
  7  3  1  0  0  0  0
  8  9  1  0  0  0  0
  9 10  2  0  0  0  0
 10 12  1  0  0  0  0
 11  8  1  0  0  0  0
 11 13  2  0  0  0  0
 12  7  1  0  0  0  0
 13 10  1  0  0  0  0
 14 15  1  0  0  0  0
 14  8  1  0  0  0  0
 15 16  1  6  0  0  0
 17 20  1  0  0  0  0
 18 15  1  6  0  0  0
 18 17  1  0  0  0  0
 19 24  1  1  0  0  0
 19 20  1  0  0  0  0
 20 23  1  6  0  0  0
 21 18  1  0  0  0  0
 21 19  1  0  0  0  0
 23 22  1  0  0  0  0
 26 25  1  0  0  0  0
 26 24  1  0  0  0  0
 27 47  1  1  0  0  0
 28 30  1  0  0  0  0
 30 29  2  0  0  0  0
 30 27  1  0  0  0  0
 31 28  1  0  0  0  0
 32 31  1  0  0  0  0
 33 32  1  0  0  0  0
 34 33  1  0  0  0  0
 35 38  1  0  0  0  0
 36 41  1  0  0  0  0
 36 45  1  0  0  0  0
 36 43  1  1  0  0  0
 38 43  1  0  0  0  0
 40 44  1  0  0  0  0
 40 35  1  0  0  0  0
 41 44  1  6  0  0  0
 41 45  1  0  0  0  0
 41 46  1  0  0  0  0
 42 37  2  0  0  0  0
 45 39  1  6  0  0  0
 45 42  1  0  0  0  0
 46 34  1  6  0  0  0
 46 37  1  0  0  0  0
 47 48  1  0  0  0  0
 48 49  1  0  0  0  0
 49 50  1  0  0  0  0
 52 51  1  0  0  0  0
 52 54  1  0  0  0  0
 54 53  2  0  0  0  0
 55 59  1  0  0  0  0
 56 57  1  0  0  0  0
 57 62  2  0  0  0  0
 58 54  1  0  0  0  0
 58 62  1  0  0  0  0
 59 60  1  0  0  0  0
 59 56  2  0  0  0  0
 60 58  2  0  0  0  0
 61 60  1  0  0  0  0
M  END
>  <MODEL>
2

>  <REMARK>
 VINA RESULT:      -6.1      3.133      8.905
  Name = 
  21 active torsions:
  status: ('A' for Active; 'I' for Inactive)
    1  A    between atoms: N_1  and  C_54
    2  A    between atoms: C_3  and  C_60
    3  A    between atoms: C_3  and  C_62
    4  A    between atoms: C_5  and  C_18
    5  A    between atoms: C_5  and  C_20
    6  A    between atoms: C_6  and  C_44
    7  A    between atoms: C_6  and  C_60
    8  A    between atoms: C_7  and  C_47
    9  A    between atoms: C_8  and  C_54
   10  A    between atoms: N_11  and  C_20
   11  A    between atoms: C_14  and  C_38
   12  A    between atoms: N_15  and  C_44
   13  A    between atoms: C_19  and  N_24
   14  A    between atoms: C_19  and  N_55
   15  A    between atoms: N_21  and  C_46
   16  A    between atoms: O_26  and  C_31
   17  A    between atoms: C_30  and  C_53
   18  A    between atoms: C_31  and  C_36
   19  A    between atoms: C_39  and  C_46
   20  A    between atoms: C_39  and  C_47
   21  A    between atoms: C_47  and  C_49
                            x       y       z     vdW  Elec       q    Type
                         _______ _______ _______ _____ _____    ______ ____

>  <TORSDO>
F 21

$$$$
=
 OpenBabel11032419423D

 62 68  0  0  1  0  0  0  0  0999 V2000
  187.5740  177.1210  142.0300 C   0  0  1  0  0  3  0  0  0  0  0  0
  186.1110  177.6340  144.1370 C   0  0  2  0  0  3  0  0  0  0  0  0
  184.8920  179.4640  142.8490 N   0  0  0  0  0  2  0  0  0  0  0  0
  187.4820  176.4810  143.7420 S   0  0  0  0  0  0  0  0  0  0  0  0
  186.7080  178.2870  141.9330 N   0  0  0  0  0  0  0  0  0  0  0  0
  185.9610  178.5320  142.9550 C   0  0  0  0  0  0  0  0  0  0  0  0
  183.5930  178.9670  142.4100 C   0  0  0  0  0  2  0  0  0  0  0  0
  182.2640  177.3280  138.3490 N   0  0  0  0  0  0  0  0  0  0  0  0
  182.8480  176.9190  139.5420 N   0  0  0  0  0  0  0  0  0  0  0  0
  183.2770  177.9480  140.1820 C   0  0  0  0  0  0  0  0  0  0  0  0
  182.3970  178.7610  138.1590 C   0  0  0  0  0  3  0  0  0  0  0  0
  183.7780  177.8460  141.5180 N   0  0  0  0  0  2  0  0  0  0  0  0
  182.9720  179.2450  139.4950 C   0  0  0  0  0  3  0  0  0  0  0  0
  181.5990  176.4110  137.4490 C   0  0  0  0  0  2  0  0  0  0  0  0
  182.0930  174.9780  137.5950 C   0  0  1  0  0  3  0  0  0  0  0  0
  181.0670  174.0140  137.6110 O   0  0  0  0  0  1  0  0  0  0  0  0
  182.9060  173.3870  135.9340 O   0  0  0  0  0  0  0  0  0  0  0  0
  183.1530  174.6260  136.5590 C   0  0  2  0  0  3  0  0  0  0  0  0
  185.2680  173.7390  136.1940 C   0  0  1  0  0  3  0  0  0  0  0  0
  184.1710  172.8210  135.6220 C   0  0  1  0  0  3  0  0  0  0  0  0
  184.5320  174.5980  137.1750 C   0  0  0  0  0  2  0  0  0  0  0  0
  182.8080  170.8740  136.4950 C   0  0  0  0  0  1  0  0  0  0  0  0
  184.2100  171.3730  136.1500 C   0  0  0  0  0  2  0  0  0  0  0  0
  186.4910  173.0590  136.8110 C   0  0  0  0  0  2  0  0  0  0  0  0
  187.9580  174.2450  135.6540 C   0  0  0  0  0  1  0  0  0  0  0  0
  187.5400  173.9560  136.9510 O   0  0  0  0  0  0  0  0  0  0  0  0
  189.0210  177.4010  141.5760 C   0  0  1  0  0  3  0  0  0  0  0  0
  189.4590  176.6160  139.2220 N   0  0  0  0  0  2  0  0  0  0  0  0
  188.8390  178.8270  139.6500 O   0  0  0  0  0  0  0  0  0  0  0  0
  189.0710  177.6750  140.1070 C   0  0  0  0  0  0  0  0  0  0  0  0
  189.6110  176.7320  137.7920 C   0  0  0  0  0  2  0  0  0  0  0  0
  191.0450  177.0000  137.3770 C   0  0  0  0  0  2  0  0  0  0  0  0
  191.8270  175.7400  137.6640 C   0  0  0  0  0  2  0  0  0  0  0  0
  193.3200  175.9830  137.8730 C   0  0  0  0  0  2  0  0  0  0  0  0
  196.9140  174.4990  137.4700 C   0  0  0  0  0  2  0  0  0  0  0  0
  194.9600  173.0100  135.7370 C   0  0  2  0  0  3  0  0  0  0  0  0
  193.3910  175.6420  135.4130 C   0  0  0  0  0  3  0  0  0  0  0  0
  197.1790  174.2340  135.9440 C   0  0  0  0  0  2  0  0  0  0  0  0
  192.6180  172.1650  135.9540 O   0  0  0  0  0  1  0  0  0  0  0  0
  196.2940  173.2830  138.2120 C   0  0  0  0  0  2  0  0  0  0  0  0
  194.1690  173.7850  136.8260 C   0  0  2  0  0  0  0  0  0  0  0  0
  192.8940  174.3540  134.7910 C   0  0  0  0  0  3  0  0  0  0  0  0
  195.9330  173.9820  135.0680 C   0  0  0  0  0  2  0  0  0  0  0  0
  194.7410  173.1980  138.1290 C   0  0  0  0  0  2  0  0  0  0  0  0
  193.4660  173.2220  135.6240 C   0  0  1  0  0  0  0  0  0  0  0  0
  194.0710  175.3160  136.7220 C   0  0  2  0  0  3  0  0  0  0  0  0
  189.6790  178.5560  142.3580 C   0  0  0  0  0  2  0  0  0  0  0  0
  191.1570  178.2760  142.6540 C   0  0  0  0  0  2  0  0  0  0  0  0
  191.2930  177.5160  143.8890 N   0  0  0  0  0  2  0  0  0  0  0  0
  191.7140  176.1740  143.5420 C   0  0  0  0  0  1  0  0  0  0  0  0
  186.4330  178.4480  145.3870 C   0  0  0  0  0  2  0  0  0  0  0  0
  187.7750  178.1590  145.9040 N   0  0  0  0  0  2  0  0  0  0  0  0
  187.1080  177.7300  148.1020 O   0  0  0  0  0  0  0  0  0  0  0  0
  188.0540  177.8230  147.2730 C   0  0  0  0  0  0  0  0  0  0  0  0
  192.4980  175.4360  147.0140 C   0  0  0  0  0  1  0  0  0  0  0  0
  192.0450  177.2120  148.6980 C   0  0  0  0  0  3  0  0  0  0  0  0
  191.2440  178.2120  149.2420 C   0  0  0  0  0  3  0  0  0  0  0  0
  189.4430  177.5860  147.7390 C   0  0  0  0  0  0  0  0  0  0  0  0
  191.5810  176.4300  147.6340 C   0  0  0  0  0  0  0  0  0  0  0  0
  190.2830  176.6200  147.1400 C   0  0  0  0  0  0  0  0  0  0  0  0
  189.8670  175.9290  146.0420 F   0  0  0  0  0  0  0  0  0  0  0  0
  189.9560  178.4070  148.7540 C   0  0  0  0  0  3  0  0  0  0  0  0
  1 27  1  1  0  0  0
  1  4  1  0  0  0  0
  2 51  1  1  0  0  0
  3  6  1  0  0  0  0
  4  2  1  0  0  0  0
  5  1  1  0  0  0  0
  5  6  2  0  0  0  0
  6  2  1  0  0  0  0
  7  3  1  0  0  0  0
  8  9  1  0  0  0  0
  9 10  2  0  0  0  0
 10 12  1  0  0  0  0
 11  8  1  0  0  0  0
 11 13  2  0  0  0  0
 12  7  1  0  0  0  0
 13 10  1  0  0  0  0
 14 15  1  0  0  0  0
 14  8  1  0  0  0  0
 15 16  1  6  0  0  0
 17 18  1  0  0  0  0
 18 21  1  0  0  0  0
 18 15  1  1  0  0  0
 19 24  1  1  0  0  0
 19 21  1  0  0  0  0
 20 17  1  0  0  0  0
 20 23  1  1  0  0  0
 20 19  1  0  0  0  0
 23 22  1  0  0  0  0
 24 26  1  0  0  0  0
 25 26  1  0  0  0  0
 27 47  1  1  0  0  0
 28 30  1  0  0  0  0
 29 30  2  0  0  0  0
 30 27  1  0  0  0  0
 31 28  1  0  0  0  0
 32 33  1  0  0  0  0
 32 31  1  0  0  0  0
 33 34  1  0  0  0  0
 35 40  1  0  0  0  0
 36 43  1  6  0  0  0
 36 41  1  0  0  0  0
 37 46  1  0  0  0  0
 38 35  1  0  0  0  0
 41 44  1  1  0  0  0
 42 37  2  0  0  0  0
 42 45  1  0  0  0  0
 43 38  1  0  0  0  0
 44 40  1  0  0  0  0
 45 36  1  0  0  0  0
 45 39  1  1  0  0  0
 45 41  1  0  0  0  0
 46 41  1  0  0  0  0
 46 34  1  1  0  0  0
 47 48  1  0  0  0  0
 48 49  1  0  0  0  0
 50 49  1  0  0  0  0
 51 52  1  0  0  0  0
 52 54  1  0  0  0  0
 54 58  1  0  0  0  0
 54 53  2  0  0  0  0
 55 59  1  0  0  0  0
 56 57  1  0  0  0  0
 58 62  1  0  0  0  0
 59 56  2  0  0  0  0
 60 59  1  0  0  0  0
 60 58  2  0  0  0  0
 61 60  1  0  0  0  0
 62 57  2  0  0  0  0
M  END
>  <MODEL>
3

>  <REMARK>
 VINA RESULT:      -5.5      3.365      9.528
  Name = 
  21 active torsions:
  status: ('A' for Active; 'I' for Inactive)
    1  A    between atoms: N_1  and  C_54
    2  A    between atoms: C_3  and  C_60
    3  A    between atoms: C_3  and  C_62
    4  A    between atoms: C_5  and  C_18
    5  A    between atoms: C_5  and  C_20
    6  A    between atoms: C_6  and  C_44
    7  A    between atoms: C_6  and  C_60
    8  A    between atoms: C_7  and  C_47
    9  A    between atoms: C_8  and  C_54
   10  A    between atoms: N_11  and  C_20
   11  A    between atoms: C_14  and  C_38
   12  A    between atoms: N_15  and  C_44
   13  A    between atoms: C_19  and  N_24
   14  A    between atoms: C_19  and  N_55
   15  A    between atoms: N_21  and  C_46
   16  A    between atoms: O_26  and  C_31
   17  A    between atoms: C_30  and  C_53
   18  A    between atoms: C_31  and  C_36
   19  A    between atoms: C_39  and  C_46
   20  A    between atoms: C_39  and  C_47
   21  A    between atoms: C_47  and  C_49
                            x       y       z     vdW  Elec       q    Type
                         _______ _______ _______ _____ _____    ______ ____

>  <TORSDO>
F 21

$$$$
=
 OpenBabel11032419423D

 62 68  0  0  1  0  0  0  0  0999 V2000
  187.3310  179.1000  140.5200 C   0  0  1  0  0  3  0  0  0  0  0  0
  189.5240  177.7430  140.0870 C   0  0  2  0  0  3  0  0  0  0  0  0
  188.4300  176.6070  138.0860 N   0  0  0  0  0  2  0  0  0  0  0  0
  188.9640  178.9670  141.3330 S   0  0  0  0  0  0  0  0  0  0  0  0
  187.2500  178.0740  139.4910 N   0  0  0  0  0  0  0  0  0  0  0  0
  188.3330  177.4190  139.2490 C   0  0  0  0  0  0  0  0  0  0  0  0
  188.9010  177.2300  136.8550 C   0  0  0  0  0  2  0  0  0  0  0  0
  193.1150  176.0260  135.5350 N   0  0  0  0  0  0  0  0  0  0  0  0
  191.7810  175.8470  135.1900 N   0  0  0  0  0  0  0  0  0  0  0  0
  191.0340  176.1820  136.1810 C   0  0  0  0  0  0  0  0  0  0  0  0
  193.2520  176.4460  136.9180 C   0  0  0  0  0  3  0  0  0  0  0  0
  189.6120  176.2550  136.0590 N   0  0  0  0  0  2  0  0  0  0  0  0
  191.8060  176.7060  137.3550 C   0  0  0  0  0  3  0  0  0  0  0  0
  194.1990  175.8300  134.5970 C   0  0  0  0  0  2  0  0  0  0  0  0
  195.5270  175.5370  135.2850 C   0  0  1  0  0  3  0  0  0  0  0  0
  196.2540  176.6870  135.6470 O   0  0  0  0  0  1  0  0  0  0  0  0
  196.0900  175.0320  137.6030 O   0  0  0  0  0  0  0  0  0  0  0  0
  195.3650  174.6000  136.4750 C   0  0  2  0  0  3  0  0  0  0  0  0
  196.0720  172.6320  137.4850 C   0  0  1  0  0  3  0  0  0  0  0  0
  196.4950  173.8650  138.3060 C   0  0  1  0  0  3  0  0  0  0  0  0
  195.7930  173.1940  136.1250 C   0  0  0  0  0  2  0  0  0  0  0  0
  198.8010  174.1210  137.2930 C   0  0  0  0  0  1  0  0  0  0  0  0
  198.0080  173.9570  138.5880 C   0  0  0  0  0  2  0  0  0  0  0  0
  197.0480  171.4560  137.4450 C   0  0  0  0  0  2  0  0  0  0  0  0
  195.5800  169.9260  138.0770 C   0  0  0  0  0  1  0  0  0  0  0  0
  196.4120  170.2970  137.0230 O   0  0  0  0  0  0  0  0  0  0  0  0
  186.1610  179.0480  141.5230 C   0  0  1  0  0  3  0  0  0  0  0  0
  183.8710  178.0370  141.2330 N   0  0  0  0  0  2  0  0  0  0  0  0
  184.6250  179.7230  139.8020 O   0  0  0  0  0  0  0  0  0  0  0  0
  184.8510  178.9930  140.8050 C   0  0  0  0  0  0  0  0  0  0  0  0
  182.5860  177.8190  140.6130 C   0  0  0  0  0  2  0  0  0  0  0  0
  182.4690  178.4910  139.2590 C   0  0  0  0  0  2  0  0  0  0  0  0
  182.0710  177.4200  138.2710 C   0  0  0  0  0  2  0  0  0  0  0  0
  182.5150  176.0170  138.6790 C   0  0  0  0  0  2  0  0  0  0  0  0
  183.0480  172.6570  136.7530 C   0  0  0  0  0  2  0  0  0  0  0  0
  183.9720  174.9840  135.0880 C   0  0  2  0  0  3  0  0  0  0  0  0
  184.7630  176.4150  137.6990 C   0  0  0  0  0  3  0  0  0  0  0  0
  184.4630  172.6910  136.0700 C   0  0  0  0  0  2  0  0  0  0  0  0
  183.1640  177.2960  134.5940 O   0  0  0  0  0  1  0  0  0  0  0  0
  181.9110  173.2090  135.8510 C   0  0  0  0  0  2  0  0  0  0  0  0
  183.0310  175.5130  136.2040 C   0  0  2  0  0  0  0  0  0  0  0  0
  184.9170  177.0970  136.3570 C   0  0  0  0  0  3  0  0  0  0  0  0
  185.0290  174.0880  135.7360 C   0  0  0  0  0  2  0  0  0  0  0  0
  181.7220  174.7530  135.9200 C   0  0  0  0  0  2  0  0  0  0  0  0
  183.9040  176.4560  135.4260 C   0  0  1  0  0  0  0  0  0  0  0  0
  183.5380  175.5310  137.6550 C   0  0  2  0  0  3  0  0  0  0  0  0
  186.2760  177.8730  142.5150 C   0  0  0  0  0  2  0  0  0  0  0  0
  185.1270  177.8670  143.5290 C   0  0  0  0  0  2  0  0  0  0  0  0
  185.3170  178.9180  144.5200 N   0  0  0  0  0  2  0  0  0  0  0  0
  184.0190  179.4890  144.8170 C   0  0  0  0  0  1  0  0  0  0  0  0
  190.0550  176.4850  140.7680 C   0  0  0  0  0  2  0  0  0  0  0  0
  190.3950  176.7190  142.1750 N   0  0  0  0  0  2  0  0  0  0  0  0
  188.5380  175.6170  143.0680 O   0  0  0  0  0  0  0  0  0  0  0  0
  189.5910  176.2780  143.2810 C   0  0  0  0  0  0  0  0  0  0  0  0
  188.4710  177.7040  147.9960 C   0  0  0  0  0  1  0  0  0  0  0  0
  190.7960  177.1550  147.2950 C   0  0  0  0  0  3  0  0  0  0  0  0
  191.7190  176.6860  146.3650 C   0  0  0  0  0  3  0  0  0  0  0  0
  189.9720  176.5880  144.6810 C   0  0  0  0  0  0  0  0  0  0  0  0
  189.4460  177.2900  146.9500 C   0  0  0  0  0  0  0  0  0  0  0  0
  189.0240  176.9970  145.6460 C   0  0  0  0  0  0  0  0  0  0  0  0
  187.6970  177.0320  145.3380 F   0  0  0  0  0  0  0  0  0  0  0  0
  191.3050  176.3890  145.0700 C   0  0  0  0  0  3  0  0  0  0  0  0
  1  4  1  0  0  0  0
  1 27  1  1  0  0  0
  2 51  1  1  0  0  0
  2  4  1  0  0  0  0
  3  6  1  0  0  0  0
  5  1  1  0  0  0  0
  6  5  2  0  0  0  0
  6  2  1  0  0  0  0
  7  3  1  0  0  0  0
  8 11  1  0  0  0  0
  9  8  1  0  0  0  0
  9 10  2  0  0  0  0
 10 13  1  0  0  0  0
 11 13  2  0  0  0  0
 12 10  1  0  0  0  0
 12  7  1  0  0  0  0
 14 15  1  0  0  0  0
 14  8  1  0  0  0  0
 15 16  1  1  0  0  0
 17 20  1  0  0  0  0
 18 15  1  6  0  0  0
 18 17  1  0  0  0  0
 19 24  1  6  0  0  0
 19 20  1  0  0  0  0
 20 23  1  6  0  0  0
 21 18  1  0  0  0  0
 21 19  1  0  0  0  0
 22 23  1  0  0  0  0
 26 24  1  0  0  0  0
 26 25  1  0  0  0  0
 27 47  1  6  0  0  0
 29 30  2  0  0  0  0
 30 28  1  0  0  0  0
 30 27  1  0  0  0  0
 31 28  1  0  0  0  0
 32 31  1  0  0  0  0
 33 34  1  0  0  0  0
 33 32  1  0  0  0  0
 36 45  1  0  0  0  0
 36 43  1  1  0  0  0
 36 41  1  0  0  0  0
 38 35  1  0  0  0  0
 40 44  1  0  0  0  0
 40 35  1  0  0  0  0
 41 44  1  6  0  0  0
 41 46  1  0  0  0  0
 42 37  2  0  0  0  0
 43 38  1  0  0  0  0
 45 39  1  6  0  0  0
 45 41  1  0  0  0  0
 45 42  1  0  0  0  0
 46 37  1  0  0  0  0
 46 34  1  1  0  0  0
 47 48  1  0  0  0  0
 48 49  1  0  0  0  0
 49 50  1  0  0  0  0
 51 52  1  0  0  0  0
 52 54  1  0  0  0  0
 53 54  2  0  0  0  0
 54 58  1  0  0  0  0
 57 56  2  0  0  0  0
 58 62  2  0  0  0  0
 58 60  1  0  0  0  0
 59 56  1  0  0  0  0
 59 55  1  0  0  0  0
 60 59  2  0  0  0  0
 61 60  1  0  0  0  0
 62 57  1  0  0  0  0
M  END
>  <MODEL>
4

>  <REMARK>
 VINA RESULT:      -5.4      3.578      8.712
  Name = 
  21 active torsions:
  status: ('A' for Active; 'I' for Inactive)
    1  A    between atoms: N_1  and  C_54
    2  A    between atoms: C_3  and  C_60
    3  A    between atoms: C_3  and  C_62
    4  A    between atoms: C_5  and  C_18
    5  A    between atoms: C_5  and  C_20
    6  A    between atoms: C_6  and  C_44
    7  A    between atoms: C_6  and  C_60
    8  A    between atoms: C_7  and  C_47
    9  A    between atoms: C_8  and  C_54
   10  A    between atoms: N_11  and  C_20
   11  A    between atoms: C_14  and  C_38
   12  A    between atoms: N_15  and  C_44
   13  A    between atoms: C_19  and  N_24
   14  A    between atoms: C_19  and  N_55
   15  A    between atoms: N_21  and  C_46
   16  A    between atoms: O_26  and  C_31
   17  A    between atoms: C_30  and  C_53
   18  A    between atoms: C_31  and  C_36
   19  A    between atoms: C_39  and  C_46
   20  A    between atoms: C_39  and  C_47
   21  A    between atoms: C_47  and  C_49
                            x       y       z     vdW  Elec       q    Type
                         _______ _______ _______ _____ _____    ______ ____

>  <TORSDO>
F 21

$$$$
=
 OpenBabel11032419423D

 62 68  0  0  1  0  0  0  0  0999 V2000
  189.2920  178.7120  139.9360 C   0  0  1  0  0  3  0  0  0  0  0  0
  190.7570  177.4460  141.6930 C   0  0  2  0  0  3  0  0  0  0  0  0
  191.8790  176.1350  139.8190 N   0  0  0  0  0  2  0  0  0  0  0  0
  189.4330  178.7140  141.7600 S   0  0  0  0  0  0  0  0  0  0  0  0
  190.1050  177.6220  139.4170 N   0  0  0  0  0  0  0  0  0  0  0  0
  190.8530  177.0100  140.2700 C   0  0  0  0  0  0  0  0  0  0  0  0
  193.1930  176.7050  139.5440 C   0  0  0  0  0  2  0  0  0  0  0  0
  194.7330  174.6910  135.7340 N   0  0  0  0  0  0  0  0  0  0  0  0
  194.4020  175.9430  136.2370 N   0  0  0  0  0  0  0  0  0  0  0  0
  193.6910  175.8020  137.3000 C   0  0  0  0  0  0  0  0  0  0  0  0
  194.1090  173.6290  136.5040 C   0  0  0  0  0  3  0  0  0  0  0  0
  193.3420  176.9180  138.1230 N   0  0  0  0  0  2  0  0  0  0  0  0
  193.4920  174.3700  137.6950 C   0  0  0  0  0  3  0  0  0  0  0  0
  195.6100  174.5100  134.5980 C   0  0  0  0  0  2  0  0  0  0  0  0
  196.8270  175.4270  134.6410 C   0  0  1  0  0  3  0  0  0  0  0  0
  196.5350  176.7540  135.0120 O   0  0  0  0  0  1  0  0  0  0  0  0
  197.9180  173.4500  135.5600 O   0  0  0  0  0  0  0  0  0  0  0  0
  197.9470  174.8570  135.5000 C   0  0  2  0  0  3  0  0  0  0  0  0
  198.6590  174.3630  137.6550 C   0  0  1  0  0  3  0  0  0  0  0  0
  198.4110  173.0800  136.8400 C   0  0  1  0  0  3  0  0  0  0  0  0
  197.8930  175.4090  136.9060 C   0  0  0  0  0  2  0  0  0  0  0  0
  196.8750  171.1030  136.4590 C   0  0  0  0  0  1  0  0  0  0  0  0
  197.4170  172.0940  137.4870 C   0  0  0  0  0  2  0  0  0  0  0  0
  198.2990  174.3230  139.1410 C   0  0  0  0  0  2  0  0  0  0  0  0
  197.6930  175.4270  140.9610 C   0  0  0  0  0  1  0  0  0  0  0  0
  198.0130  175.5950  139.6160 O   0  0  0  0  0  0  0  0  0  0  0  0
  187.8290  178.6610  139.4520 C   0  0  1  0  0  3  0  0  0  0  0  0
  186.7200  176.9140  138.0140 N   0  0  0  0  0  2  0  0  0  0  0  0
  188.5420  178.1400  137.2170 O   0  0  0  0  0  0  0  0  0  0  0  0
  187.7260  177.9270  138.1540 C   0  0  0  0  0  0  0  0  0  0  0  0
  186.5270  176.0800  136.8520 C   0  0  0  0  0  2  0  0  0  0  0  0
  185.0650  175.7700  136.5930 C   0  0  0  0  0  2  0  0  0  0  0  0
  184.4200  177.0540  136.1280 C   0  0  0  0  0  2  0  0  0  0  0  0
  182.8940  177.0030  136.1200 C   0  0  0  0  0  2  0  0  0  0  0  0
  181.6110  180.0320  138.2310 C   0  0  0  0  0  2  0  0  0  0  0  0
  180.2880  177.4870  139.1300 C   0  0  2  0  0  3  0  0  0  0  0  0
  182.8790  175.9920  138.3890 C   0  0  0  0  0  3  0  0  0  0  0  0
  181.5570  179.6030  139.7420 C   0  0  0  0  0  2  0  0  0  0  0  0
  179.3340  175.4530  138.0360 O   0  0  0  0  0  1  0  0  0  0  0  0
  180.2870  179.7680  137.4630 C   0  0  0  0  0  2  0  0  0  0  0  0
  180.8850  177.2640  137.7140 C   0  0  2  0  0  0  0  0  0  0  0  0
  181.6650  175.2460  138.9010 C   0  0  0  0  0  3  0  0  0  0  0  0
  181.3740  178.0950  140.0180 C   0  0  0  0  0  2  0  0  0  0  0  0
  180.1550  178.3320  136.8770 C   0  0  0  0  0  2  0  0  0  0  0  0
  180.4560  176.0970  138.5560 C   0  0  1  0  0  0  0  0  0  0  0  0
  182.4110  177.1650  137.5600 C   0  0  2  0  0  3  0  0  0  0  0  0
  186.8770  178.0390  140.4940 C   0  0  0  0  0  2  0  0  0  0  0  0
  186.1200  179.1100  141.2890 C   0  0  0  0  0  2  0  0  0  0  0  0
  184.6860  178.8560  141.2460 N   0  0  0  0  0  2  0  0  0  0  0  0
  184.3570  177.9740  142.3480 C   0  0  0  0  0  1  0  0  0  0  0  0
  190.4160  176.2610  142.5920 C   0  0  0  0  0  2  0  0  0  0  0  0
  189.4920  176.6320  143.6680 N   0  0  0  0  0  2  0  0  0  0  0  0
  191.1110  177.5480  145.0830 O   0  0  0  0  0  0  0  0  0  0  0  0
  189.8980  177.2560  144.8970 C   0  0  0  0  0  0  0  0  0  0  0  0
  185.2180  178.3050  146.4830 C   0  0  0  0  0  1  0  0  0  0  0  0
  187.1430  178.1450  148.0520 C   0  0  0  0  0  3  0  0  0  0  0  0
  188.4760  177.8590  148.3350 C   0  0  0  0  0  3  0  0  0  0  0  0
  188.9150  177.5640  145.9650 C   0  0  0  0  0  0  0  0  0  0  0  0
  186.6680  178.0870  146.7370 C   0  0  0  0  0  0  0  0  0  0  0  0
  187.5470  177.7850  145.6880 C   0  0  0  0  0  0  0  0  0  0  0  0
  187.0650  177.6300  144.4230 F   0  0  0  0  0  0  0  0  0  0  0  0
  189.3520  177.5550  147.2980 C   0  0  0  0  0  3  0  0  0  0  0  0
  1 27  1  1  0  0  0
  1  4  1  0  0  0  0
  2  4  1  0  0  0  0
  2 51  1  1  0  0  0
  3  6  1  0  0  0  0
  5  1  1  0  0  0  0
  5  6  2  0  0  0  0
  6  2  1  0  0  0  0
  7  3  1  0  0  0  0
  8  9  1  0  0  0  0
  8 11  1  0  0  0  0
  9 10  2  0  0  0  0
 10 13  1  0  0  0  0
 10 12  1  0  0  0  0
 11 13  2  0  0  0  0
 12  7  1  0  0  0  0
 14 15  1  0  0  0  0
 14  8  1  0  0  0  0
 15 16  1  1  0  0  0
 17 20  1  0  0  0  0
 18 15  1  6  0  0  0
 18 17  1  0  0  0  0
 18 21  1  0  0  0  0
 19 24  1  1  0  0  0
 20 23  1  1  0  0  0
 20 19  1  0  0  0  0
 21 19  1  0  0  0  0
 22 23  1  0  0  0  0
 24 26  1  0  0  0  0
 26 25  1  0  0  0  0
 27 47  1  1  0  0  0
 28 30  1  0  0  0  0
 29 30  2  0  0  0  0
 30 27  1  0  0  0  0
 31 28  1  0  0  0  0
 32 31  1  0  0  0  0
 33 32  1  0  0  0  0
 34 33  1  0  0  0  0
 35 38  1  0  0  0  0
 36 43  1  1  0  0  0
 37 42  2  0  0  0  0
 38 43  1  0  0  0  0
 40 35  1  0  0  0  0
 41 44  1  6  0  0  0
 41 45  1  0  0  0  0
 41 36  1  0  0  0  0
 44 40  1  0  0  0  0
 45 39  1  6  0  0  0
 45 42  1  0  0  0  0
 45 36  1  0  0  0  0
 46 34  1  6  0  0  0
 46 41  1  0  0  0  0
 46 37  1  0  0  0  0
 47 48  1  0  0  0  0
 49 48  1  0  0  0  0
 49 50  1  0  0  0  0
 51 52  1  0  0  0  0
 52 54  1  0  0  0  0
 54 53  2  0  0  0  0
 54 58  1  0  0  0  0
 55 59  1  0  0  0  0
 56 57  1  0  0  0  0
 58 62  1  0  0  0  0
 59 56  2  0  0  0  0
 60 58  2  0  0  0  0
 60 59  1  0  0  0  0
 61 60  1  0  0  0  0
 62 57  2  0  0  0  0
M  END
>  <MODEL>
5

>  <REMARK>
 VINA RESULT:      -5.3      3.450      9.320
  Name = 
  21 active torsions:
  status: ('A' for Active; 'I' for Inactive)
    1  A    between atoms: N_1  and  C_54
    2  A    between atoms: C_3  and  C_60
    3  A    between atoms: C_3  and  C_62
    4  A    between atoms: C_5  and  C_18
    5  A    between atoms: C_5  and  C_20
    6  A    between atoms: C_6  and  C_44
    7  A    between atoms: C_6  and  C_60
    8  A    between atoms: C_7  and  C_47
    9  A    between atoms: C_8  and  C_54
   10  A    between atoms: N_11  and  C_20
   11  A    between atoms: C_14  and  C_38
   12  A    between atoms: N_15  and  C_44
   13  A    between atoms: C_19  and  N_24
   14  A    between atoms: C_19  and  N_55
   15  A    between atoms: N_21  and  C_46
   16  A    between atoms: O_26  and  C_31
   17  A    between atoms: C_30  and  C_53
   18  A    between atoms: C_31  and  C_36
   19  A    between atoms: C_39  and  C_46
   20  A    between atoms: C_39  and  C_47
   21  A    between atoms: C_47  and  C_49
                            x       y       z     vdW  Elec       q    Type
                         _______ _______ _______ _____ _____    ______ ____

>  <TORSDO>
F 21

$$$$
=
 OpenBabel11032419423D

 62 68  0  0  1  0  0  0  0  0999 V2000
  188.2160  177.0070  141.4790 C   0  0  1  0  0  3  0  0  0  0  0  0
  186.7650  177.5350  143.5890 C   0  0  2  0  0  3  0  0  0  0  0  0
  185.9250  179.6710  142.4820 N   0  0  0  0  0  2  0  0  0  0  0  0
  187.9420  176.2150  143.1050 S   0  0  0  0  0  0  0  0  0  0  0  0
  187.5600  178.3060  141.4890 N   0  0  0  0  0  0  0  0  0  0  0  0
  186.8190  178.5650  142.5120 C   0  0  0  0  0  0  0  0  0  0  0  0
  184.5820  179.4510  141.9560 C   0  0  0  0  0  2  0  0  0  0  0  0
  182.2970  176.8560  138.9570 N   0  0  0  0  0  0  0  0  0  0  0  0
  183.0610  176.7550  140.1130 N   0  0  0  0  0  0  0  0  0  0  0  0
  183.7180  177.8460  140.2890 C   0  0  0  0  0  0  0  0  0  0  0  0
  182.5440  178.1110  138.2690 C   0  0  0  0  0  3  0  0  0  0  0  0
  184.4630  178.0900  141.4850 N   0  0  0  0  0  2  0  0  0  0  0  0
  183.4230  178.8890  139.2530 C   0  0  0  0  0  3  0  0  0  0  0  0
  181.3700  175.8280  138.5390 C   0  0  0  0  0  2  0  0  0  0  0  0
  182.0610  174.6480  137.8670 C   0  0  1  0  0  3  0  0  0  0  0  0
  181.1800  173.6550  137.3980 O   0  0  0  0  0  1  0  0  0  0  0  0
  182.8430  174.3560  135.5750 O   0  0  0  0  0  0  0  0  0  0  0  0
  183.0150  175.0910  136.7650 C   0  0  2  0  0  3  0  0  0  0  0  0
  185.1590  174.9140  135.8900 C   0  0  1  0  0  3  0  0  0  0  0  0
  184.1170  174.2710  134.9530 C   0  0  1  0  0  3  0  0  0  0  0  0
  184.4550  174.9750  137.2090 C   0  0  0  0  0  2  0  0  0  0  0  0
  183.2120  171.9070  134.9640 C   0  0  0  0  0  1  0  0  0  0  0  0
  184.3990  172.7970  134.6000 C   0  0  0  0  0  2  0  0  0  0  0  0
  186.5240  174.2300  135.9830 C   0  0  0  0  0  2  0  0  0  0  0  0
  187.3760  175.9800  134.9300 C   0  0  0  0  0  1  0  0  0  0  0  0
  187.3320  174.5880  134.9130 O   0  0  0  0  0  0  0  0  0  0  0  0
  189.7080  177.0840  141.0980 C   0  0  1  0  0  3  0  0  0  0  0  0
  190.3770  176.3520  138.7810 N   0  0  0  0  0  2  0  0  0  0  0  0
  189.6220  178.5270  139.1780 O   0  0  0  0  0  0  0  0  0  0  0  0
  189.8670  177.3810  139.6410 C   0  0  0  0  0  0  0  0  0  0  0  0
  190.6420  176.4950  137.3700 C   0  0  0  0  0  2  0  0  0  0  0  0
  191.7130  175.5420  136.8780 C   0  0  0  0  0  2  0  0  0  0  0  0
  193.0460  176.1500  137.2450 C   0  0  0  0  0  2  0  0  0  0  0  0
  194.2200  175.5670  136.4640 C   0  0  0  0  0  2  0  0  0  0  0  0
  194.1060  171.7630  135.5700 C   0  0  0  0  0  2  0  0  0  0  0  0
  196.5140  172.3760  137.2630 C   0  0  2  0  0  3  0  0  0  0  0  0
  194.8600  174.5740  138.6490 C   0  0  0  0  0  3  0  0  0  0  0  0
  194.4590  170.9350  136.8580 C   0  0  0  0  0  2  0  0  0  0  0  0
  198.2190  174.1970  137.4030 O   0  0  0  0  0  1  0  0  0  0  0  0
  195.3460  172.1190  134.7040 C   0  0  0  0  0  2  0  0  0  0  0  0
  195.9890  173.7010  136.6460 C   0  0  2  0  0  0  0  0  0  0  0  0
  196.3140  174.3480  139.0060 C   0  0  0  0  0  3  0  0  0  0  0  0
  195.3350  171.6470  137.9110 C   0  0  0  0  0  2  0  0  0  0  0  0
  196.0830  173.4210  135.1350 C   0  0  0  0  0  2  0  0  0  0  0  0
  196.9660  173.7200  137.7880 C   0  0  1  0  0  0  0  0  0  0  0  0
  194.6740  174.2950  137.1760 C   0  0  2  0  0  3  0  0  0  0  0  0
  190.4880  178.1130  141.9410 C   0  0  0  0  0  2  0  0  0  0  0  0
  191.6690  177.4720  142.6770 C   0  0  0  0  0  2  0  0  0  0  0  0
  191.8860  178.1290  143.9590 N   0  0  0  0  0  2  0  0  0  0  0  0
  191.0570  179.3170  143.9970 C   0  0  0  0  0  1  0  0  0  0  0  0
  187.1600  178.1460  144.9300 C   0  0  0  0  0  2  0  0  0  0  0  0
  188.4750  177.6810  145.3830 N   0  0  0  0  0  2  0  0  0  0  0  0
  187.8790  177.3900  147.6240 O   0  0  0  0  0  0  0  0  0  0  0  0
  188.7810  177.3340  146.7440 C   0  0  0  0  0  0  0  0  0  0  0  0
  192.8440  177.6210  149.7320 C   0  0  0  0  0  1  0  0  0  0  0  0
  192.7250  176.0490  147.8050 C   0  0  0  0  0  3  0  0  0  0  0  0
  192.0380  175.4360  146.7610 C   0  0  0  0  0  3  0  0  0  0  0  0
  190.1470  176.9120  147.1420 C   0  0  0  0  0  0  0  0  0  0  0  0
  192.1150  177.0540  148.5650 C   0  0  0  0  0  0  0  0  0  0  0  0
  190.8190  177.4830  148.2450 C   0  0  0  0  0  0  0  0  0  0  0  0
  190.1890  178.3900  149.0440 F   0  0  0  0  0  0  0  0  0  0  0  0
  190.7500  175.8560  146.4430 C   0  0  0  0  0  3  0  0  0  0  0  0
  1 27  1  1  0  0  0
  1  5  1  0  0  0  0
  1  4  1  0  0  0  0
  2 51  1  1  0  0  0
  3  6  1  0  0  0  0
  4  2  1  0  0  0  0
  5  6  2  0  0  0  0
  6  2  1  0  0  0  0
  7  3  1  0  0  0  0
  8  9  1  0  0  0  0
  9 10  2  0  0  0  0
 10 12  1  0  0  0  0
 11  8  1  0  0  0  0
 11 13  2  0  0  0  0
 12  7  1  0  0  0  0
 13 10  1  0  0  0  0
 14  8  1  0  0  0  0
 15 16  1  6  0  0  0
 15 14  1  0  0  0  0
 17 18  1  0  0  0  0
 18 21  1  0  0  0  0
 18 15  1  1  0  0  0
 19 24  1  1  0  0  0
 19 21  1  0  0  0  0
 20 23  1  1  0  0  0
 20 17  1  0  0  0  0
 20 19  1  0  0  0  0
 23 22  1  0  0  0  0
 26 25  1  0  0  0  0
 26 24  1  0  0  0  0
 27 47  1  1  0  0  0
 28 30  1  0  0  0  0
 29 30  2  0  0  0  0
 30 27  1  0  0  0  0
 31 28  1  0  0  0  0
 32 33  1  0  0  0  0
 32 31  1  0  0  0  0
 34 33  1  0  0  0  0
 35 38  1  0  0  0  0
 36 45  1  0  0  0  0
 36 43  1  1  0  0  0
 37 42  2  0  0  0  0
 38 43  1  0  0  0  0
 40 44  1  0  0  0  0
 40 35  1  0  0  0  0
 41 44  1  6  0  0  0
 41 46  1  0  0  0  0
 41 36  1  0  0  0  0
 41 45  1  0  0  0  0
 45 39  1  6  0  0  0
 45 42  1  0  0  0  0
 46 34  1  6  0  0  0
 46 37  1  0  0  0  0
 47 48  1  0  0  0  0
 48 49  1  0  0  0  0
 49 50  1  0  0  0  0
 51 52  1  0  0  0  0
 52 54  1  0  0  0  0
 54 58  1  0  0  0  0
 54 53  2  0  0  0  0
 56 59  1  0  0  0  0
 57 56  2  0  0  0  0
 58 60  1  0  0  0  0
 59 55  1  0  0  0  0
 60 59  2  0  0  0  0
 60 61  1  0  0  0  0
 62 57  1  0  0  0  0
 62 58  2  0  0  0  0
M  END
>  <MODEL>
6

>  <REMARK>
 VINA RESULT:      -5.2      3.594      9.898
  Name = 
  21 active torsions:
  status: ('A' for Active; 'I' for Inactive)
    1  A    between atoms: N_1  and  C_54
    2  A    between atoms: C_3  and  C_60
    3  A    between atoms: C_3  and  C_62
    4  A    between atoms: C_5  and  C_18
    5  A    between atoms: C_5  and  C_20
    6  A    between atoms: C_6  and  C_44
    7  A    between atoms: C_6  and  C_60
    8  A    between atoms: C_7  and  C_47
    9  A    between atoms: C_8  and  C_54
   10  A    between atoms: N_11  and  C_20
   11  A    between atoms: C_14  and  C_38
   12  A    between atoms: N_15  and  C_44
   13  A    between atoms: C_19  and  N_24
   14  A    between atoms: C_19  and  N_55
   15  A    between atoms: N_21  and  C_46
   16  A    between atoms: O_26  and  C_31
   17  A    between atoms: C_30  and  C_53
   18  A    between atoms: C_31  and  C_36
   19  A    between atoms: C_39  and  C_46
   20  A    between atoms: C_39  and  C_47
   21  A    between atoms: C_47  and  C_49
                            x       y       z     vdW  Elec       q    Type
                         _______ _______ _______ _____ _____    ______ ____

>  <TORSDO>
F 21

$$$$
=
 OpenBabel11032419423D

 62 68  0  0  1  0  0  0  0  0999 V2000
  189.4290  176.9750  142.2120 C   0  0  1  0  0  3  0  0  0  0  0  0
  186.8460  177.2460  142.5170 C   0  0  2  0  0  3  0  0  0  0  0  0
  186.8390  179.1340  140.8060 N   0  0  0  0  0  2  0  0  0  0  0  0
  188.1480  176.1840  143.2520 S   0  0  0  0  0  0  0  0  0  0  0  0
  188.8250  178.1110  141.5320 N   0  0  0  0  0  0  0  0  0  0  0  0
  187.5480  178.2380  141.6510 C   0  0  0  0  0  0  0  0  0  0  0  0
  186.3560  178.6290  139.5250 C   0  0  0  0  0  2  0  0  0  0  0  0
  182.7540  177.8620  136.8080 N   0  0  0  0  0  0  0  0  0  0  0  0
  183.0910  178.4680  138.0120 N   0  0  0  0  0  0  0  0  0  0  0  0
  184.2370  178.0360  138.4020 C   0  0  0  0  0  0  0  0  0  0  0  0
  183.7480  176.8780  136.4150 C   0  0  0  0  0  3  0  0  0  0  0  0
  184.9110  178.6060  139.5270 N   0  0  0  0  0  2  0  0  0  0  0  0
  184.8720  177.0820  137.4360 C   0  0  0  0  0  3  0  0  0  0  0  0
  181.5660  178.2120  136.0600 C   0  0  0  0  0  2  0  0  0  0  0  0
  180.3550  178.4470  136.9540 C   0  0  1  0  0  3  0  0  0  0  0  0
  179.6090  179.5950  136.6230 O   0  0  0  0  0  1  0  0  0  0  0  0
  179.0710  176.9260  138.3630 O   0  0  0  0  0  0  0  0  0  0  0  0
  179.4550  177.2210  137.0390 C   0  0  2  0  0  3  0  0  0  0  0  0
  179.3640  174.9010  137.1020 C   0  0  1  0  0  3  0  0  0  0  0  0
  178.9310  175.5150  138.4470 C   0  0  1  0  0  3  0  0  0  0  0  0
  180.1270  176.0070  136.4410 C   0  0  0  0  0  2  0  0  0  0  0  0
  180.9560  175.8850  139.9220 C   0  0  0  0  0  1  0  0  0  0  0  0
  179.7300  175.0100  139.6660 C   0  0  0  0  0  2  0  0  0  0  0  0
  180.1560  173.5940  137.1570 C   0  0  0  0  0  2  0  0  0  0  0  0
  181.3160  172.0980  136.0110 C   0  0  0  0  0  1  0  0  0  0  0  0
  180.3110  173.0540  135.8880 O   0  0  0  0  0  0  0  0  0  0  0  0
  190.6960  177.3480  143.0080 C   0  0  1  0  0  3  0  0  0  0  0  0
  191.9160  177.6790  140.8290 N   0  0  0  0  0  2  0  0  0  0  0  0
  192.9180  176.5280  142.5980 O   0  0  0  0  0  0  0  0  0  0  0  0
  191.9200  177.1690  142.1690 C   0  0  0  0  0  0  0  0  0  0  0  0
  192.9910  177.5390  139.8760 C   0  0  0  0  0  2  0  0  0  0  0  0
  192.5940  176.7170  138.6650 C   0  0  0  0  0  2  0  0  0  0  0  0
  191.0840  176.7020  138.6210 C   0  0  0  0  0  2  0  0  0  0  0  0
  190.4870  175.2970  138.6450 C   0  0  0  0  0  2  0  0  0  0  0  0
  187.9700  172.9190  136.8300 C   0  0  0  0  0  2  0  0  0  0  0  0
  188.8940  175.0930  134.9700 C   0  0  2  0  0  3  0  0  0  0  0  0
  191.6030  175.0650  136.4380 C   0  0  0  0  0  3  0  0  0  0  0  0
  188.5190  172.6140  135.3890 C   0  0  0  0  0  2  0  0  0  0  0  0
  189.3440  177.5460  135.1270 O   0  0  0  0  0  1  0  0  0  0  0  0
  187.0400  174.1630  136.8890 C   0  0  0  0  0  2  0  0  0  0  0  0
  189.1880  175.5300  136.4310 C   0  0  2  0  0  0  0  0  0  0  0  0
  191.3300  176.0490  135.3210 C   0  0  0  0  0  3  0  0  0  0  0  0
  189.4470  173.6810  134.7710 C   0  0  0  0  0  2  0  0  0  0  0  0
  187.7850  175.5190  137.0670 C   0  0  0  0  0  2  0  0  0  0  0  0
  189.8260  176.2460  135.2750 C   0  0  1  0  0  0  0  0  0  0  0  0
  190.3190  174.8310  137.2010 C   0  0  2  0  0  3  0  0  0  0  0  0
  190.6440  178.7800  143.5780 C   0  0  0  0  0  2  0  0  0  0  0  0
  190.7210  178.7900  145.1090 C   0  0  0  0  0  2  0  0  0  0  0  0
  190.6950  177.4290  145.6280 N   0  0  0  0  0  2  0  0  0  0  0  0
  189.6080  177.3370  146.5810 C   0  0  0  0  0  1  0  0  0  0  0  0
  186.0500  177.9590  143.6070 C   0  0  0  0  0  2  0  0  0  0  0  0
  184.6080  177.9360  143.3420 N   0  0  0  0  0  2  0  0  0  0  0  0
  184.2150  180.1690  143.9060 O   0  0  0  0  0  0  0  0  0  0  0  0
  183.7390  179.0640  143.5270 C   0  0  0  0  0  0  0  0  0  0  0  0
  179.6980  179.2550  140.5010 C   0  0  0  0  0  1  0  0  0  0  0  0
  179.5110  178.7430  142.9300 C   0  0  0  0  0  3  0  0  0  0  0  0
  180.0730  178.4720  144.1740 C   0  0  0  0  0  3  0  0  0  0  0  0
  182.2790  178.9590  143.2820 C   0  0  0  0  0  0  0  0  0  0  0  0
  180.3240  179.0650  141.8370 C   0  0  0  0  0  0  0  0  0  0  0  0
  181.7130  179.1640  142.0040 C   0  0  0  0  0  0  0  0  0  0  0  0
  182.5120  179.3790  140.9220 F   0  0  0  0  0  0  0  0  0  0  0  0
  181.4510  178.5650  144.3440 C   0  0  0  0  0  3  0  0  0  0  0  0
  1 27  1  1  0  0  0
  1  4  1  0  0  0  0
  2  4  1  0  0  0  0
  2 51  1  1  0  0  0
  3  6  1  0  0  0  0
  5  6  2  0  0  0  0
  5  1  1  0  0  0  0
  6  2  1  0  0  0  0
  7 12  1  0  0  0  0
  7  3  1  0  0  0  0
  8  9  1  0  0  0  0
  9 10  2  0  0  0  0
 10 12  1  0  0  0  0
 11  8  1  0  0  0  0
 11 13  2  0  0  0  0
 13 10  1  0  0  0  0
 14  8  1  0  0  0  0
 14 15  1  0  0  0  0
 15 16  1  6  0  0  0
 17 20  1  0  0  0  0
 18 15  1  1  0  0  0
 18 17  1  0  0  0  0
 19 24  1  1  0  0  0
 19 20  1  0  0  0  0
 20 23  1  1  0  0  0
 21 18  1  0  0  0  0
 21 19  1  0  0  0  0
 23 22  1  0  0  0  0
 26 25  1  0  0  0  0
 26 24  1  0  0  0  0
 27 47  1  6  0  0  0
 28 30  1  0  0  0  0
 30 29  2  0  0  0  0
 30 27  1  0  0  0  0
 31 28  1  0  0  0  0
 32 31  1  0  0  0  0
 33 34  1  0  0  0  0
 33 32  1  0  0  0  0
 35 40  1  0  0  0  0
 36 43  1  1  0  0  0
 36 45  1  0  0  0  0
 36 41  1  0  0  0  0
 37 46  1  0  0  0  0
 38 35  1  0  0  0  0
 40 44  1  0  0  0  0
 41 44  1  1  0  0  0
 41 46  1  0  0  0  0
 42 37  2  0  0  0  0
 43 38  1  0  0  0  0
 45 39  1  6  0  0  0
 45 42  1  0  0  0  0
 45 41  1  0  0  0  0
 46 34  1  1  0  0  0
 47 48  1  0  0  0  0
 48 49  1  0  0  0  0
 49 50  1  0  0  0  0
 52 54  1  0  0  0  0
 52 51  1  0  0  0  0
 54 53  2  0  0  0  0
 55 59  1  0  0  0  0
 56 57  1  0  0  0  0
 57 62  2  0  0  0  0
 58 54  1  0  0  0  0
 58 62  1  0  0  0  0
 59 60  1  0  0  0  0
 59 56  2  0  0  0  0
 60 58  2  0  0  0  0
 61 60  1  0  0  0  0
M  END
>  <MODEL>
7

>  <REMARK>
 VINA RESULT:      -5.2      2.926      8.844
  Name = 
  21 active torsions:
  status: ('A' for Active; 'I' for Inactive)
    1  A    between atoms: N_1  and  C_54
    2  A    between atoms: C_3  and  C_60
    3  A    between atoms: C_3  and  C_62
    4  A    between atoms: C_5  and  C_18
    5  A    between atoms: C_5  and  C_20
    6  A    between atoms: C_6  and  C_44
    7  A    between atoms: C_6  and  C_60
    8  A    between atoms: C_7  and  C_47
    9  A    between atoms: C_8  and  C_54
   10  A    between atoms: N_11  and  C_20
   11  A    between atoms: C_14  and  C_38
   12  A    between atoms: N_15  and  C_44
   13  A    between atoms: C_19  and  N_24
   14  A    between atoms: C_19  and  N_55
   15  A    between atoms: N_21  and  C_46
   16  A    between atoms: O_26  and  C_31
   17  A    between atoms: C_30  and  C_53
   18  A    between atoms: C_31  and  C_36
   19  A    between atoms: C_39  and  C_46
   20  A    between atoms: C_39  and  C_47
   21  A    between atoms: C_47  and  C_49
                            x       y       z     vdW  Elec       q    Type
                         _______ _______ _______ _____ _____    ______ ____

>  <TORSDO>
F 21

$$$$
=
 OpenBabel11032419423D

 62 68  0  0  1  0  0  0  0  0999 V2000
  184.0340  177.1060  139.2650 C   0  0  1  0  0  3  0  0  0  0  0  0
  181.6690  176.0800  138.8230 C   0  0  2  0  0  3  0  0  0  0  0  0
  182.4960  175.1170  136.6140 N   0  0  0  0  0  2  0  0  0  0  0  0
  182.4270  177.1090  140.1390 S   0  0  0  0  0  0  0  0  0  0  0  0
  183.8380  176.5020  137.9550 N   0  0  0  0  0  0  0  0  0  0  0  0
  182.6860  175.9680  137.7370 C   0  0  0  0  0  0  0  0  0  0  0  0
  182.7770  173.6950  136.7780 C   0  0  0  0  0  2  0  0  0  0  0  0
  187.2750  173.5820  135.9430 N   0  0  0  0  0  0  0  0  0  0  0  0
  186.0520  173.4920  135.2910 N   0  0  0  0  0  0  0  0  0  0  0  0
  185.1250  173.2560  136.1500 C   0  0  0  0  0  0  0  0  0  0  0  0
  187.1410  173.2980  137.3610 C   0  0  0  0  0  3  0  0  0  0  0  0
  183.7420  173.2750  135.7880 N   0  0  0  0  0  2  0  0  0  0  0  0
  185.6250  173.2100  137.5630 C   0  0  0  0  0  3  0  0  0  0  0  0
  188.5010  173.9380  135.2620 C   0  0  0  0  0  2  0  0  0  0  0  0
  189.5960  174.3940  136.2190 C   0  0  1  0  0  3  0  0  0  0  0  0
  189.9330  173.4460  137.2030 O   0  0  0  0  0  1  0  0  0  0  0  0
  191.7100  173.8230  135.1450 O   0  0  0  0  0  0  0  0  0  0  0  0
  190.8390  174.8780  135.4820 C   0  0  2  0  0  3  0  0  0  0  0  0
  192.9590  175.8030  135.6880 C   0  0  1  0  0  3  0  0  0  0  0  0
  193.0300  174.3470  135.1860 C   0  0  1  0  0  3  0  0  0  0  0  0
  191.5970  175.8980  136.3000 C   0  0  0  0  0  2  0  0  0  0  0  0
  194.0240  172.0300  135.4180 C   0  0  0  0  0  1  0  0  0  0  0  0
  193.9060  173.4160  136.0490 C   0  0  0  0  0  2  0  0  0  0  0  0
  194.0640  176.2640  136.6390 C   0  0  0  0  0  2  0  0  0  0  0  0
  194.9170  176.9360  134.7110 C   0  0  0  0  0  1  0  0  0  0  0  0
  194.8290  177.2670  136.0610 O   0  0  0  0  0  0  0  0  0  0  0  0
  184.6780  178.5050  139.1970 C   0  0  1  0  0  3  0  0  0  0  0  0
  184.5320  178.9980  141.6640 N   0  0  0  0  0  2  0  0  0  0  0  0
  186.5860  179.0540  140.5520 O   0  0  0  0  0  0  0  0  0  0  0  0
  185.3440  178.8440  140.4920 C   0  0  0  0  0  0  0  0  0  0  0  0
  185.0110  179.3770  142.9720 C   0  0  0  0  0  2  0  0  0  0  0  0
  185.4230  178.1840  143.8120 C   0  0  0  0  0  2  0  0  0  0  0  0
  186.9310  178.1110  143.7610 C   0  0  0  0  0  2  0  0  0  0  0  0
  187.4760  176.6870  143.8420 C   0  0  0  0  0  2  0  0  0  0  0  0
  190.9070  174.9260  143.2030 C   0  0  0  0  0  2  0  0  0  0  0  0
  191.3310  177.6710  144.3540 C   0  0  2  0  0  3  0  0  0  0  0  0
  188.6960  177.3190  145.9120 C   0  0  0  0  0  3  0  0  0  0  0  0
  191.8400  175.1820  144.4410 C   0  0  0  0  0  2  0  0  0  0  0  0
  190.3270  179.9400  144.0540 O   0  0  0  0  0  1  0  0  0  0  0  0
  191.0430  176.0030  142.0910 C   0  0  0  0  0  2  0  0  0  0  0  0
  189.8910  177.5890  143.7790 C   0  0  2  0  0  0  0  0  0  0  0  0
  189.4830  178.6100  145.9880 C   0  0  0  0  0  3  0  0  0  0  0  0
  191.5550  176.4590  145.2600 C   0  0  0  0  0  2  0  0  0  0  0  0
  190.1450  177.2590  142.2960 C   0  0  0  0  0  2  0  0  0  0  0  0
  190.2840  178.7060  144.7030 C   0  0  1  0  0  0  0  0  0  0  0  0
  188.8430  176.7450  144.5220 C   0  0  2  0  0  3  0  0  0  0  0  0
  185.6760  178.6490  138.0300 C   0  0  0  0  0  2  0  0  0  0  0  0
  186.8770  177.7100  138.1870 C   0  0  0  0  0  2  0  0  0  0  0  0
  187.4230  177.3610  136.8820 N   0  0  0  0  0  2  0  0  0  0  0  0
  186.5120  177.8590  135.8710 C   0  0  0  0  0  1  0  0  0  0  0  0
  180.3950  176.7320  138.2950 C   0  0  0  0  0  2  0  0  0  0  0  0
  180.4980  178.1940  138.2530 N   0  0  0  0  0  2  0  0  0  0  0  0
  180.6930  178.3650  135.9310 O   0  0  0  0  0  0  0  0  0  0  0  0
  180.6630  178.9550  137.0460 C   0  0  0  0  0  0  0  0  0  0  0  0
  180.7500  183.4800  134.8020 C   0  0  0  0  0  1  0  0  0  0  0  0
  181.0950  183.2100  137.2530 C   0  0  0  0  0  3  0  0  0  0  0  0
  181.1210  182.4380  138.4110 C   0  0  0  0  0  3  0  0  0  0  0  0
  180.8060  180.4310  137.0800 C   0  0  0  0  0  0  0  0  0  0  0  0
  180.8660  182.6140  136.0070 C   0  0  0  0  0  0  0  0  0  0  0  0
  180.7090  181.2240  135.9150 C   0  0  0  0  0  0  0  0  0  0  0  0
  180.3870  180.6560  134.7180 F   0  0  0  0  0  0  0  0  0  0  0  0
  180.9610  181.0590  138.3250 C   0  0  0  0  0  3  0  0  0  0  0  0
  1 27  1  6  0  0  0
  1  4  1  0  0  0  0
  2 51  1  6  0  0  0
  2  4  1  0  0  0  0
  3  7  1  0  0  0  0
  3  6  1  0  0  0  0
  5  1  1  0  0  0  0
  6  5  2  0  0  0  0
  6  2  1  0  0  0  0
  8 11  1  0  0  0  0
  9  8  1  0  0  0  0
  9 10  2  0  0  0  0
 10 13  1  0  0  0  0
 11 13  2  0  0  0  0
 12 10  1  0  0  0  0
 12  7  1  0  0  0  0
 14  8  1  0  0  0  0
 14 15  1  0  0  0  0
 15 16  1  1  0  0  0
 17 20  1  0  0  0  0
 17 18  1  0  0  0  0
 18 15  1  1  0  0  0
 18 21  1  0  0  0  0
 19 21  1  0  0  0  0
 19 24  1  1  0  0  0
 20 19  1  0  0  0  0
 20 23  1  1  0  0  0
 22 23  1  0  0  0  0
 25 26  1  0  0  0  0
 26 24  1  0  0  0  0
 27 47  1  6  0  0  0
 27 30  1  0  0  0  0
 28 31  1  0  0  0  0
 30 29  2  0  0  0  0
 30 28  1  0  0  0  0
 31 32  1  0  0  0  0
 33 32  1  0  0  0  0
 33 34  1  0  0  0  0
 35 38  1  0  0  0  0
 36 45  1  0  0  0  0
 36 43  1  1  0  0  0
 37 42  2  0  0  0  0
 38 43  1  0  0  0  0
 40 44  1  0  0  0  0
 40 35  1  0  0  0  0
 41 44  1  6  0  0  0
 41 36  1  0  0  0  0
 41 46  1  0  0  0  0
 41 45  1  0  0  0  0
 45 39  1  6  0  0  0
 45 42  1  0  0  0  0
 46 34  1  6  0  0  0
 46 37  1  0  0  0  0
 47 48  1  0  0  0  0
 49 48  1  0  0  0  0
 50 49  1  0  0  0  0
 52 51  1  0  0  0  0
 53 54  2  0  0  0  0
 54 58  1  0  0  0  0
 54 52  1  0  0  0  0
 55 59  1  0  0  0  0
 56 57  1  0  0  0  0
 58 62  1  0  0  0  0
 59 56  2  0  0  0  0
 60 59  1  0  0  0  0
 60 58  2  0  0  0  0
 61 60  1  0  0  0  0
 62 57  2  0  0  0  0
M  END
>  <MODEL>
8

>  <REMARK>
 VINA RESULT:      -5.1      1.562      2.217
  Name = 
  21 active torsions:
  status: ('A' for Active; 'I' for Inactive)
    1  A    between atoms: N_1  and  C_54
    2  A    between atoms: C_3  and  C_60
    3  A    between atoms: C_3  and  C_62
    4  A    between atoms: C_5  and  C_18
    5  A    between atoms: C_5  and  C_20
    6  A    between atoms: C_6  and  C_44
    7  A    between atoms: C_6  and  C_60
    8  A    between atoms: C_7  and  C_47
    9  A    between atoms: C_8  and  C_54
   10  A    between atoms: N_11  and  C_20
   11  A    between atoms: C_14  and  C_38
   12  A    between atoms: N_15  and  C_44
   13  A    between atoms: C_19  and  N_24
   14  A    between atoms: C_19  and  N_55
   15  A    between atoms: N_21  and  C_46
   16  A    between atoms: O_26  and  C_31
   17  A    between atoms: C_30  and  C_53
   18  A    between atoms: C_31  and  C_36
   19  A    between atoms: C_39  and  C_46
   20  A    between atoms: C_39  and  C_47
   21  A    between atoms: C_47  and  C_49
                            x       y       z     vdW  Elec       q    Type
                         _______ _______ _______ _____ _____    ______ ____

>  <TORSDO>
F 21

$$$$
=
 OpenBabel11032419423D

 62 68  0  0  1  0  0  0  0  0999 V2000
  190.3660  176.4490  139.2950 C   0  0  1  0  0  3  0  0  0  0  0  0
  188.1750  177.8750  139.2960 C   0  0  2  0  0  3  0  0  0  0  0  0
  188.7700  178.7980  136.9970 N   0  0  0  0  0  2  0  0  0  0  0  0
  188.9900  176.7240  140.4680 S   0  0  0  0  0  0  0  0  0  0  0  0
  190.2190  177.3870  138.1930 N   0  0  0  0  0  0  0  0  0  0  0  0
  189.1290  178.0750  138.1670 C   0  0  0  0  0  0  0  0  0  0  0  0
  187.9900  178.1060  135.9780 C   0  0  0  0  0  2  0  0  0  0  0  0
  184.1210  175.7030  136.4270 N   0  0  0  0  0  0  0  0  0  0  0  0
  184.5700  176.9990  136.2090 N   0  0  0  0  0  0  0  0  0  0  0  0
  185.8110  177.0830  136.5310 C   0  0  0  0  0  0  0  0  0  0  0  0
  185.1560  174.8790  137.0270 C   0  0  0  0  0  3  0  0  0  0  0  0
  186.5810  178.2570  136.2600 N   0  0  0  0  0  2  0  0  0  0  0  0
  186.3970  175.7770  136.9770 C   0  0  0  0  0  3  0  0  0  0  0  0
  182.7910  175.2630  136.0670 C   0  0  0  0  0  2  0  0  0  0  0  0
  181.7190  176.2930  136.4030 C   0  0  1  0  0  3  0  0  0  0  0  0
  180.6100  175.7660  137.0930 O   0  0  0  0  0  1  0  0  0  0  0  0
  182.3120  177.3220  138.5330 O   0  0  0  0  0  0  0  0  0  0  0  0
  182.2900  177.5000  137.1350 C   0  0  2  0  0  3  0  0  0  0  0  0
  181.8560  179.6170  137.9860 C   0  0  1  0  0  3  0  0  0  0  0  0
  182.1190  178.6030  139.1160 C   0  0  1  0  0  3  0  0  0  0  0  0
  181.5110  178.7540  136.8130 C   0  0  0  0  0  2  0  0  0  0  0  0
  181.5480  178.1730  141.5450 C   0  0  0  0  0  1  0  0  0  0  0  0
  180.9900  178.5060  140.1630 C   0  0  0  0  0  2  0  0  0  0  0  0
  180.8050  180.6960  138.2520 C   0  0  0  0  0  2  0  0  0  0  0  0
  180.2630  182.2200  136.7420 C   0  0  0  0  0  1  0  0  0  0  0  0
  181.2020  181.9160  137.7240 O   0  0  0  0  0  0  0  0  0  0  0  0
  191.7500  176.5200  139.9720 C   0  0  1  0  0  3  0  0  0  0  0  0
  192.9800  176.1540  137.8040 N   0  0  0  0  0  2  0  0  0  0  0  0
  193.5550  177.9180  139.2230 O   0  0  0  0  0  0  0  0  0  0  0  0
  192.7980  176.9370  138.9910 C   0  0  0  0  0  0  0  0  0  0  0  0
  193.9810  176.3880  136.7910 C   0  0  0  0  0  2  0  0  0  0  0  0
  194.6130  175.1050  136.2870 C   0  0  0  0  0  2  0  0  0  0  0  0
  195.8870  175.4930  135.5760 C   0  0  0  0  0  2  0  0  0  0  0  0
  196.6850  174.3000  135.0570 C   0  0  0  0  0  2  0  0  0  0  0  0
  194.1290  171.6770  136.4250 C   0  0  0  0  0  2  0  0  0  0  0  0
  196.9420  170.6520  136.7040 C   0  0  2  0  0  3  0  0  0  0  0  0
  197.8600  173.5630  137.1180 C   0  0  0  0  0  3  0  0  0  0  0  0
  194.6810  171.0980  137.7780 C   0  0  0  0  0  2  0  0  0  0  0  0
  199.0240  170.6660  135.3220 O   0  0  0  0  0  1  0  0  0  0  0  0
  194.5750  170.8670  135.1770 C   0  0  0  0  0  2  0  0  0  0  0  0
  196.9340  171.8070  135.6660 C   0  0  2  0  0  0  0  0  0  0  0  0
  198.8590  172.4270  137.0810 C   0  0  0  0  0  3  0  0  0  0  0  0
  196.2140  171.1300  137.9610 C   0  0  0  0  0  2  0  0  0  0  0  0
  195.9580  171.2830  134.5960 C   0  0  0  0  0  2  0  0  0  0  0  0
  198.2240  171.3190  136.2600 C   0  0  1  0  0  0  0  0  0  0  0  0
  196.7320  173.2480  136.1630 C   0  0  2  0  0  3  0  0  0  0  0  0
  191.7660  177.4530  141.2000 C   0  0  0  0  0  2  0  0  0  0  0  0
  192.0910  176.6930  142.4910 C   0  0  0  0  0  2  0  0  0  0  0  0
  191.2630  177.1760  143.5880 N   0  0  0  0  0  2  0  0  0  0  0  0
  190.9160  178.5550  143.3090 C   0  0  0  0  0  1  0  0  0  0  0  0
  187.8650  179.2070  139.9740 C   0  0  0  0  0  2  0  0  0  0  0  0
  187.4940  179.0370  141.3820 N   0  0  0  0  0  2  0  0  0  0  0  0
  185.2220  178.6490  140.9970 O   0  0  0  0  0  0  0  0  0  0  0  0
  186.1550  178.7780  141.8360 C   0  0  0  0  0  0  0  0  0  0  0  0
  187.1680  177.1200  146.4990 C   0  0  0  0  0  1  0  0  0  0  0  0
  185.1570  178.4960  145.9900 C   0  0  0  0  0  3  0  0  0  0  0  0
  184.3810  179.2630  145.1250 C   0  0  0  0  0  3  0  0  0  0  0  0
  185.8420  178.6600  143.2810 C   0  0  0  0  0  0  0  0  0  0  0  0
  186.3110  177.8530  145.5280 C   0  0  0  0  0  0  0  0  0  0  0  0
  186.6670  177.9410  144.1750 C   0  0  0  0  0  0  0  0  0  0  0  0
  187.8420  177.4000  143.7460 F   0  0  0  0  0  0  0  0  0  0  0  0
  184.7310  179.3560  143.7820 C   0  0  0  0  0  3  0  0  0  0  0  0
  1 27  1  1  0  0  0
  1  4  1  0  0  0  0
  2 51  1  1  0  0  0
  2  4  1  0  0  0  0
  3  6  1  0  0  0  0
  5  1  1  0  0  0  0
  6  5  2  0  0  0  0
  6  2  1  0  0  0  0
  7 12  1  0  0  0  0
  7  3  1  0  0  0  0
  8 11  1  0  0  0  0
  9  8  1  0  0  0  0
  9 10  2  0  0  0  0
 10 13  1  0  0  0  0
 12 10  1  0  0  0  0
 13 11  2  0  0  0  0
 14 15  1  0  0  0  0
 14  8  1  0  0  0  0
 15 16  1  1  0  0  0
 17 20  1  0  0  0  0
 18 15  1  6  0  0  0
 18 17  1  0  0  0  0
 19 24  1  1  0  0  0
 19 20  1  0  0  0  0
 20 23  1  1  0  0  0
 21 18  1  0  0  0  0
 21 19  1  0  0  0  0
 23 22  1  0  0  0  0
 25 26  1  0  0  0  0
 26 24  1  0  0  0  0
 27 47  1  1  0  0  0
 28 30  1  0  0  0  0
 30 29  2  0  0  0  0
 30 27  1  0  0  0  0
 31 28  1  0  0  0  0
 32 31  1  0  0  0  0
 33 32  1  0  0  0  0
 34 33  1  0  0  0  0
 35 38  1  0  0  0  0
 36 43  1  1  0  0  0
 38 43  1  0  0  0  0
 40 35  1  0  0  0  0
 41 44  1  6  0  0  0
 41 46  1  0  0  0  0
 41 45  1  0  0  0  0
 41 36  1  0  0  0  0
 42 37  2  0  0  0  0
 44 40  1  0  0  0  0
 45 39  1  6  0  0  0
 45 36  1  0  0  0  0
 45 42  1  0  0  0  0
 46 34  1  6  0  0  0
 46 37  1  0  0  0  0
 47 48  1  0  0  0  0
 48 49  1  0  0  0  0
 50 49  1  0  0  0  0
 51 52  1  0  0  0  0
 52 54  1  0  0  0  0
 53 54  2  0  0  0  0
 54 58  1  0  0  0  0
 57 56  2  0  0  0  0
 58 62  2  0  0  0  0
 58 60  1  0  0  0  0
 59 56  1  0  0  0  0
 59 55  1  0  0  0  0
 60 59  2  0  0  0  0
 61 60  1  0  0  0  0
 62 57  1  0  0  0  0
M  END
>  <MODEL>
9

>  <REMARK>
 VINA RESULT:      -4.8      3.231      9.868
  Name = 
  21 active torsions:
  status: ('A' for Active; 'I' for Inactive)
    1  A    between atoms: N_1  and  C_54
    2  A    between atoms: C_3  and  C_60
    3  A    between atoms: C_3  and  C_62
    4  A    between atoms: C_5  and  C_18
    5  A    between atoms: C_5  and  C_20
    6  A    between atoms: C_6  and  C_44
    7  A    between atoms: C_6  and  C_60
    8  A    between atoms: C_7  and  C_47
    9  A    between atoms: C_8  and  C_54
   10  A    between atoms: N_11  and  C_20
   11  A    between atoms: C_14  and  C_38
   12  A    between atoms: N_15  and  C_44
   13  A    between atoms: C_19  and  N_24
   14  A    between atoms: C_19  and  N_55
   15  A    between atoms: N_21  and  C_46
   16  A    between atoms: O_26  and  C_31
   17  A    between atoms: C_30  and  C_53
   18  A    between atoms: C_31  and  C_36
   19  A    between atoms: C_39  and  C_46
   20  A    between atoms: C_39  and  C_47
   21  A    between atoms: C_47  and  C_49
                            x       y       z     vdW  Elec       q    Type
                         _______ _______ _______ _____ _____    ______ ____

>  <TORSDO>
F 21

$$$$
