=
 OpenBabel11042411133D

 54 61  0  0  1  0  0  0  0  0999 V2000
  187.9150  179.4780  136.7940 C   0  0  0  0  0  2  0  0  0  0  0  0
  190.3190  177.7150  144.4620 C   0  0  0  0  0  0  0  0  0  0  0  0
  188.5270  175.9300  136.9080 C   0  0  1  0  0  3  0  0  0  0  0  0
  186.5530  178.9270  136.4230 C   0  0  1  0  0  3  0  0  0  0  0  0
  191.7940  175.8180  137.9860 C   0  0  0  0  0  2  0  0  0  0  0  0
  190.4940  176.0570  139.9570 O   0  0  0  0  0  0  0  0  0  0  0  0
  192.4480  173.6130  136.8380 N   0  0  0  0  0  2  0  0  0  0  0  0
  187.7050  176.6470  143.7240 C   0  0  1  0  0  3  0  0  0  0  0  0
  191.4670  177.6040  141.5090 C   0  0  0  0  0  2  0  0  0  0  0  0
  186.6190  177.4500  136.7680 C   0  0  1  0  0  3  0  0  0  0  0  0
  189.0690  175.4520  143.5340 S   0  0  0  0  0  0  0  0  0  0  0  0
  187.9260  177.4520  144.9740 C   0  0  0  0  0  3  0  0  0  0  0  0
  189.1200  177.9500  145.3020 C   0  0  0  0  0  0  0  0  0  0  0  0
  190.2200  174.2190  137.3670 N   0  0  0  0  0  0  0  0  0  0  0  0
  191.3980  178.5860  144.5750 O   0  0  0  0  0  1  0  0  0  0  0  0
  187.9090  177.1690  137.4220 N   0  0  2  0  0  0  0  0  0  0  0  0
  186.2420  178.7510  138.9710 C   0  0  0  0  0  2  0  0  0  0  0  0
  185.7150  178.3780  137.5860 C   0  0  1  0  0  3  0  0  0  0  0  0
  189.4310  175.2780  137.9720 C   0  0  1  0  0  3  0  0  0  0  0  0
  188.7820  178.2660  137.0200 C   0  0  0  0  0  2  0  0  0  0  0  0
  184.4180  178.2940  140.7000 C   0  0  1  0  0  3  0  0  0  0  0  0
  190.3450  177.3310  140.5140 C   0  0  0  0  0  2  0  0  0  0  0  0
  190.3610  176.7090  143.5710 C   0  0  0  0  0  0  0  0  0  0  0  0
  185.3920  177.3840  141.4470 C   0  0  0  0  0  2  0  0  0  0  0  0
  186.2550  178.1970  142.3930 C   0  0  0  0  0  2  0  0  0  0  0  0
  190.4560  176.2470  138.5730 C   0  0  2  0  0  3  0  0  0  0  0  0
  191.4720  174.5100  137.3700 C   0  0  0  0  0  0  0  0  0  0  0  0
  187.6220  177.5520  142.5020 C   0  0  0  0  0  2  0  0  0  0  0  0
  185.1270  179.3450  139.8280 C   0  0  0  0  0  2  0  0  0  0  0  0
  191.5070  176.5560  142.6190 C   0  0  0  0  0  2  0  0  0  0  0  0
  189.2280  178.7900  146.5280 C   0  0  0  0  0  1  0  0  0  0  0  0
  187.5270  174.9630  136.4980 N   0  0  0  0  0  0  0  0  0  0  0  0
  187.5440  174.4700  135.3140 C   0  0  0  0  0  2  0  0  0  0  0  0
  183.4400  177.4630  139.8820 C   0  0  0  0  0  2  0  0  0  0  0  0
  182.0380  177.5900  140.4630 C   0  0  2  0  0  3  0  0  0  0  0  0
  181.0930  177.3350  139.4660 O   0  0  0  0  0  0  0  0  0  0  0  0
  180.4360  176.2770  139.8940 O   0  0  0  0  0  1  0  0  0  0  0  0
  181.8240  178.9930  141.0040 C   0  0  0  0  0  2  0  0  0  0  0  0
  181.1320  178.9410  142.6470 S   0  0  0  0  0  0  0  0  0  0  0  0
  180.7120  180.3290  143.0420 O   0  0  0  0  0  0  0  0  0  0  0  0
  179.9300  178.0380  142.6600 O   0  0  0  0  0  0  0  0  0  0  0  0
  182.3590  178.3500  143.7970 C   0  0  0  0  0  2  0  0  0  0  0  0
  183.0200  179.5070  144.5240 C   0  0  0  0  0  3  0  0  0  0  0  0
  183.9970  180.0680  143.7030 O   0  0  0  0  0  1  0  0  0  0  0  0
  183.6140  179.0540  145.7010 O   0  0  0  0  0  1  0  0  0  0  0  0
  193.8760  173.8930  136.8750 C   0  0  0  0  0  2  0  0  0  0  0  0
  195.8260  173.1580  138.2270 N   0  0  1  0  0  0  0  0  0  0  0  0
  195.0580  171.7310  136.4270 C   0  0  1  0  0  3  0  0  0  0  0  0
  196.9660  172.4420  137.6160 C   0  0  1  0  0  3  0  0  0  0  0  0
  196.3970  170.2700  136.9130 C   0  0  0  0  0  2  0  0  0  0  0  0
  196.5130  171.6540  136.4650 N   0  0  1  0  0  0  0  0  0  0  0  0
  196.7800  173.8640  137.3430 C   0  0  0  0  0  2  0  0  0  0  0  0
  194.8850  170.3080  136.9120 C   0  0  0  0  0  2  0  0  0  0  0  0
  194.6390  172.7220  137.4910 C   0  0  2  0  0  3  0  0  0  0  0  0
  1 20  1  0  0  0  0
  2 15  1  0  0  0  0
  2 13  1  0  0  0  0
  3 32  1  1  0  0  0
  3 16  1  0  0  0  0
  3 19  1  0  0  0  0
  4 10  1  0  0  0  0
  4  1  1  1  0  0  0
  4 18  1  0  0  0  0
  5 26  1  0  0  0  0
  6 22  1  0  0  0  0
  7 46  1  0  0  0  0
  7 27  1  0  0  0  0
  8 28  1  6  0  0  0
  8 12  1  0  0  0  0
  9 30  1  0  0  0  0
 10 16  1  0  0  0  0
 10 18  1  0  0  0  0
 11 23  1  0  0  0  0
 11  8  1  0  0  0  0
 12 13  2  0  0  0  0
 13 31  1  0  0  0  0
 14 27  2  0  0  0  0
 14 19  1  0  0  0  0
 17 29  1  0  0  0  0
 18 17  1  0  0  0  0
 19 26  1  0  0  0  0
 20 16  1  0  0  0  0
 21 24  1  0  0  0  0
 22  9  1  0  0  0  0
 23  2  2  0  0  0  0
 24 25  1  0  0  0  0
 25 28  1  0  0  0  0
 26  6  1  0  0  0  0
 27  5  1  0  0  0  0
 29 21  1  0  0  0  0
 30 23  1  0  0  0  0
 33 32  2  0  0  0  0
 34 35  1  0  0  0  0
 34 21  1  0  0  0  0
 35 38  1  0  0  0  0
 36 37  1  0  0  0  0
 36 35  1  0  0  0  0
 38 39  1  0  0  0  0
 39 41  2  0  0  0  0
 39 40  2  0  0  0  0
 39 42  1  0  0  0  0
 42 43  1  0  0  0  0
 43 45  1  0  0  0  0
 44 43  1  0  0  0  0
 46 54  1  0  0  0  0
 48 51  1  0  0  0  0
 48 53  1  0  0  0  0
 48 54  1  0  0  0  0
 49 47  1  0  0  0  0
 51 50  1  0  0  0  0
 51 49  1  0  0  0  0
 52 49  1  0  0  0  0
 52 47  1  0  0  0  0
 53 50  1  0  0  0  0
 54 47  1  0  0  0  0
M  END
>  <MODEL>
1

>  <REMARK>
 VINA RESULT:      -5.7      0.000      0.000
  Name = 
  10 active torsions:
  status: ('A' for Active; 'I' for Inactive)
    1  A    between atoms: C_1  and  C_46
    2  A    between atoms: N_2  and  C_5
    3  A    between atoms: C_9  and  C_34
    4  A    between atoms: C_9  and  C_40
    5  A    between atoms: S_10  and  C_13
    6  A    between atoms: S_10  and  C_46
    7  A    between atoms: C_13  and  C_34
    8  A    between atoms: C_14  and  N_19
    9  A    between atoms: C_14  and  C_53
   10  A    between atoms: C_34  and  O_37
                            x       y       z     vdW  Elec       q    Type
                         _______ _______ _______ _____ _____    ______ ____

>  <TORSDO>
F 10

$$$$
=
 OpenBabel11042411133D

 54 61  0  0  1  0  0  0  0  0999 V2000
  187.4620  179.3450  136.8520 C   0  0  0  0  0  2  0  0  0  0  0  0
  190.7030  177.8290  144.2600 C   0  0  0  0  0  0  0  0  0  0  0  0
  188.1220  175.8070  136.9990 C   0  0  1  0  0  3  0  0  0  0  0  0
  186.0740  178.7730  136.6480 C   0  0  1  0  0  3  0  0  0  0  0  0
  191.4890  175.7530  137.7190 C   0  0  0  0  0  2  0  0  0  0  0  0
  190.4070  176.0400  139.8110 O   0  0  0  0  0  0  0  0  0  0  0  0
  192.0390  173.5210  136.5700 N   0  0  0  0  0  2  0  0  0  0  0  0
  188.0370  176.7180  143.8420 C   0  0  1  0  0  3  0  0  0  0  0  0
  191.5260  177.6400  141.2050 C   0  0  0  0  0  2  0  0  0  0  0  0
  186.1940  177.3070  137.0250 C   0  0  1  0  0  3  0  0  0  0  0  0
  189.3850  175.5290  143.5390 S   0  0  0  0  0  0  0  0  0  0  0  0
  188.3830  177.5620  145.0370 C   0  0  0  0  0  3  0  0  0  0  0  0
  189.6000  178.0780  145.2190 C   0  0  0  0  0  0  0  0  0  0  0  0
  189.8750  174.1240  137.3200 N   0  0  0  0  0  0  0  0  0  0  0  0
  191.7780  178.7110  144.2300 O   0  0  0  0  0  1  0  0  0  0  0  0
  187.5510  177.0560  137.5430 N   0  0  2  0  0  0  0  0  0  0  0  0
  186.0430  178.6690  139.2180 C   0  0  0  0  0  2  0  0  0  0  0  0
  185.3730  178.2510  137.9090 C   0  0  1  0  0  3  0  0  0  0  0  0
  189.1440  175.1940  137.9770 C   0  0  1  0  0  3  0  0  0  0  0  0
  188.3620  178.1480  137.0170 C   0  0  0  0  0  2  0  0  0  0  0  0
  184.4220  178.2490  141.1470 C   0  0  1  0  0  3  0  0  0  0  0  0
  190.3060  177.3280  140.3450 C   0  0  0  0  0  2  0  0  0  0  0  0
  190.6590  176.7970  143.3990 C   0  0  0  0  0  0  0  0  0  0  0  0
  185.4820  177.3690  141.8100 C   0  0  0  0  0  2  0  0  0  0  0  0
  186.4340  178.2170  142.6320 C   0  0  0  0  0  2  0  0  0  0  0  0
  190.2170  176.1890  138.4360 C   0  0  2  0  0  3  0  0  0  0  0  0
  191.1160  174.4260  137.1790 C   0  0  0  0  0  0  0  0  0  0  0  0
  187.8110  177.5860  142.6100 C   0  0  0  0  0  2  0  0  0  0  0  0
  185.0210  179.2790  140.1740 C   0  0  0  0  0  2  0  0  0  0  0  0
  191.6970  176.6250  142.3320 C   0  0  0  0  0  2  0  0  0  0  0  0
  189.8300  178.9550  146.4010 C   0  0  0  0  0  1  0  0  0  0  0  0
  187.0950  174.8210  136.7280 N   0  0  0  0  0  0  0  0  0  0  0  0
  186.9890  174.2930  135.5650 C   0  0  0  0  0  2  0  0  0  0  0  0
  183.3710  177.3860  140.4650 C   0  0  0  0  0  2  0  0  0  0  0  0
  182.1180  178.2080  140.1970 C   0  0  2  0  0  3  0  0  0  0  0  0
  181.5460  178.5990  141.4100 O   0  0  0  0  0  0  0  0  0  0  0  0
  180.8530  179.6790  141.1170 O   0  0  0  0  0  1  0  0  0  0  0  0
  181.1100  177.3830  139.4150 C   0  0  0  0  0  2  0  0  0  0  0  0
  181.2920  177.6540  137.6620 S   0  0  0  0  0  0  0  0  0  0  0  0
  179.9330  177.6160  137.0200 O   0  0  0  0  0  0  0  0  0  0  0  0
  181.9150  179.0020  137.4210 O   0  0  0  0  0  0  0  0  0  0  0  0
  182.3090  176.3710  136.9580 C   0  0  0  0  0  2  0  0  0  0  0  0
  182.3780  175.1680  137.8810 C   0  0  0  0  0  3  0  0  0  0  0  0
  183.6880  174.6920  137.9190 O   0  0  0  0  0  1  0  0  0  0  0  0
  181.5360  174.1590  137.4140 O   0  0  0  0  0  1  0  0  0  0  0  0
  193.4590  173.8140  136.4430 C   0  0  0  0  0  2  0  0  0  0  0  0
  195.2030  173.6740  138.2070 N   0  0  1  0  0  0  0  0  0  0  0  0
  195.0650  171.8960  136.5680 C   0  0  1  0  0  3  0  0  0  0  0  0
  196.5490  173.1300  137.9240 C   0  0  1  0  0  3  0  0  0  0  0  0
  196.5170  170.8140  137.5090 C   0  0  0  0  0  2  0  0  0  0  0  0
  196.4750  172.1210  136.8620 N   0  0  1  0  0  0  0  0  0  0  0  0
  196.1740  174.4350  137.3890 C   0  0  0  0  0  2  0  0  0  0  0  0
  195.0520  170.5440  137.2490 C   0  0  0  0  0  2  0  0  0  0  0  0
  194.2790  172.9130  137.3660 C   0  0  2  0  0  3  0  0  0  0  0  0
  1 20  1  0  0  0  0
  2 13  1  0  0  0  0
  3 32  1  1  0  0  0
  3 16  1  0  0  0  0
  3 19  1  0  0  0  0
  4  1  1  1  0  0  0
  4 10  1  0  0  0  0
  4 18  1  0  0  0  0
  5 26  1  0  0  0  0
  6 22  1  0  0  0  0
  7 27  1  0  0  0  0
  8 28  1  6  0  0  0
  8 12  1  0  0  0  0
  9 30  1  0  0  0  0
 10 16  1  0  0  0  0
 10 18  1  0  0  0  0
 11  8  1  0  0  0  0
 12 13  2  0  0  0  0
 13 31  1  0  0  0  0
 14 19  1  0  0  0  0
 15  2  1  0  0  0  0
 17 29  1  0  0  0  0
 18 17  1  0  0  0  0
 19 26  1  0  0  0  0
 20 16  1  0  0  0  0
 21 24  1  0  0  0  0
 22  9  1  0  0  0  0
 23 11  1  0  0  0  0
 23  2  2  0  0  0  0
 24 25  1  0  0  0  0
 26  6  1  0  0  0  0
 27 14  2  0  0  0  0
 27  5  1  0  0  0  0
 28 25  1  0  0  0  0
 29 21  1  0  0  0  0
 30 23  1  0  0  0  0
 33 32  2  0  0  0  0
 34 21  1  0  0  0  0
 35 34  1  0  0  0  0
 35 36  1  0  0  0  0
 37 36  1  0  0  0  0
 38 35  1  0  0  0  0
 39 38  1  0  0  0  0
 40 39  2  0  0  0  0
 41 39  2  0  0  0  0
 42 39  1  0  0  0  0
 42 43  1  0  0  0  0
 43 44  1  0  0  0  0
 45 43  1  0  0  0  0
 46  7  1  0  0  0  0
 46 54  1  0  0  0  0
 48 51  1  0  0  0  0
 48 53  1  0  0  0  0
 48 54  1  0  0  0  0
 49 47  1  0  0  0  0
 51 50  1  0  0  0  0
 51 49  1  0  0  0  0
 52 49  1  0  0  0  0
 52 47  1  0  0  0  0
 53 50  1  0  0  0  0
 54 47  1  0  0  0  0
M  END
>  <MODEL>
2

>  <REMARK>
 VINA RESULT:      -5.5      1.516      2.761
  Name = 
  10 active torsions:
  status: ('A' for Active; 'I' for Inactive)
    1  A    between atoms: C_1  and  C_46
    2  A    between atoms: N_2  and  C_5
    3  A    between atoms: C_9  and  C_34
    4  A    between atoms: C_9  and  C_40
    5  A    between atoms: S_10  and  C_13
    6  A    between atoms: S_10  and  C_46
    7  A    between atoms: C_13  and  C_34
    8  A    between atoms: C_14  and  N_19
    9  A    between atoms: C_14  and  C_53
   10  A    between atoms: C_34  and  O_37
                            x       y       z     vdW  Elec       q    Type
                         _______ _______ _______ _____ _____    ______ ____

>  <TORSDO>
F 10

$$$$
=
 OpenBabel11042411133D

 54 61  0  0  1  0  0  0  0  0999 V2000
  187.5850  179.4090  136.8320 C   0  0  0  0  0  2  0  0  0  0  0  0
  190.5780  177.7520  144.3130 C   0  0  0  0  0  0  0  0  0  0  0  0
  188.1960  175.8610  136.9510 C   0  0  1  0  0  3  0  0  0  0  0  0
  186.1960  178.8570  136.5770 C   0  0  1  0  0  3  0  0  0  0  0  0
  191.5380  175.7540  137.7710 C   0  0  0  0  0  2  0  0  0  0  0  0
  190.3960  176.0270  139.8340 O   0  0  0  0  0  0  0  0  0  0  0  0
  192.0950  173.5300  136.6090 N   0  0  0  0  0  2  0  0  0  0  0  0
  187.9120  176.6820  143.7990 C   0  0  1  0  0  3  0  0  0  0  0  0
  191.4910  177.5940  141.2820 C   0  0  0  0  0  2  0  0  0  0  0  0
  186.2860  177.3850  136.9380 C   0  0  1  0  0  3  0  0  0  0  0  0
  189.2550  175.4800  143.5210 S   0  0  0  0  0  0  0  0  0  0  0  0
  188.2320  177.5050  145.0150 C   0  0  0  0  0  3  0  0  0  0  0  0
  189.4490  178.0030  145.2410 C   0  0  0  0  0  0  0  0  0  0  0  0
  189.9170  174.1510  137.3020 N   0  0  0  0  0  0  0  0  0  0  0  0
  191.6650  178.6210  144.3280 O   0  0  0  0  0  1  0  0  0  0  0  0
  187.6230  177.1100  137.4930 N   0  0  2  0  0  0  0  0  0  0  0  0
  186.0860  178.7190  139.1430 C   0  0  0  0  0  2  0  0  0  0  0  0
  185.4510  178.3280  137.8100 C   0  0  1  0  0  3  0  0  0  0  0  0
  189.1800  175.2210  137.9510 C   0  0  1  0  0  3  0  0  0  0  0  0
  188.4640  178.1980  137.0080 C   0  0  0  0  0  2  0  0  0  0  0  0
  184.4010  178.2950  141.0170 C   0  0  1  0  0  3  0  0  0  0  0  0
  190.2940  177.3090  140.3820 C   0  0  0  0  0  2  0  0  0  0  0  0
  190.5480  176.7320  143.4380 C   0  0  0  0  0  0  0  0  0  0  0  0
  185.4290  177.3930  141.6990 C   0  0  0  0  0  2  0  0  0  0  0  0
  186.3660  178.2170  142.5620 C   0  0  0  0  0  2  0  0  0  0  0  0
  190.2500  176.1970  138.4550 C   0  0  2  0  0  3  0  0  0  0  0  0
  191.1650  174.4380  137.2020 C   0  0  0  0  0  0  0  0  0  0  0  0
  187.7350  177.5690  142.5730 C   0  0  0  0  0  2  0  0  0  0  0  0
  185.0420  179.3300  140.0770 C   0  0  0  0  0  2  0  0  0  0  0  0
  191.6150  176.5620  142.4000 C   0  0  0  0  0  2  0  0  0  0  0  0
  189.6540  178.8620  146.4420 C   0  0  0  0  0  1  0  0  0  0  0  0
  187.1650  174.8910  136.6350 N   0  0  0  0  0  0  0  0  0  0  0  0
  187.0980  174.3680  135.4660 C   0  0  0  0  0  2  0  0  0  0  0  0
  183.3610  177.4540  140.2910 C   0  0  0  0  0  2  0  0  0  0  0  0
  182.0700  178.2470  140.1360 C   0  0  2  0  0  3  0  0  0  0  0  0
  180.9940  177.4840  140.5980 O   0  0  0  0  0  0  0  0  0  0  0  0
  180.5980  178.0980  141.6930 O   0  0  0  0  0  1  0  0  0  0  0  0
  181.8430  178.5930  138.6740 C   0  0  0  0  0  2  0  0  0  0  0  0
  181.4430  180.3200  138.4860 S   0  0  0  0  0  0  0  0  0  0  0  0
  180.4680  180.7140  139.5600 O   0  0  0  0  0  0  0  0  0  0  0  0
  182.6920  181.1460  138.6250 O   0  0  0  0  0  0  0  0  0  0  0  0
  180.6980  180.5940  136.8890 C   0  0  0  0  0  2  0  0  0  0  0  0
  180.5890  182.0780  136.5910 C   0  0  0  0  0  3  0  0  0  0  0  0
  179.3330  182.5360  136.9870 O   0  0  0  0  0  1  0  0  0  0  0  0
  180.7500  182.3030  135.2240 O   0  0  0  0  0  1  0  0  0  0  0  0
  193.5220  173.8060  136.5300 C   0  0  0  0  0  2  0  0  0  0  0  0
  195.2270  173.5910  138.3240 N   0  0  1  0  0  0  0  0  0  0  0  0
  195.0840  171.8520  136.6450 C   0  0  1  0  0  3  0  0  0  0  0  0
  196.5660  173.0240  138.0550 C   0  0  1  0  0  3  0  0  0  0  0  0
  196.4930  170.7180  137.5900 C   0  0  0  0  0  2  0  0  0  0  0  0
  196.4920  172.0400  136.9710 N   0  0  1  0  0  0  0  0  0  0  0  0
  196.2300  174.3480  137.5420 C   0  0  0  0  0  2  0  0  0  0  0  0
  195.0280  170.4870  137.2960 C   0  0  0  0  0  2  0  0  0  0  0  0
  194.3030  172.8690  137.4480 C   0  0  2  0  0  3  0  0  0  0  0  0
  1 20  1  0  0  0  0
  2 15  1  0  0  0  0
  2 13  1  0  0  0  0
  3 32  1  1  0  0  0
  3 16  1  0  0  0  0
  3 19  1  0  0  0  0
  4  1  1  1  0  0  0
  4 10  1  0  0  0  0
  4 18  1  0  0  0  0
  5 26  1  0  0  0  0
  6 22  1  0  0  0  0
  7 27  1  0  0  0  0
  8 28  1  6  0  0  0
  8 12  1  0  0  0  0
  9 30  1  0  0  0  0
 10 16  1  0  0  0  0
 10 18  1  0  0  0  0
 11  8  1  0  0  0  0
 12 13  2  0  0  0  0
 13 31  1  0  0  0  0
 14 19  1  0  0  0  0
 17 29  1  0  0  0  0
 18 17  1  0  0  0  0
 19 26  1  0  0  0  0
 20 16  1  0  0  0  0
 21 24  1  0  0  0  0
 22  9  1  0  0  0  0
 23 11  1  0  0  0  0
 23  2  2  0  0  0  0
 24 25  1  0  0  0  0
 25 28  1  0  0  0  0
 26  6  1  0  0  0  0
 27 14  2  0  0  0  0
 27  5  1  0  0  0  0
 29 21  1  0  0  0  0
 30 23  1  0  0  0  0
 33 32  2  0  0  0  0
 34 21  1  0  0  0  0
 35 34  1  0  0  0  0
 35 36  1  0  0  0  0
 36 37  1  0  0  0  0
 38 35  1  0  0  0  0
 39 41  2  0  0  0  0
 39 38  1  0  0  0  0
 39 40  2  0  0  0  0
 42 39  1  0  0  0  0
 43 42  1  0  0  0  0
 43 44  1  0  0  0  0
 45 43  1  0  0  0  0
 46  7  1  0  0  0  0
 46 54  1  0  0  0  0
 48 51  1  0  0  0  0
 48 53  1  0  0  0  0
 48 54  1  0  0  0  0
 49 47  1  0  0  0  0
 51 50  1  0  0  0  0
 51 49  1  0  0  0  0
 52 49  1  0  0  0  0
 52 47  1  0  0  0  0
 53 50  1  0  0  0  0
 54 47  1  0  0  0  0
M  END
>  <MODEL>
3

>  <REMARK>
 VINA RESULT:      -5.5      1.894      2.784
  Name = 
  10 active torsions:
  status: ('A' for Active; 'I' for Inactive)
    1  A    between atoms: C_1  and  C_46
    2  A    between atoms: N_2  and  C_5
    3  A    between atoms: C_9  and  C_34
    4  A    between atoms: C_9  and  C_40
    5  A    between atoms: S_10  and  C_13
    6  A    between atoms: S_10  and  C_46
    7  A    between atoms: C_13  and  C_34
    8  A    between atoms: C_14  and  N_19
    9  A    between atoms: C_14  and  C_53
   10  A    between atoms: C_34  and  O_37
                            x       y       z     vdW  Elec       q    Type
                         _______ _______ _______ _____ _____    ______ ____

>  <TORSDO>
F 10

$$$$
=
 OpenBabel11042411133D

 54 61  0  0  1  0  0  0  0  0999 V2000
  188.0320  179.5990  136.8600 C   0  0  0  0  0  2  0  0  0  0  0  0
  189.9040  177.7820  144.6630 C   0  0  0  0  0  0  0  0  0  0  0  0
  188.8180  176.0850  136.9550 C   0  0  1  0  0  3  0  0  0  0  0  0
  186.7350  178.9890  136.3700 C   0  0  1  0  0  3  0  0  0  0  0  0
  191.9910  176.1140  138.2930 C   0  0  0  0  0  2  0  0  0  0  0  0
  190.5260  176.2410  140.1560 O   0  0  0  0  0  0  0  0  0  0  0  0
  192.8490  173.9720  137.1600 N   0  0  0  0  0  2  0  0  0  0  0  0
  187.4170  176.5990  143.6950 C   0  0  1  0  0  3  0  0  0  0  0  0
  191.2890  177.7980  141.8120 C   0  0  0  0  0  2  0  0  0  0  0  0
  186.8510  177.5090  136.6910 C   0  0  1  0  0  3  0  0  0  0  0  0
  188.8530  175.4800  143.5940 S   0  0  0  0  0  0  0  0  0  0  0  0
  187.4940  177.3860  144.9740 C   0  0  0  0  0  3  0  0  0  0  0  0
  188.6310  177.9350  145.4070 C   0  0  0  0  0  0  0  0  0  0  0  0
  190.5570  174.4520  137.5180 N   0  0  0  0  0  0  0  0  0  0  0  0
  190.9230  178.7030  144.8800 O   0  0  0  0  0  1  0  0  0  0  0  0
  188.0970  177.2790  137.4420 N   0  0  2  0  0  0  0  0  0  0  0  0
  186.2310  178.7370  138.8800 C   0  0  0  0  0  2  0  0  0  0  0  0
  185.8360  178.3710  137.4500 C   0  0  1  0  0  3  0  0  0  0  0  0
  189.6680  175.4550  138.0770 C   0  0  1  0  0  3  0  0  0  0  0  0
  188.9410  178.4280  137.1330 C   0  0  0  0  0  2  0  0  0  0  0  0
  184.3000  178.1480  140.4460 C   0  0  1  0  0  3  0  0  0  0  0  0
  190.2660  177.4920  140.7230 C   0  0  0  0  0  2  0  0  0  0  0  0
  190.0700  176.8000  143.7590 C   0  0  0  0  0  0  0  0  0  0  0  0
  185.2580  177.2720  141.2520 C   0  0  0  0  0  2  0  0  0  0  0  0
  185.9990  178.1050  142.2810 C   0  0  0  0  0  2  0  0  0  0  0  0
  190.5890  176.4610  138.7780 C   0  0  2  0  0  3  0  0  0  0  0  0
  191.7880  174.8060  137.6280 C   0  0  0  0  0  0  0  0  0  0  0  0
  187.3850  177.5280  142.4880 C   0  0  0  0  0  2  0  0  0  0  0  0
  185.0210  179.2540  139.6550 C   0  0  0  0  0  2  0  0  0  0  0  0
  191.2940  176.7270  142.9000 C   0  0  0  0  0  2  0  0  0  0  0  0
  188.5960  178.7510  146.6530 C   0  0  0  0  0  1  0  0  0  0  0  0
  187.9070  175.0790  136.4470 N   0  0  0  0  0  0  0  0  0  0  0  0
  188.0990  174.5450  135.2970 C   0  0  0  0  0  2  0  0  0  0  0  0
  183.4360  177.2870  139.5360 C   0  0  0  0  0  2  0  0  0  0  0  0
  181.9870  177.7500  139.6060 C   0  0  2  0  0  3  0  0  0  0  0  0
  181.8110  178.8660  138.7840 O   0  0  0  0  0  0  0  0  0  0  0  0
  182.1340  178.4450  137.5790 O   0  0  0  0  0  1  0  0  0  0  0  0
  181.6280  178.1240  141.0340 C   0  0  0  0  0  2  0  0  0  0  0  0
  179.8840  177.9010  141.3290 S   0  0  0  0  0  0  0  0  0  0  0  0
  179.3970  176.7370  140.5130 O   0  0  0  0  0  0  0  0  0  0  0  0
  179.6510  177.6160  142.7870 O   0  0  0  0  0  0  0  0  0  0  0  0
  178.9990  179.3700  140.8400 C   0  0  0  0  0  2  0  0  0  0  0  0
  179.8190  180.6150  141.1270 C   0  0  0  0  0  3  0  0  0  0  0  0
  179.7550  180.9030  142.4900 O   0  0  0  0  0  1  0  0  0  0  0  0
  179.3130  181.6960  140.4060 O   0  0  0  0  0  1  0  0  0  0  0  0
  194.2530  174.3240  137.3180 C   0  0  0  0  0  2  0  0  0  0  0  0
  196.4860  173.4160  137.9180 N   0  0  1  0  0  0  0  0  0  0  0  0
  194.9810  172.0320  136.6200 C   0  0  1  0  0  3  0  0  0  0  0  0
  197.2500  172.5600  136.9850 C   0  0  1  0  0  3  0  0  0  0  0  0
  196.2640  170.4450  136.6850 C   0  0  0  0  0  2  0  0  0  0  0  0
  196.3350  171.7940  136.1340 N   0  0  1  0  0  0  0  0  0  0  0  0
  197.1090  173.9850  136.7020 C   0  0  0  0  0  2  0  0  0  0  0  0
  194.8680  170.6510  137.2300 C   0  0  0  0  0  2  0  0  0  0  0  0
  195.0760  173.0940  137.6940 C   0  0  2  0  0  3  0  0  0  0  0  0
  1 20  1  0  0  0  0
  2 15  1  0  0  0  0
  2 13  1  0  0  0  0
  3 32  1  1  0  0  0
  3 16  1  0  0  0  0
  3 19  1  0  0  0  0
  4 10  1  0  0  0  0
  4  1  1  1  0  0  0
  4 18  1  0  0  0  0
  5 26  1  0  0  0  0
  6 22  1  0  0  0  0
  7 46  1  0  0  0  0
  7 27  1  0  0  0  0
  8 28  1  6  0  0  0
  8 12  1  0  0  0  0
  9 30  1  0  0  0  0
 10 16  1  0  0  0  0
 10 18  1  0  0  0  0
 11  8  1  0  0  0  0
 11 23  1  0  0  0  0
 12 13  2  0  0  0  0
 13 31  1  0  0  0  0
 14 27  2  0  0  0  0
 14 19  1  0  0  0  0
 17 29  1  0  0  0  0
 18 17  1  0  0  0  0
 19 26  1  0  0  0  0
 20 16  1  0  0  0  0
 21 24  1  0  0  0  0
 22  9  1  0  0  0  0
 23  2  2  0  0  0  0
 24 25  1  0  0  0  0
 25 28  1  0  0  0  0
 26  6  1  0  0  0  0
 27  5  1  0  0  0  0
 29 21  1  0  0  0  0
 30 23  1  0  0  0  0
 33 32  2  0  0  0  0
 34 35  1  0  0  0  0
 34 21  1  0  0  0  0
 35 38  1  0  0  0  0
 36 35  1  0  0  0  0
 37 36  1  0  0  0  0
 38 39  1  0  0  0  0
 39 41  2  0  0  0  0
 40 39  2  0  0  0  0
 42 43  1  0  0  0  0
 42 39  1  0  0  0  0
 43 44  1  0  0  0  0
 45 43  1  0  0  0  0
 46 54  1  0  0  0  0
 48 53  1  0  0  0  0
 48 54  1  0  0  0  0
 49 47  1  0  0  0  0
 50 53  1  0  0  0  0
 51 48  1  0  0  0  0
 51 50  1  0  0  0  0
 51 49  1  0  0  0  0
 52 49  1  0  0  0  0
 52 47  1  0  0  0  0
 54 47  1  0  0  0  0
M  END
>  <MODEL>
4

>  <REMARK>
 VINA RESULT:      -5.3      1.300      1.770
  Name = 
  10 active torsions:
  status: ('A' for Active; 'I' for Inactive)
    1  A    between atoms: C_1  and  C_46
    2  A    between atoms: N_2  and  C_5
    3  A    between atoms: C_9  and  C_34
    4  A    between atoms: C_9  and  C_40
    5  A    between atoms: S_10  and  C_13
    6  A    between atoms: S_10  and  C_46
    7  A    between atoms: C_13  and  C_34
    8  A    between atoms: C_14  and  N_19
    9  A    between atoms: C_14  and  C_53
   10  A    between atoms: C_34  and  O_37
                            x       y       z     vdW  Elec       q    Type
                         _______ _______ _______ _____ _____    ______ ____

>  <TORSDO>
F 10

$$$$
=
 OpenBabel11042411133D

 54 61  0  0  1  0  0  0  0  0999 V2000
  188.0160  179.4370  136.7970 C   0  0  0  0  0  2  0  0  0  0  0  0
  189.9830  177.8590  144.6280 C   0  0  0  0  0  0  0  0  0  0  0  0
  188.7420  175.9140  137.0020 C   0  0  1  0  0  3  0  0  0  0  0  0
  186.7010  178.8330  136.3480 C   0  0  1  0  0  3  0  0  0  0  0  0
  191.9360  175.9330  138.2880 C   0  0  0  0  0  2  0  0  0  0  0  0
  190.5040  176.1510  140.1680 O   0  0  0  0  0  0  0  0  0  0  0  0
  192.7380  173.7380  137.2180 N   0  0  0  0  0  2  0  0  0  0  0  0
  187.4600  176.6890  143.7410 C   0  0  1  0  0  3  0  0  0  0  0  0
  191.3210  177.7510  141.7560 C   0  0  0  0  0  2  0  0  0  0  0  0
  186.7960  177.3640  136.7190 C   0  0  1  0  0  3  0  0  0  0  0  0
  188.8740  175.5410  143.6570 S   0  0  0  0  0  0  0  0  0  0  0  0
  187.5720  177.5180  144.9900 C   0  0  0  0  0  3  0  0  0  0  0  0
  188.7250  178.0620  145.3860 C   0  0  0  0  0  0  0  0  0  0  0  0
  190.4610  174.2710  137.5950 N   0  0  0  0  0  0  0  0  0  0  0  0
  191.0220  178.7690  144.7960 O   0  0  0  0  0  1  0  0  0  0  0  0
  188.0500  177.1380  137.4580 N   0  0  2  0  0  0  0  0  0  0  0  0
  186.2330  178.6780  138.8730 C   0  0  0  0  0  2  0  0  0  0  0  0
  185.8090  178.2690  137.4630 C   0  0  1  0  0  3  0  0  0  0  0  0
  189.5990  175.3090  138.1320 C   0  0  1  0  0  3  0  0  0  0  0  0
  188.9080  178.2600  137.0960 C   0  0  0  0  0  2  0  0  0  0  0  0
  184.3190  178.1790  140.4890 C   0  0  1  0  0  3  0  0  0  0  0  0
  190.2760  177.4250  140.6960 C   0  0  0  0  0  2  0  0  0  0  0  0
  190.1170  176.8430  143.7570 C   0  0  0  0  0  0  0  0  0  0  0  0
  185.2740  177.3140  141.3100 C   0  0  0  0  0  2  0  0  0  0  0  0
  186.0460  178.1700  142.2970 C   0  0  0  0  0  2  0  0  0  0  0  0
  190.5490  176.3220  138.7830 C   0  0  2  0  0  3  0  0  0  0  0  0
  191.6990  174.6070  137.6730 C   0  0  0  0  0  0  0  0  0  0  0  0
  187.4240  177.5750  142.5030 C   0  0  0  0  0  2  0  0  0  0  0  0
  185.0450  179.2430  139.6490 C   0  0  0  0  0  2  0  0  0  0  0  0
  191.3260  176.7190  142.8820 C   0  0  0  0  0  2  0  0  0  0  0  0
  188.7240  178.9210  146.6030 C   0  0  0  0  0  1  0  0  0  0  0  0
  187.8050  174.9080  136.5440 N   0  0  0  0  0  0  0  0  0  0  0  0
  188.0590  174.2080  135.5000 C   0  0  0  0  0  2  0  0  0  0  0  0
  183.4250  177.3030  139.6230 C   0  0  0  0  0  2  0  0  0  0  0  0
  181.9620  177.5770  139.9440 C   0  0  2  0  0  3  0  0  0  0  0  0
  181.2650  176.3680  140.0250 O   0  0  0  0  0  0  0  0  0  0  0  0
  181.6950  175.6680  138.9970 O   0  0  0  0  0  1  0  0  0  0  0  0
  181.3410  178.4360  138.8550 C   0  0  0  0  0  2  0  0  0  0  0  0
  180.1690  179.5880  139.5470 S   0  0  0  0  0  0  0  0  0  0  0  0
  180.8040  180.9490  139.6100 O   0  0  0  0  0  0  0  0  0  0  0  0
  178.9480  179.6520  138.6720 O   0  0  0  0  0  0  0  0  0  0  0  0
  179.7200  179.0730  141.1940 C   0  0  0  0  0  2  0  0  0  0  0  0
  180.6120  179.7350  142.2280 C   0  0  0  0  0  3  0  0  0  0  0  0
  180.8560  178.8370  143.2670 O   0  0  0  0  0  1  0  0  0  0  0  0
  179.9860  180.8710  142.7410 O   0  0  0  0  0  1  0  0  0  0  0  0
  194.1500  174.0690  137.3410 C   0  0  0  0  0  2  0  0  0  0  0  0
  195.7920  173.7250  135.5090 N   0  0  1  0  0  0  0  0  0  0  0  0
  195.2020  175.9910  136.1270 C   0  0  1  0  0  3  0  0  0  0  0  0
  196.9510  174.6250  135.3280 C   0  0  1  0  0  3  0  0  0  0  0  0
  196.3200  176.7760  134.6110 C   0  0  0  0  0  2  0  0  0  0  0  0
  196.6210  175.9760  135.7940 N   0  0  1  0  0  0  0  0  0  0  0  0
  196.9300  173.6970  136.4540 C   0  0  0  0  0  2  0  0  0  0  0  0
  194.8360  176.7990  134.9020 C   0  0  0  0  0  2  0  0  0  0  0  0
  194.7040  174.5670  136.0080 C   0  0  2  0  0  3  0  0  0  0  0  0
  1 20  1  0  0  0  0
  2 15  1  0  0  0  0
  2 13  1  0  0  0  0
  3 32  1  1  0  0  0
  3 16  1  0  0  0  0
  3 19  1  0  0  0  0
  4 10  1  0  0  0  0
  4  1  1  1  0  0  0
  4 18  1  0  0  0  0
  5 26  1  0  0  0  0
  6 22  1  0  0  0  0
  7 46  1  0  0  0  0
  7 27  1  0  0  0  0
  8 28  1  6  0  0  0
  8 12  1  0  0  0  0
  9 30  1  0  0  0  0
 10 16  1  0  0  0  0
 10 18  1  0  0  0  0
 11  8  1  0  0  0  0
 11 23  1  0  0  0  0
 12 13  2  0  0  0  0
 13 31  1  0  0  0  0
 14 27  2  0  0  0  0
 14 19  1  0  0  0  0
 17 29  1  0  0  0  0
 18 17  1  0  0  0  0
 19 26  1  0  0  0  0
 20 16  1  0  0  0  0
 21 24  1  0  0  0  0
 22  9  1  0  0  0  0
 23  2  2  0  0  0  0
 24 25  1  0  0  0  0
 25 28  1  0  0  0  0
 26  6  1  0  0  0  0
 27  5  1  0  0  0  0
 29 21  1  0  0  0  0
 30 23  1  0  0  0  0
 33 32  2  0  0  0  0
 34 35  1  0  0  0  0
 34 21  1  0  0  0  0
 35 36  1  0  0  0  0
 37 36  1  0  0  0  0
 38 39  1  0  0  0  0
 38 35  1  0  0  0  0
 39 40  2  0  0  0  0
 39 42  1  0  0  0  0
 41 39  2  0  0  0  0
 42 43  1  0  0  0  0
 43 45  1  0  0  0  0
 43 44  1  0  0  0  0
 47 54  1  0  0  0  0
 47 52  1  0  0  0  0
 49 47  1  0  0  0  0
 49 51  1  0  0  0  0
 49 52  1  0  0  0  0
 50 53  1  0  0  0  0
 50 51  1  0  0  0  0
 51 48  1  0  0  0  0
 53 48  1  0  0  0  0
 54 48  1  0  0  0  0
 54 46  1  0  0  0  0
M  END
>  <MODEL>
5

>  <REMARK>
 VINA RESULT:      -5.1      1.491      2.250
  Name = 
  10 active torsions:
  status: ('A' for Active; 'I' for Inactive)
    1  A    between atoms: C_1  and  C_46
    2  A    between atoms: N_2  and  C_5
    3  A    between atoms: C_9  and  C_34
    4  A    between atoms: C_9  and  C_40
    5  A    between atoms: S_10  and  C_13
    6  A    between atoms: S_10  and  C_46
    7  A    between atoms: C_13  and  C_34
    8  A    between atoms: C_14  and  N_19
    9  A    between atoms: C_14  and  C_53
   10  A    between atoms: C_34  and  O_37
                            x       y       z     vdW  Elec       q    Type
                         _______ _______ _______ _____ _____    ______ ____

>  <TORSDO>
F 10

$$$$
=
 OpenBabel11042411133D

 54 61  0  0  1  0  0  0  0  0999 V2000
  187.6780  177.2420  141.1870 C   0  0  0  0  0  2  0  0  0  0  0  0
  183.4610  172.1190  136.3240 C   0  0  0  0  0  0  0  0  0  0  0  0
  188.6060  178.0210  137.7940 C   0  0  1  0  0  3  0  0  0  0  0  0
  187.2520  178.6930  141.0860 C   0  0  1  0  0  3  0  0  0  0  0  0
  189.7420  174.9740  136.6640 C   0  0  0  0  0  2  0  0  0  0  0  0
  187.3830  174.8910  136.4180 O   0  0  0  0  0  0  0  0  0  0  0  0
  191.4320  175.8650  134.9450 N   0  0  0  0  0  2  0  0  0  0  0  0
  182.6670  174.9210  136.1280 C   0  0  1  0  0  3  0  0  0  0  0  0
  186.4710  172.7720  137.0730 C   0  0  0  0  0  2  0  0  0  0  0  0
  187.2940  179.0120  139.6010 C   0  0  1  0  0  3  0  0  0  0  0  0
  183.8510  174.3990  134.8430 S   0  0  0  0  0  0  0  0  0  0  0  0
  181.6770  173.8150  136.3640 C   0  0  0  0  0  3  0  0  0  0  0  0
  182.0450  172.5360  136.4660 C   0  0  0  0  0  0  0  0  0  0  0  0
  189.5750  177.1030  135.7390 N   0  0  0  0  0  0  0  0  0  0  0  0
  183.8590  170.9010  136.8650 O   0  0  0  0  0  1  0  0  0  0  0  0
  187.6080  177.7800  138.8570 N   0  0  2  0  0  0  0  0  0  0  0  0
  185.1120  177.7020  140.0590 C   0  0  0  0  0  2  0  0  0  0  0  0
  185.9450  178.9550  140.3260 C   0  0  1  0  0  3  0  0  0  0  0  0
  188.4370  177.0160  136.6370 C   0  0  1  0  0  3  0  0  0  0  0  0
  188.2420  176.9010  139.8320 C   0  0  0  0  0  2  0  0  0  0  0  0
  182.7550  178.4070  139.3700 C   0  0  1  0  0  3  0  0  0  0  0  0
  186.6260  174.2520  137.4050 C   0  0  0  0  0  2  0  0  0  0  0  0
  184.3650  172.9120  135.7230 C   0  0  0  0  0  0  0  0  0  0  0  0
  182.9230  177.6060  138.0790 C   0  0  0  0  0  2  0  0  0  0  0  0
  182.5530  176.1520  138.3070 C   0  0  0  0  0  2  0  0  0  0  0  0
  188.4040  175.5560  137.1020 C   0  0  2  0  0  3  0  0  0  0  0  0
  190.2680  176.0210  135.7590 C   0  0  0  0  0  0  0  0  0  0  0  0
  183.4040  175.2740  137.4140 C   0  0  0  0  0  2  0  0  0  0  0  0
  183.6670  177.9120  140.5050 C   0  0  0  0  0  2  0  0  0  0  0  0
  185.8210  172.5640  135.7070 C   0  0  0  0  0  2  0  0  0  0  0  0
  180.9990  171.5170  136.7640 C   0  0  0  0  0  1  0  0  0  0  0  0
  188.5040  179.3640  137.2580 N   0  0  0  0  0  0  0  0  0  0  0  0
  187.5710  179.6680  136.4340 C   0  0  0  0  0  2  0  0  0  0  0  0
  182.9600  179.8910  139.1000 C   0  0  0  0  0  2  0  0  0  0  0  0
  181.6330  180.5390  138.7280 C   0  0  2  0  0  3  0  0  0  0  0  0
  180.5970  179.9230  139.4340 O   0  0  0  0  0  0  0  0  0  0  0  0
  180.5600  180.5560  140.5880 O   0  0  0  0  0  1  0  0  0  0  0  0
  181.3790  180.3860  137.2380 C   0  0  0  0  0  2  0  0  0  0  0  0
  180.3810  181.7310  136.6240 S   0  0  0  0  0  0  0  0  0  0  0  0
  180.7870  182.0310  135.2080 O   0  0  0  0  0  0  0  0  0  0  0  0
  178.9310  181.3360  136.6500 O   0  0  0  0  0  0  0  0  0  0  0  0
  180.6430  183.1810  137.6290 C   0  0  0  0  0  2  0  0  0  0  0  0
  181.3100  184.2820  136.8250 C   0  0  0  0  0  3  0  0  0  0  0  0
  182.3230  184.8600  137.5900 O   0  0  0  0  0  1  0  0  0  0  0  0
  180.3750  185.2590  136.4870 O   0  0  0  0  0  1  0  0  0  0  0  0
  192.2070  174.6340  134.9090 C   0  0  0  0  0  2  0  0  0  0  0  0
  194.6420  174.1600  135.0470 N   0  0  1  0  0  0  0  0  0  0  0  0
  193.3480  174.1930  137.0940 C   0  0  1  0  0  3  0  0  0  0  0  0
  195.1870  173.1850  136.0160 C   0  0  1  0  0  3  0  0  0  0  0  0
  195.0160  173.9310  138.2410 C   0  0  0  0  0  2  0  0  0  0  0  0
  194.3460  173.1370  137.2160 N   0  0  1  0  0  0  0  0  0  0  0  0
  194.4290  172.7070  134.8640 C   0  0  0  0  0  2  0  0  0  0  0  0
  194.0200  175.0640  138.1340 C   0  0  0  0  0  2  0  0  0  0  0  0
  193.4980  174.7870  135.7110 C   0  0  2  0  0  3  0  0  0  0  0  0
  2 13  1  0  0  0  0
  2 15  1  0  0  0  0
  3 32  1  6  0  0  0
  3 16  1  0  0  0  0
  4  1  1  6  0  0  0
  5 26  1  0  0  0  0
  6 26  1  0  0  0  0
  6 22  1  0  0  0  0
  7 27  1  0  0  0  0
  8 12  1  1  0  0  0
  8 28  1  0  0  0  0
  9 22  1  0  0  0  0
 10 18  1  0  0  0  0
 10  4  1  0  0  0  0
 11 23  1  0  0  0  0
 11  8  1  0  0  0  0
 12 13  2  0  0  0  0
 13 31  1  0  0  0  0
 14 27  2  0  0  0  0
 14 19  1  0  0  0  0
 16 10  1  0  0  0  0
 16 20  1  0  0  0  0
 17 18  1  0  0  0  0
 17 29  1  0  0  0  0
 18  4  1  0  0  0  0
 19 26  1  0  0  0  0
 19  3  1  0  0  0  0
 20  1  1  0  0  0  0
 21 29  1  0  0  0  0
 23  2  2  0  0  0  0
 24 25  1  0  0  0  0
 24 21  1  0  0  0  0
 27  5  1  0  0  0  0
 28 25  1  0  0  0  0
 30 23  1  0  0  0  0
 30  9  1  0  0  0  0
 33 32  2  0  0  0  0
 34 21  1  0  0  0  0
 35 34  1  0  0  0  0
 35 36  1  0  0  0  0
 36 37  1  0  0  0  0
 38 35  1  0  0  0  0
 39 41  2  0  0  0  0
 39 38  1  0  0  0  0
 39 42  1  0  0  0  0
 40 39  2  0  0  0  0
 43 44  1  0  0  0  0
 43 42  1  0  0  0  0
 45 43  1  0  0  0  0
 46  7  1  0  0  0  0
 46 54  1  0  0  0  0
 47 54  1  0  0  0  0
 47 49  1  0  0  0  0
 48 51  1  0  0  0  0
 48 53  1  0  0  0  0
 49 51  1  0  0  0  0
 51 50  1  0  0  0  0
 52 47  1  0  0  0  0
 52 49  1  0  0  0  0
 53 50  1  0  0  0  0
 54 48  1  0  0  0  0
M  END
>  <MODEL>
6

>  <REMARK>
 VINA RESULT:      -4.0      3.861      6.534
  Name = 
  10 active torsions:
  status: ('A' for Active; 'I' for Inactive)
    1  A    between atoms: C_1  and  C_46
    2  A    between atoms: N_2  and  C_5
    3  A    between atoms: C_9  and  C_34
    4  A    between atoms: C_9  and  C_40
    5  A    between atoms: S_10  and  C_13
    6  A    between atoms: S_10  and  C_46
    7  A    between atoms: C_13  and  C_34
    8  A    between atoms: C_14  and  N_19
    9  A    between atoms: C_14  and  C_53
   10  A    between atoms: C_34  and  O_37
                            x       y       z     vdW  Elec       q    Type
                         _______ _______ _______ _____ _____    ______ ____

>  <TORSDO>
F 10

$$$$
=
 OpenBabel11042411133D

 54 61  0  0  1  0  0  0  0  0999 V2000
  188.6140  178.9860  135.8370 C   0  0  0  0  0  2  0  0  0  0  0  0
  181.8360  178.7080  140.4930 C   0  0  0  0  0  0  0  0  0  0  0  0
  189.3340  176.7900  138.6010 C   0  0  1  0  0  3  0  0  0  0  0  0
  188.9310  177.6920  135.1160 C   0  0  1  0  0  3  0  0  0  0  0  0
  188.6960  178.8310  141.3000 C   0  0  0  0  0  2  0  0  0  0  0  0
  186.5810  177.9710  140.6530 O   0  0  0  0  0  0  0  0  0  0  0  0
  190.3570  177.7490  142.9350 N   0  0  0  0  0  2  0  0  0  0  0  0
  182.4730  176.2180  139.1110 C   0  0  1  0  0  3  0  0  0  0  0  0
  184.8580  179.6380  140.7200 C   0  0  0  0  0  2  0  0  0  0  0  0
  188.9200  176.6260  136.1990 C   0  0  1  0  0  3  0  0  0  0  0  0
  183.0730  176.2790  140.8310 S   0  0  0  0  0  0  0  0  0  0  0  0
  181.1150  176.8570  139.0390 C   0  0  0  0  0  3  0  0  0  0  0  0
  180.8310  178.0030  139.6620 C   0  0  0  0  0  0  0  0  0  0  0  0
  189.4530  176.6450  141.0440 N   0  0  0  0  0  0  0  0  0  0  0  0
  181.6680  180.0660  140.7420 O   0  0  0  0  0  1  0  0  0  0  0  0
  188.4970  177.2410  137.4690 N   0  0  2  0  0  0  0  0  0  0  0  0
  186.4620  177.1490  135.5920 C   0  0  0  0  0  2  0  0  0  0  0  0
  187.8230  176.6300  135.1290 C   0  0  1  0  0  3  0  0  0  0  0  0
  188.5470  176.8390  139.9260 C   0  0  1  0  0  3  0  0  0  0  0  0
  188.7550  178.6660  137.3030 C   0  0  0  0  0  2  0  0  0  0  0  0
  184.6680  175.4440  134.9570 C   0  0  1  0  0  3  0  0  0  0  0  0
  185.7510  178.7590  139.8500 C   0  0  0  0  0  2  0  0  0  0  0  0
  182.9200  178.0700  140.9680 C   0  0  0  0  0  0  0  0  0  0  0  0
  184.2520  175.3760  136.4260 C   0  0  0  0  0  2  0  0  0  0  0  0
  183.2630  176.4800  136.7480 C   0  0  0  0  0  2  0  0  0  0  0  0
  187.8770  178.1950  140.1840 C   0  0  2  0  0  3  0  0  0  0  0  0
  189.5340  177.7040  141.7680 C   0  0  0  0  0  0  0  0  0  0  0  0
  183.4550  176.9220  138.1840 C   0  0  0  0  0  2  0  0  0  0  0  0
  185.3720  176.7630  134.5940 C   0  0  0  0  0  2  0  0  0  0  0  0
  184.0110  178.8080  141.6810 C   0  0  0  0  0  2  0  0  0  0  0  0
  179.4750  178.5940  139.4800 C   0  0  0  0  0  1  0  0  0  0  0  0
  189.8210  175.4400  138.4030 N   0  0  0  0  0  0  0  0  0  0  0  0
  191.0180  175.2310  137.9970 C   0  0  0  0  0  2  0  0  0  0  0  0
  185.5240  174.2390  134.5950 C   0  0  0  0  0  2  0  0  0  0  0  0
  185.3670  173.1540  135.6520 C   0  0  2  0  0  3  0  0  0  0  0  0
  186.6280  172.7420  136.0910 O   0  0  0  0  0  0  0  0  0  0  0  0
  187.4350  173.0170  135.0890 O   0  0  0  0  0  1  0  0  0  0  0  0
  184.6300  171.9610  135.0680 C   0  0  0  0  0  2  0  0  0  0  0  0
  183.1680  171.5910  136.0200 S   0  0  0  0  0  0  0  0  0  0  0  0
  182.7320  170.1850  135.7170 O   0  0  0  0  0  0  0  0  0  0  0  0
  183.4780  171.7070  137.4870 O   0  0  0  0  0  0  0  0  0  0  0  0
  181.8600  172.7190  135.5770 C   0  0  0  0  0  2  0  0  0  0  0  0
  180.9310  172.9580  136.7520 C   0  0  0  0  0  3  0  0  0  0  0  0
  179.8360  172.0990  136.6550 O   0  0  0  0  0  1  0  0  0  0  0  0
  180.4800  174.2770  136.7440 O   0  0  0  0  0  1  0  0  0  0  0  0
  190.4290  178.9160  143.8020 C   0  0  0  0  0  2  0  0  0  0  0  0
  191.4330  177.6970  145.7190 N   0  0  1  0  0  0  0  0  0  0  0  0
  189.0210  177.7350  145.5030 C   0  0  1  0  0  3  0  0  0  0  0  0
  190.8510  176.4350  146.2240 C   0  0  1  0  0  3  0  0  0  0  0  0
  188.7710  176.7550  147.2760 C   0  0  0  0  0  2  0  0  0  0  0  0
  189.4020  176.4200  146.0030 N   0  0  1  0  0  0  0  0  0  0  0  0
  191.5450  176.4440  144.9400 C   0  0  0  0  0  2  0  0  0  0  0  0
  188.3750  178.1390  146.8100 C   0  0  0  0  0  2  0  0  0  0  0  0
  190.3010  178.5070  145.2680 C   0  0  2  0  0  3  0  0  0  0  0  0
  1 20  1  0  0  0  0
  2 15  1  0  0  0  0
  2 23  2  0  0  0  0
  3 32  1  6  0  0  0
  3 19  1  0  0  0  0
  4 18  1  0  0  0  0
  4  1  1  1  0  0  0
  4 10  1  0  0  0  0
  5 27  1  0  0  0  0
  7 46  1  0  0  0  0
  8 28  1  6  0  0  0
  8 11  1  0  0  0  0
  9 30  1  0  0  0  0
 10 16  1  0  0  0  0
 11 23  1  0  0  0  0
 12  8  1  0  0  0  0
 12 13  2  0  0  0  0
 13  2  1  0  0  0  0
 14 27  2  0  0  0  0
 16  3  1  0  0  0  0
 18 17  1  0  0  0  0
 18 10  1  0  0  0  0
 19 26  1  0  0  0  0
 19 14  1  0  0  0  0
 20 16  1  0  0  0  0
 21 24  1  0  0  0  0
 22  6  1  0  0  0  0
 22  9  1  0  0  0  0
 23 30  1  0  0  0  0
 24 25  1  0  0  0  0
 25 28  1  0  0  0  0
 26  6  1  0  0  0  0
 26  5  1  0  0  0  0
 27  7  1  0  0  0  0
 29 21  1  0  0  0  0
 29 17  1  0  0  0  0
 31 13  1  0  0  0  0
 33 32  2  0  0  0  0
 34 21  1  0  0  0  0
 34 35  1  0  0  0  0
 35 36  1  0  0  0  0
 37 36  1  0  0  0  0
 38 35  1  0  0  0  0
 38 39  1  0  0  0  0
 39 41  2  0  0  0  0
 40 39  2  0  0  0  0
 42 39  1  0  0  0  0
 42 43  1  0  0  0  0
 44 43  1  0  0  0  0
 45 43  1  0  0  0  0
 46 54  1  0  0  0  0
 47 49  1  0  0  0  0
 48 51  1  0  0  0  0
 48 53  1  0  0  0  0
 51 49  1  0  0  0  0
 51 50  1  0  0  0  0
 52 47  1  0  0  0  0
 52 49  1  0  0  0  0
 53 50  1  0  0  0  0
 54 48  1  0  0  0  0
 54 47  1  0  0  0  0
M  END
>  <MODEL>
7

>  <REMARK>
 VINA RESULT:      -3.3      3.809      8.202
  Name = 
  10 active torsions:
  status: ('A' for Active; 'I' for Inactive)
    1  A    between atoms: C_1  and  C_46
    2  A    between atoms: N_2  and  C_5
    3  A    between atoms: C_9  and  C_34
    4  A    between atoms: C_9  and  C_40
    5  A    between atoms: S_10  and  C_13
    6  A    between atoms: S_10  and  C_46
    7  A    between atoms: C_13  and  C_34
    8  A    between atoms: C_14  and  N_19
    9  A    between atoms: C_14  and  C_53
   10  A    between atoms: C_34  and  O_37
                            x       y       z     vdW  Elec       q    Type
                         _______ _______ _______ _____ _____    ______ ____

>  <TORSDO>
F 10

$$$$
=
 OpenBabel11042411133D

 54 61  0  0  1  0  0  0  0  0999 V2000
  188.2020  177.0210  141.6680 C   0  0  0  0  0  2  0  0  0  0  0  0
  184.2160  172.3970  136.1540 C   0  0  0  0  0  0  0  0  0  0  0  0
  189.3940  178.0120  138.4170 C   0  0  1  0  0  3  0  0  0  0  0  0
  187.8230  178.4880  141.6450 C   0  0  1  0  0  3  0  0  0  0  0  0
  190.5290  175.0200  137.1460 C   0  0  0  0  0  2  0  0  0  0  0  0
  188.1920  175.0300  136.7300 O   0  0  0  0  0  0  0  0  0  0  0  0
  192.3630  175.9790  135.6220 N   0  0  0  0  0  2  0  0  0  0  0  0
  183.5130  175.2290  136.1100 C   0  0  1  0  0  3  0  0  0  0  0  0
  187.1800  172.8990  137.1600 C   0  0  0  0  0  2  0  0  0  0  0  0
  187.9810  178.9120  140.1950 C   0  0  1  0  0  3  0  0  0  0  0  0
  184.7730  174.7640  134.8770 S   0  0  0  0  0  0  0  0  0  0  0  0
  182.4790  174.1400  136.1930 C   0  0  0  0  0  3  0  0  0  0  0  0
  182.8050  172.8470  136.2260 C   0  0  0  0  0  0  0  0  0  0  0  0
  190.4860  177.2140  136.3720 N   0  0  0  0  0  0  0  0  0  0  0  0
  184.5420  171.1310  136.6300 O   0  0  0  0  0  1  0  0  0  0  0  0
  188.3150  177.7270  139.3850 N   0  0  2  0  0  0  0  0  0  0  0  0
  185.7380  177.6410  140.3990 C   0  0  0  0  0  2  0  0  0  0  0  0
  186.5820  178.8450  140.8160 C   0  0  1  0  0  3  0  0  0  0  0  0
  189.2830  177.0990  137.1790 C   0  0  1  0  0  3  0  0  0  0  0  0
  188.8540  176.7610  140.3350 C   0  0  0  0  0  2  0  0  0  0  0  0
  183.4570  178.4680  139.5990 C   0  0  1  0  0  3  0  0  0  0  0  0
  187.3490  174.3460  137.6100 C   0  0  0  0  0  2  0  0  0  0  0  0
  185.1820  173.2020  135.6780 C   0  0  0  0  0  0  0  0  0  0  0  0
  183.6960  177.7570  138.2680 C   0  0  0  0  0  2  0  0  0  0  0  0
  183.2730  176.3030  138.3610 C   0  0  0  0  0  2  0  0  0  0  0  0
  189.1780  175.6110  137.5310 C   0  0  2  0  0  3  0  0  0  0  0  0
  191.1470  176.1130  136.3620 C   0  0  0  0  0  0  0  0  0  0  0  0
  184.1640  175.4650  137.4670 C   0  0  0  0  0  2  0  0  0  0  0  0
  184.2700  177.8640  140.7560 C   0  0  0  0  0  2  0  0  0  0  0  0
  186.6260  172.8100  135.7400 C   0  0  0  0  0  2  0  0  0  0  0  0
  181.7140  171.8420  136.3740 C   0  0  0  0  0  1  0  0  0  0  0  0
  189.3670  179.3930  137.9750 N   0  0  0  0  0  0  0  0  0  0  0  0
  188.5210  179.7790  137.0930 C   0  0  0  0  0  2  0  0  0  0  0  0
  183.7200  179.9600  139.4550 C   0  0  0  0  0  2  0  0  0  0  0  0
  182.5520  180.6260  138.7390 C   0  0  2  0  0  3  0  0  0  0  0  0
  182.9430  181.8850  138.2760 O   0  0  0  0  0  0  0  0  0  0  0  0
  181.9180  182.6680  138.5410 O   0  0  0  0  0  1  0  0  0  0  0  0
  181.3810  180.7890  139.6930 C   0  0  0  0  0  2  0  0  0  0  0  0
  179.8530  180.3100  138.9080 S   0  0  0  0  0  0  0  0  0  0  0  0
  178.9410  181.5030  138.8490 O   0  0  0  0  0  0  0  0  0  0  0  0
  180.1320  179.8310  137.5100 O   0  0  0  0  0  0  0  0  0  0  0  0
  179.0690  179.0190  139.8560 C   0  0  0  0  0  2  0  0  0  0  0  0
  179.7700  177.6890  139.6410 C   0  0  0  0  0  3  0  0  0  0  0  0
  179.0550  176.9400  138.7070 O   0  0  0  0  0  1  0  0  0  0  0  0
  179.8350  176.9850  140.8420 O   0  0  0  0  0  1  0  0  0  0  0  0
  193.1050  174.7290  135.5500 C   0  0  0  0  0  2  0  0  0  0  0  0
  195.2470  175.6200  136.4410 N   0  0  1  0  0  0  0  0  0  0  0  0
  194.7420  173.2730  136.7640 C   0  0  1  0  0  3  0  0  0  0  0  0
  196.4890  174.8180  136.4150 C   0  0  1  0  0  3  0  0  0  0  0  0
  196.4160  172.9910  137.8960 C   0  0  0  0  0  2  0  0  0  0  0  0
  196.1730  173.3900  136.5130 N   0  0  1  0  0  0  0  0  0  0  0  0
  195.9540  175.3560  135.1680 C   0  0  0  0  0  2  0  0  0  0  0  0
  194.9410  172.8800  138.2110 C   0  0  0  0  0  2  0  0  0  0  0  0
  194.1580  174.6650  136.6540 C   0  0  2  0  0  3  0  0  0  0  0  0
  2 13  1  0  0  0  0
  2 15  1  0  0  0  0
  3 32  1  6  0  0  0
  3 16  1  0  0  0  0
  4  1  1  6  0  0  0
  5 26  1  0  0  0  0
  6 26  1  0  0  0  0
  6 22  1  0  0  0  0
  7 27  1  0  0  0  0
  8 12  1  1  0  0  0
  8 28  1  0  0  0  0
  9 22  1  0  0  0  0
 10 18  1  0  0  0  0
 10  4  1  0  0  0  0
 11 23  1  0  0  0  0
 11  8  1  0  0  0  0
 12 13  2  0  0  0  0
 13 31  1  0  0  0  0
 14 19  1  0  0  0  0
 16 10  1  0  0  0  0
 16 20  1  0  0  0  0
 17 29  1  0  0  0  0
 17 18  1  0  0  0  0
 18  4  1  0  0  0  0
 19 26  1  0  0  0  0
 19  3  1  0  0  0  0
 20  1  1  0  0  0  0
 21 29  1  0  0  0  0
 23 30  1  0  0  0  0
 23  2  2  0  0  0  0
 24 25  1  0  0  0  0
 24 21  1  0  0  0  0
 27 14  2  0  0  0  0
 27  5  1  0  0  0  0
 28 25  1  0  0  0  0
 30  9  1  0  0  0  0
 33 32  2  0  0  0  0
 34 21  1  0  0  0  0
 35 34  1  0  0  0  0
 35 38  1  0  0  0  0
 36 37  1  0  0  0  0
 36 35  1  0  0  0  0
 39 38  1  0  0  0  0
 39 42  1  0  0  0  0
 40 39  2  0  0  0  0
 41 39  2  0  0  0  0
 43 42  1  0  0  0  0
 43 45  1  0  0  0  0
 44 43  1  0  0  0  0
 46  7  1  0  0  0  0
 46 54  1  0  0  0  0
 47 54  1  0  0  0  0
 48 53  1  0  0  0  0
 49 47  1  0  0  0  0
 49 51  1  0  0  0  0
 50 53  1  0  0  0  0
 51 48  1  0  0  0  0
 51 50  1  0  0  0  0
 52 49  1  0  0  0  0
 52 47  1  0  0  0  0
 54 48  1  0  0  0  0
M  END
>  <MODEL>
8

>  <REMARK>
 VINA RESULT:      -3.1      3.236      5.950
  Name = 
  10 active torsions:
  status: ('A' for Active; 'I' for Inactive)
    1  A    between atoms: C_1  and  C_46
    2  A    between atoms: N_2  and  C_5
    3  A    between atoms: C_9  and  C_34
    4  A    between atoms: C_9  and  C_40
    5  A    between atoms: S_10  and  C_13
    6  A    between atoms: S_10  and  C_46
    7  A    between atoms: C_13  and  C_34
    8  A    between atoms: C_14  and  N_19
    9  A    between atoms: C_14  and  C_53
   10  A    between atoms: C_34  and  O_37
                            x       y       z     vdW  Elec       q    Type
                         _______ _______ _______ _____ _____    ______ ____

>  <TORSDO>
F 10

$$$$
