=
 OpenBabel11042412113D

 37 41  0  0  1  0  0  0  0  0999 V2000
  187.2520  174.5400  135.1770 C   0  0  0  0  0  2  0  0  0  0  0  0
  184.7360  177.5210  137.9540 C   0  0  1  0  0  3  0  0  0  0  0  0
  186.1600  176.4070  136.4080 C   0  0  0  0  0  0  0  0  0  0  0  0
  184.2880  176.1630  137.6590 N   0  0  0  0  0  0  0  0  0  0  0  0
  185.9730  177.7360  137.0660 C   0  0  2  0  0  3  0  0  0  0  0  0
  185.8960  174.0090  135.0100 N   0  0  0  0  0  2  0  0  0  0  0  0
  187.2080  176.0600  135.3910 C   0  0  0  0  0  2  0  0  0  0  0  0
  185.1620  174.1520  136.2730 C   0  0  0  0  0  2  0  0  0  0  0  0
  185.1890  175.5810  136.7350 C   0  0  0  0  0  0  0  0  0  0  0  0
  188.9130  179.0240  138.5660 O   0  0  0  0  0  0  0  0  0  0  0  0
  187.1530  178.0930  137.9130 C   0  0  0  0  0  0  0  0  0  0  0  0
  188.0430  179.0560  137.6030 N   0  0  0  0  0  0  0  0  0  0  0  0
  188.5850  178.0900  139.4230 C   0  0  0  0  0  0  0  0  0  0  0  0
  187.4580  177.4490  139.0570 N   0  0  0  0  0  0  0  0  0  0  0  0
  190.2270  177.3280  142.8210 C   0  0  0  0  0  0  0  0  0  0  0  0
  189.3490  177.7740  140.6310 C   0  0  0  0  0  0  0  0  0  0  0  0
  190.6650  177.4650  140.6270 N   0  0  0  0  0  0  0  0  0  0  0  0
  188.7210  177.7520  142.1940 S   0  0  0  0  0  0  0  0  0  0  0  0
  191.1510  177.2170  141.8420 N   0  0  0  0  0  0  0  0  0  0  0  0
  189.4770  176.9200  145.1440 O   0  0  0  0  0  1  0  0  0  0  0  0
  191.7060  177.0790  144.6470 O   0  0  0  0  0  0  0  0  0  0  0  0
  190.5150  177.1050  144.2400 C   0  0  0  0  0  0  0  0  0  0  0  0
  183.4000  175.3990  138.5220 C   0  0  0  0  0  2  0  0  0  0  0  0
  180.9230  175.6180  139.3190 C   0  0  0  0  0  1  0  0  0  0  0  0
  181.7610  175.2510  137.7520 S   0  0  0  0  0  0  0  0  0  0  0  0
  183.6600  178.5330  137.5840 C   0  0  0  0  0  2  0  0  0  0  0  0
  184.5970  178.4660  143.2610 C   0  0  0  0  0  0  0  0  0  0  0  0
  182.2320  179.6100  139.3020 C   0  0  0  0  0  0  0  0  0  0  0  0
  181.3410  180.5600  139.0350 C   0  0  0  0  0  2  0  0  0  0  0  0
  184.5450  179.4090  139.6740 N   0  0  0  0  0  0  0  0  0  0  0  0
  183.5640  179.6370  138.6280 C   0  0  1  0  0  3  0  0  0  0  0  0
  183.3950  178.2780  143.5850 O   0  0  0  0  0  0  0  0  0  0  0  0
  184.0710  179.0600  140.8250 C   0  0  0  0  0  0  0  0  0  0  0  0
  184.9590  178.8530  141.9300 N   0  0  0  0  0  2  0  0  0  0  0  0
  182.2900  178.8810  140.9310 S   0  0  0  0  0  0  0  0  0  0  0  0
  185.1490  178.7840  145.6360 C   0  0  0  0  0  1  0  0  0  0  0  0
  185.6610  178.3140  144.2890 C   0  0  0  0  0  2  0  0  0  0  0  0
  1  7  1  0  0  0  0
  2 26  1  6  0  0  0
  3  9  2  0  0  0  0
  3  5  1  0  0  0  0
  4  2  1  0  0  0  0
  4 23  1  0  0  0  0
  5 11  1  1  0  0  0
  5  2  1  0  0  0  0
  6  1  1  0  0  0  0
  6  8  1  0  0  0  0
  7  3  1  0  0  0  0
  8  9  1  0  0  0  0
  9  4  1  0  0  0  0
 10 13  1  0  0  0  0
 11 14  1  0  0  0  0
 12 11  2  0  0  0  0
 12 10  1  0  0  0  0
 13 16  1  0  0  0  0
 14 13  2  0  0  0  0
 15 22  1  0  0  0  0
 16 18  1  0  0  0  0
 17 16  2  0  0  0  0
 17 19  1  0  0  0  0
 18 15  1  0  0  0  0
 19 15  2  0  0  0  0
 22 21  2  0  0  0  0
 22 20  1  0  0  0  0
 25 23  1  0  0  0  0
 25 24  1  0  0  0  0
 27 32  2  0  0  0  0
 27 37  1  0  0  0  0
 28 35  1  0  0  0  0
 29 28  2  0  0  0  0
 30 33  2  0  0  0  0
 31 26  1  6  0  0  0
 31 28  1  0  0  0  0
 31 30  1  0  0  0  0
 33 35  1  0  0  0  0
 33 34  1  0  0  0  0
 34 27  1  0  0  0  0
 37 36  1  0  0  0  0
M  END
>  <MODEL>
1

>  <REMARK>
 VINA RESULT:      -7.2      0.000      0.000
  Name = 
  8 active torsions:
  status: ('A' for Active; 'I' for Inactive)
    1  A    between atoms: C_1  and  C_10
    2  A    between atoms: C_6  and  C_32
    3  A    between atoms: C_11  and  C_24
    4  A    between atoms: C_12  and  C_31
    5  A    between atoms: C_13  and  C_35
    6  A    between atoms: C_17  and  C_35
    7  A    between atoms: N_23  and  C_28
    8  A    between atoms: C_28  and  S_37
                            x       y       z     vdW  Elec       q    Type
                         _______ _______ _______ _____ _____    ______ ____

>  <TORSDO>
F 8

$$$$
=
 OpenBabel11042412113D

 37 41  0  0  1  0  0  0  0  0999 V2000
  180.0010  179.9970  142.8090 C   0  0  0  0  0  2  0  0  0  0  0  0
  182.6880  178.8300  139.0220 C   0  0  1  0  0  3  0  0  0  0  0  0
  181.5020  179.0340  141.0740 C   0  0  0  0  0  0  0  0  0  0  0  0
  181.5480  179.7350  138.9210 N   0  0  0  0  0  0  0  0  0  0  0  0
  182.6430  178.2880  140.4610 C   0  0  2  0  0  3  0  0  0  0  0  0
  179.0500  180.1980  141.7120 N   0  0  0  0  0  2  0  0  0  0  0  0
  180.9770  178.8620  142.4690 C   0  0  0  0  0  2  0  0  0  0  0  0
  179.7680  180.7080  140.5370 C   0  0  0  0  0  2  0  0  0  0  0  0
  180.9050  179.7930  140.1800 C   0  0  0  0  0  0  0  0  0  0  0  0
  185.8110  179.4120  141.5790 O   0  0  0  0  0  0  0  0  0  0  0  0
  183.9290  178.5920  141.1620 C   0  0  0  0  0  0  0  0  0  0  0  0
  184.8490  179.4660  140.7090 N   0  0  0  0  0  0  0  0  0  0  0  0
  185.5080  178.5490  142.5160 C   0  0  0  0  0  0  0  0  0  0  0  0
  184.3050  177.9820  142.3040 N   0  0  0  0  0  0  0  0  0  0  0  0
  188.0670  177.5700  145.2220 C   0  0  0  0  0  0  0  0  0  0  0  0
  186.3710  178.2330  143.6560 C   0  0  0  0  0  0  0  0  0  0  0  0
  186.0250  178.4540  144.9430 N   0  0  0  0  0  0  0  0  0  0  0  0
  187.9070  177.5500  143.5440 S   0  0  0  0  0  0  0  0  0  0  0  0
  186.9660  178.0860  145.8110 N   0  0  0  0  0  0  0  0  0  0  0  0
  189.1010  176.6300  147.2630 O   0  0  0  0  0  1  0  0  0  0  0  0
  190.3750  177.1040  145.4200 O   0  0  0  0  0  0  0  0  0  0  0  0
  189.2370  177.0940  145.9610 C   0  0  0  0  0  0  0  0  0  0  0  0
  181.4110  180.7520  137.8890 C   0  0  0  0  0  2  0  0  0  0  0  0
  179.2650  181.9160  136.9650 C   0  0  0  0  0  1  0  0  0  0  0  0
  180.0690  180.3040  136.7490 S   0  0  0  0  0  0  0  0  0  0  0  0
  182.5480  177.6760  138.0380 C   0  0  0  0  0  2  0  0  0  0  0  0
  183.2830  172.2180  136.3700 C   0  0  0  0  0  0  0  0  0  0  0  0
  180.9450  175.8200  138.4050 C   0  0  0  0  0  0  0  0  0  0  0  0
  179.9610  175.8570  139.2980 C   0  0  0  0  0  2  0  0  0  0  0  0
  183.2510  175.3660  138.3320 N   0  0  0  0  0  0  0  0  0  0  0  0
  182.2880  176.3640  138.7640 C   0  0  1  0  0  3  0  0  0  0  0  0
  182.0990  172.0470  135.9750 O   0  0  0  0  0  0  0  0  0  0  0  0
  182.7800  174.4030  137.6100 C   0  0  0  0  0  0  0  0  0  0  0  0
  183.6450  173.3490  137.1710 N   0  0  0  0  0  2  0  0  0  0  0  0
  181.0280  174.4770  137.2320 S   0  0  0  0  0  0  0  0  0  0  0  0
  183.6730  169.8550  135.8150 C   0  0  0  0  0  1  0  0  0  0  0  0
  184.3200  171.2100  136.0240 C   0  0  0  0  0  2  0  0  0  0  0  0
  2 26  1  6  0  0  0
  2  5  1  0  0  0  0
  3  7  1  0  0  0  0
  4  2  1  0  0  0  0
  4  9  1  0  0  0  0
  5  3  1  0  0  0  0
  5 11  1  1  0  0  0
  6  1  1  0  0  0  0
  7  1  1  0  0  0  0
  8  6  1  0  0  0  0
  9  8  1  0  0  0  0
  9  3  2  0  0  0  0
 10 13  1  0  0  0  0
 11 14  1  0  0  0  0
 12 11  2  0  0  0  0
 12 10  1  0  0  0  0
 13 16  1  0  0  0  0
 14 13  2  0  0  0  0
 15 19  2  0  0  0  0
 15 22  1  0  0  0  0
 16 17  2  0  0  0  0
 17 19  1  0  0  0  0
 18 16  1  0  0  0  0
 18 15  1  0  0  0  0
 21 22  2  0  0  0  0
 22 20  1  0  0  0  0
 23  4  1  0  0  0  0
 25 24  1  0  0  0  0
 25 23  1  0  0  0  0
 27 34  1  0  0  0  0
 28 31  1  0  0  0  0
 28 29  2  0  0  0  0
 30 31  1  0  0  0  0
 31 26  1  6  0  0  0
 32 27  2  0  0  0  0
 33 30  2  0  0  0  0
 34 33  1  0  0  0  0
 35 33  1  0  0  0  0
 35 28  1  0  0  0  0
 36 37  1  0  0  0  0
 37 27  1  0  0  0  0
M  END
>  <MODEL>
2

>  <REMARK>
 VINA RESULT:      -6.9      3.164      6.618
  Name = 
  8 active torsions:
  status: ('A' for Active; 'I' for Inactive)
    1  A    between atoms: C_1  and  C_10
    2  A    between atoms: C_6  and  C_32
    3  A    between atoms: C_11  and  C_24
    4  A    between atoms: C_12  and  C_31
    5  A    between atoms: C_13  and  C_35
    6  A    between atoms: C_17  and  C_35
    7  A    between atoms: N_23  and  C_28
    8  A    between atoms: C_28  and  S_37
                            x       y       z     vdW  Elec       q    Type
                         _______ _______ _______ _____ _____    ______ ____

>  <TORSDO>
F 8

$$$$
=
 OpenBabel11042412113D

 37 41  0  0  1  0  0  0  0  0999 V2000
  189.8900  177.7020  137.7370 C   0  0  0  0  0  2  0  0  0  0  0  0
  185.2080  176.8450  137.2220 C   0  0  1  0  0  3  0  0  0  0  0  0
  187.4180  177.6930  137.4530 C   0  0  0  0  0  0  0  0  0  0  0  0
  186.2250  175.8560  136.8790 N   0  0  0  0  0  0  0  0  0  0  0  0
  185.9910  178.1260  137.5550 C   0  0  2  0  0  3  0  0  0  0  0  0
  189.9010  176.6870  136.6790 N   0  0  0  0  0  2  0  0  0  0  0  0
  188.6250  178.5660  137.6360 C   0  0  0  0  0  2  0  0  0  0  0  0
  188.8160  175.7280  136.9190 C   0  0  0  0  0  2  0  0  0  0  0  0
  187.5010  176.4460  137.0430 C   0  0  0  0  0  0  0  0  0  0  0  0
  184.8580  179.7030  140.5180 O   0  0  0  0  0  0  0  0  0  0  0  0
  185.6600  178.5810  138.9410 C   0  0  0  0  0  0  0  0  0  0  0  0
  184.8580  179.6270  139.2230 N   0  0  0  0  0  0  0  0  0  0  0  0
  185.6210  178.7610  141.0140 C   0  0  0  0  0  0  0  0  0  0  0  0
  186.1710  178.0030  140.0460 N   0  0  0  0  0  0  0  0  0  0  0  0
  185.8520  178.4210  144.8420 C   0  0  0  0  0  0  0  0  0  0  0  0
  185.8540  178.5560  142.4450 C   0  0  0  0  0  0  0  0  0  0  0  0
  186.9580  177.9610  142.9470 N   0  0  0  0  0  0  0  0  0  0  0  0
  184.8010  179.0280  143.6720 S   0  0  0  0  0  0  0  0  0  0  0  0
  186.9560  177.8860  144.2770 N   0  0  0  0  0  0  0  0  0  0  0  0
  184.3380  178.6940  146.7810 O   0  0  0  0  0  0  0  0  0  0  0  0
  186.5690  178.2810  147.0890 O   0  0  0  0  0  1  0  0  0  0  0  0
  185.6150  178.4600  146.2870 C   0  0  0  0  0  0  0  0  0  0  0  0
  185.9860  174.4200  136.8680 C   0  0  0  0  0  2  0  0  0  0  0  0
  186.8030  172.4510  135.3600 C   0  0  0  0  0  1  0  0  0  0  0  0
  185.6720  173.8560  135.1700 S   0  0  0  0  0  0  0  0  0  0  0  0
  184.2870  177.1030  136.0370 C   0  0  0  0  0  2  0  0  0  0  0  0
  180.7380  179.7710  139.6970 C   0  0  0  0  0  0  0  0  0  0  0  0
  182.7480  175.9930  137.6330 C   0  0  0  0  0  0  0  0  0  0  0  0
  182.3740  174.7210  137.5380 C   0  0  0  0  0  2  0  0  0  0  0  0
  182.1670  178.0800  136.7210 N   0  0  0  0  0  0  0  0  0  0  0  0
  182.8340  176.8310  136.4010 C   0  0  1  0  0  3  0  0  0  0  0  0
  180.9560  179.0000  140.6680 O   0  0  0  0  0  0  0  0  0  0  0  0
  181.8530  178.2500  137.9630 C   0  0  0  0  0  0  0  0  0  0  0  0
  181.1550  179.4330  138.3690 N   0  0  0  0  0  2  0  0  0  0  0  0
  182.3240  176.9350  139.0890 S   0  0  0  0  0  0  0  0  0  0  0  0
  179.3390  181.0170  141.2890 C   0  0  0  0  0  1  0  0  0  0  0  0
  180.0050  181.0440  139.9270 C   0  0  0  0  0  2  0  0  0  0  0  0
  2 26  1  6  0  0  0
  2  5  1  0  0  0  0
  3  5  1  0  0  0  0
  3  7  1  0  0  0  0
  4  9  1  0  0  0  0
  4  2  1  0  0  0  0
  5 11  1  1  0  0  0
  6  8  1  0  0  0  0
  6  1  1  0  0  0  0
  7  1  1  0  0  0  0
  8  9  1  0  0  0  0
  9  3  2  0  0  0  0
 10 13  1  0  0  0  0
 11 12  2  0  0  0  0
 11 14  1  0  0  0  0
 12 10  1  0  0  0  0
 13 16  1  0  0  0  0
 14 13  2  0  0  0  0
 15 22  1  0  0  0  0
 16 17  2  0  0  0  0
 16 18  1  0  0  0  0
 17 19  1  0  0  0  0
 18 15  1  0  0  0  0
 19 15  2  0  0  0  0
 22 20  2  0  0  0  0
 22 21  1  0  0  0  0
 23  4  1  0  0  0  0
 25 24  1  0  0  0  0
 25 23  1  0  0  0  0
 27 37  1  0  0  0  0
 27 32  2  0  0  0  0
 28 35  1  0  0  0  0
 29 28  2  0  0  0  0
 30 33  2  0  0  0  0
 31 26  1  1  0  0  0
 31 30  1  0  0  0  0
 31 28  1  0  0  0  0
 33 34  1  0  0  0  0
 33 35  1  0  0  0  0
 34 27  1  0  0  0  0
 37 36  1  0  0  0  0
M  END
>  <MODEL>
3

>  <REMARK>
 VINA RESULT:      -6.8      2.725      4.466
  Name = 
  8 active torsions:
  status: ('A' for Active; 'I' for Inactive)
    1  A    between atoms: C_1  and  C_10
    2  A    between atoms: C_6  and  C_32
    3  A    between atoms: C_11  and  C_24
    4  A    between atoms: C_12  and  C_31
    5  A    between atoms: C_13  and  C_35
    6  A    between atoms: C_17  and  C_35
    7  A    between atoms: N_23  and  C_28
    8  A    between atoms: C_28  and  S_37
                            x       y       z     vdW  Elec       q    Type
                         _______ _______ _______ _____ _____    ______ ____

>  <TORSDO>
F 8

$$$$
=
 OpenBabel11042412113D

 37 41  0  0  1  0  0  0  0  0999 V2000
  186.0660  174.3710  137.2010 C   0  0  0  0  0  2  0  0  0  0  0  0
  182.1200  177.0340  137.7120 C   0  0  1  0  0  3  0  0  0  0  0  0
  184.2670  176.0860  137.3260 C   0  0  0  0  0  0  0  0  0  0  0  0
  182.0670  175.5880  137.5240 N   0  0  0  0  0  0  0  0  0  0  0  0
  183.5990  177.4100  137.5180 C   0  0  2  0  0  3  0  0  0  0  0  0
  185.0730  173.5460  136.5070 N   0  0  0  0  0  2  0  0  0  0  0  0
  185.7240  175.8600  137.0470 C   0  0  0  0  0  2  0  0  0  0  0  0
  183.7800  173.6690  137.1910 C   0  0  0  0  0  2  0  0  0  0  0  0
  183.3810  175.1130  137.3010 C   0  0  0  0  0  0  0  0  0  0  0  0
  185.1990  179.4140  139.9620 O   0  0  0  0  0  0  0  0  0  0  0  0
  184.1130  178.1050  138.7380 C   0  0  0  0  0  0  0  0  0  0  0  0
  184.9950  179.1240  138.7140 N   0  0  0  0  0  0  0  0  0  0  0  0
  184.4890  178.6170  140.7200 C   0  0  0  0  0  0  0  0  0  0  0  0
  183.7660  177.7450  139.9900 N   0  0  0  0  0  0  0  0  0  0  0  0
  184.8850  178.6040  144.5500 C   0  0  0  0  0  0  0  0  0  0  0  0
  184.4820  178.6610  142.1830 C   0  0  0  0  0  0  0  0  0  0  0  0
  183.4000  179.0030  142.9180 N   0  0  0  0  0  0  0  0  0  0  0  0
  185.7980  178.2950  143.1680 S   0  0  0  0  0  0  0  0  0  0  0  0
  183.6240  178.9720  144.2310 N   0  0  0  0  0  0  0  0  0  0  0  0
  186.7380  178.3870  146.1750 O   0  0  0  0  0  0  0  0  0  0  0  0
  184.5650  178.4990  146.8890 O   0  0  0  0  0  1  0  0  0  0  0  0
  185.3760  178.4950  145.9250 C   0  0  0  0  0  0  0  0  0  0  0  0
  180.9660  174.7530  137.9810 C   0  0  0  0  0  2  0  0  0  0  0  0
  180.2130  172.3680  137.2330 C   0  0  0  0  0  1  0  0  0  0  0  0
  180.0900  174.0450  136.5550 S   0  0  0  0  0  0  0  0  0  0  0  0
  181.2730  177.7440  136.6640 C   0  0  0  0  0  2  0  0  0  0  0  0
  180.9600  183.4900  136.6310 C   0  0  0  0  0  0  0  0  0  0  0  0
  180.7980  179.1820  138.6280 C   0  0  0  0  0  0  0  0  0  0  0  0
  180.2500  178.7390  139.7550 C   0  0  0  0  0  2  0  0  0  0  0  0
  180.1210  179.8800  136.4880 N   0  0  0  0  0  0  0  0  0  0  0  0
  180.2790  178.6970  137.3150 C   0  0  1  0  0  3  0  0  0  0  0  0
  181.5810  183.6560  137.7130 O   0  0  0  0  0  0  0  0  0  0  0  0
  180.6160  180.9730  136.9670 C   0  0  0  0  0  0  0  0  0  0  0  0
  180.4720  182.2010  136.2410 N   0  0  0  0  0  2  0  0  0  0  0  0
  181.4460  180.8440  138.5510 S   0  0  0  0  0  0  0  0  0  0  0  0
  179.3500  185.2650  136.0840 C   0  0  0  0  0  1  0  0  0  0  0  0
  180.7000  184.6610  135.7520 C   0  0  0  0  0  2  0  0  0  0  0  0
  2 26  1  6  0  0  0
  3  5  1  0  0  0  0
  4  2  1  0  0  0  0
  4 23  1  0  0  0  0
  5  2  1  0  0  0  0
  5 11  1  1  0  0  0
  6  8  1  0  0  0  0
  6  1  1  0  0  0  0
  7  1  1  0  0  0  0
  7  3  1  0  0  0  0
  8  9  1  0  0  0  0
  9  3  2  0  0  0  0
  9  4  1  0  0  0  0
 10 13  1  0  0  0  0
 11 14  1  0  0  0  0
 12 11  2  0  0  0  0
 12 10  1  0  0  0  0
 13 16  1  0  0  0  0
 14 13  2  0  0  0  0
 15 22  1  0  0  0  0
 16 17  2  0  0  0  0
 16 18  1  0  0  0  0
 17 19  1  0  0  0  0
 18 15  1  0  0  0  0
 19 15  2  0  0  0  0
 22 20  2  0  0  0  0
 22 21  1  0  0  0  0
 25 24  1  0  0  0  0
 25 23  1  0  0  0  0
 27 32  2  0  0  0  0
 28 29  2  0  0  0  0
 30 33  2  0  0  0  0
 30 31  1  0  0  0  0
 31 26  1  6  0  0  0
 31 28  1  0  0  0  0
 33 35  1  0  0  0  0
 34 27  1  0  0  0  0
 34 33  1  0  0  0  0
 35 28  1  0  0  0  0
 37 36  1  0  0  0  0
 37 27  1  0  0  0  0
M  END
>  <MODEL>
4

>  <REMARK>
 VINA RESULT:      -6.6      3.142      5.334
  Name = 
  8 active torsions:
  status: ('A' for Active; 'I' for Inactive)
    1  A    between atoms: C_1  and  C_10
    2  A    between atoms: C_6  and  C_32
    3  A    between atoms: C_11  and  C_24
    4  A    between atoms: C_12  and  C_31
    5  A    between atoms: C_13  and  C_35
    6  A    between atoms: C_17  and  C_35
    7  A    between atoms: N_23  and  C_28
    8  A    between atoms: C_28  and  S_37
                            x       y       z     vdW  Elec       q    Type
                         _______ _______ _______ _____ _____    ______ ____

>  <TORSDO>
F 8

$$$$
=
 OpenBabel11042412113D

 37 41  0  0  1  0  0  0  0  0999 V2000
  180.9810  183.0620  137.3060 C   0  0  0  0  0  2  0  0  0  0  0  0
  181.3790  178.2960  137.5330 C   0  0  1  0  0  3  0  0  0  0  0  0
  181.0780  180.6340  137.8460 C   0  0  0  0  0  0  0  0  0  0  0  0
  181.1240  178.9990  136.2800 N   0  0  0  0  0  0  0  0  0  0  0  0
  181.2900  179.3760  138.6240 C   0  0  2  0  0  3  0  0  0  0  0  0
  180.1950  182.6540  136.1380 N   0  0  0  0  0  2  0  0  0  0  0  0
  180.8750  182.0070  138.4160 C   0  0  0  0  0  2  0  0  0  0  0  0
  180.8060  181.4630  135.5350 C   0  0  0  0  0  2  0  0  0  0  0  0
  180.9570  180.3760  136.5610 C   0  0  0  0  0  0  0  0  0  0  0  0
  184.5830  179.7450  139.8770 O   0  0  0  0  0  0  0  0  0  0  0  0
  182.5680  179.4260  139.3990 C   0  0  0  0  0  0  0  0  0  0  0  0
  183.7290  179.9110  138.9140 N   0  0  0  0  0  0  0  0  0  0  0  0
  183.9890  179.1830  140.9000 C   0  0  0  0  0  0  0  0  0  0  0  0
  182.6850  178.9490  140.6540 N   0  0  0  0  0  0  0  0  0  0  0  0
  185.4060  178.4780  144.4100 C   0  0  0  0  0  0  0  0  0  0  0  0
  184.6570  178.8460  142.1580 C   0  0  0  0  0  0  0  0  0  0  0  0
  185.8580  178.2290  142.2280 N   0  0  0  0  0  0  0  0  0  0  0  0
  184.0470  179.1720  143.6940 S   0  0  0  0  0  0  0  0  0  0  0  0
  186.2730  178.0250  143.4770 N   0  0  0  0  0  0  0  0  0  0  0  0
  184.5830  178.5400  146.7420 O   0  0  0  0  0  1  0  0  0  0  0  0
  186.7900  178.1250  146.2930 O   0  0  0  0  0  0  0  0  0  0  0  0
  185.6350  178.3710  145.8520 C   0  0  0  0  0  0  0  0  0  0  0  0
  181.4770  178.4720  134.9700 C   0  0  0  0  0  2  0  0  0  0  0  0
  182.0590  175.9530  134.6050 C   0  0  0  0  0  1  0  0  0  0  0  0
  182.9690  177.4430  135.0960 S   0  0  0  0  0  0  0  0  0  0  0  0
  180.3160  177.2330  137.7790 C   0  0  0  0  0  2  0  0  0  0  0  0
  184.4750  173.2740  137.4040 C   0  0  0  0  0  0  0  0  0  0  0  0
  180.1460  174.8750  138.5290 C   0  0  0  0  0  0  0  0  0  0  0  0
  179.2200  174.4320  139.3740 C   0  0  0  0  0  2  0  0  0  0  0  0
  182.2260  175.9690  138.6010 N   0  0  0  0  0  0  0  0  0  0  0  0
  180.8020  176.1930  138.7790 C   0  0  1  0  0  3  0  0  0  0  0  0
  183.7220  172.3340  137.0380 O   0  0  0  0  0  0  0  0  0  0  0  0
  182.5590  174.8220  138.1080 C   0  0  0  0  0  0  0  0  0  0  0  0
  183.9430  174.4940  137.9340 N   0  0  0  0  0  2  0  0  0  0  0  0
  181.2120  173.7130  137.6920 S   0  0  0  0  0  0  0  0  0  0  0  0
  186.5930  174.4040  136.8730 C   0  0  0  0  0  1  0  0  0  0  0  0
  185.9500  173.1040  137.3130 C   0  0  0  0  0  2  0  0  0  0  0  0
  1  7  1  0  0  0  0
  2 26  1  1  0  0  0
  2  5  1  0  0  0  0
  3  7  1  0  0  0  0
  3  5  1  0  0  0  0
  4  9  1  0  0  0  0
  4  2  1  0  0  0  0
  5 11  1  6  0  0  0
  6  1  1  0  0  0  0
  8  6  1  0  0  0  0
  8  9  1  0  0  0  0
  9  3  2  0  0  0  0
 10 13  1  0  0  0  0
 11 14  1  0  0  0  0
 12 11  2  0  0  0  0
 12 10  1  0  0  0  0
 13 16  1  0  0  0  0
 14 13  2  0  0  0  0
 15 22  1  0  0  0  0
 16 17  2  0  0  0  0
 16 18  1  0  0  0  0
 17 19  1  0  0  0  0
 18 15  1  0  0  0  0
 19 15  2  0  0  0  0
 22 21  2  0  0  0  0
 22 20  1  0  0  0  0
 23 25  1  0  0  0  0
 23  4  1  0  0  0  0
 24 25  1  0  0  0  0
 27 34  1  0  0  0  0
 28 31  1  0  0  0  0
 28 29  2  0  0  0  0
 30 31  1  0  0  0  0
 31 26  1  6  0  0  0
 32 27  2  0  0  0  0
 33 30  2  0  0  0  0
 34 33  1  0  0  0  0
 35 33  1  0  0  0  0
 35 28  1  0  0  0  0
 36 37  1  0  0  0  0
 37 27  1  0  0  0  0
M  END
>  <MODEL>
5

>  <REMARK>
 VINA RESULT:      -6.5      3.239      6.289
  Name = 
  8 active torsions:
  status: ('A' for Active; 'I' for Inactive)
    1  A    between atoms: C_1  and  C_10
    2  A    between atoms: C_6  and  C_32
    3  A    between atoms: C_11  and  C_24
    4  A    between atoms: C_12  and  C_31
    5  A    between atoms: C_13  and  C_35
    6  A    between atoms: C_17  and  C_35
    7  A    between atoms: N_23  and  C_28
    8  A    between atoms: C_28  and  S_37
                            x       y       z     vdW  Elec       q    Type
                         _______ _______ _______ _____ _____    ______ ____

>  <TORSDO>
F 8

$$$$
=
 OpenBabel11042412113D

 37 41  0  0  1  0  0  0  0  0999 V2000
  184.2030  178.8250  145.1240 C   0  0  0  0  0  2  0  0  0  0  0  0
  187.2980  178.2900  141.5090 C   0  0  1  0  0  3  0  0  0  0  0  0
  185.6580  178.9340  143.1070 C   0  0  0  0  0  0  0  0  0  0  0  0
  187.4670  177.6100  142.7890 N   0  0  0  0  0  0  0  0  0  0  0  0
  186.1110  179.2450  141.7170 C   0  0  2  0  0  3  0  0  0  0  0  0
  185.4270  178.4660  145.8470 N   0  0  0  0  0  2  0  0  0  0  0  0
  184.5460  179.6130  143.8510 C   0  0  0  0  0  2  0  0  0  0  0  0
  186.1960  177.5040  145.0480 C   0  0  0  0  0  2  0  0  0  0  0  0
  186.4550  178.0530  143.6740 C   0  0  0  0  0  0  0  0  0  0  0  0
  183.8090  179.1080  139.0280 O   0  0  0  0  0  0  0  0  0  0  0  0
  185.0370  178.9520  140.7180 C   0  0  0  0  0  0  0  0  0  0  0  0
  184.8410  179.6600  139.5880 N   0  0  0  0  0  0  0  0  0  0  0  0
  183.3840  178.1160  139.7710 C   0  0  0  0  0  0  0  0  0  0  0  0
  184.1340  177.9650  140.8790 N   0  0  0  0  0  0  0  0  0  0  0  0
  180.6360  175.5750  138.8660 C   0  0  0  0  0  0  0  0  0  0  0  0
  182.2320  177.2750  139.4420 C   0  0  0  0  0  0  0  0  0  0  0  0
  180.9630  177.7340  139.3740 N   0  0  0  0  0  0  0  0  0  0  0  0
  182.3050  175.6280  139.0960 S   0  0  0  0  0  0  0  0  0  0  0  0
  180.0780  176.7910  139.0560 N   0  0  0  0  0  0  0  0  0  0  0  0
  179.8580  173.9240  137.1960 O   0  0  0  0  0  0  0  0  0  0  0  0
  179.2280  173.7510  139.3910 O   0  0  0  0  0  1  0  0  0  0  0  0
  179.8740  174.3770  138.5090 C   0  0  0  0  0  0  0  0  0  0  0  0
  188.2050  176.3660  142.9540 C   0  0  0  0  0  2  0  0  0  0  0  0
  190.7130  175.6490  142.8480 C   0  0  0  0  0  1  0  0  0  0  0  0
  189.6900  176.6520  143.9600 S   0  0  0  0  0  0  0  0  0  0  0  0
  188.5430  179.0920  141.1570 C   0  0  0  0  0  2  0  0  0  0  0  0
  186.1640  175.9170  136.9890 C   0  0  0  0  0  0  0  0  0  0  0  0
  189.7410  177.4860  139.6950 C   0  0  0  0  0  0  0  0  0  0  0  0
  191.0590  177.4790  139.5270 C   0  0  0  0  0  2  0  0  0  0  0  0
  187.8590  178.6280  138.8690 N   0  0  0  0  0  0  0  0  0  0  0  0
  189.0100  178.7870  139.7400 C   0  0  1  0  0  3  0  0  0  0  0  0
  186.8030  174.8640  137.2530 O   0  0  0  0  0  0  0  0  0  0  0  0
  187.6340  177.4280  138.4450 C   0  0  0  0  0  0  0  0  0  0  0  0
  186.5450  177.1800  137.5470 N   0  0  0  0  0  2  0  0  0  0  0  0
  188.7550  176.1550  139.0290 S   0  0  0  0  0  0  0  0  0  0  0  0
  184.1970  177.1300  136.1520 C   0  0  0  0  0  1  0  0  0  0  0  0
  185.0080  175.8530  136.0550 C   0  0  0  0  0  2  0  0  0  0  0  0
  1  6  1  0  0  0  0
  2 26  1  1  0  0  0
  2  5  1  0  0  0  0
  2  4  1  0  0  0  0
  3  9  2  0  0  0  0
  3  7  1  0  0  0  0
  4 23  1  0  0  0  0
  4  9  1  0  0  0  0
  5 11  1  6  0  0  0
  5  3  1  0  0  0  0
  7  1  1  0  0  0  0
  8  6  1  0  0  0  0
  9  8  1  0  0  0  0
 10 12  1  0  0  0  0
 10 13  1  0  0  0  0
 11 14  1  0  0  0  0
 12 11  2  0  0  0  0
 13 14  2  0  0  0  0
 15 19  2  0  0  0  0
 15 18  1  0  0  0  0
 16 13  1  0  0  0  0
 17 16  2  0  0  0  0
 18 16  1  0  0  0  0
 19 17  1  0  0  0  0
 20 22  2  0  0  0  0
 22 15  1  0  0  0  0
 22 21  1  0  0  0  0
 23 25  1  0  0  0  0
 24 25  1  0  0  0  0
 27 32  2  0  0  0  0
 27 34  1  0  0  0  0
 28 31  1  0  0  0  0
 29 28  2  0  0  0  0
 30 31  1  0  0  0  0
 31 26  1  1  0  0  0
 33 30  2  0  0  0  0
 33 35  1  0  0  0  0
 34 33  1  0  0  0  0
 35 28  1  0  0  0  0
 37 36  1  0  0  0  0
 37 27  1  0  0  0  0
M  END
>  <MODEL>
6

>  <REMARK>
 VINA RESULT:      -6.4      3.050      8.328
  Name = 
  8 active torsions:
  status: ('A' for Active; 'I' for Inactive)
    1  A    between atoms: C_1  and  C_10
    2  A    between atoms: C_6  and  C_32
    3  A    between atoms: C_11  and  C_24
    4  A    between atoms: C_12  and  C_31
    5  A    between atoms: C_13  and  C_35
    6  A    between atoms: C_17  and  C_35
    7  A    between atoms: N_23  and  C_28
    8  A    between atoms: C_28  and  S_37
                            x       y       z     vdW  Elec       q    Type
                         _______ _______ _______ _____ _____    ______ ____

>  <TORSDO>
F 8

$$$$
=
 OpenBabel11042412113D

 37 41  0  0  1  0  0  0  0  0999 V2000
  190.2950  177.5880  144.0610 C   0  0  0  0  0  2  0  0  0  0  0  0
  188.6370  178.0480  139.5920 C   0  0  1  0  0  3  0  0  0  0  0  0
  189.2800  178.2140  141.8760 C   0  0  0  0  0  0  0  0  0  0  0  0
  189.7540  177.1700  139.9240 N   0  0  0  0  0  0  0  0  0  0  0  0
  188.3350  178.8190  140.8890 C   0  0  2  0  0  3  0  0  0  0  0  0
  191.4840  177.2370  143.2780 N   0  0  0  0  0  2  0  0  0  0  0  0
  189.4480  178.6260  143.3100 C   0  0  0  0  0  2  0  0  0  0  0  0
  191.0690  176.5230  142.0650 C   0  0  0  0  0  2  0  0  0  0  0  0
  190.0680  177.3360  141.2940 C   0  0  0  0  0  0  0  0  0  0  0  0
  185.2360  177.8850  142.3290 O   0  0  0  0  0  0  0  0  0  0  0  0
  186.9120  178.5980  141.2940 C   0  0  0  0  0  0  0  0  0  0  0  0
  186.5320  177.8410  142.3420 N   0  0  0  0  0  0  0  0  0  0  0  0
  184.8310  178.6240  141.3250 C   0  0  0  0  0  0  0  0  0  0  0  0
  185.8670  179.1130  140.6160 N   0  0  0  0  0  0  0  0  0  0  0  0
  181.0440  179.1630  140.8890 C   0  0  0  0  0  0  0  0  0  0  0  0
  183.4270  178.8860  141.0080 C   0  0  0  0  0  0  0  0  0  0  0  0
  183.0050  179.3830  139.8240 N   0  0  0  0  0  0  0  0  0  0  0  0
  182.1330  178.6100  142.0510 S   0  0  0  0  0  0  0  0  0  0  0  0
  181.6840  179.5370  139.7590 N   0  0  0  0  0  0  0  0  0  0  0  0
  178.9360  178.3120  141.8660 O   0  0  0  0  0  1  0  0  0  0  0  0
  178.9310  180.1410  140.4880 O   0  0  0  0  0  0  0  0  0  0  0  0
  179.5920  179.2370  141.0640 C   0  0  0  0  0  0  0  0  0  0  0  0
  190.1260  176.0020  139.1390 C   0  0  0  0  0  2  0  0  0  0  0  0
  191.6620  174.6670  137.5030 C   0  0  0  0  0  1  0  0  0  0  0  0
  191.6720  176.3240  138.2400 S   0  0  0  0  0  0  0  0  0  0  0  0
  189.0310  179.0280  138.4960 C   0  0  0  0  0  2  0  0  0  0  0  0
  184.0870  176.1980  137.6790 C   0  0  0  0  0  0  0  0  0  0  0  0
  188.5280  177.5030  136.6060 C   0  0  0  0  0  0  0  0  0  0  0  0
  189.2170  177.4800  135.4690 C   0  0  0  0  0  2  0  0  0  0  0  0
  186.7890  178.7380  137.5960 N   0  0  0  0  0  0  0  0  0  0  0  0
  188.1960  178.8120  137.2410 C   0  0  1  0  0  3  0  0  0  0  0  0
  184.6200  175.1170  137.3150 O   0  0  0  0  0  0  0  0  0  0  0  0
  186.2380  177.5750  137.4750 C   0  0  0  0  0  0  0  0  0  0  0  0
  184.8440  177.4120  137.7620 N   0  0  0  0  0  2  0  0  0  0  0  0
  187.3060  176.2420  136.9270 S   0  0  0  0  0  0  0  0  0  0  0  0
  182.4140  175.7370  139.4210 C   0  0  0  0  0  1  0  0  0  0  0  0
  182.6350  176.2230  138.0020 C   0  0  0  0  0  2  0  0  0  0  0  0
  2 26  1  6  0  0  0
  2  4  1  0  0  0  0
  2  5  1  0  0  0  0
  3  7  1  0  0  0  0
  4  9  1  0  0  0  0
  5 11  1  1  0  0  0
  5  3  1  0  0  0  0
  6  1  1  0  0  0  0
  7  1  1  0  0  0  0
  8  6  1  0  0  0  0
  9  3  2  0  0  0  0
  9  8  1  0  0  0  0
 10 12  1  0  0  0  0
 11 12  2  0  0  0  0
 13 10  1  0  0  0  0
 14 11  1  0  0  0  0
 14 13  2  0  0  0  0
 15 22  1  0  0  0  0
 15 18  1  0  0  0  0
 16 13  1  0  0  0  0
 16 18  1  0  0  0  0
 17 16  2  0  0  0  0
 19 17  1  0  0  0  0
 19 15  2  0  0  0  0
 21 22  2  0  0  0  0
 22 20  1  0  0  0  0
 23  4  1  0  0  0  0
 24 25  1  0  0  0  0
 25 23  1  0  0  0  0
 27 34  1  0  0  0  0
 27 37  1  0  0  0  0
 28 35  1  0  0  0  0
 28 31  1  0  0  0  0
 29 28  2  0  0  0  0
 31 30  1  0  0  0  0
 31 26  1  1  0  0  0
 32 27  2  0  0  0  0
 33 30  2  0  0  0  0
 33 34  1  0  0  0  0
 35 33  1  0  0  0  0
 37 36  1  0  0  0  0
M  END
>  <MODEL>
7

>  <REMARK>
 VINA RESULT:      -6.3      2.838      7.610
  Name = 
  8 active torsions:
  status: ('A' for Active; 'I' for Inactive)
    1  A    between atoms: C_1  and  C_10
    2  A    between atoms: C_6  and  C_32
    3  A    between atoms: C_11  and  C_24
    4  A    between atoms: C_12  and  C_31
    5  A    between atoms: C_13  and  C_35
    6  A    between atoms: C_17  and  C_35
    7  A    between atoms: N_23  and  C_28
    8  A    between atoms: C_28  and  S_37
                            x       y       z     vdW  Elec       q    Type
                         _______ _______ _______ _____ _____    ______ ____

>  <TORSDO>
F 8

$$$$
=
 OpenBabel11042412113D

 37 41  0  0  1  0  0  0  0  0999 V2000
  180.5190  179.7680  143.8840 C   0  0  0  0  0  2  0  0  0  0  0  0
  181.5890  178.7070  139.3390 C   0  0  1  0  0  3  0  0  0  0  0  0
  181.2720  178.8630  141.6920 C   0  0  0  0  0  0  0  0  0  0  0  0
  180.4670  179.5690  139.6960 N   0  0  0  0  0  0  0  0  0  0  0  0
  182.1160  178.1610  140.6770 C   0  0  2  0  0  3  0  0  0  0  0  0
  179.2140  179.9350  143.2370 N   0  0  0  0  0  2  0  0  0  0  0  0
  181.3280  178.6700  143.1790 C   0  0  0  0  0  2  0  0  0  0  0  0
  179.4100  180.4730  141.8860 C   0  0  0  0  0  2  0  0  0  0  0  0
  180.3540  179.6020  141.1070 C   0  0  0  0  0  0  0  0  0  0  0  0
  185.4380  179.3790  140.4970 O   0  0  0  0  0  0  0  0  0  0  0  0
  183.5610  178.5120  140.8370 C   0  0  0  0  0  0  0  0  0  0  0  0
  184.2210  179.3850  140.0500 N   0  0  0  0  0  0  0  0  0  0  0  0
  185.5330  178.5440  141.5030 C   0  0  0  0  0  0  0  0  0  0  0  0
  184.3550  177.9500  141.7710 N   0  0  0  0  0  0  0  0  0  0  0  0
  188.5280  177.7910  143.8010 C   0  0  0  0  0  0  0  0  0  0  0  0
  186.7680  178.2840  142.2440 C   0  0  0  0  0  0  0  0  0  0  0  0
  188.0010  178.3530  141.6960 N   0  0  0  0  0  0  0  0  0  0  0  0
  186.8460  177.8680  143.8740 S   0  0  0  0  0  0  0  0  0  0  0  0
  188.9770  178.0790  142.5590 N   0  0  0  0  0  0  0  0  0  0  0  0
  188.9090  176.7530  146.0150 O   0  0  0  0  0  1  0  0  0  0  0  0
  190.6150  177.8080  144.9100 O   0  0  0  0  0  0  0  0  0  0  0  0
  189.4050  177.4570  144.9260 C   0  0  0  0  0  0  0  0  0  0  0  0
  179.9110  180.5820  138.8110 C   0  0  0  0  0  2  0  0  0  0  0  0
  180.3470  182.7410  137.4090 C   0  0  0  0  0  1  0  0  0  0  0  0
  181.1790  181.1460  137.6380 S   0  0  0  0  0  0  0  0  0  0  0  0
  181.1210  177.5510  138.4650 C   0  0  0  0  0  2  0  0  0  0  0  0
  182.0490  172.3520  136.1790 C   0  0  0  0  0  0  0  0  0  0  0  0
  180.1810  175.4120  139.2970 C   0  0  0  0  0  0  0  0  0  0  0  0
  179.6750  175.2500  140.5160 C   0  0  0  0  0  2  0  0  0  0  0  0
  182.2830  175.4250  138.2440 N   0  0  0  0  0  0  0  0  0  0  0  0
  181.4300  176.2100  139.1180 C   0  0  1  0  0  3  0  0  0  0  0  0
  180.8610  171.9510  136.2930 O   0  0  0  0  0  0  0  0  0  0  0  0
  181.7320  174.3900  137.6990 C   0  0  0  0  0  0  0  0  0  0  0  0
  182.5060  173.5300  136.8540 N   0  0  0  0  0  2  0  0  0  0  0  0
  180.0020  174.1160  138.0830 S   0  0  0  0  0  0  0  0  0  0  0  0
  183.4310  170.3210  136.0960 C   0  0  0  0  0  1  0  0  0  0  0  0
  183.0060  171.5710  135.3510 C   0  0  0  0  0  2  0  0  0  0  0  0
  2 26  1  6  0  0  0
  2  4  1  0  0  0  0
  2  5  1  0  0  0  0
  3  7  1  0  0  0  0
  4  9  1  0  0  0  0
  5 11  1  1  0  0  0
  5  3  1  0  0  0  0
  6  1  1  0  0  0  0
  7  1  1  0  0  0  0
  8  6  1  0  0  0  0
  9  3  2  0  0  0  0
  9  8  1  0  0  0  0
 10 13  1  0  0  0  0
 11 14  1  0  0  0  0
 12 10  1  0  0  0  0
 12 11  2  0  0  0  0
 13 14  2  0  0  0  0
 13 16  1  0  0  0  0
 15 18  1  0  0  0  0
 15 22  1  0  0  0  0
 16 18  1  0  0  0  0
 17 16  2  0  0  0  0
 17 19  1  0  0  0  0
 19 15  2  0  0  0  0
 21 22  2  0  0  0  0
 22 20  1  0  0  0  0
 23  4  1  0  0  0  0
 24 25  1  0  0  0  0
 25 23  1  0  0  0  0
 27 32  2  0  0  0  0
 27 34  1  0  0  0  0
 28 29  2  0  0  0  0
 30 31  1  0  0  0  0
 31 26  1  6  0  0  0
 31 28  1  0  0  0  0
 33 35  1  0  0  0  0
 33 30  2  0  0  0  0
 34 33  1  0  0  0  0
 35 28  1  0  0  0  0
 37 36  1  0  0  0  0
 37 27  1  0  0  0  0
M  END
>  <MODEL>
8

>  <REMARK>
 VINA RESULT:      -6.1      3.164      6.731
  Name = 
  8 active torsions:
  status: ('A' for Active; 'I' for Inactive)
    1  A    between atoms: C_1  and  C_10
    2  A    between atoms: C_6  and  C_32
    3  A    between atoms: C_11  and  C_24
    4  A    between atoms: C_12  and  C_31
    5  A    between atoms: C_13  and  C_35
    6  A    between atoms: C_17  and  C_35
    7  A    between atoms: N_23  and  C_28
    8  A    between atoms: C_28  and  S_37
                            x       y       z     vdW  Elec       q    Type
                         _______ _______ _______ _____ _____    ______ ____

>  <TORSDO>
F 8

$$$$
=
 OpenBabel11042412113D

 37 41  0  0  1  0  0  0  0  0999 V2000
  185.3550  173.6540  135.5900 C   0  0  0  0  0  2  0  0  0  0  0  0
  183.7350  177.3690  138.1390 C   0  0  1  0  0  3  0  0  0  0  0  0
  184.7190  175.8310  136.6140 C   0  0  0  0  0  0  0  0  0  0  0  0
  183.0980  176.0570  138.1790 N   0  0  0  0  0  0  0  0  0  0  0  0
  184.8010  177.2630  137.0350 C   0  0  2  0  0  3  0  0  0  0  0  0
  183.9430  173.2960  135.7500 N   0  0  0  0  0  2  0  0  0  0  0  0
  185.5150  175.1790  135.5220 C   0  0  0  0  0  2  0  0  0  0  0  0
  183.4770  173.7440  137.0680 C   0  0  0  0  0  2  0  0  0  0  0  0
  183.7430  175.2120  137.2450 C   0  0  0  0  0  0  0  0  0  0  0  0
  187.7050  178.6280  138.5380 O   0  0  0  0  0  0  0  0  0  0  0  0
  186.1500  177.5870  137.5950 C   0  0  0  0  0  0  0  0  0  0  0  0
  186.4430  178.7260  138.2520 N   0  0  0  0  0  0  0  0  0  0  0  0
  188.1720  177.4930  138.0790 C   0  0  0  0  0  0  0  0  0  0  0  0
  187.2170  176.7750  137.4560 N   0  0  0  0  0  0  0  0  0  0  0  0
  191.8160  176.2520  138.0230 C   0  0  0  0  0  0  0  0  0  0  0  0
  189.5620  177.0570  138.2190 C   0  0  0  0  0  0  0  0  0  0  0  0
  190.2420  177.0840  139.3860 N   0  0  0  0  0  0  0  0  0  0  0  0
  190.5180  176.4590  136.9680 S   0  0  0  0  0  0  0  0  0  0  0  0
  191.4930  176.6380  139.2770 N   0  0  0  0  0  0  0  0  0  0  0  0
  193.2660  174.9220  136.5230 O   0  0  0  0  0  0  0  0  0  0  0  0
  194.1440  175.9990  138.3430 O   0  0  0  0  0  1  0  0  0  0  0  0
  193.1300  175.7260  137.6480 C   0  0  0  0  0  0  0  0  0  0  0  0
  182.3090  175.5760  139.3040 C   0  0  0  0  0  2  0  0  0  0  0  0
  180.0440  175.1550  140.5320 C   0  0  0  0  0  1  0  0  0  0  0  0
  180.5680  175.4040  138.8140 S   0  0  0  0  0  0  0  0  0  0  0  0
  182.7250  178.4470  137.7690 C   0  0  0  0  0  2  0  0  0  0  0  0
  184.7960  178.6140  143.1350 C   0  0  0  0  0  0  0  0  0  0  0  0
  181.5290  179.3220  139.7580 C   0  0  0  0  0  0  0  0  0  0  0  0
  180.4690  180.1220  139.6920 C   0  0  0  0  0  2  0  0  0  0  0  0
  183.8730  179.4800  139.6490 N   0  0  0  0  0  0  0  0  0  0  0  0
  182.6760  179.5400  138.8270 C   0  0  1  0  0  3  0  0  0  0  0  0
  183.7270  178.2510  143.6940 O   0  0  0  0  0  0  0  0  0  0  0  0
  183.7010  179.0820  140.8660 C   0  0  0  0  0  0  0  0  0  0  0  0
  184.8170  179.0300  141.7650 N   0  0  0  0  0  2  0  0  0  0  0  0
  182.0270  178.6370  141.3290 S   0  0  0  0  0  0  0  0  0  0  0  0
  186.4570  177.2300  144.3040 C   0  0  0  0  0  1  0  0  0  0  0  0
  186.0570  178.6410  143.9230 C   0  0  0  0  0  2  0  0  0  0  0  0
  1  6  1  0  0  0  0
  2 26  1  6  0  0  0
  2  4  1  0  0  0  0
  3  5  1  0  0  0  0
  3  9  2  0  0  0  0
  4 23  1  0  0  0  0
  5 11  1  1  0  0  0
  5  2  1  0  0  0  0
  6  8  1  0  0  0  0
  7  1  1  0  0  0  0
  7  3  1  0  0  0  0
  8  9  1  0  0  0  0
  9  4  1  0  0  0  0
 11 12  2  0  0  0  0
 12 10  1  0  0  0  0
 13 16  1  0  0  0  0
 13 10  1  0  0  0  0
 14 11  1  0  0  0  0
 14 13  2  0  0  0  0
 15 19  2  0  0  0  0
 16 17  2  0  0  0  0
 18 15  1  0  0  0  0
 18 16  1  0  0  0  0
 19 17  1  0  0  0  0
 20 22  2  0  0  0  0
 22 15  1  0  0  0  0
 22 21  1  0  0  0  0
 25 23  1  0  0  0  0
 25 24  1  0  0  0  0
 27 32  2  0  0  0  0
 27 37  1  0  0  0  0
 28 35  1  0  0  0  0
 29 28  2  0  0  0  0
 30 33  2  0  0  0  0
 31 26  1  6  0  0  0
 31 30  1  0  0  0  0
 31 28  1  0  0  0  0
 33 35  1  0  0  0  0
 33 34  1  0  0  0  0
 34 27  1  0  0  0  0
 37 36  1  0  0  0  0
M  END
>  <MODEL>
9

>  <REMARK>
 VINA RESULT:      -5.9      2.378      2.948
  Name = 
  8 active torsions:
  status: ('A' for Active; 'I' for Inactive)
    1  A    between atoms: C_1  and  C_10
    2  A    between atoms: C_6  and  C_32
    3  A    between atoms: C_11  and  C_24
    4  A    between atoms: C_12  and  C_31
    5  A    between atoms: C_13  and  C_35
    6  A    between atoms: C_17  and  C_35
    7  A    between atoms: N_23  and  C_28
    8  A    between atoms: C_28  and  S_37
                            x       y       z     vdW  Elec       q    Type
                         _______ _______ _______ _____ _____    ______ ____

>  <TORSDO>
F 8

$$$$
