=
 OpenBabel11032419453D

 45 50  0  0  1  0  0  0  0  0999 V2000
  187.8910  178.0830  141.6630 C   0  0  0  0  0  2  0  0  0  0  0  0
  188.8500  177.9140  140.6520 C   0  0  0  0  0  3  0  0  0  0  0  0
  185.4770  178.7040  141.2650 C   0  0  0  0  0  0  0  0  0  0  0  0
  185.8640  178.7530  139.0200 N   0  0  0  0  0  0  0  0  0  0  0  0
  184.9190  178.9240  139.9900 C   0  0  0  0  0  0  0  0  0  0  0  0
  186.7560  178.3950  141.0330 N   0  0  0  0  0  0  0  0  0  0  0  0
  188.2460  178.1390  139.3970 C   0  0  0  0  0  3  0  0  0  0  0  0
  186.9510  178.4310  139.7440 C   0  0  0  0  0  0  0  0  0  0  0  0
  183.6790  178.9270  145.0930 C   0  0  0  0  0  3  0  0  0  0  0  0
  185.6110  178.6810  143.7250 N   0  0  0  0  0  0  0  0  0  0  0  0
  185.0590  178.7490  144.9650 C   0  0  0  0  0  0  0  0  0  0  0  0
  183.5080  178.9480  142.7160 N   0  0  0  0  0  0  0  0  0  0  0  0
  182.9110  179.0240  143.9340 C   0  0  0  0  0  3  0  0  0  0  0  0
  184.8530  178.7800  142.6020 C   0  0  0  0  0  0  0  0  0  0  0  0
  185.6960  179.3400  147.1720 O   0  0  0  0  0  0  0  0  0  0  0  0
  185.9200  178.6320  146.1520 C   0  0  0  0  0  0  0  0  0  0  0  0
  187.0090  177.7050  146.1460 N   0  0  0  0  0  2  0  0  0  0  0  0
  187.9160  177.5530  147.2730 C   0  0  0  0  0  2  0  0  0  0  0  0
  189.2690  177.8870  146.8630 N   0  0  0  0  0  2  0  0  0  0  0  0
  190.0150  176.7030  146.9410 N   0  0  0  0  0  2  0  0  0  0  0  0
  191.3230  176.9860  146.3730 C   0  0  0  0  0  2  0  0  0  0  0  0
  191.5310  176.8380  142.7230 O   0  0  0  0  0  0  0  0  0  0  0  0
  191.3900  176.4780  145.0120 N   0  0  0  0  0  2  0  0  0  0  0  0
  191.4750  177.3390  143.8760 C   0  0  0  0  0  0  0  0  0  0  0  0
  191.4980  178.8220  144.0290 C   0  0  0  0  0  1  0  0  0  0  0  0
  183.5070  179.3070  139.6570 C   0  0  2  0  0  3  0  0  0  0  0  0
  181.5510  177.7710  139.6930 C   0  0  1  0  0  3  0  0  0  0  0  0
  182.8240  176.9260  139.7740 C   0  0  2  0  0  3  0  0  0  0  0  0
  182.7920  178.1800  138.9260 C   0  0  2  0  0  3  0  0  0  0  0  0
  180.6110  177.2380  138.8060 O   0  0  0  0  0  1  0  0  0  0  0  0
  182.8210  175.7010  138.8680 C   0  0  0  0  0  2  0  0  0  0  0  0
  184.0450  175.6030  138.1990 O   0  0  0  0  0  0  0  0  0  0  0  0
  183.6780  175.0830  136.6250 P   0  0  2  0  0  0  0  0  0  0  0  0
  182.2580  175.4750  136.2760 O   0  0  0  0  0  0  0  0  0  0  0  0
  183.8090  173.3990  136.5690 O   0  0  0  0  0  1  0  0  0  0  0  0
  185.3610  177.1960  135.8860 C   0  0  0  0  0  2  0  0  0  0  0  0
  185.7770  174.9180  134.9150 O   0  0  0  0  0  0  0  0  0  0  0  0
  186.8000  177.3800  135.4340 C   0  0  1  0  0  3  0  0  0  0  0  0
  187.3110  178.5560  135.9780 O   0  0  0  0  0  1  0  0  0  0  0  0
  187.0530  174.8410  135.5620 C   0  0  2  0  0  3  0  0  0  0  0  0
  187.1670  175.3830  136.9840 C   0  0  0  0  0  2  0  0  0  0  0  0
  187.7060  176.2010  135.8130 C   0  0  2  0  0  3  0  0  0  0  0  0
  184.8250  175.8440  135.4250 C   0  0  1  0  0  3  0  0  0  0  0  0
  182.1290  180.7110  138.6410 C   0  0  0  0  0  1  0  0  0  0  0  0
  183.4810  180.4780  138.8950 O   0  0  0  0  0  0  0  0  0  0  0  0
  2  1  1  0  0  0  0
  3 14  1  0  0  0  0
  4  8  2  0  0  0  0
  4  5  1  0  0  0  0
  5  3  2  0  0  0  0
  6  3  1  0  0  0  0
  6  1  1  0  0  0  0
  7  8  1  0  0  0  0
  7  2  2  0  0  0  0
  8  6  1  0  0  0  0
 10 11  1  0  0  0  0
 11  9  2  0  0  0  0
 11 16  1  0  0  0  0
 12 13  2  0  0  0  0
 13  9  1  0  0  0  0
 14 12  1  0  0  0  0
 14 10  2  0  0  0  0
 16 15  2  0  0  0  0
 17 16  1  0  0  0  0
 17 18  1  0  0  0  0
 19 20  1  0  0  0  0
 19 18  1  0  0  0  0
 21 20  1  0  0  0  0
 22 24  2  0  0  0  0
 23 21  1  0  0  0  0
 24 25  1  0  0  0  0
 24 23  1  0  0  0  0
 26 45  1  6  0  0  0
 26  5  1  0  0  0  0
 27 30  1  6  0  0  0
 27 28  1  0  0  0  0
 28 31  1  6  0  0  0
 29 26  1  1  0  0  0
 29 27  1  0  0  0  0
 29 28  1  0  0  0  0
 32 31  1  0  0  0  0
 33 34  2  6  0  0  0
 33 32  1  0  0  0  0
 35 33  1  0  0  0  0
 37 43  1  0  0  0  0
 37 40  1  0  0  0  0
 38 42  1  0  0  0  0
 38 36  1  0  0  0  0
 38 39  1  1  0  0  0
 40 42  1  0  0  0  0
 40 41  1  1  0  0  0
 42 41  1  1  0  0  0
 43 36  1  0  0  0  0
 43 33  1  1  0  0  0
 44 45  1  0  0  0  0
M  END
>  <MODEL>
1

>  <REMARK>
 VINA RESULT:      -8.1      0.000      0.000
  Name = 
  14 active torsions:
  status: ('A' for Active; 'I' for Inactive)
    1  A    between atoms: N_2  and  C_34
    2  A    between atoms: N_2  and  N_37
    3  A    between atoms: P_6  and  O_21
    4  A    between atoms: P_6  and  C_45
    5  A    between atoms: N_7  and  C_34
    6  A    between atoms: C_11  and  O_21
    7  A    between atoms: C_11  and  C_22
    8  A    between atoms: C_12  and  C_29
    9  A    between atoms: C_20  and  C_36
   10  A    between atoms: O_26  and  C_33
   11  A    between atoms: C_27  and  C_33
   12  A    between atoms: C_30  and  C_33
   13  A    between atoms: N_35  and  C_39
   14  A    between atoms: N_37  and  C_39
                            x       y       z     vdW  Elec       q    Type
                         _______ _______ _______ _____ _____    ______ ____

>  <TORSDO>
F 14

$$$$
=
 OpenBabel11032419453D

 45 50  0  0  1  0  0  0  0  0999 V2000
  189.9900  178.0360  142.8100 C   0  0  0  0  0  2  0  0  0  0  0  0
  191.3660  177.7530  142.8060 C   0  0  0  0  0  3  0  0  0  0  0  0
  188.4840  177.8810  140.7900 C   0  0  0  0  0  0  0  0  0  0  0  0
  190.2610  177.2240  139.5230 N   0  0  0  0  0  0  0  0  0  0  0  0
  188.9230  177.4970  139.5080 C   0  0  0  0  0  0  0  0  0  0  0  0
  189.5760  177.8250  141.5590 N   0  0  0  0  0  0  0  0  0  0  0  0
  191.7560  177.3700  141.5070 C   0  0  0  0  0  3  0  0  0  0  0  0
  190.5760  177.4480  140.8110 C   0  0  0  0  0  0  0  0  0  0  0  0
  184.6260  179.0140  142.1200 C   0  0  0  0  0  3  0  0  0  0  0  0
  186.8230  178.2200  142.5780 N   0  0  0  0  0  0  0  0  0  0  0  0
  185.5930  178.5780  143.0300 C   0  0  0  0  0  0  0  0  0  0  0  0
  186.2040  178.6920  140.3620 N   0  0  0  0  0  0  0  0  0  0  0  0
  184.9620  179.0610  140.7670 C   0  0  0  0  0  3  0  0  0  0  0  0
  187.1400  178.2740  141.2570 C   0  0  0  0  0  0  0  0  0  0  0  0
  184.1260  178.7190  144.8890 O   0  0  0  0  0  0  0  0  0  0  0  0
  185.2950  178.4990  144.4680 C   0  0  0  0  0  0  0  0  0  0  0  0
  186.3380  178.1640  145.3880 N   0  0  0  0  0  2  0  0  0  0  0  0
  186.1230  178.0910  146.8250 C   0  0  0  0  0  2  0  0  0  0  0  0
  187.4010  178.0120  147.5090 N   0  0  0  0  0  2  0  0  0  0  0  0
  188.2060  177.1430  146.7600 N   0  0  0  0  0  2  0  0  0  0  0  0
  189.5300  177.7380  146.6950 C   0  0  0  0  0  2  0  0  0  0  0  0
  192.2760  175.7290  148.0440 O   0  0  0  0  0  0  0  0  0  0  0  0
  190.4200  177.0600  147.6250 N   0  0  0  0  0  2  0  0  0  0  0  0
  191.5420  176.2900  147.1900 C   0  0  0  0  0  0  0  0  0  0  0  0
  191.8610  176.1380  145.7420 C   0  0  0  0  0  1  0  0  0  0  0  0
  188.1100  177.3880  138.2510 C   0  0  2  0  0  3  0  0  0  0  0  0
  187.8060  175.9320  136.2580 C   0  0  1  0  0  3  0  0  0  0  0  0
  188.4100  175.0860  137.3820 C   0  0  2  0  0  3  0  0  0  0  0  0
  188.8190  176.5340  137.2110 C   0  0  2  0  0  3  0  0  0  0  0  0
  188.4160  175.6930  135.0230 O   0  0  0  0  0  1  0  0  0  0  0  0
  189.5520  174.1800  136.9390 C   0  0  0  0  0  2  0  0  0  0  0  0
  190.6800  174.4200  137.7290 O   0  0  0  0  0  0  0  0  0  0  0  0
  192.0120  174.3530  136.6780 P   0  0  2  0  0  0  0  0  0  0  0  0
  191.7660  175.2530  135.4860 O   0  0  0  0  0  0  0  0  0  0  0  0
  192.1880  172.7620  136.1330 O   0  0  0  0  0  1  0  0  0  0  0  0
  194.4160  173.7310  137.9710 C   0  0  0  0  0  2  0  0  0  0  0  0
  194.1690  175.9840  136.8890 O   0  0  0  0  0  0  0  0  0  0  0  0
  195.8820  174.1140  137.8600 C   0  0  1  0  0  3  0  0  0  0  0  0
  196.6750  173.0000  138.1270 O   0  0  0  0  0  1  0  0  0  0  0  0
  195.2180  175.6880  135.9600 C   0  0  2  0  0  3  0  0  0  0  0  0
  195.2840  174.2770  135.3820 C   0  0  0  0  0  2  0  0  0  0  0  0
  196.2520  174.6920  136.4870 C   0  0  2  0  0  3  0  0  0  0  0  0
  193.5270  174.8940  137.5400 C   0  0  1  0  0  3  0  0  0  0  0  0
  189.0120  179.0550  137.1070 C   0  0  0  0  0  1  0  0  0  0  0  0
  187.8310  178.6560  137.7350 O   0  0  0  0  0  0  0  0  0  0  0  0
  2  1  1  0  0  0  0
  3 14  1  0  0  0  0
  3  6  1  0  0  0  0
  4  8  2  0  0  0  0
  5  4  1  0  0  0  0
  5  3  2  0  0  0  0
  6  1  1  0  0  0  0
  7  2  2  0  0  0  0
  8  7  1  0  0  0  0
  8  6  1  0  0  0  0
  9 11  2  0  0  0  0
 10 11  1  0  0  0  0
 11 16  1  0  0  0  0
 12 13  2  0  0  0  0
 12 14  1  0  0  0  0
 13  9  1  0  0  0  0
 14 10  2  0  0  0  0
 16 15  2  0  0  0  0
 16 17  1  0  0  0  0
 17 18  1  0  0  0  0
 18 19  1  0  0  0  0
 20 19  1  0  0  0  0
 21 20  1  0  0  0  0
 21 23  1  0  0  0  0
 24 23  1  0  0  0  0
 24 22  2  0  0  0  0
 25 24  1  0  0  0  0
 26 45  1  6  0  0  0
 26  5  1  0  0  0  0
 27 30  1  6  0  0  0
 27 29  1  0  0  0  0
 27 28  1  0  0  0  0
 28 31  1  6  0  0  0
 29 28  1  0  0  0  0
 29 26  1  1  0  0  0
 31 32  1  0  0  0  0
 33 34  2  6  0  0  0
 33 32  1  0  0  0  0
 35 33  1  0  0  0  0
 37 43  1  0  0  0  0
 38 36  1  0  0  0  0
 38 39  1  6  0  0  0
 40 41  1  6  0  0  0
 40 42  1  0  0  0  0
 40 37  1  0  0  0  0
 42 41  1  6  0  0  0
 42 38  1  0  0  0  0
 43 33  1  6  0  0  0
 43 36  1  0  0  0  0
 44 45  1  0  0  0  0
M  END
>  <MODEL>
2

>  <REMARK>
 VINA RESULT:      -7.9      4.125      5.932
  Name = 
  14 active torsions:
  status: ('A' for Active; 'I' for Inactive)
    1  A    between atoms: N_2  and  C_34
    2  A    between atoms: N_2  and  N_37
    3  A    between atoms: P_6  and  O_21
    4  A    between atoms: P_6  and  C_45
    5  A    between atoms: N_7  and  C_34
    6  A    between atoms: C_11  and  O_21
    7  A    between atoms: C_11  and  C_22
    8  A    between atoms: C_12  and  C_29
    9  A    between atoms: C_20  and  C_36
   10  A    between atoms: O_26  and  C_33
   11  A    between atoms: C_27  and  C_33
   12  A    between atoms: C_30  and  C_33
   13  A    between atoms: N_35  and  C_39
   14  A    between atoms: N_37  and  C_39
                            x       y       z     vdW  Elec       q    Type
                         _______ _______ _______ _____ _____    ______ ____

>  <TORSDO>
F 14

$$$$
=
 OpenBabel11032419453D

 45 50  0  0  1  0  0  0  0  0999 V2000
  180.8270  174.7070  137.9860 C   0  0  0  0  0  2  0  0  0  0  0  0
  179.6410  174.5460  138.7200 C   0  0  0  0  0  3  0  0  0  0  0  0
  182.6400  176.3760  138.5290 C   0  0  0  0  0  0  0  0  0  0  0  0
  181.4310  177.0990  140.3210 N   0  0  0  0  0  0  0  0  0  0  0  0
  182.5880  177.2700  139.6170 C   0  0  0  0  0  0  0  0  0  0  0  0
  181.5050  175.6750  138.6060 N   0  0  0  0  0  0  0  0  0  0  0  0
  179.6360  175.4560  139.7980 C   0  0  0  0  0  3  0  0  0  0  0  0
  180.8330  176.1080  139.6360 C   0  0  0  0  0  0  0  0  0  0  0  0
  185.6110  175.8670  135.5540 C   0  0  0  0  0  3  0  0  0  0  0  0
  184.6510  175.2590  137.6460 N   0  0  0  0  0  0  0  0  0  0  0  0
  185.6150  175.0760  136.7060 C   0  0  0  0  0  0  0  0  0  0  0  0
  183.6680  176.9750  136.3790 N   0  0  0  0  0  0  0  0  0  0  0  0
  184.6100  176.8270  135.4120 C   0  0  0  0  0  3  0  0  0  0  0  0
  183.6780  176.1960  137.4940 C   0  0  0  0  0  0  0  0  0  0  0  0
  186.3450  172.9300  137.4040 O   0  0  0  0  0  0  0  0  0  0  0  0
  186.6500  174.0520  136.9160 C   0  0  0  0  0  0  0  0  0  0  0  0
  188.0050  174.3340  136.5560 N   0  0  0  0  0  2  0  0  0  0  0  0
  189.0850  173.3800  136.7570 C   0  0  0  0  0  2  0  0  0  0  0  0
  190.1460  173.9960  137.5340 N   0  0  0  0  0  2  0  0  0  0  0  0
  190.2020  175.3410  137.1420 N   0  0  0  0  0  2  0  0  0  0  0  0
  190.2980  176.1340  138.3560 C   0  0  0  0  0  2  0  0  0  0  0  0
  188.9790  179.4930  137.7450 O   0  0  0  0  0  0  0  0  0  0  0  0
  190.2170  177.5490  138.0280 N   0  0  0  0  0  2  0  0  0  0  0  0
  188.9830  178.2690  138.0370 C   0  0  0  0  0  0  0  0  0  0  0  0
  187.6990  177.5980  138.3870 C   0  0  0  0  0  1  0  0  0  0  0  0
  183.6060  178.3010  140.0100 C   0  0  2  0  0  3  0  0  0  0  0  0
  184.0350  178.9110  142.3820 C   0  0  1  0  0  3  0  0  0  0  0  0
  185.3680  178.9430  141.6320 C   0  0  2  0  0  3  0  0  0  0  0  0
  184.3240  177.9010  141.2900 C   0  0  2  0  0  3  0  0  0  0  0  0
  184.1400  178.2890  143.6300 O   0  0  0  0  0  1  0  0  0  0  0  0
  186.5220  178.2810  142.3750 C   0  0  0  0  0  2  0  0  0  0  0  0
  187.7280  178.5700  141.7320 O   0  0  0  0  0  0  0  0  0  0  0  0
  188.9020  177.5940  142.4750 P   0  0  2  0  0  0  0  0  0  0  0  0
  190.1420  177.5380  141.6090 O   0  0  0  0  0  0  0  0  0  0  0  0
  188.2780  176.0310  142.6360 O   0  0  0  0  0  1  0  0  0  0  0  0
  188.8420  177.4020  145.2680 C   0  0  0  0  0  2  0  0  0  0  0  0
  190.6900  178.7100  144.1820 O   0  0  0  0  0  0  0  0  0  0  0  0
  189.8370  177.4250  146.4160 C   0  0  1  0  0  3  0  0  0  0  0  0
  189.4310  176.5250  147.4000 O   0  0  0  0  0  1  0  0  0  0  0  0
  191.6730  177.7940  144.6790 C   0  0  2  0  0  3  0  0  0  0  0  0
  191.3320  176.3070  144.6730 C   0  0  0  0  0  2  0  0  0  0  0  0
  191.2700  177.0950  145.9790 C   0  0  2  0  0  3  0  0  0  0  0  0
  189.3400  178.2680  144.1140 C   0  0  1  0  0  3  0  0  0  0  0  0
  182.9990  180.1020  138.8730 C   0  0  0  0  0  1  0  0  0  0  0  0
  183.0050  179.5540  140.1570 O   0  0  0  0  0  0  0  0  0  0  0  0
  1  6  1  0  0  0  0
  1  2  1  0  0  0  0
  2  7  2  0  0  0  0
  3  6  1  0  0  0  0
  3  5  2  0  0  0  0
  5 26  1  0  0  0  0
  5  4  1  0  0  0  0
  6  8  1  0  0  0  0
  8  7  1  0  0  0  0
  8  4  2  0  0  0  0
  9 11  2  0  0  0  0
 11 16  1  0  0  0  0
 11 10  1  0  0  0  0
 12 14  1  0  0  0  0
 13  9  1  0  0  0  0
 13 12  2  0  0  0  0
 14 10  2  0  0  0  0
 14  3  1  0  0  0  0
 16 15  2  0  0  0  0
 17 18  1  0  0  0  0
 17 16  1  0  0  0  0
 18 19  1  0  0  0  0
 20 19  1  0  0  0  0
 20 21  1  0  0  0  0
 22 24  2  0  0  0  0
 23 24  1  0  0  0  0
 23 21  1  0  0  0  0
 24 25  1  0  0  0  0
 26 45  1  1  0  0  0
 27 30  1  1  0  0  0
 28 31  1  1  0  0  0
 28 27  1  0  0  0  0
 29 26  1  6  0  0  0
 29 28  1  0  0  0  0
 29 27  1  0  0  0  0
 32 31  1  0  0  0  0
 32 33  1  0  0  0  0
 33 34  2  6  0  0  0
 33 35  1  0  0  0  0
 36 38  1  0  0  0  0
 37 40  1  0  0  0  0
 38 39  1  1  0  0  0
 40 41  1  6  0  0  0
 40 42  1  0  0  0  0
 42 41  1  6  0  0  0
 42 38  1  0  0  0  0
 43 33  1  6  0  0  0
 43 37  1  0  0  0  0
 43 36  1  0  0  0  0
 44 45  1  0  0  0  0
M  END
>  <MODEL>
3

>  <REMARK>
 VINA RESULT:      -7.6      3.642      8.145
  Name = 
  14 active torsions:
  status: ('A' for Active; 'I' for Inactive)
    1  A    between atoms: N_2  and  C_34
    2  A    between atoms: N_2  and  N_37
    3  A    between atoms: P_6  and  O_21
    4  A    between atoms: P_6  and  C_45
    5  A    between atoms: N_7  and  C_34
    6  A    between atoms: C_11  and  O_21
    7  A    between atoms: C_11  and  C_22
    8  A    between atoms: C_12  and  C_29
    9  A    between atoms: C_20  and  C_36
   10  A    between atoms: O_26  and  C_33
   11  A    between atoms: C_27  and  C_33
   12  A    between atoms: C_30  and  C_33
   13  A    between atoms: N_35  and  C_39
   14  A    between atoms: N_37  and  C_39
                            x       y       z     vdW  Elec       q    Type
                         _______ _______ _______ _____ _____    ______ ____

>  <TORSDO>
F 14

$$$$
=
 OpenBabel11032419453D

 45 50  0  0  1  0  0  0  0  0999 V2000
  188.9350  178.4280  143.1770 C   0  0  0  0  0  2  0  0  0  0  0  0
  190.1870  178.2090  143.7750 C   0  0  0  0  0  3  0  0  0  0  0  0
  188.3870  177.9280  140.7650 C   0  0  0  0  0  0  0  0  0  0  0  0
  190.5160  177.1810  140.4410 N   0  0  0  0  0  0  0  0  0  0  0  0
  189.3070  177.3890  139.8430 C   0  0  0  0  0  0  0  0  0  0  0  0
  189.0680  178.0270  141.9110 N   0  0  0  0  0  0  0  0  0  0  0  0
  191.0700  177.6670  142.8190 C   0  0  0  0  0  3  0  0  0  0  0  0
  190.2800  177.5960  141.6990 C   0  0  0  0  0  0  0  0  0  0  0  0
  184.3420  179.0610  140.2260 C   0  0  0  0  0  3  0  0  0  0  0  0
  186.1320  178.3870  141.6440 N   0  0  0  0  0  0  0  0  0  0  0  0
  184.8300  178.7470  141.4980 C   0  0  0  0  0  0  0  0  0  0  0  0
  186.5100  178.6190  139.3380 N   0  0  0  0  0  0  0  0  0  0  0  0
  185.2170  178.9870  139.1430 C   0  0  0  0  0  3  0  0  0  0  0  0
  186.9760  178.3210  140.5810 C   0  0  0  0  0  0  0  0  0  0  0  0
  182.7000  178.7980  142.5390 O   0  0  0  0  0  0  0  0  0  0  0  0
  183.9530  178.8000  142.6770 C   0  0  0  0  0  0  0  0  0  0  0  0
  184.5310  178.8460  143.9850 N   0  0  0  0  0  2  0  0  0  0  0  0
  183.7270  178.9240  145.1950 C   0  0  0  0  0  2  0  0  0  0  0  0
  184.5920  178.8970  146.3620 N   0  0  0  0  0  2  0  0  0  0  0  0
  185.5800  177.9360  146.1070 N   0  0  0  0  0  2  0  0  0  0  0  0
  186.7330  178.2850  146.9210 C   0  0  0  0  0  2  0  0  0  0  0  0
  190.0110  176.6580  146.9450 O   0  0  0  0  0  0  0  0  0  0  0  0
  187.8700  177.4620  146.5410 N   0  0  0  0  0  2  0  0  0  0  0  0
  189.0610  177.3900  147.3270 C   0  0  0  0  0  0  0  0  0  0  0  0
  189.2010  178.1660  148.5920 C   0  0  0  0  0  1  0  0  0  0  0  0
  189.0780  177.0720  138.3940 C   0  0  2  0  0  3  0  0  0  0  0  0
  190.5900  175.4140  137.3200 C   0  0  1  0  0  3  0  0  0  0  0  0
  189.2290  175.3430  136.6230 C   0  0  2  0  0  3  0  0  0  0  0  0
  189.3120  175.5950  138.1140 C   0  0  2  0  0  3  0  0  0  0  0  0
  191.1230  174.1490  137.5800 O   0  0  0  0  0  1  0  0  0  0  0  0
  188.7270  173.9260  136.3750 C   0  0  0  0  0  2  0  0  0  0  0  0
  187.5540  173.9660  135.6150 O   0  0  0  0  0  0  0  0  0  0  0  0
  186.4660  172.9070  136.3750 P   0  0  2  0  0  0  0  0  0  0  0  0
  186.8710  172.7120  137.8210 O   0  0  0  0  0  1  0  0  0  0  0  0
  186.5280  171.4130  135.5860 O   0  0  0  0  0  0  0  0  0  0  0  0
  184.2390  173.9920  137.6790 C   0  0  0  0  0  2  0  0  0  0  0  0
  184.5970  174.5170  135.2500 O   0  0  0  0  0  0  0  0  0  0  0  0
  183.3600  175.2260  137.5610 C   0  0  1  0  0  3  0  0  0  0  0  0
  182.9940  175.6590  138.8340 O   0  0  0  0  0  1  0  0  0  0  0  0
  184.7710  175.9080  135.5430 C   0  0  2  0  0  3  0  0  0  0  0  0
  185.5570  176.2810  136.7970 C   0  0  0  0  0  2  0  0  0  0  0  0
  184.0330  176.3750  136.8000 C   0  0  2  0  0  3  0  0  0  0  0  0
  184.7730  173.5840  136.3090 C   0  0  1  0  0  3  0  0  0  0  0  0
  189.0970  178.9340  137.1960 C   0  0  0  0  0  1  0  0  0  0  0  0
  189.8990  177.8590  137.5820 O   0  0  0  0  0  0  0  0  0  0  0  0
  1  2  1  0  0  0  0
  3  6  1  0  0  0  0
  4  8  2  0  0  0  0
  5  4  1  0  0  0  0
  5  3  2  0  0  0  0
  6  1  1  0  0  0  0
  7  2  2  0  0  0  0
  8  6  1  0  0  0  0
  8  7  1  0  0  0  0
  9 11  2  0  0  0  0
 11 10  1  0  0  0  0
 11 16  1  0  0  0  0
 12 14  1  0  0  0  0
 13 12  2  0  0  0  0
 13  9  1  0  0  0  0
 14  3  1  0  0  0  0
 14 10  2  0  0  0  0
 15 16  2  0  0  0  0
 16 17  1  0  0  0  0
 17 18  1  0  0  0  0
 18 19  1  0  0  0  0
 20 19  1  0  0  0  0
 20 21  1  0  0  0  0
 22 24  2  0  0  0  0
 23 21  1  0  0  0  0
 23 24  1  0  0  0  0
 24 25  1  0  0  0  0
 26 45  1  6  0  0  0
 26  5  1  0  0  0  0
 27 30  1  1  0  0  0
 27 29  1  0  0  0  0
 28 31  1  1  0  0  0
 28 27  1  0  0  0  0
 28 29  1  0  0  0  0
 29 26  1  6  0  0  0
 32 33  1  0  0  0  0
 32 31  1  0  0  0  0
 33 35  2  6  0  0  0
 33 34  1  0  0  0  0
 37 40  1  0  0  0  0
 37 43  1  0  0  0  0
 38 36  1  0  0  0  0
 38 39  1  1  0  0  0
 40 41  1  1  0  0  0
 40 42  1  0  0  0  0
 42 41  1  1  0  0  0
 42 38  1  0  0  0  0
 43 33  1  1  0  0  0
 43 36  1  0  0  0  0
 44 45  1  0  0  0  0
M  END
>  <MODEL>
4

>  <REMARK>
 VINA RESULT:      -7.6      2.281      5.005
  Name = 
  14 active torsions:
  status: ('A' for Active; 'I' for Inactive)
    1  A    between atoms: N_2  and  C_34
    2  A    between atoms: N_2  and  N_37
    3  A    between atoms: P_6  and  O_21
    4  A    between atoms: P_6  and  C_45
    5  A    between atoms: N_7  and  C_34
    6  A    between atoms: C_11  and  O_21
    7  A    between atoms: C_11  and  C_22
    8  A    between atoms: C_12  and  C_29
    9  A    between atoms: C_20  and  C_36
   10  A    between atoms: O_26  and  C_33
   11  A    between atoms: C_27  and  C_33
   12  A    between atoms: C_30  and  C_33
   13  A    between atoms: N_35  and  C_39
   14  A    between atoms: N_37  and  C_39
                            x       y       z     vdW  Elec       q    Type
                         _______ _______ _______ _____ _____    ______ ____

>  <TORSDO>
F 14

$$$$
=
 OpenBabel11032419453D

 45 50  0  0  1  0  0  0  0  0999 V2000
  187.1170  177.8790  147.4360 C   0  0  0  0  0  2  0  0  0  0  0  0
  188.1980  177.5730  148.2780 C   0  0  0  0  0  3  0  0  0  0  0  0
  187.2060  177.8460  144.9130 C   0  0  0  0  0  0  0  0  0  0  0  0
  189.3950  177.2180  145.0030 N   0  0  0  0  0  0  0  0  0  0  0  0
  188.3560  177.5150  144.1690 C   0  0  0  0  0  0  0  0  0  0  0  0
  187.5790  177.7350  146.1910 N   0  0  0  0  0  0  0  0  0  0  0  0
  189.3210  177.2440  147.4900 C   0  0  0  0  0  3  0  0  0  0  0  0
  188.8330  177.3760  146.2150 C   0  0  0  0  0  0  0  0  0  0  0  0
  183.3370  178.9760  143.6140 C   0  0  0  0  0  3  0  0  0  0  0  0
  185.5380  178.2070  143.1360 N   0  0  0  0  0  0  0  0  0  0  0  0
  184.3050  178.5640  142.6930 C   0  0  0  0  0  0  0  0  0  0  0  0
  184.9250  178.6450  145.3600 N   0  0  0  0  0  0  0  0  0  0  0  0
  183.6780  179.0100  144.9650 C   0  0  0  0  0  3  0  0  0  0  0  0
  185.8580  178.2410  144.4560 C   0  0  0  0  0  0  0  0  0  0  0  0
  184.4740  179.3930  140.4780 O   0  0  0  0  0  0  0  0  0  0  0  0
  184.0060  178.5160  141.2540 C   0  0  0  0  0  0  0  0  0  0  0  0
  183.1860  177.4640  140.7370 N   0  0  0  0  0  2  0  0  0  0  0  0
  182.8280  177.3670  139.3310 C   0  0  0  0  0  2  0  0  0  0  0  0
  182.5720  175.9800  138.9840 N   0  0  0  0  0  2  0  0  0  0  0  0
  182.4870  175.9240  137.5870 N   0  0  0  0  0  2  0  0  0  0  0  0
  182.8890  174.5850  137.1890 C   0  0  0  0  0  2  0  0  0  0  0  0
  186.0000  172.8400  138.0070 O   0  0  0  0  0  0  0  0  0  0  0  0
  184.2260  174.3040  137.6870 N   0  0  0  0  0  2  0  0  0  0  0  0
  184.8390  173.0210  137.5570 C   0  0  0  0  0  0  0  0  0  0  0  0
  184.1290  171.8880  136.8970 C   0  0  0  0  0  1  0  0  0  0  0  0
  188.5070  177.4800  142.6760 C   0  0  2  0  0  3  0  0  0  0  0  0
  190.9840  177.5430  142.4650 C   0  0  1  0  0  3  0  0  0  0  0  0
  190.3900  177.3520  141.0680 C   0  0  2  0  0  3  0  0  0  0  0  0
  189.7440  176.6940  142.2690 C   0  0  2  0  0  3  0  0  0  0  0  0
  192.0840  176.7120  142.6950 O   0  0  0  0  0  1  0  0  0  0  0  0
  191.0940  176.2940  140.2270 C   0  0  0  0  0  2  0  0  0  0  0  0
  191.4620  176.8370  138.9930 O   0  0  0  0  0  0  0  0  0  0  0  0
  190.4770  176.0800  137.8350 P   0  0  2  0  0  0  0  0  0  0  0  0
  190.5430  174.5780  138.0130 O   0  0  0  0  0  1  0  0  0  0  0  0
  191.0560  176.4740  136.2960 O   0  0  0  0  0  0  0  0  0  0  0  0
  188.5570  178.1140  137.6980 C   0  0  0  0  0  2  0  0  0  0  0  0
  187.8180  175.7290  137.4330 O   0  0  0  0  0  0  0  0  0  0  0  0
  187.2130  178.3450  137.0300 C   0  0  1  0  0  3  0  0  0  0  0  0
  187.1180  179.6750  136.6260 O   0  0  0  0  0  1  0  0  0  0  0  0
  187.3930  175.9770  136.0880 C   0  0  2  0  0  3  0  0  0  0  0  0
  188.2630  176.8810  135.2190 C   0  0  0  0  0  2  0  0  0  0  0  0
  186.9720  177.4240  135.8260 C   0  0  2  0  0  3  0  0  0  0  0  0
  188.7480  176.6340  138.0170 C   0  0  1  0  0  3  0  0  0  0  0  0
  187.6960  178.7580  141.0600 C   0  0  0  0  0  1  0  0  0  0  0  0
  188.5580  178.7770  142.1570 O   0  0  0  0  0  0  0  0  0  0  0  0
  1  2  1  0  0  0  0
  3  6  1  0  0  0  0
  4  8  2  0  0  0  0
  5  3  2  0  0  0  0
  5  4  1  0  0  0  0
  6  8  1  0  0  0  0
  6  1  1  0  0  0  0
  7  2  2  0  0  0  0
  8  7  1  0  0  0  0
  9 13  1  0  0  0  0
 10 14  2  0  0  0  0
 11 10  1  0  0  0  0
 11  9  2  0  0  0  0
 13 12  2  0  0  0  0
 14  3  1  0  0  0  0
 14 12  1  0  0  0  0
 15 16  2  0  0  0  0
 16 11  1  0  0  0  0
 17 16  1  0  0  0  0
 18 17  1  0  0  0  0
 19 18  1  0  0  0  0
 20 19  1  0  0  0  0
 21 20  1  0  0  0  0
 21 23  1  0  0  0  0
 24 23  1  0  0  0  0
 24 22  2  0  0  0  0
 25 24  1  0  0  0  0
 26 45  1  1  0  0  0
 26  5  1  0  0  0  0
 27 30  1  6  0  0  0
 28 31  1  6  0  0  0
 28 29  1  0  0  0  0
 28 27  1  0  0  0  0
 29 27  1  0  0  0  0
 29 26  1  1  0  0  0
 32 31  1  0  0  0  0
 33 35  2  6  0  0  0
 33 34  1  0  0  0  0
 33 32  1  0  0  0  0
 36 43  1  0  0  0  0
 37 43  1  0  0  0  0
 38 39  1  6  0  0  0
 38 36  1  0  0  0  0
 40 41  1  6  0  0  0
 40 37  1  0  0  0  0
 42 41  1  6  0  0  0
 42 40  1  0  0  0  0
 42 38  1  0  0  0  0
 43 33  1  6  0  0  0
 44 45  1  0  0  0  0
M  END
>  <MODEL>
5

>  <REMARK>
 VINA RESULT:      -7.4      2.636      7.106
  Name = 
  14 active torsions:
  status: ('A' for Active; 'I' for Inactive)
    1  A    between atoms: N_2  and  C_34
    2  A    between atoms: N_2  and  N_37
    3  A    between atoms: P_6  and  O_21
    4  A    between atoms: P_6  and  C_45
    5  A    between atoms: N_7  and  C_34
    6  A    between atoms: C_11  and  O_21
    7  A    between atoms: C_11  and  C_22
    8  A    between atoms: C_12  and  C_29
    9  A    between atoms: C_20  and  C_36
   10  A    between atoms: O_26  and  C_33
   11  A    between atoms: C_27  and  C_33
   12  A    between atoms: C_30  and  C_33
   13  A    between atoms: N_35  and  C_39
   14  A    between atoms: N_37  and  C_39
                            x       y       z     vdW  Elec       q    Type
                         _______ _______ _______ _____ _____    ______ ____

>  <TORSDO>
F 14

$$$$
=
 OpenBabel11032419453D

 45 50  0  0  1  0  0  0  0  0999 V2000
  183.3210  178.6280  144.7320 C   0  0  0  0  0  2  0  0  0  0  0  0
  184.1820  178.7940  145.8290 C   0  0  0  0  0  3  0  0  0  0  0  0
  184.0720  178.4660  142.3280 C   0  0  0  0  0  0  0  0  0  0  0  0
  186.2400  178.6890  142.9940 N   0  0  0  0  0  0  0  0  0  0  0  0
  185.4180  178.5310  141.9160 C   0  0  0  0  0  0  0  0  0  0  0  0
  184.1130  178.5820  143.6580 N   0  0  0  0  0  0  0  0  0  0  0  0
  185.5140  178.8480  145.3700 C   0  0  0  0  0  3  0  0  0  0  0  0
  185.3610  178.7090  144.0130 C   0  0  0  0  0  0  0  0  0  0  0  0
  180.5330  178.0240  140.0440 C   0  0  0  0  0  3  0  0  0  0  0  0
  182.6450  177.1990  140.7690 N   0  0  0  0  0  0  0  0  0  0  0  0
  181.5190  177.0330  140.0270 C   0  0  0  0  0  0  0  0  0  0  0  0
  181.8890  179.2820  141.5480 N   0  0  0  0  0  0  0  0  0  0  0  0
  180.7460  179.1590  140.8250 C   0  0  0  0  0  3  0  0  0  0  0  0
  182.8400  178.3090  141.5290 C   0  0  0  0  0  0  0  0  0  0  0  0
  180.4950  174.9510  139.5360 O   0  0  0  0  0  0  0  0  0  0  0  0
  181.3540  175.8170  139.2170 C   0  0  0  0  0  0  0  0  0  0  0  0
  182.1710  175.6250  138.0580 N   0  0  0  0  0  2  0  0  0  0  0  0
  182.0810  174.4370  137.2230 C   0  0  0  0  0  2  0  0  0  0  0  0
  182.0000  174.8240  135.8260 N   0  0  0  0  0  2  0  0  0  0  0  0
  183.0760  175.6880  135.5850 N   0  0  0  0  0  2  0  0  0  0  0  0
  184.2170  174.8590  135.2320 C   0  0  0  0  0  2  0  0  0  0  0  0
  187.1980  175.2290  137.3220 O   0  0  0  0  0  0  0  0  0  0  0  0
  185.4250  175.4030  135.8330 N   0  0  0  0  0  2  0  0  0  0  0  0
  186.1590  174.7070  136.8420 C   0  0  0  0  0  0  0  0  0  0  0  0
  185.7180  173.3720  137.3380 C   0  0  0  0  0  1  0  0  0  0  0  0
  185.9570  178.4570  140.5170 C   0  0  2  0  0  3  0  0  0  0  0  0
  188.0330  178.2540  139.1640 C   0  0  1  0  0  3  0  0  0  0  0  0
  188.1790  177.3630  140.3990 C   0  0  2  0  0  3  0  0  0  0  0  0
  187.4600  178.6920  140.4960 C   0  0  2  0  0  3  0  0  0  0  0  0
  189.1930  178.9870  138.8940 O   0  0  0  0  0  1  0  0  0  0  0  0
  189.5330  177.4670  141.0900 C   0  0  0  0  0  2  0  0  0  0  0  0
  189.3970  178.1590  142.2970 O   0  0  0  0  0  0  0  0  0  0  0  0
  190.8830  177.9940  143.1020 P   0  0  2  0  0  0  0  0  0  0  0  0
  191.2920  179.3260  143.6940 O   0  0  0  0  0  1  0  0  0  0  0  0
  192.0530  177.5140  141.9800 O   0  0  0  0  0  0  0  0  0  0  0  0
  191.6130  177.0870  145.6480 C   0  0  0  0  0  2  0  0  0  0  0  0
  189.4000  176.3780  144.6970 O   0  0  0  0  0  0  0  0  0  0  0  0
  190.9170  176.6620  146.9300 C   0  0  1  0  0  3  0  0  0  0  0  0
  191.6620  177.0930  148.0270 O   0  0  0  0  0  1  0  0  0  0  0  0
  188.6960  177.0690  145.7350 C   0  0  2  0  0  3  0  0  0  0  0  0
  189.2310  178.4270  146.1800 C   0  0  0  0  0  2  0  0  0  0  0  0
  189.4820  177.1930  147.0420 C   0  0  2  0  0  3  0  0  0  0  0  0
  190.7460  176.7560  144.4360 C   0  0  1  0  0  3  0  0  0  0  0  0
  184.8640  178.6280  138.5990 C   0  0  0  0  0  1  0  0  0  0  0  0
  185.3070  179.3770  139.6910 O   0  0  0  0  0  0  0  0  0  0  0  0
  1  2  1  0  0  0  0
  3  6  1  0  0  0  0
  4  8  2  0  0  0  0
  5  3  2  0  0  0  0
  5  4  1  0  0  0  0
  6  8  1  0  0  0  0
  6  1  1  0  0  0  0
  7  2  2  0  0  0  0
  8  7  1  0  0  0  0
  9 13  1  0  0  0  0
 10 14  2  0  0  0  0
 11  9  2  0  0  0  0
 11 10  1  0  0  0  0
 13 12  2  0  0  0  0
 14 12  1  0  0  0  0
 14  3  1  0  0  0  0
 16 15  2  0  0  0  0
 16 11  1  0  0  0  0
 17 16  1  0  0  0  0
 18 17  1  0  0  0  0
 19 18  1  0  0  0  0
 20 19  1  0  0  0  0
 21 20  1  0  0  0  0
 21 23  1  0  0  0  0
 23 24  1  0  0  0  0
 24 22  2  0  0  0  0
 24 25  1  0  0  0  0
 26 45  1  6  0  0  0
 26  5  1  0  0  0  0
 27 30  1  1  0  0  0
 27 28  1  0  0  0  0
 27 29  1  0  0  0  0
 28 29  1  0  0  0  0
 28 31  1  1  0  0  0
 29 26  1  6  0  0  0
 31 32  1  0  0  0  0
 32 33  1  0  0  0  0
 33 35  2  6  0  0  0
 33 34  1  0  0  0  0
 36 38  1  0  0  0  0
 37 40  1  0  0  0  0
 38 42  1  0  0  0  0
 38 39  1  1  0  0  0
 40 41  1  6  0  0  0
 40 42  1  0  0  0  0
 42 41  1  6  0  0  0
 43 33  1  6  0  0  0
 43 37  1  0  0  0  0
 43 36  1  0  0  0  0
 44 45  1  0  0  0  0
M  END
>  <MODEL>
6

>  <REMARK>
 VINA RESULT:      -7.4      2.978      8.582
  Name = 
  14 active torsions:
  status: ('A' for Active; 'I' for Inactive)
    1  A    between atoms: N_2  and  C_34
    2  A    between atoms: N_2  and  N_37
    3  A    between atoms: P_6  and  O_21
    4  A    between atoms: P_6  and  C_45
    5  A    between atoms: N_7  and  C_34
    6  A    between atoms: C_11  and  O_21
    7  A    between atoms: C_11  and  C_22
    8  A    between atoms: C_12  and  C_29
    9  A    between atoms: C_20  and  C_36
   10  A    between atoms: O_26  and  C_33
   11  A    between atoms: C_27  and  C_33
   12  A    between atoms: C_30  and  C_33
   13  A    between atoms: N_35  and  C_39
   14  A    between atoms: N_37  and  C_39
                            x       y       z     vdW  Elec       q    Type
                         _______ _______ _______ _____ _____    ______ ____

>  <TORSDO>
F 14

$$$$
=
 OpenBabel11032419453D

 45 50  0  0  1  0  0  0  0  0999 V2000
  190.0440  178.0050  142.8760 C   0  0  0  0  0  2  0  0  0  0  0  0
  191.4230  177.7480  142.9380 C   0  0  0  0  0  3  0  0  0  0  0  0
  188.6590  177.9250  140.7670 C   0  0  0  0  0  0  0  0  0  0  0  0
  190.5180  177.3670  139.5730 N   0  0  0  0  0  0  0  0  0  0  0  0
  189.1780  177.6150  139.4940 C   0  0  0  0  0  0  0  0  0  0  0  0
  189.7070  177.8500  141.5940 N   0  0  0  0  0  0  0  0  0  0  0  0
  191.8950  177.4390  141.6450 C   0  0  0  0  0  3  0  0  0  0  0  0
  190.7550  177.5310  140.8870 C   0  0  0  0  0  0  0  0  0  0  0  0
  184.7080  178.9170  141.9250 C   0  0  0  0  0  3  0  0  0  0  0  0
  186.9080  178.1970  142.4790 N   0  0  0  0  0  0  0  0  0  0  0  0
  185.6470  178.5100  142.8770 C   0  0  0  0  0  0  0  0  0  0  0  0
  186.3740  178.6590  140.2400 N   0  0  0  0  0  0  0  0  0  0  0  0
  185.1020  178.9830  140.5890 C   0  0  0  0  0  3  0  0  0  0  0  0
  187.2820  178.2690  141.1750 C   0  0  0  0  0  0  0  0  0  0  0  0
  184.0940  178.5870  144.6670 O   0  0  0  0  0  0  0  0  0  0  0  0
  185.2880  178.4130  144.2990 C   0  0  0  0  0  0  0  0  0  0  0  0
  186.3000  178.1130  145.2650 N   0  0  0  0  0  2  0  0  0  0  0  0
  186.0230  178.0260  146.6900 C   0  0  0  0  0  2  0  0  0  0  0  0
  187.2440  178.2540  147.4420 N   0  0  0  0  0  2  0  0  0  0  0  0
  188.0570  177.1300  147.2410 N   0  0  0  0  0  2  0  0  0  0  0  0
  189.4310  177.5540  147.4550 C   0  0  0  0  0  2  0  0  0  0  0  0
  192.0120  175.9950  145.3820 O   0  0  0  0  0  0  0  0  0  0  0  0
  190.2450  177.1820  146.3090 N   0  0  0  0  0  2  0  0  0  0  0  0
  191.3460  176.2780  146.4110 C   0  0  0  0  0  0  0  0  0  0  0  0
  191.7230  175.6630  147.7160 C   0  0  0  0  0  1  0  0  0  0  0  0
  188.4400  177.5570  138.1890 C   0  0  2  0  0  3  0  0  0  0  0  0
  188.6820  175.5590  136.7270 C   0  0  1  0  0  3  0  0  0  0  0  0
  187.2660  176.1120  136.5510 C   0  0  2  0  0  3  0  0  0  0  0  0
  187.9370  176.1490  137.9080 C   0  0  2  0  0  3  0  0  0  0  0  0
  188.7000  174.1660  136.8390 O   0  0  0  0  0  1  0  0  0  0  0  0
  186.1730  175.0500  136.5530 C   0  0  0  0  0  2  0  0  0  0  0  0
  185.4740  175.0870  135.3430 O   0  0  0  0  0  0  0  0  0  0  0  0
  183.8710  175.4820  135.7400 P   0  0  2  0  0  0  0  0  0  0  0  0
  182.9210  174.7290  134.8330 O   0  0  0  0  0  0  0  0  0  0  0  0
  183.6510  177.1410  135.5040 O   0  0  0  0  0  1  0  0  0  0  0  0
  183.3810  176.2610  138.3840 C   0  0  0  0  0  2  0  0  0  0  0  0
  182.5260  174.0350  137.5980 O   0  0  0  0  0  0  0  0  0  0  0  0
  182.3310  176.0080  139.4520 C   0  0  1  0  0  3  0  0  0  0  0  0
  182.1210  177.1770  140.1830 O   0  0  0  0  0  1  0  0  0  0  0  0
  181.1700  174.4510  137.7930 C   0  0  2  0  0  3  0  0  0  0  0  0
  180.7990  175.8810  137.4120 C   0  0  0  0  0  2  0  0  0  0  0  0
  180.9960  175.5130  138.8800 C   0  0  2  0  0  3  0  0  0  0  0  0
  183.5230  175.0420  137.4770 C   0  0  1  0  0  3  0  0  0  0  0  0
  188.8960  179.3390  136.9580 C   0  0  0  0  0  1  0  0  0  0  0  0
  189.2530  178.0030  137.1440 O   0  0  0  0  0  0  0  0  0  0  0  0
  1  2  1  0  0  0  0
  3 14  1  0  0  0  0
  3  6  1  0  0  0  0
  4  8  2  0  0  0  0
  5  4  1  0  0  0  0
  5  3  2  0  0  0  0
  6  1  1  0  0  0  0
  7  2  2  0  0  0  0
  8  6  1  0  0  0  0
  8  7  1  0  0  0  0
  9 11  2  0  0  0  0
 10 11  1  0  0  0  0
 11 16  1  0  0  0  0
 12 13  2  0  0  0  0
 12 14  1  0  0  0  0
 13  9  1  0  0  0  0
 14 10  2  0  0  0  0
 16 15  2  0  0  0  0
 16 17  1  0  0  0  0
 17 18  1  0  0  0  0
 18 19  1  0  0  0  0
 20 19  1  0  0  0  0
 20 21  1  0  0  0  0
 22 24  2  0  0  0  0
 23 24  1  0  0  0  0
 23 21  1  0  0  0  0
 24 25  1  0  0  0  0
 26 45  1  6  0  0  0
 26  5  1  0  0  0  0
 27 30  1  1  0  0  0
 27 29  1  0  0  0  0
 28 31  1  1  0  0  0
 28 27  1  0  0  0  0
 28 29  1  0  0  0  0
 29 26  1  6  0  0  0
 32 33  1  0  0  0  0
 32 31  1  0  0  0  0
 33 34  2  6  0  0  0
 35 33  1  0  0  0  0
 36 38  1  0  0  0  0
 37 40  1  0  0  0  0
 38 39  1  6  0  0  0
 40 41  1  6  0  0  0
 40 42  1  0  0  0  0
 42 41  1  6  0  0  0
 42 38  1  0  0  0  0
 43 33  1  6  0  0  0
 43 37  1  0  0  0  0
 43 36  1  0  0  0  0
 44 45  1  0  0  0  0
M  END
>  <MODEL>
7

>  <REMARK>
 VINA RESULT:      -7.2      1.819      4.428
  Name = 
  14 active torsions:
  status: ('A' for Active; 'I' for Inactive)
    1  A    between atoms: N_2  and  C_34
    2  A    between atoms: N_2  and  N_37
    3  A    between atoms: P_6  and  O_21
    4  A    between atoms: P_6  and  C_45
    5  A    between atoms: N_7  and  C_34
    6  A    between atoms: C_11  and  O_21
    7  A    between atoms: C_11  and  C_22
    8  A    between atoms: C_12  and  C_29
    9  A    between atoms: C_20  and  C_36
   10  A    between atoms: O_26  and  C_33
   11  A    between atoms: C_27  and  C_33
   12  A    between atoms: C_30  and  C_33
   13  A    between atoms: N_35  and  C_39
   14  A    between atoms: N_37  and  C_39
                            x       y       z     vdW  Elec       q    Type
                         _______ _______ _______ _____ _____    ______ ____

>  <TORSDO>
F 14

$$$$
=
 OpenBabel11032419453D

 45 50  0  0  1  0  0  0  0  0999 V2000
  184.6320  172.7900  136.2230 C   0  0  0  0  0  2  0  0  0  0  0  0
  185.3340  171.5900  136.0220 C   0  0  0  0  0  3  0  0  0  0  0  0
  185.7090  175.0430  136.5860 C   0  0  0  0  0  0  0  0  0  0  0  0
  187.7680  174.0820  136.4130 N   0  0  0  0  0  0  0  0  0  0  0  0
  187.1020  175.2560  136.6130 C   0  0  0  0  0  0  0  0  0  0  0  0
  185.5660  173.7330  136.3640 N   0  0  0  0  0  0  0  0  0  0  0  0
  186.7200  171.8540  136.0520 C   0  0  0  0  0  3  0  0  0  0  0  0
  186.7550  173.2080  136.2700 C   0  0  0  0  0  0  0  0  0  0  0  0
  182.5230  177.7900  137.0740 C   0  0  0  0  0  3  0  0  0  0  0  0
  184.0940  176.2580  137.9950 N   0  0  0  0  0  0  0  0  0  0  0  0
  183.0720  177.1350  138.1790 C   0  0  0  0  0  0  0  0  0  0  0  0
  184.0660  176.6290  135.6770 N   0  0  0  0  0  0  0  0  0  0  0  0
  183.0450  177.5140  135.8110 C   0  0  0  0  0  3  0  0  0  0  0  0
  184.5970  176.0000  136.7600 C   0  0  0  0  0  0  0  0  0  0  0  0
  183.3200  177.2720  140.5340 O   0  0  0  0  0  0  0  0  0  0  0  0
  182.5580  177.3780  139.5350 C   0  0  0  0  0  0  0  0  0  0  0  0
  181.1860  177.7440  139.7150 N   0  0  0  0  0  2  0  0  0  0  0  0
  180.6020  177.9770  141.0260 C   0  0  0  0  0  2  0  0  0  0  0  0
  180.8300  179.3530  141.4290 N   0  0  0  0  0  2  0  0  0  0  0  0
  180.3520  179.4730  142.7410 N   0  0  0  0  0  2  0  0  0  0  0  0
  181.3850  178.9520  143.6200 C   0  0  0  0  0  2  0  0  0  0  0  0
  184.9590  179.7350  143.5330 O   0  0  0  0  0  0  0  0  0  0  0  0
  182.6920  179.3980  143.1620 N   0  0  0  0  0  2  0  0  0  0  0  0
  183.8560  179.3350  143.9880 C   0  0  0  0  0  0  0  0  0  0  0  0
  183.7900  178.8040  145.3790 C   0  0  0  0  0  1  0  0  0  0  0  0
  187.8310  176.5500  136.8330 C   0  0  2  0  0  3  0  0  0  0  0  0
  187.2270  178.3890  138.3950 C   0  0  1  0  0  3  0  0  0  0  0  0
  188.7260  178.1170  138.5330 C   0  0  2  0  0  3  0  0  0  0  0  0
  187.7620  176.9750  138.2930 C   0  0  2  0  0  3  0  0  0  0  0  0
  186.5990  178.5590  139.6320 O   0  0  0  0  0  1  0  0  0  0  0  0
  189.2240  178.0670  139.9720 C   0  0  0  0  0  2  0  0  0  0  0  0
  189.6020  176.7610  140.2980 O   0  0  0  0  0  0  0  0  0  0  0  0
  190.2060  176.8290  141.8830 P   0  0  2  0  0  0  0  0  0  0  0  0
  191.6340  177.3310  141.8630 O   0  0  0  0  0  0  0  0  0  0  0  0
  190.1850  175.2700  142.5350 O   0  0  0  0  0  1  0  0  0  0  0  0
  187.9950  177.2520  143.5480 C   0  0  0  0  0  2  0  0  0  0  0  0
  189.9690  178.7920  143.7400 O   0  0  0  0  0  0  0  0  0  0  0  0
  187.7200  177.8340  144.9240 C   0  0  1  0  0  3  0  0  0  0  0  0
  186.7190  177.0940  145.5490 O   0  0  0  0  0  1  0  0  0  0  0  0
  190.2160  178.3580  145.0830 C   0  0  2  0  0  3  0  0  0  0  0  0
  190.0400  176.8760  145.3990 C   0  0  0  0  0  2  0  0  0  0  0  0
  188.9650  177.8750  145.8200 C   0  0  2  0  0  3  0  0  0  0  0  0
  189.1870  177.9510  142.9000 C   0  0  1  0  0  3  0  0  0  0  0  0
  188.1090  177.5150  134.8610 C   0  0  0  0  0  1  0  0  0  0  0  0
  187.3150  177.5520  136.0070 O   0  0  0  0  0  0  0  0  0  0  0  0
  1  6  1  0  0  0  0
  2  7  2  0  0  0  0
  2  1  1  0  0  0  0
  3  5  2  0  0  0  0
  3 14  1  0  0  0  0
  4  5  1  0  0  0  0
  5 26  1  0  0  0  0
  6  3  1  0  0  0  0
  7  8  1  0  0  0  0
  8  6  1  0  0  0  0
  8  4  2  0  0  0  0
  9 11  2  0  0  0  0
 10 11  1  0  0  0  0
 11 16  1  0  0  0  0
 12 13  2  0  0  0  0
 12 14  1  0  0  0  0
 13  9  1  0  0  0  0
 14 10  2  0  0  0  0
 16 17  1  0  0  0  0
 16 15  2  0  0  0  0
 17 18  1  0  0  0  0
 18 19  1  0  0  0  0
 19 20  1  0  0  0  0
 20 21  1  0  0  0  0
 22 24  2  0  0  0  0
 23 21  1  0  0  0  0
 23 24  1  0  0  0  0
 24 25  1  0  0  0  0
 26 45  1  6  0  0  0
 27 28  1  0  0  0  0
 27 30  1  1  0  0  0
 28 31  1  1  0  0  0
 29 26  1  6  0  0  0
 29 27  1  0  0  0  0
 29 28  1  0  0  0  0
 31 32  1  0  0  0  0
 32 33  1  0  0  0  0
 33 34  2  6  0  0  0
 33 35  1  0  0  0  0
 36 38  1  0  0  0  0
 37 40  1  0  0  0  0
 38 39  1  1  0  0  0
 38 42  1  0  0  0  0
 40 41  1  6  0  0  0
 40 42  1  0  0  0  0
 42 41  1  6  0  0  0
 43 33  1  1  0  0  0
 43 36  1  0  0  0  0
 43 37  1  0  0  0  0
 44 45  1  0  0  0  0
M  END
>  <MODEL>
8

>  <REMARK>
 VINA RESULT:      -7.0      3.505      8.081
  Name = 
  14 active torsions:
  status: ('A' for Active; 'I' for Inactive)
    1  A    between atoms: N_2  and  C_34
    2  A    between atoms: N_2  and  N_37
    3  A    between atoms: P_6  and  O_21
    4  A    between atoms: P_6  and  C_45
    5  A    between atoms: N_7  and  C_34
    6  A    between atoms: C_11  and  O_21
    7  A    between atoms: C_11  and  C_22
    8  A    between atoms: C_12  and  C_29
    9  A    between atoms: C_20  and  C_36
   10  A    between atoms: O_26  and  C_33
   11  A    between atoms: C_27  and  C_33
   12  A    between atoms: C_30  and  C_33
   13  A    between atoms: N_35  and  C_39
   14  A    between atoms: N_37  and  C_39
                            x       y       z     vdW  Elec       q    Type
                         _______ _______ _______ _____ _____    ______ ____

>  <TORSDO>
F 14

$$$$
=
 OpenBabel11032419453D

 45 50  0  0  1  0  0  0  0  0999 V2000
  189.7040  177.0400  147.0710 C   0  0  0  0  0  2  0  0  0  0  0  0
  190.9860  176.6440  147.4840 C   0  0  0  0  0  3  0  0  0  0  0  0
  188.9870  177.3090  144.6660 C   0  0  0  0  0  0  0  0  0  0  0  0
  191.0710  176.6910  143.9800 N   0  0  0  0  0  0  0  0  0  0  0  0
  189.8310  177.0770  143.5610 C   0  0  0  0  0  0  0  0  0  0  0  0
  189.7430  177.0480  145.7360 N   0  0  0  0  0  0  0  0  0  0  0  0
  191.7900  176.4190  146.3480 C   0  0  0  0  0  3  0  0  0  0  0  0
  190.9270  176.6990  145.3180 C   0  0  0  0  0  0  0  0  0  0  0  0
  184.9420  178.5550  144.8040 C   0  0  0  0  0  3  0  0  0  0  0  0
  186.8920  177.9900  143.5620 N   0  0  0  0  0  0  0  0  0  0  0  0
  185.5940  178.3900  143.5790 C   0  0  0  0  0  0  0  0  0  0  0  0
  186.9530  177.9070  145.9080 N   0  0  0  0  0  0  0  0  0  0  0  0
  185.6560  178.3040  145.9750 C   0  0  0  0  0  3  0  0  0  0  0  0
  187.5770  177.7450  144.7100 C   0  0  0  0  0  0  0  0  0  0  0  0
  185.2490  179.6090  141.5740 O   0  0  0  0  0  0  0  0  0  0  0  0
  184.8950  178.6480  142.3110 C   0  0  0  0  0  0  0  0  0  0  0  0
  183.8150  177.7980  141.9140 N   0  0  0  0  0  2  0  0  0  0  0  0
  183.0630  178.0070  140.6870 C   0  0  0  0  0  2  0  0  0  0  0  0
  181.8510  178.7540  140.9750 N   0  0  0  0  0  2  0  0  0  0  0  0
  181.2250  178.9940  139.7440 N   0  0  0  0  0  2  0  0  0  0  0  0
  182.2120  179.6150  138.8780 C   0  0  0  0  0  2  0  0  0  0  0  0
  180.5990  180.8960  135.8530 O   0  0  0  0  0  0  0  0  0  0  0  0
  181.6900  179.7080  137.5240 N   0  0  0  0  0  2  0  0  0  0  0  0
  181.0280  180.8760  137.0360 C   0  0  0  0  0  0  0  0  0  0  0  0
  180.8350  182.0740  137.9010 C   0  0  0  0  0  1  0  0  0  0  0  0
  189.5000  177.2220  142.1040 C   0  0  2  0  0  3  0  0  0  0  0  0
  191.6740  177.6440  140.9730 C   0  0  1  0  0  3  0  0  0  0  0  0
  190.6290  177.3340  139.8990 C   0  0  2  0  0  3  0  0  0  0  0  0
  190.5900  176.6170  141.2320 C   0  0  2  0  0  3  0  0  0  0  0  0
  192.8870  176.9890  140.7410 O   0  0  0  0  0  1  0  0  0  0  0  0
  191.1060  176.3710  138.8190 C   0  0  0  0  0  2  0  0  0  0  0  0
  190.6040  176.7670  137.5760 O   0  0  0  0  0  0  0  0  0  0  0  0
  189.8270  175.4020  136.9290 P   0  0  2  0  0  0  0  0  0  0  0  0
  190.2450  174.1660  137.6960 O   0  0  0  0  0  1  0  0  0  0  0  0
  190.2990  175.2290  135.3150 O   0  0  0  0  0  0  0  0  0  0  0  0
  187.5930  176.8330  137.8250 C   0  0  0  0  0  2  0  0  0  0  0  0
  187.3650  175.3780  135.7910 O   0  0  0  0  0  0  0  0  0  0  0  0
  186.3340  177.4390  137.2270 C   0  0  1  0  0  3  0  0  0  0  0  0
  186.0440  178.6390  137.8740 O   0  0  0  0  0  1  0  0  0  0  0  0
  187.0910  176.5170  134.9680 C   0  0  2  0  0  3  0  0  0  0  0  0
  187.8840  177.7950  135.2280 C   0  0  0  0  0  2  0  0  0  0  0  0
  186.4420  177.6830  135.7160 C   0  0  2  0  0  3  0  0  0  0  0  0
  188.0150  175.5960  137.0380 C   0  0  1  0  0  3  0  0  0  0  0  0
  188.2310  178.5620  140.8800 C   0  0  0  0  0  1  0  0  0  0  0  0
  189.3010  178.5660  141.7760 O   0  0  0  0  0  0  0  0  0  0  0  0
  1  2  1  0  0  0  0
  3 14  1  0  0  0  0
  3  6  1  0  0  0  0
  4  8  2  0  0  0  0
  5  4  1  0  0  0  0
  5  3  2  0  0  0  0
  6  1  1  0  0  0  0
  7  2  2  0  0  0  0
  8  6  1  0  0  0  0
  8  7  1  0  0  0  0
  9 13  1  0  0  0  0
 10 11  1  0  0  0  0
 10 14  2  0  0  0  0
 11  9  2  0  0  0  0
 12 13  2  0  0  0  0
 14 12  1  0  0  0  0
 15 16  2  0  0  0  0
 16 11  1  0  0  0  0
 17 16  1  0  0  0  0
 18 19  1  0  0  0  0
 18 17  1  0  0  0  0
 20 19  1  0  0  0  0
 21 20  1  0  0  0  0
 22 24  2  0  0  0  0
 23 21  1  0  0  0  0
 24 23  1  0  0  0  0
 24 25  1  0  0  0  0
 26 45  1  6  0  0  0
 26  5  1  0  0  0  0
 27 30  1  6  0  0  0
 27 29  1  0  0  0  0
 28 31  1  6  0  0  0
 28 27  1  0  0  0  0
 28 29  1  0  0  0  0
 29 26  1  1  0  0  0
 32 31  1  0  0  0  0
 33 35  2  6  0  0  0
 33 32  1  0  0  0  0
 33 34  1  0  0  0  0
 37 43  1  0  0  0  0
 38 36  1  0  0  0  0
 38 39  1  1  0  0  0
 40 41  1  1  0  0  0
 40 42  1  0  0  0  0
 40 37  1  0  0  0  0
 42 41  1  1  0  0  0
 42 38  1  0  0  0  0
 43 33  1  6  0  0  0
 43 36  1  0  0  0  0
 44 45  1  0  0  0  0
M  END
>  <MODEL>
9

>  <REMARK>
 VINA RESULT:      -7.0      2.491      7.365
  Name = 
  14 active torsions:
  status: ('A' for Active; 'I' for Inactive)
    1  A    between atoms: N_2  and  C_34
    2  A    between atoms: N_2  and  N_37
    3  A    between atoms: P_6  and  O_21
    4  A    between atoms: P_6  and  C_45
    5  A    between atoms: N_7  and  C_34
    6  A    between atoms: C_11  and  O_21
    7  A    between atoms: C_11  and  C_22
    8  A    between atoms: C_12  and  C_29
    9  A    between atoms: C_20  and  C_36
   10  A    between atoms: O_26  and  C_33
   11  A    between atoms: C_27  and  C_33
   12  A    between atoms: C_30  and  C_33
   13  A    between atoms: N_35  and  C_39
   14  A    between atoms: N_37  and  C_39
                            x       y       z     vdW  Elec       q    Type
                         _______ _______ _______ _____ _____    ______ ____

>  <TORSDO>
F 14

$$$$
