=
 OpenBabel11032420363D

 27 29  0  0  1  0  0  0  0  0999 V2000
  190.9270  177.1830  140.7160 N   0  0  0  0  0  0  0  0  0  0  0  0
  191.3050  177.1590  139.4220 C   0  0  0  0  0  0  0  0  0  0  0  0
  190.2640  177.5300  138.5710 C   0  0  0  0  0  3  0  0  0  0  0  0
  188.8240  177.7090  141.9190 C   0  0  1  0  0  3  0  0  0  0  0  0
  187.8840  178.2260  139.2280 C   0  0  0  0  0  0  0  0  0  0  0  0
  186.5690  178.5870  142.6810 N   0  0  0  0  0  2  0  0  0  0  0  0
  189.6630  177.5600  140.7260 N   0  0  0  0  0  0  0  0  0  0  0  0
  189.2440  177.7710  139.4740 C   0  0  0  0  0  0  0  0  0  0  0  0
  187.0520  178.4860  140.3630 N   0  0  0  0  0  0  0  0  0  0  0  0
  187.4500  178.4440  138.0310 N   0  0  0  0  0  2  0  0  0  0  0  0
  187.4460  178.2800  141.5950 C   0  0  0  0  0  0  0  0  0  0  0  0
  192.5930  176.8000  139.0210 O   0  0  0  0  0  0  0  0  0  0  0  0
  192.8720  176.3470  137.7050 C   0  0  0  0  0  1  0  0  0  0  0  0
  188.7120  176.3830  142.6710 C   0  0  0  0  0  2  0  0  0  0  0  0
  189.8640  176.1860  143.6570 C   0  0  0  0  0  2  0  0  0  0  0  0
  191.1210  177.1390  145.5620 N   0  0  0  0  0  0  0  0  0  0  0  0
  188.7440  177.3510  145.5720 C   0  0  0  0  0  3  0  0  0  0  0  0
  188.3030  177.2530  148.0070 C   0  0  0  0  0  1  0  0  0  0  0  0
  189.9510  177.3120  144.6860 C   0  0  2  0  0  3  0  0  0  0  0  0
  189.1760  177.2540  146.8040 C   0  0  0  0  0  0  0  0  0  0  0  0
  190.5790  177.1330  146.8550 N   0  0  0  0  0  0  0  0  0  0  0  0
  185.2340  179.1290  142.4800 C   0  0  0  0  0  2  0  0  0  0  0  0
  184.7600  179.8340  143.7400 C   0  0  0  0  0  2  0  0  0  0  0  0
  182.6220  178.7420  144.2390 C   0  0  0  0  0  2  0  0  0  0  0  0
  183.8970  178.9390  144.5740 C   0  0  0  0  0  0  0  0  0  0  0  0
  184.3900  178.5010  145.9130 C   0  0  0  0  0  2  0  0  0  0  0  0
  185.7090  179.1770  146.2400 C   0  0  0  0  0  1  0  0  0  0  0  0
  1  7  1  0  0  0  0
  2  1  2  0  0  0  0
  3  2  1  0  0  0  0
  3  8  2  0  0  0  0
  4 14  1  6  0  0  0
  5  8  1  0  0  0  0
  5  9  1  0  0  0  0
  7  4  1  0  0  0  0
  8  7  1  0  0  0  0
  9 11  2  0  0  0  0
 10  5  2  0  0  0  0
 11  4  1  0  0  0  0
 11  6  1  0  0  0  0
 12  2  1  0  0  0  0
 13 12  1  0  0  0  0
 14 15  1  0  0  0  0
 16 21  2  0  0  0  0
 17 20  2  0  0  0  0
 19 15  1  6  0  0  0
 19 16  1  0  0  0  0
 19 17  1  0  0  0  0
 20 21  1  0  0  0  0
 20 18  1  0  0  0  0
 22  6  1  0  0  0  0
 22 23  1  0  0  0  0
 23 25  1  0  0  0  0
 24 25  2  0  0  0  0
 25 26  1  0  0  0  0
 26 27  1  0  0  0  0
M  END
>  <MODEL>
1

>  <REMARK>
 VINA RESULT:      -8.2      0.000      0.000
  Name = 
  8 active torsions:
  status: ('A' for Active; 'I' for Inactive)
    1  A    between atoms: C_3  and  O_10
    2  A    between atoms: C_6  and  C_23
    3  A    between atoms: N_8  and  C_24
    4  A    between atoms: C_9  and  C_25
    5  A    between atoms: C_14  and  C_24
    6  A    between atoms: C_14  and  C_25
    7  A    between atoms: C_17  and  C_18
    8  A    between atoms: C_18  and  C_23
                            x       y       z     vdW  Elec       q    Type
                         _______ _______ _______ _____ _____    ______ ____

>  <TORSDO>
F 8

$$$$
=
 OpenBabel11032420363D

 27 29  0  0  1  0  0  0  0  0999 V2000
  190.5550  176.9370  145.6420 N   0  0  0  0  0  0  0  0  0  0  0  0
  190.6550  177.0490  146.9830 C   0  0  0  0  0  0  0  0  0  0  0  0
  189.4660  177.5010  147.5540 C   0  0  0  0  0  3  0  0  0  0  0  0
  188.7700  177.3630  143.9750 C   0  0  1  0  0  3  0  0  0  0  0  0
  187.2700  178.0620  146.3530 C   0  0  0  0  0  0  0  0  0  0  0  0
  186.5870  177.6850  142.7240 N   0  0  0  0  0  2  0  0  0  0  0  0
  189.3280  177.3060  145.3300 N   0  0  0  0  0  0  0  0  0  0  0  0
  188.6620  177.6450  146.4380 C   0  0  0  0  0  0  0  0  0  0  0  0
  186.6440  178.0380  145.0660 N   0  0  0  0  0  0  0  0  0  0  0  0
  186.5970  178.3910  147.4050 N   0  0  0  0  0  2  0  0  0  0  0  0
  187.2840  177.7120  143.9710 C   0  0  0  0  0  0  0  0  0  0  0  0
  191.8260  176.7410  147.6780 O   0  0  0  0  0  0  0  0  0  0  0  0
  192.4880  175.4950  147.5190 C   0  0  0  0  0  1  0  0  0  0  0  0
  189.5700  178.3280  143.1010 C   0  0  0  0  0  2  0  0  0  0  0  0
  190.4520  177.5910  142.0930 C   0  0  0  0  0  2  0  0  0  0  0  0
  190.5250  176.3040  139.9820 N   0  0  0  0  0  0  0  0  0  0  0  0
  189.0170  178.1500  140.1160 C   0  0  0  0  0  3  0  0  0  0  0  0
  189.0470  178.9150  137.7600 C   0  0  0  0  0  1  0  0  0  0  0  0
  189.6560  177.0490  140.9070 C   0  0  2  0  0  3  0  0  0  0  0  0
  189.4390  178.0220  138.8820 C   0  0  0  0  0  0  0  0  0  0  0  0
  190.3290  176.9380  138.7470 N   0  0  0  0  0  0  0  0  0  0  0  0
  185.1730  178.0070  142.6090 C   0  0  0  0  0  2  0  0  0  0  0  0
  184.9710  179.1340  141.6100 C   0  0  0  0  0  2  0  0  0  0  0  0
  183.2470  177.6920  140.6290 C   0  0  0  0  0  2  0  0  0  0  0  0
  184.1040  178.7010  140.4690 C   0  0  0  0  0  0  0  0  0  0  0  0
  184.4000  179.2140  139.0990 C   0  0  0  0  0  2  0  0  0  0  0  0
  185.4000  178.3110  138.4000 C   0  0  0  0  0  1  0  0  0  0  0  0
  1  2  2  0  0  0  0
  2  3  1  0  0  0  0
  2 12  1  0  0  0  0
  4 14  1  6  0  0  0
  4  7  1  0  0  0  0
  5  8  1  0  0  0  0
  5 10  2  0  0  0  0
  6 11  1  0  0  0  0
  7  1  1  0  0  0  0
  7  8  1  0  0  0  0
  8  3  2  0  0  0  0
  9  5  1  0  0  0  0
 11  4  1  0  0  0  0
 11  9  2  0  0  0  0
 13 12  1  0  0  0  0
 15 14  1  0  0  0  0
 16 19  1  0  0  0  0
 17 19  1  0  0  0  0
 18 20  1  0  0  0  0
 19 15  1  1  0  0  0
 20 17  2  0  0  0  0
 21 20  1  0  0  0  0
 21 16  2  0  0  0  0
 22  6  1  0  0  0  0
 23 22  1  0  0  0  0
 25 24  2  0  0  0  0
 25 23  1  0  0  0  0
 26 25  1  0  0  0  0
 27 26  1  0  0  0  0
M  END
>  <MODEL>
2

>  <REMARK>
 VINA RESULT:      -7.7      2.624      6.239
  Name = 
  8 active torsions:
  status: ('A' for Active; 'I' for Inactive)
    1  A    between atoms: C_3  and  O_10
    2  A    between atoms: C_6  and  C_23
    3  A    between atoms: N_8  and  C_24
    4  A    between atoms: C_9  and  C_25
    5  A    between atoms: C_14  and  C_24
    6  A    between atoms: C_14  and  C_25
    7  A    between atoms: C_17  and  C_18
    8  A    between atoms: C_18  and  C_23
                            x       y       z     vdW  Elec       q    Type
                         _______ _______ _______ _____ _____    ______ ____

>  <TORSDO>
F 8

$$$$
=
 OpenBabel11032420363D

 27 29  0  0  1  0  0  0  0  0999 V2000
  187.5190  178.1740  138.7590 N   0  0  0  0  0  0  0  0  0  0  0  0
  188.1440  178.2520  137.5660 C   0  0  0  0  0  0  0  0  0  0  0  0
  189.4970  177.9290  137.6700 C   0  0  0  0  0  3  0  0  0  0  0  0
  188.2170  177.6180  141.0720 C   0  0  1  0  0  3  0  0  0  0  0  0
  190.7800  177.2300  139.7780 C   0  0  0  0  0  0  0  0  0  0  0  0
  189.3440  176.7310  143.1650 N   0  0  0  0  0  2  0  0  0  0  0  0
  188.4360  177.8100  139.6350 N   0  0  0  0  0  0  0  0  0  0  0  0
  189.6130  177.6590  139.0210 C   0  0  0  0  0  0  0  0  0  0  0  0
  190.6000  176.9290  141.1660 N   0  0  0  0  0  0  0  0  0  0  0  0
  191.9310  177.0700  139.2130 N   0  0  0  0  0  2  0  0  0  0  0  0
  189.4550  177.0760  141.7820 C   0  0  0  0  0  0  0  0  0  0  0  0
  187.4820  178.6140  136.3920 O   0  0  0  0  0  0  0  0  0  0  0  0
  187.0480  177.6490  135.4460 C   0  0  0  0  0  1  0  0  0  0  0  0
  187.7250  178.9100  141.7220 C   0  0  0  0  0  2  0  0  0  0  0  0
  186.1980  178.9930  141.7480 C   0  0  0  0  0  2  0  0  0  0  0  0
  184.1600  178.3970  143.0150 N   0  0  0  0  0  0  0  0  0  0  0  0
  186.2620  178.2270  144.1330 C   0  0  0  0  0  3  0  0  0  0  0  0
  185.5780  178.7890  146.4460 C   0  0  0  0  0  1  0  0  0  0  0  0
  185.5820  178.0800  142.8060 C   0  0  2  0  0  3  0  0  0  0  0  0
  185.3340  178.5480  144.9990 C   0  0  0  0  0  0  0  0  0  0  0  0
  184.0680  178.6540  144.3900 N   0  0  0  0  0  0  0  0  0  0  0  0
  190.4640  176.2120  143.9350 C   0  0  0  0  0  2  0  0  0  0  0  0
  190.9900  177.2800  144.8790 C   0  0  0  0  0  2  0  0  0  0  0  0
  191.2800  176.3340  147.1230 C   0  0  0  0  0  2  0  0  0  0  0  0
  190.5260  177.0430  146.2820 C   0  0  0  0  0  0  0  0  0  0  0  0
  189.1130  177.3630  146.6410 C   0  0  0  0  0  2  0  0  0  0  0  0
  189.0270  177.8390  148.0800 C   0  0  0  0  0  1  0  0  0  0  0  0
  1  7  1  0  0  0  0
  2  3  1  0  0  0  0
  2  1  2  0  0  0  0
  3  8  2  0  0  0  0
  4 14  1  1  0  0  0
  4 11  1  0  0  0  0
  5  9  1  0  0  0  0
  6 22  1  0  0  0  0
  7  4  1  0  0  0  0
  8  7  1  0  0  0  0
  8  5  1  0  0  0  0
  9 11  2  0  0  0  0
 10  5  2  0  0  0  0
 11  6  1  0  0  0  0
 12  2  1  0  0  0  0
 13 12  1  0  0  0  0
 14 15  1  0  0  0  0
 16 21  2  0  0  0  0
 17 20  2  0  0  0  0
 19 15  1  6  0  0  0
 19 16  1  0  0  0  0
 19 17  1  0  0  0  0
 20 18  1  0  0  0  0
 21 20  1  0  0  0  0
 22 23  1  0  0  0  0
 23 25  1  0  0  0  0
 25 26  1  0  0  0  0
 25 24  2  0  0  0  0
 26 27  1  0  0  0  0
M  END
>  <MODEL>
3

>  <REMARK>
 VINA RESULT:      -7.7      2.016      4.901
  Name = 
  8 active torsions:
  status: ('A' for Active; 'I' for Inactive)
    1  A    between atoms: C_3  and  O_10
    2  A    between atoms: C_6  and  C_23
    3  A    between atoms: N_8  and  C_24
    4  A    between atoms: C_9  and  C_25
    5  A    between atoms: C_14  and  C_24
    6  A    between atoms: C_14  and  C_25
    7  A    between atoms: C_17  and  C_18
    8  A    between atoms: C_18  and  C_23
                            x       y       z     vdW  Elec       q    Type
                         _______ _______ _______ _____ _____    ______ ____

>  <TORSDO>
F 8

$$$$
=
 OpenBabel11032420363D

 27 29  0  0  1  0  0  0  0  0999 V2000
  190.8620  176.6870  145.1980 N   0  0  0  0  0  0  0  0  0  0  0  0
  191.2150  176.6880  146.5000 C   0  0  0  0  0  0  0  0  0  0  0  0
  190.1680  177.1120  147.3190 C   0  0  0  0  0  3  0  0  0  0  0  0
  188.8120  177.2780  143.9350 C   0  0  1  0  0  3  0  0  0  0  0  0
  187.8060  177.8070  146.6000 C   0  0  0  0  0  0  0  0  0  0  0  0
  186.4450  177.7390  143.1470 N   0  0  0  0  0  2  0  0  0  0  0  0
  189.6110  177.1020  145.1520 N   0  0  0  0  0  0  0  0  0  0  0  0
  189.1750  177.3610  146.3890 C   0  0  0  0  0  0  0  0  0  0  0  0
  186.9500  177.8980  145.4560 N   0  0  0  0  0  0  0  0  0  0  0  0
  187.3520  178.0600  147.7830 N   0  0  0  0  0  2  0  0  0  0  0  0
  187.3630  177.6520  144.2390 C   0  0  0  0  0  0  0  0  0  0  0  0
  192.4840  176.3050  146.9360 O   0  0  0  0  0  0  0  0  0  0  0  0
  192.6770  175.5830  148.1430 C   0  0  0  0  0  1  0  0  0  0  0  0
  189.4650  178.2980  143.0030 C   0  0  0  0  0  2  0  0  0  0  0  0
  190.3440  177.6270  141.9470 C   0  0  0  0  0  2  0  0  0  0  0  0
  190.3880  176.3390  139.8370 N   0  0  0  0  0  0  0  0  0  0  0  0
  188.9410  178.2330  139.9620 C   0  0  0  0  0  3  0  0  0  0  0  0
  189.0090  178.9970  137.6070 C   0  0  0  0  0  1  0  0  0  0  0  0
  189.5380  177.1120  140.7570 C   0  0  2  0  0  3  0  0  0  0  0  0
  189.3650  178.0920  138.7310 C   0  0  0  0  0  0  0  0  0  0  0  0
  190.2210  176.9800  138.6010 N   0  0  0  0  0  0  0  0  0  0  0  0
  185.0450  178.0930  143.3270 C   0  0  0  0  0  2  0  0  0  0  0  0
  184.3880  178.3340  141.9780 C   0  0  0  0  0  2  0  0  0  0  0  0
  182.1470  178.6720  141.0420 C   0  0  0  0  0  2  0  0  0  0  0  0
  182.9210  178.5880  142.1240 C   0  0  0  0  0  0  0  0  0  0  0  0
  182.3900  179.0180  143.4520 C   0  0  0  0  0  2  0  0  0  0  0  0
  180.8760  178.9100  143.4770 C   0  0  0  0  0  1  0  0  0  0  0  0
  1  2  2  0  0  0  0
  2 12  1  0  0  0  0
  2  3  1  0  0  0  0
  4 14  1  6  0  0  0
  4 11  1  0  0  0  0
  4  7  1  0  0  0  0
  5 10  2  0  0  0  0
  6 22  1  0  0  0  0
  6 11  1  0  0  0  0
  7  1  1  0  0  0  0
  7  8  1  0  0  0  0
  8  5  1  0  0  0  0
  8  3  2  0  0  0  0
  9  5  1  0  0  0  0
 11  9  2  0  0  0  0
 12 13  1  0  0  0  0
 15 14  1  0  0  0  0
 16 19  1  0  0  0  0
 17 19  1  0  0  0  0
 18 20  1  0  0  0  0
 19 15  1  1  0  0  0
 20 17  2  0  0  0  0
 21 20  1  0  0  0  0
 21 16  2  0  0  0  0
 23 25  1  0  0  0  0
 23 22  1  0  0  0  0
 24 25  2  0  0  0  0
 25 26  1  0  0  0  0
 26 27  1  0  0  0  0
M  END
>  <MODEL>
4

>  <REMARK>
 VINA RESULT:      -7.7      2.431      6.024
  Name = 
  8 active torsions:
  status: ('A' for Active; 'I' for Inactive)
    1  A    between atoms: C_3  and  O_10
    2  A    between atoms: C_6  and  C_23
    3  A    between atoms: N_8  and  C_24
    4  A    between atoms: C_9  and  C_25
    5  A    between atoms: C_14  and  C_24
    6  A    between atoms: C_14  and  C_25
    7  A    between atoms: C_17  and  C_18
    8  A    between atoms: C_18  and  C_23
                            x       y       z     vdW  Elec       q    Type
                         _______ _______ _______ _____ _____    ______ ____

>  <TORSDO>
F 8

$$$$
=
 OpenBabel11032420363D

 27 29  0  0  1  0  0  0  0  0999 V2000
  189.0550  177.9460  143.0100 N   0  0  0  0  0  0  0  0  0  0  0  0
  190.1950  177.3690  142.5770 C   0  0  0  0  0  0  0  0  0  0  0  0
  190.1560  177.1120  141.2060 C   0  0  0  0  0  3  0  0  0  0  0  0
  186.9210  178.6280  141.9480 C   0  0  1  0  0  3  0  0  0  0  0  0
  188.2490  177.6340  139.5720 C   0  0  0  0  0  0  0  0  0  0  0  0
  185.0730  179.3780  140.3800 N   0  0  0  0  0  2  0  0  0  0  0  0
  188.2760  178.0680  141.9520 N   0  0  0  0  0  0  0  0  0  0  0  0
  188.9000  177.5840  140.8730 C   0  0  0  0  0  0  0  0  0  0  0  0
  186.9660  178.2640  139.4920 N   0  0  0  0  0  0  0  0  0  0  0  0
  188.8260  177.1790  138.5100 N   0  0  0  0  0  2  0  0  0  0  0  0
  186.3420  178.7400  140.5400 C   0  0  0  0  0  0  0  0  0  0  0  0
  191.2620  177.0800  143.4280 O   0  0  0  0  0  0  0  0  0  0  0  0
  191.6810  177.9830  144.4410 C   0  0  0  0  0  1  0  0  0  0  0  0
  186.0010  177.8240  142.8660 C   0  0  0  0  0  2  0  0  0  0  0  0
  185.2990  178.7130  143.8930 C   0  0  0  0  0  2  0  0  0  0  0  0
  184.6910  179.0040  146.2720 N   0  0  0  0  0  0  0  0  0  0  0  0
  186.5890  177.6510  145.7600 C   0  0  0  0  0  3  0  0  0  0  0  0
  188.0020  178.1050  147.7430 C   0  0  0  0  0  1  0  0  0  0  0  0
  185.2340  178.0670  145.2760 C   0  0  2  0  0  3  0  0  0  0  0  0
  186.7780  178.2460  146.9120 C   0  0  0  0  0  0  0  0  0  0  0  0
  185.6800  179.0540  147.2660 N   0  0  0  0  0  0  0  0  0  0  0  0
  184.4310  179.5310  139.0840 C   0  0  0  0  0  2  0  0  0  0  0  0
  182.9320  179.3100  139.2120 C   0  0  0  0  0  2  0  0  0  0  0  0
  182.6770  176.9580  139.8590 C   0  0  0  0  0  2  0  0  0  0  0  0
  182.6230  178.2430  140.2150 C   0  0  0  0  0  0  0  0  0  0  0  0
  181.9940  178.6280  141.5130 C   0  0  0  0  0  2  0  0  0  0  0  0
  180.4970  178.3810  141.4700 C   0  0  0  0  0  1  0  0  0  0  0  0
  2  1  2  0  0  0  0
  2 12  1  0  0  0  0
  3  2  1  0  0  0  0
  4  7  1  0  0  0  0
  4 14  1  1  0  0  0
  5  8  1  0  0  0  0
  6 11  1  0  0  0  0
  7  1  1  0  0  0  0
  8  3  2  0  0  0  0
  8  7  1  0  0  0  0
  9  5  1  0  0  0  0
  9 11  2  0  0  0  0
 10  5  2  0  0  0  0
 11  4  1  0  0  0  0
 12 13  1  0  0  0  0
 14 15  1  0  0  0  0
 16 21  2  0  0  0  0
 17 20  2  0  0  0  0
 19 15  1  6  0  0  0
 19 17  1  0  0  0  0
 19 16  1  0  0  0  0
 20 21  1  0  0  0  0
 20 18  1  0  0  0  0
 22 23  1  0  0  0  0
 22  6  1  0  0  0  0
 23 25  1  0  0  0  0
 24 25  2  0  0  0  0
 25 26  1  0  0  0  0
 27 26  1  0  0  0  0
M  END
>  <MODEL>
5

>  <REMARK>
 VINA RESULT:      -7.5      2.605      3.970
  Name = 
  8 active torsions:
  status: ('A' for Active; 'I' for Inactive)
    1  A    between atoms: C_3  and  O_10
    2  A    between atoms: C_6  and  C_23
    3  A    between atoms: N_8  and  C_24
    4  A    between atoms: C_9  and  C_25
    5  A    between atoms: C_14  and  C_24
    6  A    between atoms: C_14  and  C_25
    7  A    between atoms: C_17  and  C_18
    8  A    between atoms: C_18  and  C_23
                            x       y       z     vdW  Elec       q    Type
                         _______ _______ _______ _____ _____    ______ ____

>  <TORSDO>
F 8

$$$$
=
 OpenBabel11032420363D

 27 29  0  0  1  0  0  0  0  0999 V2000
  185.6060  178.2180  142.1150 N   0  0  0  0  0  0  0  0  0  0  0  0
  184.2980  178.5340  142.2180 C   0  0  0  0  0  0  0  0  0  0  0  0
  183.9000  178.6580  143.5490 C   0  0  0  0  0  3  0  0  0  0  0  0
  187.4390  177.7900  143.7270 C   0  0  1  0  0  3  0  0  0  0  0  0
  185.3500  178.3810  145.6460 C   0  0  0  0  0  0  0  0  0  0  0  0
  189.0000  177.7070  145.7260 N   0  0  0  0  0  2  0  0  0  0  0  0
  186.0650  178.1320  143.3480 N   0  0  0  0  0  0  0  0  0  0  0  0
  185.0810  178.3870  144.2160 C   0  0  0  0  0  0  0  0  0  0  0  0
  186.6990  178.1540  146.0690 N   0  0  0  0  0  0  0  0  0  0  0  0
  184.4220  178.6280  146.5100 N   0  0  0  0  0  2  0  0  0  0  0  0
  187.6730  177.8990  145.2320 C   0  0  0  0  0  0  0  0  0  0  0  0
  183.4770  178.7070  141.1030 O   0  0  0  0  0  0  0  0  0  0  0  0
  184.0040  179.0030  139.8190 C   0  0  0  0  0  1  0  0  0  0  0  0
  187.8150  176.4030  143.2060 C   0  0  0  0  0  2  0  0  0  0  0  0
  189.3000  176.3050  142.8580 C   0  0  0  0  0  2  0  0  0  0  0  0
  189.2260  177.4310  140.6580 N   0  0  0  0  0  0  0  0  0  0  0  0
  191.2740  177.4990  141.8810 C   0  0  0  0  0  3  0  0  0  0  0  0
  192.9030  177.5030  140.0150 C   0  0  0  0  0  1  0  0  0  0  0  0
  189.7830  177.4870  142.0190 C   0  0  2  0  0  3  0  0  0  0  0  0
  191.5350  177.4930  140.5980 C   0  0  0  0  0  0  0  0  0  0  0  0
  190.3560  177.4610  139.8280 N   0  0  0  0  0  0  0  0  0  0  0  0
  189.3290  177.7840  147.1410 C   0  0  0  0  0  2  0  0  0  0  0  0
  190.1610  176.5800  147.5520 C   0  0  0  0  0  2  0  0  0  0  0  0
  191.5370  177.1670  145.6090 C   0  0  0  0  0  2  0  0  0  0  0  0
  191.4240  176.4940  146.7550 C   0  0  0  0  0  0  0  0  0  0  0  0
  192.4300  175.4480  147.1040 C   0  0  0  0  0  2  0  0  0  0  0  0
  192.9070  175.6280  148.5340 C   0  0  0  0  0  1  0  0  0  0  0  0
  1  2  2  0  0  0  0
  1  7  1  0  0  0  0
  2  3  1  0  0  0  0
  3  8  2  0  0  0  0
  4 14  1  1  0  0  0
  4 11  1  0  0  0  0
  5  9  1  0  0  0  0
  5 10  2  0  0  0  0
  6 22  1  0  0  0  0
  7  4  1  0  0  0  0
  7  8  1  0  0  0  0
  8  5  1  0  0  0  0
 11  6  1  0  0  0  0
 11  9  2  0  0  0  0
 12  2  1  0  0  0  0
 13 12  1  0  0  0  0
 15 14  1  0  0  0  0
 16 19  1  0  0  0  0
 17 19  1  0  0  0  0
 18 20  1  0  0  0  0
 19 15  1  1  0  0  0
 20 17  2  0  0  0  0
 21 20  1  0  0  0  0
 21 16  2  0  0  0  0
 22 23  1  0  0  0  0
 24 25  2  0  0  0  0
 25 26  1  0  0  0  0
 25 23  1  0  0  0  0
 26 27  1  0  0  0  0
M  END
>  <MODEL>
6

>  <REMARK>
 VINA RESULT:      -7.4      2.775      6.725
  Name = 
  8 active torsions:
  status: ('A' for Active; 'I' for Inactive)
    1  A    between atoms: C_3  and  O_10
    2  A    between atoms: C_6  and  C_23
    3  A    between atoms: N_8  and  C_24
    4  A    between atoms: C_9  and  C_25
    5  A    between atoms: C_14  and  C_24
    6  A    between atoms: C_14  and  C_25
    7  A    between atoms: C_17  and  C_18
    8  A    between atoms: C_18  and  C_23
                            x       y       z     vdW  Elec       q    Type
                         _______ _______ _______ _____ _____    ______ ____

>  <TORSDO>
F 8

$$$$
=
 OpenBabel11032420363D

 27 29  0  0  1  0  0  0  0  0999 V2000
  187.2900  177.3410  144.3560 N   0  0  0  0  0  0  0  0  0  0  0  0
  186.0630  177.8250  144.6360 C   0  0  0  0  0  0  0  0  0  0  0  0
  185.4940  178.4620  143.5340 C   0  0  0  0  0  3  0  0  0  0  0  0
  188.7620  177.3420  142.3610 C   0  0  1  0  0  3  0  0  0  0  0  0
  186.5080  178.7410  141.1950 C   0  0  0  0  0  0  0  0  0  0  0  0
  189.7580  177.3770  140.0280 N   0  0  0  0  0  2  0  0  0  0  0  0
  187.5320  177.6520  143.0970 N   0  0  0  0  0  0  0  0  0  0  0  0
  186.4900  178.3140  142.5860 C   0  0  0  0  0  0  0  0  0  0  0  0
  187.6420  178.3760  140.4010 N   0  0  0  0  0  0  0  0  0  0  0  0
  185.5150  179.3790  140.6700 N   0  0  0  0  0  2  0  0  0  0  0  0
  188.6720  177.7300  140.8870 C   0  0  0  0  0  0  0  0  0  0  0  0
  185.4670  177.6830  145.8910 O   0  0  0  0  0  0  0  0  0  0  0  0
  185.5100  178.7160  146.8630 C   0  0  0  0  0  1  0  0  0  0  0  0
  189.9720  177.9910  143.0330 C   0  0  0  0  0  2  0  0  0  0  0  0
  190.7810  176.9830  143.8500 C   0  0  0  0  0  2  0  0  0  0  0  0
  191.6840  176.4220  146.0830 N   0  0  0  0  0  0  0  0  0  0  0  0
  189.8570  177.9540  145.9660 C   0  0  0  0  0  3  0  0  0  0  0  0
  188.6960  177.4180  148.0870 C   0  0  0  0  0  1  0  0  0  0  0  0
  191.0910  177.4870  145.2580 C   0  0  2  0  0  3  0  0  0  0  0  0
  189.7770  177.2680  147.0790 C   0  0  0  0  0  0  0  0  0  0  0  0
  190.8400  176.3510  147.2010 N   0  0  0  0  0  0  0  0  0  0  0  0
  189.7740  177.7040  138.6100 C   0  0  0  0  0  2  0  0  0  0  0  0
  189.3270  176.5050  137.7900 C   0  0  0  0  0  2  0  0  0  0  0  0
  188.5820  177.7030  135.7850 C   0  0  0  0  0  2  0  0  0  0  0  0
  188.2780  176.8860  136.7940 C   0  0  0  0  0  0  0  0  0  0  0  0
  186.8490  176.5750  137.0930 C   0  0  0  0  0  2  0  0  0  0  0  0
  186.0630  177.8540  137.3160 C   0  0  0  0  0  1  0  0  0  0  0  0
  1  2  2  0  0  0  0
  2 12  1  0  0  0  0
  3  2  1  0  0  0  0
  4 14  1  1  0  0  0
  4  7  1  0  0  0  0
  5  8  1  0  0  0  0
  6 11  1  0  0  0  0
  7  1  1  0  0  0  0
  8  7  1  0  0  0  0
  8  3  2  0  0  0  0
  9 11  2  0  0  0  0
  9  5  1  0  0  0  0
 10  5  2  0  0  0  0
 11  4  1  0  0  0  0
 12 13  1  0  0  0  0
 14 15  1  0  0  0  0
 16 21  2  0  0  0  0
 17 20  2  0  0  0  0
 19 15  1  6  0  0  0
 19 17  1  0  0  0  0
 19 16  1  0  0  0  0
 20 21  1  0  0  0  0
 20 18  1  0  0  0  0
 22  6  1  0  0  0  0
 23 22  1  0  0  0  0
 24 25  2  0  0  0  0
 25 26  1  0  0  0  0
 25 23  1  0  0  0  0
 26 27  1  0  0  0  0
M  END
>  <MODEL>
7

>  <REMARK>
 VINA RESULT:      -7.4      2.491      5.828
  Name = 
  8 active torsions:
  status: ('A' for Active; 'I' for Inactive)
    1  A    between atoms: C_3  and  O_10
    2  A    between atoms: C_6  and  C_23
    3  A    between atoms: N_8  and  C_24
    4  A    between atoms: C_9  and  C_25
    5  A    between atoms: C_14  and  C_24
    6  A    between atoms: C_14  and  C_25
    7  A    between atoms: C_17  and  C_18
    8  A    between atoms: C_18  and  C_23
                            x       y       z     vdW  Elec       q    Type
                         _______ _______ _______ _____ _____    ______ ____

>  <TORSDO>
F 8

$$$$
=
 OpenBabel11032420363D

 27 29  0  0  1  0  0  0  0  0999 V2000
  189.2000  176.9320  145.3690 N   0  0  0  0  0  0  0  0  0  0  0  0
  189.3360  177.1290  146.6970 C   0  0  0  0  0  0  0  0  0  0  0  0
  188.2190  177.7610  147.2430 C   0  0  0  0  0  3  0  0  0  0  0  0
  187.4520  177.4500  143.6890 C   0  0  1  0  0  3  0  0  0  0  0  0
  186.0870  178.4960  146.0210 C   0  0  0  0  0  0  0  0  0  0  0  0
  185.3030  177.9420  142.4350 N   0  0  0  0  0  2  0  0  0  0  0  0
  188.0210  177.4240  145.0400 N   0  0  0  0  0  0  0  0  0  0  0  0
  187.4200  177.9210  146.1250 C   0  0  0  0  0  0  0  0  0  0  0  0
  185.4410  178.4540  144.7440 N   0  0  0  0  0  0  0  0  0  0  0  0
  185.4760  178.9790  147.0510 N   0  0  0  0  0  2  0  0  0  0  0  0
  186.0190  177.9740  143.6710 C   0  0  0  0  0  0  0  0  0  0  0  0
  190.4720  176.7330  147.4030 O   0  0  0  0  0  0  0  0  0  0  0  0
  191.6800  176.3780  146.7470 C   0  0  0  0  0  1  0  0  0  0  0  0
  188.3470  178.2450  142.7400 C   0  0  0  0  0  2  0  0  0  0  0  0
  188.6350  177.4790  141.4480 C   0  0  0  0  0  2  0  0  0  0  0  0
  187.3400  178.6270  139.6810 N   0  0  0  0  0  0  0  0  0  0  0  0
  189.5090  177.8030  139.1220 C   0  0  0  0  0  3  0  0  0  0  0  0
  189.1580  177.2170  136.7410 C   0  0  0  0  0  1  0  0  0  0  0  0
  188.6870  178.3940  140.2260 C   0  0  2  0  0  3  0  0  0  0  0  0
  188.7360  177.7430  138.0660 C   0  0  0  0  0  0  0  0  0  0  0  0
  187.4420  178.2270  138.3410 N   0  0  0  0  0  0  0  0  0  0  0  0
  183.9360  178.4230  142.3080 C   0  0  0  0  0  2  0  0  0  0  0  0
  183.4880  178.3540  140.8570 C   0  0  0  0  0  2  0  0  0  0  0  0
  181.1920  178.9560  141.4740 C   0  0  0  0  0  2  0  0  0  0  0  0
  182.0050  178.1830  140.7530 C   0  0  0  0  0  0  0  0  0  0  0  0
  181.4620  176.9770  140.0610 C   0  0  0  0  0  2  0  0  0  0  0  0
  182.5580  176.2750  139.2800 C   0  0  0  0  0  1  0  0  0  0  0  0
  1  2  2  0  0  0  0
  2  3  1  0  0  0  0
  2 12  1  0  0  0  0
  4 14  1  6  0  0  0
  4  7  1  0  0  0  0
  5  8  1  0  0  0  0
  5 10  2  0  0  0  0
  6 11  1  0  0  0  0
  7  1  1  0  0  0  0
  7  8  1  0  0  0  0
  8  3  2  0  0  0  0
  9  5  1  0  0  0  0
 11  4  1  0  0  0  0
 11  9  2  0  0  0  0
 13 12  1  0  0  0  0
 15 14  1  0  0  0  0
 16 19  1  0  0  0  0
 17 19  1  0  0  0  0
 18 20  1  0  0  0  0
 19 15  1  1  0  0  0
 20 21  1  0  0  0  0
 20 17  2  0  0  0  0
 21 16  2  0  0  0  0
 22  6  1  0  0  0  0
 23 22  1  0  0  0  0
 25 23  1  0  0  0  0
 25 24  2  0  0  0  0
 26 25  1  0  0  0  0
 27 26  1  0  0  0  0
M  END
>  <MODEL>
8

>  <REMARK>
 VINA RESULT:      -7.3      2.873      6.466
  Name = 
  8 active torsions:
  status: ('A' for Active; 'I' for Inactive)
    1  A    between atoms: C_3  and  O_10
    2  A    between atoms: C_6  and  C_23
    3  A    between atoms: N_8  and  C_24
    4  A    between atoms: C_9  and  C_25
    5  A    between atoms: C_14  and  C_24
    6  A    between atoms: C_14  and  C_25
    7  A    between atoms: C_17  and  C_18
    8  A    between atoms: C_18  and  C_23
                            x       y       z     vdW  Elec       q    Type
                         _______ _______ _______ _____ _____    ______ ____

>  <TORSDO>
F 8

$$$$
=
 OpenBabel11032420363D

 27 29  0  0  1  0  0  0  0  0999 V2000
  186.7870  177.7600  144.2390 N   0  0  0  0  0  0  0  0  0  0  0  0
  185.5500  178.2770  144.3820 C   0  0  0  0  0  0  0  0  0  0  0  0
  185.0620  178.7890  143.1800 C   0  0  0  0  0  3  0  0  0  0  0  0
  188.3880  177.5330  142.3600 C   0  0  1  0  0  3  0  0  0  0  0  0
  186.2320  178.8000  140.8970 C   0  0  0  0  0  0  0  0  0  0  0  0
  189.5360  177.3020  140.1090 N   0  0  0  0  0  2  0  0  0  0  0  0
  187.1150  177.9270  142.9730 N   0  0  0  0  0  0  0  0  0  0  0  0
  186.1170  178.5320  142.3230 C   0  0  0  0  0  0  0  0  0  0  0  0
  187.4110  178.3440  140.2260 N   0  0  0  0  0  0  0  0  0  0  0  0
  185.2830  179.3780  140.2390 N   0  0  0  0  0  2  0  0  0  0  0  0
  188.3990  177.7530  140.8490 C   0  0  0  0  0  0  0  0  0  0  0  0
  184.8710  178.2800  145.6010 O   0  0  0  0  0  0  0  0  0  0  0  0
  185.5130  178.6340  146.8170 C   0  0  0  0  0  1  0  0  0  0  0  0
  189.5580  178.2480  143.0340 C   0  0  0  0  0  2  0  0  0  0  0  0
  190.5150  177.2660  143.7110 C   0  0  0  0  0  2  0  0  0  0  0  0
  191.6140  176.6210  145.8310 N   0  0  0  0  0  0  0  0  0  0  0  0
  189.6410  177.9590  145.9550 C   0  0  0  0  0  3  0  0  0  0  0  0
  188.6810  177.1330  148.0830 C   0  0  0  0  0  1  0  0  0  0  0  0
  190.8660  177.6830  145.1380 C   0  0  2  0  0  3  0  0  0  0  0  0
  189.7040  177.1790  147.0050 C   0  0  0  0  0  0  0  0  0  0  0  0
  190.8570  176.3710  146.9850 N   0  0  0  0  0  0  0  0  0  0  0  0
  189.6490  177.4680  138.6680 C   0  0  0  0  0  2  0  0  0  0  0  0
  189.5370  176.1200  137.9750 C   0  0  0  0  0  2  0  0  0  0  0  0
  190.6060  175.8100  135.7900 C   0  0  0  0  0  2  0  0  0  0  0  0
  190.7330  175.8490  137.1170 C   0  0  0  0  0  0  0  0  0  0  0  0
  191.9880  175.3550  137.7580 C   0  0  0  0  0  2  0  0  0  0  0  0
  193.1010  176.3740  137.5960 C   0  0  0  0  0  1  0  0  0  0  0  0
  1  2  2  0  0  0  0
  2 12  1  0  0  0  0
  3  2  1  0  0  0  0
  4  7  1  0  0  0  0
  4 14  1  1  0  0  0
  5  8  1  0  0  0  0
  6 11  1  0  0  0  0
  7  1  1  0  0  0  0
  8  7  1  0  0  0  0
  8  3  2  0  0  0  0
  9 11  2  0  0  0  0
  9  5  1  0  0  0  0
 10  5  2  0  0  0  0
 11  4  1  0  0  0  0
 12 13  1  0  0  0  0
 14 15  1  0  0  0  0
 16 21  2  0  0  0  0
 17 20  2  0  0  0  0
 19 15  1  6  0  0  0
 19 16  1  0  0  0  0
 19 17  1  0  0  0  0
 20 18  1  0  0  0  0
 21 20  1  0  0  0  0
 22  6  1  0  0  0  0
 23 22  1  0  0  0  0
 24 25  2  0  0  0  0
 25 26  1  0  0  0  0
 25 23  1  0  0  0  0
 27 26  1  0  0  0  0
M  END
>  <MODEL>
9

>  <REMARK>
 VINA RESULT:      -7.3      2.359      6.371
  Name = 
  8 active torsions:
  status: ('A' for Active; 'I' for Inactive)
    1  A    between atoms: C_3  and  O_10
    2  A    between atoms: C_6  and  C_23
    3  A    between atoms: N_8  and  C_24
    4  A    between atoms: C_9  and  C_25
    5  A    between atoms: C_14  and  C_24
    6  A    between atoms: C_14  and  C_25
    7  A    between atoms: C_17  and  C_18
    8  A    between atoms: C_18  and  C_23
                            x       y       z     vdW  Elec       q    Type
                         _______ _______ _______ _____ _____    ______ ____

>  <TORSDO>
F 8

$$$$
