=
 OpenBabel11042409523D

 33 38  0  0  1  0  0  0  0  0999 V2000
  182.5420  179.1590  142.9760 C   0  0  2  0  0  3  0  0  0  0  0  0
  185.3370  178.5180  142.3640 N   0  0  0  0  0  0  0  0  0  0  0  0
  183.4950  178.6280  143.9990 C   0  0  0  0  0  0  0  0  0  0  0  0
  184.5560  179.7530  139.0110 N   0  0  1  0  0  0  0  0  0  0  0  0
  181.1810  178.5250  143.2000 C   0  0  0  0  0  1  0  0  0  0  0  0
  186.7180  178.2230  145.3500 C   0  0  0  0  0  3  0  0  0  0  0  0
  184.7930  178.2890  143.6580 C   0  0  0  0  0  0  0  0  0  0  0  0
  183.1070  180.0710  139.1420 C   0  0  2  0  0  3  0  0  0  0  0  0
  185.4330  178.1780  144.8600 C   0  0  0  0  0  0  0  0  0  0  0  0
  185.1200  178.6280  146.9680 N   0  0  0  0  0  2  0  0  0  0  0  0
  184.5550  178.8650  141.3810 C   0  0  0  0  0  0  0  0  0  0  0  0
  185.1240  179.0340  140.0870 N   0  0  0  0  0  2  0  0  0  0  0  0
  184.5580  178.3900  145.8060 N   0  0  0  0  0  0  0  0  0  0  0  0
  182.4350  179.8610  140.5250 C   0  0  2  0  0  3  0  0  0  0  0  0
  183.5270  178.9320  138.2990 C   0  0  2  0  0  3  0  0  0  0  0  0
  183.3660  178.7430  145.3510 N   0  0  0  0  0  0  0  0  0  0  0  0
  186.4470  178.4680  146.7140 C   0  0  0  0  0  0  0  0  0  0  0  0
  187.4970  178.6430  147.7520 C   0  0  0  0  0  1  0  0  0  0  0  0
  183.0480  178.8800  141.5280 C   0  0  2  0  0  3  0  0  0  0  0  0
  180.0880  180.7360  140.4250 O   0  0  0  0  0  1  0  0  0  0  0  0
  180.9640  179.6600  140.3460 C   0  0  0  0  0  0  0  0  0  0  0  0
  180.5120  178.5020  140.1430 O   0  0  0  0  0  0  0  0  0  0  0  0
  183.2500  177.5380  138.8790 C   0  0  0  0  0  2  0  0  0  0  0  0
  184.5450  175.4050  136.2070 O   0  0  0  0  0  0  0  0  0  0  0  0
  183.2790  176.5290  137.8220 N   0  0  0  0  0  0  0  0  0  0  0  0
  185.7400  176.7960  137.6220 N   0  0  0  0  0  1  0  0  0  0  0  0
  184.5200  176.2110  137.1740 C   0  0  0  0  0  0  0  0  0  0  0  0
  180.8660  176.5480  137.9390 N   0  0  0  0  0  2  0  0  0  0  0  0
  179.1020  174.5290  138.1770 O   0  0  0  0  0  0  0  0  0  0  0  0
  180.4300  175.1860  140.2190 O   0  0  0  0  0  0  0  0  0  0  0  0
  181.8430  174.4990  137.9560 C   0  0  0  0  0  2  0  0  0  0  0  0
  182.0440  175.8930  137.3490 C   0  0  2  0  0  3  0  0  0  0  0  0
  180.3840  175.0930  138.7200 S   0  0  0  0  0  0  0  0  0  0  0  0
  1  5  1  6  0  0  0
  1  3  1  0  0  0  0
  2  7  1  0  0  0  0
  3 16  2  0  0  0  0
  4  8  1  0  0  0  0
  4 12  1  1  0  0  0
  6 17  2  0  0  0  0
  7  3  1  0  0  0  0
  7  9  2  0  0  0  0
  8 14  1  0  0  0  0
  9  6  1  0  0  0  0
  9 13  1  0  0  0  0
 11 19  1  0  0  0  0
 11  2  2  0  0  0  0
 12 11  1  0  0  0  0
 13 10  1  0  0  0  0
 14 19  1  0  0  0  0
 15 23  1  0  0  0  0
 15  4  1  0  0  0  0
 15  8  1  0  0  0  0
 16 13  1  0  0  0  0
 17 10  1  0  0  0  0
 17 18  1  0  0  0  0
 19  1  1  0  0  0  0
 21 20  1  0  0  0  0
 21 14  1  0  0  0  0
 22 21  2  0  0  0  0
 24 27  2  0  0  0  0
 25 23  1  0  0  0  0
 27 26  1  0  0  0  0
 27 25  1  0  0  0  0
 28 33  1  0  0  0  0
 29 33  2  0  0  0  0
 31 33  1  0  0  0  0
 32 25  1  0  0  0  0
 32 28  1  0  0  0  0
 32 31  1  0  0  0  0
 33 30  2  0  0  0  0
M  END
>  <MODEL>
1

>  <REMARK>
 VINA RESULT:      -7.1      0.000      0.000
  Name = 
  4 active torsions:
  status: ('A' for Active; 'I' for Inactive)
    1  A    between atoms: C_1  and  N_7
    2  A    between atoms: C_1  and  C_25
    3  A    between atoms: N_7  and  C_24
    4  A    between atoms: C_23  and  C_27
                            x       y       z     vdW  Elec       q    Type
                         _______ _______ _______ _____ _____    ______ ____

>  <TORSDO>
F 4

$$$$
=
 OpenBabel11042409523D

 33 38  0  0  1  0  0  0  0  0999 V2000
  188.3080  178.2380  140.3080 C   0  0  2  0  0  3  0  0  0  0  0  0
  190.4650  176.2640  140.5390 N   0  0  0  0  0  0  0  0  0  0  0  0
  188.7200  177.6370  141.6140 C   0  0  0  0  0  0  0  0  0  0  0  0
  190.8650  176.7470  136.9360 N   0  0  1  0  0  0  0  0  0  0  0  0
  186.7950  178.3750  140.2880 C   0  0  0  0  0  1  0  0  0  0  0  0
  191.0950  176.2090  143.7810 C   0  0  0  0  0  3  0  0  0  0  0  0
  189.7090  176.6700  141.6740 C   0  0  0  0  0  0  0  0  0  0  0  0
  189.7660  177.7060  136.6410 C   0  0  2  0  0  3  0  0  0  0  0  0
  190.0380  176.6160  142.9980 C   0  0  0  0  0  0  0  0  0  0  0  0
  189.7090  177.7170  144.8500 N   0  0  0  0  0  2  0  0  0  0  0  0
  190.1010  176.6420  139.3460 C   0  0  0  0  0  0  0  0  0  0  0  0
  190.8480  176.1750  138.2280 N   0  0  0  0  0  2  0  0  0  0  0  0
  189.2660  177.4510  143.6430 N   0  0  0  0  0  0  0  0  0  0  0  0
  188.8980  178.2100  137.8250 C   0  0  2  0  0  3  0  0  0  0  0  0
  189.6720  176.3190  136.1410 C   0  0  2  0  0  3  0  0  0  0  0  0
  188.4840  178.1630  142.8480 N   0  0  0  0  0  0  0  0  0  0  0  0
  190.8000  176.9130  144.9690 C   0  0  0  0  0  0  0  0  0  0  0  0
  191.6450  176.8720  146.1910 C   0  0  0  0  0  1  0  0  0  0  0  0
  188.7980  177.3750  139.1040 C   0  0  2  0  0  3  0  0  0  0  0  0
  186.4540  177.8230  137.4250 O   0  0  0  0  0  1  0  0  0  0  0  0
  187.5630  178.6540  137.3190 C   0  0  0  0  0  0  0  0  0  0  0  0
  187.4470  179.7810  136.7700 O   0  0  0  0  0  0  0  0  0  0  0  0
  188.6610  175.4180  136.8660 C   0  0  0  0  0  2  0  0  0  0  0  0
  189.2730  172.1190  135.4150 O   0  0  0  0  0  0  0  0  0  0  0  0
  188.4330  174.1910  136.1070 N   0  0  0  0  0  0  0  0  0  0  0  0
  190.5680  173.2540  136.9650 N   0  0  0  0  0  1  0  0  0  0  0  0
  189.4190  173.1470  136.1280 C   0  0  0  0  0  0  0  0  0  0  0  0
  186.4560  175.2760  135.2410 N   0  0  0  0  0  2  0  0  0  0  0  0
  183.9340  174.3780  134.9710 O   0  0  0  0  0  0  0  0  0  0  0  0
  184.7370  174.9690  137.2880 O   0  0  0  0  0  0  0  0  0  0  0  0
  186.2010  173.1110  135.8750 C   0  0  0  0  0  2  0  0  0  0  0  0
  187.2510  174.0390  135.2500 C   0  0  2  0  0  3  0  0  0  0  0  0
  185.0960  174.4690  135.9180 S   0  0  0  0  0  0  0  0  0  0  0  0
  1  5  1  1  0  0  0
  1  3  1  0  0  0  0
  2  7  1  0  0  0  0
  3  7  1  0  0  0  0
  3 16  2  0  0  0  0
  4 12  1  1  0  0  0
  6 17  2  0  0  0  0
  7  9  2  0  0  0  0
  8  4  1  0  0  0  0
  8 14  1  0  0  0  0
  9 13  1  0  0  0  0
  9  6  1  0  0  0  0
 10 17  1  0  0  0  0
 11  2  2  0  0  0  0
 12 11  1  0  0  0  0
 13 10  1  0  0  0  0
 14 19  1  0  0  0  0
 15  8  1  0  0  0  0
 15 23  1  0  0  0  0
 15  4  1  0  0  0  0
 16 13  1  0  0  0  0
 17 18  1  0  0  0  0
 19 11  1  0  0  0  0
 19  1  1  0  0  0  0
 21 20  1  0  0  0  0
 21 14  1  0  0  0  0
 22 21  2  0  0  0  0
 24 27  2  0  0  0  0
 25 27  1  0  0  0  0
 25 23  1  0  0  0  0
 27 26  1  0  0  0  0
 28 32  1  0  0  0  0
 28 33  1  0  0  0  0
 29 33  2  0  0  0  0
 31 33  1  0  0  0  0
 32 31  1  0  0  0  0
 32 25  1  0  0  0  0
 33 30  2  0  0  0  0
M  END
>  <MODEL>
2

>  <REMARK>
 VINA RESULT:      -7.1      4.884      6.143
  Name = 
  4 active torsions:
  status: ('A' for Active; 'I' for Inactive)
    1  A    between atoms: C_1  and  N_7
    2  A    between atoms: C_1  and  C_25
    3  A    between atoms: N_7  and  C_24
    4  A    between atoms: C_23  and  C_27
                            x       y       z     vdW  Elec       q    Type
                         _______ _______ _______ _____ _____    ______ ____

>  <TORSDO>
F 4

$$$$
=
 OpenBabel11042409523D

 33 38  0  0  1  0  0  0  0  0999 V2000
  188.2840  178.2180  140.3800 C   0  0  2  0  0  3  0  0  0  0  0  0
  190.5300  176.3460  140.6030 N   0  0  0  0  0  0  0  0  0  0  0  0
  188.7150  177.6210  141.6820 C   0  0  0  0  0  0  0  0  0  0  0  0
  190.9320  176.8930  137.0090 N   0  0  1  0  0  0  0  0  0  0  0  0
  186.7670  178.2840  140.3510 C   0  0  0  0  0  1  0  0  0  0  0  0
  191.1400  176.2790  143.8490 C   0  0  0  0  0  3  0  0  0  0  0  0
  189.7480  176.7010  141.7380 C   0  0  0  0  0  0  0  0  0  0  0  0
  189.7910  177.8030  136.7180 C   0  0  2  0  0  3  0  0  0  0  0  0
  190.0710  176.6460  143.0640 C   0  0  0  0  0  0  0  0  0  0  0  0
  189.6780  177.7060  144.9260 N   0  0  0  0  0  2  0  0  0  0  0  0
  190.1570  176.7220  139.4120 C   0  0  0  0  0  0  0  0  0  0  0  0
  190.9330  176.3040  138.2940 N   0  0  0  0  0  2  0  0  0  0  0  0
  189.2560  177.4350  143.7120 N   0  0  0  0  0  0  0  0  0  0  0  0
  188.8920  178.2500  137.9020 C   0  0  2  0  0  3  0  0  0  0  0  0
  189.7660  176.4190  136.2010 C   0  0  2  0  0  3  0  0  0  0  0  0
  188.4460  178.1190  142.9210 N   0  0  0  0  0  0  0  0  0  0  0  0
  190.8050  176.9530  145.0440 C   0  0  0  0  0  0  0  0  0  0  0  0
  191.6420  176.9370  146.2710 C   0  0  0  0  0  1  0  0  0  0  0  0
  188.8230  177.3950  139.1700 C   0  0  2  0  0  3  0  0  0  0  0  0
  186.4680  177.7580  137.4910 O   0  0  0  0  0  1  0  0  0  0  0  0
  187.5410  178.6370  137.3910 C   0  0  0  0  0  0  0  0  0  0  0  0
  187.3780  179.7600  136.8450 O   0  0  0  0  0  0  0  0  0  0  0  0
  188.7940  175.4630  136.9060 C   0  0  0  0  0  2  0  0  0  0  0  0
  187.1120  173.1800  134.5990 O   0  0  0  0  0  0  0  0  0  0  0  0
  188.5480  174.2820  136.0820 N   0  0  0  0  0  0  0  0  0  0  0  0
  186.5100  175.3490  135.1450 N   0  0  0  0  0  1  0  0  0  0  0  0
  187.3790  174.2240  135.2510 C   0  0  0  0  0  0  0  0  0  0  0  0
  190.5340  173.3530  137.0980 N   0  0  0  0  0  2  0  0  0  0  0  0
  192.5730  171.9660  136.0210 O   0  0  0  0  0  0  0  0  0  0  0  0
  192.4710  174.4480  135.5850 O   0  0  0  0  0  0  0  0  0  0  0  0
  190.2720  172.9460  134.8790 C   0  0  0  0  0  2  0  0  0  0  0  0
  189.4320  173.1120  136.1520 C   0  0  2  0  0  3  0  0  0  0  0  0
  191.7080  173.1820  135.8520 S   0  0  0  0  0  0  0  0  0  0  0  0
  1  5  1  1  0  0  0
  1  3  1  0  0  0  0
  2  7  1  0  0  0  0
  3  7  1  0  0  0  0
  3 16  2  0  0  0  0
  4 12  1  1  0  0  0
  6 17  2  0  0  0  0
  7  9  2  0  0  0  0
  8  4  1  0  0  0  0
  8 14  1  0  0  0  0
  9 13  1  0  0  0  0
  9  6  1  0  0  0  0
 10 17  1  0  0  0  0
 11  2  2  0  0  0  0
 12 11  1  0  0  0  0
 13 10  1  0  0  0  0
 14 19  1  0  0  0  0
 15  8  1  0  0  0  0
 15 23  1  0  0  0  0
 15  4  1  0  0  0  0
 16 13  1  0  0  0  0
 17 18  1  0  0  0  0
 19 11  1  0  0  0  0
 19  1  1  0  0  0  0
 21 20  1  0  0  0  0
 21 14  1  0  0  0  0
 22 21  2  0  0  0  0
 24 27  2  0  0  0  0
 25 32  1  0  0  0  0
 25 23  1  0  0  0  0
 26 27  1  0  0  0  0
 27 25  1  0  0  0  0
 30 33  2  0  0  0  0
 31 33  1  0  0  0  0
 31 32  1  0  0  0  0
 32 28  1  0  0  0  0
 33 29  2  0  0  0  0
 33 28  1  0  0  0  0
M  END
>  <MODEL>
3

>  <REMARK>
 VINA RESULT:      -7.1      5.464      7.248
  Name = 
  4 active torsions:
  status: ('A' for Active; 'I' for Inactive)
    1  A    between atoms: C_1  and  N_7
    2  A    between atoms: C_1  and  C_25
    3  A    between atoms: N_7  and  C_24
    4  A    between atoms: C_23  and  C_27
                            x       y       z     vdW  Elec       q    Type
                         _______ _______ _______ _____ _____    ______ ____

>  <TORSDO>
F 4

$$$$
=
 OpenBabel11042409523D

 33 38  0  0  1  0  0  0  0  0999 V2000
  182.9100  179.0420  143.3480 C   0  0  2  0  0  3  0  0  0  0  0  0
  185.1560  177.9670  141.8000 N   0  0  0  0  0  0  0  0  0  0  0  0
  184.1030  178.4060  143.9860 C   0  0  0  0  0  0  0  0  0  0  0  0
  183.3240  179.1970  138.8830 N   0  0  1  0  0  0  0  0  0  0  0  0
  181.6660  178.6280  144.1150 C   0  0  0  0  0  1  0  0  0  0  0  0
  187.5170  177.5620  144.0740 C   0  0  0  0  0  3  0  0  0  0  0  0
  185.1190  177.8640  143.2180 C   0  0  0  0  0  0  0  0  0  0  0  0
  182.0870  179.7350  139.5140 C   0  0  2  0  0  3  0  0  0  0  0  0
  186.1470  177.6960  144.1010 C   0  0  0  0  0  0  0  0  0  0  0  0
  186.7200  178.2560  146.1280 N   0  0  0  0  0  2  0  0  0  0  0  0
  184.1100  178.3960  141.1510 C   0  0  0  0  0  0  0  0  0  0  0  0
  184.1610  178.4360  139.7290 N   0  0  0  0  0  2  0  0  0  0  0  0
  185.7320  178.0690  145.2830 N   0  0  0  0  0  0  0  0  0  0  0  0
  181.9700  179.6730  141.0610 C   0  0  2  0  0  3  0  0  0  0  0  0
  182.0060  178.5190  138.6780 C   0  0  2  0  0  3  0  0  0  0  0  0
  184.5130  178.5820  145.2740 N   0  0  0  0  0  0  0  0  0  0  0  0
  187.8190  177.8890  145.4140 C   0  0  0  0  0  0  0  0  0  0  0  0
  189.1970  177.9360  145.9690 C   0  0  0  0  0  1  0  0  0  0  0  0
  182.7870  178.6430  141.8460 C   0  0  2  0  0  3  0  0  0  0  0  0
  179.8970  180.8880  141.7750 O   0  0  0  0  0  1  0  0  0  0  0  0
  180.5280  179.6910  141.4580 C   0  0  0  0  0  0  0  0  0  0  0  0
  179.8870  178.6100  141.5280 O   0  0  0  0  0  0  0  0  0  0  0  0
  181.7950  177.2020  139.4380 C   0  0  0  0  0  2  0  0  0  0  0  0
  179.2500  175.2160  137.7210 O   0  0  0  0  0  0  0  0  0  0  0  0
  181.2030  176.1940  138.5610 N   0  0  0  0  0  0  0  0  0  0  0  0
  178.9400  177.1070  139.0230 N   0  0  0  0  0  1  0  0  0  0  0  0
  179.7770  176.1310  138.4080 C   0  0  0  0  0  0  0  0  0  0  0  0
  183.4300  175.2780  138.3620 N   0  0  0  0  0  2  0  0  0  0  0  0
  184.8460  174.5570  136.1900 O   0  0  0  0  0  0  0  0  0  0  0  0
  184.5750  177.0200  136.6610 O   0  0  0  0  0  0  0  0  0  0  0  0
  182.2800  175.5170  136.4190 C   0  0  0  0  0  2  0  0  0  0  0  0
  182.0370  175.1850  137.8970 C   0  0  2  0  0  3  0  0  0  0  0  0
  183.9890  175.6420  136.7760 S   0  0  0  0  0  0  0  0  0  0  0  0
  1  3  1  0  0  0  0
  1  5  1  1  0  0  0
  2  7  1  0  0  0  0
  3 16  2  0  0  0  0
  4  8  1  0  0  0  0
  4 12  1  1  0  0  0
  6  9  1  0  0  0  0
  6 17  2  0  0  0  0
  7  3  1  0  0  0  0
  7  9  2  0  0  0  0
  8 14  1  0  0  0  0
  9 13  1  0  0  0  0
 11  2  2  0  0  0  0
 11 19  1  0  0  0  0
 12 11  1  0  0  0  0
 13 10  1  0  0  0  0
 14 21  1  0  0  0  0
 14 19  1  0  0  0  0
 15  4  1  0  0  0  0
 15 23  1  0  0  0  0
 15  8  1  0  0  0  0
 16 13  1  0  0  0  0
 17 18  1  0  0  0  0
 17 10  1  0  0  0  0
 19  1  1  0  0  0  0
 21 22  2  0  0  0  0
 21 20  1  0  0  0  0
 24 27  2  0  0  0  0
 25 23  1  0  0  0  0
 27 25  1  0  0  0  0
 27 26  1  0  0  0  0
 29 33  2  0  0  0  0
 30 33  2  0  0  0  0
 31 33  1  0  0  0  0
 31 32  1  0  0  0  0
 32 28  1  0  0  0  0
 32 25  1  0  0  0  0
 33 28  1  0  0  0  0
M  END
>  <MODEL>
4

>  <REMARK>
 VINA RESULT:      -7.0      1.571      2.742
  Name = 
  4 active torsions:
  status: ('A' for Active; 'I' for Inactive)
    1  A    between atoms: C_1  and  N_7
    2  A    between atoms: C_1  and  C_25
    3  A    between atoms: N_7  and  C_24
    4  A    between atoms: C_23  and  C_27
                            x       y       z     vdW  Elec       q    Type
                         _______ _______ _______ _____ _____    ______ ____

>  <TORSDO>
F 4

$$$$
=
 OpenBabel11042409523D

 33 38  0  0  1  0  0  0  0  0999 V2000
  187.9350  177.9150  142.4580 C   0  0  2  0  0  3  0  0  0  0  0  0
  190.6180  176.7740  142.1460 N   0  0  0  0  0  0  0  0  0  0  0  0
  188.6590  177.2300  143.5730 C   0  0  0  0  0  0  0  0  0  0  0  0
  190.4420  178.0980  138.7410 N   0  0  1  0  0  0  0  0  0  0  0  0
  186.4650  177.5390  142.5250 C   0  0  0  0  0  1  0  0  0  0  0  0
  191.5900  176.2630  145.2610 C   0  0  0  0  0  3  0  0  0  0  0  0
  189.9040  176.6590  143.3710 C   0  0  0  0  0  0  0  0  0  0  0  0
  189.0690  178.6740  138.7170 C   0  0  2  0  0  3  0  0  0  0  0  0
  190.3790  176.4460  144.6340 C   0  0  0  0  0  0  0  0  0  0  0  0
  189.9250  176.9640  146.7010 N   0  0  0  0  0  2  0  0  0  0  0  0
  190.0230  177.2470  141.0870 C   0  0  0  0  0  0  0  0  0  0  0  0
  190.7510  177.2990  139.8650 N   0  0  0  0  0  2  0  0  0  0  0  0
  189.4590  176.8210  145.4820 N   0  0  0  0  0  0  0  0  0  0  0  0
  188.2230  178.6010  140.0170 C   0  0  2  0  0  3  0  0  0  0  0  0
  189.3660  177.4700  137.9130 C   0  0  2  0  0  3  0  0  0  0  0  0
  188.4070  177.3780  144.9040 N   0  0  0  0  0  0  0  0  0  0  0  0
  191.2210  176.5650  146.5910 C   0  0  0  0  0  0  0  0  0  0  0  0
  192.1660  176.5570  147.7380 C   0  0  0  0  0  1  0  0  0  0  0  0
  188.5370  177.5350  141.0700 C   0  0  2  0  0  3  0  0  0  0  0  0
  185.8960  179.4280  140.4460 O   0  0  0  0  0  1  0  0  0  0  0  0
  186.7690  178.6670  139.6770 C   0  0  0  0  0  0  0  0  0  0  0  0
  186.3260  178.0110  138.6980 O   0  0  0  0  0  0  0  0  0  0  0  0
  188.7810  176.1540  138.4450 C   0  0  0  0  0  2  0  0  0  0  0  0
  187.3930  174.0820  135.7720 O   0  0  0  0  0  0  0  0  0  0  0  0
  188.7110  175.1570  137.3790 N   0  0  0  0  0  0  0  0  0  0  0  0
  186.3870  175.8630  136.8590 N   0  0  0  0  0  1  0  0  0  0  0  0
  187.4930  174.9930  136.6360 C   0  0  0  0  0  0  0  0  0  0  0  0
  190.9490  174.5280  138.0350 N   0  0  0  0  0  2  0  0  0  0  0  0
  193.1250  173.9760  136.5510 O   0  0  0  0  0  0  0  0  0  0  0  0
  192.4210  176.3890  136.7670 O   0  0  0  0  0  0  0  0  0  0  0  0
  190.5570  174.6070  135.8010 C   0  0  0  0  0  2  0  0  0  0  0  0
  189.8380  174.2570  137.1100 C   0  0  2  0  0  3  0  0  0  0  0  0
  191.9960  174.9490  136.7370 S   0  0  0  0  0  0  0  0  0  0  0  0
  1  5  1  6  0  0  0
  1  3  1  0  0  0  0
  2  7  1  0  0  0  0
  3 16  2  0  0  0  0
  4 12  1  1  0  0  0
  6 17  2  0  0  0  0
  7  3  1  0  0  0  0
  7  9  2  0  0  0  0
  8  4  1  0  0  0  0
  8 14  1  0  0  0  0
  9  6  1  0  0  0  0
  9 13  1  0  0  0  0
 11  2  2  0  0  0  0
 12 11  1  0  0  0  0
 13 10  1  0  0  0  0
 14 19  1  0  0  0  0
 15 23  1  0  0  0  0
 15  8  1  0  0  0  0
 15  4  1  0  0  0  0
 16 13  1  0  0  0  0
 17 10  1  0  0  0  0
 17 18  1  0  0  0  0
 19 11  1  0  0  0  0
 19  1  1  0  0  0  0
 21 14  1  0  0  0  0
 21 20  1  0  0  0  0
 22 21  2  0  0  0  0
 24 27  2  0  0  0  0
 25 23  1  0  0  0  0
 27 26  1  0  0  0  0
 27 25  1  0  0  0  0
 29 33  2  0  0  0  0
 31 33  1  0  0  0  0
 31 32  1  0  0  0  0
 32 25  1  0  0  0  0
 32 28  1  0  0  0  0
 33 30  2  0  0  0  0
 33 28  1  0  0  0  0
M  END
>  <MODEL>
5

>  <REMARK>
 VINA RESULT:      -6.7      5.193      6.791
  Name = 
  4 active torsions:
  status: ('A' for Active; 'I' for Inactive)
    1  A    between atoms: C_1  and  N_7
    2  A    between atoms: C_1  and  C_25
    3  A    between atoms: N_7  and  C_24
    4  A    between atoms: C_23  and  C_27
                            x       y       z     vdW  Elec       q    Type
                         _______ _______ _______ _____ _____    ______ ____

>  <TORSDO>
F 4

$$$$
=
 OpenBabel11042409523D

 33 38  0  0  1  0  0  0  0  0999 V2000
  187.3680  178.4050  140.6490 C   0  0  2  0  0  3  0  0  0  0  0  0
  189.6080  176.7220  141.5130 N   0  0  0  0  0  0  0  0  0  0  0  0
  187.4860  177.8640  142.0380 C   0  0  0  0  0  0  0  0  0  0  0  0
  190.8940  177.2440  138.1290 N   0  0  1  0  0  0  0  0  0  0  0  0
  185.9110  178.3480  140.2250 C   0  0  0  0  0  1  0  0  0  0  0  0
  189.3520  176.7530  144.8060 C   0  0  0  0  0  3  0  0  0  0  0  0
  188.5330  177.0300  142.3930 C   0  0  0  0  0  0  0  0  0  0  0  0
  189.8060  178.0560  137.5200 C   0  0  2  0  0  3  0  0  0  0  0  0
  188.5010  177.0210  143.7580 C   0  0  0  0  0  0  0  0  0  0  0  0
  187.5580  178.0750  145.4150 N   0  0  0  0  0  2  0  0  0  0  0  0
  189.5330  177.0480  140.2540 C   0  0  0  0  0  0  0  0  0  0  0  0
  190.6020  176.6770  139.3900 N   0  0  0  0  0  2  0  0  0  0  0  0
  187.4900  177.7520  144.1450 N   0  0  0  0  0  0  0  0  0  0  0  0
  188.5980  178.4470  138.4140 C   0  0  2  0  0  3  0  0  0  0  0  0
  190.0180  176.6660  137.0630 C   0  0  2  0  0  3  0  0  0  0  0  0
  186.8670  178.3580  143.1470 N   0  0  0  0  0  0  0  0  0  0  0  0
  188.6680  177.4170  145.8480 C   0  0  0  0  0  0  0  0  0  0  0  0
  189.1540  177.4860  147.2510 C   0  0  0  0  0  1  0  0  0  0  0  0
  188.2630  177.6090  139.6500 C   0  0  2  0  0  3  0  0  0  0  0  0
  186.3410  177.8200  137.5210 O   0  0  0  0  0  1  0  0  0  0  0  0
  187.4030  178.7170  137.5560 C   0  0  0  0  0  0  0  0  0  0  0  0
  187.3670  179.7540  136.8430 O   0  0  0  0  0  0  0  0  0  0  0  0
  188.9680  175.6460  137.5260 C   0  0  0  0  0  2  0  0  0  0  0  0
  190.1350  172.6170  135.8450 O   0  0  0  0  0  0  0  0  0  0  0  0
  188.9660  174.4780  136.6480 N   0  0  0  0  0  0  0  0  0  0  0  0
  191.1520  173.7600  137.5840 N   0  0  0  0  0  1  0  0  0  0  0  0
  190.0860  173.5800  136.6550 C   0  0  0  0  0  0  0  0  0  0  0  0
  186.9370  175.3840  135.7000 N   0  0  0  0  0  2  0  0  0  0  0  0
  184.5710  174.2160  135.1720 O   0  0  0  0  0  0  0  0  0  0  0  0
  185.1280  174.7230  137.5790 O   0  0  0  0  0  0  0  0  0  0  0  0
  186.9070  173.1630  136.1690 C   0  0  0  0  0  2  0  0  0  0  0  0
  187.8760  174.2520  135.6920 C   0  0  2  0  0  3  0  0  0  0  0  0
  185.6430  174.3730  136.2120 S   0  0  0  0  0  0  0  0  0  0  0  0
  1  5  1  6  0  0  0
  1  3  1  0  0  0  0
  2  7  1  0  0  0  0
  3  7  1  0  0  0  0
  3 16  2  0  0  0  0
  4 12  1  1  0  0  0
  6 17  2  0  0  0  0
  7  9  2  0  0  0  0
  8  4  1  0  0  0  0
  8 14  1  0  0  0  0
  9 13  1  0  0  0  0
  9  6  1  0  0  0  0
 10 17  1  0  0  0  0
 11  2  2  0  0  0  0
 12 11  1  0  0  0  0
 13 10  1  0  0  0  0
 14 19  1  0  0  0  0
 15  8  1  0  0  0  0
 15 23  1  0  0  0  0
 15  4  1  0  0  0  0
 16 13  1  0  0  0  0
 17 18  1  0  0  0  0
 19 11  1  0  0  0  0
 19  1  1  0  0  0  0
 20 21  1  0  0  0  0
 21 14  1  0  0  0  0
 22 21  2  0  0  0  0
 24 27  2  0  0  0  0
 25 27  1  0  0  0  0
 25 23  1  0  0  0  0
 27 26  1  0  0  0  0
 28 33  1  0  0  0  0
 29 33  2  0  0  0  0
 31 33  1  0  0  0  0
 32 28  1  0  0  0  0
 32 31  1  0  0  0  0
 32 25  1  0  0  0  0
 33 30  2  0  0  0  0
M  END
>  <MODEL>
6

>  <REMARK>
 VINA RESULT:      -6.7      4.314      5.651
  Name = 
  4 active torsions:
  status: ('A' for Active; 'I' for Inactive)
    1  A    between atoms: C_1  and  N_7
    2  A    between atoms: C_1  and  C_25
    3  A    between atoms: N_7  and  C_24
    4  A    between atoms: C_23  and  C_27
                            x       y       z     vdW  Elec       q    Type
                         _______ _______ _______ _____ _____    ______ ____

>  <TORSDO>
F 4

$$$$
=
 OpenBabel11042409523D

 33 38  0  0  1  0  0  0  0  0999 V2000
  187.7810  177.9350  142.3570 C   0  0  2  0  0  3  0  0  0  0  0  0
  190.4820  176.8320  142.0550 N   0  0  0  0  0  0  0  0  0  0  0  0
  188.5130  177.2660  143.4760 C   0  0  0  0  0  0  0  0  0  0  0  0
  190.2930  178.1370  138.6440 N   0  0  1  0  0  0  0  0  0  0  0  0
  186.3170  177.5380  142.4220 C   0  0  0  0  0  1  0  0  0  0  0  0
  191.4540  176.3490  145.1750 C   0  0  0  0  0  3  0  0  0  0  0  0
  189.7660  176.7120  143.2800 C   0  0  0  0  0  0  0  0  0  0  0  0
  188.9130  178.6930  138.6140 C   0  0  2  0  0  3  0  0  0  0  0  0
  190.2410  176.5120  144.5440 C   0  0  0  0  0  0  0  0  0  0  0  0
  189.7760  177.0340  146.6080 N   0  0  0  0  0  2  0  0  0  0  0  0
  189.8820  177.2910  140.9930 C   0  0  0  0  0  0  0  0  0  0  0  0
  190.6110  177.3470  139.7720 N   0  0  0  0  0  2  0  0  0  0  0  0
  189.3140  176.8780  145.3890 N   0  0  0  0  0  0  0  0  0  0  0  0
  188.0650  178.6140  139.9130 C   0  0  2  0  0  3  0  0  0  0  0  0
  189.2280  177.4890  137.8170 C   0  0  2  0  0  3  0  0  0  0  0  0
  188.2560  177.4180  144.8060 N   0  0  0  0  0  0  0  0  0  0  0  0
  191.0780  176.6530  146.5020 C   0  0  0  0  0  0  0  0  0  0  0  0
  192.0200  176.6640  147.6520 C   0  0  0  0  0  1  0  0  0  0  0  0
  188.3920  177.5580  140.9720 C   0  0  2  0  0  3  0  0  0  0  0  0
  185.7320  179.4400  140.3100 O   0  0  0  0  0  1  0  0  0  0  0  0
  186.6110  178.6570  139.5690 C   0  0  0  0  0  0  0  0  0  0  0  0
  186.1740  177.9620  138.6150 O   0  0  0  0  0  0  0  0  0  0  0  0
  188.6610  176.1670  138.3540 C   0  0  0  0  0  2  0  0  0  0  0  0
  190.0700  173.5310  136.2500 O   0  0  0  0  0  0  0  0  0  0  0  0
  188.7430  175.1240  137.3350 N   0  0  0  0  0  0  0  0  0  0  0  0
  191.0490  174.5710  138.0730 N   0  0  0  0  0  1  0  0  0  0  0  0
  189.9580  174.3750  137.1770 C   0  0  0  0  0  0  0  0  0  0  0  0
  186.3460  175.2190  137.0400 N   0  0  0  0  0  2  0  0  0  0  0  0
  184.6410  173.4570  135.9300 O   0  0  0  0  0  0  0  0  0  0  0  0
  185.5720  172.9250  138.2140 O   0  0  0  0  0  0  0  0  0  0  0  0
  187.3780  173.3860  136.1850 C   0  0  0  0  0  2  0  0  0  0  0  0
  187.6310  174.8830  136.4070 C   0  0  2  0  0  3  0  0  0  0  0  0
  185.7890  173.5980  136.8890 S   0  0  0  0  0  0  0  0  0  0  0  0
  1  5  1  6  0  0  0
  1  3  1  0  0  0  0
  2  7  1  0  0  0  0
  3 16  2  0  0  0  0
  4 12  1  1  0  0  0
  6 17  2  0  0  0  0
  7  3  1  0  0  0  0
  7  9  2  0  0  0  0
  8  4  1  0  0  0  0
  8 14  1  0  0  0  0
  9  6  1  0  0  0  0
  9 13  1  0  0  0  0
 11  2  2  0  0  0  0
 12 11  1  0  0  0  0
 13 10  1  0  0  0  0
 14 19  1  0  0  0  0
 15 23  1  0  0  0  0
 15  8  1  0  0  0  0
 15  4  1  0  0  0  0
 16 13  1  0  0  0  0
 17 10  1  0  0  0  0
 17 18  1  0  0  0  0
 19 11  1  0  0  0  0
 19  1  1  0  0  0  0
 21 14  1  0  0  0  0
 21 20  1  0  0  0  0
 22 21  2  0  0  0  0
 24 27  2  0  0  0  0
 25 23  1  0  0  0  0
 27 25  1  0  0  0  0
 27 26  1  0  0  0  0
 29 33  2  0  0  0  0
 31 32  1  0  0  0  0
 31 33  1  0  0  0  0
 32 28  1  0  0  0  0
 32 25  1  0  0  0  0
 33 28  1  0  0  0  0
 33 30  2  0  0  0  0
M  END
>  <MODEL>
7

>  <REMARK>
 VINA RESULT:      -6.6      4.433      5.576
  Name = 
  4 active torsions:
  status: ('A' for Active; 'I' for Inactive)
    1  A    between atoms: C_1  and  N_7
    2  A    between atoms: C_1  and  C_25
    3  A    between atoms: N_7  and  C_24
    4  A    between atoms: C_23  and  C_27
                            x       y       z     vdW  Elec       q    Type
                         _______ _______ _______ _____ _____    ______ ____

>  <TORSDO>
F 4

$$$$
=
 OpenBabel11042409523D

 33 38  0  0  1  0  0  0  0  0999 V2000
  183.5960  176.2090  137.7370 C   0  0  2  0  0  3  0  0  0  0  0  0
  184.3590  178.5010  139.4000 N   0  0  0  0  0  0  0  0  0  0  0  0
  182.8350  176.6130  138.9590 C   0  0  0  0  0  0  0  0  0  0  0  0
  187.0090  179.0080  136.9300 N   0  0  1  0  0  0  0  0  0  0  0  0
  183.6530  174.6920  137.6750 C   0  0  0  0  0  1  0  0  0  0  0  0
  181.6840  179.0010  141.2710 C   0  0  0  0  0  3  0  0  0  0  0  0
  183.2570  177.6700  139.7460 C   0  0  0  0  0  0  0  0  0  0  0  0
  186.7920  177.8510  136.0200 C   0  0  2  0  0  3  0  0  0  0  0  0
  182.1760  177.9490  140.5330 C   0  0  0  0  0  0  0  0  0  0  0  0
  180.0590  177.4610  140.7010 N   0  0  0  0  0  2  0  0  0  0  0  0
  185.1510  178.1570  138.4230 C   0  0  0  0  0  0  0  0  0  0  0  0
  186.2750  178.9830  138.1380 N   0  0  0  0  0  2  0  0  0  0  0  0
  181.2340  177.0900  140.2480 N   0  0  0  0  0  0  0  0  0  0  0  0
  185.6020  176.8990  136.3180 C   0  0  2  0  0  3  0  0  0  0  0  0
  187.9950  177.8850  136.8760 C   0  0  2  0  0  3  0  0  0  0  0  0
  181.5420  176.2870  139.2420 N   0  0  0  0  0  0  0  0  0  0  0  0
  180.3330  178.6060  141.3840 C   0  0  0  0  0  0  0  0  0  0  0  0
  179.2880  179.4010  142.0810 C   0  0  0  0  0  1  0  0  0  0  0  0
  185.0340  176.8120  137.7370 C   0  0  2  0  0  3  0  0  0  0  0  0
  186.6690  174.6310  136.3820 O   0  0  0  0  0  1  0  0  0  0  0  0
  185.8690  175.5550  135.7190 C   0  0  0  0  0  0  0  0  0  0  0  0
  185.3840  175.2660  134.5940 O   0  0  0  0  0  0  0  0  0  0  0  0
  187.9900  176.9180  138.0690 C   0  0  0  0  0  2  0  0  0  0  0  0
  191.3150  175.5490  138.7300 O   0  0  0  0  0  0  0  0  0  0  0  0
  189.3340  176.7900  138.6300 N   0  0  0  0  0  0  0  0  0  0  0  0
  189.7750  174.8440  137.1490 N   0  0  0  0  0  1  0  0  0  0  0  0
  190.1870  175.7200  138.1960 C   0  0  0  0  0  0  0  0  0  0  0  0
  190.4050  176.9140  140.7920 N   0  0  0  0  0  2  0  0  0  0  0  0
  189.8000  178.3740  142.9700 O   0  0  0  0  0  0  0  0  0  0  0  0
  188.3460  176.3820  142.4400 O   0  0  0  0  0  0  0  0  0  0  0  0
  188.6320  178.2990  140.4830 C   0  0  0  0  0  2  0  0  0  0  0  0
  189.7980  177.6860  139.6960 C   0  0  2  0  0  3  0  0  0  0  0  0
  189.2260  177.4780  141.9100 S   0  0  0  0  0  0  0  0  0  0  0  0
  1  5  1  1  0  0  0
  1  3  1  0  0  0  0
  2  7  1  0  0  0  0
  3 16  2  0  0  0  0
  3  7  1  0  0  0  0
  4 12  1  1  0  0  0
  6 17  2  0  0  0  0
  7  9  2  0  0  0  0
  8 14  1  0  0  0  0
  8 15  1  0  0  0  0
  8  4  1  0  0  0  0
  9  6  1  0  0  0  0
 10 17  1  0  0  0  0
 11  2  2  0  0  0  0
 12 11  1  0  0  0  0
 13  9  1  0  0  0  0
 13 10  1  0  0  0  0
 14 19  1  0  0  0  0
 15  4  1  0  0  0  0
 15 23  1  0  0  0  0
 16 13  1  0  0  0  0
 17 18  1  0  0  0  0
 19  1  1  0  0  0  0
 19 11  1  0  0  0  0
 21 14  1  0  0  0  0
 21 20  1  0  0  0  0
 22 21  2  0  0  0  0
 23 25  1  0  0  0  0
 25 32  1  0  0  0  0
 26 27  1  0  0  0  0
 27 25  1  0  0  0  0
 27 24  2  0  0  0  0
 28 33  1  0  0  0  0
 31 33  1  0  0  0  0
 32 31  1  0  0  0  0
 32 28  1  0  0  0  0
 33 30  2  0  0  0  0
 33 29  2  0  0  0  0
M  END
>  <MODEL>
8

>  <REMARK>
 VINA RESULT:      -6.6      4.716      7.002
  Name = 
  4 active torsions:
  status: ('A' for Active; 'I' for Inactive)
    1  A    between atoms: C_1  and  N_7
    2  A    between atoms: C_1  and  C_25
    3  A    between atoms: N_7  and  C_24
    4  A    between atoms: C_23  and  C_27
                            x       y       z     vdW  Elec       q    Type
                         _______ _______ _______ _____ _____    ______ ____

>  <TORSDO>
F 4

$$$$
=
 OpenBabel11042409523D

 33 38  0  0  1  0  0  0  0  0999 V2000
  186.0110  175.0430  136.5640 C   0  0  2  0  0  3  0  0  0  0  0  0
  184.7440  177.2900  137.9590 N   0  0  0  0  0  0  0  0  0  0  0  0
  184.6100  174.9880  137.0830 C   0  0  0  0  0  0  0  0  0  0  0  0
  187.8740  179.0590  137.2910 N   0  0  1  0  0  0  0  0  0  0  0  0
  186.6730  173.6960  136.7990 C   0  0  0  0  0  1  0  0  0  0  0  0
  181.5420  176.4760  137.9510 C   0  0  0  0  0  3  0  0  0  0  0  0
  184.0650  176.0520  137.7820 C   0  0  0  0  0  0  0  0  0  0  0  0
  188.6770  178.0000  136.6200 C   0  0  2  0  0  3  0  0  0  0  0  0
  182.7250  175.7900  137.7910 C   0  0  0  0  0  0  0  0  0  0  0  0
  181.2740  174.4600  136.8560 N   0  0  0  0  0  2  0  0  0  0  0  0
  186.0060  177.3900  137.6470 C   0  0  0  0  0  0  0  0  0  0  0  0
  186.6680  178.6270  137.8870 N   0  0  0  0  0  2  0  0  0  0  0  0
  182.5310  174.6470  137.1880 N   0  0  0  0  0  0  0  0  0  0  0  0
  188.0080  176.6200  136.3770 C   0  0  2  0  0  3  0  0  0  0  0  0
  189.0590  178.4520  137.9750 C   0  0  2  0  0  3  0  0  0  0  0  0
  183.6330  174.1350  136.6660 N   0  0  0  0  0  0  0  0  0  0  0  0
  180.6460  175.5500  137.3730 C   0  0  0  0  0  0  0  0  0  0  0  0
  179.1830  175.7800  137.2420 C   0  0  0  0  0  1  0  0  0  0  0  0
  186.8270  176.1830  137.2470 C   0  0  2  0  0  3  0  0  0  0  0  0
  189.5520  174.9240  137.3890 O   0  0  0  0  0  1  0  0  0  0  0  0
  189.0600  175.5640  136.2570 C   0  0  0  0  0  0  0  0  0  0  0  0
  189.5210  175.2680  135.1240 O   0  0  0  0  0  0  0  0  0  0  0  0
  188.7560  177.4690  139.1140 C   0  0  0  0  0  2  0  0  0  0  0  0
  191.6980  177.5030  141.2840 O   0  0  0  0  0  0  0  0  0  0  0  0
  189.6020  177.7490  140.2720 N   0  0  0  0  0  0  0  0  0  0  0  0
  191.5530  176.7580  139.0950 N   0  0  0  0  0  1  0  0  0  0  0  0
  190.9790  177.3410  140.2630 C   0  0  0  0  0  0  0  0  0  0  0  0
  189.6130  177.7360  142.6870 N   0  0  0  0  0  2  0  0  0  0  0  0
  187.5880  177.8770  144.4540 O   0  0  0  0  0  0  0  0  0  0  0  0
  187.9310  175.7050  143.2190 O   0  0  0  0  0  0  0  0  0  0  0  0
  187.5800  177.9810  141.7070 C   0  0  0  0  0  2  0  0  0  0  0  0
  189.0490  178.3650  141.4830 C   0  0  2  0  0  3  0  0  0  0  0  0
  188.0600  177.2010  143.1990 S   0  0  0  0  0  0  0  0  0  0  0  0
  1  5  1  1  0  0  0
  1  3  1  0  0  0  0
  1 19  1  0  0  0  0
  3  7  1  0  0  0  0
  4 12  1  1  0  0  0
  4 15  1  0  0  0  0
  7  9  2  0  0  0  0
  7  2  1  0  0  0  0
  8  4  1  0  0  0  0
  8 15  1  0  0  0  0
  9  6  1  0  0  0  0
 10 13  1  0  0  0  0
 10 17  1  0  0  0  0
 11 12  1  0  0  0  0
 11  2  2  0  0  0  0
 13  9  1  0  0  0  0
 14  8  1  0  0  0  0
 14 19  1  0  0  0  0
 15 23  1  0  0  0  0
 16  3  2  0  0  0  0
 16 13  1  0  0  0  0
 17  6  2  0  0  0  0
 18 17  1  0  0  0  0
 19 11  1  0  0  0  0
 21 14  1  0  0  0  0
 21 20  1  0  0  0  0
 22 21  2  0  0  0  0
 23 25  1  0  0  0  0
 25 32  1  0  0  0  0
 26 27  1  0  0  0  0
 27 25  1  0  0  0  0
 27 24  2  0  0  0  0
 28 33  1  0  0  0  0
 31 33  1  0  0  0  0
 32 31  1  0  0  0  0
 32 28  1  0  0  0  0
 33 30  2  0  0  0  0
 33 29  2  0  0  0  0
M  END
>  <MODEL>
9

>  <REMARK>
 VINA RESULT:      -6.5      5.166      8.505
  Name = 
  4 active torsions:
  status: ('A' for Active; 'I' for Inactive)
    1  A    between atoms: C_1  and  N_7
    2  A    between atoms: C_1  and  C_25
    3  A    between atoms: N_7  and  C_24
    4  A    between atoms: C_23  and  C_27
                            x       y       z     vdW  Elec       q    Type
                         _______ _______ _______ _____ _____    ______ ____

>  <TORSDO>
F 4

$$$$
