=
 OpenBabel11042412563D

 43 52  0  0  1  0  0  0  0  0999 V2000
  188.9700  176.9610  137.8990 C   0  0  0  0  0  0  0  0  0  0  0  0
  189.3440  177.4490  140.6170 C   0  0  0  0  0  0  0  0  0  0  0  0
  190.2020  176.6540  139.9190 N   0  0  0  0  0  0  0  0  0  0  0  0
  188.7720  176.7290  136.5330 C   0  0  0  0  0  3  0  0  0  0  0  0
  188.2360  178.0260  139.9720 C   0  0  0  0  0  0  0  0  0  0  0  0
  187.6770  177.2900  135.8800 C   0  0  0  0  0  3  0  0  0  0  0  0
  186.9850  178.3020  137.9280 N   0  0  0  0  0  0  0  0  0  0  0  0
  186.7830  178.0790  136.6040 C   0  0  0  0  0  3  0  0  0  0  0  0
  188.0520  177.7810  138.5950 C   0  0  0  0  0  0  0  0  0  0  0  0
  190.0480  176.3860  138.5960 C   0  0  0  0  0  0  0  0  0  0  0  0
  190.4370  176.5170  142.6620 C   0  0  2  0  0  3  0  0  0  0  0  0
  188.9150  176.5330  142.8720 C   0  0  1  0  0  3  0  0  0  0  0  0
  191.0890  176.6210  145.1020 C   0  0  0  0  0  2  0  0  0  0  0  0
  189.0260  178.1110  144.9660 C   0  0  0  0  0  2  0  0  0  0  0  0
  190.1740  177.5930  145.8450 C   0  0  1  0  0  3  0  0  0  0  0  0
  188.3190  176.9810  144.2250 C   0  0  0  0  0  2  0  0  0  0  0  0
  191.3730  177.1330  143.7000 C   0  0  0  0  0  2  0  0  0  0  0  0
  189.5820  177.6470  142.0860 C   0  0  2  0  0  3  0  0  0  0  0  0
  189.3710  177.9770  148.1260 N   0  0  1  0  0  0  0  0  0  0  0  0
  188.2750  177.3210  147.3750 C   0  0  2  0  0  3  0  0  0  0  0  0
  188.1290  177.5650  148.8070 C   0  0  0  0  0  2  0  0  0  0  0  0
  189.6610  176.9370  147.1200 C   0  0  1  0  0  3  0  0  0  0  0  0
  191.0670  175.5260  137.8960 C   0  0  0  0  0  3  0  0  0  0  0  0
  192.4500  175.8190  138.4460 C   0  0  0  0  0  2  0  0  0  0  0  0
  192.0470  176.3750  137.1020 C   0  0  0  0  0  2  0  0  0  0  0  0
  187.3530  178.8120  140.7280 O   0  0  0  0  0  0  0  0  0  0  0  0
  185.8550  179.2810  142.5420 C   0  0  0  0  0  2  0  0  0  0  0  0
  185.0550  179.1520  141.2650 C   0  0  1  0  0  3  0  0  0  0  0  0
  186.2750  178.2830  141.4850 C   0  0  1  0  0  3  0  0  0  0  0  0
  183.8110  178.3170  141.5020 C   0  0  0  0  0  2  0  0  0  0  0  0
  179.7500  177.7580  138.6570 C   0  0  0  0  0  0  0  0  0  0  0  0
  180.1600  178.8570  136.4310 C   0  0  0  0  0  2  0  0  0  0  0  0
  181.5410  177.9280  140.3830 N   0  0  0  0  0  0  0  0  0  0  0  0
  181.9300  178.7940  138.1630 C   0  0  2  0  0  3  0  0  0  0  0  0
  178.9360  176.9500  139.5010 N   0  0  0  0  0  1  0  0  0  0  0  0
  179.3690  177.9820  137.3890 C   0  0  0  0  0  3  0  0  0  0  0  0
  183.3000  179.5300  139.0410 S   0  0  0  0  0  0  0  0  0  0  0  0
  182.9950  178.1690  140.2150 C   0  0  1  0  0  3  0  0  0  0  0  0
  181.2880  179.6620  137.1010 C   0  0  0  0  0  2  0  0  0  0  0  0
  180.8990  178.5410  139.2260 C   0  0  1  0  0  3  0  0  0  0  0  0
  181.0140  178.6510  141.5420 C   0  0  0  0  0  2  0  0  0  0  0  0
  180.4380  179.8480  141.1160 O   0  0  0  0  0  0  0  0  0  0  0  0
  179.7230  180.3020  142.2230 C   0  0  0  0  0  1  0  0  0  0  0  0
  1  9  1  0  0  0  0
  1 10  2  0  0  0  0
  3  2  2  0  0  0  0
  4  1  1  0  0  0  0
  5  2  1  0  0  0  0
  5 26  1  0  0  0  0
  6  4  2  0  0  0  0
  6  8  1  0  0  0  0
  7  9  1  0  0  0  0
  8  7  2  0  0  0  0
  9  5  2  0  0  0  0
 10  3  1  0  0  0  0
 11 12  1  0  0  0  0
 11 17  1  1  0  0  0
 12 16  1  1  0  0  0
 13 15  1  0  0  0  0
 15 14  1  6  0  0  0
 16 14  1  0  0  0  0
 17 13  1  0  0  0  0
 18  2  1  6  0  0  0
 18 11  1  0  0  0  0
 18 12  1  0  0  0  0
 19 21  1  1  0  0  0
 20 19  1  0  0  0  0
 20 21  1  1  0  0  0
 22 15  1  6  0  0  0
 22 20  1  0  0  0  0
 22 19  1  0  0  0  0
 23 24  1  0  0  0  0
 23 10  1  0  0  0  0
 25 23  1  0  0  0  0
 25 24  1  0  0  0  0
 28 29  1  0  0  0  0
 28 30  1  1  0  0  0
 28 27  1  0  0  0  0
 29 26  1  6  0  0  0
 29 27  1  0  0  0  0
 31 35  1  0  0  0  0
 32 39  1  0  0  0  0
 32 36  1  0  0  0  0
 33 41  1  0  0  0  0
 34 39  1  6  0  0  0
 34 37  1  0  0  0  0
 34 40  1  0  0  0  0
 36 31  2  0  0  0  0
 37 38  1  0  0  0  0
 38 33  1  0  0  0  0
 38 30  1  1  0  0  0
 40 31  1  6  0  0  0
 40 33  1  0  0  0  0
 42 41  1  0  0  0  0
 42 43  1  0  0  0  0
M  END
>  <MODEL>
1

>  <REMARK>
 VINA RESULT:      -9.3      0.000      0.000
  Name = 
  9 active torsions:
  status: ('A' for Active; 'I' for Inactive)
    1  A    between atoms: C_3  and  C_43
    2  A    between atoms: O_4  and  C_11
    3  A    between atoms: O_4  and  C_19
    4  A    between atoms: C_6  and  C_32
    5  A    between atoms: C_12  and  C_16
    6  A    between atoms: C_16  and  C_36
    7  A    between atoms: N_17  and  C_38
    8  A    between atoms: C_29  and  C_30
    9  A    between atoms: O_34  and  C_38
                            x       y       z     vdW  Elec       q    Type
                         _______ _______ _______ _____ _____    ______ ____

>  <TORSDO>
F 9

$$$$
=
 OpenBabel11042412563D

 43 52  0  0  1  0  0  0  0  0999 V2000
  189.4220  177.0370  137.8040 C   0  0  0  0  0  0  0  0  0  0  0  0
  189.5850  177.5140  140.5450 C   0  0  0  0  0  0  0  0  0  0  0  0
  190.5150  176.7510  139.9060 N   0  0  0  0  0  0  0  0  0  0  0  0
  189.3300  176.8100  136.4260 C   0  0  0  0  0  3  0  0  0  0  0  0
  188.5090  178.0630  139.8250 C   0  0  0  0  0  0  0  0  0  0  0  0
  188.2680  177.3440  135.6990 C   0  0  0  0  0  3  0  0  0  0  0  0
  187.4010  178.3180  137.6980 N   0  0  0  0  0  0  0  0  0  0  0  0
  187.3010  178.1000  136.3620 C   0  0  0  0  0  3  0  0  0  0  0  0
  188.4320  177.8230  138.4370 C   0  0  0  0  0  0  0  0  0  0  0  0
  190.4650  176.4890  138.5730 C   0  0  0  0  0  0  0  0  0  0  0  0
  190.5870  176.6190  142.6520 C   0  0  2  0  0  3  0  0  0  0  0  0
  189.0550  176.5480  142.7580 C   0  0  1  0  0  3  0  0  0  0  0  0
  191.0640  176.7310  145.1320 C   0  0  0  0  0  2  0  0  0  0  0  0
  188.9350  178.1050  144.8670 C   0  0  0  0  0  2  0  0  0  0  0  0
  190.0470  177.6410  145.8180 C   0  0  1  0  0  3  0  0  0  0  0  0
  188.3450  176.9460  144.0700 C   0  0  0  0  0  2  0  0  0  0  0  0
  191.4140  177.2740  143.7570 C   0  0  0  0  0  2  0  0  0  0  0  0
  189.7110  177.7070  142.0280 C   0  0  2  0  0  3  0  0  0  0  0  0
  189.3140  177.9240  148.1380 N   0  0  1  0  0  0  0  0  0  0  0  0
  188.1500  177.4410  147.3600 C   0  0  2  0  0  3  0  0  0  0  0  0
  188.0460  177.5860  148.8090 C   0  0  0  0  0  2  0  0  0  0  0  0
  189.4870  176.9420  147.0490 C   0  0  1  0  0  3  0  0  0  0  0  0
  191.5560  175.6660  137.9440 C   0  0  0  0  0  3  0  0  0  0  0  0
  192.8930  176.0220  138.5670 C   0  0  0  0  0  2  0  0  0  0  0  0
  192.5440  176.5470  137.1960 C   0  0  0  0  0  2  0  0  0  0  0  0
  187.5510  178.8160  140.5200 O   0  0  0  0  0  0  0  0  0  0  0  0
  185.8480  179.2140  142.1630 C   0  0  0  0  0  2  0  0  0  0  0  0
  185.2040  179.1330  140.7970 C   0  0  1  0  0  3  0  0  0  0  0  0
  186.3940  178.2570  141.1250 C   0  0  1  0  0  3  0  0  0  0  0  0
  183.9450  178.2880  140.8550 C   0  0  0  0  0  2  0  0  0  0  0  0
  181.2080  178.4840  136.6880 C   0  0  0  0  0  0  0  0  0  0  0  0
  178.9670  179.4890  137.2350 C   0  0  0  0  0  2  0  0  0  0  0  0
  182.8130  178.1360  138.5640 N   0  0  0  0  0  0  0  0  0  0  0  0
  180.7170  179.2630  138.9730 C   0  0  2  0  0  3  0  0  0  0  0  0
  182.1440  178.0100  135.7260 N   0  0  0  0  0  1  0  0  0  0  0  0
  180.0350  178.9920  136.2760 C   0  0  0  0  0  3  0  0  0  0  0  0
  181.2370  178.9310  140.6490 S   0  0  0  0  0  0  0  0  0  0  0  0
  182.8860  178.8130  139.8820 C   0  0  1  0  0  3  0  0  0  0  0  0
  179.2320  179.1330  138.7090 C   0  0  0  0  0  2  0  0  0  0  0  0
  181.4170  178.2170  138.1520 C   0  0  1  0  0  3  0  0  0  0  0  0
  183.0940  176.7040  138.6870 C   0  0  0  0  0  2  0  0  0  0  0  0
  184.1510  176.3670  137.8430 O   0  0  0  0  0  0  0  0  0  0  0  0
  183.8510  175.0770  137.4080 C   0  0  0  0  0  1  0  0  0  0  0  0
  1  9  1  0  0  0  0
  1 10  1  0  0  0  0
  3  2  1  0  0  0  0
  4  1  2  0  0  0  0
  5 26  1  0  0  0  0
  5  2  2  0  0  0  0
  6  8  2  0  0  0  0
  6  4  1  0  0  0  0
  7  9  2  0  0  0  0
  8  7  1  0  0  0  0
  9  5  1  0  0  0  0
 10  3  2  0  0  0  0
 11 12  1  0  0  0  0
 11 17  1  1  0  0  0
 12 16  1  1  0  0  0
 13 15  1  0  0  0  0
 15 14  1  6  0  0  0
 16 14  1  0  0  0  0
 17 13  1  0  0  0  0
 18  2  1  6  0  0  0
 18 11  1  0  0  0  0
 18 12  1  0  0  0  0
 19 21  1  1  0  0  0
 20 19  1  0  0  0  0
 20 21  1  1  0  0  0
 22 15  1  6  0  0  0
 22 20  1  0  0  0  0
 22 19  1  0  0  0  0
 23 24  1  0  0  0  0
 23 10  1  0  0  0  0
 25 23  1  0  0  0  0
 25 24  1  0  0  0  0
 28 30  1  1  0  0  0
 28 29  1  0  0  0  0
 28 27  1  0  0  0  0
 29 26  1  6  0  0  0
 29 27  1  0  0  0  0
 32 39  1  0  0  0  0
 33 41  1  0  0  0  0
 33 38  1  0  0  0  0
 34 39  1  1  0  0  0
 34 37  1  0  0  0  0
 35 31  1  0  0  0  0
 36 31  2  0  0  0  0
 36 32  1  0  0  0  0
 38 37  1  0  0  0  0
 38 30  1  1  0  0  0
 40 31  1  6  0  0  0
 40 33  1  0  0  0  0
 40 34  1  0  0  0  0
 42 41  1  0  0  0  0
 43 42  1  0  0  0  0
M  END
>  <MODEL>
2

>  <REMARK>
 VINA RESULT:      -9.0      1.504      2.078
  Name = 
  9 active torsions:
  status: ('A' for Active; 'I' for Inactive)
    1  A    between atoms: C_3  and  C_43
    2  A    between atoms: O_4  and  C_11
    3  A    between atoms: O_4  and  C_19
    4  A    between atoms: C_6  and  C_32
    5  A    between atoms: C_12  and  C_16
    6  A    between atoms: C_16  and  C_36
    7  A    between atoms: N_17  and  C_38
    8  A    between atoms: C_29  and  C_30
    9  A    between atoms: O_34  and  C_38
                            x       y       z     vdW  Elec       q    Type
                         _______ _______ _______ _____ _____    ______ ____

>  <TORSDO>
F 9

$$$$
=
 OpenBabel11042412563D

 43 52  0  0  1  0  0  0  0  0999 V2000
  185.9410  177.9010  137.8110 C   0  0  0  0  0  0  0  0  0  0  0  0
  188.6100  177.3160  137.2630 C   0  0  0  0  0  0  0  0  0  0  0  0
  187.6350  177.0890  136.3400 N   0  0  0  0  0  0  0  0  0  0  0  0
  184.6060  178.2060  138.0980 C   0  0  0  0  0  3  0  0  0  0  0  0
  188.2770  177.8380  138.5260 C   0  0  0  0  0  0  0  0  0  0  0  0
  184.2580  178.7200  139.3460 C   0  0  0  0  0  3  0  0  0  0  0  0
  186.5490  178.6280  140.0110 N   0  0  0  0  0  0  0  0  0  0  0  0
  185.2550  178.9220  140.3000 C   0  0  0  0  0  3  0  0  0  0  0  0
  186.9260  178.1370  138.7980 C   0  0  0  0  0  0  0  0  0  0  0  0
  186.3230  177.3540  136.5720 C   0  0  0  0  0  0  0  0  0  0  0  0
  190.0660  175.9260  135.7820 C   0  0  2  0  0  3  0  0  0  0  0  0
  190.2710  175.4850  137.2400 C   0  0  1  0  0  3  0  0  0  0  0  0
  192.3200  175.1820  134.9130 C   0  0  0  0  0  2  0  0  0  0  0  0
  192.8350  176.0480  137.2530 C   0  0  0  0  0  2  0  0  0  0  0  0
  193.4080  175.5120  135.9330 C   0  0  1  0  0  3  0  0  0  0  0  0
  191.6900  175.1830  137.7710 C   0  0  0  0  0  2  0  0  0  0  0  0
  191.2630  176.2720  134.8980 C   0  0  0  0  0  2  0  0  0  0  0  0
  190.0240  176.9480  136.9190 C   0  0  2  0  0  3  0  0  0  0  0  0
  195.7060  174.6690  135.9810 N   0  0  1  0  0  0  0  0  0  0  0  0
  195.1320  174.4680  137.3320 C   0  0  2  0  0  3  0  0  0  0  0  0
  196.4600  173.9470  137.0230 C   0  0  0  0  0  2  0  0  0  0  0  0
  194.2900  174.2910  136.1520 C   0  0  1  0  0  3  0  0  0  0  0  0
  185.3170  177.1070  135.4800 C   0  0  0  0  0  3  0  0  0  0  0  0
  184.6920  175.7350  135.6580 C   0  0  0  0  0  2  0  0  0  0  0  0
  185.7440  175.9450  134.5960 C   0  0  0  0  0  2  0  0  0  0  0  0
  189.3010  178.0270  139.4650 O   0  0  0  0  0  0  0  0  0  0  0  0
  191.1220  177.4430  140.9150 C   0  0  0  0  0  2  0  0  0  0  0  0
  189.8420  177.4770  141.7220 C   0  0  1  0  0  3  0  0  0  0  0  0
  189.8200  176.9920  140.2880 C   0  0  1  0  0  3  0  0  0  0  0  0
  189.7670  176.2760  142.6450 C   0  0  0  0  0  2  0  0  0  0  0  0
  188.2900  177.8490  147.1440 C   0  0  0  0  0  0  0  0  0  0  0  0
  185.8570  178.4830  147.0250 C   0  0  0  0  0  2  0  0  0  0  0  0
  189.4000  177.1080  145.0390 N   0  0  0  0  0  0  0  0  0  0  0  0
  187.0270  177.5550  145.0490 C   0  0  2  0  0  3  0  0  0  0  0  0
  189.4680  177.6260  147.9110 N   0  0  0  0  0  1  0  0  0  0  0  0
  187.1510  178.1950  147.7670 C   0  0  0  0  0  3  0  0  0  0  0  0
  187.3350  177.4860  143.2910 S   0  0  0  0  0  0  0  0  0  0  0  0
  188.8040  176.5370  143.8070 C   0  0  1  0  0  3  0  0  0  0  0  0
  186.0200  178.5930  145.4970 C   0  0  0  0  0  2  0  0  0  0  0  0
  188.3560  177.9250  145.6450 C   0  0  1  0  0  3  0  0  0  0  0  0
  190.4820  178.0420  144.7200 C   0  0  0  0  0  2  0  0  0  0  0  0
  191.6040  177.7280  145.4870 O   0  0  0  0  0  0  0  0  0  0  0  0
  191.7360  176.3460  145.3600 C   0  0  0  0  0  1  0  0  0  0  0  0
  1  4  1  0  0  0  0
  1  9  1  0  0  0  0
  2  5  1  0  0  0  0
  3 10  1  0  0  0  0
  3  2  2  0  0  0  0
  4  6  2  0  0  0  0
  5  9  2  0  0  0  0
  5 26  1  0  0  0  0
  6  8  1  0  0  0  0
  7  8  2  0  0  0  0
  9  7  1  0  0  0  0
 10  1  2  0  0  0  0
 11 17  1  6  0  0  0
 11 18  1  0  0  0  0
 11 12  1  0  0  0  0
 12 16  1  6  0  0  0
 14 16  1  0  0  0  0
 15 13  1  6  0  0  0
 15 14  1  0  0  0  0
 17 13  1  0  0  0  0
 18 12  1  0  0  0  0
 18  2  1  1  0  0  0
 19 22  1  0  0  0  0
 19 21  1  6  0  0  0
 19 20  1  0  0  0  0
 20 21  1  6  0  0  0
 22 15  1  1  0  0  0
 22 20  1  0  0  0  0
 23 24  1  0  0  0  0
 23 10  1  0  0  0  0
 25 23  1  0  0  0  0
 25 24  1  0  0  0  0
 27 28  1  0  0  0  0
 28 30  1  1  0  0  0
 29 26  1  6  0  0  0
 29 27  1  0  0  0  0
 29 28  1  0  0  0  0
 31 36  2  0  0  0  0
 31 35  1  0  0  0  0
 32 36  1  0  0  0  0
 33 40  1  0  0  0  0
 34 39  1  6  0  0  0
 34 40  1  0  0  0  0
 37 38  1  0  0  0  0
 37 34  1  0  0  0  0
 38 30  1  6  0  0  0
 38 33  1  0  0  0  0
 39 32  1  0  0  0  0
 40 31  1  1  0  0  0
 41 33  1  0  0  0  0
 41 42  1  0  0  0  0
 43 42  1  0  0  0  0
M  END
>  <MODEL>
3

>  <REMARK>
 VINA RESULT:      -8.7      3.168      8.593
  Name = 
  9 active torsions:
  status: ('A' for Active; 'I' for Inactive)
    1  A    between atoms: C_3  and  C_43
    2  A    between atoms: O_4  and  C_11
    3  A    between atoms: O_4  and  C_19
    4  A    between atoms: C_6  and  C_32
    5  A    between atoms: C_12  and  C_16
    6  A    between atoms: C_16  and  C_36
    7  A    between atoms: N_17  and  C_38
    8  A    between atoms: C_29  and  C_30
    9  A    between atoms: O_34  and  C_38
                            x       y       z     vdW  Elec       q    Type
                         _______ _______ _______ _____ _____    ______ ____

>  <TORSDO>
F 9

$$$$
=
 OpenBabel11042412563D

 43 52  0  0  1  0  0  0  0  0999 V2000
  189.0500  176.9400  137.2660 C   0  0  0  0  0  0  0  0  0  0  0  0
  188.8020  177.5500  139.9730 C   0  0  0  0  0  0  0  0  0  0  0  0
  189.8460  176.8090  139.5110 N   0  0  0  0  0  0  0  0  0  0  0  0
  189.1640  176.6460  135.9030 C   0  0  0  0  0  3  0  0  0  0  0  0
  187.8140  178.0080  139.0830 C   0  0  0  0  0  0  0  0  0  0  0  0
  188.1920  177.0880  135.0070 C   0  0  0  0  0  3  0  0  0  0  0  0
  187.0070  178.1060  136.8120 N   0  0  0  0  0  0  0  0  0  0  0  0
  187.1070  177.8220  135.4880 C   0  0  0  0  0  3  0  0  0  0  0  0
  187.9450  177.7010  137.7120 C   0  0  0  0  0  0  0  0  0  0  0  0
  189.9970  176.4840  138.2000 C   0  0  0  0  0  0  0  0  0  0  0  0
  190.0280  177.4970  142.1500 C   0  0  2  0  0  3  0  0  0  0  0  0
  188.8460  176.5170  142.2190 C   0  0  1  0  0  3  0  0  0  0  0  0
  190.2090  177.9370  144.6330 C   0  0  0  0  0  2  0  0  0  0  0  0
  187.7000  177.7360  144.2400 C   0  0  0  0  0  2  0  0  0  0  0  0
  188.8150  178.0640  145.2440 C   0  0  1  0  0  3  0  0  0  0  0  0
  187.9710  176.4370  143.4890 C   0  0  0  0  0  2  0  0  0  0  0  0
  190.2330  178.5460  143.2420 C   0  0  0  0  0  2  0  0  0  0  0  0
  188.7070  177.8170  141.4480 C   0  0  2  0  0  3  0  0  0  0  0  0
  189.0020  178.0260  147.6850 N   0  0  1  0  0  0  0  0  0  0  0  0
  187.6170  177.6320  147.3400 C   0  0  2  0  0  3  0  0  0  0  0  0
  188.0610  177.5820  148.7300 C   0  0  0  0  0  2  0  0  0  0  0  0
  188.7250  177.2000  146.4940 C   0  0  1  0  0  3  0  0  0  0  0  0
  191.2040  175.6910  137.7730 C   0  0  0  0  0  3  0  0  0  0  0  0
  192.3370  175.9100  138.7580 C   0  0  0  0  0  2  0  0  0  0  0  0
  192.3640  176.6090  137.4200 C   0  0  0  0  0  2  0  0  0  0  0  0
  186.7340  178.7400  139.5970 O   0  0  0  0  0  0  0  0  0  0  0  0
  184.6370  178.5950  140.7570 C   0  0  0  0  0  2  0  0  0  0  0  0
  184.4990  179.5720  139.6100 C   0  0  1  0  0  3  0  0  0  0  0  0
  185.3760  178.3470  139.4590 C   0  0  1  0  0  3  0  0  0  0  0  0
  183.1970  179.3360  138.8680 C   0  0  0  0  0  2  0  0  0  0  0  0
  179.6270  176.5670  140.9870 C   0  0  0  0  0  0  0  0  0  0  0  0
  179.6570  174.2730  139.9520 C   0  0  0  0  0  2  0  0  0  0  0  0
  181.2220  178.2630  140.0950 N   0  0  0  0  0  0  0  0  0  0  0  0
  181.3140  175.9900  139.2860 C   0  0  2  0  0  3  0  0  0  0  0  0
  179.1360  177.4660  141.9740 N   0  0  0  0  0  1  0  0  0  0  0  0
  179.2100  175.2900  140.9880 C   0  0  0  0  0  3  0  0  0  0  0  0
  182.3280  176.8080  138.0640 S   0  0  0  0  0  0  0  0  0  0  0  0
  182.5020  178.0670  139.3700 C   0  0  1  0  0  3  0  0  0  0  0  0
  180.4230  174.8820  138.7640 C   0  0  0  0  0  2  0  0  0  0  0  0
  180.4220  177.0760  139.8170 C   0  0  1  0  0  3  0  0  0  0  0  0
  180.4600  179.3790  139.5320 C   0  0  0  0  0  2  0  0  0  0  0  0
  179.6180  178.9030  138.5280 O   0  0  0  0  0  0  0  0  0  0  0  0
  179.6790  179.8770  137.5330 C   0  0  0  0  0  1  0  0  0  0  0  0
  1  9  1  0  0  0  0
  1 10  1  0  0  0  0
  3  2  1  0  0  0  0
  4  1  2  0  0  0  0
  5 26  1  0  0  0  0
  5  2  2  0  0  0  0
  6  8  2  0  0  0  0
  6  4  1  0  0  0  0
  7  9  2  0  0  0  0
  8  7  1  0  0  0  0
  9  5  1  0  0  0  0
 10  3  2  0  0  0  0
 11 12  1  0  0  0  0
 11 17  1  1  0  0  0
 12 16  1  1  0  0  0
 13 15  1  0  0  0  0
 15 14  1  6  0  0  0
 16 14  1  0  0  0  0
 17 13  1  0  0  0  0
 18  2  1  6  0  0  0
 18 11  1  0  0  0  0
 18 12  1  0  0  0  0
 19 21  1  1  0  0  0
 20 19  1  0  0  0  0
 20 21  1  1  0  0  0
 22 15  1  6  0  0  0
 22 20  1  0  0  0  0
 22 19  1  0  0  0  0
 23 10  1  0  0  0  0
 23 24  1  0  0  0  0
 25 23  1  0  0  0  0
 25 24  1  0  0  0  0
 28 30  1  6  0  0  0
 28 27  1  0  0  0  0
 29 26  1  1  0  0  0
 29 28  1  0  0  0  0
 29 27  1  0  0  0  0
 31 36  2  0  0  0  0
 31 35  1  0  0  0  0
 32 36  1  0  0  0  0
 34 39  1  6  0  0  0
 34 40  1  0  0  0  0
 37 34  1  0  0  0  0
 37 38  1  0  0  0  0
 38 30  1  6  0  0  0
 38 33  1  0  0  0  0
 39 32  1  0  0  0  0
 40 33  1  0  0  0  0
 40 31  1  1  0  0  0
 41 33  1  0  0  0  0
 42 41  1  0  0  0  0
 43 42  1  0  0  0  0
M  END
>  <MODEL>
4

>  <REMARK>
 VINA RESULT:      -8.6      1.574      2.159
  Name = 
  9 active torsions:
  status: ('A' for Active; 'I' for Inactive)
    1  A    between atoms: C_3  and  C_43
    2  A    between atoms: O_4  and  C_11
    3  A    between atoms: O_4  and  C_19
    4  A    between atoms: C_6  and  C_32
    5  A    between atoms: C_12  and  C_16
    6  A    between atoms: C_16  and  C_36
    7  A    between atoms: N_17  and  C_38
    8  A    between atoms: C_29  and  C_30
    9  A    between atoms: O_34  and  C_38
                            x       y       z     vdW  Elec       q    Type
                         _______ _______ _______ _____ _____    ______ ____

>  <TORSDO>
F 9

$$$$
=
 OpenBabel11042412563D

 43 52  0  0  1  0  0  0  0  0999 V2000
  184.2530  178.6590  141.3710 C   0  0  0  0  0  0  0  0  0  0  0  0
  186.8490  178.2380  142.2910 C   0  0  0  0  0  0  0  0  0  0  0  0
  185.7840  178.1850  143.1380 N   0  0  0  0  0  0  0  0  0  0  0  0
  182.9540  178.8670  140.8930 C   0  0  0  0  0  3  0  0  0  0  0  0
  186.6530  178.5280  140.9290 C   0  0  0  0  0  0  0  0  0  0  0  0
  182.7420  179.1590  139.5470 C   0  0  0  0  0  3  0  0  0  0  0  0
  185.0940  179.0350  139.1600 N   0  0  0  0  0  0  0  0  0  0  0  0
  183.8380  179.2430  138.6880 C   0  0  0  0  0  3  0  0  0  0  0  0
  185.3360  178.7360  140.4660 C   0  0  0  0  0  0  0  0  0  0  0  0
  184.5050  178.3920  142.7290 C   0  0  0  0  0  0  0  0  0  0  0  0
  188.4360  176.5810  143.2810 C   0  0  2  0  0  3  0  0  0  0  0  0
  188.1330  177.6680  144.3250 C   0  0  1  0  0  3  0  0  0  0  0  0
  190.6980  175.9060  144.1840 C   0  0  0  0  0  2  0  0  0  0  0  0
  190.6360  178.4270  144.5460 C   0  0  0  0  0  2  0  0  0  0  0  0
  191.4780  177.1450  144.6200 C   0  0  1  0  0  3  0  0  0  0  0  0
  189.2680  178.2500  145.1960 C   0  0  0  0  0  2  0  0  0  0  0  0
  189.8780  176.2080  142.9420 C   0  0  0  0  0  2  0  0  0  0  0  0
  188.2260  178.0350  142.8550 C   0  0  2  0  0  3  0  0  0  0  0  0
  191.0140  176.3490  146.8890 N   0  0  1  0  0  0  0  0  0  0  0  0
  192.0920  175.5000  146.3330 C   0  0  2  0  0  3  0  0  0  0  0  0
  191.6850  175.3370  147.7250 C   0  0  0  0  0  2  0  0  0  0  0  0
  192.0530  176.9240  146.0120 C   0  0  1  0  0  3  0  0  0  0  0  0
  183.3850  178.2760  143.7280 C   0  0  0  0  0  3  0  0  0  0  0  0
  183.1010  179.6350  144.3400 C   0  0  0  0  0  2  0  0  0  0  0  0
  183.8680  178.6040  145.1320 C   0  0  0  0  0  2  0  0  0  0  0  0
  187.7740  178.6100  140.0920 O   0  0  0  0  0  0  0  0  0  0  0  0
  188.9350  178.6190  137.9910 C   0  0  0  0  0  2  0  0  0  0  0  0
  189.2540  177.3350  138.7240 C   0  0  1  0  0  3  0  0  0  0  0  0
  187.8750  177.9480  138.8390 C   0  0  1  0  0  3  0  0  0  0  0  0
  189.1860  176.1540  137.7740 C   0  0  0  0  0  2  0  0  0  0  0  0
  192.7210  173.0230  136.1620 C   0  0  0  0  0  0  0  0  0  0  0  0
  194.9110  173.6510  137.2340 C   0  0  0  0  0  2  0  0  0  0  0  0
  190.7350  174.4450  136.6630 N   0  0  0  0  0  0  0  0  0  0  0  0
  192.8270  174.8680  137.7930 C   0  0  2  0  0  3  0  0  0  0  0  0
  191.9510  172.1300  135.3660 N   0  0  0  0  0  1  0  0  0  0  0  0
  194.0080  172.7380  136.4210 C   0  0  0  0  0  3  0  0  0  0  0  0
  191.9370  176.3640  138.1920 S   0  0  0  0  0  0  0  0  0  0  0  0
  190.4790  175.3360  137.8220 C   0  0  1  0  0  3  0  0  0  0  0  0
  194.3070  175.0380  137.5210 C   0  0  0  0  0  2  0  0  0  0  0  0
  192.1850  174.3800  136.5250 C   0  0  1  0  0  3  0  0  0  0  0  0
  190.2590  175.0480  135.4160 C   0  0  0  0  0  2  0  0  0  0  0  0
  189.5890  174.0830  134.6640 O   0  0  0  0  0  0  0  0  0  0  0  0
  188.2510  174.4680  134.7180 C   0  0  0  0  0  1  0  0  0  0  0  0
  1 10  1  0  0  0  0
  2  3  1  0  0  0  0
  4  1  1  0  0  0  0
  5  2  2  0  0  0  0
  6  4  2  0  0  0  0
  7  9  1  0  0  0  0
  8  7  2  0  0  0  0
  8  6  1  0  0  0  0
  9  5  1  0  0  0  0
  9  1  2  0  0  0  0
 10  3  2  0  0  0  0
 10 23  1  0  0  0  0
 11 17  1  1  0  0  0
 11 12  1  0  0  0  0
 12 16  1  1  0  0  0
 14 15  1  0  0  0  0
 14 16  1  0  0  0  0
 15 13  1  1  0  0  0
 17 13  1  0  0  0  0
 18  2  1  6  0  0  0
 18 11  1  0  0  0  0
 18 12  1  0  0  0  0
 19 21  1  1  0  0  0
 20 19  1  0  0  0  0
 20 21  1  1  0  0  0
 22 15  1  6  0  0  0
 22 20  1  0  0  0  0
 22 19  1  0  0  0  0
 23 24  1  0  0  0  0
 23 25  1  0  0  0  0
 24 25  1  0  0  0  0
 26  5  1  0  0  0  0
 27 28  1  0  0  0  0
 27 29  1  0  0  0  0
 28 30  1  6  0  0  0
 28 29  1  0  0  0  0
 29 26  1  1  0  0  0
 31 36  2  0  0  0  0
 32 39  1  0  0  0  0
 33 38  1  0  0  0  0
 34 39  1  6  0  0  0
 34 37  1  0  0  0  0
 35 31  1  0  0  0  0
 36 32  1  0  0  0  0
 38 30  1  6  0  0  0
 38 37  1  0  0  0  0
 40 31  1  1  0  0  0
 40 33  1  0  0  0  0
 40 34  1  0  0  0  0
 41 33  1  0  0  0  0
 42 43  1  0  0  0  0
 42 41  1  0  0  0  0
M  END
>  <MODEL>
5

>  <REMARK>
 VINA RESULT:      -8.4      2.963      8.251
  Name = 
  9 active torsions:
  status: ('A' for Active; 'I' for Inactive)
    1  A    between atoms: C_3  and  C_43
    2  A    between atoms: O_4  and  C_11
    3  A    between atoms: O_4  and  C_19
    4  A    between atoms: C_6  and  C_32
    5  A    between atoms: C_12  and  C_16
    6  A    between atoms: C_16  and  C_36
    7  A    between atoms: N_17  and  C_38
    8  A    between atoms: C_29  and  C_30
    9  A    between atoms: O_34  and  C_38
                            x       y       z     vdW  Elec       q    Type
                         _______ _______ _______ _____ _____    ______ ____

>  <TORSDO>
F 9

$$$$
=
 OpenBabel11042412563D

 43 52  0  0  1  0  0  0  0  0999 V2000
  191.1280  176.2650  136.9580 C   0  0  0  0  0  0  0  0  0  0  0  0
  190.4440  176.9950  139.5590 C   0  0  0  0  0  0  0  0  0  0  0  0
  191.7410  176.7790  139.2060 N   0  0  0  0  0  0  0  0  0  0  0  0
  191.4560  175.9050  135.6460 C   0  0  0  0  0  3  0  0  0  0  0  0
  189.4190  176.8330  138.6100 C   0  0  0  0  0  0  0  0  0  0  0  0
  190.4520  175.7360  134.6950 C   0  0  0  0  0  3  0  0  0  0  0  0
  188.8120  176.2820  136.3420 N   0  0  0  0  0  0  0  0  0  0  0  0
  189.1220  175.9280  135.0670 C   0  0  0  0  0  3  0  0  0  0  0  0
  189.7690  176.4680  137.2930 C   0  0  0  0  0  0  0  0  0  0  0  0
  192.1130  176.4150  137.9500 C   0  0  0  0  0  0  0  0  0  0  0  0
  191.3910  177.2580  141.8570 C   0  0  2  0  0  3  0  0  0  0  0  0
  190.3360  176.1410  141.8770 C   0  0  1  0  0  3  0  0  0  0  0  0
  191.2130  177.8960  144.2960 C   0  0  0  0  0  2  0  0  0  0  0  0
  188.8130  177.3460  143.6420 C   0  0  0  0  0  2  0  0  0  0  0  0
  189.7490  177.8860  144.7320 C   0  0  1  0  0  3  0  0  0  0  0  0
  189.3270  176.0420  143.0430 C   0  0  0  0  0  2  0  0  0  0  0  0
  191.3340  178.4010  142.8680 C   0  0  0  0  0  2  0  0  0  0  0  0
  190.1390  177.3540  140.9840 C   0  0  2  0  0  3  0  0  0  0  0  0
  189.2010  178.0300  147.1150 N   0  0  1  0  0  0  0  0  0  0  0  0
  188.2220  177.1110  146.4890 C   0  0  2  0  0  3  0  0  0  0  0  0
  188.2190  177.2990  147.9360 C   0  0  0  0  0  2  0  0  0  0  0  0
  189.6100  177.1110  146.0350 C   0  0  1  0  0  3  0  0  0  0  0  0
  193.5750  176.2340  137.6390 C   0  0  0  0  0  3  0  0  0  0  0  0
  193.8310  174.8070  137.1890 C   0  0  0  0  0  2  0  0  0  0  0  0
  194.2160  175.2320  138.5860 C   0  0  0  0  0  2  0  0  0  0  0  0
  188.0910  177.0290  139.0160 O   0  0  0  0  0  0  0  0  0  0  0  0
  186.4030  177.8790  137.5380 C   0  0  0  0  0  2  0  0  0  0  0  0
  185.8670  177.8860  138.9520 C   0  0  1  0  0  3  0  0  0  0  0  0
  187.3290  178.1830  138.6960 C   0  0  1  0  0  3  0  0  0  0  0  0
  185.1460  179.1900  139.2380 C   0  0  0  0  0  2  0  0  0  0  0  0
  182.7530  178.9850  143.6120 C   0  0  0  0  0  0  0  0  0  0  0  0
  184.4510  178.7790  145.4580 C   0  0  0  0  0  2  0  0  0  0  0  0
  183.5890  179.0120  141.2630 N   0  0  0  0  0  0  0  0  0  0  0  0
  185.1620  179.0040  143.0960 C   0  0  2  0  0  3  0  0  0  0  0  0
  181.4050  179.1680  143.1930 N   0  0  0  0  0  1  0  0  0  0  0  0
  183.0460  178.9990  144.9220 C   0  0  0  0  0  3  0  0  0  0  0  0
  186.2500  178.6090  141.7350 S   0  0  0  0  0  0  0  0  0  0  0  0
  184.9290  179.3790  140.7420 C   0  0  1  0  0  3  0  0  0  0  0  0
  185.4580  178.2920  144.3990 C   0  0  0  0  0  2  0  0  0  0  0  0
  183.8060  178.5540  142.6300 C   0  0  1  0  0  3  0  0  0  0  0  0
  183.0430  177.8550  140.5530 C   0  0  0  0  0  2  0  0  0  0  0  0
  181.8780  178.2310  139.8850 O   0  0  0  0  0  0  0  0  0  0  0  0
  181.0010  177.1670  140.0890 C   0  0  0  0  0  1  0  0  0  0  0  0
  1  9  1  0  0  0  0
  1 10  1  0  0  0  0
  3  2  1  0  0  0  0
  4  1  2  0  0  0  0
  5 26  1  0  0  0  0
  5  2  2  0  0  0  0
  6  8  2  0  0  0  0
  6  4  1  0  0  0  0
  7  9  2  0  0  0  0
  8  7  1  0  0  0  0
  9  5  1  0  0  0  0
 10  3  2  0  0  0  0
 11 12  1  0  0  0  0
 11 17  1  1  0  0  0
 12 16  1  1  0  0  0
 13 15  1  0  0  0  0
 15 14  1  6  0  0  0
 16 14  1  0  0  0  0
 17 13  1  0  0  0  0
 18  2  1  6  0  0  0
 18 11  1  0  0  0  0
 18 12  1  0  0  0  0
 19 21  1  1  0  0  0
 20 19  1  0  0  0  0
 20 21  1  1  0  0  0
 22 15  1  6  0  0  0
 22 20  1  0  0  0  0
 22 19  1  0  0  0  0
 23 10  1  0  0  0  0
 23 25  1  0  0  0  0
 24 23  1  0  0  0  0
 24 25  1  0  0  0  0
 27 29  1  0  0  0  0
 27 28  1  0  0  0  0
 28 30  1  6  0  0  0
 29 28  1  0  0  0  0
 29 26  1  1  0  0  0
 31 36  2  0  0  0  0
 33 40  1  0  0  0  0
 34 39  1  1  0  0  0
 35 31  1  0  0  0  0
 36 32  1  0  0  0  0
 37 34  1  0  0  0  0
 38 30  1  6  0  0  0
 38 33  1  0  0  0  0
 38 37  1  0  0  0  0
 39 32  1  0  0  0  0
 40 34  1  0  0  0  0
 40 31  1  1  0  0  0
 41 33  1  0  0  0  0
 42 43  1  0  0  0  0
 42 41  1  0  0  0  0
M  END
>  <MODEL>
6

>  <REMARK>
 VINA RESULT:      -8.3      2.047      3.688
  Name = 
  9 active torsions:
  status: ('A' for Active; 'I' for Inactive)
    1  A    between atoms: C_3  and  C_43
    2  A    between atoms: O_4  and  C_11
    3  A    between atoms: O_4  and  C_19
    4  A    between atoms: C_6  and  C_32
    5  A    between atoms: C_12  and  C_16
    6  A    between atoms: C_16  and  C_36
    7  A    between atoms: N_17  and  C_38
    8  A    between atoms: C_29  and  C_30
    9  A    between atoms: O_34  and  C_38
                            x       y       z     vdW  Elec       q    Type
                         _______ _______ _______ _____ _____    ______ ____

>  <TORSDO>
F 9

$$$$
=
 OpenBabel11042412563D

 43 52  0  0  1  0  0  0  0  0999 V2000
  188.5420  177.4420  146.0000 C   0  0  0  0  0  0  0  0  0  0  0  0
  186.9070  177.5900  143.7470 C   0  0  0  0  0  0  0  0  0  0  0  0
  186.4500  177.9590  144.9750 N   0  0  0  0  0  0  0  0  0  0  0  0
  189.3760  177.3670  147.1200 C   0  0  0  0  0  3  0  0  0  0  0  0
  188.2200  177.1070  143.6000 C   0  0  0  0  0  0  0  0  0  0  0  0
  190.6780  176.8870  146.9930 C   0  0  0  0  0  3  0  0  0  0  0  0
  190.3190  176.5620  144.6550 N   0  0  0  0  0  0  0  0  0  0  0  0
  191.1350  176.4820  145.7390 C   0  0  0  0  0  3  0  0  0  0  0  0
  189.0460  177.0380  144.7420 C   0  0  0  0  0  0  0  0  0  0  0  0
  187.2130  177.8930  146.0980 C   0  0  0  0  0  0  0  0  0  0  0  0
  186.1660  178.9590  141.7930 C   0  0  2  0  0  3  0  0  0  0  0  0
  184.9900  178.8080  142.7720 C   0  0  1  0  0  3  0  0  0  0  0  0
  184.7860  179.3270  139.7070 C   0  0  0  0  0  2  0  0  0  0  0  0
  183.4370  177.6150  141.0260 C   0  0  0  0  0  2  0  0  0  0  0  0
  183.5770  178.3940  139.7100 C   0  0  1  0  0  3  0  0  0  0  0  0
  183.5670  178.5230  142.2440 C   0  0  0  0  0  2  0  0  0  0  0  0
  185.9920  178.6290  140.3120 C   0  0  0  0  0  2  0  0  0  0  0  0
  185.9680  177.6620  142.5790 C   0  0  2  0  0  3  0  0  0  0  0  0
  181.6940  178.6400  138.1640 N   0  0  1  0  0  0  0  0  0  0  0  0
  181.1330  178.3440  139.5020 C   0  0  2  0  0  3  0  0  0  0  0  0
  180.2380  178.6620  138.3940 C   0  0  0  0  0  2  0  0  0  0  0  0
  182.3190  179.1870  139.3830 C   0  0  1  0  0  3  0  0  0  0  0  0
  186.6370  178.3580  147.4090 C   0  0  0  0  0  3  0  0  0  0  0  0
  185.1430  178.5830  147.2610 C   0  0  0  0  0  2  0  0  0  0  0  0
  186.0790  179.7680  147.2920 C   0  0  0  0  0  2  0  0  0  0  0  0
  188.6480  176.7030  142.3280 O   0  0  0  0  0  0  0  0  0  0  0  0
  190.7760  177.7410  141.9320 C   0  0  0  0  0  2  0  0  0  0  0  0
  190.5000  176.7480  140.8250 C   0  0  1  0  0  3  0  0  0  0  0  0
  189.3620  177.5420  141.4300 C   0  0  1  0  0  3  0  0  0  0  0  0
  190.8510  177.3480  139.4770 C   0  0  0  0  0  2  0  0  0  0  0  0
  190.6000  174.5730  135.3370 C   0  0  0  0  0  0  0  0  0  0  0  0
  192.9180  173.7990  134.7370 C   0  0  0  0  0  2  0  0  0  0  0  0
  190.3540  176.0780  137.3100 N   0  0  0  0  0  0  0  0  0  0  0  0
  192.5160  175.1420  136.7790 C   0  0  2  0  0  3  0  0  0  0  0  0
  189.1940  174.5350  135.1200 N   0  0  0  0  0  1  0  0  0  0  0  0
  191.4050  173.7960  134.5950 C   0  0  0  0  0  3  0  0  0  0  0  0
  192.9890  176.4030  137.9520 S   0  0  0  0  0  0  0  0  0  0  0  0
  191.2500  176.2580  138.4780 C   0  0  1  0  0  3  0  0  0  0  0  0
  193.4640  174.9390  135.6170 C   0  0  0  0  0  2  0  0  0  0  0  0
  191.2090  175.6280  136.2180 C   0  0  1  0  0  3  0  0  0  0  0  0
  189.8030  177.3580  136.8620 C   0  0  0  0  0  2  0  0  0  0  0  0
  188.4100  177.3060  136.9150 O   0  0  0  0  0  0  0  0  0  0  0  0
  188.0190  178.6300  137.1050 C   0  0  0  0  0  1  0  0  0  0  0  0
  1 10  1  0  0  0  0
  1  4  1  0  0  0  0
  2  3  1  0  0  0  0
  3 10  2  0  0  0  0
  5  2  2  0  0  0  0
  5  9  1  0  0  0  0
  6  4  2  0  0  0  0
  7  9  1  0  0  0  0
  7  8  2  0  0  0  0
  8  6  1  0  0  0  0
  9  1  2  0  0  0  0
 10 23  1  0  0  0  0
 11 17  1  6  0  0  0
 11 18  1  0  0  0  0
 11 12  1  0  0  0  0
 12 16  1  6  0  0  0
 13 17  1  0  0  0  0
 14 16  1  0  0  0  0
 15 13  1  1  0  0  0
 15 14  1  0  0  0  0
 18 12  1  0  0  0  0
 18  2  1  1  0  0  0
 19 21  1  6  0  0  0
 19 22  1  0  0  0  0
 19 20  1  0  0  0  0
 20 21  1  6  0  0  0
 22 20  1  0  0  0  0
 22 15  1  1  0  0  0
 24 25  1  0  0  0  0
 24 23  1  0  0  0  0
 25 23  1  0  0  0  0
 26  5  1  0  0  0  0
 28 30  1  6  0  0  0
 28 29  1  0  0  0  0
 28 27  1  0  0  0  0
 29 27  1  0  0  0  0
 29 26  1  1  0  0  0
 32 39  1  0  0  0  0
 33 38  1  0  0  0  0
 34 39  1  6  0  0  0
 34 37  1  0  0  0  0
 35 31  1  0  0  0  0
 36 32  1  0  0  0  0
 36 31  2  0  0  0  0
 37 38  1  0  0  0  0
 38 30  1  6  0  0  0
 40 31  1  1  0  0  0
 40 34  1  0  0  0  0
 40 33  1  0  0  0  0
 41 42  1  0  0  0  0
 41 33  1  0  0  0  0
 42 43  1  0  0  0  0
M  END
>  <MODEL>
7

>  <REMARK>
 VINA RESULT:      -8.1      2.743      9.284
  Name = 
  9 active torsions:
  status: ('A' for Active; 'I' for Inactive)
    1  A    between atoms: C_3  and  C_43
    2  A    between atoms: O_4  and  C_11
    3  A    between atoms: O_4  and  C_19
    4  A    between atoms: C_6  and  C_32
    5  A    between atoms: C_12  and  C_16
    6  A    between atoms: C_16  and  C_36
    7  A    between atoms: N_17  and  C_38
    8  A    between atoms: C_29  and  C_30
    9  A    between atoms: O_34  and  C_38
                            x       y       z     vdW  Elec       q    Type
                         _______ _______ _______ _____ _____    ______ ____

>  <TORSDO>
F 9

$$$$
=
 OpenBabel11042412563D

 43 52  0  0  1  0  0  0  0  0999 V2000
  187.0670  178.1280  145.6690 C   0  0  0  0  0  0  0  0  0  0  0  0
  187.8660  177.4430  143.0890 C   0  0  0  0  0  0  0  0  0  0  0  0
  188.7730  177.5740  144.0960 N   0  0  0  0  0  0  0  0  0  0  0  0
  186.6500  178.4670  146.9610 C   0  0  0  0  0  3  0  0  0  0  0  0
  186.5010  177.6710  143.3360 C   0  0  0  0  0  0  0  0  0  0  0  0
  185.3000  178.7010  147.2220 C   0  0  0  0  0  3  0  0  0  0  0  0
  184.7910  178.2620  144.9310 N   0  0  0  0  0  0  0  0  0  0  0  0
  184.3780  178.5960  146.1810 C   0  0  0  0  0  3  0  0  0  0  0  0
  186.0990  178.0140  144.6440 C   0  0  0  0  0  0  0  0  0  0  0  0
  188.4230  177.9140  145.3640 C   0  0  0  0  0  0  0  0  0  0  0  0
  189.7880  177.6180  141.5020 C   0  0  2  0  0  3  0  0  0  0  0  0
  188.5860  178.3760  140.9160 C   0  0  1  0  0  3  0  0  0  0  0  0
  190.9370  177.1160  139.3070 C   0  0  0  0  0  2  0  0  0  0  0  0
  188.4600  176.8960  138.7520 C   0  0  0  0  0  2  0  0  0  0  0  0
  189.9030  176.7250  138.2540 C   0  0  1  0  0  3  0  0  0  0  0  0
  188.2420  178.2520  139.4150 C   0  0  0  0  0  2  0  0  0  0  0  0
  190.5330  176.5770  140.6680 C   0  0  0  0  0  2  0  0  0  0  0  0
  188.3640  177.1040  141.7140 C   0  0  2  0  0  3  0  0  0  0  0  0
  190.3160  176.5710  135.8450 N   0  0  1  0  0  0  0  0  0  0  0  0
  189.0560  177.3270  136.0310 C   0  0  2  0  0  3  0  0  0  0  0  0
  189.6230  177.1800  134.6940 C   0  0  0  0  0  2  0  0  0  0  0  0
  190.1570  177.5090  136.9730 C   0  0  1  0  0  3  0  0  0  0  0  0
  189.4890  177.9990  146.4240 C   0  0  0  0  0  3  0  0  0  0  0  0
  190.6670  177.1250  146.0380 C   0  0  0  0  0  2  0  0  0  0  0  0
  189.7000  176.6520  147.0970 C   0  0  0  0  0  2  0  0  0  0  0  0
  185.5970  177.5620  142.2680 O   0  0  0  0  0  0  0  0  0  0  0  0
  185.0050  179.0030  140.4430 C   0  0  0  0  0  2  0  0  0  0  0  0
  183.8390  178.0880  140.7460 C   0  0  1  0  0  3  0  0  0  0  0  0
  184.7120  178.5990  141.8720 C   0  0  1  0  0  3  0  0  0  0  0  0
  182.5390  178.8700  140.7430 C   0  0  0  0  0  2  0  0  0  0  0  0
  181.2360  178.9990  135.9280 C   0  0  0  0  0  0  0  0  0  0  0  0
  180.2850  181.2700  135.4040 C   0  0  0  0  0  2  0  0  0  0  0  0
  181.9050  178.5370  138.2850 N   0  0  0  0  0  0  0  0  0  0  0  0
  181.1590  180.7480  137.6630 C   0  0  2  0  0  3  0  0  0  0  0  0
  181.6820  177.7200  135.4910 N   0  0  0  0  0  1  0  0  0  0  0  0
  180.8090  179.8950  135.0230 C   0  0  0  0  0  3  0  0  0  0  0  0
  181.0960  180.8750  139.4430 S   0  0  0  0  0  0  0  0  0  0  0  0
  182.2720  179.4840  139.3660 C   0  0  1  0  0  3  0  0  0  0  0  0
  180.0490  181.4560  136.9150 C   0  0  0  0  0  2  0  0  0  0  0  0
  181.0230  179.2760  137.3900 C   0  0  1  0  0  3  0  0  0  0  0  0
  181.0920  177.4340  138.8000 C   0  0  0  0  0  2  0  0  0  0  0  0
  181.7860  176.2350  138.6430 O   0  0  0  0  0  0  0  0  0  0  0  0
  180.8650  175.3750  138.0480 C   0  0  0  0  0  1  0  0  0  0  0  0
  1  4  1  0  0  0  0
  2  5  2  0  0  0  0
  2  3  1  0  0  0  0
  3 10  2  0  0  0  0
  4  6  2  0  0  0  0
  5  9  1  0  0  0  0
  7  8  2  0  0  0  0
  8  6  1  0  0  0  0
  9  7  1  0  0  0  0
  9  1  2  0  0  0  0
 10  1  1  0  0  0  0
 10 23  1  0  0  0  0
 11 17  1  6  0  0  0
 11 18  1  0  0  0  0
 12 16  1  6  0  0  0
 12 11  1  0  0  0  0
 12 18  1  0  0  0  0
 13 17  1  0  0  0  0
 14 16  1  0  0  0  0
 15 14  1  1  0  0  0
 15 13  1  0  0  0  0
 18  2  1  1  0  0  0
 19 21  1  6  0  0  0
 19 20  1  0  0  0  0
 19 22  1  0  0  0  0
 20 21  1  6  0  0  0
 20 22  1  0  0  0  0
 22 15  1  1  0  0  0
 23 25  1  0  0  0  0
 24 23  1  0  0  0  0
 24 25  1  0  0  0  0
 26  5  1  0  0  0  0
 27 28  1  0  0  0  0
 27 29  1  0  0  0  0
 28 30  1  1  0  0  0
 28 29  1  0  0  0  0
 29 26  1  6  0  0  0
 32 39  1  0  0  0  0
 33 41  1  0  0  0  0
 33 38  1  0  0  0  0
 34 39  1  6  0  0  0
 34 37  1  0  0  0  0
 35 31  1  0  0  0  0
 36 32  1  0  0  0  0
 36 31  2  0  0  0  0
 38 37  1  0  0  0  0
 38 30  1  1  0  0  0
 40 31  1  6  0  0  0
 40 34  1  0  0  0  0
 40 33  1  0  0  0  0
 42 41  1  0  0  0  0
 43 42  1  0  0  0  0
M  END
>  <MODEL>
8

>  <REMARK>
 VINA RESULT:      -8.1      2.290      6.463
  Name = 
  9 active torsions:
  status: ('A' for Active; 'I' for Inactive)
    1  A    between atoms: C_3  and  C_43
    2  A    between atoms: O_4  and  C_11
    3  A    between atoms: O_4  and  C_19
    4  A    between atoms: C_6  and  C_32
    5  A    between atoms: C_12  and  C_16
    6  A    between atoms: C_16  and  C_36
    7  A    between atoms: N_17  and  C_38
    8  A    between atoms: C_29  and  C_30
    9  A    between atoms: O_34  and  C_38
                            x       y       z     vdW  Elec       q    Type
                         _______ _______ _______ _____ _____    ______ ____

>  <TORSDO>
F 9

$$$$
=
 OpenBabel11042412563D

 43 52  0  0  1  0  0  0  0  0999 V2000
  186.3700  178.0620  145.3120 C   0  0  0  0  0  0  0  0  0  0  0  0
  188.1380  177.9730  143.1590 C   0  0  0  0  0  0  0  0  0  0  0  0
  188.5120  177.5460  144.3970 N   0  0  0  0  0  0  0  0  0  0  0  0
  185.4690  178.1080  146.3810 C   0  0  0  0  0  3  0  0  0  0  0  0
  186.8460  178.4870  142.9520 C   0  0  0  0  0  0  0  0  0  0  0  0
  184.1860  178.6190  146.1940 C   0  0  0  0  0  3  0  0  0  0  0  0
  184.6950  179.0320  143.8990 N   0  0  0  0  0  0  0  0  0  0  0  0
  183.8150  179.0840  144.9330 C   0  0  0  0  0  3  0  0  0  0  0  0
  185.9510  178.5270  144.0430 C   0  0  0  0  0  0  0  0  0  0  0  0
  187.6810  177.5810  145.4720 C   0  0  0  0  0  0  0  0  0  0  0  0
  188.8880  176.7440  141.1170 C   0  0  2  0  0  3  0  0  0  0  0  0
  190.0010  176.6800  142.1760 C   0  0  1  0  0  3  0  0  0  0  0  0
  190.3720  176.4590  139.0900 C   0  0  0  0  0  2  0  0  0  0  0  0
  191.7750  177.8890  140.6650 C   0  0  0  0  0  2  0  0  0  0  0  0
  191.6570  177.2650  139.2670 C   0  0  1  0  0  3  0  0  0  0  0  0
  191.4770  176.8780  141.7680 C   0  0  0  0  0  2  0  0  0  0  0  0
  189.1950  177.2050  139.6930 C   0  0  0  0  0  2  0  0  0  0  0  0
  189.1470  177.9290  142.0490 C   0  0  2  0  0  3  0  0  0  0  0  0
  192.4480  175.3260  137.9970 N   0  0  1  0  0  0  0  0  0  0  0  0
  193.2030  176.5070  137.5190 C   0  0  2  0  0  3  0  0  0  0  0  0
  193.5470  175.1770  137.0250 C   0  0  0  0  0  2  0  0  0  0  0  0
  192.8580  176.3910  138.9330 C   0  0  1  0  0  3  0  0  0  0  0  0
  188.1670  177.0520  146.7950 C   0  0  0  0  0  3  0  0  0  0  0  0
  188.8630  178.1590  147.5660 C   0  0  0  0  0  2  0  0  0  0  0  0
  189.6850  177.0970  146.8770 C   0  0  0  0  0  2  0  0  0  0  0  0
  186.5040  178.9510  141.6740 O   0  0  0  0  0  0  0  0  0  0  0  0
  184.4600  178.9730  140.4170 C   0  0  0  0  0  2  0  0  0  0  0  0
  185.6290  178.9960  139.4560 C   0  0  1  0  0  3  0  0  0  0  0  0
  185.7250  178.2100  140.7460 C   0  0  1  0  0  3  0  0  0  0  0  0
  185.3910  178.0300  138.3110 C   0  0  0  0  0  2  0  0  0  0  0  0
  188.6110  174.8650  136.1860 C   0  0  0  0  0  0  0  0  0  0  0  0
  190.2600  176.1830  134.8150 C   0  0  0  0  0  2  0  0  0  0  0  0
  186.7790  176.1200  137.3190 N   0  0  0  0  0  0  0  0  0  0  0  0
  188.5060  177.3270  136.1390 C   0  0  2  0  0  3  0  0  0  0  0  0
  188.1840  173.6270  136.7440 N   0  0  0  0  0  1  0  0  0  0  0  0
  189.7480  174.9120  135.4730 C   0  0  0  0  0  3  0  0  0  0  0  0
  187.3040  178.6270  136.3680 S   0  0  0  0  0  0  0  0  0  0  0  0
  186.7170  177.5490  137.7150 C   0  0  1  0  0  3  0  0  0  0  0  0
  189.2480  177.3430  134.8190 C   0  0  0  0  0  2  0  0  0  0  0  0
  187.6990  176.0600  136.1900 C   0  0  1  0  0  3  0  0  0  0  0  0
  185.4930  175.6610  136.7910 C   0  0  0  0  0  2  0  0  0  0  0  0
  185.0680  174.5470  137.5150 O   0  0  0  0  0  0  0  0  0  0  0  0
  183.6840  174.6950  137.5980 C   0  0  0  0  0  1  0  0  0  0  0  0
  1 10  1  0  0  0  0
  1  4  1  0  0  0  0
  2  3  1  0  0  0  0
  3 10  2  0  0  0  0
  5  2  2  0  0  0  0
  5  9  1  0  0  0  0
  6  4  2  0  0  0  0
  7  9  1  0  0  0  0
  7  8  2  0  0  0  0
  8  6  1  0  0  0  0
  9  1  2  0  0  0  0
 10 23  1  0  0  0  0
 11 17  1  6  0  0  0
 11 18  1  0  0  0  0
 11 12  1  0  0  0  0
 12 16  1  6  0  0  0
 13 17  1  0  0  0  0
 14 16  1  0  0  0  0
 15 13  1  1  0  0  0
 15 14  1  0  0  0  0
 18 12  1  0  0  0  0
 18  2  1  1  0  0  0
 19 21  1  1  0  0  0
 19 22  1  0  0  0  0
 20 21  1  1  0  0  0
 20 19  1  0  0  0  0
 20 22  1  0  0  0  0
 22 15  1  6  0  0  0
 23 25  1  0  0  0  0
 23 24  1  0  0  0  0
 25 24  1  0  0  0  0
 26  5  1  0  0  0  0
 27 29  1  0  0  0  0
 28 30  1  6  0  0  0
 28 27  1  0  0  0  0
 28 29  1  0  0  0  0
 29 26  1  1  0  0  0
 31 35  1  0  0  0  0
 32 39  1  0  0  0  0
 32 36  1  0  0  0  0
 33 38  1  0  0  0  0
 34 39  1  6  0  0  0
 34 40  1  0  0  0  0
 34 37  1  0  0  0  0
 36 31  2  0  0  0  0
 37 38  1  0  0  0  0
 38 30  1  6  0  0  0
 40 31  1  1  0  0  0
 40 33  1  0  0  0  0
 41 33  1  0  0  0  0
 41 42  1  0  0  0  0
 42 43  1  0  0  0  0
M  END
>  <MODEL>
9

>  <REMARK>
 VINA RESULT:      -8.1      3.021      7.456
  Name = 
  9 active torsions:
  status: ('A' for Active; 'I' for Inactive)
    1  A    between atoms: C_3  and  C_43
    2  A    between atoms: O_4  and  C_11
    3  A    between atoms: O_4  and  C_19
    4  A    between atoms: C_6  and  C_32
    5  A    between atoms: C_12  and  C_16
    6  A    between atoms: C_16  and  C_36
    7  A    between atoms: N_17  and  C_38
    8  A    between atoms: C_29  and  C_30
    9  A    between atoms: O_34  and  C_38
                            x       y       z     vdW  Elec       q    Type
                         _______ _______ _______ _____ _____    ______ ____

>  <TORSDO>
F 9

$$$$
