=
 OpenBabel11042412163D

 34 39  0  0  1  0  0  0  0  0999 V2000
  187.8460  178.6350  147.7570 N   0  0  0  0  0  0  0  0  0  0  0  0
  189.9150  177.6230  148.2340 N   0  0  0  0  0  0  0  0  0  0  0  0
  188.9030  178.4570  148.5890 C   0  0  0  0  0  3  0  0  0  0  0  0
  191.0550  176.0830  146.6920 C   0  0  0  0  0  1  0  0  0  0  0  0
  187.7740  178.0030  146.5500 C   0  0  0  0  0  0  0  0  0  0  0  0
  189.9080  176.9730  147.0390 C   0  0  0  0  0  0  0  0  0  0  0  0
  188.8500  177.1750  146.1430 C   0  0  0  0  0  0  0  0  0  0  0  0
  185.3990  178.1880  143.6160 C   0  0  0  0  0  3  0  0  0  0  0  0
  184.1890  178.5180  144.2430 C   0  0  0  0  0  0  0  0  0  0  0  0
  186.5620  178.0100  144.3710 C   0  0  0  0  0  3  0  0  0  0  0  0
  184.1670  178.7070  145.6340 C   0  0  0  0  0  3  0  0  0  0  0  0
  185.3290  178.5310  146.3890 C   0  0  0  0  0  3  0  0  0  0  0  0
  186.5280  178.1500  145.7670 C   0  0  0  0  0  0  0  0  0  0  0  0
  181.6900  178.7560  144.1050 N   0  0  0  0  0  2  0  0  0  0  0  0
  182.9600  178.6880  143.4510 C   0  0  0  0  0  0  0  0  0  0  0  0
  183.0270  178.7870  142.1960 O   0  0  0  0  0  0  0  0  0  0  0  0
  179.6310  177.7630  143.6530 O   0  0  0  0  0  0  0  0  0  0  0  0
  180.4480  178.8720  143.3620 C   0  0  1  0  0  3  0  0  0  0  0  0
  179.3070  178.9670  144.2980 C   0  0  0  0  0  2  0  0  0  0  0  0
  188.9420  176.6050  144.8300 N   0  0  0  0  0  2  0  0  0  0  0  0
  189.3660  176.3940  142.5800 C   0  0  2  0  0  3  0  0  0  0  0  0
  189.3640  177.3370  143.7130 N   0  0  0  0  0  0  0  0  0  0  0  0
  190.6180  176.7100  143.2630 C   0  0  0  0  0  2  0  0  0  0  0  0
  188.1590  178.6340  139.7920 N   0  0  0  0  0  0  0  0  0  0  0  0
  190.3770  177.1470  140.3860 O   0  0  0  0  0  0  0  0  0  0  0  0
  190.2480  177.6040  139.0350 C   0  0  2  0  0  3  0  0  0  0  0  0
  188.2090  177.8570  140.9940 C   0  0  0  0  0  3  0  0  0  0  0  0
  189.2980  177.1410  141.2830 C   0  0  0  0  0  0  0  0  0  0  0  0
  189.0130  179.4020  137.7360 N   0  0  0  0  0  1  0  0  0  0  0  0
  189.1070  178.5850  138.8990 C   0  0  0  0  0  0  0  0  0  0  0  0
  192.4710  176.4710  137.8690 C   0  0  0  0  0  1  0  0  0  0  0  0
  191.2400  175.7490  137.5820 N   0  0  0  0  0  0  0  0  0  0  0  0
  190.0080  176.3920  138.1240 C   0  0  2  0  0  3  0  0  0  0  0  0
  190.4350  176.6640  136.7560 C   0  0  0  0  0  2  0  0  0  0  0  0
  1  3  1  0  0  0  0
  2  3  2  0  0  0  0
  4  6  1  0  0  0  0
  5  1  2  0  0  0  0
  6  2  1  0  0  0  0
  7  5  1  0  0  0  0
  7  6  2  0  0  0  0
  8  9  2  0  0  0  0
  8 10  1  0  0  0  0
  9 11  1  0  0  0  0
 10 13  2  0  0  0  0
 11 12  2  0  0  0  0
 13 12  1  0  0  0  0
 13  5  1  0  0  0  0
 15 14  1  0  0  0  0
 15  9  1  0  0  0  0
 16 15  2  0  0  0  0
 17 19  1  0  0  0  0
 18 17  1  0  0  0  0
 18 14  1  1  0  0  0
 18 19  1  0  0  0  0
 20  7  1  0  0  0  0
 21 28  1  6  0  0  0
 21 23  1  0  0  0  0
 21 22  1  0  0  0  0
 22 20  1  0  0  0  0
 23 22  1  0  0  0  0
 24 27  1  0  0  0  0
 25 28  1  0  0  0  0
 26 30  1  1  0  0  0
 26 25  1  0  0  0  0
 27 28  2  0  0  0  0
 29 30  1  0  0  0  0
 30 24  2  0  0  0  0
 32 31  1  0  0  0  0
 32 33  1  0  0  0  0
 33 34  1  6  0  0  0
 33 26  1  0  0  0  0
 34 32  1  0  0  0  0
M  END
>  <MODEL>
1

>  <REMARK>
 VINA RESULT:     -10.0      0.000      0.000
  Name = 
  7 active torsions:
  status: ('A' for Active; 'I' for Inactive)
    1  A    between atoms: C_8  and  C_15
    2  A    between atoms: C_9  and  C_18
    3  A    between atoms: N_10  and  N_32
    4  A    between atoms: N_11  and  C_26
    5  A    between atoms: C_13  and  C_16
    6  A    between atoms: C_25  and  C_31
    7  A    between atoms: N_32  and  C_34
                            x       y       z     vdW  Elec       q    Type
                         _______ _______ _______ _____ _____    ______ ____

>  <TORSDO>
F 7

$$$$
=
 OpenBabel11042412163D

 34 39  0  0  1  0  0  0  0  0999 V2000
  187.3270  178.7660  147.7230 N   0  0  0  0  0  0  0  0  0  0  0  0
  189.3640  177.7620  148.3410 N   0  0  0  0  0  0  0  0  0  0  0  0
  188.3290  178.5970  148.6230 C   0  0  0  0  0  3  0  0  0  0  0  0
  190.6020  176.2110  146.8890 C   0  0  0  0  0  1  0  0  0  0  0  0
  187.3330  178.1220  146.5200 C   0  0  0  0  0  0  0  0  0  0  0  0
  189.4330  177.1020  147.1530 C   0  0  0  0  0  0  0  0  0  0  0  0
  188.4340  177.2930  146.1900 C   0  0  0  0  0  0  0  0  0  0  0  0
  185.1500  178.2780  143.4390 C   0  0  0  0  0  3  0  0  0  0  0  0
  183.9010  178.6090  143.9850 C   0  0  0  0  0  0  0  0  0  0  0  0
  186.2630  178.1090  144.2680 C   0  0  0  0  0  3  0  0  0  0  0  0
  183.7900  178.8080  145.3700 C   0  0  0  0  0  3  0  0  0  0  0  0
  184.9020  178.6410  146.1990 C   0  0  0  0  0  3  0  0  0  0  0  0
  186.1400  178.2590  145.6580 C   0  0  0  0  0  0  0  0  0  0  0  0
  182.8630  178.6540  141.6960 N   0  0  0  0  0  2  0  0  0  0  0  0
  182.7250  178.7680  143.1150 C   0  0  0  0  0  0  0  0  0  0  0  0
  181.5920  178.9930  143.6210 O   0  0  0  0  0  0  0  0  0  0  0  0
  182.2030  179.4470  139.6070 O   0  0  0  0  0  0  0  0  0  0  0  0
  181.7410  178.8520  140.7970 C   0  0  1  0  0  3  0  0  0  0  0  0
  181.9420  178.0690  139.5580 C   0  0  0  0  0  2  0  0  0  0  0  0
  188.6100  176.7110  144.8910 N   0  0  0  0  0  2  0  0  0  0  0  0
  189.1960  176.4790  142.6800 C   0  0  2  0  0  3  0  0  0  0  0  0
  189.0700  177.4420  143.7890 N   0  0  0  0  0  0  0  0  0  0  0  0
  190.3820  176.8710  143.4380 C   0  0  0  0  0  2  0  0  0  0  0  0
  188.0880  178.6330  139.7850 N   0  0  0  0  0  0  0  0  0  0  0  0
  190.3030  177.2060  140.5230 O   0  0  0  0  0  0  0  0  0  0  0  0
  190.2330  177.6300  139.1580 C   0  0  2  0  0  3  0  0  0  0  0  0
  188.0920  177.8820  141.0060 C   0  0  0  0  0  3  0  0  0  0  0  0
  189.1800  177.1960  141.3650 C   0  0  0  0  0  0  0  0  0  0  0  0
  189.0300  179.3740  137.7580 N   0  0  0  0  0  1  0  0  0  0  0  0
  189.0810  178.5840  138.9430 C   0  0  0  0  0  0  0  0  0  0  0  0
  192.5390  176.4780  138.1870 C   0  0  0  0  0  1  0  0  0  0  0  0
  191.3330  175.7440  137.8290 N   0  0  0  0  0  0  0  0  0  0  0  0
  190.0630  176.3940  138.2630 C   0  0  2  0  0  3  0  0  0  0  0  0
  190.5890  176.6330  136.9240 C   0  0  0  0  0  2  0  0  0  0  0  0
  1  3  1  0  0  0  0
  2  3  2  0  0  0  0
  4  6  1  0  0  0  0
  5  1  2  0  0  0  0
  6  2  1  0  0  0  0
  7  5  1  0  0  0  0
  7  6  2  0  0  0  0
  8  9  2  0  0  0  0
  8 10  1  0  0  0  0
  9 11  1  0  0  0  0
 10 13  2  0  0  0  0
 11 12  2  0  0  0  0
 13 12  1  0  0  0  0
 13  5  1  0  0  0  0
 14 15  1  0  0  0  0
 15 16  2  0  0  0  0
 15  9  1  0  0  0  0
 17 18  1  0  0  0  0
 18 14  1  1  0  0  0
 19 17  1  0  0  0  0
 19 18  1  0  0  0  0
 20  7  1  0  0  0  0
 21 28  1  6  0  0  0
 21 23  1  0  0  0  0
 21 22  1  0  0  0  0
 22 20  1  0  0  0  0
 23 22  1  0  0  0  0
 24 27  1  0  0  0  0
 25 28  1  0  0  0  0
 26 30  1  1  0  0  0
 26 25  1  0  0  0  0
 27 28  2  0  0  0  0
 29 30  1  0  0  0  0
 30 24  2  0  0  0  0
 32 31  1  0  0  0  0
 32 33  1  0  0  0  0
 33 34  1  6  0  0  0
 33 26  1  0  0  0  0
 34 32  1  0  0  0  0
M  END
>  <MODEL>
2

>  <REMARK>
 VINA RESULT:      -9.6      1.185      1.528
  Name = 
  7 active torsions:
  status: ('A' for Active; 'I' for Inactive)
    1  A    between atoms: C_8  and  C_15
    2  A    between atoms: C_9  and  C_18
    3  A    between atoms: N_10  and  N_32
    4  A    between atoms: N_11  and  C_26
    5  A    between atoms: C_13  and  C_16
    6  A    between atoms: C_25  and  C_31
    7  A    between atoms: N_32  and  C_34
                            x       y       z     vdW  Elec       q    Type
                         _______ _______ _______ _____ _____    ______ ____

>  <TORSDO>
F 7

$$$$
=
 OpenBabel11042412163D

 34 39  0  0  1  0  0  0  0  0999 V2000
  187.7720  177.6600  147.3580 N   0  0  0  0  0  0  0  0  0  0  0  0
  190.0660  177.1460  147.4420 N   0  0  0  0  0  0  0  0  0  0  0  0
  188.8770  177.3360  148.0740 C   0  0  0  0  0  3  0  0  0  0  0  0
  191.5150  177.0980  145.4560 C   0  0  0  0  0  1  0  0  0  0  0  0
  187.8190  177.8170  146.0030 C   0  0  0  0  0  0  0  0  0  0  0  0
  190.1810  177.3000  146.0950 C   0  0  0  0  0  0  0  0  0  0  0  0
  189.0640  177.6780  145.3390 C   0  0  0  0  0  0  0  0  0  0  0  0
  185.2770  178.0310  143.2150 C   0  0  0  0  0  3  0  0  0  0  0  0
  184.1560  178.5420  143.8840 C   0  0  0  0  0  0  0  0  0  0  0  0
  186.4650  177.7860  143.9100 C   0  0  0  0  0  3  0  0  0  0  0  0
  184.2510  178.8420  145.2520 C   0  0  0  0  0  3  0  0  0  0  0  0
  185.4390  178.5980  145.9470 C   0  0  0  0  0  3  0  0  0  0  0  0
  186.5440  178.0380  145.2880 C   0  0  0  0  0  0  0  0  0  0  0  0
  181.6750  178.9480  143.8790 N   0  0  0  0  0  2  0  0  0  0  0  0
  182.8990  178.7840  143.1570 C   0  0  0  0  0  0  0  0  0  0  0  0
  182.9020  178.8590  141.8990 O   0  0  0  0  0  0  0  0  0  0  0  0
  179.6470  177.9560  143.3010 O   0  0  0  0  0  0  0  0  0  0  0  0
  180.4050  179.1390  143.2020 C   0  0  1  0  0  3  0  0  0  0  0  0
  179.2930  179.0020  144.1680 C   0  0  0  0  0  2  0  0  0  0  0  0
  189.2460  177.9860  143.9510 N   0  0  0  0  0  2  0  0  0  0  0  0
  189.5410  177.4060  141.7450 C   0  0  2  0  0  3  0  0  0  0  0  0
  190.0730  177.2330  143.1090 N   0  0  0  0  0  0  0  0  0  0  0  0
  189.2120  176.2020  142.5040 C   0  0  0  0  0  2  0  0  0  0  0  0
  192.8270  177.3530  139.8890 N   0  0  0  0  0  0  0  0  0  0  0  0
  190.3870  176.1260  139.7330 O   0  0  0  0  0  0  0  0  0  0  0  0
  191.2470  176.0020  138.5950 C   0  0  2  0  0  3  0  0  0  0  0  0
  191.7830  177.6990  140.8070 C   0  0  0  0  0  3  0  0  0  0  0  0
  190.5980  177.0890  140.7310 C   0  0  0  0  0  0  0  0  0  0  0  0
  193.7140  176.2060  138.0340 N   0  0  0  0  0  1  0  0  0  0  0  0
  192.6290  176.5310  138.8970 C   0  0  0  0  0  0  0  0  0  0  0  0
  189.5250  174.6130  136.9530 C   0  0  0  0  0  1  0  0  0  0  0  0
  189.6370  176.0240  136.6080 N   0  0  0  0  0  0  0  0  0  0  0  0
  190.6320  176.7800  137.4220 C   0  0  2  0  0  3  0  0  0  0  0  0
  191.0210  176.2020  136.1410 C   0  0  0  0  0  2  0  0  0  0  0  0
  1  3  1  0  0  0  0
  2  3  2  0  0  0  0
  4  6  1  0  0  0  0
  5  1  2  0  0  0  0
  6  2  1  0  0  0  0
  7  5  1  0  0  0  0
  7  6  2  0  0  0  0
  8  9  2  0  0  0  0
  8 10  1  0  0  0  0
  9 11  1  0  0  0  0
 10 13  2  0  0  0  0
 11 12  2  0  0  0  0
 13 12  1  0  0  0  0
 13  5  1  0  0  0  0
 15 14  1  0  0  0  0
 15  9  1  0  0  0  0
 16 15  2  0  0  0  0
 17 19  1  0  0  0  0
 18 17  1  0  0  0  0
 18 14  1  1  0  0  0
 18 19  1  0  0  0  0
 20  7  1  0  0  0  0
 21 28  1  6  0  0  0
 21 23  1  0  0  0  0
 21 22  1  0  0  0  0
 22 20  1  0  0  0  0
 23 22  1  0  0  0  0
 24 27  1  0  0  0  0
 25 28  1  0  0  0  0
 26 30  1  1  0  0  0
 26 25  1  0  0  0  0
 28 27  2  0  0  0  0
 29 30  1  0  0  0  0
 30 24  2  0  0  0  0
 32 31  1  0  0  0  0
 32 33  1  0  0  0  0
 33 34  1  6  0  0  0
 33 26  1  0  0  0  0
 34 32  1  0  0  0  0
M  END
>  <MODEL>
3

>  <REMARK>
 VINA RESULT:      -9.4      1.411      1.953
  Name = 
  7 active torsions:
  status: ('A' for Active; 'I' for Inactive)
    1  A    between atoms: C_8  and  C_15
    2  A    between atoms: C_9  and  C_18
    3  A    between atoms: N_10  and  N_32
    4  A    between atoms: N_11  and  C_26
    5  A    between atoms: C_13  and  C_16
    6  A    between atoms: C_25  and  C_31
    7  A    between atoms: N_32  and  C_34
                            x       y       z     vdW  Elec       q    Type
                         _______ _______ _______ _____ _____    ______ ____

>  <TORSDO>
F 7

$$$$
=
 OpenBabel11042412163D

 34 39  0  0  1  0  0  0  0  0999 V2000
  187.6350  177.3290  147.2470 N   0  0  0  0  0  0  0  0  0  0  0  0
  189.9430  176.8820  147.3300 N   0  0  0  0  0  0  0  0  0  0  0  0
  188.7260  176.9080  147.9350 C   0  0  0  0  0  3  0  0  0  0  0  0
  191.4640  177.2640  145.4360 C   0  0  0  0  0  1  0  0  0  0  0  0
  187.7260  177.7460  145.9510 C   0  0  0  0  0  0  0  0  0  0  0  0
  190.1010  177.2960  146.0440 C   0  0  0  0  0  0  0  0  0  0  0  0
  188.9980  177.7770  145.3270 C   0  0  0  0  0  0  0  0  0  0  0  0
  184.1950  178.9140  145.2790 C   0  0  0  0  0  3  0  0  0  0  0  0
  184.0330  178.5830  143.9260 C   0  0  0  0  0  0  0  0  0  0  0  0
  185.4030  178.6510  145.9320 C   0  0  0  0  0  3  0  0  0  0  0  0
  185.0830  177.9470  143.2450 C   0  0  0  0  0  3  0  0  0  0  0  0
  186.2890  177.6820  143.8980 C   0  0  0  0  0  3  0  0  0  0  0  0
  186.4700  178.0600  145.2380 C   0  0  0  0  0  0  0  0  0  0  0  0
  181.5480  178.9600  143.9730 N   0  0  0  0  0  2  0  0  0  0  0  0
  182.7680  178.8770  143.2320 C   0  0  0  0  0  0  0  0  0  0  0  0
  182.7630  179.0700  141.9860 O   0  0  0  0  0  0  0  0  0  0  0  0
  179.4940  178.0260  143.3910 O   0  0  0  0  0  0  0  0  0  0  0  0
  180.2710  179.1980  143.3240 C   0  0  1  0  0  3  0  0  0  0  0  0
  179.1720  179.0450  144.3020 C   0  0  0  0  0  2  0  0  0  0  0  0
  189.2170  178.3530  144.0320 N   0  0  0  0  0  2  0  0  0  0  0  0
  188.8230  177.4930  141.9370 C   0  0  2  0  0  3  0  0  0  0  0  0
  189.8420  177.6570  142.9890 N   0  0  0  0  0  0  0  0  0  0  0  0
  189.1090  176.3870  142.8480 C   0  0  0  0  0  2  0  0  0  0  0  0
  191.4430  176.7970  139.3100 N   0  0  0  0  0  0  0  0  0  0  0  0
  188.7240  177.0720  139.4430 O   0  0  0  0  0  0  0  0  0  0  0  0
  189.3140  177.1090  138.1400 C   0  0  2  0  0  3  0  0  0  0  0  0
  190.8080  177.1140  140.5540 C   0  0  0  0  0  3  0  0  0  0  0  0
  189.4800  177.2370  140.6140 C   0  0  0  0  0  0  0  0  0  0  0  0
  191.4600  176.3840  136.9920 N   0  0  0  0  0  1  0  0  0  0  0  0
  190.7760  176.7290  138.1920 C   0  0  0  0  0  0  0  0  0  0  0  0
  186.8910  177.7230  136.9820 C   0  0  0  0  0  1  0  0  0  0  0  0
  187.8090  178.8530  137.0300 N   0  0  0  0  0  0  0  0  0  0  0  0
  189.1620  178.5260  137.5680 C   0  0  2  0  0  3  0  0  0  0  0  0
  188.9170  178.4940  136.1300 C   0  0  0  0  0  2  0  0  0  0  0  0
  1  3  1  0  0  0  0
  2  3  2  0  0  0  0
  4  6  1  0  0  0  0
  5  1  2  0  0  0  0
  6  2  1  0  0  0  0
  7  5  1  0  0  0  0
  7  6  2  0  0  0  0
  8 10  1  0  0  0  0
  9  8  2  0  0  0  0
 11 12  2  0  0  0  0
 11  9  1  0  0  0  0
 12 13  1  0  0  0  0
 13 10  2  0  0  0  0
 13  5  1  0  0  0  0
 15  9  1  0  0  0  0
 15 14  1  0  0  0  0
 16 15  2  0  0  0  0
 17 19  1  0  0  0  0
 18 17  1  0  0  0  0
 18 14  1  1  0  0  0
 18 19  1  0  0  0  0
 20  7  1  0  0  0  0
 21 28  1  6  0  0  0
 21 23  1  0  0  0  0
 21 22  1  0  0  0  0
 22 20  1  0  0  0  0
 23 22  1  0  0  0  0
 24 27  1  0  0  0  0
 25 28  1  0  0  0  0
 26 30  1  1  0  0  0
 26 25  1  0  0  0  0
 27 28  2  0  0  0  0
 29 30  1  0  0  0  0
 30 24  2  0  0  0  0
 31 32  1  0  0  0  0
 32 33  1  0  0  0  0
 33 34  1  6  0  0  0
 33 26  1  0  0  0  0
 34 32  1  0  0  0  0
M  END
>  <MODEL>
4

>  <REMARK>
 VINA RESULT:      -9.1      1.206      2.191
  Name = 
  7 active torsions:
  status: ('A' for Active; 'I' for Inactive)
    1  A    between atoms: C_8  and  C_15
    2  A    between atoms: C_9  and  C_18
    3  A    between atoms: N_10  and  N_32
    4  A    between atoms: N_11  and  C_26
    5  A    between atoms: C_13  and  C_16
    6  A    between atoms: C_25  and  C_31
    7  A    between atoms: N_32  and  C_34
                            x       y       z     vdW  Elec       q    Type
                         _______ _______ _______ _____ _____    ______ ____

>  <TORSDO>
F 7

$$$$
=
 OpenBabel11042412163D

 34 39  0  0  1  0  0  0  0  0999 V2000
  185.6710  179.5150  146.9230 N   0  0  0  0  0  0  0  0  0  0  0  0
  187.4280  178.5840  148.1810 N   0  0  0  0  0  0  0  0  0  0  0  0
  186.4050  179.4720  148.0640 C   0  0  0  0  0  3  0  0  0  0  0  0
  188.8980  176.8010  147.3400 C   0  0  0  0  0  1  0  0  0  0  0  0
  185.9400  178.6900  145.8700 C   0  0  0  0  0  0  0  0  0  0  0  0
  187.7530  177.7440  147.1620 C   0  0  0  0  0  0  0  0  0  0  0  0
  187.0390  177.7990  145.9580 C   0  0  0  0  0  0  0  0  0  0  0  0
  182.7410  178.8790  143.8670 C   0  0  0  0  0  3  0  0  0  0  0  0
  183.2040  178.6600  142.5610 C   0  0  0  0  0  0  0  0  0  0  0  0
  183.6360  178.9000  144.9400 C   0  0  0  0  0  3  0  0  0  0  0  0
  184.5710  178.4210  142.3490 C   0  0  0  0  0  3  0  0  0  0  0  0
  185.4650  178.4400  143.4220 C   0  0  0  0  0  3  0  0  0  0  0  0
  185.0090  178.7110  144.7210 C   0  0  0  0  0  0  0  0  0  0  0  0
  181.1300  179.5270  141.4350 N   0  0  0  0  0  2  0  0  0  0  0  0
  182.2650  178.6570  141.4270 C   0  0  0  0  0  0  0  0  0  0  0  0
  182.4680  177.8970  140.4420 O   0  0  0  0  0  0  0  0  0  0  0  0
  178.9340  180.0370  140.8480 O   0  0  0  0  0  0  0  0  0  0  0  0
  180.1510  179.5220  140.3630 C   0  0  1  0  0  3  0  0  0  0  0  0
  179.7160  180.9060  140.0710 C   0  0  0  0  0  2  0  0  0  0  0  0
  187.5000  177.0170  144.8490 N   0  0  0  0  0  2  0  0  0  0  0  0
  189.3610  176.6120  143.5600 C   0  0  2  0  0  3  0  0  0  0  0  0
  188.2560  177.5580  143.8010 N   0  0  0  0  0  0  0  0  0  0  0  0
  189.5970  177.8150  144.3550 C   0  0  0  0  0  2  0  0  0  0  0  0
  191.7670  177.2340  140.7180 N   0  0  0  0  0  0  0  0  0  0  0  0
  189.1230  176.6070  141.0400 O   0  0  0  0  0  0  0  0  0  0  0  0
  189.5290  177.0470  139.7400 C   0  0  2  0  0  3  0  0  0  0  0  0
  191.2040  177.1200  142.0310 C   0  0  0  0  0  3  0  0  0  0  0  0
  189.9160  176.8030  142.1810 C   0  0  0  0  0  0  0  0  0  0  0  0
  191.6550  177.2430  138.3670 N   0  0  0  0  0  1  0  0  0  0  0  0
  191.0340  177.1470  139.6440 C   0  0  0  0  0  0  0  0  0  0  0  0
  187.4550  177.1070  137.9290 C   0  0  0  0  0  1  0  0  0  0  0  0
  187.7180  178.3990  138.5460 N   0  0  0  0  0  0  0  0  0  0  0  0
  188.8950  178.4180  139.4620 C   0  0  2  0  0  3  0  0  0  0  0  0
  189.0490  178.7990  138.0620 C   0  0  0  0  0  2  0  0  0  0  0  0
  1  3  1  0  0  0  0
  3  2  2  0  0  0  0
  5  7  1  0  0  0  0
  5  1  2  0  0  0  0
  6  4  1  0  0  0  0
  6  2  1  0  0  0  0
  7  6  2  0  0  0  0
  8 10  1  0  0  0  0
  9  8  2  0  0  0  0
 11  9  1  0  0  0  0
 11 12  2  0  0  0  0
 12 13  1  0  0  0  0
 13 10  2  0  0  0  0
 13  5  1  0  0  0  0
 15 14  1  0  0  0  0
 15  9  1  0  0  0  0
 16 15  2  0  0  0  0
 18 17  1  0  0  0  0
 18 14  1  1  0  0  0
 19 18  1  0  0  0  0
 19 17  1  0  0  0  0
 20  7  1  0  0  0  0
 21 28  1  6  0  0  0
 21 22  1  0  0  0  0
 21 23  1  0  0  0  0
 22 23  1  0  0  0  0
 22 20  1  0  0  0  0
 24 27  1  0  0  0  0
 25 28  1  0  0  0  0
 26 30  1  1  0  0  0
 26 25  1  0  0  0  0
 27 28  2  0  0  0  0
 29 30  1  0  0  0  0
 30 24  2  0  0  0  0
 31 32  1  0  0  0  0
 32 33  1  0  0  0  0
 33 34  1  6  0  0  0
 33 26  1  0  0  0  0
 34 32  1  0  0  0  0
M  END
>  <MODEL>
5

>  <REMARK>
 VINA RESULT:      -8.7      1.833      2.792
  Name = 
  7 active torsions:
  status: ('A' for Active; 'I' for Inactive)
    1  A    between atoms: C_8  and  C_15
    2  A    between atoms: C_9  and  C_18
    3  A    between atoms: N_10  and  N_32
    4  A    between atoms: N_11  and  C_26
    5  A    between atoms: C_13  and  C_16
    6  A    between atoms: C_25  and  C_31
    7  A    between atoms: N_32  and  C_34
                            x       y       z     vdW  Elec       q    Type
                         _______ _______ _______ _____ _____    ______ ____

>  <TORSDO>
F 7

$$$$
=
 OpenBabel11042412163D

 34 39  0  0  1  0  0  0  0  0999 V2000
  180.0300  177.8870  140.1900 N   0  0  0  0  0  0  0  0  0  0  0  0
  179.0220  178.0220  142.3110 N   0  0  0  0  0  0  0  0  0  0  0  0
  178.9310  177.7760  140.9770 C   0  0  0  0  0  3  0  0  0  0  0  0
  180.2360  178.6780  144.3470 C   0  0  0  0  0  1  0  0  0  0  0  0
  181.2410  178.2530  140.7020 C   0  0  0  0  0  0  0  0  0  0  0  0
  180.1970  178.4030  142.8790 C   0  0  0  0  0  0  0  0  0  0  0  0
  181.3360  178.5670  142.0810 C   0  0  0  0  0  0  0  0  0  0  0  0
  184.0630  176.9380  138.5600 C   0  0  0  0  0  3  0  0  0  0  0  0
  184.6980  178.1230  138.1580 C   0  0  0  0  0  0  0  0  0  0  0  0
  182.9310  176.9850  139.3790 C   0  0  0  0  0  3  0  0  0  0  0  0
  184.2080  179.3540  138.6210 C   0  0  0  0  0  3  0  0  0  0  0  0
  183.0770  179.4010  139.4410 C   0  0  0  0  0  3  0  0  0  0  0  0
  182.4110  178.2190  139.8000 C   0  0  0  0  0  0  0  0  0  0  0  0
  187.0960  178.7100  137.6830 N   0  0  0  0  0  2  0  0  0  0  0  0
  185.8790  178.0760  137.2810 C   0  0  0  0  0  0  0  0  0  0  0  0
  185.8220  177.4650  136.1790 O   0  0  0  0  0  0  0  0  0  0  0  0
  189.2460  179.5650  137.4080 O   0  0  0  0  0  0  0  0  0  0  0  0
  188.2690  178.7320  136.8290 C   0  0  1  0  0  3  0  0  0  0  0  0
  189.4340  178.1820  137.5570 C   0  0  0  0  0  2  0  0  0  0  0  0
  182.5190  179.1200  142.6750 N   0  0  0  0  0  2  0  0  0  0  0  0
  184.6760  179.1950  143.4670 C   0  0  2  0  0  3  0  0  0  0  0  0
  183.4940  178.3310  143.2990 N   0  0  0  0  0  0  0  0  0  0  0  0
  184.6210  178.2510  142.3540 C   0  0  0  0  0  2  0  0  0  0  0  0
  186.2430  178.5620  146.8420 N   0  0  0  0  0  0  0  0  0  0  0  0
  186.4870  177.6270  144.2830 O   0  0  0  0  0  0  0  0  0  0  0  0
  187.5330  177.2860  145.1980 C   0  0  2  0  0  3  0  0  0  0  0  0
  185.4490  179.1210  145.7880 C   0  0  0  0  0  3  0  0  0  0  0  0
  185.5660  178.6530  144.5440 C   0  0  0  0  0  0  0  0  0  0  0  0
  187.9060  177.1360  147.7050 N   0  0  0  0  0  1  0  0  0  0  0  0
  187.1680  177.6740  146.6120 C   0  0  0  0  0  0  0  0  0  0  0  0
  189.0300  176.0890  143.2200 C   0  0  0  0  0  1  0  0  0  0  0  0
  189.5560  177.3810  143.6380 N   0  0  0  0  0  0  0  0  0  0  0  0
  188.8190  178.0100  144.7720 C   0  0  2  0  0  3  0  0  0  0  0  0
  189.9980  177.1910  145.0290 C   0  0  0  0  0  2  0  0  0  0  0  0
  1  5  2  0  0  0  0
  1  3  1  0  0  0  0
  2  6  1  0  0  0  0
  3  2  2  0  0  0  0
  5  7  1  0  0  0  0
  6  4  1  0  0  0  0
  7 20  1  0  0  0  0
  7  6  2  0  0  0  0
  8 10  1  0  0  0  0
  9  8  2  0  0  0  0
  9 11  1  0  0  0  0
 10 13  2  0  0  0  0
 11 12  2  0  0  0  0
 12 13  1  0  0  0  0
 13  5  1  0  0  0  0
 15 14  1  0  0  0  0
 15  9  1  0  0  0  0
 16 15  2  0  0  0  0
 17 19  1  0  0  0  0
 18 17  1  0  0  0  0
 18 19  1  0  0  0  0
 18 14  1  1  0  0  0
 20 22  1  0  0  0  0
 21 28  1  1  0  0  0
 22 21  1  0  0  0  0
 23 22  1  0  0  0  0
 23 21  1  0  0  0  0
 25 28  1  0  0  0  0
 26 25  1  6  0  0  0
 26 30  1  0  0  0  0
 27 24  1  0  0  0  0
 28 27  2  0  0  0  0
 30 24  2  0  0  0  0
 30 29  1  0  0  0  0
 31 32  1  0  0  0  0
 32 33  1  0  0  0  0
 32 34  1  0  0  0  0
 33 34  1  1  0  0  0
 33 26  1  0  0  0  0
M  END
>  <MODEL>
6

>  <REMARK>
 VINA RESULT:      -8.7      2.931      8.320
  Name = 
  7 active torsions:
  status: ('A' for Active; 'I' for Inactive)
    1  A    between atoms: C_8  and  C_15
    2  A    between atoms: C_9  and  C_18
    3  A    between atoms: N_10  and  N_32
    4  A    between atoms: N_11  and  C_26
    5  A    between atoms: C_13  and  C_16
    6  A    between atoms: C_25  and  C_31
    7  A    between atoms: N_32  and  C_34
                            x       y       z     vdW  Elec       q    Type
                         _______ _______ _______ _____ _____    ______ ____

>  <TORSDO>
F 7

$$$$
=
 OpenBabel11042412163D

 34 39  0  0  1  0  0  0  0  0999 V2000
  191.4530  176.6320  139.4380 N   0  0  0  0  0  0  0  0  0  0  0  0
  190.3580  177.0420  137.3960 N   0  0  0  0  0  0  0  0  0  0  0  0
  191.4080  176.5240  138.0860 C   0  0  0  0  0  3  0  0  0  0  0  0
  188.2290  178.2620  137.2240 C   0  0  0  0  0  1  0  0  0  0  0  0
  190.4660  177.2660  140.1360 C   0  0  0  0  0  0  0  0  0  0  0  0
  189.3500  177.6970  138.0340 C   0  0  0  0  0  0  0  0  0  0  0  0
  189.3950  177.8600  139.4240 C   0  0  0  0  0  0  0  0  0  0  0  0
  189.8970  176.1570  143.7030 C   0  0  0  0  0  3  0  0  0  0  0  0
  190.5470  177.1660  144.4280 C   0  0  0  0  0  0  0  0  0  0  0  0
  189.8820  176.1860  142.3060 C   0  0  0  0  0  3  0  0  0  0  0  0
  191.1490  178.2290  143.7350 C   0  0  0  0  0  3  0  0  0  0  0  0
  191.1330  178.2590  142.3380 C   0  0  0  0  0  3  0  0  0  0  0  0
  190.5270  177.2220  141.6120 C   0  0  0  0  0  0  0  0  0  0  0  0
  189.3590  177.1580  146.6430 N   0  0  0  0  0  2  0  0  0  0  0  0
  190.5800  177.1260  145.8990 C   0  0  0  0  0  0  0  0  0  0  0  0
  191.6830  177.0500  146.5040 O   0  0  0  0  0  0  0  0  0  0  0  0
  189.4000  178.5040  148.5450 O   0  0  0  0  0  0  0  0  0  0  0  0
  189.3450  177.1710  148.0950 C   0  0  1  0  0  3  0  0  0  0  0  0
  188.1420  177.8820  148.5820 C   0  0  0  0  0  2  0  0  0  0  0  0
  188.4040  178.6870  140.0510 N   0  0  0  0  0  2  0  0  0  0  0  0
  186.5740  179.2730  141.3140 C   0  0  2  0  0  3  0  0  0  0  0  0
  187.1960  178.1800  140.5450 N   0  0  0  0  0  0  0  0  0  0  0  0
  187.3050  178.2190  142.0130 C   0  0  0  0  0  2  0  0  0  0  0  0
  183.1620  178.6800  142.8150 N   0  0  0  0  0  0  0  0  0  0  0  0
  184.2470  179.0870  140.3370 O   0  0  0  0  0  0  0  0  0  0  0  0
  182.9030  178.5970  140.3820 C   0  0  2  0  0  3  0  0  0  0  0  0
  184.5790  178.8320  142.6610 C   0  0  0  0  0  3  0  0  0  0  0  0
  185.1000  179.0400  141.4500 C   0  0  0  0  0  0  0  0  0  0  0  0
  180.9570  178.5010  142.0100 N   0  0  0  0  0  1  0  0  0  0  0  0
  182.3590  178.6270  141.7910 C   0  0  0  0  0  0  0  0  0  0  0  0
  182.0890  178.2650  137.7710 C   0  0  0  0  0  1  0  0  0  0  0  0
  182.5230  177.0260  138.4010 N   0  0  0  0  0  0  0  0  0  0  0  0
  182.8810  177.1600  139.8430 C   0  0  2  0  0  3  0  0  0  0  0  0
  181.5330  176.7580  139.4570 C   0  0  0  0  0  2  0  0  0  0  0  0
  1  5  1  0  0  0  0
  2  6  2  0  0  0  0
  2  3  1  0  0  0  0
  3  1  2  0  0  0  0
  4  6  1  0  0  0  0
  5 13  1  0  0  0  0
  6  7  1  0  0  0  0
  7 20  1  0  0  0  0
  7  5  2  0  0  0  0
  8  9  1  0  0  0  0
  9 15  1  0  0  0  0
 10  8  2  0  0  0  0
 11  9  2  0  0  0  0
 12 11  1  0  0  0  0
 13 10  1  0  0  0  0
 13 12  2  0  0  0  0
 15 16  2  0  0  0  0
 15 14  1  0  0  0  0
 17 19  1  0  0  0  0
 18 14  1  6  0  0  0
 18 17  1  0  0  0  0
 18 19  1  0  0  0  0
 20 22  1  0  0  0  0
 21 28  1  1  0  0  0
 21 23  1  0  0  0  0
 22 21  1  0  0  0  0
 22 23  1  0  0  0  0
 25 28  1  0  0  0  0
 26 25  1  1  0  0  0
 26 30  1  0  0  0  0
 27 24  1  0  0  0  0
 28 27  2  0  0  0  0
 30 29  1  0  0  0  0
 30 24  2  0  0  0  0
 31 32  1  0  0  0  0
 32 34  1  0  0  0  0
 32 33  1  0  0  0  0
 33 34  1  1  0  0  0
 33 26  1  0  0  0  0
M  END
>  <MODEL>
7

>  <REMARK>
 VINA RESULT:      -8.7      2.922      7.845
  Name = 
  7 active torsions:
  status: ('A' for Active; 'I' for Inactive)
    1  A    between atoms: C_8  and  C_15
    2  A    between atoms: C_9  and  C_18
    3  A    between atoms: N_10  and  N_32
    4  A    between atoms: N_11  and  C_26
    5  A    between atoms: C_13  and  C_16
    6  A    between atoms: C_25  and  C_31
    7  A    between atoms: N_32  and  C_34
                            x       y       z     vdW  Elec       q    Type
                         _______ _______ _______ _____ _____    ______ ____

>  <TORSDO>
F 7

$$$$
=
 OpenBabel11042412163D

 34 39  0  0  1  0  0  0  0  0999 V2000
  187.5140  177.5500  146.3830 N   0  0  0  0  0  0  0  0  0  0  0  0
  189.7920  177.1260  145.9790 N   0  0  0  0  0  0  0  0  0  0  0  0
  188.7390  177.1840  146.8360 C   0  0  0  0  0  3  0  0  0  0  0  0
  190.8460  177.3910  143.7730 C   0  0  0  0  0  1  0  0  0  0  0  0
  187.3050  177.8780  145.0750 C   0  0  0  0  0  0  0  0  0  0  0  0
  189.6520  177.4540  144.6660 C   0  0  0  0  0  0  0  0  0  0  0  0
  188.4060  177.8780  144.1830 C   0  0  0  0  0  0  0  0  0  0  0  0
  184.2660  178.2530  142.8600 C   0  0  0  0  0  3  0  0  0  0  0  0
  183.3000  178.7090  143.7690 C   0  0  0  0  0  0  0  0  0  0  0  0
  185.5660  177.9730  143.2910 C   0  0  0  0  0  3  0  0  0  0  0  0
  183.6640  178.9200  145.1090 C   0  0  0  0  0  3  0  0  0  0  0  0
  184.9630  178.6410  145.5390 C   0  0  0  0  0  3  0  0  0  0  0  0
  185.9160  178.1350  144.6410 C   0  0  0  0  0  0  0  0  0  0  0  0
  181.6400  179.1140  141.9250 N   0  0  0  0  0  2  0  0  0  0  0  0
  181.9260  178.9870  143.3200 C   0  0  0  0  0  0  0  0  0  0  0  0
  180.9970  179.0990  144.1650 O   0  0  0  0  0  0  0  0  0  0  0  0
  180.1290  180.8320  141.4830 O   0  0  0  0  0  0  0  0  0  0  0  0
  180.3100  179.4360  141.4390 C   0  0  1  0  0  3  0  0  0  0  0  0
  180.4060  180.2740  140.2240 C   0  0  0  0  0  2  0  0  0  0  0  0
  188.3210  178.3670  142.8380 N   0  0  0  0  0  2  0  0  0  0  0  0
  189.0650  178.2180  140.6670 C   0  0  2  0  0  3  0  0  0  0  0  0
  188.3090  177.5200  141.7220 N   0  0  0  0  0  0  0  0  0  0  0  0
  187.6040  178.2550  140.6580 C   0  0  0  0  0  2  0  0  0  0  0  0
  191.2350  175.7460  138.8150 N   0  0  0  0  0  0  0  0  0  0  0  0
  188.7180  176.7990  138.6010 O   0  0  0  0  0  0  0  0  0  0  0  0
  189.2250  176.0980  137.4600 C   0  0  2  0  0  3  0  0  0  0  0  0
  190.7820  176.7370  139.7460 C   0  0  0  0  0  3  0  0  0  0  0  0
  189.5500  177.2390  139.6420 C   0  0  0  0  0  0  0  0  0  0  0  0
  191.0100  174.3780  136.9120 N   0  0  0  0  0  1  0  0  0  0  0  0
  190.5180  175.3880  137.7880 C   0  0  0  0  0  0  0  0  0  0  0  0
  187.1730  176.4040  135.6480 C   0  0  0  0  0  1  0  0  0  0  0  0
  188.2890  177.3100  135.4130 N   0  0  0  0  0  0  0  0  0  0  0  0
  189.4530  177.1030  136.3220 C   0  0  2  0  0  3  0  0  0  0  0  0
  189.4150  176.4480  135.0200 C   0  0  0  0  0  2  0  0  0  0  0  0
  1  3  1  0  0  0  0
  2  3  2  0  0  0  0
  4  6  1  0  0  0  0
  5  1  2  0  0  0  0
  6  2  1  0  0  0  0
  7  6  2  0  0  0  0
  7  5  1  0  0  0  0
  8 10  2  0  0  0  0
  8  9  1  0  0  0  0
  9 11  2  0  0  0  0
 10 13  1  0  0  0  0
 11 12  1  0  0  0  0
 13  5  1  0  0  0  0
 13 12  2  0  0  0  0
 14 15  1  0  0  0  0
 15  9  1  0  0  0  0
 15 16  2  0  0  0  0
 18 17  1  0  0  0  0
 18 14  1  1  0  0  0
 19 18  1  0  0  0  0
 19 17  1  0  0  0  0
 20  7  1  0  0  0  0
 21 28  1  6  0  0  0
 21 22  1  0  0  0  0
 22 20  1  0  0  0  0
 23 21  1  0  0  0  0
 23 22  1  0  0  0  0
 24 27  1  0  0  0  0
 25 28  1  0  0  0  0
 26 30  1  1  0  0  0
 26 25  1  0  0  0  0
 28 27  2  0  0  0  0
 29 30  1  0  0  0  0
 30 24  2  0  0  0  0
 32 31  1  0  0  0  0
 32 33  1  0  0  0  0
 33 34  1  6  0  0  0
 33 26  1  0  0  0  0
 34 32  1  0  0  0  0
M  END
>  <MODEL>
8

>  <REMARK>
 VINA RESULT:      -8.6      1.793      2.858
  Name = 
  7 active torsions:
  status: ('A' for Active; 'I' for Inactive)
    1  A    between atoms: C_8  and  C_15
    2  A    between atoms: C_9  and  C_18
    3  A    between atoms: N_10  and  N_32
    4  A    between atoms: N_11  and  C_26
    5  A    between atoms: C_13  and  C_16
    6  A    between atoms: C_25  and  C_31
    7  A    between atoms: N_32  and  C_34
                            x       y       z     vdW  Elec       q    Type
                         _______ _______ _______ _____ _____    ______ ____

>  <TORSDO>
F 7

$$$$
=
 OpenBabel11042412163D

 34 39  0  0  1  0  0  0  0  0999 V2000
  181.1020  178.1990  141.7450 N   0  0  0  0  0  0  0  0  0  0  0  0
  180.5270  178.8250  139.5510 N   0  0  0  0  0  0  0  0  0  0  0  0
  180.1790  178.2990  140.7560 C   0  0  0  0  0  3  0  0  0  0  0  0
  182.1300  179.7880  137.9550 C   0  0  0  0  0  1  0  0  0  0  0  0
  182.3920  178.6050  141.5610 C   0  0  0  0  0  0  0  0  0  0  0  0
  181.7990  179.2350  139.3020 C   0  0  0  0  0  0  0  0  0  0  0  0
  182.7810  179.1020  140.2920 C   0  0  0  0  0  0  0  0  0  0  0  0
  183.6810  179.0290  145.0880 C   0  0  0  0  0  3  0  0  0  0  0  0
  185.0230  178.6440  144.9540 C   0  0  0  0  0  0  0  0  0  0  0  0
  182.8240  179.0050  143.9830 C   0  0  0  0  0  3  0  0  0  0  0  0
  185.5070  178.2720  143.6900 C   0  0  0  0  0  3  0  0  0  0  0  0
  184.6510  178.2480  142.5850 C   0  0  0  0  0  3  0  0  0  0  0  0
  183.2960  178.5840  142.7300 C   0  0  0  0  0  0  0  0  0  0  0  0
  187.1080  177.8530  146.1150 N   0  0  0  0  0  2  0  0  0  0  0  0
  185.9220  178.6510  146.1200 C   0  0  0  0  0  0  0  0  0  0  0  0
  185.6530  179.3720  147.1190 O   0  0  0  0  0  0  0  0  0  0  0  0
  188.7390  176.5960  147.2050 O   0  0  0  0  0  0  0  0  0  0  0  0
  187.9970  177.7910  147.2610 C   0  0  1  0  0  3  0  0  0  0  0  0
  189.4050  177.7660  146.8070 C   0  0  0  0  0  2  0  0  0  0  0  0
  184.1440  179.3940  139.9530 N   0  0  0  0  0  2  0  0  0  0  0  0
  186.1550  178.9730  138.9220 C   0  0  2  0  0  3  0  0  0  0  0  0
  185.1160  178.3990  139.7960 N   0  0  0  0  0  0  0  0  0  0  0  0
  185.1470  178.0800  138.3580 C   0  0  0  0  0  2  0  0  0  0  0  0
  189.0570  176.6390  138.3060 N   0  0  0  0  0  0  0  0  0  0  0  0
  188.3240  178.5250  140.1470 O   0  0  0  0  0  0  0  0  0  0  0  0
  189.4100  177.6620  140.5030 C   0  0  2  0  0  3  0  0  0  0  0  0
  187.7930  177.3050  138.1960 C   0  0  0  0  0  3  0  0  0  0  0  0
  187.4460  178.2310  139.0930 C   0  0  0  0  0  0  0  0  0  0  0  0
  191.1050  176.1550  139.3620 N   0  0  0  0  0  1  0  0  0  0  0  0
  189.8490  176.8260  139.3230 C   0  0  0  0  0  0  0  0  0  0  0  0
  190.0510  178.4800  143.0540 C   0  0  0  0  0  1  0  0  0  0  0  0
  189.2450  177.2670  143.0230 N   0  0  0  0  0  0  0  0  0  0  0  0
  188.9610  176.7500  141.6530 C   0  0  2  0  0  3  0  0  0  0  0  0
  190.1030  176.2440  142.4050 C   0  0  0  0  0  2  0  0  0  0  0  0
  2  3  1  0  0  0  0
  3  1  2  0  0  0  0
  4  6  1  0  0  0  0
  5  1  1  0  0  0  0
  5 13  1  0  0  0  0
  6  2  2  0  0  0  0
  6  7  1  0  0  0  0
  7  5  2  0  0  0  0
  9  8  1  0  0  0  0
  9 15  1  0  0  0  0
 10  8  2  0  0  0  0
 11  9  2  0  0  0  0
 12 13  2  0  0  0  0
 12 11  1  0  0  0  0
 13 10  1  0  0  0  0
 14 15  1  0  0  0  0
 15 16  2  0  0  0  0
 17 18  1  0  0  0  0
 18 14  1  6  0  0  0
 19 17  1  0  0  0  0
 19 18  1  0  0  0  0
 20  7  1  0  0  0  0
 21 28  1  1  0  0  0
 21 22  1  0  0  0  0
 22 20  1  0  0  0  0
 23 21  1  0  0  0  0
 23 22  1  0  0  0  0
 24 30  2  0  0  0  0
 25 26  1  0  0  0  0
 26 30  1  6  0  0  0
 26 33  1  0  0  0  0
 27 24  1  0  0  0  0
 27 28  2  0  0  0  0
 28 25  1  0  0  0  0
 30 29  1  0  0  0  0
 32 31  1  0  0  0  0
 33 34  1  6  0  0  0
 33 32  1  0  0  0  0
 34 32  1  0  0  0  0
M  END
>  <MODEL>
9

>  <REMARK>
 VINA RESULT:      -8.6      2.827      6.832
  Name = 
  7 active torsions:
  status: ('A' for Active; 'I' for Inactive)
    1  A    between atoms: C_8  and  C_15
    2  A    between atoms: C_9  and  C_18
    3  A    between atoms: N_10  and  N_32
    4  A    between atoms: N_11  and  C_26
    5  A    between atoms: C_13  and  C_16
    6  A    between atoms: C_25  and  C_31
    7  A    between atoms: N_32  and  C_34
                            x       y       z     vdW  Elec       q    Type
                         _______ _______ _______ _____ _____    ______ ____

>  <TORSDO>
F 7

$$$$
