=
 OpenBabel11042411523D

 35 38  0  0  1  0  0  0  0  0999 V2000
  189.1080  177.4710  144.2960 C   0  0  0  0  0  0  0  0  0  0  0  0
  189.4610  177.6040  142.9280 C   0  0  0  0  0  0  0  0  0  0  0  0
  192.3860  177.4380  140.7870 O   0  0  0  0  0  0  0  0  0  0  0  0
  188.8030  178.0990  140.6050 C   0  0  0  0  0  3  0  0  0  0  0  0
  191.3980  176.8250  144.7700 C   0  0  0  0  0  3  0  0  0  0  0  0
  190.1120  177.5990  140.0550 C   0  0  1  0  0  3  0  0  0  0  0  0
  190.0970  177.0750  145.2050 C   0  0  0  0  0  3  0  0  0  0  0  0
  188.4990  178.0680  141.9050 C   0  0  0  0  0  3  0  0  0  0  0  0
  191.1700  177.4730  141.1190 C   0  0  0  0  0  0  0  0  0  0  0  0
  191.7130  176.9620  143.4570 N   0  0  0  0  0  0  0  0  0  0  0  0
  190.7870  177.3350  142.5350 C   0  0  0  0  0  0  0  0  0  0  0  0
  188.1060  175.3850  135.3300 O   0  0  0  0  0  0  0  0  0  0  0  0
  189.8980  176.3060  139.4170 N   0  0  0  0  0  2  0  0  0  0  0  0
  190.0310  177.1200  137.1900 N   0  0  0  0  0  0  0  0  0  0  0  0
  189.4680  175.3500  135.6620 C   0  0  2  0  0  3  0  0  0  0  0  0
  187.9350  176.5660  134.5940 C   0  0  0  0  0  2  0  0  0  0  0  0
  188.9130  177.5970  135.1090 C   0  0  0  0  0  2  0  0  0  0  0  0
  189.6890  174.5220  137.2700 S   0  0  0  0  0  0  0  0  0  0  0  0
  189.9760  176.7790  135.7810 C   0  0  1  0  0  3  0  0  0  0  0  0
  189.9220  176.1260  138.0000 C   0  0  0  0  0  0  0  0  0  0  0  0
  186.6650  177.9600  143.9050 N   0  0  0  0  0  2  0  0  0  0  0  0
  185.3030  178.2140  144.2690 C   0  0  0  0  0  0  0  0  0  0  0  0
  187.5250  177.7540  146.0640 O   0  0  0  0  0  0  0  0  0  0  0  0
  187.7430  177.7300  144.8240 C   0  0  0  0  0  0  0  0  0  0  0  0
  184.9490  178.2470  145.4780 O   0  0  0  0  0  0  0  0  0  0  0  0
  184.3010  178.4750  143.2030 C   0  0  0  0  0  2  0  0  0  0  0  0
  185.0000  178.9670  141.9530 C   0  0  0  0  0  2  0  0  0  0  0  0
  184.1870  178.5790  140.7300 C   0  0  0  0  0  2  0  0  0  0  0  0
  184.8060  179.0970  139.4260 C   0  0  1  0  0  3  0  0  0  0  0  0
  183.9240  177.0020  138.5610 O   0  0  0  0  0  1  0  0  0  0  0  0
  184.6930  178.1240  138.2430 C   0  0  2  0  0  3  0  0  0  0  0  0
  186.0510  177.7170  137.6820 C   0  0  0  0  0  2  0  0  0  0  0  0
  186.9010  178.8210  137.5780 O   0  0  0  0  0  1  0  0  0  0  0  0
  182.9290  180.1220  138.8500 C   0  0  0  0  0  1  0  0  0  0  0  0
  184.2860  180.3490  139.0850 O   0  0  0  0  0  0  0  0  0  0  0  0
  1 24  1  0  0  0  0
  1  7  1  0  0  0  0
  2  1  2  0  0  0  0
  3  9  2  0  0  0  0
  4  8  2  0  0  0  0
  5  7  2  0  0  0  0
  6 13  1  1  0  0  0
  6  4  1  0  0  0  0
  6  9  1  0  0  0  0
  8  2  1  0  0  0  0
  9 11  1  0  0  0  0
 10  5  1  0  0  0  0
 11  2  1  0  0  0  0
 11 10  2  0  0  0  0
 14 20  2  0  0  0  0
 15 12  1  1  0  0  0
 15 19  1  0  0  0  0
 15 18  1  0  0  0  0
 16 17  1  0  0  0  0
 16 12  1  0  0  0  0
 18 20  1  0  0  0  0
 19 17  1  6  0  0  0
 19 14  1  0  0  0  0
 20 13  1  0  0  0  0
 21 22  1  0  0  0  0
 21 24  1  0  0  0  0
 22 25  2  0  0  0  0
 24 23  2  0  0  0  0
 26 22  1  0  0  0  0
 27 26  1  0  0  0  0
 28 27  1  0  0  0  0
 29 28  1  1  0  0  0
 31 30  1  1  0  0  0
 31 29  1  0  0  0  0
 32 31  1  0  0  0  0
 33 32  1  0  0  0  0
 34 35  1  0  0  0  0
 35 29  1  0  0  0  0
M  END
>  <MODEL>
1

>  <REMARK>
 VINA RESULT:      -8.1      0.000      0.000
  Name = 
  9 active torsions:
  status: ('A' for Active; 'I' for Inactive)
    1  A    between atoms: C_1  and  C_24
    2  A    between atoms: C_6  and  C_10
    3  A    between atoms: C_6  and  C_12
    4  A    between atoms: N_8  and  C_17
    5  A    between atoms: C_10  and  C_19
    6  A    between atoms: C_11  and  C_12
    7  A    between atoms: C_11  and  C_32
    8  A    between atoms: C_11  and  O_35
    9  A    between atoms: C_13  and  C_32
                            x       y       z     vdW  Elec       q    Type
                         _______ _______ _______ _____ _____    ______ ____

>  <TORSDO>
F 9

$$$$
=
 OpenBabel11042411523D

 35 38  0  0  1  0  0  0  0  0999 V2000
  188.6600  177.7260  139.8640 C   0  0  0  0  0  0  0  0  0  0  0  0
  187.3850  178.2250  140.2370 C   0  0  0  0  0  0  0  0  0  0  0  0
  184.5100  179.8760  138.7620 O   0  0  0  0  0  0  0  0  0  0  0  0
  185.7100  178.6720  141.9890 C   0  0  0  0  0  3  0  0  0  0  0  0
  188.1320  178.2510  137.5550 C   0  0  0  0  0  3  0  0  0  0  0  0
  184.6380  178.9860  140.9810 C   0  0  1  0  0  3  0  0  0  0  0  0
  189.0140  177.7460  138.5090 C   0  0  0  0  0  3  0  0  0  0  0  0
  186.9460  178.2950  141.6470 C   0  0  0  0  0  3  0  0  0  0  0  0
  185.2000  179.2460  139.6080 C   0  0  0  0  0  0  0  0  0  0  0  0
  186.9190  178.7260  137.9350 N   0  0  0  0  0  0  0  0  0  0  0  0
  186.5260  178.7210  139.2370 C   0  0  0  0  0  0  0  0  0  0  0  0
  179.3790  177.6980  142.3690 O   0  0  0  0  0  0  0  0  0  0  0  0
  183.6970  177.8750  140.9250 N   0  0  0  0  0  2  0  0  0  0  0  0
  181.7440  179.2260  140.8720 N   0  0  0  0  0  0  0  0  0  0  0  0
  179.8000  177.8200  141.0370 C   0  0  2  0  0  3  0  0  0  0  0  0
  178.9330  178.9760  142.7350 C   0  0  0  0  0  2  0  0  0  0  0  0
  179.7540  180.0010  141.9870 C   0  0  0  0  0  2  0  0  0  0  0  0
  181.1780  176.6710  140.7190 S   0  0  0  0  0  0  0  0  0  0  0  0
  180.2950  179.2410  140.8130 C   0  0  1  0  0  3  0  0  0  0  0  0
  182.2840  178.0580  140.8190 C   0  0  0  0  0  0  0  0  0  0  0  0
  189.8520  177.8550  142.0820 N   0  0  0  0  0  2  0  0  0  0  0  0
  190.7620  177.4430  143.1090 C   0  0  0  0  0  0  0  0  0  0  0  0
  190.3080  176.1430  140.5650 O   0  0  0  0  0  0  0  0  0  0  0  0
  189.6480  177.1820  140.8320 C   0  0  0  0  0  0  0  0  0  0  0  0
  191.4700  176.4100  142.9740 O   0  0  0  0  0  0  0  0  0  0  0  0
  190.8950  178.2680  144.3390 C   0  0  0  0  0  2  0  0  0  0  0  0
  190.2040  177.5780  145.4960 C   0  0  0  0  0  2  0  0  0  0  0  0
  188.7010  177.5910  145.2700 C   0  0  0  0  0  2  0  0  0  0  0  0
  187.9170  177.8600  146.5600 C   0  0  1  0  0  3  0  0  0  0  0  0
  186.0390  177.1990  145.1630 O   0  0  0  0  0  1  0  0  0  0  0  0
  186.4000  177.6680  146.4290 C   0  0  2  0  0  3  0  0  0  0  0  0
  185.6130  178.9230  146.7940 C   0  0  0  0  0  2  0  0  0  0  0  0
  184.3330  178.8910  146.2340 O   0  0  0  0  0  1  0  0  0  0  0  0
  188.6510  178.0210  148.6440 C   0  0  0  0  0  1  0  0  0  0  0  0
  188.4200  177.1000  147.6210 O   0  0  0  0  0  0  0  0  0  0  0  0
  1  2  1  0  0  0  0
  1 24  1  0  0  0  0
  2  8  1  0  0  0  0
  3  9  2  0  0  0  0
  5 10  2  0  0  0  0
  5  7  1  0  0  0  0
  6 13  1  6  0  0  0
  6  4  1  0  0  0  0
  7  1  2  0  0  0  0
  8  4  2  0  0  0  0
  9  6  1  0  0  0  0
 10 11  1  0  0  0  0
 11  9  1  0  0  0  0
 11  2  2  0  0  0  0
 12 16  1  0  0  0  0
 15 18  1  1  0  0  0
 15 12  1  0  0  0  0
 17 16  1  0  0  0  0
 18 20  1  0  0  0  0
 19 14  1  0  0  0  0
 19 15  1  0  0  0  0
 19 17  1  1  0  0  0
 20 14  2  0  0  0  0
 20 13  1  0  0  0  0
 21 22  1  0  0  0  0
 22 26  1  0  0  0  0
 23 24  2  0  0  0  0
 24 21  1  0  0  0  0
 25 22  2  0  0  0  0
 26 27  1  0  0  0  0
 28 27  1  0  0  0  0
 29 28  1  6  0  0  0
 29 35  1  0  0  0  0
 31 30  1  6  0  0  0
 31 29  1  0  0  0  0
 31 32  1  0  0  0  0
 33 32  1  0  0  0  0
 35 34  1  0  0  0  0
M  END
>  <MODEL>
2

>  <REMARK>
 VINA RESULT:      -7.5      3.180      7.965
  Name = 
  9 active torsions:
  status: ('A' for Active; 'I' for Inactive)
    1  A    between atoms: C_1  and  C_24
    2  A    between atoms: C_6  and  C_10
    3  A    between atoms: C_6  and  C_12
    4  A    between atoms: N_8  and  C_17
    5  A    between atoms: C_10  and  C_19
    6  A    between atoms: C_11  and  C_12
    7  A    between atoms: C_11  and  C_32
    8  A    between atoms: C_11  and  O_35
    9  A    between atoms: C_13  and  C_32
                            x       y       z     vdW  Elec       q    Type
                         _______ _______ _______ _____ _____    ______ ____

>  <TORSDO>
F 9

$$$$
=
 OpenBabel11042411523D

 35 38  0  0  1  0  0  0  0  0999 V2000
  186.1570  178.4320  142.9520 C   0  0  0  0  0  0  0  0  0  0  0  0
  185.3030  178.5600  141.8260 C   0  0  0  0  0  0  0  0  0  0  0  0
  185.5000  178.9090  138.2200 O   0  0  0  0  0  0  0  0  0  0  0  0
  183.0290  178.7650  140.9000 C   0  0  0  0  0  3  0  0  0  0  0  0
  188.0510  178.3270  141.4410 C   0  0  0  0  0  3  0  0  0  0  0  0
  183.5070  178.5300  139.4920 C   0  0  1  0  0  3  0  0  0  0  0  0
  187.5350  178.3140  142.7350 C   0  0  0  0  0  3  0  0  0  0  0  0
  183.8420  178.7440  141.9590 C   0  0  0  0  0  3  0  0  0  0  0  0
  184.9980  178.6980  139.3570 C   0  0  0  0  0  0  0  0  0  0  0  0
  187.2160  178.4530  140.3780 N   0  0  0  0  0  0  0  0  0  0  0  0
  185.8700  178.5630  140.5370 C   0  0  0  0  0  0  0  0  0  0  0  0
  180.0890  175.9170  135.9230 O   0  0  0  0  0  0  0  0  0  0  0  0
  183.1230  177.1870  139.0770 N   0  0  0  0  0  2  0  0  0  0  0  0
  182.4820  177.7990  136.8730 N   0  0  0  0  0  0  0  0  0  0  0  0
  181.4840  175.9040  135.7800 C   0  0  2  0  0  3  0  0  0  0  0  0
  179.6530  177.0290  135.1890 C   0  0  0  0  0  2  0  0  0  0  0  0
  180.7210  178.0950  135.2550 C   0  0  0  0  0  2  0  0  0  0  0  0
  182.2510  175.2210  137.2860 S   0  0  0  0  0  0  0  0  0  0  0  0
  181.9670  177.3340  135.5990 C   0  0  1  0  0  3  0  0  0  0  0  0
  182.6750  176.8810  137.7550 C   0  0  0  0  0  0  0  0  0  0  0  0
  186.6210  178.3160  145.4280 N   0  0  0  0  0  2  0  0  0  0  0  0
  186.3000  178.2980  146.8250 C   0  0  0  0  0  0  0  0  0  0  0  0
  184.4410  178.4900  144.6160 O   0  0  0  0  0  0  0  0  0  0  0  0
  185.6720  178.4190  144.3580 C   0  0  0  0  0  0  0  0  0  0  0  0
  185.1060  178.3800  147.2180 O   0  0  0  0  0  0  0  0  0  0  0  0
  187.3930  178.1450  147.8210 C   0  0  0  0  0  2  0  0  0  0  0  0
  188.3920  177.1180  147.3310 C   0  0  0  0  0  2  0  0  0  0  0  0
  189.6790  177.8160  146.9240 C   0  0  0  0  0  2  0  0  0  0  0  0
  190.6080  176.9050  146.1130 C   0  0  1  0  0  3  0  0  0  0  0  0
  190.9750  176.0890  143.8510 O   0  0  0  0  0  1  0  0  0  0  0  0
  190.6410  177.2150  144.6090 C   0  0  2  0  0  3  0  0  0  0  0  0
  191.5480  178.3930  144.2700 C   0  0  0  0  0  2  0  0  0  0  0  0
  190.7970  179.5220  143.9350 O   0  0  0  0  0  1  0  0  0  0  0  0
  191.9870  175.7240  147.3820 C   0  0  0  0  0  1  0  0  0  0  0  0
  191.9010  176.9060  146.6440 O   0  0  0  0  0  0  0  0  0  0  0  0
  1 24  1  0  0  0  0
  2  8  1  0  0  0  0
  2  1  2  0  0  0  0
  3  9  2  0  0  0  0
  4  8  2  0  0  0  0
  5  7  2  0  0  0  0
  6 13  1  1  0  0  0
  6  4  1  0  0  0  0
  7  1  1  0  0  0  0
  9  6  1  0  0  0  0
  9 11  1  0  0  0  0
 10 11  2  0  0  0  0
 10  5  1  0  0  0  0
 11  2  1  0  0  0  0
 14 20  2  0  0  0  0
 15 12  1  1  0  0  0
 15 18  1  0  0  0  0
 16 17  1  0  0  0  0
 16 12  1  0  0  0  0
 18 20  1  0  0  0  0
 19 17  1  1  0  0  0
 19 15  1  0  0  0  0
 19 14  1  0  0  0  0
 20 13  1  0  0  0  0
 21 22  1  0  0  0  0
 22 25  2  0  0  0  0
 22 26  1  0  0  0  0
 24 23  2  0  0  0  0
 24 21  1  0  0  0  0
 27 26  1  0  0  0  0
 28 27  1  0  0  0  0
 29 35  1  0  0  0  0
 29 28  1  1  0  0  0
 31 30  1  6  0  0  0
 31 29  1  0  0  0  0
 32 31  1  0  0  0  0
 33 32  1  0  0  0  0
 35 34  1  0  0  0  0
M  END
>  <MODEL>
3

>  <REMARK>
 VINA RESULT:      -7.5      3.414      7.006
  Name = 
  9 active torsions:
  status: ('A' for Active; 'I' for Inactive)
    1  A    between atoms: C_1  and  C_24
    2  A    between atoms: C_6  and  C_10
    3  A    between atoms: C_6  and  C_12
    4  A    between atoms: N_8  and  C_17
    5  A    between atoms: C_10  and  C_19
    6  A    between atoms: C_11  and  C_12
    7  A    between atoms: C_11  and  C_32
    8  A    between atoms: C_11  and  O_35
    9  A    between atoms: C_13  and  C_32
                            x       y       z     vdW  Elec       q    Type
                         _______ _______ _______ _____ _____    ______ ____

>  <TORSDO>
F 9

$$$$
=
 OpenBabel11042411523D

 35 38  0  0  1  0  0  0  0  0999 V2000
  190.9460  176.8860  139.0240 C   0  0  0  0  0  0  0  0  0  0  0  0
  189.7640  177.1740  138.2950 C   0  0  0  0  0  0  0  0  0  0  0  0
  188.5320  177.1450  134.8820 O   0  0  0  0  0  0  0  0  0  0  0  0
  187.4380  177.9890  138.2580 C   0  0  0  0  0  3  0  0  0  0  0  0
  191.9550  176.0790  136.9710 C   0  0  0  0  0  3  0  0  0  0  0  0
  187.2180  177.5030  136.8500 C   0  0  1  0  0  3  0  0  0  0  0  0
  192.0350  176.3320  138.3390 C   0  0  0  0  0  3  0  0  0  0  0  0
  188.5840  177.8080  138.9210 C   0  0  0  0  0  3  0  0  0  0  0  0
  188.5090  177.1940  136.1410 C   0  0  0  0  0  0  0  0  0  0  0  0
  190.8150  176.3660  136.2930 N   0  0  0  0  0  0  0  0  0  0  0  0
  189.7280  176.8960  136.9140 C   0  0  0  0  0  0  0  0  0  0  0  0
  182.5510  175.5690  139.2450 O   0  0  0  0  0  0  0  0  0  0  0  0
  186.3770  176.3120  136.8850 N   0  0  0  0  0  2  0  0  0  0  0  0
  184.3700  177.4600  137.4320 N   0  0  0  0  0  0  0  0  0  0  0  0
  182.6340  175.8570  137.8750 C   0  0  2  0  0  3  0  0  0  0  0  0
  182.1090  176.7570  139.8450 C   0  0  0  0  0  2  0  0  0  0  0  0
  182.6490  177.9240  139.0520 C   0  0  0  0  0  2  0  0  0  0  0  0
  183.9810  174.8860  137.1230 S   0  0  0  0  0  0  0  0  0  0  0  0
  182.9520  177.3340  137.7070 C   0  0  1  0  0  3  0  0  0  0  0  0
  184.9700  176.3620  137.1250 C   0  0  0  0  0  0  0  0  0  0  0  0
  190.0530  176.7330  141.3780 N   0  0  0  0  0  2  0  0  0  0  0  0
  190.0660  176.9050  142.8000 C   0  0  0  0  0  0  0  0  0  0  0  0
  192.1270  177.7060  140.9340 O   0  0  0  0  0  0  0  0  0  0  0  0
  191.0980  177.1380  140.4820 C   0  0  0  0  0  0  0  0  0  0  0  0
  191.0450  177.4450  143.3810 O   0  0  0  0  0  0  0  0  0  0  0  0
  188.8890  176.4710  143.5970 C   0  0  0  0  0  2  0  0  0  0  0  0
  187.8280  177.5520  143.5730 C   0  0  0  0  0  2  0  0  0  0  0  0
  186.7760  177.2540  144.6280 C   0  0  0  0  0  2  0  0  0  0  0  0
  186.9350  178.1280  145.8780 C   0  0  1  0  0  3  0  0  0  0  0  0
  184.9700  178.5570  147.2460 O   0  0  0  0  0  1  0  0  0  0  0  0
  185.7300  179.0320  146.1740 C   0  0  2  0  0  3  0  0  0  0  0  0
  184.8580  179.2720  144.9470 C   0  0  0  0  0  2  0  0  0  0  0  0
  183.5070  179.0860  145.2490 O   0  0  0  0  0  1  0  0  0  0  0  0
  188.5930  177.6380  147.2630 C   0  0  0  0  0  1  0  0  0  0  0  0
  187.2540  177.3510  146.9960 O   0  0  0  0  0  0  0  0  0  0  0  0
  1 24  1  0  0  0  0
  2  8  1  0  0  0  0
  2  1  2  0  0  0  0
  3  9  2  0  0  0  0
  4  8  2  0  0  0  0
  5  7  2  0  0  0  0
  6 13  1  1  0  0  0
  6  4  1  0  0  0  0
  7  1  1  0  0  0  0
  9  6  1  0  0  0  0
  9 11  1  0  0  0  0
 10 11  2  0  0  0  0
 10  5  1  0  0  0  0
 11  2  1  0  0  0  0
 12 16  1  0  0  0  0
 13 20  1  0  0  0  0
 14 19  1  0  0  0  0
 15 18  1  1  0  0  0
 15 12  1  0  0  0  0
 17 16  1  0  0  0  0
 18 20  1  0  0  0  0
 19 15  1  0  0  0  0
 19 17  1  1  0  0  0
 20 14  2  0  0  0  0
 21 22  1  0  0  0  0
 22 25  2  0  0  0  0
 22 26  1  0  0  0  0
 24 23  2  0  0  0  0
 24 21  1  0  0  0  0
 27 26  1  0  0  0  0
 27 28  1  0  0  0  0
 29 28  1  6  0  0  0
 29 31  1  0  0  0  0
 29 35  1  0  0  0  0
 31 30  1  1  0  0  0
 32 33  1  0  0  0  0
 32 31  1  0  0  0  0
 35 34  1  0  0  0  0
M  END
>  <MODEL>
4

>  <REMARK>
 VINA RESULT:      -7.4      2.314      6.504
  Name = 
  9 active torsions:
  status: ('A' for Active; 'I' for Inactive)
    1  A    between atoms: C_1  and  C_24
    2  A    between atoms: C_6  and  C_10
    3  A    between atoms: C_6  and  C_12
    4  A    between atoms: N_8  and  C_17
    5  A    between atoms: C_10  and  C_19
    6  A    between atoms: C_11  and  C_12
    7  A    between atoms: C_11  and  C_32
    8  A    between atoms: C_11  and  O_35
    9  A    between atoms: C_13  and  C_32
                            x       y       z     vdW  Elec       q    Type
                         _______ _______ _______ _____ _____    ______ ____

>  <TORSDO>
F 9

$$$$
=
 OpenBabel11042411523D

 35 38  0  0  1  0  0  0  0  0999 V2000
  186.1140  178.4090  142.6360 C   0  0  0  0  0  0  0  0  0  0  0  0
  185.2570  178.5110  141.5100 C   0  0  0  0  0  0  0  0  0  0  0  0
  185.4400  178.9800  137.9170 O   0  0  0  0  0  0  0  0  0  0  0  0
  182.9770  178.5900  140.5790 C   0  0  0  0  0  3  0  0  0  0  0  0
  188.0150  178.4760  141.1310 C   0  0  0  0  0  3  0  0  0  0  0  0
  183.4740  178.4300  139.1670 C   0  0  1  0  0  3  0  0  0  0  0  0
  187.4980  178.3900  142.4220 C   0  0  0  0  0  3  0  0  0  0  0  0
  183.7870  178.5930  141.6410 C   0  0  0  0  0  3  0  0  0  0  0  0
  184.9500  178.7020  139.0440 C   0  0  0  0  0  0  0  0  0  0  0  0
  187.1770  178.5770  140.0690 N   0  0  0  0  0  0  0  0  0  0  0  0
  185.8260  178.5910  140.2240 C   0  0  0  0  0  0  0  0  0  0  0  0
  179.8680  174.2510  140.0460 O   0  0  0  0  0  0  0  0  0  0  0  0
  183.1830  177.0770  138.7100 N   0  0  0  0  0  2  0  0  0  0  0  0
  180.8600  177.1610  139.2000 N   0  0  0  0  0  0  0  0  0  0  0  0
  179.8950  174.9860  138.8520 C   0  0  2  0  0  3  0  0  0  0  0  0
  178.9560  174.9230  140.8730 C   0  0  0  0  0  2  0  0  0  0  0  0
  179.0200  176.3980  140.5550 C   0  0  0  0  0  2  0  0  0  0  0  0
  181.5540  174.8830  138.1040 S   0  0  0  0  0  0  0  0  0  0  0  0
  179.6000  176.4440  139.1730 C   0  0  1  0  0  3  0  0  0  0  0  0
  181.8640  176.5270  138.7030 C   0  0  0  0  0  0  0  0  0  0  0  0
  186.5780  178.2200  145.1080 N   0  0  0  0  0  2  0  0  0  0  0  0
  186.2550  178.1360  146.5010 C   0  0  0  0  0  0  0  0  0  0  0  0
  184.3940  178.3270  144.2940 O   0  0  0  0  0  0  0  0  0  0  0  0
  185.6270  178.3210  144.0380 C   0  0  0  0  0  0  0  0  0  0  0  0
  185.0580  178.1500  146.8930 O   0  0  0  0  0  0  0  0  0  0  0  0
  187.3510  177.9950  147.4950 C   0  0  0  0  0  2  0  0  0  0  0  0
  188.4340  177.0930  146.9390 C   0  0  0  0  0  2  0  0  0  0  0  0
  189.7780  177.7940  147.0400 C   0  0  0  0  0  2  0  0  0  0  0  0
  190.8780  177.0660  146.2560 C   0  0  1  0  0  3  0  0  0  0  0  0
  190.2600  178.6680  144.5340 O   0  0  0  0  0  1  0  0  0  0  0  0
  191.1750  177.6690  144.8760 C   0  0  2  0  0  3  0  0  0  0  0  0
  191.2710  176.6140  143.7800 C   0  0  0  0  0  2  0  0  0  0  0  0
  190.0230  176.0380  143.5300 O   0  0  0  0  0  1  0  0  0  0  0  0
  192.2110  175.5990  147.2450 C   0  0  0  0  0  1  0  0  0  0  0  0
  192.0500  176.9660  147.0130 O   0  0  0  0  0  0  0  0  0  0  0  0
  1 24  1  0  0  0  0
  2  8  1  0  0  0  0
  2  1  2  0  0  0  0
  3  9  2  0  0  0  0
  4  8  2  0  0  0  0
  5  7  2  0  0  0  0
  6 13  1  1  0  0  0
  6  4  1  0  0  0  0
  7  1  1  0  0  0  0
  9  6  1  0  0  0  0
  9 11  1  0  0  0  0
 10 11  2  0  0  0  0
 10  5  1  0  0  0  0
 11  2  1  0  0  0  0
 12 16  1  0  0  0  0
 15 18  1  1  0  0  0
 15 19  1  0  0  0  0
 15 12  1  0  0  0  0
 17 16  1  0  0  0  0
 18 20  1  0  0  0  0
 19 14  1  0  0  0  0
 19 17  1  1  0  0  0
 20 13  1  0  0  0  0
 20 14  2  0  0  0  0
 21 22  1  0  0  0  0
 22 25  2  0  0  0  0
 22 26  1  0  0  0  0
 24 23  2  0  0  0  0
 24 21  1  0  0  0  0
 27 28  1  0  0  0  0
 27 26  1  0  0  0  0
 29 35  1  0  0  0  0
 29 28  1  1  0  0  0
 31 30  1  6  0  0  0
 31 29  1  0  0  0  0
 32 31  1  0  0  0  0
 33 32  1  0  0  0  0
 35 34  1  0  0  0  0
M  END
>  <MODEL>
5

>  <REMARK>
 VINA RESULT:      -7.4      3.564      7.617
  Name = 
  9 active torsions:
  status: ('A' for Active; 'I' for Inactive)
    1  A    between atoms: C_1  and  C_24
    2  A    between atoms: C_6  and  C_10
    3  A    between atoms: C_6  and  C_12
    4  A    between atoms: N_8  and  C_17
    5  A    between atoms: C_10  and  C_19
    6  A    between atoms: C_11  and  C_12
    7  A    between atoms: C_11  and  C_32
    8  A    between atoms: C_11  and  O_35
    9  A    between atoms: C_13  and  C_32
                            x       y       z     vdW  Elec       q    Type
                         _______ _______ _______ _____ _____    ______ ____

>  <TORSDO>
F 9

$$$$
=
 OpenBabel11042411523D

 35 38  0  0  1  0  0  0  0  0999 V2000
  191.0210  176.8740  138.7910 C   0  0  0  0  0  0  0  0  0  0  0  0
  189.7730  177.2490  138.2290 C   0  0  0  0  0  0  0  0  0  0  0  0
  188.0760  177.3010  135.0230 O   0  0  0  0  0  0  0  0  0  0  0  0
  187.5320  178.2370  138.5070 C   0  0  0  0  0  3  0  0  0  0  0  0
  191.6690  175.9880  136.6280 C   0  0  0  0  0  3  0  0  0  0  0  0
  187.0810  177.7640  137.1500 C   0  0  1  0  0  3  0  0  0  0  0  0
  191.9590  176.2380  137.9680 C   0  0  0  0  0  3  0  0  0  0  0  0
  188.7430  177.9720  139.0050 C   0  0  0  0  0  3  0  0  0  0  0  0
  188.2340  177.3560  136.2720 C   0  0  0  0  0  0  0  0  0  0  0  0
  190.4700  176.3570  136.1120 N   0  0  0  0  0  0  0  0  0  0  0  0
  189.5240  176.9700  136.8720 C   0  0  0  0  0  0  0  0  0  0  0  0
  182.2880  176.4270  139.6990 O   0  0  0  0  0  0  0  0  0  0  0  0
  186.1680  176.6400  137.3180 N   0  0  0  0  0  2  0  0  0  0  0  0
  184.2330  177.9670  137.6940 N   0  0  0  0  0  0  0  0  0  0  0  0
  182.3970  176.5390  138.3050 C   0  0  2  0  0  3  0  0  0  0  0  0
  181.9170  177.7040  140.1440 C   0  0  0  0  0  2  0  0  0  0  0  0
  182.5340  178.7300  139.2210 C   0  0  0  0  0  2  0  0  0  0  0  0
  183.6860  175.4030  137.6960 S   0  0  0  0  0  0  0  0  0  0  0  0
  182.8080  177.9630  137.9630 C   0  0  1  0  0  3  0  0  0  0  0  0
  184.7650  176.8050  137.5310 C   0  0  0  0  0  0  0  0  0  0  0  0
  190.4900  176.7270  141.2520 N   0  0  0  0  0  2  0  0  0  0  0  0
  190.7190  176.8940  142.6560 C   0  0  0  0  0  0  0  0  0  0  0  0
  192.4880  177.6700  140.5020 O   0  0  0  0  0  0  0  0  0  0  0  0
  191.3940  177.1200  140.2090 C   0  0  0  0  0  0  0  0  0  0  0  0
  191.7830  177.4160  143.0840 O   0  0  0  0  0  0  0  0  0  0  0  0
  189.6690  176.4740  143.6200 C   0  0  0  0  0  2  0  0  0  0  0  0
  188.3320  176.3870  142.9140 C   0  0  0  0  0  2  0  0  0  0  0  0
  187.5630  177.6810  143.1210 C   0  0  0  0  0  2  0  0  0  0  0  0
  186.4450  177.5390  144.1610 C   0  0  1  0  0  3  0  0  0  0  0  0
  187.6910  177.5940  146.2500 O   0  0  0  0  0  1  0  0  0  0  0  0
  186.7240  178.2570  145.4890 C   0  0  2  0  0  3  0  0  0  0  0  0
  185.4580  178.5010  146.3050 C   0  0  0  0  0  2  0  0  0  0  0  0
  185.6830  179.4450  147.3090 O   0  0  0  0  0  1  0  0  0  0  0  0
  185.5370  178.7150  142.5180 C   0  0  0  0  0  1  0  0  0  0  0  0
  185.2150  177.9400  143.6330 O   0  0  0  0  0  0  0  0  0  0  0  0
  1 24  1  0  0  0  0
  2  1  1  0  0  0  0
  2  8  1  0  0  0  0
  3  9  2  0  0  0  0
  4  8  2  0  0  0  0
  5  7  1  0  0  0  0
  6 13  1  1  0  0  0
  6  4  1  0  0  0  0
  7  1  2  0  0  0  0
  9 11  1  0  0  0  0
  9  6  1  0  0  0  0
 10  5  2  0  0  0  0
 10 11  1  0  0  0  0
 11  2  2  0  0  0  0
 12 16  1  0  0  0  0
 13 20  1  0  0  0  0
 14 19  1  0  0  0  0
 15 18  1  1  0  0  0
 15 12  1  0  0  0  0
 17 16  1  0  0  0  0
 19 15  1  0  0  0  0
 19 17  1  1  0  0  0
 20 14  2  0  0  0  0
 20 18  1  0  0  0  0
 21 22  1  0  0  0  0
 22 25  2  0  0  0  0
 22 26  1  0  0  0  0
 24 23  2  0  0  0  0
 24 21  1  0  0  0  0
 27 28  1  0  0  0  0
 27 26  1  0  0  0  0
 29 28  1  6  0  0  0
 29 31  1  0  0  0  0
 31 30  1  1  0  0  0
 31 32  1  0  0  0  0
 32 33  1  0  0  0  0
 34 35  1  0  0  0  0
 35 29  1  0  0  0  0
M  END
>  <MODEL>
6

>  <REMARK>
 VINA RESULT:      -7.3      2.247      6.436
  Name = 
  9 active torsions:
  status: ('A' for Active; 'I' for Inactive)
    1  A    between atoms: C_1  and  C_24
    2  A    between atoms: C_6  and  C_10
    3  A    between atoms: C_6  and  C_12
    4  A    between atoms: N_8  and  C_17
    5  A    between atoms: C_10  and  C_19
    6  A    between atoms: C_11  and  C_12
    7  A    between atoms: C_11  and  C_32
    8  A    between atoms: C_11  and  O_35
    9  A    between atoms: C_13  and  C_32
                            x       y       z     vdW  Elec       q    Type
                         _______ _______ _______ _____ _____    ______ ____

>  <TORSDO>
F 9

$$$$
=
 OpenBabel11042411523D

 35 38  0  0  1  0  0  0  0  0999 V2000
  189.0080  177.4490  144.0070 C   0  0  0  0  0  0  0  0  0  0  0  0
  189.2650  177.6530  142.6270 C   0  0  0  0  0  0  0  0  0  0  0  0
  192.0060  177.4690  140.2570 O   0  0  0  0  0  0  0  0  0  0  0  0
  188.4660  178.3380  140.3990 C   0  0  0  0  0  3  0  0  0  0  0  0
  191.2830  176.6470  144.2590 C   0  0  0  0  0  3  0  0  0  0  0  0
  189.6980  177.8050  139.7180 C   0  0  1  0  0  3  0  0  0  0  0  0
  190.0370  176.9390  144.8090 C   0  0  0  0  0  3  0  0  0  0  0  0
  188.2590  178.2380  141.7150 C   0  0  0  0  0  3  0  0  0  0  0  0
  190.8230  177.5490  140.6850 C   0  0  0  0  0  0  0  0  0  0  0  0
  191.5080  176.8530  142.9370 N   0  0  0  0  0  0  0  0  0  0  0  0
  190.5390  177.3390  142.1160 C   0  0  0  0  0  0  0  0  0  0  0  0
  186.5430  175.9540  135.4900 O   0  0  0  0  0  0  0  0  0  0  0  0
  189.3590  176.5710  139.0190 N   0  0  0  0  0  2  0  0  0  0  0  0
  188.8470  177.6110  136.9460 N   0  0  0  0  0  0  0  0  0  0  0  0
  187.9440  175.9720  135.4360 C   0  0  2  0  0  3  0  0  0  0  0  0
  186.1370  177.1900  134.9670 C   0  0  0  0  0  2  0  0  0  0  0  0
  187.1850  178.2230  135.3120 C   0  0  0  0  0  2  0  0  0  0  0  0
  188.6260  175.0020  136.8200 S   0  0  0  0  0  0  0  0  0  0  0  0
  188.4170  177.4100  135.5750 C   0  0  1  0  0  3  0  0  0  0  0  0
  188.9980  176.5350  137.6370 C   0  0  0  0  0  0  0  0  0  0  0  0
  186.5530  177.9980  143.8390 N   0  0  0  0  0  2  0  0  0  0  0  0
  185.2370  178.2900  144.3240 C   0  0  0  0  0  0  0  0  0  0  0  0
  187.6020  177.7860  145.9120 O   0  0  0  0  0  0  0  0  0  0  0  0
  187.7040  177.7470  144.6570 C   0  0  0  0  0  0  0  0  0  0  0  0
  184.9960  178.3420  145.5600 O   0  0  0  0  0  0  0  0  0  0  0  0
  184.1470  178.5700  143.3520 C   0  0  0  0  0  2  0  0  0  0  0  0
  183.0260  179.3190  144.0420 C   0  0  0  0  0  2  0  0  0  0  0  0
  181.6890  178.7300  143.6240 C   0  0  0  0  0  2  0  0  0  0  0  0
  180.8240  179.7310  142.8490 C   0  0  1  0  0  3  0  0  0  0  0  0
  179.3310  179.7760  140.9300 O   0  0  0  0  0  1  0  0  0  0  0  0
  180.5850  179.3540  141.3800 C   0  0  2  0  0  3  0  0  0  0  0  0
  180.7920  177.8680  141.1120 C   0  0  0  0  0  2  0  0  0  0  0  0
  179.5820  177.1720  141.1830 O   0  0  0  0  0  1  0  0  0  0  0  0
  179.4400  178.8510  144.3380 C   0  0  0  0  0  1  0  0  0  0  0  0
  179.6100  179.9580  143.5040 O   0  0  0  0  0  0  0  0  0  0  0  0
  1 24  1  0  0  0  0
  1  7  1  0  0  0  0
  2  1  2  0  0  0  0
  3  9  2  0  0  0  0
  4  8  2  0  0  0  0
  5  7  2  0  0  0  0
  6 13  1  1  0  0  0
  6  4  1  0  0  0  0
  6  9  1  0  0  0  0
  8  2  1  0  0  0  0
  9 11  1  0  0  0  0
 10  5  1  0  0  0  0
 11  2  1  0  0  0  0
 11 10  2  0  0  0  0
 14 20  2  0  0  0  0
 15 12  1  1  0  0  0
 15 19  1  0  0  0  0
 15 18  1  0  0  0  0
 16 17  1  0  0  0  0
 16 12  1  0  0  0  0
 18 20  1  0  0  0  0
 19 17  1  1  0  0  0
 19 14  1  0  0  0  0
 20 13  1  0  0  0  0
 21 22  1  0  0  0  0
 21 24  1  0  0  0  0
 22 25  2  0  0  0  0
 24 23  2  0  0  0  0
 26 27  1  0  0  0  0
 26 22  1  0  0  0  0
 28 27  1  0  0  0  0
 29 35  1  0  0  0  0
 29 28  1  1  0  0  0
 31 30  1  1  0  0  0
 31 29  1  0  0  0  0
 32 33  1  0  0  0  0
 32 31  1  0  0  0  0
 35 34  1  0  0  0  0
M  END
>  <MODEL>
7

>  <REMARK>
 VINA RESULT:      -7.1      2.282      3.076
  Name = 
  9 active torsions:
  status: ('A' for Active; 'I' for Inactive)
    1  A    between atoms: C_1  and  C_24
    2  A    between atoms: C_6  and  C_10
    3  A    between atoms: C_6  and  C_12
    4  A    between atoms: N_8  and  C_17
    5  A    between atoms: C_10  and  C_19
    6  A    between atoms: C_11  and  C_12
    7  A    between atoms: C_11  and  C_32
    8  A    between atoms: C_11  and  O_35
    9  A    between atoms: C_13  and  C_32
                            x       y       z     vdW  Elec       q    Type
                         _______ _______ _______ _____ _____    ______ ____

>  <TORSDO>
F 9

$$$$
=
 OpenBabel11042411523D

 35 38  0  0  1  0  0  0  0  0999 V2000
  184.9590  178.8040  142.7390 C   0  0  0  0  0  0  0  0  0  0  0  0
  183.5840  178.6770  142.4120 C   0  0  0  0  0  0  0  0  0  0  0  0
  180.3520  178.4470  144.0450 O   0  0  0  0  0  0  0  0  0  0  0  0
  181.8250  178.4070  140.7080 C   0  0  0  0  0  3  0  0  0  0  0  0
  184.3290  179.0330  145.0710 C   0  0  0  0  0  3  0  0  0  0  0  0
  180.7270  178.7040  141.6940 C   0  0  1  0  0  3  0  0  0  0  0  0
  185.3110  178.9860  144.0830 C   0  0  0  0  0  3  0  0  0  0  0  0
  183.1210  178.4290  141.0300 C   0  0  0  0  0  3  0  0  0  0  0  0
  181.1960  178.6020  143.1220 C   0  0  0  0  0  0  0  0  0  0  0  0
  183.0200  178.9060  144.7350 N   0  0  0  0  0  0  0  0  0  0  0  0
  182.6280  178.7360  143.4440 C   0  0  0  0  0  0  0  0  0  0  0  0
  180.1060  182.3870  137.5350 O   0  0  0  0  0  0  0  0  0  0  0  0
  180.2090  180.0430  141.4410 N   0  0  0  0  0  2  0  0  0  0  0  0
  179.7030  179.6660  139.1510 N   0  0  0  0  0  0  0  0  0  0  0  0
  179.0190  181.7370  138.1380 C   0  0  2  0  0  3  0  0  0  0  0  0
  180.4790  181.5650  136.4620 C   0  0  0  0  0  2  0  0  0  0  0  0
  180.1960  180.1290  136.8380 C   0  0  0  0  0  2  0  0  0  0  0  0
  179.0170  182.0740  139.9290 S   0  0  0  0  0  0  0  0  0  0  0  0
  179.1720  180.2380  137.9280 C   0  0  1  0  0  3  0  0  0  0  0  0
  179.6690  180.4400  140.1790 C   0  0  0  0  0  0  0  0  0  0  0  0
  187.2050  177.9370  141.9890 N   0  0  0  0  0  2  0  0  0  0  0  0
  188.3280  177.7880  141.1130 C   0  0  0  0  0  0  0  0  0  0  0  0
  185.9840  179.4250  140.6710 O   0  0  0  0  0  0  0  0  0  0  0  0
  186.0540  178.7550  141.7350 C   0  0  0  0  0  0  0  0  0  0  0  0
  188.3750  178.3920  140.0070 O   0  0  0  0  0  0  0  0  0  0  0  0
  189.4700  176.9340  141.5310 C   0  0  0  0  0  2  0  0  0  0  0  0
  189.1260  176.2140  142.8180 C   0  0  0  0  0  2  0  0  0  0  0  0
  190.2940  176.3160  143.7850 C   0  0  0  0  0  2  0  0  0  0  0  0
  189.8560  176.7440  145.1910 C   0  0  1  0  0  3  0  0  0  0  0  0
  191.6880  178.2550  145.7160 O   0  0  0  0  0  1  0  0  0  0  0  0
  191.0150  177.1030  146.1320 C   0  0  2  0  0  3  0  0  0  0  0  0
  191.9860  175.9460  146.3400 C   0  0  0  0  0  2  0  0  0  0  0  0
  192.1120  175.6370  147.6970 O   0  0  0  0  0  1  0  0  0  0  0  0
  188.0100  177.5100  146.1450 C   0  0  0  0  0  1  0  0  0  0  0  0
  188.9280  177.7870  145.1310 O   0  0  0  0  0  0  0  0  0  0  0  0
  1  7  1  0  0  0  0
  2  1  2  0  0  0  0
  2 11  1  0  0  0  0
  4  8  2  0  0  0  0
  4  6  1  0  0  0  0
  6 13  1  6  0  0  0
  6  9  1  0  0  0  0
  7  5  2  0  0  0  0
  8  2  1  0  0  0  0
  9 11  1  0  0  0  0
  9  3  2  0  0  0  0
 10  5  1  0  0  0  0
 11 10  2  0  0  0  0
 14 20  2  0  0  0  0
 15 12  1  6  0  0  0
 15 18  1  0  0  0  0
 16 17  1  0  0  0  0
 16 12  1  0  0  0  0
 18 20  1  0  0  0  0
 19 17  1  6  0  0  0
 19 15  1  0  0  0  0
 19 14  1  0  0  0  0
 20 13  1  0  0  0  0
 22 26  1  0  0  0  0
 22 21  1  0  0  0  0
 23 24  2  0  0  0  0
 24 21  1  0  0  0  0
 24  1  1  0  0  0  0
 25 22  2  0  0  0  0
 26 27  1  0  0  0  0
 27 28  1  0  0  0  0
 29 28  1  6  0  0  0
 29 31  1  0  0  0  0
 31 30  1  6  0  0  0
 31 32  1  0  0  0  0
 32 33  1  0  0  0  0
 35 29  1  0  0  0  0
 35 34  1  0  0  0  0
M  END
>  <MODEL>
8

>  <REMARK>
 VINA RESULT:      -7.1      4.056      8.848
  Name = 
  9 active torsions:
  status: ('A' for Active; 'I' for Inactive)
    1  A    between atoms: C_1  and  C_24
    2  A    between atoms: C_6  and  C_10
    3  A    between atoms: C_6  and  C_12
    4  A    between atoms: N_8  and  C_17
    5  A    between atoms: C_10  and  C_19
    6  A    between atoms: C_11  and  C_12
    7  A    between atoms: C_11  and  C_32
    8  A    between atoms: C_11  and  O_35
    9  A    between atoms: C_13  and  C_32
                            x       y       z     vdW  Elec       q    Type
                         _______ _______ _______ _____ _____    ______ ____

>  <TORSDO>
F 9

$$$$
=
 OpenBabel11042411523D

 35 38  0  0  1  0  0  0  0  0999 V2000
  188.8500  177.3130  137.8660 C   0  0  0  0  0  0  0  0  0  0  0  0
  189.8800  176.4220  137.4660 C   0  0  0  0  0  0  0  0  0  0  0  0
  190.7740  174.2860  134.6720 O   0  0  0  0  0  0  0  0  0  0  0  0
  191.9870  175.2490  137.9750 C   0  0  0  0  0  3  0  0  0  0  0  0
  187.8340  177.0360  135.6810 C   0  0  0  0  0  3  0  0  0  0  0  0
  192.1680  174.8110  136.5470 C   0  0  1  0  0  3  0  0  0  0  0  0
  187.8330  177.6100  136.9500 C   0  0  0  0  0  3  0  0  0  0  0  0
  190.9650  176.0080  138.3810 C   0  0  0  0  0  3  0  0  0  0  0  0
  190.9020  174.9420  135.7410 C   0  0  0  0  0  0  0  0  0  0  0  0
  188.8280  176.1850  135.3210 N   0  0  0  0  0  0  0  0  0  0  0  0
  189.8420  175.8710  136.1700 C   0  0  0  0  0  0  0  0  0  0  0  0
  197.6890  175.6330  136.8500 O   0  0  0  0  0  0  0  0  0  0  0  0
  193.2250  175.6070  135.9350 N   0  0  0  0  0  2  0  0  0  0  0  0
  194.9660  174.0470  136.3600 N   0  0  0  0  0  0  0  0  0  0  0  0
  197.0760  175.0240  135.7460 C   0  0  2  0  0  3  0  0  0  0  0  0
  198.0160  174.5820  137.7180 C   0  0  0  0  0  2  0  0  0  0  0  0
  196.9770  173.4950  137.5670 C   0  0  0  0  0  2  0  0  0  0  0  0
  195.8230  176.1440  135.0420 S   0  0  0  0  0  0  0  0  0  0  0  0
  196.3800  173.7560  136.2160 C   0  0  1  0  0  3  0  0  0  0  0  0
  194.5760  175.1520  135.8270 C   0  0  0  0  0  0  0  0  0  0  0  0
  188.7480  177.1250  140.3780 N   0  0  0  0  0  2  0  0  0  0  0  0
  188.6930  177.5990  141.7290 C   0  0  0  0  0  0  0  0  0  0  0  0
  188.7610  179.2060  139.3230 O   0  0  0  0  0  0  0  0  0  0  0  0
  188.7860  177.9520  139.2070 C   0  0  0  0  0  0  0  0  0  0  0  0
  188.6790  178.8340  141.9840 O   0  0  0  0  0  0  0  0  0  0  0  0
  188.6160  176.6190  142.8430 C   0  0  0  0  0  2  0  0  0  0  0  0
  188.3790  177.3480  144.1500 C   0  0  0  0  0  2  0  0  0  0  0  0
  186.9450  177.1310  144.6000 C   0  0  0  0  0  2  0  0  0  0  0  0
  186.4430  178.2500  145.5210 C   0  0  1  0  0  3  0  0  0  0  0  0
  184.1620  179.0010  145.9050 O   0  0  0  0  0  1  0  0  0  0  0  0
  185.2180  179.0050  144.9890 C   0  0  2  0  0  3  0  0  0  0  0  0
  184.7610  178.5010  143.6240 C   0  0  0  0  0  2  0  0  0  0  0  0
  185.2160  179.3380  142.6030 O   0  0  0  0  0  1  0  0  0  0  0  0
  187.2670  178.2440  147.5770 C   0  0  0  0  0  1  0  0  0  0  0  0
  186.2030  177.7670  146.8110 O   0  0  0  0  0  0  0  0  0  0  0  0
  1 24  1  0  0  0  0
  2  1  1  0  0  0  0
  2  8  1  0  0  0  0
  3  9  2  0  0  0  0
  4  8  2  0  0  0  0
  5  7  1  0  0  0  0
  6 13  1  6  0  0  0
  6  4  1  0  0  0  0
  7  1  2  0  0  0  0
  9 11  1  0  0  0  0
  9  6  1  0  0  0  0
 10  5  2  0  0  0  0
 10 11  1  0  0  0  0
 11  2  2  0  0  0  0
 12 16  1  0  0  0  0
 15 18  1  1  0  0  0
 15 19  1  0  0  0  0
 15 12  1  0  0  0  0
 17 16  1  0  0  0  0
 18 20  1  0  0  0  0
 19 14  1  0  0  0  0
 19 17  1  1  0  0  0
 20 13  1  0  0  0  0
 20 14  2  0  0  0  0
 21 22  1  0  0  0  0
 22 25  2  0  0  0  0
 22 26  1  0  0  0  0
 24 23  2  0  0  0  0
 24 21  1  0  0  0  0
 26 27  1  0  0  0  0
 27 28  1  0  0  0  0
 29 28  1  6  0  0  0
 29 35  1  0  0  0  0
 31 29  1  0  0  0  0
 31 30  1  1  0  0  0
 32 31  1  0  0  0  0
 33 32  1  0  0  0  0
 35 34  1  0  0  0  0
M  END
>  <MODEL>
9

>  <REMARK>
 VINA RESULT:      -7.0      3.740      6.853
  Name = 
  9 active torsions:
  status: ('A' for Active; 'I' for Inactive)
    1  A    between atoms: C_1  and  C_24
    2  A    between atoms: C_6  and  C_10
    3  A    between atoms: C_6  and  C_12
    4  A    between atoms: N_8  and  C_17
    5  A    between atoms: C_10  and  C_19
    6  A    between atoms: C_11  and  C_12
    7  A    between atoms: C_11  and  C_32
    8  A    between atoms: C_11  and  O_35
    9  A    between atoms: C_13  and  C_32
                            x       y       z     vdW  Elec       q    Type
                         _______ _______ _______ _____ _____    ______ ____

>  <TORSDO>
F 9

$$$$
