=
 OpenBabel11042411233D

 57 60  0  0  1  0  0  0  0  0999 V2000
  188.0750  178.3160  140.2330 C   0  0  0  0  0  0  0  0  0  0  0  0
  187.9560  177.8510  137.8960 C   0  0  0  0  0  0  0  0  0  0  0  0
  189.3600  177.7300  140.2970 C   0  0  0  0  0  0  0  0  0  0  0  0
  189.9230  177.2230  139.1240 C   0  0  0  0  0  3  0  0  0  0  0  0
  187.4270  178.3690  139.0340 N   0  0  0  0  0  0  0  0  0  0  0  0
  189.2220  177.2720  137.9190 C   0  0  0  0  0  3  0  0  0  0  0  0
  187.1900  177.9110  136.6160 C   0  0  0  0  0  2  0  0  0  0  0  0
  187.3110  176.6460  135.9030 N   0  0  0  0  0  2  0  0  0  0  0  0
  186.1280  175.9260  136.1270 N   0  0  0  0  0  2  0  0  0  0  0  0
  186.4280  174.9340  137.0690 N   0  0  0  0  0  2  0  0  0  0  0  0
  185.3990  173.9120  136.9480 C   0  0  2  0  0  3  0  0  0  0  0  0
  186.9840  172.1560  136.5560 O   0  0  0  0  0  1  0  0  0  0  0  0
  185.9260  172.7370  136.1880 C   0  0  0  0  0  0  0  0  0  0  0  0
  185.2580  172.2970  135.0520 O   0  0  0  0  0  0  0  0  0  0  0  0
  184.1710  174.5070  136.2690 C   0  0  0  0  0  2  0  0  0  0  0  0
  182.9780  174.5920  137.2170 C   0  0  2  0  0  3  0  0  0  0  0  0
  183.4200  174.5610  138.5310 F   0  0  0  0  0  0  0  0  0  0  0  0
  181.9550  173.4810  136.9750 C   0  0  0  0  0  2  0  0  0  0  0  0
  181.6440  173.3100  135.4950 C   0  0  0  0  0  1  0  0  0  0  0  0
  187.4760  179.0180  141.4180 C   0  0  0  0  0  2  0  0  0  0  0  0
  187.1940  176.9410  142.5490 O   0  0  0  0  0  0  0  0  0  0  0  0
  186.7160  178.0800  142.2960 C   0  0  0  0  0  0  0  0  0  0  0  0
  184.3430  178.6940  142.0490 C   0  0  0  0  0  0  0  0  0  0  0  0
  185.4140  178.4710  142.7610 N   0  0  0  0  0  0  0  0  0  0  0  0
  182.9260  178.7040  140.0340 C   0  0  1  0  0  3  0  0  0  0  0  0
  184.7390  179.6550  139.8190 N   0  0  0  0  0  2  0  0  0  0  0  0
  184.3110  178.4670  140.5520 C   0  0  1  0  0  3  0  0  0  0  0  0
  183.4330  179.8800  139.3390 N   0  0  0  0  0  2  0  0  0  0  0  0
  182.5530  177.6350  139.0180 C   0  0  0  0  0  2  0  0  0  0  0  0
  179.5530  179.2280  137.3470 C   0  0  0  0  0  3  0  0  0  0  0  0
  180.3830  178.6560  138.3170 C   0  0  0  0  0  3  0  0  0  0  0  0
  180.0030  179.3560  136.0280 C   0  0  0  0  0  0  0  0  0  0  0  0
  182.1120  178.3370  136.6480 C   0  0  0  0  0  3  0  0  0  0  0  0
  181.6620  178.2090  137.9700 C   0  0  0  0  0  0  0  0  0  0  0  0
  181.2840  178.9120  135.6790 C   0  0  0  0  0  3  0  0  0  0  0  0
  178.9620  180.1330  134.8000 S   0  0  0  0  0  0  0  0  0  0  0  0
  180.0850  181.5510  134.6110 C   0  0  0  0  0  2  0  0  0  0  0  0
  179.9040  182.4850  135.7860 C   0  0  0  0  0  2  0  0  0  0  0  0
  181.1090  183.4020  135.8960 C   0  0  0  0  0  2  0  0  0  0  0  0
  179.1700  184.9370  136.0570 C   0  0  0  0  0  1  0  0  0  0  0  0
  180.6590  184.8430  135.7840 C   0  0  0  0  0  2  0  0  0  0  0  0
  183.4480  179.8400  143.9740 N   0  0  0  0  0  1  0  0  0  0  0  0
  183.0970  179.0990  142.7740 C   0  0  0  0  0  2  0  0  0  0  0  0
  190.1400  177.6670  141.4980 N   0  0  0  0  0  0  0  0  0  0  0  0
  190.8500  176.5100  141.9430 C   0  0  0  0  0  3  0  0  0  0  0  0
  191.6310  176.5450  143.0180 C   0  0  0  0  0  2  0  0  0  0  0  0
  191.8120  177.7800  143.8470 C   0  0  0  0  0  2  0  0  0  0  0  0
  190.4110  177.6420  145.9670 C   0  0  0  0  0  0  0  0  0  0  0  0
  191.3190  176.9990  146.5620 O   0  0  0  0  0  0  0  0  0  0  0  0
  190.6020  178.0660  144.6130 N   0  0  0  0  0  2  0  0  0  0  0  0
  187.9240  177.2820  146.2470 C   0  0  0  0  0  2  0  0  0  0  0  0
  189.3400  177.9140  148.2400 C   0  0  0  0  0  2  0  0  0  0  0  0
  186.0220  178.8730  145.9220 C   0  0  0  0  0  1  0  0  0  0  0  0
  186.6470  177.8690  146.8720 C   0  0  2  0  0  3  0  0  0  0  0  0
  188.0070  177.8360  149.0010 C   0  0  0  0  0  2  0  0  0  0  0  0
  186.8820  178.5360  148.2360 C   0  0  0  0  0  2  0  0  0  0  0  0
  189.1680  178.0440  146.7150 C   0  0  1  0  0  3  0  0  0  0  0  0
  1  3  1  0  0  0  0
  1 20  1  0  0  0  0
  2  6  2  0  0  0  0
  2  5  1  0  0  0  0
  3 44  1  0  0  0  0
  4  3  2  0  0  0  0
  5  1  2  0  0  0  0
  6  4  1  0  0  0  0
  7  2  1  0  0  0  0
  8  9  1  0  0  0  0
  8  7  1  0  0  0  0
  9 10  1  0  0  0  0
 11 15  1  6  0  0  0
 11 10  1  0  0  0  0
 13 12  1  0  0  0  0
 13 11  1  0  0  0  0
 14 13  2  0  0  0  0
 15 16  1  0  0  0  0
 16 17  1  1  0  0  0
 18 16  1  0  0  0  0
 19 18  1  0  0  0  0
 20 22  1  0  0  0  0
 22 21  2  0  0  0  0
 22 24  1  0  0  0  0
 23 24  2  0  0  0  0
 23 43  1  0  0  0  0
 25 29  1  6  0  0  0
 25 27  1  0  0  0  0
 26 27  1  0  0  0  0
 27 23  1  1  0  0  0
 28 26  1  0  0  0  0
 28 25  1  0  0  0  0
 30 31  1  0  0  0  0
 32 30  2  0  0  0  0
 33 34  1  0  0  0  0
 34 31  2  0  0  0  0
 34 29  1  0  0  0  0
 35 32  1  0  0  0  0
 35 33  2  0  0  0  0
 36 32  1  0  0  0  0
 37 36  1  0  0  0  0
 37 38  1  0  0  0  0
 38 39  1  0  0  0  0
 41 39  1  0  0  0  0
 41 40  1  0  0  0  0
 43 42  1  0  0  0  0
 44 45  2  0  0  0  0
 45 46  1  0  0  0  0
 46 47  1  0  0  0  0
 47 50  1  0  0  0  0
 48 49  2  0  0  0  0
 50 48  1  0  0  0  0
 51 57  1  0  0  0  0
 51 54  1  0  0  0  0
 52 55  1  0  0  0  0
 54 53  1  6  0  0  0
 54 56  1  0  0  0  0
 56 55  1  0  0  0  0
 57 48  1  6  0  0  0
 57 52  1  0  0  0  0
M  END
>  <MODEL>
1

>  <REMARK>
 VINA RESULT:      -6.5      0.000      0.000
  Name = 
  26 active torsions:
  status: ('A' for Active; 'I' for Inactive)
    1  A    between atoms: C_1  and  C_14
    2  A    between atoms: C_2  and  C_38
    3  A    between atoms: C_2  and  C_51
    4  A    between atoms: C_3  and  N_45
    5  A    between atoms: C_4  and  C_39
    6  A    between atoms: C_7  and  C_15
    7  A    between atoms: C_8  and  C_40
    8  A    between atoms: C_8  and  C_47
    9  A    between atoms: C_9  and  C_43
   10  A    between atoms: N_10  and  N_13
   11  A    between atoms: N_10  and  N_33
   12  A    between atoms: C_11  and  C_18
   13  A    between atoms: C_11  and  C_23
   14  A    between atoms: N_13  and  C_23
   15  A    between atoms: C_14  and  C_52
   16  A    between atoms: C_15  and  N_33
   17  A    between atoms: C_18  and  C_19
   18  A    between atoms: C_22  and  C_56
   19  A    between atoms: C_23  and  C_31
   20  A    between atoms: S_24  and  C_37
   21  A    between atoms: S_24  and  C_40
   22  A    between atoms: C_28  and  N_45
   23  A    between atoms: C_34  and  C_39
   24  A    between atoms: C_34  and  N_53
   25  A    between atoms: C_35  and  C_47
   26  A    between atoms: N_36  and  C_43
                            x       y       z     vdW  Elec       q    Type
                         _______ _______ _______ _____ _____    ______ ____

>  <TORSDO>
F 26

$$$$
=
 OpenBabel11042411233D

 57 60  0  0  1  0  0  0  0  0999 V2000
  189.7700  178.2540  142.5390 C   0  0  0  0  0  0  0  0  0  0  0  0
  190.2320  177.5740  144.7800 C   0  0  0  0  0  0  0  0  0  0  0  0
  190.9080  177.5550  142.0780 C   0  0  0  0  0  0  0  0  0  0  0  0
  191.6860  176.8560  143.0050 C   0  0  0  0  0  3  0  0  0  0  0  0
  189.4640  178.2260  143.8690 N   0  0  0  0  0  0  0  0  0  0  0  0
  191.3580  176.8680  144.3610 C   0  0  0  0  0  3  0  0  0  0  0  0
  189.8670  177.5990  146.2260 C   0  0  0  0  0  2  0  0  0  0  0  0
  188.4240  177.7440  146.3730 N   0  0  0  0  0  2  0  0  0  0  0  0
  187.8220  176.9630  145.3760 N   0  0  0  0  0  2  0  0  0  0  0  0
  186.4430  177.1950  145.4560 N   0  0  0  0  0  2  0  0  0  0  0  0
  186.2630  178.6320  145.5960 C   0  0  2  0  0  3  0  0  0  0  0  0
  184.5690  178.2300  147.2430 O   0  0  0  0  0  0  0  0  0  0  0  0
  185.5420  178.9410  146.8690 C   0  0  0  0  0  0  0  0  0  0  0  0
  185.9320  180.0340  147.6320 O   0  0  0  0  0  1  0  0  0  0  0  0
  185.5070  179.1680  144.3850 C   0  0  0  0  0  2  0  0  0  0  0  0
  184.3000  178.3000  144.0350 C   0  0  2  0  0  3  0  0  0  0  0  0
  184.4010  177.8650  142.7230 F   0  0  0  0  0  0  0  0  0  0  0  0
  182.9720  179.0260  144.2530 C   0  0  0  0  0  2  0  0  0  0  0  0
  182.0740  178.9460  143.0270 C   0  0  0  0  0  1  0  0  0  0  0  0
  188.8050  178.8950  141.5830 C   0  0  0  0  0  2  0  0  0  0  0  0
  187.4190  177.0230  142.0810 O   0  0  0  0  0  0  0  0  0  0  0  0
  187.5310  178.1250  141.4790 C   0  0  0  0  0  0  0  0  0  0  0  0
  186.4080  178.5220  139.3210 C   0  0  0  0  0  0  0  0  0  0  0  0
  186.4910  178.6230  140.6210 N   0  0  0  0  0  0  0  0  0  0  0  0
  186.9220  177.5720  137.1070 C   0  0  1  0  0  3  0  0  0  0  0  0
  188.4740  178.5990  137.9870 N   0  0  0  0  0  2  0  0  0  0  0  0
  187.4190  177.7370  138.5100 C   0  0  1  0  0  3  0  0  0  0  0  0
  188.0000  178.4490  136.6680 N   0  0  0  0  0  2  0  0  0  0  0  0
  187.1870  176.1580  136.6170 C   0  0  0  0  0  2  0  0  0  0  0  0
  184.7650  173.3440  137.3560 C   0  0  0  0  0  3  0  0  0  0  0  0
  185.9440  174.0930  137.2760 C   0  0  0  0  0  3  0  0  0  0  0  0
  183.5730  173.8550  136.8280 C   0  0  0  0  0  0  0  0  0  0  0  0
  184.7410  175.8630  136.1350 C   0  0  0  0  0  3  0  0  0  0  0  0
  185.9340  175.3520  136.6650 C   0  0  0  0  0  0  0  0  0  0  0  0
  183.5620  175.1160  136.2190 C   0  0  0  0  0  3  0  0  0  0  0  0
  182.0570  172.9210  136.9770 S   0  0  0  0  0  0  0  0  0  0  0  0
  181.0460  174.4200  137.1810 C   0  0  0  0  0  2  0  0  0  0  0  0
  180.7370  174.6110  138.6490 C   0  0  0  0  0  2  0  0  0  0  0  0
  179.4020  175.3190  138.7980 C   0  0  0  0  0  2  0  0  0  0  0  0
  178.9570  174.3610  141.0410 C   0  0  0  0  0  1  0  0  0  0  0  0
  179.1640  175.6440  140.2580 C   0  0  0  0  0  2  0  0  0  0  0  0
  184.4100  179.8360  139.6330 N   0  0  0  0  0  1  0  0  0  0  0  0
  185.2180  179.1330  138.6500 C   0  0  0  0  0  2  0  0  0  0  0  0
  191.2870  177.4860  140.6980 N   0  0  0  0  0  2  0  0  0  0  0  0
  190.7460  176.5610  139.7540 C   0  0  0  0  0  3  0  0  0  0  0  0
  191.4020  176.2340  138.6450 C   0  0  0  0  0  3  0  0  0  0  0  0
  192.7520  176.7910  138.3110 C   0  0  0  0  0  2  0  0  0  0  0  0
  194.1040  174.9350  137.2150 C   0  0  0  0  0  0  0  0  0  0  0  0
  193.5290  175.1270  136.1090 O   0  0  0  0  0  0  0  0  0  0  0  0
  193.7640  175.7400  138.3490 N   0  0  0  0  0  2  0  0  0  0  0  0
  194.9240  172.6460  136.5200 C   0  0  0  0  0  2  0  0  0  0  0  0
  196.5770  174.5150  136.9050 C   0  0  0  0  0  2  0  0  0  0  0  0
  195.4570  170.6380  137.9120 C   0  0  0  0  0  1  0  0  0  0  0  0
  195.9690  171.5570  136.8190 C   0  0  2  0  0  3  0  0  0  0  0  0
  197.6170  173.4490  136.5230 C   0  0  0  0  0  2  0  0  0  0  0  0
  197.3400  172.1180  137.2250 C   0  0  0  0  0  2  0  0  0  0  0  0
  195.2160  173.9230  137.3140 C   0  0  1  0  0  3  0  0  0  0  0  0
  1  5  1  0  0  0  0
  2  7  1  0  0  0  0
  3  1  2  0  0  0  0
  3  4  1  0  0  0  0
  4  6  2  0  0  0  0
  5  2  2  0  0  0  0
  6  2  1  0  0  0  0
  7  8  1  0  0  0  0
  9 10  1  0  0  0  0
  9  8  1  0  0  0  0
 10 11  1  0  0  0  0
 11 15  1  6  0  0  0
 11 13  1  0  0  0  0
 13 12  2  0  0  0  0
 13 14  1  0  0  0  0
 16 17  1  6  0  0  0
 16 18  1  0  0  0  0
 16 15  1  0  0  0  0
 19 18  1  0  0  0  0
 20  1  1  0  0  0  0
 22 20  1  0  0  0  0
 22 21  2  0  0  0  0
 23 24  2  0  0  0  0
 24 22  1  0  0  0  0
 25 29  1  6  0  0  0
 25 27  1  0  0  0  0
 26 27  1  0  0  0  0
 27 23  1  1  0  0  0
 28 25  1  0  0  0  0
 28 26  1  0  0  0  0
 29 34  1  0  0  0  0
 31 30  1  0  0  0  0
 32 36  1  0  0  0  0
 32 30  2  0  0  0  0
 33 35  2  0  0  0  0
 33 34  1  0  0  0  0
 34 31  2  0  0  0  0
 35 32  1  0  0  0  0
 36 37  1  0  0  0  0
 37 38  1  0  0  0  0
 38 39  1  0  0  0  0
 39 41  1  0  0  0  0
 41 40  1  0  0  0  0
 43 23  1  0  0  0  0
 43 42  1  0  0  0  0
 44  3  1  0  0  0  0
 45 44  1  0  0  0  0
 46 45  2  0  0  0  0
 47 50  1  0  0  0  0
 47 46  1  0  0  0  0
 48 50  1  0  0  0  0
 49 48  2  0  0  0  0
 51 54  1  0  0  0  0
 51 57  1  0  0  0  0
 52 57  1  0  0  0  0
 54 56  1  0  0  0  0
 54 53  1  1  0  0  0
 55 52  1  0  0  0  0
 55 56  1  0  0  0  0
 57 48  1  6  0  0  0
M  END
>  <MODEL>
2

>  <REMARK>
 VINA RESULT:      -6.2      3.948      8.632
  Name = 
  26 active torsions:
  status: ('A' for Active; 'I' for Inactive)
    1  A    between atoms: C_1  and  C_14
    2  A    between atoms: C_2  and  C_38
    3  A    between atoms: C_2  and  C_51
    4  A    between atoms: C_3  and  N_45
    5  A    between atoms: C_4  and  C_39
    6  A    between atoms: C_7  and  C_15
    7  A    between atoms: C_8  and  C_40
    8  A    between atoms: C_8  and  C_47
    9  A    between atoms: C_9  and  C_43
   10  A    between atoms: N_10  and  N_13
   11  A    between atoms: N_10  and  N_33
   12  A    between atoms: C_11  and  C_18
   13  A    between atoms: C_11  and  C_23
   14  A    between atoms: N_13  and  C_23
   15  A    between atoms: C_14  and  C_52
   16  A    between atoms: C_15  and  N_33
   17  A    between atoms: C_18  and  C_19
   18  A    between atoms: C_22  and  C_56
   19  A    between atoms: C_23  and  C_31
   20  A    between atoms: S_24  and  C_37
   21  A    between atoms: S_24  and  C_40
   22  A    between atoms: C_28  and  N_45
   23  A    between atoms: C_34  and  C_39
   24  A    between atoms: C_34  and  N_53
   25  A    between atoms: C_35  and  C_47
   26  A    between atoms: N_36  and  C_43
                            x       y       z     vdW  Elec       q    Type
                         _______ _______ _______ _____ _____    ______ ____

>  <TORSDO>
F 26

$$$$
=
 OpenBabel11042411233D

 57 60  0  0  1  0  0  0  0  0999 V2000
  186.5760  178.3730  138.7140 C   0  0  0  0  0  0  0  0  0  0  0  0
  184.5450  178.9230  139.8390 C   0  0  0  0  0  0  0  0  0  0  0  0
  187.2890  178.4550  139.9320 C   0  0  0  0  0  0  0  0  0  0  0  0
  186.5850  178.7630  141.0990 C   0  0  0  0  0  3  0  0  0  0  0  0
  185.2300  178.5930  138.7130 N   0  0  0  0  0  0  0  0  0  0  0  0
  185.2130  179.0070  141.0580 C   0  0  0  0  0  3  0  0  0  0  0  0
  183.0770  179.1810  139.7760 C   0  0  0  0  0  2  0  0  0  0  0  0
  182.6340  179.2040  138.3880 N   0  0  0  0  0  2  0  0  0  0  0  0
  181.2430  179.0230  138.3900 N   0  0  0  0  0  2  0  0  0  0  0  0
  180.9530  178.1190  139.4200 N   0  0  0  0  0  2  0  0  0  0  0  0
  180.4210  176.9180  138.7920 C   0  0  2  0  0  3  0  0  0  0  0  0
  179.8040  174.7190  139.5180 O   0  0  0  0  0  0  0  0  0  0  0  0
  180.0360  175.9180  139.8340 C   0  0  0  0  0  0  0  0  0  0  0  0
  179.9070  176.3200  141.1580 O   0  0  0  0  0  1  0  0  0  0  0  0
  181.4600  176.3480  137.8320 C   0  0  0  0  0  2  0  0  0  0  0  0
  180.8780  176.0980  136.4420 C   0  0  2  0  0  3  0  0  0  0  0  0
  179.5040  176.2800  136.4700 F   0  0  0  0  0  0  0  0  0  0  0  0
  181.2190  174.7090  135.9040 C   0  0  0  0  0  2  0  0  0  0  0  0
  180.0380  173.7540  136.0080 C   0  0  0  0  0  1  0  0  0  0  0  0
  187.2370  177.8960  137.4520 C   0  0  0  0  0  2  0  0  0  0  0  0
  185.8790  177.3550  135.5710 O   0  0  0  0  0  0  0  0  0  0  0  0
  186.3540  176.9760  136.6750 C   0  0  0  0  0  0  0  0  0  0  0  0
  186.1550  174.5200  136.7310 C   0  0  0  0  0  0  0  0  0  0  0  0
  186.0010  175.7080  137.2520 N   0  0  0  0  0  0  0  0  0  0  0  0
  188.2230  173.7520  135.6360 C   0  0  1  0  0  3  0  0  0  0  0  0
  186.4860  173.0320  134.8000 N   0  0  0  0  0  2  0  0  0  0  0  0
  186.8530  174.3090  135.4030 C   0  0  1  0  0  3  0  0  0  0  0  0
  187.7740  172.5070  135.0270 N   0  0  0  0  0  2  0  0  0  0  0  0
  189.2310  174.4300  134.7210 C   0  0  0  0  0  2  0  0  0  0  0  0
  192.2820  173.7480  136.8540 C   0  0  0  0  0  3  0  0  0  0  0  0
  191.0510  173.5870  136.2100 C   0  0  0  0  0  3  0  0  0  0  0  0
  192.9910  174.9470  136.7210 C   0  0  0  0  0  0  0  0  0  0  0  0
  191.2350  175.8270  135.3000 C   0  0  0  0  0  3  0  0  0  0  0  0
  190.5260  174.6250  135.4330 C   0  0  0  0  0  0  0  0  0  0  0  0
  192.4670  175.9860  135.9420 C   0  0  0  0  0  3  0  0  0  0  0  0
  194.5880  175.1350  137.5020 S   0  0  0  0  0  0  0  0  0  0  0  0
  194.6410  173.3910  138.0200 C   0  0  0  0  0  2  0  0  0  0  0  0
  195.8240  172.7170  137.3630 C   0  0  0  0  0  2  0  0  0  0  0  0
  195.3590  171.4640  136.6420 C   0  0  0  0  0  2  0  0  0  0  0  0
  195.7690  173.1440  134.8670 C   0  0  0  0  0  1  0  0  0  0  0  0
  195.2870  171.7350  135.1540 C   0  0  0  0  0  2  0  0  0  0  0  0
  184.2860  173.1020  137.2910 N   0  0  0  0  0  1  0  0  0  0  0  0
  185.6980  173.3430  137.5350 C   0  0  0  0  0  2  0  0  0  0  0  0
  188.6940  178.1960  140.0440 N   0  0  0  0  0  2  0  0  0  0  0  0
  189.2620  176.9160  140.3220 C   0  0  0  0  0  3  0  0  0  0  0  0
  190.1050  176.7340  141.3330 C   0  0  0  0  0  3  0  0  0  0  0  0
  190.5080  177.8410  142.2590 C   0  0  0  0  0  2  0  0  0  0  0  0
  189.8950  177.8690  144.7280 C   0  0  0  0  0  0  0  0  0  0  0  0
  191.0940  177.6570  145.0600 O   0  0  0  0  0  0  0  0  0  0  0  0
  189.5420  177.9790  143.3450 N   0  0  0  0  0  2  0  0  0  0  0  0
  187.4950  177.4950  145.4330 C   0  0  0  0  0  2  0  0  0  0  0  0
  189.3190  177.6080  147.1750 C   0  0  0  0  0  2  0  0  0  0  0  0
  185.6770  179.1500  145.8890 C   0  0  0  0  0  1  0  0  0  0  0  0
  186.4100  177.9380  146.4300 C   0  0  2  0  0  3  0  0  0  0  0  0
  188.1630  177.3730  148.1600 C   0  0  0  0  0  2  0  0  0  0  0  0
  186.9570  178.2550  147.8300 C   0  0  0  0  0  2  0  0  0  0  0  0
  188.8550  178.1020  145.7920 C   0  0  1  0  0  3  0  0  0  0  0  0
  1  3  1  0  0  0  0
  2  6  2  0  0  0  0
  3 44  1  0  0  0  0
  3  4  2  0  0  0  0
  5  1  2  0  0  0  0
  5  2  1  0  0  0  0
  6  4  1  0  0  0  0
  7  2  1  0  0  0  0
  8  9  1  0  0  0  0
  8  7  1  0  0  0  0
  9 10  1  0  0  0  0
 11 15  1  6  0  0  0
 11 10  1  0  0  0  0
 11 13  1  0  0  0  0
 12 13  2  0  0  0  0
 13 14  1  0  0  0  0
 16 17  1  1  0  0  0
 16 15  1  0  0  0  0
 18 19  1  0  0  0  0
 18 16  1  0  0  0  0
 20  1  1  0  0  0  0
 21 22  2  0  0  0  0
 22 24  1  0  0  0  0
 22 20  1  0  0  0  0
 23 24  2  0  0  0  0
 23 43  1  0  0  0  0
 25 29  1  6  0  0  0
 26 28  1  0  0  0  0
 26 27  1  0  0  0  0
 27 25  1  0  0  0  0
 27 23  1  1  0  0  0
 28 25  1  0  0  0  0
 29 34  1  0  0  0  0
 31 30  2  0  0  0  0
 32 30  1  0  0  0  0
 32 36  1  0  0  0  0
 33 34  2  0  0  0  0
 33 35  1  0  0  0  0
 34 31  1  0  0  0  0
 35 32  2  0  0  0  0
 36 37  1  0  0  0  0
 38 37  1  0  0  0  0
 39 38  1  0  0  0  0
 40 41  1  0  0  0  0
 41 39  1  0  0  0  0
 42 43  1  0  0  0  0
 44 45  1  0  0  0  0
 45 46  2  0  0  0  0
 46 47  1  0  0  0  0
 47 50  1  0  0  0  0
 48 49  2  0  0  0  0
 50 48  1  0  0  0  0
 51 57  1  0  0  0  0
 51 54  1  0  0  0  0
 52 55  1  0  0  0  0
 54 53  1  6  0  0  0
 54 56  1  0  0  0  0
 56 55  1  0  0  0  0
 57 48  1  6  0  0  0
 57 52  1  0  0  0  0
M  END
>  <MODEL>
3

>  <REMARK>
 VINA RESULT:      -5.7      4.158      8.552
  Name = 
  26 active torsions:
  status: ('A' for Active; 'I' for Inactive)
    1  A    between atoms: C_1  and  C_14
    2  A    between atoms: C_2  and  C_38
    3  A    between atoms: C_2  and  C_51
    4  A    between atoms: C_3  and  N_45
    5  A    between atoms: C_4  and  C_39
    6  A    between atoms: C_7  and  C_15
    7  A    between atoms: C_8  and  C_40
    8  A    between atoms: C_8  and  C_47
    9  A    between atoms: C_9  and  C_43
   10  A    between atoms: N_10  and  N_13
   11  A    between atoms: N_10  and  N_33
   12  A    between atoms: C_11  and  C_18
   13  A    between atoms: C_11  and  C_23
   14  A    between atoms: N_13  and  C_23
   15  A    between atoms: C_14  and  C_52
   16  A    between atoms: C_15  and  N_33
   17  A    between atoms: C_18  and  C_19
   18  A    between atoms: C_22  and  C_56
   19  A    between atoms: C_23  and  C_31
   20  A    between atoms: S_24  and  C_37
   21  A    between atoms: S_24  and  C_40
   22  A    between atoms: C_28  and  N_45
   23  A    between atoms: C_34  and  C_39
   24  A    between atoms: C_34  and  N_53
   25  A    between atoms: C_35  and  C_47
   26  A    between atoms: N_36  and  C_43
                            x       y       z     vdW  Elec       q    Type
                         _______ _______ _______ _____ _____    ______ ____

>  <TORSDO>
F 26

$$$$
=
 OpenBabel11042411233D

 57 60  0  0  1  0  0  0  0  0999 V2000
  186.4980  176.3900  136.8000 C   0  0  0  0  0  0  0  0  0  0  0  0
  184.1580  176.7540  136.5110 C   0  0  0  0  0  0  0  0  0  0  0  0
  186.6300  176.0660  135.4310 C   0  0  0  0  0  0  0  0  0  0  0  0
  185.4940  176.1110  134.6200 C   0  0  0  0  0  3  0  0  0  0  0  0
  185.2720  176.7370  137.2870 N   0  0  0  0  0  0  0  0  0  0  0  0
  184.2510  176.4460  135.1560 C   0  0  0  0  0  3  0  0  0  0  0  0
  182.8360  177.1140  137.1020 C   0  0  0  0  0  2  0  0  0  0  0  0
  183.0280  177.9520  138.2790 N   0  0  0  0  0  2  0  0  0  0  0  0
  181.8260  178.6390  138.5040 N   0  0  0  0  0  2  0  0  0  0  0  0
  180.8000  177.6870  138.4560 N   0  0  0  0  0  2  0  0  0  0  0  0
  180.5820  177.2310  139.8210 C   0  0  2  0  0  3  0  0  0  0  0  0
  179.4540  175.3570  140.8020 O   0  0  0  0  0  1  0  0  0  0  0  0
  180.1020  175.8140  139.8210 C   0  0  0  0  0  0  0  0  0  0  0  0
  180.3930  174.9900  138.7420 O   0  0  0  0  0  0  0  0  0  0  0  0
  179.5860  178.1550  140.5110 C   0  0  0  0  0  2  0  0  0  0  0  0
  180.0410  178.5400  141.9170 C   0  0  2  0  0  3  0  0  0  0  0  0
  179.9820  177.4320  142.7480 F   0  0  0  0  0  0  0  0  0  0  0  0
  179.2230  179.6900  142.5050 C   0  0  0  0  0  2  0  0  0  0  0  0
  178.9890  179.5140  143.9980 C   0  0  0  0  0  1  0  0  0  0  0  0
  187.6990  176.5130  137.6940 C   0  0  0  0  0  2  0  0  0  0  0  0
  187.5550  178.8760  137.4250 O   0  0  0  0  0  0  0  0  0  0  0  0
  187.9010  177.9160  138.1640 C   0  0  0  0  0  0  0  0  0  0  0  0
  188.0240  178.2590  140.6010 C   0  0  0  0  0  0  0  0  0  0  0  0
  188.5650  178.1340  139.4200 N   0  0  0  0  0  0  0  0  0  0  0  0
  186.0700  179.0450  141.8800 C   0  0  1  0  0  3  0  0  0  0  0  0
  185.7550  178.8530  139.8560 N   0  0  0  0  0  2  0  0  0  0  0  0
  186.5350  178.0900  140.8250 C   0  0  1  0  0  3  0  0  0  0  0  0
  185.3260  179.7560  140.8490 N   0  0  0  0  0  2  0  0  0  0  0  0
  185.0980  178.3560  142.8250 C   0  0  0  0  0  2  0  0  0  0  0  0
  187.4990  177.1080  145.4720 C   0  0  0  0  0  3  0  0  0  0  0  0
  186.8680  177.3020  144.2380 C   0  0  0  0  0  3  0  0  0  0  0  0
  187.0040  177.7400  146.6190 C   0  0  0  0  0  0  0  0  0  0  0  0
  185.2440  178.7580  145.2990 C   0  0  0  0  0  3  0  0  0  0  0  0
  185.7410  178.1260  144.1490 C   0  0  0  0  0  0  0  0  0  0  0  0
  185.8770  178.5660  146.5310 C   0  0  0  0  0  3  0  0  0  0  0  0
  187.8390  177.5330  148.1850 S   0  0  0  0  0  0  0  0  0  0  0  0
  189.4390  178.0760  147.5080 C   0  0  0  0  0  2  0  0  0  0  0  0
  189.7200  177.3130  146.2330 C   0  0  0  0  0  2  0  0  0  0  0  0
  191.1240  176.7360  146.2870 C   0  0  0  0  0  2  0  0  0  0  0  0
  192.5800  175.6280  147.9580 C   0  0  0  0  0  1  0  0  0  0  0  0
  191.6390  176.7920  147.7090 C   0  0  0  0  0  2  0  0  0  0  0  0
  190.2310  177.8810  141.4970 N   0  0  0  0  0  1  0  0  0  0  0  0
  188.9370  178.4860  141.7650 C   0  0  0  0  0  2  0  0  0  0  0  0
  187.8810  175.7330  134.8150 N   0  0  0  0  0  2  0  0  0  0  0  0
  188.6580  174.5770  135.1310 C   0  0  0  0  0  3  0  0  0  0  0  0
  189.9520  174.6660  135.4180 C   0  0  0  0  0  3  0  0  0  0  0  0
  190.6860  175.9720  135.4490 C   0  0  0  0  0  2  0  0  0  0  0  0
  192.9600  175.9850  136.5890 C   0  0  0  0  0  0  0  0  0  0  0  0
  192.4510  176.3900  137.6700 O   0  0  0  0  0  0  0  0  0  0  0  0
  192.1290  175.7510  135.4470 N   0  0  0  0  0  2  0  0  0  0  0  0
  194.6940  174.1630  136.3240 C   0  0  0  0  0  2  0  0  0  0  0  0
  195.1690  176.4910  135.4690 C   0  0  0  0  0  2  0  0  0  0  0  0
  196.4620  173.3830  137.9110 C   0  0  0  0  0  1  0  0  0  0  0  0
  196.1880  173.8370  136.4900 C   0  0  2  0  0  3  0  0  0  0  0  0
  196.5100  175.8780  135.0360 C   0  0  0  0  0  2  0  0  0  0  0  0
  197.1150  175.0130  136.1430 C   0  0  0  0  0  2  0  0  0  0  0  0
  194.4290  175.6580  136.5320 C   0  0  1  0  0  3  0  0  0  0  0  0
  1  5  1  0  0  0  0
  1 20  1  0  0  0  0
  2  7  1  0  0  0  0
  2  5  2  0  0  0  0
  3  1  2  0  0  0  0
  4  6  2  0  0  0  0
  4  3  1  0  0  0  0
  6  2  1  0  0  0  0
  7  8  1  0  0  0  0
  8  9  1  0  0  0  0
 10  9  1  0  0  0  0
 10 11  1  0  0  0  0
 11 15  1  6  0  0  0
 13 11  1  0  0  0  0
 13 12  1  0  0  0  0
 14 13  2  0  0  0  0
 15 16  1  0  0  0  0
 16 18  1  0  0  0  0
 16 17  1  1  0  0  0
 18 19  1  0  0  0  0
 20 22  1  0  0  0  0
 21 22  2  0  0  0  0
 22 24  1  0  0  0  0
 23 43  1  0  0  0  0
 24 23  2  0  0  0  0
 25 29  1  1  0  0  0
 26 27  1  0  0  0  0
 26 28  1  0  0  0  0
 27 23  1  6  0  0  0
 27 25  1  0  0  0  0
 28 25  1  0  0  0  0
 29 34  1  0  0  0  0
 30 32  1  0  0  0  0
 31 30  2  0  0  0  0
 32 36  1  0  0  0  0
 33 35  1  0  0  0  0
 34 31  1  0  0  0  0
 34 33  2  0  0  0  0
 35 32  2  0  0  0  0
 37 36  1  0  0  0  0
 38 39  1  0  0  0  0
 38 37  1  0  0  0  0
 39 41  1  0  0  0  0
 41 40  1  0  0  0  0
 42 43  1  0  0  0  0
 44 45  1  0  0  0  0
 44  3  1  0  0  0  0
 45 46  2  0  0  0  0
 46 47  1  0  0  0  0
 48 49  2  0  0  0  0
 50 47  1  0  0  0  0
 50 48  1  0  0  0  0
 51 54  1  0  0  0  0
 51 57  1  0  0  0  0
 52 57  1  0  0  0  0
 54 53  1  1  0  0  0
 55 52  1  0  0  0  0
 55 56  1  0  0  0  0
 56 54  1  0  0  0  0
 57 48  1  6  0  0  0
M  END
>  <MODEL>
4

>  <REMARK>
 VINA RESULT:      -5.7      4.366      9.772
  Name = 
  26 active torsions:
  status: ('A' for Active; 'I' for Inactive)
    1  A    between atoms: C_1  and  C_14
    2  A    between atoms: C_2  and  C_38
    3  A    between atoms: C_2  and  C_51
    4  A    between atoms: C_3  and  N_45
    5  A    between atoms: C_4  and  C_39
    6  A    between atoms: C_7  and  C_15
    7  A    between atoms: C_8  and  C_40
    8  A    between atoms: C_8  and  C_47
    9  A    between atoms: C_9  and  C_43
   10  A    between atoms: N_10  and  N_13
   11  A    between atoms: N_10  and  N_33
   12  A    between atoms: C_11  and  C_18
   13  A    between atoms: C_11  and  C_23
   14  A    between atoms: N_13  and  C_23
   15  A    between atoms: C_14  and  C_52
   16  A    between atoms: C_15  and  N_33
   17  A    between atoms: C_18  and  C_19
   18  A    between atoms: C_22  and  C_56
   19  A    between atoms: C_23  and  C_31
   20  A    between atoms: S_24  and  C_37
   21  A    between atoms: S_24  and  C_40
   22  A    between atoms: C_28  and  N_45
   23  A    between atoms: C_34  and  C_39
   24  A    between atoms: C_34  and  N_53
   25  A    between atoms: C_35  and  C_47
   26  A    between atoms: N_36  and  C_43
                            x       y       z     vdW  Elec       q    Type
                         _______ _______ _______ _____ _____    ______ ____

>  <TORSDO>
F 26

$$$$
=
 OpenBabel11042411233D

 57 60  0  0  1  0  0  0  0  0999 V2000
  188.2480  174.8710  136.2130 C   0  0  0  0  0  0  0  0  0  0  0  0
  187.2310  176.7290  137.3120 C   0  0  0  0  0  0  0  0  0  0  0  0
  187.0250  174.1630  136.2520 C   0  0  0  0  0  0  0  0  0  0  0  0
  185.9100  174.7820  136.8220 C   0  0  0  0  0  3  0  0  0  0  0  0
  188.3030  176.1320  136.7300 N   0  0  0  0  0  0  0  0  0  0  0  0
  186.0090  176.0640  137.3620 C   0  0  0  0  0  3  0  0  0  0  0  0
  187.3560  178.1000  137.8870 C   0  0  0  0  0  2  0  0  0  0  0  0
  186.3330  178.9720  137.3220 N   0  0  0  0  0  2  0  0  0  0  0  0
  185.3040  179.0770  138.2690 N   0  0  0  0  0  2  0  0  0  0  0  0
  185.8370  178.6650  139.4970 N   0  0  0  0  0  2  0  0  0  0  0  0
  184.7590  178.7390  140.4720 C   0  0  2  0  0  3  0  0  0  0  0  0
  186.5250  178.3130  142.0360 O   0  0  0  0  0  0  0  0  0  0  0  0
  185.2960  178.5260  141.8520 C   0  0  0  0  0  0  0  0  0  0  0  0
  184.4280  178.5380  142.9360 O   0  0  0  0  0  1  0  0  0  0  0  0
  183.6910  177.7060  140.1260 C   0  0  0  0  0  2  0  0  0  0  0  0
  182.2860  178.3020  140.1640 C   0  0  2  0  0  3  0  0  0  0  0  0
  182.2850  179.4500  140.9410 F   0  0  0  0  0  0  0  0  0  0  0  0
  181.2420  177.3110  140.6800 C   0  0  0  0  0  2  0  0  0  0  0  0
  180.3970  177.9080  141.7960 C   0  0  0  0  0  1  0  0  0  0  0  0
  189.4420  174.3300  135.4800 C   0  0  0  0  0  2  0  0  0  0  0  0
  190.1490  173.5100  137.6010 O   0  0  0  0  0  0  0  0  0  0  0  0
  190.4720  173.7890  136.4150 C   0  0  0  0  0  0  0  0  0  0  0  0
  192.7400  174.6160  135.9230 C   0  0  0  0  0  0  0  0  0  0  0  0
  191.8300  173.6810  135.9580 N   0  0  0  0  0  0  0  0  0  0  0  0
  192.3900  175.9400  137.9700 C   0  0  1  0  0  3  0  0  0  0  0  0
  193.7320  176.7520  136.6370 N   0  0  0  0  0  2  0  0  0  0  0  0
  192.4890  176.0030  136.4780 C   0  0  1  0  0  3  0  0  0  0  0  0
  193.6410  176.6840  138.0420 N   0  0  0  0  0  2  0  0  0  0  0  0
  191.2490  176.8180  138.4610 C   0  0  0  0  0  2  0  0  0  0  0  0
  190.2220  176.3380  142.0720 C   0  0  0  0  0  3  0  0  0  0  0  0
  190.2080  176.3080  140.6740 C   0  0  0  0  0  3  0  0  0  0  0  0
  191.2870  176.9450  142.7490 C   0  0  0  0  0  0  0  0  0  0  0  0
  192.3210  177.4970  140.6270 C   0  0  0  0  0  3  0  0  0  0  0  0
  191.2550  176.8870  139.9500 C   0  0  0  0  0  0  0  0  0  0  0  0
  192.3370  177.5230  142.0250 C   0  0  0  0  0  3  0  0  0  0  0  0
  191.3310  176.9380  144.5360 S   0  0  0  0  0  0  0  0  0  0  0  0
  189.5280  176.7380  144.6710 C   0  0  0  0  0  2  0  0  0  0  0  0
  189.0120  177.6390  145.7690 C   0  0  0  0  0  2  0  0  0  0  0  0
  187.4980  177.7270  145.6850 C   0  0  0  0  0  2  0  0  0  0  0  0
  187.9000  178.1730  148.0890 C   0  0  0  0  0  1  0  0  0  0  0  0
  186.9620  178.4160  146.9220 C   0  0  0  0  0  2  0  0  0  0  0  0
  194.0110  172.9970  134.6660 N   0  0  0  0  0  1  0  0  0  0  0  0
  194.0930  174.2520  135.3950 C   0  0  0  0  0  2  0  0  0  0  0  0
  186.8530  172.8530  135.6960 N   0  0  0  0  0  2  0  0  0  0  0  0
  185.9970  172.5460  134.5940 C   0  0  0  0  0  3  0  0  0  0  0  0
  184.7900  172.0230  134.7760 C   0  0  0  0  0  3  0  0  0  0  0  0
  184.2300  171.7330  136.1350 C   0  0  0  0  0  2  0  0  0  0  0  0
  182.0300  172.9880  136.3730 C   0  0  0  0  0  0  0  0  0  0  0  0
  181.4140  172.0940  135.7300 O   0  0  0  0  0  0  0  0  0  0  0  0
  183.4350  172.8600  136.6140 N   0  0  0  0  0  2  0  0  0  0  0  0
  180.6800  175.0750  135.9030 C   0  0  0  0  0  2  0  0  0  0  0  0
  180.1640  173.6700  137.9370 C   0  0  0  0  0  2  0  0  0  0  0  0
  181.1350  177.4560  136.5150 C   0  0  0  0  0  1  0  0  0  0  0  0
  180.1000  176.3480  136.5410 C   0  0  2  0  0  3  0  0  0  0  0  0
  179.0730  174.7240  138.1820 C   0  0  0  0  0  2  0  0  0  0  0  0
  179.6080  176.1430  137.9820 C   0  0  0  0  0  2  0  0  0  0  0  0
  181.2650  174.1410  136.9680 C   0  0  1  0  0  3  0  0  0  0  0  0
  1  3  2  0  0  0  0
  1  5  1  0  0  0  0
  2  6  1  0  0  0  0
  2  7  1  0  0  0  0
  3  4  1  0  0  0  0
  4  6  2  0  0  0  0
  5  2  2  0  0  0  0
  8  7  1  0  0  0  0
  8  9  1  0  0  0  0
  9 10  1  0  0  0  0
 10 11  1  0  0  0  0
 11 15  1  6  0  0  0
 11 13  1  0  0  0  0
 13 12  2  0  0  0  0
 13 14  1  0  0  0  0
 15 16  1  0  0  0  0
 16 18  1  0  0  0  0
 16 17  1  1  0  0  0
 18 19  1  0  0  0  0
 20  1  1  0  0  0  0
 20 22  1  0  0  0  0
 22 21  2  0  0  0  0
 23 24  2  0  0  0  0
 24 22  1  0  0  0  0
 25 28  1  0  0  0  0
 25 29  1  1  0  0  0
 26 28  1  0  0  0  0
 27 23  1  6  0  0  0
 27 26  1  0  0  0  0
 27 25  1  0  0  0  0
 29 34  1  0  0  0  0
 30 32  1  0  0  0  0
 31 30  2  0  0  0  0
 32 36  1  0  0  0  0
 33 35  1  0  0  0  0
 34 33  2  0  0  0  0
 34 31  1  0  0  0  0
 35 32  2  0  0  0  0
 36 37  1  0  0  0  0
 37 38  1  0  0  0  0
 39 38  1  0  0  0  0
 39 41  1  0  0  0  0
 41 40  1  0  0  0  0
 42 43  1  0  0  0  0
 43 23  1  0  0  0  0
 44  3  1  0  0  0  0
 45 46  2  0  0  0  0
 45 44  1  0  0  0  0
 46 47  1  0  0  0  0
 47 50  1  0  0  0  0
 48 50  1  0  0  0  0
 49 48  2  0  0  0  0
 51 54  1  0  0  0  0
 51 57  1  0  0  0  0
 52 55  1  0  0  0  0
 54 53  1  1  0  0  0
 54 56  1  0  0  0  0
 56 55  1  0  0  0  0
 57 48  1  6  0  0  0
 57 52  1  0  0  0  0
M  END
>  <MODEL>
5

>  <REMARK>
 VINA RESULT:      -5.5      3.706     10.486
  Name = 
  26 active torsions:
  status: ('A' for Active; 'I' for Inactive)
    1  A    between atoms: C_1  and  C_14
    2  A    between atoms: C_2  and  C_38
    3  A    between atoms: C_2  and  C_51
    4  A    between atoms: C_3  and  N_45
    5  A    between atoms: C_4  and  C_39
    6  A    between atoms: C_7  and  C_15
    7  A    between atoms: C_8  and  C_40
    8  A    between atoms: C_8  and  C_47
    9  A    between atoms: C_9  and  C_43
   10  A    between atoms: N_10  and  N_13
   11  A    between atoms: N_10  and  N_33
   12  A    between atoms: C_11  and  C_18
   13  A    between atoms: C_11  and  C_23
   14  A    between atoms: N_13  and  C_23
   15  A    between atoms: C_14  and  C_52
   16  A    between atoms: C_15  and  N_33
   17  A    between atoms: C_18  and  C_19
   18  A    between atoms: C_22  and  C_56
   19  A    between atoms: C_23  and  C_31
   20  A    between atoms: S_24  and  C_37
   21  A    between atoms: S_24  and  C_40
   22  A    between atoms: C_28  and  N_45
   23  A    between atoms: C_34  and  C_39
   24  A    between atoms: C_34  and  N_53
   25  A    between atoms: C_35  and  C_47
   26  A    between atoms: N_36  and  C_43
                            x       y       z     vdW  Elec       q    Type
                         _______ _______ _______ _____ _____    ______ ____

>  <TORSDO>
F 26

$$$$
=
 OpenBabel11042411233D

 57 60  0  0  1  0  0  0  0  0999 V2000
  186.9970  176.3230  136.9580 C   0  0  0  0  0  0  0  0  0  0  0  0
  184.7060  176.4560  136.3040 C   0  0  0  0  0  0  0  0  0  0  0  0
  187.3610  175.9300  135.6500 C   0  0  0  0  0  0  0  0  0  0  0  0
  186.3610  175.8230  134.6810 C   0  0  0  0  0  3  0  0  0  0  0  0
  185.6870  176.5870  137.2340 N   0  0  0  0  0  0  0  0  0  0  0  0
  185.0280  176.0770  135.0040 C   0  0  0  0  0  3  0  0  0  0  0  0
  183.2850  176.7300  136.6690 C   0  0  0  0  0  2  0  0  0  0  0  0
  182.8080  177.9100  135.9600 N   0  0  0  0  0  2  0  0  0  0  0  0
  181.8300  178.5140  136.7650 N   0  0  0  0  0  2  0  0  0  0  0  0
  182.3100  178.4820  138.0800 N   0  0  0  0  0  2  0  0  0  0  0  0
  181.1900  178.8170  138.9470 C   0  0  2  0  0  3  0  0  0  0  0  0
  180.1550  180.8370  139.7180 O   0  0  0  0  0  1  0  0  0  0  0  0
  181.1800  180.2850  139.2330 C   0  0  0  0  0  0  0  0  0  0  0  0
  182.3010  181.0500  138.9370 O   0  0  0  0  0  0  0  0  0  0  0  0
  181.2830  178.0020  140.2320 C   0  0  0  0  0  2  0  0  0  0  0  0
  180.0090  177.2010  140.4940 C   0  0  2  0  0  3  0  0  0  0  0  0
  179.7690  177.1360  141.8580 F   0  0  0  0  0  0  0  0  0  0  0  0
  180.0680  175.7940  139.8980 C   0  0  0  0  0  2  0  0  0  0  0  0
  179.4600  174.7570  140.8300 C   0  0  0  0  0  1  0  0  0  0  0  0
  188.0350  176.6080  138.0060 C   0  0  0  0  0  2  0  0  0  0  0  0
  187.6000  178.9210  137.6390 O   0  0  0  0  0  0  0  0  0  0  0  0
  188.0120  178.0370  138.4370 C   0  0  0  0  0  0  0  0  0  0  0  0
  187.9100  178.4080  140.8710 C   0  0  0  0  0  0  0  0  0  0  0  0
  188.5420  178.3770  139.7290 N   0  0  0  0  0  0  0  0  0  0  0  0
  185.7610  178.8530  141.9890 C   0  0  1  0  0  3  0  0  0  0  0  0
  185.6310  178.5590  139.9560 N   0  0  0  0  0  2  0  0  0  0  0  0
  186.4640  177.9750  141.0020 C   0  0  1  0  0  3  0  0  0  0  0  0
  184.9760  179.3910  140.8850 N   0  0  0  0  0  2  0  0  0  0  0  0
  184.8630  178.0210  142.8910 C   0  0  0  0  0  2  0  0  0  0  0  0
  187.2650  177.4440  145.7590 C   0  0  0  0  0  3  0  0  0  0  0  0
  186.7160  177.4660  144.4730 C   0  0  0  0  0  3  0  0  0  0  0  0
  186.5250  177.9260  146.8450 C   0  0  0  0  0  0  0  0  0  0  0  0
  184.6840  178.4490  145.3590 C   0  0  0  0  0  3  0  0  0  0  0  0
  185.4260  177.9670  144.2700 C   0  0  0  0  0  0  0  0  0  0  0  0
  185.2340  178.4300  146.6440 C   0  0  0  0  0  3  0  0  0  0  0  0
  187.2460  177.9450  148.4810 S   0  0  0  0  0  0  0  0  0  0  0  0
  188.6060  176.8390  147.9940 C   0  0  0  0  0  2  0  0  0  0  0  0
  189.9220  177.5570  148.1900 C   0  0  0  0  0  2  0  0  0  0  0  0
  191.0610  176.6630  147.7330 C   0  0  0  0  0  2  0  0  0  0  0  0
  191.4330  177.4390  145.4090 C   0  0  0  0  0  1  0  0  0  0  0  0
  190.8780  176.3200  146.2690 C   0  0  0  0  0  2  0  0  0  0  0  0
  189.8170  177.8990  142.2590 N   0  0  0  0  0  1  0  0  0  0  0  0
  188.6890  178.8010  142.0880 C   0  0  0  0  0  2  0  0  0  0  0  0
  188.7130  175.6760  135.2490 N   0  0  0  0  0  2  0  0  0  0  0  0
  189.2770  174.3740  135.0780 C   0  0  0  0  0  3  0  0  0  0  0  0
  190.5310  174.1080  135.4270 C   0  0  0  0  0  3  0  0  0  0  0  0
  191.4360  175.1350  136.0360 C   0  0  0  0  0  2  0  0  0  0  0  0
  193.6670  174.4880  137.0730 C   0  0  0  0  0  0  0  0  0  0  0  0
  193.2040  174.6360  138.2380 O   0  0  0  0  0  0  0  0  0  0  0  0
  192.8300  174.7150  135.9340 N   0  0  0  0  0  2  0  0  0  0  0  0
  195.5250  174.0120  135.4240 C   0  0  0  0  0  2  0  0  0  0  0  0
  196.0820  174.7230  137.7820 C   0  0  0  0  0  2  0  0  0  0  0  0
  196.6280  171.8500  134.8250 C   0  0  0  0  0  1  0  0  0  0  0  0
  196.8690  173.2880  135.2430 C   0  0  2  0  0  3  0  0  0  0  0  0
  197.5350  174.5990  137.2980 C   0  0  0  0  0  2  0  0  0  0  0  0
  197.7530  173.3120  136.5000 C   0  0  0  0  0  2  0  0  0  0  0  0
  195.0730  173.9800  136.8880 C   0  0  1  0  0  3  0  0  0  0  0  0
  1  5  1  0  0  0  0
  1 20  1  0  0  0  0
  2  7  1  0  0  0  0
  2  5  2  0  0  0  0
  3  1  2  0  0  0  0
  4  6  2  0  0  0  0
  4  3  1  0  0  0  0
  6  2  1  0  0  0  0
  8  7  1  0  0  0  0
  8  9  1  0  0  0  0
  9 10  1  0  0  0  0
 10 11  1  0  0  0  0
 11 13  1  0  0  0  0
 11 15  1  1  0  0  0
 13 12  1  0  0  0  0
 14 13  2  0  0  0  0
 15 16  1  0  0  0  0
 16 17  1  1  0  0  0
 18 16  1  0  0  0  0
 18 19  1  0  0  0  0
 20 22  1  0  0  0  0
 21 22  2  0  0  0  0
 22 24  1  0  0  0  0
 23 43  1  0  0  0  0
 24 23  2  0  0  0  0
 25 29  1  1  0  0  0
 26 28  1  0  0  0  0
 26 27  1  0  0  0  0
 27 23  1  6  0  0  0
 27 25  1  0  0  0  0
 28 25  1  0  0  0  0
 29 34  1  0  0  0  0
 30 32  1  0  0  0  0
 31 30  2  0  0  0  0
 32 36  1  0  0  0  0
 33 35  1  0  0  0  0
 34 31  1  0  0  0  0
 34 33  2  0  0  0  0
 35 32  2  0  0  0  0
 37 38  1  0  0  0  0
 37 36  1  0  0  0  0
 39 38  1  0  0  0  0
 40 41  1  0  0  0  0
 41 39  1  0  0  0  0
 43 42  1  0  0  0  0
 44  3  1  0  0  0  0
 45 44  1  0  0  0  0
 45 46  2  0  0  0  0
 46 47  1  0  0  0  0
 48 49  2  0  0  0  0
 50 47  1  0  0  0  0
 50 48  1  0  0  0  0
 51 57  1  0  0  0  0
 54 53  1  1  0  0  0
 54 51  1  0  0  0  0
 54 56  1  0  0  0  0
 55 52  1  0  0  0  0
 56 55  1  0  0  0  0
 57 48  1  6  0  0  0
 57 52  1  0  0  0  0
M  END
>  <MODEL>
6

>  <REMARK>
 VINA RESULT:      -5.4      4.619      9.689
  Name = 
  26 active torsions:
  status: ('A' for Active; 'I' for Inactive)
    1  A    between atoms: C_1  and  C_14
    2  A    between atoms: C_2  and  C_38
    3  A    between atoms: C_2  and  C_51
    4  A    between atoms: C_3  and  N_45
    5  A    between atoms: C_4  and  C_39
    6  A    between atoms: C_7  and  C_15
    7  A    between atoms: C_8  and  C_40
    8  A    between atoms: C_8  and  C_47
    9  A    between atoms: C_9  and  C_43
   10  A    between atoms: N_10  and  N_13
   11  A    between atoms: N_10  and  N_33
   12  A    between atoms: C_11  and  C_18
   13  A    between atoms: C_11  and  C_23
   14  A    between atoms: N_13  and  C_23
   15  A    between atoms: C_14  and  C_52
   16  A    between atoms: C_15  and  N_33
   17  A    between atoms: C_18  and  C_19
   18  A    between atoms: C_22  and  C_56
   19  A    between atoms: C_23  and  C_31
   20  A    between atoms: S_24  and  C_37
   21  A    between atoms: S_24  and  C_40
   22  A    between atoms: C_28  and  N_45
   23  A    between atoms: C_34  and  C_39
   24  A    between atoms: C_34  and  N_53
   25  A    between atoms: C_35  and  C_47
   26  A    between atoms: N_36  and  C_43
                            x       y       z     vdW  Elec       q    Type
                         _______ _______ _______ _____ _____    ______ ____

>  <TORSDO>
F 26

$$$$
=
 OpenBabel11042411233D

 57 60  0  0  1  0  0  0  0  0999 V2000
  187.9390  176.6770  137.5470 C   0  0  0  0  0  0  0  0  0  0  0  0
  185.8060  177.3580  136.7210 C   0  0  0  0  0  0  0  0  0  0  0  0
  188.4670  176.6950  136.2350 C   0  0  0  0  0  0  0  0  0  0  0  0
  187.6290  177.0690  135.1820 C   0  0  0  0  0  3  0  0  0  0  0  0
  186.6340  177.0230  137.7440 N   0  0  0  0  0  0  0  0  0  0  0  0
  186.2930  177.3930  135.4170 C   0  0  0  0  0  3  0  0  0  0  0  0
  184.3800  177.7010  136.9910 C   0  0  0  0  0  2  0  0  0  0  0  0
  183.5320  177.1860  135.9240 N   0  0  0  0  0  2  0  0  0  0  0  0
  183.3370  175.8190  136.1680 N   0  0  0  0  0  2  0  0  0  0  0  0
  182.8320  175.7060  137.4690 N   0  0  0  0  0  2  0  0  0  0  0  0
  182.6170  174.2880  137.7180 C   0  0  2  0  0  3  0  0  0  0  0  0
  183.6290  172.6990  136.2350 O   0  0  0  0  0  0  0  0  0  0  0  0
  183.7750  173.4930  137.2040 C   0  0  0  0  0  0  0  0  0  0  0  0
  185.0170  173.6140  137.8150 O   0  0  0  0  0  1  0  0  0  0  0  0
  181.3100  173.8510  137.0640 C   0  0  0  0  0  2  0  0  0  0  0  0
  180.0970  174.1970  137.9240 C   0  0  2  0  0  3  0  0  0  0  0  0
  179.6920  173.0780  138.6340 F   0  0  0  0  0  0  0  0  0  0  0  0
  178.9350  174.7540  137.1020 C   0  0  0  0  0  2  0  0  0  0  0  0
  179.3960  175.2750  135.7480 C   0  0  0  0  0  1  0  0  0  0  0  0
  188.8190  176.4370  138.7400 C   0  0  0  0  0  2  0  0  0  0  0  0
  189.0200  178.7820  139.1080 O   0  0  0  0  0  0  0  0  0  0  0  0
  189.5900  177.6590  139.1170 C   0  0  0  0  0  0  0  0  0  0  0  0
  191.5750  177.4740  140.5660 C   0  0  0  0  0  0  0  0  0  0  0  0
  190.9940  177.5290  139.3980 N   0  0  0  0  0  0  0  0  0  0  0  0
  191.5680  176.7410  142.9180 C   0  0  1  0  0  3  0  0  0  0  0  0
  190.9530  178.6820  142.6170 N   0  0  0  0  0  2  0  0  0  0  0  0
  190.7830  177.4480  141.8570 C   0  0  1  0  0  3  0  0  0  0  0  0
  191.6990  178.0170  143.6100 N   0  0  0  0  0  2  0  0  0  0  0  0
  190.6620  175.8190  143.7190 C   0  0  0  0  0  2  0  0  0  0  0  0
  187.1140  177.1330  143.5790 C   0  0  0  0  0  3  0  0  0  0  0  0
  188.3100  176.5000  143.2220 C   0  0  0  0  0  3  0  0  0  0  0  0
  187.0120  177.7940  144.8080 C   0  0  0  0  0  0  0  0  0  0  0  0
  189.3030  177.1910  145.3230 C   0  0  0  0  0  3  0  0  0  0  0  0
  189.4050  176.5280  144.0920 C   0  0  0  0  0  0  0  0  0  0  0  0
  188.1070  177.8220  145.6810 C   0  0  0  0  0  3  0  0  0  0  0  0
  185.4690  178.5600  145.2860 S   0  0  0  0  0  0  0  0  0  0  0  0
  185.1700  179.2140  143.6150 C   0  0  0  0  0  2  0  0  0  0  0  0
  183.8770  178.6380  143.0830 C   0  0  0  0  0  2  0  0  0  0  0  0
  182.8250  178.6570  144.1790 C   0  0  0  0  0  2  0  0  0  0  0  0
  181.4760  178.6740  142.1000 C   0  0  0  0  0  1  0  0  0  0  0  0
  181.4790  179.0070  143.5800 C   0  0  0  0  0  2  0  0  0  0  0  0
  193.5640  177.1200  139.2490 N   0  0  0  0  0  1  0  0  0  0  0  0
  193.0660  177.3410  140.5960 C   0  0  0  0  0  2  0  0  0  0  0  0
  189.8340  176.3930  135.9300 N   0  0  0  0  0  2  0  0  0  0  0  0
  190.2560  175.3620  135.0350 C   0  0  0  0  0  3  0  0  0  0  0  0
  191.5400  175.0520  134.8880 C   0  0  0  0  0  3  0  0  0  0  0  0
  192.6310  175.7400  135.6510 C   0  0  0  0  0  2  0  0  0  0  0  0
  195.0830  175.2520  136.1210 C   0  0  0  0  0  0  0  0  0  0  0  0
  195.3630  176.4820  136.1040 O   0  0  0  0  0  0  0  0  0  0  0  0
  193.7350  174.8200  135.9090 N   0  0  0  0  0  2  0  0  0  0  0  0
  196.3730  173.2200  135.3440 C   0  0  0  0  0  2  0  0  0  0  0  0
  197.4830  174.9210  136.8440 C   0  0  0  0  0  2  0  0  0  0  0  0
  196.4850  170.9190  136.3160 C   0  0  0  0  0  1  0  0  0  0  0  0
  197.3060  172.0890  135.8090 C   0  0  2  0  0  3  0  0  0  0  0  0
  198.6980  173.9890  136.7220 C   0  0  0  0  0  2  0  0  0  0  0  0
  198.3010  172.5230  136.8960 C   0  0  0  0  0  2  0  0  0  0  0  0
  196.1530  174.2470  136.4600 C   0  0  1  0  0  3  0  0  0  0  0  0
  1  5  1  0  0  0  0
  1 20  1  0  0  0  0
  2  7  1  0  0  0  0
  2  5  2  0  0  0  0
  3  1  2  0  0  0  0
  4  6  2  0  0  0  0
  4  3  1  0  0  0  0
  6  2  1  0  0  0  0
  8  9  1  0  0  0  0
  8  7  1  0  0  0  0
  9 10  1  0  0  0  0
 10 11  1  0  0  0  0
 11 15  1  6  0  0  0
 12 13  2  0  0  0  0
 13 11  1  0  0  0  0
 13 14  1  0  0  0  0
 15 16  1  0  0  0  0
 16 17  1  6  0  0  0
 18 16  1  0  0  0  0
 19 18  1  0  0  0  0
 20 22  1  0  0  0  0
 21 22  2  0  0  0  0
 22 24  1  0  0  0  0
 23 43  1  0  0  0  0
 24 23  2  0  0  0  0
 25 28  1  0  0  0  0
 25 29  1  1  0  0  0
 26 28  1  0  0  0  0
 27 23  1  6  0  0  0
 27 26  1  0  0  0  0
 27 25  1  0  0  0  0
 29 34  1  0  0  0  0
 30 32  1  0  0  0  0
 31 30  2  0  0  0  0
 31 34  1  0  0  0  0
 32 36  1  0  0  0  0
 32 35  2  0  0  0  0
 33 35  1  0  0  0  0
 34 33  2  0  0  0  0
 37 36  1  0  0  0  0
 38 37  1  0  0  0  0
 38 39  1  0  0  0  0
 40 41  1  0  0  0  0
 41 39  1  0  0  0  0
 42 43  1  0  0  0  0
 44  3  1  0  0  0  0
 45 44  1  0  0  0  0
 46 45  2  0  0  0  0
 46 47  1  0  0  0  0
 47 50  1  0  0  0  0
 49 48  2  0  0  0  0
 50 48  1  0  0  0  0
 51 54  1  0  0  0  0
 51 57  1  0  0  0  0
 54 53  1  1  0  0  0
 54 56  1  0  0  0  0
 55 52  1  0  0  0  0
 55 56  1  0  0  0  0
 57 48  1  6  0  0  0
 57 52  1  0  0  0  0
M  END
>  <MODEL>
7

>  <REMARK>
 VINA RESULT:      -5.4      4.500      8.922
  Name = 
  26 active torsions:
  status: ('A' for Active; 'I' for Inactive)
    1  A    between atoms: C_1  and  C_14
    2  A    between atoms: C_2  and  C_38
    3  A    between atoms: C_2  and  C_51
    4  A    between atoms: C_3  and  N_45
    5  A    between atoms: C_4  and  C_39
    6  A    between atoms: C_7  and  C_15
    7  A    between atoms: C_8  and  C_40
    8  A    between atoms: C_8  and  C_47
    9  A    between atoms: C_9  and  C_43
   10  A    between atoms: N_10  and  N_13
   11  A    between atoms: N_10  and  N_33
   12  A    between atoms: C_11  and  C_18
   13  A    between atoms: C_11  and  C_23
   14  A    between atoms: N_13  and  C_23
   15  A    between atoms: C_14  and  C_52
   16  A    between atoms: C_15  and  N_33
   17  A    between atoms: C_18  and  C_19
   18  A    between atoms: C_22  and  C_56
   19  A    between atoms: C_23  and  C_31
   20  A    between atoms: S_24  and  C_37
   21  A    between atoms: S_24  and  C_40
   22  A    between atoms: C_28  and  N_45
   23  A    between atoms: C_34  and  C_39
   24  A    between atoms: C_34  and  N_53
   25  A    between atoms: C_35  and  C_47
   26  A    between atoms: N_36  and  C_43
                            x       y       z     vdW  Elec       q    Type
                         _______ _______ _______ _____ _____    ______ ____

>  <TORSDO>
F 26

$$$$
=
 OpenBabel11042411233D

 57 60  0  0  1  0  0  0  0  0999 V2000
  184.3010  178.1630  142.4000 C   0  0  0  0  0  0  0  0  0  0  0  0
  184.8880  178.5810  144.6750 C   0  0  0  0  0  0  0  0  0  0  0  0
  182.9810  178.6050  142.6460 C   0  0  0  0  0  0  0  0  0  0  0  0
  182.6520  179.0470  143.9300 C   0  0  0  0  0  3  0  0  0  0  0  0
  185.2100  178.1810  143.4170 N   0  0  0  0  0  0  0  0  0  0  0  0
  183.6000  179.0290  144.9530 C   0  0  0  0  0  3  0  0  0  0  0  0
  185.9150  178.5540  145.7570 C   0  0  0  0  0  2  0  0  0  0  0  0
  186.4380  177.2030  145.9150 N   0  0  0  0  0  2  0  0  0  0  0  0
  187.4300  177.0220  144.9400 N   0  0  0  0  0  2  0  0  0  0  0  0
  188.2610  178.1490  144.9920 N   0  0  0  0  0  2  0  0  0  0  0  0
  189.4080  177.8670  144.1420 C   0  0  2  0  0  3  0  0  0  0  0  0
  188.0410  176.3010  142.9490 O   0  0  0  0  0  0  0  0  0  0  0  0
  189.1880  176.5980  143.3820 C   0  0  0  0  0  0  0  0  0  0  0  0
  190.2510  175.7280  143.1730 O   0  0  0  0  0  1  0  0  0  0  0  0
  190.6670  177.7890  144.9990 C   0  0  0  0  0  2  0  0  0  0  0  0
  190.5190  176.7870  146.1420 C   0  0  2  0  0  3  0  0  0  0  0  0
  190.3180  177.4630  147.3350 F   0  0  0  0  0  0  0  0  0  0  0  0
  191.7210  175.8490  146.2580 C   0  0  0  0  0  2  0  0  0  0  0  0
  192.1650  175.6740  147.7030 C   0  0  0  0  0  1  0  0  0  0  0  0
  184.7660  177.8220  141.0130 C   0  0  0  0  0  2  0  0  0  0  0  0
  186.0150  179.8450  141.1650 O   0  0  0  0  0  0  0  0  0  0  0  0
  185.6120  178.9050  140.4290 C   0  0  0  0  0  0  0  0  0  0  0  0
  186.8910  178.3530  138.3960 C   0  0  0  0  0  0  0  0  0  0  0  0
  185.8740  178.8890  139.0160 N   0  0  0  0  0  0  0  0  0  0  0  0
  189.0750  177.2300  138.1980 C   0  0  1  0  0  3  0  0  0  0  0  0
  188.8630  178.4150  139.8670 N   0  0  0  0  0  2  0  0  0  0  0  0
  187.9470  177.5510  139.1290 C   0  0  1  0  0  3  0  0  0  0  0  0
  189.9210  178.1180  138.9850 N   0  0  0  0  0  2  0  0  0  0  0  0
  189.5280  175.7920  138.3940 C   0  0  0  0  0  2  0  0  0  0  0  0
  191.6890  175.2510  135.3340 C   0  0  0  0  0  3  0  0  0  0  0  0
  190.5750  175.4870  136.1460 C   0  0  0  0  0  3  0  0  0  0  0  0
  192.9450  175.0350  135.9130 C   0  0  0  0  0  0  0  0  0  0  0  0
  191.9710  175.2850  138.1180 C   0  0  0  0  0  3  0  0  0  0  0  0
  190.7140  175.5030  137.5380 C   0  0  0  0  0  0  0  0  0  0  0  0
  193.0860  175.0530  137.3060 C   0  0  0  0  0  3  0  0  0  0  0  0
  194.3780  174.7840  134.8740 S   0  0  0  0  0  0  0  0  0  0  0  0
  195.0630  173.5030  135.9690 C   0  0  0  0  0  2  0  0  0  0  0  0
  196.2100  174.0900  136.7590 C   0  0  0  0  0  2  0  0  0  0  0  0
  196.7950  175.2700  136.0040 C   0  0  0  0  0  2  0  0  0  0  0  0
  199.1450  174.4910  135.8780 C   0  0  0  0  0  1  0  0  0  0  0  0
  197.8900  174.7830  135.0770 C   0  0  0  0  0  2  0  0  0  0  0  0
  185.9370  177.6080  136.3100 N   0  0  0  0  0  1  0  0  0  0  0  0
  186.9410  178.4750  136.9050 C   0  0  0  0  0  2  0  0  0  0  0  0
  181.9680  178.6670  141.6350 N   0  0  0  0  0  2  0  0  0  0  0  0
  180.6070  178.2750  141.8250 C   0  0  0  0  0  3  0  0  0  0  0  0
  179.6090  179.1430  141.7020 C   0  0  0  0  0  3  0  0  0  0  0  0
  179.8280  180.5810  141.3420 C   0  0  0  0  0  2  0  0  0  0  0  0
  180.4760  180.6280  138.8810 C   0  0  0  0  0  0  0  0  0  0  0  0
  181.6460  180.2390  139.1500 O   0  0  0  0  0  0  0  0  0  0  0  0
  179.5210  180.8100  139.9330 N   0  0  0  0  0  2  0  0  0  0  0  0
  181.1010  181.5720  136.6200 C   0  0  0  0  0  2  0  0  0  0  0  0
  179.7110  179.4690  136.7690 C   0  0  0  0  0  2  0  0  0  0  0  0
  179.9740  183.3300  135.2440 C   0  0  0  0  0  1  0  0  0  0  0  0
  180.5510  181.9270  135.2280 C   0  0  2  0  0  3  0  0  0  0  0  0
  179.7580  179.5290  135.2350 C   0  0  0  0  0  2  0  0  0  0  0  0
  179.4870  180.9430  134.7190 C   0  0  0  0  0  2  0  0  0  0  0  0
  180.0600  180.8080  137.4450 C   0  0  1  0  0  3  0  0  0  0  0  0
  1  3  2  0  0  0  0
  1  5  1  0  0  0  0
  2  6  1  0  0  0  0
  2  7  1  0  0  0  0
  3  4  1  0  0  0  0
  4  6  2  0  0  0  0
  5  2  2  0  0  0  0
  7  8  1  0  0  0  0
  9 10  1  0  0  0  0
  9  8  1  0  0  0  0
 11 10  1  0  0  0  0
 11 15  1  1  0  0  0
 12 13  2  0  0  0  0
 13 11  1  0  0  0  0
 14 13  1  0  0  0  0
 15 16  1  0  0  0  0
 16 18  1  0  0  0  0
 16 17  1  1  0  0  0
 18 19  1  0  0  0  0
 20  1  1  0  0  0  0
 22 20  1  0  0  0  0
 22 21  2  0  0  0  0
 23 24  2  0  0  0  0
 24 22  1  0  0  0  0
 25 29  1  1  0  0  0
 25 28  1  0  0  0  0
 25 27  1  0  0  0  0
 27 23  1  6  0  0  0
 27 26  1  0  0  0  0
 28 26  1  0  0  0  0
 30 32  2  0  0  0  0
 30 31  1  0  0  0  0
 31 34  2  0  0  0  0
 32 35  1  0  0  0  0
 34 33  1  0  0  0  0
 34 29  1  0  0  0  0
 35 33  2  0  0  0  0
 36 32  1  0  0  0  0
 36 37  1  0  0  0  0
 37 38  1  0  0  0  0
 39 38  1  0  0  0  0
 41 40  1  0  0  0  0
 41 39  1  0  0  0  0
 42 43  1  0  0  0  0
 43 23  1  0  0  0  0
 44 45  1  0  0  0  0
 44  3  1  0  0  0  0
 46 45  2  0  0  0  0
 47 46  1  0  0  0  0
 48 49  2  0  0  0  0
 48 50  1  0  0  0  0
 50 47  1  0  0  0  0
 51 57  1  0  0  0  0
 52 57  1  0  0  0  0
 54 53  1  1  0  0  0
 54 51  1  0  0  0  0
 55 52  1  0  0  0  0
 56 54  1  0  0  0  0
 56 55  1  0  0  0  0
 57 48  1  1  0  0  0
M  END
>  <MODEL>
8

>  <REMARK>
 VINA RESULT:      -5.3      4.341     11.477
  Name = 
  26 active torsions:
  status: ('A' for Active; 'I' for Inactive)
    1  A    between atoms: C_1  and  C_14
    2  A    between atoms: C_2  and  C_38
    3  A    between atoms: C_2  and  C_51
    4  A    between atoms: C_3  and  N_45
    5  A    between atoms: C_4  and  C_39
    6  A    between atoms: C_7  and  C_15
    7  A    between atoms: C_8  and  C_40
    8  A    between atoms: C_8  and  C_47
    9  A    between atoms: C_9  and  C_43
   10  A    between atoms: N_10  and  N_13
   11  A    between atoms: N_10  and  N_33
   12  A    between atoms: C_11  and  C_18
   13  A    between atoms: C_11  and  C_23
   14  A    between atoms: N_13  and  C_23
   15  A    between atoms: C_14  and  C_52
   16  A    between atoms: C_15  and  N_33
   17  A    between atoms: C_18  and  C_19
   18  A    between atoms: C_22  and  C_56
   19  A    between atoms: C_23  and  C_31
   20  A    between atoms: S_24  and  C_37
   21  A    between atoms: S_24  and  C_40
   22  A    between atoms: C_28  and  N_45
   23  A    between atoms: C_34  and  C_39
   24  A    between atoms: C_34  and  N_53
   25  A    between atoms: C_35  and  C_47
   26  A    between atoms: N_36  and  C_43
                            x       y       z     vdW  Elec       q    Type
                         _______ _______ _______ _____ _____    ______ ____

>  <TORSDO>
F 26

$$$$
=
 OpenBabel11042411233D

 57 60  0  0  1  0  0  0  0  0999 V2000
  188.2060  177.2870  137.1680 C   0  0  0  0  0  0  0  0  0  0  0  0
  186.2100  177.6320  135.9050 C   0  0  0  0  0  0  0  0  0  0  0  0
  187.5590  177.7450  138.3390 C   0  0  0  0  0  0  0  0  0  0  0  0
  186.2190  178.1280  138.2570 C   0  0  0  0  0  3  0  0  0  0  0  0
  187.5050  177.2320  135.9980 N   0  0  0  0  0  0  0  0  0  0  0  0
  185.5390  178.0820  137.0390 C   0  0  0  0  0  3  0  0  0  0  0  0
  185.5000  177.5770  134.5940 C   0  0  0  0  0  2  0  0  0  0  0  0
  184.1780  176.9900  134.7680 N   0  0  0  0  0  2  0  0  0  0  0  0
  184.2220  176.1940  135.9220 N   0  0  0  0  0  2  0  0  0  0  0  0
  182.8970  175.8790  136.2490 N   0  0  0  0  0  2  0  0  0  0  0  0
  182.7200  176.2050  137.6560 C   0  0  2  0  0  3  0  0  0  0  0  0
  181.3630  174.2370  137.8390 O   0  0  0  0  0  0  0  0  0  0  0  0
  181.5870  175.4150  138.2300 C   0  0  0  0  0  0  0  0  0  0  0  0
  180.7600  175.9940  139.1850 O   0  0  0  0  0  1  0  0  0  0  0  0
  182.4830  177.7040  137.8040 C   0  0  0  0  0  2  0  0  0  0  0  0
  181.3230  178.1870  136.9360 C   0  0  2  0  0  3  0  0  0  0  0  0
  181.7830  178.4860  135.6630 F   0  0  0  0  0  0  0  0  0  0  0  0
  180.6030  179.3940  137.5390 C   0  0  0  0  0  2  0  0  0  0  0  0
  181.5480  180.5670  137.7570 C   0  0  0  0  0  1  0  0  0  0  0  0
  189.5940  176.7140  137.2140 C   0  0  0  0  0  2  0  0  0  0  0  0
  188.4790  174.6200  137.4300 O   0  0  0  0  0  0  0  0  0  0  0  0
  189.5780  175.2240  137.3050 C   0  0  0  0  0  0  0  0  0  0  0  0
  192.0070  174.9920  137.6490 C   0  0  0  0  0  0  0  0  0  0  0  0
  190.8310  174.5210  137.3320 N   0  0  0  0  0  0  0  0  0  0  0  0
  192.3340  176.4090  139.6380 C   0  0  1  0  0  3  0  0  0  0  0  0
  193.5940  176.8260  138.0650 N   0  0  0  0  0  2  0  0  0  0  0  0
  192.1970  176.4100  138.1470 C   0  0  1  0  0  3  0  0  0  0  0  0
  193.7230  176.8160  139.4680 N   0  0  0  0  0  2  0  0  0  0  0  0
  191.5390  177.5560  140.2420 C   0  0  0  0  0  2  0  0  0  0  0  0
  190.4270  176.0000  143.5080 C   0  0  0  0  0  3  0  0  0  0  0  0
  190.5900  176.2370  142.1390 C   0  0  0  0  0  3  0  0  0  0  0  0
  191.0170  176.8590  144.4420 C   0  0  0  0  0  0  0  0  0  0  0  0
  191.9310  178.1940  142.6380 C   0  0  0  0  0  3  0  0  0  0  0  0
  191.3410  177.3330  141.7020 C   0  0  0  0  0  0  0  0  0  0  0  0
  191.7710  177.9550  144.0060 C   0  0  0  0  0  3  0  0  0  0  0  0
  190.8520  176.5270  146.1910 S   0  0  0  0  0  0  0  0  0  0  0  0
  189.5660  177.7970  146.4040 C   0  0  0  0  0  2  0  0  0  0  0  0
  188.2140  177.1850  146.1170 C   0  0  0  0  0  2  0  0  0  0  0  0
  187.2470  178.2710  145.6810 C   0  0  0  0  0  2  0  0  0  0  0  0
  184.9860  178.6850  146.6070 C   0  0  0  0  0  1  0  0  0  0  0  0
  185.8290  177.7470  145.7630 C   0  0  0  0  0  2  0  0  0  0  0  0
  193.7790  174.1010  136.2770 N   0  0  0  0  0  1  0  0  0  0  0  0
  193.1710  174.0520  137.5960 C   0  0  0  0  0  2  0  0  0  0  0  0
  188.1950  177.7960  139.6220 N   0  0  0  0  0  2  0  0  0  0  0  0
  188.1940  178.9370  140.4820 C   0  0  0  0  0  3  0  0  0  0  0  0
  187.4310  178.9890  141.5690 C   0  0  0  0  0  3  0  0  0  0  0  0
  186.5350  177.8610  141.9820 C   0  0  0  0  0  2  0  0  0  0  0  0
  184.1200  178.5610  141.5930 C   0  0  0  0  0  0  0  0  0  0  0  0
  184.2000  178.2690  140.3680 O   0  0  0  0  0  0  0  0  0  0  0  0
  185.2510  178.3720  142.4510 N   0  0  0  0  0  2  0  0  0  0  0  0
  181.6020  178.5260  141.3560 C   0  0  0  0  0  2  0  0  0  0  0  0
  182.6530  178.6300  143.6500 C   0  0  0  0  0  2  0  0  0  0  0  0
  179.9960  180.4070  140.9890 C   0  0  0  0  0  1  0  0  0  0  0  0
  180.3010  179.1880  141.8390 C   0  0  2  0  0  3  0  0  0  0  0  0
  181.1940  178.6280  144.1340 C   0  0  0  0  0  2  0  0  0  0  0  0
  180.3310  179.5940  143.3200 C   0  0  0  0  0  2  0  0  0  0  0  0
  182.8050  179.0180  142.1680 C   0  0  1  0  0  3  0  0  0  0  0  0
  1 20  1  0  0  0  0
  1  3  1  0  0  0  0
  2  5  1  0  0  0  0
  2  6  2  0  0  0  0
  3 44  1  0  0  0  0
  4  3  2  0  0  0  0
  5  1  2  0  0  0  0
  6  4  1  0  0  0  0
  7  8  1  0  0  0  0
  7  2  1  0  0  0  0
  8  9  1  0  0  0  0
  9 10  1  0  0  0  0
 10 11  1  0  0  0  0
 11 15  1  6  0  0  0
 11 13  1  0  0  0  0
 12 13  2  0  0  0  0
 13 14  1  0  0  0  0
 16 17  1  6  0  0  0
 16 18  1  0  0  0  0
 16 15  1  0  0  0  0
 18 19  1  0  0  0  0
 20 22  1  0  0  0  0
 22 24  1  0  0  0  0
 22 21  2  0  0  0  0
 24 23  2  0  0  0  0
 25 29  1  1  0  0  0
 26 27  1  0  0  0  0
 26 28  1  0  0  0  0
 27 23  1  6  0  0  0
 27 25  1  0  0  0  0
 28 25  1  0  0  0  0
 29 34  1  0  0  0  0
 30 32  1  0  0  0  0
 31 30  2  0  0  0  0
 32 36  1  0  0  0  0
 33 35  1  0  0  0  0
 34 31  1  0  0  0  0
 34 33  2  0  0  0  0
 35 32  2  0  0  0  0
 36 37  1  0  0  0  0
 38 37  1  0  0  0  0
 39 41  1  0  0  0  0
 39 38  1  0  0  0  0
 41 40  1  0  0  0  0
 42 43  1  0  0  0  0
 43 23  1  0  0  0  0
 44 45  1  0  0  0  0
 45 46  2  0  0  0  0
 46 47  1  0  0  0  0
 47 50  1  0  0  0  0
 48 50  1  0  0  0  0
 49 48  2  0  0  0  0
 51 54  1  0  0  0  0
 51 57  1  0  0  0  0
 52 55  1  0  0  0  0
 54 53  1  6  0  0  0
 54 56  1  0  0  0  0
 56 55  1  0  0  0  0
 57 48  1  6  0  0  0
 57 52  1  0  0  0  0
M  END
>  <MODEL>
9

>  <REMARK>
 VINA RESULT:      -5.3      3.573      8.734
  Name = 
  26 active torsions:
  status: ('A' for Active; 'I' for Inactive)
    1  A    between atoms: C_1  and  C_14
    2  A    between atoms: C_2  and  C_38
    3  A    between atoms: C_2  and  C_51
    4  A    between atoms: C_3  and  N_45
    5  A    between atoms: C_4  and  C_39
    6  A    between atoms: C_7  and  C_15
    7  A    between atoms: C_8  and  C_40
    8  A    between atoms: C_8  and  C_47
    9  A    between atoms: C_9  and  C_43
   10  A    between atoms: N_10  and  N_13
   11  A    between atoms: N_10  and  N_33
   12  A    between atoms: C_11  and  C_18
   13  A    between atoms: C_11  and  C_23
   14  A    between atoms: N_13  and  C_23
   15  A    between atoms: C_14  and  C_52
   16  A    between atoms: C_15  and  N_33
   17  A    between atoms: C_18  and  C_19
   18  A    between atoms: C_22  and  C_56
   19  A    between atoms: C_23  and  C_31
   20  A    between atoms: S_24  and  C_37
   21  A    between atoms: S_24  and  C_40
   22  A    between atoms: C_28  and  N_45
   23  A    between atoms: C_34  and  C_39
   24  A    between atoms: C_34  and  N_53
   25  A    between atoms: C_35  and  C_47
   26  A    between atoms: N_36  and  C_43
                            x       y       z     vdW  Elec       q    Type
                         _______ _______ _______ _____ _____    ______ ____

>  <TORSDO>
F 26

$$$$
