=
 OpenBabel11042410103D

 62 71  0  0  1  0  0  0  0  0999 V2000
  190.3700  177.2430  148.6460 C   0  0  0  0  0  3  0  0  0  0  0  0
  188.0870  177.4110  142.6810 C   0  0  0  0  0  0  0  0  0  0  0  0
  191.0670  177.0580  146.4320 C   0  0  0  0  0  0  0  0  0  0  0  0
  186.2390  178.3320  145.8290 C   0  0  0  0  0  2  0  0  0  0  0  0
  187.3240  177.9470  144.9220 N   0  0  0  0  0  0  0  0  0  0  0  0
  187.0750  177.7800  143.4990 C   0  0  0  0  0  0  0  0  0  0  0  0
  192.3760  176.5070  147.3120 S   0  0  0  0  0  0  0  0  0  0  0  0
  184.9040  177.7720  145.3630 C   0  0  0  0  0  2  0  0  0  0  0  0
  190.9490  177.0310  145.1380 N   0  0  0  0  0  2  0  0  0  0  0  0
  191.6590  176.7290  148.8340 C   0  0  0  0  0  3  0  0  0  0  0  0
  188.6990  178.1930  145.3700 C   0  0  0  0  0  0  0  0  0  0  0  0
  188.8940  177.9160  146.8490 C   0  0  0  0  0  3  0  0  0  0  0  0
  185.6540  177.7740  142.9680 C   0  0  0  0  0  2  0  0  0  0  0  0
  189.7090  177.4410  144.5260 C   0  0  0  0  0  0  0  0  0  0  0  0
  189.4530  177.1520  143.2370 C   0  0  0  0  0  0  0  0  0  0  0  0
  184.5990  178.2710  143.9530 C   0  0  2  0  0  3  0  0  0  0  0  0
  190.0530  177.4310  147.2960 C   0  0  0  0  0  0  0  0  0  0  0  0
  191.7380  177.2480  142.3450 C   0  0  0  0  0  2  0  0  0  0  0  0
  190.5180  176.4090  142.4590 C   0  0  2  0  0  3  0  0  0  0  0  0
  190.8700  177.0520  141.2540 O   0  0  0  0  0  0  0  0  0  0  0  0
  184.4420  179.7960  143.8500 C   0  0  0  0  0  2  0  0  0  0  0  0
  182.9870  180.2650  143.8310 C   0  0  0  0  0  2  0  0  0  0  0  0
  181.6200  178.7870  142.3890 C   0  0  0  0  0  0  0  0  0  0  0  0
  181.9910  179.4440  141.1310 C   0  0  0  0  0  2  0  0  0  0  0  0
  182.0220  179.1400  143.6150 C   0  0  0  0  0  3  0  0  0  0  0  0
  181.0890  178.8610  140.1450 N   0  0  0  0  0  0  0  0  0  0  0  0
  180.6960  177.5900  140.6290 N   0  0  0  0  0  2  0  0  0  0  0  0
  180.7090  177.6750  142.0870 C   0  0  0  0  0  2  0  0  0  0  0  0
  181.7880  178.7210  138.8610 C   0  0  1  0  0  3  0  0  0  0  0  0
  183.8890  176.0350  137.1020 F   0  0  0  0  0  0  0  0  0  0  0  0
  184.3250  178.3470  137.4640 F   0  0  0  0  0  0  0  0  0  0  0  0
  183.5100  177.0070  139.1480 O   0  0  0  0  0  0  0  0  0  0  0  0
  182.2930  177.3000  138.4900 C   0  0  2  0  0  3  0  0  0  0  0  0
  183.5850  177.2170  137.7580 C   0  0  0  0  0  0  0  0  0  0  0  0
  181.5600  180.9000  137.8660 O   0  0  0  0  0  0  0  0  0  0  0  0
  180.5990  179.1310  136.6800 N   0  0  0  0  0  2  0  0  0  0  0  0
  180.0900  179.9780  135.6110 C   0  0  0  0  0  1  0  0  0  0  0  0
  181.2900  179.6710  137.8110 C   0  0  0  0  0  0  0  0  0  0  0  0
  187.8550  177.1800  141.3160 O   0  0  0  0  0  0  0  0  0  0  0  0
  187.7490  177.7180  138.8300 C   0  0  2  0  0  0  0  0  0  0  0  0
  189.1080  177.5810  139.4490 C   0  0  0  0  0  2  0  0  0  0  0  0
  188.0340  178.1770  140.3170 C   0  0  2  0  0  0  0  0  0  0  0  0
  186.6700  178.2810  139.7010 C   0  0  0  0  0  2  0  0  0  0  0  0
  187.8870  178.6800  137.7190 N   0  0  0  0  0  2  0  0  0  0  0  0
  187.9860  178.1070  136.3720 C   0  0  0  0  0  2  0  0  0  0  0  0
  189.3820  177.5530  136.1590 C   0  0  0  0  0  2  0  0  0  0  0  0
  189.3760  176.6520  135.0940 O   0  0  0  0  0  0  0  0  0  0  0  0
  190.0890  175.2210  135.6800 P   0  0  1  0  0  0  0  0  0  0  0  0
  189.4460  174.5580  138.0760 O   0  0  0  0  0  0  0  0  0  0  0  0
  189.0050  174.2470  136.7620 C   0  0  1  0  0  3  0  0  0  0  0  0
  190.7250  174.3770  134.5950 O   0  0  0  0  0  0  0  0  0  0  0  0
  190.6700  175.1860  138.1820 N   0  0  0  0  0  0  0  0  0  0  0  0
  191.1750  175.5510  137.0530 C   0  0  0  0  0  0  0  0  0  0  0  0
  186.7590  173.4750  136.7950 O   0  0  0  0  0  1  0  0  0  0  0  0
  187.5460  174.6090  136.6000 C   0  0  0  0  0  2  0  0  0  0  0  0
  192.4510  176.1290  137.0010 O   0  0  0  0  0  0  0  0  0  0  0  0
  193.6620  175.5870  137.5390 C   0  0  2  0  0  3  0  0  0  0  0  0
  193.5720  176.9190  139.5040 O   0  0  0  0  0  0  0  0  0  0  0  0
  194.2640  176.4240  138.6310 C   0  0  0  0  0  3  0  0  0  0  0  0
  194.6460  175.1600  136.4530 C   0  0  0  0  0  2  0  0  0  0  0  0
  196.7380  174.9570  135.7850 C   0  0  0  0  0  1  0  0  0  0  0  0
  195.9610  175.4180  136.8500 O   0  0  0  0  0  0  0  0  0  0  0  0
  1 10  2  0  0  0  0
  2 15  1  0  0  0  0
  2  6  2  0  0  0  0
  3 17  2  0  0  0  0
  3  7  1  0  0  0  0
  5 11  1  0  0  0  0
  5  4  1  0  0  0  0
  6  5  1  0  0  0  0
  7 10  1  0  0  0  0
  8  4  1  0  0  0  0
  9  3  1  0  0  0  0
 11 12  2  0  0  0  0
 12 17  1  0  0  0  0
 13  6  1  0  0  0  0
 13 16  1  0  0  0  0
 14  9  1  0  0  0  0
 14 11  1  0  0  0  0
 15 14  2  0  0  0  0
 16 21  1  1  0  0  0
 16  8  1  0  0  0  0
 17  1  1  0  0  0  0
 18 19  1  0  0  0  0
 19 15  1  1  0  0  0
 20 18  1  0  0  0  0
 20 19  1  0  0  0  0
 22 21  1  0  0  0  0
 23 25  2  0  0  0  0
 24 23  1  0  0  0  0
 25 22  1  0  0  0  0
 26 27  1  0  0  0  0
 26 24  1  0  0  0  0
 27 28  1  0  0  0  0
 28 23  1  0  0  0  0
 29 38  1  6  0  0  0
 29 26  1  0  0  0  0
 30 34  1  0  0  0  0
 31 34  1  0  0  0  0
 33 29  1  1  0  0  0
 33 32  1  0  0  0  0
 34 33  1  0  0  0  0
 34 32  1  0  0  0  0
 36 38  1  0  0  0  0
 37 36  1  0  0  0  0
 38 35  2  0  0  0  0
 39  2  1  0  0  0  0
 40 44  1  6  0  0  0
 40 41  1  0  0  0  0
 40 43  1  0  0  0  0
 40 42  1  0  0  0  0
 41 42  1  0  0  0  0
 42 39  1  1  0  0  0
 43 42  1  0  0  0  0
 45 44  1  0  0  0  0
 46 45  1  0  0  0  0
 47 48  1  0  0  0  0
 47 46  1  0  0  0  0
 48 51  2  6  0  0  0
 48 50  1  0  0  0  0
 48 53  1  0  0  0  0
 49 52  1  0  0  0  0
 50 55  1  1  0  0  0
 50 49  1  0  0  0  0
 53 52  2  0  0  0  0
 55 54  1  0  0  0  0
 56 53  1  0  0  0  0
 56 57  1  0  0  0  0
 57 60  1  6  0  0  0
 57 59  1  0  0  0  0
 59 58  2  0  0  0  0
 60 62  1  0  0  0  0
 61 62  1  0  0  0  0
M  END
>  <MODEL>
1

>  <REMARK>
 VINA RESULT:      -4.7      0.000      0.000
  Name = 
  20 active torsions:
  status: ('A' for Active; 'I' for Inactive)
    1  A    between atoms: C_4  and  C_54
    2  A    between atoms: C_4  and  O_55
    3  A    between atoms: C_4  and  C_57
    4  A    between atoms: P_5  and  O_40
    5  A    between atoms: C_6  and  N_15
    6  A    between atoms: C_8  and  O_31
    7  A    between atoms: N_15  and  C_19
    8  A    between atoms: C_19  and  C_36
    9  A    between atoms: C_24  and  C_35
   10  A    between atoms: C_24  and  C_37
   11  A    between atoms: C_26  and  C_27
   12  A    between atoms: C_26  and  N_41
   13  A    between atoms: C_26  and  C_49
   14  A    between atoms: O_30  and  C_57
   15  A    between atoms: O_31  and  C_39
   16  A    between atoms: C_32  and  C_51
   17  A    between atoms: C_35  and  C_59
   18  A    between atoms: C_36  and  O_40
   19  A    between atoms: C_45  and  C_53
   20  A    between atoms: O_55  and  C_58
                            x       y       z     vdW  Elec       q    Type
                         _______ _______ _______ _____ _____    ______ ____

>  <TORSDO>
F 20

$$$$
=
 OpenBabel11042410103D

 62 71  0  0  1  0  0  0  0  0999 V2000
  180.9390  179.2390  143.3540 C   0  0  0  0  0  3  0  0  0  0  0  0
  184.3390  177.9590  138.0990 C   0  0  0  0  0  0  0  0  0  0  0  0
  180.6720  178.5650  141.1420 C   0  0  0  0  0  0  0  0  0  0  0  0
  185.6830  178.5510  141.5650 C   0  0  0  0  0  2  0  0  0  0  0  0
  184.7430  178.3380  140.4620 N   0  0  0  0  0  0  0  0  0  0  0  0
  185.2250  178.1400  139.1050 C   0  0  0  0  0  0  0  0  0  0  0  0
  179.1250  178.9680  141.6280 S   0  0  0  0  0  0  0  0  0  0  0  0
  186.9250  179.2940  141.0970 C   0  0  0  0  0  2  0  0  0  0  0  0
  181.0350  178.2410  139.9370 N   0  0  0  0  0  2  0  0  0  0  0  0
  179.5570  179.4110  143.2090 C   0  0  0  0  0  3  0  0  0  0  0  0
  183.3960  177.8670  140.8050 C   0  0  0  0  0  0  0  0  0  0  0  0
  182.8550  178.5010  142.0710 C   0  0  0  0  0  3  0  0  0  0  0  0
  186.6850  178.3820  138.7710 C   0  0  0  0  0  2  0  0  0  0  0  0
  182.4310  178.0280  139.6450 C   0  0  0  0  0  0  0  0  0  0  0  0
  182.8670  177.9840  138.3740 C   0  0  0  0  0  0  0  0  0  0  0  0
  187.6070  178.5070  139.9820 C   0  0  2  0  0  3  0  0  0  0  0  0
  181.5510  178.7570  142.1930 C   0  0  0  0  0  0  0  0  0  0  0  0
  181.5040  176.8130  136.7020 C   0  0  0  0  0  2  0  0  0  0  0  0
  181.8390  178.1410  137.2740 C   0  0  2  0  0  3  0  0  0  0  0  0
  182.3160  177.7330  136.0100 O   0  0  0  0  0  0  0  0  0  0  0  0
  188.1180  177.1240  140.4150 C   0  0  0  0  0  2  0  0  0  0  0  0
  188.4540  177.0300  141.9030 C   0  0  0  0  0  2  0  0  0  0  0  0
  190.3890  177.3500  143.4150 C   0  0  0  0  0  0  0  0  0  0  0  0
  189.5870  177.4730  144.6380 C   0  0  0  0  0  2  0  0  0  0  0  0
  189.9200  177.1800  142.1740 C   0  0  0  0  0  3  0  0  0  0  0  0
  190.5420  177.9110  145.6480 N   0  0  0  0  0  0  0  0  0  0  0  0
  191.8270  177.4830  145.2320 N   0  0  0  0  0  2  0  0  0  0  0  0
  191.8090  177.4660  143.7710 C   0  0  0  0  0  2  0  0  0  0  0  0
  190.2000  177.3070  146.9430 C   0  0  1  0  0  3  0  0  0  0  0  0
  186.9440  177.3430  148.9710 F   0  0  0  0  0  0  0  0  0  0  0  0
  188.9670  178.5610  149.2740 F   0  0  0  0  0  0  0  0  0  0  0  0
  188.0000  178.3460  147.1960 O   0  0  0  0  0  0  0  0  0  0  0  0
  188.6900  177.1130  147.2470 C   0  0  2  0  0  3  0  0  0  0  0  0
  188.1620  177.7730  148.4710 C   0  0  0  0  0  0  0  0  0  0  0  0
  191.2240  175.1310  147.0200 O   0  0  0  0  0  0  0  0  0  0  0  0
  192.2840  176.8020  148.2630 N   0  0  0  0  0  2  0  0  0  0  0  0
  193.3260  175.9210  148.7670 C   0  0  0  0  0  1  0  0  0  0  0  0
  191.2270  176.3240  147.4240 C   0  0  0  0  0  0  0  0  0  0  0  0
  184.7800  177.8330  136.7730 O   0  0  0  0  0  0  0  0  0  0  0  0
  186.2230  176.6290  135.0560 C   0  0  2  0  0  0  0  0  0  0  0  0
  185.9410  175.9130  136.3440 C   0  0  0  0  0  2  0  0  0  0  0  0
  186.0930  177.4060  136.4270 C   0  0  2  0  0  0  0  0  0  0  0  0
  186.3440  178.1180  135.1290 C   0  0  0  0  0  2  0  0  0  0  0  0
  187.5450  176.1590  134.5940 N   0  0  0  0  0  2  0  0  0  0  0  0
  187.7810  174.7130  134.6640 C   0  0  0  0  0  2  0  0  0  0  0  0
  189.2420  174.4530  134.9810 C   0  0  0  0  0  2  0  0  0  0  0  0
  189.7740  175.5380  135.6800 O   0  0  0  0  0  0  0  0  0  0  0  0
  191.0190  174.9090  136.6550 P   0  0  1  0  0  0  0  0  0  0  0  0
  192.8730  176.5650  137.2980 O   0  0  0  0  0  0  0  0  0  0  0  0
  191.6660  176.0880  137.8750 C   0  0  1  0  0  3  0  0  0  0  0  0
  190.6790  173.5690  137.2760 O   0  0  0  0  0  0  0  0  0  0  0  0
  193.3730  175.8450  136.2330 N   0  0  0  0  0  0  0  0  0  0  0  0
  192.5830  174.9220  135.8020 C   0  0  0  0  0  0  0  0  0  0  0  0
  190.1330  177.6360  136.9300 O   0  0  0  0  0  1  0  0  0  0  0  0
  190.7170  177.2360  138.1320 C   0  0  0  0  0  2  0  0  0  0  0  0
  192.9930  174.0590  134.7770 O   0  0  0  0  0  0  0  0  0  0  0  0
  193.9230  172.9760  134.8860 C   0  0  2  0  0  3  0  0  0  0  0  0
  192.0860  171.4750  135.0030 O   0  0  0  0  0  0  0  0  0  0  0  0
  193.2810  171.6190  134.8150 C   0  0  0  0  0  3  0  0  0  0  0  0
  194.8970  173.1550  136.0480 C   0  0  0  0  0  2  0  0  0  0  0  0
  195.5230  172.5780  138.0830 C   0  0  0  0  0  1  0  0  0  0  0  0
  194.5750  172.2910  137.0990 O   0  0  0  0  0  0  0  0  0  0  0  0
  2 15  1  0  0  0  0
  2  6  2  0  0  0  0
  3  7  1  0  0  0  0
  3 17  2  0  0  0  0
  5 11  1  0  0  0  0
  5  4  1  0  0  0  0
  6  5  1  0  0  0  0
  7 10  1  0  0  0  0
  8  4  1  0  0  0  0
  9  3  1  0  0  0  0
 10  1  2  0  0  0  0
 11 12  2  0  0  0  0
 12 17  1  0  0  0  0
 13  6  1  0  0  0  0
 13 16  1  0  0  0  0
 14  9  1  0  0  0  0
 14 11  1  0  0  0  0
 15 14  2  0  0  0  0
 16 21  1  1  0  0  0
 16  8  1  0  0  0  0
 17  1  1  0  0  0  0
 18 19  1  0  0  0  0
 19 15  1  1  0  0  0
 20 18  1  0  0  0  0
 20 19  1  0  0  0  0
 21 22  1  0  0  0  0
 22 25  1  0  0  0  0
 23 28  1  0  0  0  0
 23 24  1  0  0  0  0
 24 26  1  0  0  0  0
 25 23  2  0  0  0  0
 26 29  1  0  0  0  0
 27 26  1  0  0  0  0
 28 27  1  0  0  0  0
 29 38  1  6  0  0  0
 32 33  1  0  0  0  0
 32 34  1  0  0  0  0
 33 29  1  1  0  0  0
 33 34  1  0  0  0  0
 34 30  1  0  0  0  0
 34 31  1  0  0  0  0
 35 38  2  0  0  0  0
 36 37  1  0  0  0  0
 38 36  1  0  0  0  0
 39  2  1  0  0  0  0
 40 44  1  1  0  0  0
 40 43  1  0  0  0  0
 40 41  1  0  0  0  0
 40 42  1  0  0  0  0
 41 42  1  0  0  0  0
 42 39  1  6  0  0  0
 43 42  1  0  0  0  0
 44 45  1  0  0  0  0
 45 46  1  0  0  0  0
 46 47  1  0  0  0  0
 47 48  1  0  0  0  0
 48 51  2  1  0  0  0
 48 50  1  0  0  0  0
 49 50  1  0  0  0  0
 50 55  1  6  0  0  0
 52 49  1  0  0  0  0
 53 52  2  0  0  0  0
 53 48  1  0  0  0  0
 54 55  1  0  0  0  0
 56 57  1  0  0  0  0
 56 53  1  0  0  0  0
 57 59  1  1  0  0  0
 57 60  1  0  0  0  0
 59 58  2  0  0  0  0
 60 62  1  0  0  0  0
 62 61  1  0  0  0  0
M  END
>  <MODEL>
2

>  <REMARK>
 VINA RESULT:      -4.7      3.654      8.603
  Name = 
  20 active torsions:
  status: ('A' for Active; 'I' for Inactive)
    1  A    between atoms: C_4  and  C_54
    2  A    between atoms: C_4  and  O_55
    3  A    between atoms: C_4  and  C_57
    4  A    between atoms: P_5  and  O_40
    5  A    between atoms: C_6  and  N_15
    6  A    between atoms: C_8  and  O_31
    7  A    between atoms: N_15  and  C_19
    8  A    between atoms: C_19  and  C_36
    9  A    between atoms: C_24  and  C_35
   10  A    between atoms: C_24  and  C_37
   11  A    between atoms: C_26  and  C_27
   12  A    between atoms: C_26  and  N_41
   13  A    between atoms: C_26  and  C_49
   14  A    between atoms: O_30  and  C_57
   15  A    between atoms: O_31  and  C_39
   16  A    between atoms: C_32  and  C_51
   17  A    between atoms: C_35  and  C_59
   18  A    between atoms: C_36  and  O_40
   19  A    between atoms: C_45  and  C_53
   20  A    between atoms: O_55  and  C_58
                            x       y       z     vdW  Elec       q    Type
                         _______ _______ _______ _____ _____    ______ ____

>  <TORSDO>
F 20

$$$$
=
 OpenBabel11042410103D

 62 71  0  0  1  0  0  0  0  0999 V2000
  190.7320  176.7150  148.1750 C   0  0  0  0  0  3  0  0  0  0  0  0
  188.1200  177.4080  142.3860 C   0  0  0  0  0  0  0  0  0  0  0  0
  191.2960  176.6870  145.9160 C   0  0  0  0  0  0  0  0  0  0  0  0
  186.4820  178.1260  145.6990 C   0  0  0  0  0  2  0  0  0  0  0  0
  187.5010  177.7860  144.7030 N   0  0  0  0  0  0  0  0  0  0  0  0
  187.1670  177.7380  143.2890 C   0  0  0  0  0  0  0  0  0  0  0  0
  192.6360  176.0350  146.6730 S   0  0  0  0  0  0  0  0  0  0  0  0
  185.1060  177.6390  145.2710 C   0  0  0  0  0  2  0  0  0  0  0  0
  191.1040  176.7650  144.6340 N   0  0  0  0  0  2  0  0  0  0  0  0
  192.0130  176.1550  148.2470 C   0  0  0  0  0  3  0  0  0  0  0  0
  188.9060  177.9610  145.0870 C   0  0  0  0  0  0  0  0  0  0  0  0
  189.1770  177.5640  146.5260 C   0  0  0  0  0  3  0  0  0  0  0  0
  185.7190  177.8090  142.8430 C   0  0  0  0  0  2  0  0  0  0  0  0
  189.8440  177.2520  144.1280 C   0  0  0  0  0  0  0  0  0  0  0  0
  189.5070  177.0720  142.8390 C   0  0  0  0  0  0  0  0  0  0  0  0
  184.7370  178.2540  143.9240 C   0  0  2  0  0  3  0  0  0  0  0  0
  190.3450  177.0170  146.8650 C   0  0  0  0  0  0  0  0  0  0  0  0
  191.7510  177.1640  141.8500 C   0  0  0  0  0  2  0  0  0  0  0  0
  190.5040  176.3660  141.9450 C   0  0  2  0  0  3  0  0  0  0  0  0
  190.8280  177.1060  140.7880 O   0  0  0  0  0  0  0  0  0  0  0  0
  184.6200  179.7870  143.9480 C   0  0  0  0  0  2  0  0  0  0  0  0
  183.2400  180.3050  143.5420 C   0  0  0  0  0  2  0  0  0  0  0  0
  181.2640  178.9040  143.0270 C   0  0  0  0  0  0  0  0  0  0  0  0
  181.2100  179.2640  141.6050 C   0  0  0  0  0  2  0  0  0  0  0  0
  182.1360  179.3680  143.9280 C   0  0  0  0  0  3  0  0  0  0  0  0
  179.9410  178.7140  141.1460 N   0  0  0  0  0  0  0  0  0  0  0  0
  179.6080  177.6390  142.0060 N   0  0  0  0  0  2  0  0  0  0  0  0
  180.1790  177.9570  143.3130 C   0  0  0  0  0  2  0  0  0  0  0  0
  180.0830  178.2340  139.7650 C   0  0  1  0  0  3  0  0  0  0  0  0
  179.8670  181.0630  137.1830 F   0  0  0  0  0  0  0  0  0  0  0  0
  181.7610  180.0210  138.1780 F   0  0  0  0  0  0  0  0  0  0  0  0
  179.9940  178.7790  137.3820 O   0  0  0  0  0  0  0  0  0  0  0  0
  179.4690  179.1230  138.6490 C   0  0  2  0  0  3  0  0  0  0  0  0
  180.4040  180.0160  137.9140 C   0  0  0  0  0  0  0  0  0  0  0  0
  182.4450  177.8480  140.0150 O   0  0  0  0  0  0  0  0  0  0  0  0
  181.2560  176.1950  138.8680 N   0  0  0  0  0  2  0  0  0  0  0  0
  182.4290  175.3720  138.6140 C   0  0  0  0  0  1  0  0  0  0  0  0
  181.3470  177.4570  139.5380 C   0  0  0  0  0  0  0  0  0  0  0  0
  187.8030  177.2920  141.0240 O   0  0  0  0  0  0  0  0  0  0  0  0
  187.9180  178.0230  138.5880 C   0  0  2  0  0  0  0  0  0  0  0  0
  189.1460  178.2240  139.4270 C   0  0  0  0  0  2  0  0  0  0  0  0
  187.8230  178.3930  140.1230 C   0  0  2  0  0  0  0  0  0  0  0  0
  186.6010  178.1600  139.2840 C   0  0  0  0  0  2  0  0  0  0  0  0
  187.9260  179.0910  137.5680 N   0  0  0  0  0  2  0  0  0  0  0  0
  187.9800  178.6520  136.1690 C   0  0  0  0  0  2  0  0  0  0  0  0
  189.0360  177.5750  136.0170 C   0  0  0  0  0  2  0  0  0  0  0  0
  188.6240  176.6400  135.0660 O   0  0  0  0  0  0  0  0  0  0  0  0
  189.2100  175.1330  135.5980 P   0  0  1  0  0  0  0  0  0  0  0  0
  188.0160  174.1340  137.6410 O   0  0  0  0  0  0  0  0  0  0  0  0
  187.9190  174.0220  136.2280 C   0  0  1  0  0  3  0  0  0  0  0  0
  190.1150  174.4490  134.5940 O   0  0  0  0  0  0  0  0  0  0  0  0
  189.1590  174.7280  138.1340 N   0  0  0  0  0  0  0  0  0  0  0  0
  189.9170  175.2490  137.2290 C   0  0  0  0  0  0  0  0  0  0  0  0
  186.1940  175.6510  136.3180 O   0  0  0  0  0  1  0  0  0  0  0  0
  186.5360  174.4180  135.7650 C   0  0  0  0  0  2  0  0  0  0  0  0
  191.1510  175.8150  137.5770 O   0  0  0  0  0  0  0  0  0  0  0  0
  192.4450  175.3910  137.1370 C   0  0  2  0  0  3  0  0  0  0  0  0
  194.5790  175.7710  138.1100 O   0  0  0  0  0  0  0  0  0  0  0  0
  193.4600  175.3060  138.2420 C   0  0  0  0  0  3  0  0  0  0  0  0
  192.9190  176.1450  135.8980 C   0  0  0  0  0  2  0  0  0  0  0  0
  194.5580  175.3450  134.6590 C   0  0  0  0  0  1  0  0  0  0  0  0
  193.1780  175.2580  134.8490 O   0  0  0  0  0  0  0  0  0  0  0  0
  1 10  2  0  0  0  0
  2 15  1  0  0  0  0
  2  6  2  0  0  0  0
  3  7  1  0  0  0  0
  3 17  2  0  0  0  0
  5 11  1  0  0  0  0
  5  4  1  0  0  0  0
  6  5  1  0  0  0  0
  7 10  1  0  0  0  0
  8  4  1  0  0  0  0
  9  3  1  0  0  0  0
 11 12  2  0  0  0  0
 12 17  1  0  0  0  0
 13  6  1  0  0  0  0
 13 16  1  0  0  0  0
 14  9  1  0  0  0  0
 14 11  1  0  0  0  0
 15 14  2  0  0  0  0
 16 21  1  1  0  0  0
 16  8  1  0  0  0  0
 17  1  1  0  0  0  0
 18 19  1  0  0  0  0
 19 15  1  1  0  0  0
 20 18  1  0  0  0  0
 20 19  1  0  0  0  0
 22 25  1  0  0  0  0
 22 21  1  0  0  0  0
 23 28  1  0  0  0  0
 23 25  2  0  0  0  0
 24 23  1  0  0  0  0
 26 24  1  0  0  0  0
 26 27  1  0  0  0  0
 27 28  1  0  0  0  0
 29 38  1  6  0  0  0
 29 26  1  0  0  0  0
 30 34  1  0  0  0  0
 32 34  1  0  0  0  0
 32 33  1  0  0  0  0
 33 29  1  1  0  0  0
 34 31  1  0  0  0  0
 34 33  1  0  0  0  0
 36 38  1  0  0  0  0
 37 36  1  0  0  0  0
 38 35  2  0  0  0  0
 39  2  1  0  0  0  0
 40 44  1  6  0  0  0
 40 43  1  0  0  0  0
 40 41  1  0  0  0  0
 40 42  1  0  0  0  0
 41 42  1  0  0  0  0
 42 39  1  1  0  0  0
 43 42  1  0  0  0  0
 45 44  1  0  0  0  0
 46 45  1  0  0  0  0
 47 48  1  0  0  0  0
 47 46  1  0  0  0  0
 48 51  2  6  0  0  0
 48 50  1  0  0  0  0
 48 53  1  0  0  0  0
 49 52  1  0  0  0  0
 50 55  1  6  0  0  0
 50 49  1  0  0  0  0
 53 56  1  0  0  0  0
 53 52  2  0  0  0  0
 55 54  1  0  0  0  0
 57 60  1  6  0  0  0
 57 56  1  0  0  0  0
 57 59  1  0  0  0  0
 58 59  2  0  0  0  0
 61 62  1  0  0  0  0
 62 60  1  0  0  0  0
M  END
>  <MODEL>
3

>  <REMARK>
 VINA RESULT:      -4.6      1.401      1.971
  Name = 
  20 active torsions:
  status: ('A' for Active; 'I' for Inactive)
    1  A    between atoms: C_4  and  C_54
    2  A    between atoms: C_4  and  O_55
    3  A    between atoms: C_4  and  C_57
    4  A    between atoms: P_5  and  O_40
    5  A    between atoms: C_6  and  N_15
    6  A    between atoms: C_8  and  O_31
    7  A    between atoms: N_15  and  C_19
    8  A    between atoms: C_19  and  C_36
    9  A    between atoms: C_24  and  C_35
   10  A    between atoms: C_24  and  C_37
   11  A    between atoms: C_26  and  C_27
   12  A    between atoms: C_26  and  N_41
   13  A    between atoms: C_26  and  C_49
   14  A    between atoms: O_30  and  C_57
   15  A    between atoms: O_31  and  C_39
   16  A    between atoms: C_32  and  C_51
   17  A    between atoms: C_35  and  C_59
   18  A    between atoms: C_36  and  O_40
   19  A    between atoms: C_45  and  C_53
   20  A    between atoms: O_55  and  C_58
                            x       y       z     vdW  Elec       q    Type
                         _______ _______ _______ _____ _____    ______ ____

>  <TORSDO>
F 20

$$$$
=
 OpenBabel11042410103D

 62 71  0  0  1  0  0  0  0  0999 V2000
  195.9340  172.8320  134.8230 C   0  0  0  0  0  3  0  0  0  0  0  0
  191.3790  176.1930  137.7860 C   0  0  0  0  0  0  0  0  0  0  0  0
  195.6450  174.3590  136.5570 C   0  0  0  0  0  0  0  0  0  0  0  0
  190.8730  173.4540  135.2530 C   0  0  0  0  0  2  0  0  0  0  0  0
  191.5280  174.3680  136.1930 N   0  0  0  0  0  0  0  0  0  0  0  0
  190.7530  175.3490  136.9340 C   0  0  0  0  0  0  0  0  0  0  0  0
  197.2980  174.3340  136.3160 S   0  0  0  0  0  0  0  0  0  0  0  0
  189.6680  174.1080  134.5950 C   0  0  0  0  0  2  0  0  0  0  0  0
  195.0000  175.1580  137.3530 N   0  0  0  0  0  0  0  0  0  0  0  0
  197.2650  173.1960  135.0570 C   0  0  0  0  0  3  0  0  0  0  0  0
  192.8430  173.9750  136.7110 C   0  0  1  0  0  3  0  0  0  0  0  0
  193.7140  173.3090  135.6630 C   0  0  0  0  0  3  0  0  0  0  0  0
  189.2990  175.6000  136.5790 C   0  0  0  0  0  2  0  0  0  0  0  0
  193.5580  175.1380  137.3710 C   0  0  0  0  0  0  0  0  0  0  0  0
  192.8660  176.1350  137.9510 C   0  0  0  0  0  0  0  0  0  0  0  0
  188.6720  174.5510  135.6630 C   0  0  2  0  0  3  0  0  0  0  0  0
  195.0360  173.4840  135.6750 C   0  0  0  0  0  0  0  0  0  0  0  0
  193.8820  176.9460  140.0330 C   0  0  0  0  0  2  0  0  0  0  0  0
  193.6540  177.2530  138.5980 C   0  0  2  0  0  3  0  0  0  0  0  0
  192.9410  177.9100  139.6230 O   0  0  0  0  0  0  0  0  0  0  0  0
  188.0870  173.3950  136.4900 C   0  0  0  0  0  2  0  0  0  0  0  0
  186.6070  173.5700  136.8290 C   0  0  0  0  0  2  0  0  0  0  0  0
  184.6540  174.9270  136.1400 C   0  0  0  0  0  0  0  0  0  0  0  0
  183.6710  174.1440  136.8980 C   0  0  0  0  0  2  0  0  0  0  0  0
  185.9670  174.6860  136.0620 C   0  0  0  0  0  3  0  0  0  0  0  0
  182.3830  174.6460  136.4360 N   0  0  0  0  0  0  0  0  0  0  0  0
  182.5860  175.9650  135.9620 N   0  0  0  0  0  2  0  0  0  0  0  0
  183.9540  176.0210  135.4540 C   0  0  0  0  0  2  0  0  0  0  0  0
  181.4260  174.6480  137.5500 C   0  0  1  0  0  3  0  0  0  0  0  0
  180.4590  176.9000  140.5030 F   0  0  0  0  0  0  0  0  0  0  0  0
  180.3530  174.5340  140.2640 F   0  0  0  0  0  0  0  0  0  0  0  0
  182.2120  175.7200  139.6050 O   0  0  0  0  0  0  0  0  0  0  0  0
  181.4100  175.9110  138.4560 C   0  0  2  0  0  3  0  0  0  0  0  0
  180.8200  175.7550  139.8120 C   0  0  0  0  0  0  0  0  0  0  0  0
  179.1120  174.4840  136.9110 O   0  0  0  0  0  0  0  0  0  0  0  0
  180.2270  172.4570  137.2410 N   0  0  0  0  0  2  0  0  0  0  0  0
  179.0580  171.6400  136.9500 C   0  0  0  0  0  1  0  0  0  0  0  0
  180.1680  173.8870  137.2500 C   0  0  0  0  0  0  0  0  0  0  0  0
  190.6590  177.1910  138.4610 O   0  0  0  0  0  0  0  0  0  0  0  0
  189.4270  177.8530  140.5880 C   0  0  2  0  0  0  0  0  0  0  0  0
  190.2450  176.5960  140.6270 C   0  0  0  0  0  2  0  0  0  0  0  0
  189.5630  176.9110  139.3250 C   0  0  2  0  0  0  0  0  0  0  0  0
  188.7730  178.1860  139.2850 C   0  0  0  0  0  2  0  0  0  0  0  0
  188.3130  177.6600  141.5390 N   0  0  0  0  0  2  0  0  0  0  0  0
  188.4670  176.5670  142.5050 C   0  0  0  0  0  2  0  0  0  0  0  0
  188.0270  177.0400  143.8780 C   0  0  0  0  0  2  0  0  0  0  0  0
  188.7900  176.4080  144.8610 O   0  0  0  0  0  0  0  0  0  0  0  0
  189.9970  177.5210  145.3130 P   0  0  1  0  0  0  0  0  0  0  0  0
  191.9040  176.5730  146.7470 O   0  0  0  0  0  0  0  0  0  0  0  0
  191.6680  176.8140  145.3670 C   0  0  1  0  0  3  0  0  0  0  0  0
  189.9470  178.8160  144.5270 O   0  0  0  0  0  0  0  0  0  0  0  0
  191.0410  177.1810  147.6350 N   0  0  0  0  0  0  0  0  0  0  0  0
  190.0330  177.7610  147.0780 C   0  0  0  0  0  0  0  0  0  0  0  0
  192.0760  175.8130  143.2530 O   0  0  0  0  0  1  0  0  0  0  0  0
  191.7780  175.5260  144.5840 C   0  0  0  0  0  2  0  0  0  0  0  0
  189.1180  178.4890  147.8500 O   0  0  0  0  0  0  0  0  0  0  0  0
  187.7470  178.1580  148.0980 C   0  0  2  0  0  3  0  0  0  0  0  0
  187.0370  177.2190  150.1610 O   0  0  0  0  0  0  0  0  0  0  0  0
  187.5650  177.0340  149.0790 C   0  0  0  0  0  3  0  0  0  0  0  0
  186.9380  178.0130  146.8110 C   0  0  0  0  0  2  0  0  0  0  0  0
  185.4820  179.4330  145.9600 C   0  0  0  0  0  1  0  0  0  0  0  0
  185.6400  178.5010  146.9880 O   0  0  0  0  0  0  0  0  0  0  0  0
  1 10  2  0  0  0  0
  1 17  1  0  0  0  0
  2 15  1  0  0  0  0
  2 39  1  0  0  0  0
  3  9  2  0  0  0  0
  4  5  1  0  0  0  0
  5 11  1  0  0  0  0
  5  6  1  0  0  0  0
  6  2  2  0  0  0  0
  7  3  1  0  0  0  0
  8  4  1  0  0  0  0
  8 16  1  0  0  0  0
  9 14  1  0  0  0  0
 10  7  1  0  0  0  0
 11 12  1  6  0  0  0
 11 14  1  0  0  0  0
 12 17  2  0  0  0  0
 13  6  1  0  0  0  0
 14 15  2  0  0  0  0
 16 21  1  1  0  0  0
 16 13  1  0  0  0  0
 17  3  1  0  0  0  0
 19 15  1  6  0  0  0
 19 20  1  0  0  0  0
 19 18  1  0  0  0  0
 20 18  1  0  0  0  0
 21 22  1  0  0  0  0
 23 24  1  0  0  0  0
 25 23  2  0  0  0  0
 25 22  1  0  0  0  0
 26 24  1  0  0  0  0
 26 29  1  0  0  0  0
 27 26  1  0  0  0  0
 28 27  1  0  0  0  0
 28 23  1  0  0  0  0
 29 38  1  6  0  0  0
 32 34  1  0  0  0  0
 33 29  1  6  0  0  0
 33 32  1  0  0  0  0
 33 34  1  0  0  0  0
 34 31  1  0  0  0  0
 34 30  1  0  0  0  0
 35 38  2  0  0  0  0
 36 38  1  0  0  0  0
 37 36  1  0  0  0  0
 40 41  1  0  0  0  0
 40 44  1  1  0  0  0
 42 39  1  6  0  0  0
 42 40  1  0  0  0  0
 42 41  1  0  0  0  0
 43 42  1  0  0  0  0
 43 40  1  0  0  0  0
 44 45  1  0  0  0  0
 45 46  1  0  0  0  0
 46 47  1  0  0  0  0
 47 48  1  0  0  0  0
 48 51  2  6  0  0  0
 48 50  1  0  0  0  0
 48 53  1  0  0  0  0
 49 52  1  0  0  0  0
 50 55  1  6  0  0  0
 50 49  1  0  0  0  0
 53 52  2  0  0  0  0
 53 56  1  0  0  0  0
 54 55  1  0  0  0  0
 56 57  1  0  0  0  0
 57 60  1  6  0  0  0
 57 59  1  0  0  0  0
 59 58  2  0  0  0  0
 60 62  1  0  0  0  0
 61 62  1  0  0  0  0
M  END
>  <MODEL>
4

>  <REMARK>
 VINA RESULT:      -4.3      3.761      9.152
  Name = 
  20 active torsions:
  status: ('A' for Active; 'I' for Inactive)
    1  A    between atoms: C_4  and  C_54
    2  A    between atoms: C_4  and  O_55
    3  A    between atoms: C_4  and  C_57
    4  A    between atoms: P_5  and  O_40
    5  A    between atoms: C_6  and  N_15
    6  A    between atoms: C_8  and  O_31
    7  A    between atoms: N_15  and  C_19
    8  A    between atoms: C_19  and  C_36
    9  A    between atoms: C_24  and  C_35
   10  A    between atoms: C_24  and  C_37
   11  A    between atoms: C_26  and  C_27
   12  A    between atoms: C_26  and  N_41
   13  A    between atoms: C_26  and  C_49
   14  A    between atoms: O_30  and  C_57
   15  A    between atoms: O_31  and  C_39
   16  A    between atoms: C_32  and  C_51
   17  A    between atoms: C_35  and  C_59
   18  A    between atoms: C_36  and  O_40
   19  A    between atoms: C_45  and  C_53
   20  A    between atoms: O_55  and  C_58
                            x       y       z     vdW  Elec       q    Type
                         _______ _______ _______ _____ _____    ______ ____

>  <TORSDO>
F 20

$$$$
=
 OpenBabel11042410103D

 62 71  0  0  1  0  0  0  0  0999 V2000
  179.1200  172.0790  135.9240 C   0  0  0  0  0  3  0  0  0  0  0  0
  184.9220  174.5640  136.9120 C   0  0  0  0  0  0  0  0  0  0  0  0
  181.3540  171.4500  136.1070 C   0  0  0  0  0  0  0  0  0  0  0  0
  181.6190  176.3360  137.2700 C   0  0  0  0  0  2  0  0  0  0  0  0
  182.6050  175.2710  137.0700 N   0  0  0  0  0  0  0  0  0  0  0  0
  184.0280  175.5610  137.1130 C   0  0  0  0  0  0  0  0  0  0  0  0
  180.6060  170.0950  135.4780 S   0  0  0  0  0  0  0  0  0  0  0  0
  182.1290  177.6670  136.7370 C   0  0  0  0  0  2  0  0  0  0  0  0
  182.6330  171.6110  136.2730 N   0  0  0  0  0  2  0  0  0  0  0  0
  179.0480  170.7680  135.4370 C   0  0  0  0  0  3  0  0  0  0  0  0
  182.1620  173.8900  137.2970 C   0  0  0  0  0  0  0  0  0  0  0  0
  180.7500  173.6360  136.8060 C   0  0  0  0  0  3  0  0  0  0  0  0
  184.5150  176.9980  137.1330 C   0  0  0  0  0  2  0  0  0  0  0  0
  183.1410  172.8830  136.7230 C   0  0  0  0  0  0  0  0  0  0  0  0
  184.4500  173.1730  136.6250 C   0  0  0  0  0  0  0  0  0  0  0  0
  183.4360  178.0350  137.4330 C   0  0  2  0  0  3  0  0  0  0  0  0
  180.4150  172.4470  136.3040 C   0  0  0  0  0  0  0  0  0  0  0  0
  185.5400  172.3290  134.5940 C   0  0  0  0  0  2  0  0  0  0  0  0
  185.3630  172.1090  136.0510 C   0  0  2  0  0  3  0  0  0  0  0  0
  184.7260  171.2940  135.0920 O   0  0  0  0  0  0  0  0  0  0  0  0
  183.2990  178.2470  138.9490 C   0  0  0  0  0  2  0  0  0  0  0  0
  182.0640  177.5790  139.5540 C   0  0  0  0  0  2  0  0  0  0  0  0
  181.7450  178.7760  141.6990 C   0  0  0  0  0  0  0  0  0  0  0  0
  182.9420  178.2230  142.3420 C   0  0  0  0  0  2  0  0  0  0  0  0
  181.3050  178.4920  140.4680 C   0  0  0  0  0  3  0  0  0  0  0  0
  182.8170  178.6280  143.7370 N   0  0  0  0  0  0  0  0  0  0  0  0
  182.0060  179.7880  143.7700 N   0  0  0  0  0  2  0  0  0  0  0  0
  181.0840  179.6870  142.6420 C   0  0  0  0  0  2  0  0  0  0  0  0
  184.1480  178.9220  144.2850 C   0  0  1  0  0  3  0  0  0  0  0  0
  186.2950  177.8840  147.2910 F   0  0  0  0  0  0  0  0  0  0  0  0
  186.0840  179.9860  146.1940 F   0  0  0  0  0  0  0  0  0  0  0  0
  184.2340  178.7230  146.7220 O   0  0  0  0  0  0  0  0  0  0  0  0
  184.5990  178.0850  145.5130 C   0  0  2  0  0  3  0  0  0  0  0  0
  185.6070  178.7070  146.4130 C   0  0  0  0  0  0  0  0  0  0  0  0
  185.5200  180.5670  143.1880 O   0  0  0  0  0  0  0  0  0  0  0  0
  185.7060  178.3810  142.3830 N   0  0  0  0  0  2  0  0  0  0  0  0
  186.6730  178.7250  141.3510 C   0  0  0  0  0  1  0  0  0  0  0  0
  185.1300  179.3700  143.2420 C   0  0  0  0  0  0  0  0  0  0  0  0
  186.2990  174.8340  136.8840 O   0  0  0  0  0  0  0  0  0  0  0  0
  188.5360  175.5200  135.8800 C   0  0  2  0  0  0  0  0  0  0  0  0
  187.5420  176.6090  136.1590 C   0  0  0  0  0  2  0  0  0  0  0  0
  186.9800  175.2850  135.7180 C   0  0  2  0  0  0  0  0  0  0  0  0
  187.9780  174.1920  135.4720 C   0  0  0  0  0  2  0  0  0  0  0  0
  189.3400  175.9690  134.7260 N   0  0  0  0  0  2  0  0  0  0  0  0
  190.7200  175.4740  134.6640 C   0  0  0  0  0  2  0  0  0  0  0  0
  191.4720  175.9170  135.9040 C   0  0  0  0  0  2  0  0  0  0  0  0
  192.3300  174.9000  136.3250 O   0  0  0  0  0  0  0  0  0  0  0  0
  193.7950  175.6590  136.7450 P   0  0  1  0  0  0  0  0  0  0  0  0
  195.2960  174.3580  138.3730 O   0  0  0  0  0  0  0  0  0  0  0  0
  195.1840  174.5090  136.9650 C   0  0  1  0  0  3  0  0  0  0  0  0
  194.1520  176.8230  135.8420 O   0  0  0  0  0  0  0  0  0  0  0  0
  194.6210  175.2790  139.1470 N   0  0  0  0  0  0  0  0  0  0  0  0
  193.8450  176.0620  138.4790 C   0  0  0  0  0  0  0  0  0  0  0  0
  195.5900  173.1230  135.0800 O   0  0  0  0  0  1  0  0  0  0  0  0
  194.9370  173.1700  136.3110 C   0  0  0  0  0  2  0  0  0  0  0  0
  193.1590  177.1000  139.1250 O   0  0  0  0  0  0  0  0  0  0  0  0
  191.9300  176.9960  139.8510 C   0  0  2  0  0  3  0  0  0  0  0  0
  189.6760  176.8100  139.1240 O   0  0  0  0  0  0  0  0  0  0  0  0
  190.7250  177.4270  139.0630 C   0  0  0  0  0  3  0  0  0  0  0  0
  192.0220  177.6040  141.2490 C   0  0  0  0  0  2  0  0  0  0  0  0
  190.3480  177.4660  142.6770 C   0  0  0  0  0  1  0  0  0  0  0  0
  191.4460  176.7520  142.1960 O   0  0  0  0  0  0  0  0  0  0  0  0
  1 17  1  0  0  0  0
  2  6  2  0  0  0  0
  3  9  1  0  0  0  0
  3 17  2  0  0  0  0
  5  6  1  0  0  0  0
  5  4  1  0  0  0  0
  5 11  1  0  0  0  0
  6 13  1  0  0  0  0
  7  3  1  0  0  0  0
  8  4  1  0  0  0  0
  8 16  1  0  0  0  0
  9 14  1  0  0  0  0
 10  7  1  0  0  0  0
 10  1  2  0  0  0  0
 12 11  2  0  0  0  0
 13 16  1  0  0  0  0
 14 11  1  0  0  0  0
 15 14  2  0  0  0  0
 15  2  1  0  0  0  0
 16 21  1  1  0  0  0
 17 12  1  0  0  0  0
 18 20  1  0  0  0  0
 18 19  1  0  0  0  0
 19 15  1  6  0  0  0
 20 19  1  0  0  0  0
 21 22  1  0  0  0  0
 22 25  1  0  0  0  0
 23 24  1  0  0  0  0
 23 28  1  0  0  0  0
 24 26  1  0  0  0  0
 25 23  2  0  0  0  0
 26 27  1  0  0  0  0
 26 29  1  0  0  0  0
 28 27  1  0  0  0  0
 29 38  1  6  0  0  0
 31 34  1  0  0  0  0
 33 29  1  6  0  0  0
 33 34  1  0  0  0  0
 33 32  1  0  0  0  0
 34 32  1  0  0  0  0
 34 30  1  0  0  0  0
 35 38  2  0  0  0  0
 36 38  1  0  0  0  0
 37 36  1  0  0  0  0
 39  2  1  0  0  0  0
 40 44  1  6  0  0  0
 40 41  1  0  0  0  0
 42 40  1  0  0  0  0
 42 41  1  0  0  0  0
 42 39  1  1  0  0  0
 43 42  1  0  0  0  0
 43 40  1  0  0  0  0
 45 44  1  0  0  0  0
 45 46  1  0  0  0  0
 46 47  1  0  0  0  0
 47 48  1  0  0  0  0
 48 51  2  6  0  0  0
 48 50  1  0  0  0  0
 48 53  1  0  0  0  0
 49 52  1  0  0  0  0
 50 55  1  6  0  0  0
 50 49  1  0  0  0  0
 53 56  1  0  0  0  0
 53 52  2  0  0  0  0
 54 55  1  0  0  0  0
 56 57  1  0  0  0  0
 57 59  1  6  0  0  0
 57 60  1  0  0  0  0
 59 58  2  0  0  0  0
 60 62  1  0  0  0  0
 62 61  1  0  0  0  0
M  END
>  <MODEL>
5

>  <REMARK>
 VINA RESULT:      -4.1      4.219      8.414
  Name = 
  20 active torsions:
  status: ('A' for Active; 'I' for Inactive)
    1  A    between atoms: C_4  and  C_54
    2  A    between atoms: C_4  and  O_55
    3  A    between atoms: C_4  and  C_57
    4  A    between atoms: P_5  and  O_40
    5  A    between atoms: C_6  and  N_15
    6  A    between atoms: C_8  and  O_31
    7  A    between atoms: N_15  and  C_19
    8  A    between atoms: C_19  and  C_36
    9  A    between atoms: C_24  and  C_35
   10  A    between atoms: C_24  and  C_37
   11  A    between atoms: C_26  and  C_27
   12  A    between atoms: C_26  and  N_41
   13  A    between atoms: C_26  and  C_49
   14  A    between atoms: O_30  and  C_57
   15  A    between atoms: O_31  and  C_39
   16  A    between atoms: C_32  and  C_51
   17  A    between atoms: C_35  and  C_59
   18  A    between atoms: C_36  and  O_40
   19  A    between atoms: C_45  and  C_53
   20  A    between atoms: O_55  and  C_58
                            x       y       z     vdW  Elec       q    Type
                         _______ _______ _______ _____ _____    ______ ____

>  <TORSDO>
F 20

$$$$
=
 OpenBabel11042410103D

 62 71  0  0  1  0  0  0  0  0999 V2000
  180.7330  175.7100  136.6540 C   0  0  0  0  0  3  0  0  0  0  0  0
  186.7060  177.5460  137.9860 C   0  0  0  0  0  0  0  0  0  0  0  0
  182.9180  175.4640  135.8900 C   0  0  0  0  0  0  0  0  0  0  0  0
  183.6590  178.0460  140.1420 C   0  0  0  0  0  2  0  0  0  0  0  0
  184.5230  177.5930  139.0490 N   0  0  0  0  0  0  0  0  0  0  0  0
  185.9280  177.9640  139.0120 C   0  0  0  0  0  0  0  0  0  0  0  0
  181.9860  174.8690  134.6370 S   0  0  0  0  0  0  0  0  0  0  0  0
  184.0850  179.4150  140.6510 C   0  0  0  0  0  2  0  0  0  0  0  0
  184.2060  175.6380  135.8690 N   0  0  0  0  0  2  0  0  0  0  0  0
  180.4930  175.1410  135.3970 C   0  0  0  0  0  3  0  0  0  0  0  0
  184.0880  176.4160  138.2870 C   0  0  0  0  0  0  0  0  0  0  0  0
  182.5900  176.3900  138.0500 C   0  0  0  0  0  3  0  0  0  0  0  0
  186.4660  179.0110  139.9700 C   0  0  0  0  0  2  0  0  0  0  0  0
  184.8590  176.2680  136.9900 C   0  0  0  0  0  0  0  0  0  0  0  0
  186.1200  176.7240  136.8810 C   0  0  0  0  0  0  0  0  0  0  0  0
  185.5330  179.3600  141.1270 C   0  0  2  0  0  3  0  0  0  0  0  0
  182.0960  175.8780  136.9220 C   0  0  0  0  0  0  0  0  0  0  0  0
  187.3960  175.1580  135.4860 C   0  0  0  0  0  2  0  0  0  0  0  0
  186.8250  176.5270  135.5560 C   0  0  2  0  0  3  0  0  0  0  0  0
  188.2090  176.2890  135.6970 O   0  0  0  0  0  0  0  0  0  0  0  0
  185.7670  178.4110  142.3130 C   0  0  0  0  0  2  0  0  0  0  0  0
  184.5250  178.1870  143.1760 C   0  0  0  0  0  2  0  0  0  0  0  0
  185.7510  178.4470  145.3110 C   0  0  0  0  0  0  0  0  0  0  0  0
  186.8570  177.5560  144.9420 C   0  0  0  0  0  2  0  0  0  0  0  0
  184.6800  178.7320  144.5620 C   0  0  0  0  0  3  0  0  0  0  0  0
  187.6000  177.3770  146.1830 N   0  0  0  0  0  0  0  0  0  0  0  0
  187.3440  178.5070  146.9980 N   0  0  0  0  0  2  0  0  0  0  0  0
  186.0000  178.9690  146.6610 C   0  0  0  0  0  2  0  0  0  0  0  0
  189.0360  177.2800  145.8870 C   0  0  1  0  0  3  0  0  0  0  0  0
  192.2630  176.1350  147.6180 F   0  0  0  0  0  0  0  0  0  0  0  0
  191.9290  177.6680  145.8280 F   0  0  0  0  0  0  0  0  0  0  0  0
  190.6060  177.7220  147.7100 O   0  0  0  0  0  0  0  0  0  0  0  0
  189.9420  176.6930  147.0030 C   0  0  2  0  0  3  0  0  0  0  0  0
  191.4050  176.9240  146.8700 C   0  0  0  0  0  0  0  0  0  0  0  0
  189.1480  177.9300  143.5730 O   0  0  0  0  0  0  0  0  0  0  0  0
  189.9150  175.7790  144.0670 N   0  0  0  0  0  2  0  0  0  0  0  0
  190.2360  175.4550  142.6850 C   0  0  0  0  0  1  0  0  0  0  0  0
  189.3230  177.0290  144.4350 C   0  0  0  0  0  0  0  0  0  0  0  0
  188.0470  177.9480  137.8980 O   0  0  0  0  0  0  0  0  0  0  0  0
  190.5290  177.7380  138.4250 C   0  0  2  0  0  0  0  0  0  0  0  0
  190.0990  177.4810  137.0100 C   0  0  0  0  0  2  0  0  0  0  0  0
  189.1410  177.0580  138.0880 C   0  0  2  0  0  0  0  0  0  0  0  0
  189.5640  177.3470  139.4990 C   0  0  0  0  0  2  0  0  0  0  0  0
  191.7240  176.9030  138.6600 N   0  0  0  0  0  2  0  0  0  0  0  0
  192.4070  176.3960  137.4650 C   0  0  0  0  0  2  0  0  0  0  0  0
  192.5650  174.8910  137.5720 C   0  0  0  0  0  2  0  0  0  0  0  0
  192.4780  174.3160  136.3030 O   0  0  0  0  0  0  0  0  0  0  0  0
  194.0320  173.7230  135.9440 P   0  0  1  0  0  0  0  0  0  0  0  0
  194.4870  171.2960  136.6510 O   0  0  0  0  0  0  0  0  0  0  0  0
  194.0610  171.9680  135.4750 C   0  0  1  0  0  3  0  0  0  0  0  0
  194.7990  174.5910  134.9670 O   0  0  0  0  0  0  0  0  0  0  0  0
  195.0390  172.0800  137.6430 N   0  0  0  0  0  0  0  0  0  0  0  0
  194.9440  173.3480  137.4280 C   0  0  0  0  0  0  0  0  0  0  0  0
  192.7100  170.0670  135.0280 O   0  0  0  0  0  1  0  0  0  0  0  0
  192.7040  171.4620  135.0430 C   0  0  0  0  0  2  0  0  0  0  0  0
  195.5320  174.2630  138.3120 O   0  0  0  0  0  0  0  0  0  0  0  0
  196.8730  174.2340  138.8120 C   0  0  2  0  0  3  0  0  0  0  0  0
  196.4850  175.8200  140.5370 O   0  0  0  0  0  0  0  0  0  0  0  0
  197.2280  175.4260  139.6560 C   0  0  0  0  0  3  0  0  0  0  0  0
  197.8950  173.8980  137.7290 C   0  0  0  0  0  2  0  0  0  0  0  0
  197.8770  175.4810  136.1930 C   0  0  0  0  0  1  0  0  0  0  0  0
  198.5770  175.0480  137.3210 O   0  0  0  0  0  0  0  0  0  0  0  0
  1 17  1  0  0  0  0
  2  6  2  0  0  0  0
  3 17  2  0  0  0  0
  4  8  1  0  0  0  0
  5  4  1  0  0  0  0
  6  5  1  0  0  0  0
  6 13  1  0  0  0  0
  7 10  1  0  0  0  0
  7  3  1  0  0  0  0
  8 16  1  0  0  0  0
  9  3  1  0  0  0  0
  9 14  1  0  0  0  0
 10  1  2  0  0  0  0
 11  5  1  0  0  0  0
 12 11  2  0  0  0  0
 13 16  1  0  0  0  0
 14 11  1  0  0  0  0
 15 14  2  0  0  0  0
 15  2  1  0  0  0  0
 16 21  1  1  0  0  0
 17 12  1  0  0  0  0
 18 19  1  0  0  0  0
 18 20  1  0  0  0  0
 19 20  1  0  0  0  0
 19 15  1  1  0  0  0
 21 22  1  0  0  0  0
 22 25  1  0  0  0  0
 23 28  1  0  0  0  0
 24 23  1  0  0  0  0
 24 26  1  0  0  0  0
 25 23  2  0  0  0  0
 26 27  1  0  0  0  0
 28 27  1  0  0  0  0
 29 38  1  6  0  0  0
 29 26  1  0  0  0  0
 31 34  1  0  0  0  0
 33 29  1  6  0  0  0
 33 32  1  0  0  0  0
 34 33  1  0  0  0  0
 34 30  1  0  0  0  0
 34 32  1  0  0  0  0
 35 38  2  0  0  0  0
 36 38  1  0  0  0  0
 37 36  1  0  0  0  0
 39  2  1  0  0  0  0
 40 44  1  1  0  0  0
 40 43  1  0  0  0  0
 41 42  1  0  0  0  0
 41 40  1  0  0  0  0
 42 39  1  6  0  0  0
 42 40  1  0  0  0  0
 42 43  1  0  0  0  0
 45 46  1  0  0  0  0
 45 44  1  0  0  0  0
 47 46  1  0  0  0  0
 48 51  2  6  0  0  0
 48 47  1  0  0  0  0
 48 53  1  0  0  0  0
 49 52  1  0  0  0  0
 50 55  1  1  0  0  0
 50 48  1  0  0  0  0
 50 49  1  0  0  0  0
 53 52  2  0  0  0  0
 53 56  1  0  0  0  0
 54 55  1  0  0  0  0
 56 57  1  0  0  0  0
 57 60  1  6  0  0  0
 57 59  1  0  0  0  0
 59 58  2  0  0  0  0
 61 62  1  0  0  0  0
 62 60  1  0  0  0  0
M  END
>  <MODEL>
6

>  <REMARK>
 VINA RESULT:      -4.1      3.942      8.105
  Name = 
  20 active torsions:
  status: ('A' for Active; 'I' for Inactive)
    1  A    between atoms: C_4  and  C_54
    2  A    between atoms: C_4  and  O_55
    3  A    between atoms: C_4  and  C_57
    4  A    between atoms: P_5  and  O_40
    5  A    between atoms: C_6  and  N_15
    6  A    between atoms: C_8  and  O_31
    7  A    between atoms: N_15  and  C_19
    8  A    between atoms: C_19  and  C_36
    9  A    between atoms: C_24  and  C_35
   10  A    between atoms: C_24  and  C_37
   11  A    between atoms: C_26  and  C_27
   12  A    between atoms: C_26  and  N_41
   13  A    between atoms: C_26  and  C_49
   14  A    between atoms: O_30  and  C_57
   15  A    between atoms: O_31  and  C_39
   16  A    between atoms: C_32  and  C_51
   17  A    between atoms: C_35  and  C_59
   18  A    between atoms: C_36  and  O_40
   19  A    between atoms: C_45  and  C_53
   20  A    between atoms: O_55  and  C_58
                            x       y       z     vdW  Elec       q    Type
                         _______ _______ _______ _____ _____    ______ ____

>  <TORSDO>
F 20

$$$$
=
 OpenBabel11042410103D

 62 71  0  0  1  0  0  0  0  0999 V2000
  195.4230  173.3620  136.0480 C   0  0  0  0  0  3  0  0  0  0  0  0
  190.7030  176.8960  138.5060 C   0  0  0  0  0  0  0  0  0  0  0  0
  194.8730  174.5770  137.9560 C   0  0  0  0  0  0  0  0  0  0  0  0
  190.5560  174.7960  135.3850 C   0  0  0  0  0  2  0  0  0  0  0  0
  191.0440  175.3920  136.6310 N   0  0  0  0  0  0  0  0  0  0  0  0
  190.2280  176.3470  137.3640 C   0  0  0  0  0  0  0  0  0  0  0  0
  196.5130  174.2980  138.1170 S   0  0  0  0  0  0  0  0  0  0  0  0
  189.6680  175.7650  134.6190 C   0  0  0  0  0  2  0  0  0  0  0  0
  194.1440  175.3220  138.7320 N   0  0  0  0  0  0  0  0  0  0  0  0
  196.6770  173.4310  136.6670 C   0  0  0  0  0  3  0  0  0  0  0  0
  192.1080  174.6820  137.3480 C   0  0  1  0  0  3  0  0  0  0  0  0
  193.1380  174.0700  136.4180 C   0  0  0  0  0  3  0  0  0  0  0  0
  188.9690  176.9160  136.7380 C   0  0  0  0  0  2  0  0  0  0  0  0
  192.7610  175.5590  138.4000 C   0  0  0  0  0  0  0  0  0  0  0  0
  192.0700  176.5420  139.0040 C   0  0  0  0  0  0  0  0  0  0  0  0
  188.4850  176.1790  135.4900 C   0  0  2  0  0  3  0  0  0  0  0  0
  194.4190  174.0000  136.7840 C   0  0  0  0  0  0  0  0  0  0  0  0
  192.8890  176.5960  141.3170 C   0  0  0  0  0  2  0  0  0  0  0  0
  192.7890  177.3650  140.0520 C   0  0  2  0  0  3  0  0  0  0  0  0
  191.9830  177.6640  141.1690 O   0  0  0  0  0  0  0  0  0  0  0  0
  187.5560  175.0180  135.8770 C   0  0  0  0  0  2  0  0  0  0  0  0
  186.0820  175.2820  135.5710 C   0  0  0  0  0  2  0  0  0  0  0  0
  184.2750  174.8550  137.2110 C   0  0  0  0  0  0  0  0  0  0  0  0
  184.1040  176.2620  137.5920 C   0  0  0  0  0  2  0  0  0  0  0  0
  185.1640  174.3750  136.3340 C   0  0  0  0  0  3  0  0  0  0  0  0
  183.2220  176.2120  138.7520 N   0  0  0  0  0  0  0  0  0  0  0  0
  182.4720  175.0130  138.6630 N   0  0  0  0  0  2  0  0  0  0  0  0
  183.3150  174.0430  137.9700 C   0  0  0  0  0  2  0  0  0  0  0  0
  182.3240  177.3750  138.7370 C   0  0  1  0  0  3  0  0  0  0  0  0
  178.9310  178.2060  137.1520 F   0  0  0  0  0  0  0  0  0  0  0  0
  181.0330  179.3070  136.9700 F   0  0  0  0  0  0  0  0  0  0  0  0
  180.8650  177.0170  136.8060 O   0  0  0  0  0  0  0  0  0  0  0  0
  180.8810  177.1380  138.2150 C   0  0  2  0  0  3  0  0  0  0  0  0
  180.3030  178.1930  137.3400 C   0  0  0  0  0  0  0  0  0  0  0  0
  181.9690  179.4340  139.9310 O   0  0  0  0  0  0  0  0  0  0  0  0
  183.5270  177.9660  140.8690 N   0  0  0  0  0  2  0  0  0  0  0  0
  183.8500  178.8450  141.9830 C   0  0  0  0  0  1  0  0  0  0  0  0
  182.6050  178.3500  139.8440 C   0  0  0  0  0  0  0  0  0  0  0  0
  189.9600  177.8690  139.1930 O   0  0  0  0  0  0  0  0  0  0  0  0
  188.6440  177.8390  141.3720 C   0  0  2  0  0  0  0  0  0  0  0  0
  189.0520  176.5160  140.7940 C   0  0  0  0  0  2  0  0  0  0  0  0
  188.7070  177.5990  139.8100 C   0  0  2  0  0  0  0  0  0  0  0  0
  188.3300  178.9280  140.3960 C   0  0  0  0  0  2  0  0  0  0  0  0
  187.3840  177.6070  142.1070 N   0  0  0  0  0  2  0  0  0  0  0  0
  187.5170  177.1440  143.4930 C   0  0  0  0  0  2  0  0  0  0  0  0
  188.8100  177.6760  144.0830 C   0  0  0  0  0  2  0  0  0  0  0  0
  189.7270  176.6350  144.2280 O   0  0  0  0  0  0  0  0  0  0  0  0
  190.9230  177.2020  145.2990 P   0  0  1  0  0  0  0  0  0  0  0  0
  191.4290  175.6830  147.3060 O   0  0  0  0  0  0  0  0  0  0  0  0
  191.9610  175.8910  146.0060 C   0  0  1  0  0  3  0  0  0  0  0  0
  191.7450  178.3430  144.7350 O   0  0  0  0  0  0  0  0  0  0  0  0
  190.5720  176.6530  147.7830 N   0  0  0  0  0  0  0  0  0  0  0  0
  190.2430  177.5430  146.9100 C   0  0  0  0  0  0  0  0  0  0  0  0
  192.4520  174.8250  143.9410 O   0  0  0  0  0  1  0  0  0  0  0  0
  191.9030  174.6100  145.2050 C   0  0  0  0  0  2  0  0  0  0  0  0
  189.4430  178.6340  147.2760 O   0  0  0  0  0  0  0  0  0  0  0  0
  188.1550  178.5840  147.8970 C   0  0  2  0  0  3  0  0  0  0  0  0
  187.1980  178.0310  150.0000 O   0  0  0  0  0  0  0  0  0  0  0  0
  188.1680  177.9640  149.2660 C   0  0  0  0  0  3  0  0  0  0  0  0
  187.0750  178.0390  146.9660 C   0  0  0  0  0  2  0  0  0  0  0  0
  185.4700  178.5830  145.5550 C   0  0  0  0  0  1  0  0  0  0  0  0
  186.0920  179.0050  146.7320 O   0  0  0  0  0  0  0  0  0  0  0  0
  1 10  2  0  0  0  0
  1 17  1  0  0  0  0
  2 15  1  0  0  0  0
  2 39  1  0  0  0  0
  3  7  1  0  0  0  0
  3  9  2  0  0  0  0
  4  5  1  0  0  0  0
  5 11  1  0  0  0  0
  5  6  1  0  0  0  0
  6  2  2  0  0  0  0
  8  4  1  0  0  0  0
  8 16  1  0  0  0  0
 10  7  1  0  0  0  0
 11 12  1  6  0  0  0
 11 14  1  0  0  0  0
 12 17  2  0  0  0  0
 13  6  1  0  0  0  0
 14  9  1  0  0  0  0
 14 15  2  0  0  0  0
 16 21  1  1  0  0  0
 16 13  1  0  0  0  0
 17  3  1  0  0  0  0
 19 15  1  6  0  0  0
 19 20  1  0  0  0  0
 19 18  1  0  0  0  0
 20 18  1  0  0  0  0
 22 21  1  0  0  0  0
 22 25  1  0  0  0  0
 23 24  1  0  0  0  0
 23 28  1  0  0  0  0
 24 26  1  0  0  0  0
 25 23  2  0  0  0  0
 27 26  1  0  0  0  0
 28 27  1  0  0  0  0
 29 26  1  0  0  0  0
 29 38  1  1  0  0  0
 30 34  1  0  0  0  0
 31 34  1  0  0  0  0
 32 34  1  0  0  0  0
 32 33  1  0  0  0  0
 33 29  1  6  0  0  0
 34 33  1  0  0  0  0
 36 37  1  0  0  0  0
 38 35  2  0  0  0  0
 38 36  1  0  0  0  0
 40 44  1  1  0  0  0
 41 40  1  0  0  0  0
 42 39  1  1  0  0  0
 42 43  1  0  0  0  0
 42 41  1  0  0  0  0
 42 40  1  0  0  0  0
 43 40  1  0  0  0  0
 44 45  1  0  0  0  0
 45 46  1  0  0  0  0
 46 47  1  0  0  0  0
 47 48  1  0  0  0  0
 48 51  2  6  0  0  0
 48 50  1  0  0  0  0
 48 53  1  0  0  0  0
 49 52  1  0  0  0  0
 50 55  1  6  0  0  0
 50 49  1  0  0  0  0
 53 56  1  0  0  0  0
 53 52  2  0  0  0  0
 54 55  1  0  0  0  0
 56 57  1  0  0  0  0
 57 60  1  6  0  0  0
 57 59  1  0  0  0  0
 59 58  2  0  0  0  0
 61 62  1  0  0  0  0
 62 60  1  0  0  0  0
M  END
>  <MODEL>
7

>  <REMARK>
 VINA RESULT:      -4.0      3.320      8.513
  Name = 
  20 active torsions:
  status: ('A' for Active; 'I' for Inactive)
    1  A    between atoms: C_4  and  C_54
    2  A    between atoms: C_4  and  O_55
    3  A    between atoms: C_4  and  C_57
    4  A    between atoms: P_5  and  O_40
    5  A    between atoms: C_6  and  N_15
    6  A    between atoms: C_8  and  O_31
    7  A    between atoms: N_15  and  C_19
    8  A    between atoms: C_19  and  C_36
    9  A    between atoms: C_24  and  C_35
   10  A    between atoms: C_24  and  C_37
   11  A    between atoms: C_26  and  C_27
   12  A    between atoms: C_26  and  N_41
   13  A    between atoms: C_26  and  C_49
   14  A    between atoms: O_30  and  C_57
   15  A    between atoms: O_31  and  C_39
   16  A    between atoms: C_32  and  C_51
   17  A    between atoms: C_35  and  C_59
   18  A    between atoms: C_36  and  O_40
   19  A    between atoms: C_45  and  C_53
   20  A    between atoms: O_55  and  C_58
                            x       y       z     vdW  Elec       q    Type
                         _______ _______ _______ _____ _____    ______ ____

>  <TORSDO>
F 20

$$$$
=
 OpenBabel11042410103D

 62 71  0  0  1  0  0  0  0  0999 V2000
  195.7080  172.3730  135.2600 C   0  0  0  0  0  3  0  0  0  0  0  0
  191.2440  176.1770  137.7930 C   0  0  0  0  0  0  0  0  0  0  0  0
  195.4390  174.0210  136.8820 C   0  0  0  0  0  0  0  0  0  0  0  0
  190.6810  173.3160  135.4110 C   0  0  0  0  0  2  0  0  0  0  0  0
  191.3500  174.2480  136.3230 N   0  0  0  0  0  0  0  0  0  0  0  0
  190.6050  175.3180  136.9650 C   0  0  0  0  0  0  0  0  0  0  0  0
  197.0960  173.8830  136.7220 S   0  0  0  0  0  0  0  0  0  0  0  0
  189.5490  173.9970  134.6570 C   0  0  0  0  0  2  0  0  0  0  0  0
  194.8100  174.9060  137.5960 N   0  0  0  0  0  0  0  0  0  0  0  0
  197.0490  172.6710  135.5340 C   0  0  0  0  0  3  0  0  0  0  0  0
  192.6140  173.8130  136.9260 C   0  0  1  0  0  3  0  0  0  0  0  0
  193.4870  173.0310  135.9630 C   0  0  0  0  0  3  0  0  0  0  0  0
  189.1860  175.6320  136.5270 C   0  0  0  0  0  2  0  0  0  0  0  0
  193.3700  174.9720  137.5470 C   0  0  0  0  0  0  0  0  0  0  0  0
  192.7160  176.0420  138.0320 C   0  0  0  0  0  0  0  0  0  0  0  0
  188.5370  174.5650  135.6480 C   0  0  2  0  0  3  0  0  0  0  0  0
  194.8160  173.1290  136.0270 C   0  0  0  0  0  0  0  0  0  0  0  0
  194.0920  176.7070  139.9530 C   0  0  0  0  0  2  0  0  0  0  0  0
  193.5430  177.1510  138.6470 C   0  0  2  0  0  3  0  0  0  0  0  0
  193.0190  177.6160  139.8710 O   0  0  0  0  0  0  0  0  0  0  0  0
  187.8460  173.5000  136.5150 C   0  0  0  0  0  2  0  0  0  0  0  0
  186.4360  173.8890  136.9580 C   0  0  0  0  0  2  0  0  0  0  0  0
  184.7220  175.6240  136.5280 C   0  0  0  0  0  0  0  0  0  0  0  0
  183.7320  175.0710  137.4610 C   0  0  0  0  0  2  0  0  0  0  0  0
  185.9260  175.1110  136.2560 C   0  0  0  0  0  3  0  0  0  0  0  0
  182.5190  175.8300  137.1850 N   0  0  0  0  0  0  0  0  0  0  0  0
  182.9130  177.0740  136.6330 N   0  0  0  0  0  2  0  0  0  0  0  0
  184.1630  176.8360  135.9160 C   0  0  0  0  0  2  0  0  0  0  0  0
  181.7760  176.0410  138.4340 C   0  0  1  0  0  3  0  0  0  0  0  0
  179.4330  173.7330  140.4100 F   0  0  0  0  0  0  0  0  0  0  0  0
  178.9460  175.5760  138.9850 F   0  0  0  0  0  0  0  0  0  0  0  0
  180.4780  173.9680  138.3790 O   0  0  0  0  0  0  0  0  0  0  0  0
  181.3100  174.7690  139.1950 C   0  0  2  0  0  3  0  0  0  0  0  0
  179.8500  174.6370  139.4470 C   0  0  0  0  0  0  0  0  0  0  0  0
  183.3540  177.3820  139.6600 O   0  0  0  0  0  0  0  0  0  0  0  0
  181.2980  178.3920  139.1980 N   0  0  0  0  0  2  0  0  0  0  0  0
  181.6290  179.6350  139.8790 C   0  0  0  0  0  1  0  0  0  0  0  0
  182.1980  177.2800  139.1690 C   0  0  0  0  0  0  0  0  0  0  0  0
  190.5580  177.2560  138.3710 O   0  0  0  0  0  0  0  0  0  0  0  0
  188.7150  178.4270  139.6800 C   0  0  2  0  0  0  0  0  0  0  0  0
  189.8670  177.8680  140.4610 C   0  0  0  0  0  2  0  0  0  0  0  0
  189.4450  177.0940  139.2430 C   0  0  2  0  0  0  0  0  0  0  0  0
  188.3120  177.6770  138.4500 C   0  0  0  0  0  2  0  0  0  0  0  0
  187.5360  178.3690  140.5680 N   0  0  0  0  0  2  0  0  0  0  0  0
  187.7140  178.9120  141.9190 C   0  0  0  0  0  2  0  0  0  0  0  0
  188.6800  178.0350  142.6930 C   0  0  0  0  0  2  0  0  0  0  0  0
  188.6580  178.3860  144.0440 O   0  0  0  0  0  0  0  0  0  0  0  0
  187.9430  177.0760  144.8620 P   0  0  1  0  0  0  0  0  0  0  0  0
  186.7400  177.6570  147.0550 O   0  0  0  0  0  0  0  0  0  0  0  0
  186.3810  177.4890  145.6910 C   0  0  1  0  0  3  0  0  0  0  0  0
  187.8290  175.8250  144.0140 O   0  0  0  0  0  0  0  0  0  0  0  0
  187.9810  177.1840  147.4280 N   0  0  0  0  0  0  0  0  0  0  0  0
  188.7160  176.7960  146.4420 C   0  0  0  0  0  0  0  0  0  0  0  0
  184.4980  178.9360  145.7270 O   0  0  0  0  0  1  0  0  0  0  0  0
  185.7560  178.7560  145.1540 C   0  0  0  0  0  2  0  0  0  0  0  0
  189.9710  176.2170  146.6780 O   0  0  0  0  0  0  0  0  0  0  0  0
  191.2460  176.7500  146.3080 C   0  0  2  0  0  3  0  0  0  0  0  0
  191.5920  176.5020  143.9710 O   0  0  0  0  0  0  0  0  0  0  0  0
  191.3040  177.2470  144.8910 C   0  0  0  0  0  3  0  0  0  0  0  0
  192.4020  175.8350  146.7050 C   0  0  0  0  0  2  0  0  0  0  0  0
  192.4990  175.2590  148.8320 C   0  0  0  0  0  1  0  0  0  0  0  0
  191.9690  174.8560  147.6050 O   0  0  0  0  0  0  0  0  0  0  0  0
  1 10  2  0  0  0  0
  1 17  1  0  0  0  0
  2 15  1  0  0  0  0
  2 39  1  0  0  0  0
  3  9  2  0  0  0  0
  4  5  1  0  0  0  0
  5 11  1  0  0  0  0
  5  6  1  0  0  0  0
  6  2  2  0  0  0  0
  7  3  1  0  0  0  0
  8  4  1  0  0  0  0
  8 16  1  0  0  0  0
 10  7  1  0  0  0  0
 11 12  1  6  0  0  0
 11 14  1  0  0  0  0
 12 17  2  0  0  0  0
 13  6  1  0  0  0  0
 14  9  1  0  0  0  0
 14 15  2  0  0  0  0
 16 21  1  1  0  0  0
 16 13  1  0  0  0  0
 17  3  1  0  0  0  0
 19 15  1  1  0  0  0
 19 20  1  0  0  0  0
 19 18  1  0  0  0  0
 20 18  1  0  0  0  0
 21 22  1  0  0  0  0
 23 24  1  0  0  0  0
 25 23  2  0  0  0  0
 25 22  1  0  0  0  0
 26 24  1  0  0  0  0
 26 29  1  0  0  0  0
 27 26  1  0  0  0  0
 28 23  1  0  0  0  0
 28 27  1  0  0  0  0
 29 38  1  1  0  0  0
 31 34  1  0  0  0  0
 32 33  1  0  0  0  0
 32 34  1  0  0  0  0
 33 29  1  6  0  0  0
 33 34  1  0  0  0  0
 34 30  1  0  0  0  0
 36 37  1  0  0  0  0
 38 36  1  0  0  0  0
 38 35  2  0  0  0  0
 40 41  1  0  0  0  0
 40 44  1  1  0  0  0
 42 39  1  6  0  0  0
 42 40  1  0  0  0  0
 42 41  1  0  0  0  0
 43 42  1  0  0  0  0
 43 40  1  0  0  0  0
 44 45  1  0  0  0  0
 45 46  1  0  0  0  0
 46 47  1  0  0  0  0
 47 48  1  0  0  0  0
 48 51  2  6  0  0  0
 48 50  1  0  0  0  0
 48 53  1  0  0  0  0
 49 52  1  0  0  0  0
 50 55  1  6  0  0  0
 50 49  1  0  0  0  0
 53 56  1  0  0  0  0
 53 52  2  0  0  0  0
 55 54  1  0  0  0  0
 57 59  1  6  0  0  0
 57 56  1  0  0  0  0
 57 60  1  0  0  0  0
 58 59  2  0  0  0  0
 60 62  1  0  0  0  0
 62 61  1  0  0  0  0
M  END
>  <MODEL>
8

>  <REMARK>
 VINA RESULT:      -4.0      3.303      8.395
  Name = 
  20 active torsions:
  status: ('A' for Active; 'I' for Inactive)
    1  A    between atoms: C_4  and  C_54
    2  A    between atoms: C_4  and  O_55
    3  A    between atoms: C_4  and  C_57
    4  A    between atoms: P_5  and  O_40
    5  A    between atoms: C_6  and  N_15
    6  A    between atoms: C_8  and  O_31
    7  A    between atoms: N_15  and  C_19
    8  A    between atoms: C_19  and  C_36
    9  A    between atoms: C_24  and  C_35
   10  A    between atoms: C_24  and  C_37
   11  A    between atoms: C_26  and  C_27
   12  A    between atoms: C_26  and  N_41
   13  A    between atoms: C_26  and  C_49
   14  A    between atoms: O_30  and  C_57
   15  A    between atoms: O_31  and  C_39
   16  A    between atoms: C_32  and  C_51
   17  A    between atoms: C_35  and  C_59
   18  A    between atoms: C_36  and  O_40
   19  A    between atoms: C_45  and  C_53
   20  A    between atoms: O_55  and  C_58
                            x       y       z     vdW  Elec       q    Type
                         _______ _______ _______ _____ _____    ______ ____

>  <TORSDO>
F 20

$$$$
=
 OpenBabel11042410103D

 62 71  0  0  1  0  0  0  0  0999 V2000
  179.7180  181.9720  136.6940 C   0  0  0  0  0  3  0  0  0  0  0  0
  183.5280  176.8820  137.3200 C   0  0  0  0  0  0  0  0  0  0  0  0
  180.0820  179.8580  135.7890 C   0  0  0  0  0  0  0  0  0  0  0  0
  183.3150  179.8380  139.6420 C   0  0  0  0  0  2  0  0  0  0  0  0
  183.0180  178.9170  138.5420 N   0  0  0  0  0  0  0  0  0  0  0  0
  183.8110  177.7130  138.3500 C   0  0  0  0  0  0  0  0  0  0  0  0
  179.0570  180.5920  134.6930 S   0  0  0  0  0  0  0  0  0  0  0  0
  184.8040  179.8640  139.9540 C   0  0  0  0  0  2  0  0  0  0  0  0
  180.6530  178.7000  135.6450 N   0  0  0  0  0  2  0  0  0  0  0  0
  178.9380  182.0610  135.5350 C   0  0  0  0  0  3  0  0  0  0  0  0
  181.6730  178.9720  137.9590 C   0  0  0  0  0  0  0  0  0  0  0  0
  181.1370  180.3870  137.8480 C   0  0  0  0  0  3  0  0  0  0  0  0
  185.0940  177.5100  139.1340 C   0  0  0  0  0  2  0  0  0  0  0  0
  181.6050  178.2460  136.6290 C   0  0  0  0  0  0  0  0  0  0  0  0
  182.4200  177.2090  136.3670 C   0  0  0  0  0  0  0  0  0  0  0  0
  185.2800  178.4600  140.3150 C   0  0  2  0  0  3  0  0  0  0  0  0
  180.3470  180.7300  136.8300 C   0  0  0  0  0  0  0  0  0  0  0  0
  181.2570  175.4590  135.0990 C   0  0  0  0  0  2  0  0  0  0  0  0
  182.2820  176.5300  135.0210 C   0  0  2  0  0  3  0  0  0  0  0  0
  182.6330  175.1640  135.0530 O   0  0  0  0  0  0  0  0  0  0  0  0
  184.6240  177.8830  141.5790 C   0  0  0  0  0  2  0  0  0  0  0  0
  185.5550  177.8440  142.7910 C   0  0  0  0  0  2  0  0  0  0  0  0
  187.9630  177.5940  143.3110 C   0  0  0  0  0  0  0  0  0  0  0  0
  187.8540  178.0750  144.6940 C   0  0  0  0  0  2  0  0  0  0  0  0
  186.9670  177.5030  142.4240 C   0  0  0  0  0  3  0  0  0  0  0  0
  189.2360  178.2340  145.1260 N   0  0  0  0  0  0  0  0  0  0  0  0
  190.0300  177.3630  144.3410 N   0  0  0  0  0  2  0  0  0  0  0  0
  189.3640  177.2440  143.0460 C   0  0  0  0  0  2  0  0  0  0  0  0
  189.3510  177.8830  146.5480 C   0  0  1  0  0  3  0  0  0  0  0  0
  187.0250  177.1220  149.5030 F   0  0  0  0  0  0  0  0  0  0  0  0
  189.1210  178.2490  149.4360 F   0  0  0  0  0  0  0  0  0  0  0  0
  187.4740  178.6940  147.8910 O   0  0  0  0  0  0  0  0  0  0  0  0
  188.0310  177.5410  147.2930 C   0  0  2  0  0  3  0  0  0  0  0  0
  188.0230  177.7390  148.7670 C   0  0  0  0  0  0  0  0  0  0  0  0
  191.6820  177.8440  147.1430 O   0  0  0  0  0  0  0  0  0  0  0  0
  190.6260  175.7630  147.0150 N   0  0  0  0  0  2  0  0  0  0  0  0
  191.8260  175.0090  147.3450 C   0  0  0  0  0  1  0  0  0  0  0  0
  190.6390  177.1880  146.8820 C   0  0  0  0  0  0  0  0  0  0  0  0
  184.3220  175.7510  137.0770 O   0  0  0  0  0  0  0  0  0  0  0  0
  186.3450  175.0230  135.7130 C   0  0  2  0  0  0  0  0  0  0  0  0
  186.1330  174.3590  137.0420 C   0  0  0  0  0  2  0  0  0  0  0  0
  185.7380  175.8060  136.9460 C   0  0  2  0  0  0  0  0  0  0  0  0
  185.9240  176.4550  135.6060 C   0  0  0  0  0  2  0  0  0  0  0  0
  187.8020  175.0330  135.4750 N   0  0  0  0  0  2  0  0  0  0  0  0
  188.3830  176.3130  135.0560 C   0  0  0  0  0  2  0  0  0  0  0  0
  189.4080  176.7630  136.0800 C   0  0  0  0  0  2  0  0  0  0  0  0
  190.6270  176.1270  135.8390 O   0  0  0  0  0  0  0  0  0  0  0  0
  191.1140  175.4570  137.3270 P   0  0  1  0  0  0  0  0  0  0  0  0
  192.2280  177.0860  138.9690 O   0  0  0  0  0  0  0  0  0  0  0  0
  190.9200  176.5810  138.7400 C   0  0  1  0  0  3  0  0  0  0  0  0
  190.5180  174.0900  137.5950 O   0  0  0  0  0  0  0  0  0  0  0  0
  193.2640  176.4160  138.3530 N   0  0  0  0  0  0  0  0  0  0  0  0
  192.8840  175.5120  137.5160 C   0  0  0  0  0  0  0  0  0  0  0  0
  189.3340  178.1050  139.6330 O   0  0  0  0  0  1  0  0  0  0  0  0
  189.9630  177.7150  138.4520 C   0  0  0  0  0  2  0  0  0  0  0  0
  193.8280  174.6970  136.8760 O   0  0  0  0  0  0  0  0  0  0  0  0
  195.2480  174.8700  136.8670 C   0  0  2  0  0  3  0  0  0  0  0  0
  195.7980  176.8780  135.7230 O   0  0  0  0  0  0  0  0  0  0  0  0
  195.7520  175.6610  135.6930 C   0  0  0  0  0  3  0  0  0  0  0  0
  196.0000  173.5660  137.1220 C   0  0  0  0  0  2  0  0  0  0  0  0
  195.8610  171.5680  136.2010 C   0  0  0  0  0  1  0  0  0  0  0  0
  195.1440  172.4700  136.9900 O   0  0  0  0  0  0  0  0  0  0  0  0
  1 17  1  0  0  0  0
  2  6  2  0  0  0  0
  3 17  2  0  0  0  0
  4  8  1  0  0  0  0
  5  4  1  0  0  0  0
  6  5  1  0  0  0  0
  6 13  1  0  0  0  0
  7 10  1  0  0  0  0
  7  3  1  0  0  0  0
  8 16  1  0  0  0  0
  9  3  1  0  0  0  0
  9 14  1  0  0  0  0
 10  1  2  0  0  0  0
 11  5  1  0  0  0  0
 12 11  2  0  0  0  0
 13 16  1  0  0  0  0
 14 11  1  0  0  0  0
 15 14  2  0  0  0  0
 15  2  1  0  0  0  0
 16 21  1  1  0  0  0
 17 12  1  0  0  0  0
 19 20  1  0  0  0  0
 19 18  1  0  0  0  0
 19 15  1  1  0  0  0
 20 18  1  0  0  0  0
 21 22  1  0  0  0  0
 23 24  1  0  0  0  0
 24 26  1  0  0  0  0
 25 22  1  0  0  0  0
 25 23  2  0  0  0  0
 26 29  1  0  0  0  0
 27 26  1  0  0  0  0
 28 23  1  0  0  0  0
 28 27  1  0  0  0  0
 29 38  1  6  0  0  0
 32 34  1  0  0  0  0
 33 29  1  6  0  0  0
 33 32  1  0  0  0  0
 33 34  1  0  0  0  0
 34 31  1  0  0  0  0
 34 30  1  0  0  0  0
 36 37  1  0  0  0  0
 38 36  1  0  0  0  0
 38 35  2  0  0  0  0
 39  2  1  0  0  0  0
 40 44  1  1  0  0  0
 40 42  1  0  0  0  0
 40 41  1  0  0  0  0
 42 41  1  0  0  0  0
 42 39  1  6  0  0  0
 43 40  1  0  0  0  0
 43 42  1  0  0  0  0
 45 44  1  0  0  0  0
 45 46  1  0  0  0  0
 47 46  1  0  0  0  0
 47 48  1  0  0  0  0
 48 53  1  0  0  0  0
 48 51  2  1  0  0  0
 48 50  1  0  0  0  0
 50 55  1  6  0  0  0
 50 49  1  0  0  0  0
 52 49  1  0  0  0  0
 53 52  2  0  0  0  0
 55 54  1  0  0  0  0
 56 53  1  0  0  0  0
 57 59  1  6  0  0  0
 57 56  1  0  0  0  0
 57 60  1  0  0  0  0
 59 58  2  0  0  0  0
 61 62  1  0  0  0  0
 62 60  1  0  0  0  0
M  END
>  <MODEL>
9

>  <REMARK>
 VINA RESULT:      -4.0      3.983      9.163
  Name = 
  20 active torsions:
  status: ('A' for Active; 'I' for Inactive)
    1  A    between atoms: C_4  and  C_54
    2  A    between atoms: C_4  and  O_55
    3  A    between atoms: C_4  and  C_57
    4  A    between atoms: P_5  and  O_40
    5  A    between atoms: C_6  and  N_15
    6  A    between atoms: C_8  and  O_31
    7  A    between atoms: N_15  and  C_19
    8  A    between atoms: C_19  and  C_36
    9  A    between atoms: C_24  and  C_35
   10  A    between atoms: C_24  and  C_37
   11  A    between atoms: C_26  and  C_27
   12  A    between atoms: C_26  and  N_41
   13  A    between atoms: C_26  and  C_49
   14  A    between atoms: O_30  and  C_57
   15  A    between atoms: O_31  and  C_39
   16  A    between atoms: C_32  and  C_51
   17  A    between atoms: C_35  and  C_59
   18  A    between atoms: C_36  and  O_40
   19  A    between atoms: C_45  and  C_53
   20  A    between atoms: O_55  and  C_58
                            x       y       z     vdW  Elec       q    Type
                         _______ _______ _______ _____ _____    ______ ____

>  <TORSDO>
F 20

$$$$
