=
 OpenBabel11042412023D

 28 32  0  0  1  0  0  0  0  0999 V2000
  187.0510  178.1570  139.1200 C   0  0  0  0  0  2  0  0  0  0  0  0
  188.2650  178.4160  139.9570 C   0  0  1  0  0  3  0  0  0  0  0  0
  189.7290  177.0370  140.9710 C   0  0  2  0  0  3  0  0  0  0  0  0
  191.3430  176.4750  139.1470 C   0  0  0  0  0  2  0  0  0  0  0  0
  188.4730  177.6890  141.0560 C   0  0  1  0  0  3  0  0  0  0  0  0
  189.4260  177.4030  143.2290 C   0  0  2  0  0  3  0  0  0  0  0  0
  190.3470  176.8670  142.2250 N   0  0  0  0  0  2  0  0  0  0  0  0
  188.8300  177.3400  137.9990 C   0  0  0  0  0  0  0  0  0  0  0  0
  190.7440  175.9050  137.8700 C   0  0  0  0  0  3  0  0  0  0  0  0
  188.2570  178.1010  142.4750 C   0  0  2  0  0  3  0  0  0  0  0  0
  189.4290  178.1980  139.0430 C   0  0  2  0  0  3  0  0  0  0  0  0
  187.5410  177.2950  138.0490 N   0  0  0  0  0  0  0  0  0  0  0  0
  189.6030  176.3070  137.3700 N   0  0  0  0  0  0  0  0  0  0  0  0
  190.3400  177.3450  139.8430 C   0  0  1  0  0  3  0  0  0  0  0  0
  185.1270  178.9010  143.8680 C   0  0  0  0  0  0  0  0  0  0  0  0
  186.8920  177.5110  144.5290 C   0  0  0  0  0  2  0  0  0  0  0  0
  185.3890  178.4830  146.3610 C   0  0  0  0  0  1  0  0  0  0  0  0
  185.7740  178.5730  142.5850 C   0  0  0  0  0  2  0  0  0  0  0  0
  186.9020  177.6070  142.9890 C   0  0  1  0  0  3  0  0  0  0  0  0
  184.1260  179.6570  143.9770 O   0  0  0  0  0  0  0  0  0  0  0  0
  185.7540  178.2860  144.9690 N   0  0  0  0  0  0  0  0  0  0  0  0
  190.4510  178.1530  145.3720 C   0  0  0  0  0  3  0  0  0  0  0  0
  190.1460  178.3940  144.0920 C   0  0  0  0  0  3  0  0  0  0  0  0
  190.1070  176.8750  146.0730 C   0  0  0  0  0  2  0  0  0  0  0  0
  192.0590  175.8460  147.2730 C   0  0  0  0  0  0  0  0  0  0  0  0
  192.4030  175.1160  146.1410 O   0  0  0  0  0  0  0  0  0  0  0  0
  190.9320  176.7190  147.2600 N   0  0  0  0  0  2  0  0  0  0  0  0
  192.7510  175.7380  148.3190 O   0  0  0  0  0  1  0  0  0  0  0  0
  2  1  1  6  0  0  0
  2  5  1  0  0  0  0
  3  5  1  0  0  0  0
  3  7  1  1  0  0  0
  4 14  1  0  0  0  0
  5 10  1  0  0  0  0
  6 23  1  0  0  0  0
  7  6  1  0  0  0  0
  8 12  2  0  0  0  0
  8 11  1  0  0  0  0
  9  4  1  0  0  0  0
 10 19  1  0  0  0  0
 10  6  1  0  0  0  0
 11 14  1  0  0  0  0
 11  2  1  0  0  0  0
 12  1  1  0  0  0  0
 13  9  2  0  0  0  0
 13  8  1  0  0  0  0
 14  3  1  0  0  0  0
 15 20  2  0  0  0  0
 15 21  1  0  0  0  0
 16 21  1  0  0  0  0
 18 19  1  0  0  0  0
 18 15  1  0  0  0  0
 19 16  1  0  0  0  0
 21 17  1  0  0  0  0
 22 24  1  0  0  0  0
 23 22  2  0  0  0  0
 24 27  1  0  0  0  0
 25 28  1  0  0  0  0
 26 25  2  0  0  0  0
 27 25  1  0  0  0  0
M  END
>  <MODEL>
1

>  <REMARK>
 VINA RESULT:      -8.8      0.000      0.000
  Name = 
  4 active torsions:
  status: ('A' for Active; 'I' for Inactive)
    1  A    between atoms: C_9  and  C_25
    2  A    between atoms: N_12  and  C_25
    3  A    between atoms: C_13  and  C_26
    4  A    between atoms: C_17  and  C_20
                            x       y       z     vdW  Elec       q    Type
                         _______ _______ _______ _____ _____    ______ ____

>  <TORSDO>
F 4

$$$$
=
 OpenBabel11042412023D

 28 32  0  0  1  0  0  0  0  0999 V2000
  185.3150  178.3960  145.8730 C   0  0  0  0  0  2  0  0  0  0  0  0
  186.4050  177.5080  145.3570 C   0  0  1  0  0  3  0  0  0  0  0  0
  188.5920  177.8690  144.9600 C   0  0  2  0  0  3  0  0  0  0  0  0
  189.6440  177.5320  147.2010 C   0  0  0  0  0  2  0  0  0  0  0  0
  187.2700  177.9830  144.4610 C   0  0  1  0  0  3  0  0  0  0  0  0
  188.8230  177.6610  142.6730 C   0  0  2  0  0  3  0  0  0  0  0  0
  189.5450  177.6510  143.9460 N   0  0  0  0  0  2  0  0  0  0  0  0
  186.8380  178.1680  147.5220 C   0  0  0  0  0  0  0  0  0  0  0  0
  189.0800  178.3660  148.3420 C   0  0  0  0  0  3  0  0  0  0  0  0
  187.3010  177.7130  142.9920 C   0  0  2  0  0  3  0  0  0  0  0  0
  187.1840  177.0960  146.5650 C   0  0  2  0  0  3  0  0  0  0  0  0
  185.8390  178.8920  147.1420 N   0  0  0  0  0  0  0  0  0  0  0  0
  187.8080  178.6470  148.4660 N   0  0  0  0  0  0  0  0  0  0  0  0
  188.5930  177.3120  146.1560 C   0  0  1  0  0  3  0  0  0  0  0  0
  184.5190  178.7770  141.1180 C   0  0  0  0  0  0  0  0  0  0  0  0
  186.8200  178.6690  140.6930 C   0  0  0  0  0  2  0  0  0  0  0  0
  185.2290  178.5340  138.6900 C   0  0  0  0  0  1  0  0  0  0  0  0
  185.0990  178.8460  142.4710 C   0  0  0  0  0  2  0  0  0  0  0  0
  186.6160  178.8400  142.2120 C   0  0  1  0  0  3  0  0  0  0  0  0
  183.2830  178.7850  140.8820 O   0  0  0  0  0  0  0  0  0  0  0  0
  185.4980  178.6910  140.1090 N   0  0  0  0  0  0  0  0  0  0  0  0
  189.9770  176.4080  140.8550 C   0  0  0  0  0  3  0  0  0  0  0  0
  189.1450  176.4180  141.9020 C   0  0  0  0  0  3  0  0  0  0  0  0
  190.6700  177.6350  140.3450 C   0  0  0  0  0  2  0  0  0  0  0  0
  193.0440  177.1010  139.7200 C   0  0  0  0  0  0  0  0  0  0  0  0
  192.6430  176.6770  138.4580 O   0  0  0  0  0  0  0  0  0  0  0  0
  192.0870  177.5760  140.6650 N   0  0  0  0  0  2  0  0  0  0  0  0
  194.2620  177.0670  140.0320 O   0  0  0  0  0  1  0  0  0  0  0  0
  1 12  1  0  0  0  0
  2  1  1  1  0  0  0
  2 11  1  0  0  0  0
  3  7  1  6  0  0  0
  3 14  1  0  0  0  0
  4  9  1  0  0  0  0
  5  3  1  0  0  0  0
  5  2  1  0  0  0  0
  6 10  1  0  0  0  0
  6  7  1  0  0  0  0
  8 13  1  0  0  0  0
  9 13  2  0  0  0  0
 10  5  1  0  0  0  0
 11  8  1  0  0  0  0
 12  8  2  0  0  0  0
 14 11  1  0  0  0  0
 14  4  1  0  0  0  0
 15 18  1  0  0  0  0
 16 19  1  0  0  0  0
 17 21  1  0  0  0  0
 19 18  1  0  0  0  0
 19 10  1  0  0  0  0
 20 15  2  0  0  0  0
 21 16  1  0  0  0  0
 21 15  1  0  0  0  0
 22 23  2  0  0  0  0
 23  6  1  0  0  0  0
 24 27  1  0  0  0  0
 24 22  1  0  0  0  0
 25 28  1  0  0  0  0
 25 27  1  0  0  0  0
 26 25  2  0  0  0  0
M  END
>  <MODEL>
2

>  <REMARK>
 VINA RESULT:      -8.6      2.908      6.422
  Name = 
  4 active torsions:
  status: ('A' for Active; 'I' for Inactive)
    1  A    between atoms: C_9  and  C_25
    2  A    between atoms: N_12  and  C_25
    3  A    between atoms: C_13  and  C_26
    4  A    between atoms: C_17  and  C_20
                            x       y       z     vdW  Elec       q    Type
                         _______ _______ _______ _____ _____    ______ ____

>  <TORSDO>
F 4

$$$$
=
 OpenBabel11042412023D

 28 32  0  0  1  0  0  0  0  0999 V2000
  185.3890  178.1040  146.3180 C   0  0  0  0  0  2  0  0  0  0  0  0
  186.4560  177.3530  145.5830 C   0  0  1  0  0  3  0  0  0  0  0  0
  188.5160  177.9390  144.8880 C   0  0  2  0  0  3  0  0  0  0  0  0
  189.9290  177.5770  146.9170 C   0  0  0  0  0  2  0  0  0  0  0  0
  187.1280  177.9570  144.6020 C   0  0  1  0  0  3  0  0  0  0  0  0
  188.4050  177.8830  142.5830 C   0  0  2  0  0  3  0  0  0  0  0  0
  189.3150  177.8690  143.7300 N   0  0  0  0  0  2  0  0  0  0  0  0
  187.1640  177.9280  147.6990 C   0  0  0  0  0  0  0  0  0  0  0  0
  189.4810  178.2900  148.1850 C   0  0  0  0  0  3  0  0  0  0  0  0
  186.9530  177.7740  143.1310 C   0  0  2  0  0  3  0  0  0  0  0  0
  187.4460  176.9480  146.6290 C   0  0  2  0  0  3  0  0  0  0  0  0
  186.0610  178.5750  147.5250 N   0  0  0  0  0  0  0  0  0  0  0  0
  188.2250  178.4420  148.5180 N   0  0  0  0  0  0  0  0  0  0  0  0
  188.7500  177.3190  146.0290 C   0  0  1  0  0  3  0  0  0  0  0  0
  183.9420  178.6280  141.5220 C   0  0  0  0  0  0  0  0  0  0  0  0
  186.2050  178.9440  141.0080 C   0  0  0  0  0  2  0  0  0  0  0  0
  184.5450  178.8320  139.0620 C   0  0  0  0  0  1  0  0  0  0  0  0
  184.5790  178.6030  142.8510 C   0  0  0  0  0  2  0  0  0  0  0  0
  186.0620  178.8720  142.5430 C   0  0  1  0  0  3  0  0  0  0  0  0
  182.7080  178.4720  141.3310 O   0  0  0  0  0  0  0  0  0  0  0  0
  184.8650  178.8360  140.4790 N   0  0  0  0  0  0  0  0  0  0  0  0
  189.3630  176.8480  140.5300 C   0  0  0  0  0  3  0  0  0  0  0  0
  188.7070  176.7200  141.6890 C   0  0  0  0  0  3  0  0  0  0  0  0
  189.8610  178.1600  140.0080 C   0  0  0  0  0  2  0  0  0  0  0  0
  188.8470  178.5970  137.7510 C   0  0  0  0  0  0  0  0  0  0  0  0
  189.8190  177.8170  137.1360 O   0  0  0  0  0  1  0  0  0  0  0  0
  188.8490  178.7780  139.1660 N   0  0  0  0  0  2  0  0  0  0  0  0
  187.9540  179.1460  137.0550 O   0  0  0  0  0  0  0  0  0  0  0  0
  1 12  1  0  0  0  0
  2  1  1  1  0  0  0
  2 11  1  0  0  0  0
  3  7  1  6  0  0  0
  3 14  1  0  0  0  0
  4  9  1  0  0  0  0
  5  3  1  0  0  0  0
  5  2  1  0  0  0  0
  6 10  1  0  0  0  0
  6  7  1  0  0  0  0
  8 13  1  0  0  0  0
  9 13  2  0  0  0  0
 10  5  1  0  0  0  0
 11  8  1  0  0  0  0
 12  8  2  0  0  0  0
 14 11  1  0  0  0  0
 14  4  1  0  0  0  0
 15 18  1  0  0  0  0
 16 19  1  0  0  0  0
 17 21  1  0  0  0  0
 19 18  1  0  0  0  0
 19 10  1  0  0  0  0
 20 15  2  0  0  0  0
 21 16  1  0  0  0  0
 21 15  1  0  0  0  0
 22 23  2  0  0  0  0
 23  6  1  0  0  0  0
 24 22  1  0  0  0  0
 25 27  1  0  0  0  0
 26 25  1  0  0  0  0
 27 24  1  0  0  0  0
 28 25  2  0  0  0  0
M  END
>  <MODEL>
3

>  <REMARK>
 VINA RESULT:      -8.5      3.429      6.969
  Name = 
  4 active torsions:
  status: ('A' for Active; 'I' for Inactive)
    1  A    between atoms: C_9  and  C_25
    2  A    between atoms: N_12  and  C_25
    3  A    between atoms: C_13  and  C_26
    4  A    between atoms: C_17  and  C_20
                            x       y       z     vdW  Elec       q    Type
                         _______ _______ _______ _____ _____    ______ ____

>  <TORSDO>
F 4

$$$$
=
 OpenBabel11042412023D

 28 32  0  0  1  0  0  0  0  0999 V2000
  184.6970  178.8830  144.0550 C   0  0  0  0  0  2  0  0  0  0  0  0
  185.7430  177.8250  144.2320 C   0  0  1  0  0  3  0  0  0  0  0  0
  187.8820  177.9110  144.9320 C   0  0  2  0  0  3  0  0  0  0  0  0
  187.6730  177.8480  147.4210 C   0  0  0  0  0  2  0  0  0  0  0  0
  186.9940  178.0650  143.8380 C   0  0  1  0  0  3  0  0  0  0  0  0
  189.1350  177.3130  143.0880 C   0  0  2  0  0  3  0  0  0  0  0  0
  189.1530  177.4430  144.5470 N   0  0  0  0  0  2  0  0  0  0  0  0
  185.1950  178.7870  146.2540 C   0  0  0  0  0  0  0  0  0  0  0  0
  186.7770  178.9070  148.0490 C   0  0  0  0  0  3  0  0  0  0  0  0
  187.6750  177.5580  142.6100 C   0  0  2  0  0  3  0  0  0  0  0  0
  185.7770  177.5450  145.7020 C   0  0  2  0  0  3  0  0  0  0  0  0
  184.6280  179.5290  145.3630 N   0  0  0  0  0  0  0  0  0  0  0  0
  185.6630  179.3210  147.5010 N   0  0  0  0  0  0  0  0  0  0  0  0
  187.2250  177.5600  146.0210 C   0  0  1  0  0  3  0  0  0  0  0  0
  186.4950  178.4590  139.4190 C   0  0  0  0  0  0  0  0  0  0  0  0
  188.6290  178.2470  140.3630 C   0  0  0  0  0  2  0  0  0  0  0  0
  188.4050  177.9150  137.8330 C   0  0  0  0  0  1  0  0  0  0  0  0
  186.2340  178.6730  140.8540 C   0  0  0  0  0  2  0  0  0  0  0  0
  187.6340  178.6000  141.4880 C   0  0  1  0  0  3  0  0  0  0  0  0
  185.6020  178.4680  138.5330 O   0  0  0  0  0  0  0  0  0  0  0  0
  187.8570  178.2320  139.1410 N   0  0  0  0  0  0  0  0  0  0  0  0
  190.7490  175.4160  143.0890 C   0  0  0  0  0  3  0  0  0  0  0  0
  189.5790  175.9360  142.7020 C   0  0  0  0  0  3  0  0  0  0  0  0
  191.7330  176.1530  143.9450 C   0  0  0  0  0  2  0  0  0  0  0  0
  191.9890  176.0440  146.4420 C   0  0  0  0  0  0  0  0  0  0  0  0
  191.7410  177.4070  146.5520 O   0  0  0  0  0  0  0  0  0  0  0  0
  191.9890  175.4070  145.1670 N   0  0  0  0  0  2  0  0  0  0  0  0
  192.2130  175.3650  147.4770 O   0  0  0  0  0  1  0  0  0  0  0  0
  1 12  1  0  0  0  0
  2  1  1  1  0  0  0
  2 11  1  0  0  0  0
  3  7  1  6  0  0  0
  3 14  1  0  0  0  0
  4  9  1  0  0  0  0
  5  2  1  0  0  0  0
  5  3  1  0  0  0  0
  6  7  1  0  0  0  0
  8 13  1  0  0  0  0
 10  6  1  0  0  0  0
 10  5  1  0  0  0  0
 11 14  1  0  0  0  0
 11  8  1  0  0  0  0
 12  8  2  0  0  0  0
 13  9  2  0  0  0  0
 14  4  1  0  0  0  0
 15 18  1  0  0  0  0
 16 19  1  0  0  0  0
 17 21  1  0  0  0  0
 18 19  1  0  0  0  0
 19 10  1  0  0  0  0
 20 15  2  0  0  0  0
 21 15  1  0  0  0  0
 21 16  1  0  0  0  0
 22 24  1  0  0  0  0
 23  6  1  0  0  0  0
 23 22  2  0  0  0  0
 24 27  1  0  0  0  0
 25 26  2  0  0  0  0
 25 28  1  0  0  0  0
 27 25  1  0  0  0  0
M  END
>  <MODEL>
4

>  <REMARK>
 VINA RESULT:      -8.5      2.068      5.783
  Name = 
  4 active torsions:
  status: ('A' for Active; 'I' for Inactive)
    1  A    between atoms: C_9  and  C_25
    2  A    between atoms: N_12  and  C_25
    3  A    between atoms: C_13  and  C_26
    4  A    between atoms: C_17  and  C_20
                            x       y       z     vdW  Elec       q    Type
                         _______ _______ _______ _____ _____    ______ ____

>  <TORSDO>
F 4

$$$$
=
 OpenBabel11042412023D

 28 32  0  0  1  0  0  0  0  0999 V2000
  191.3230  177.8590  143.1860 C   0  0  0  0  0  2  0  0  0  0  0  0
  190.0430  178.3820  143.7600 C   0  0  1  0  0  3  0  0  0  0  0  0
  188.2800  177.3570  144.7170 C   0  0  2  0  0  3  0  0  0  0  0  0
  189.0040  177.0750  147.0920 C   0  0  0  0  0  2  0  0  0  0  0  0
  188.8990  177.7470  143.5020 C   0  0  1  0  0  3  0  0  0  0  0  0
  186.5200  177.7260  143.2700 C   0  0  2  0  0  3  0  0  0  0  0  0
  186.8740  177.3540  144.6410 N   0  0  0  0  0  2  0  0  0  0  0  0
  191.3260  177.3810  145.3910 C   0  0  0  0  0  0  0  0  0  0  0  0
  190.3270  176.3560  147.3120 C   0  0  0  0  0  3  0  0  0  0  0  0
  187.8280  178.1500  142.5430 C   0  0  2  0  0  3  0  0  0  0  0  0
  190.2420  178.3740  145.2420 C   0  0  2  0  0  3  0  0  0  0  0  0
  191.9020  177.0790  144.2760 N   0  0  0  0  0  0  0  0  0  0  0  0
  191.3640  176.5050  146.5270 N   0  0  0  0  0  0  0  0  0  0  0  0
  188.9990  177.7460  145.7520 C   0  0  1  0  0  3  0  0  0  0  0  0
  189.8580  177.3780  139.7740 C   0  0  0  0  0  0  0  0  0  0  0  0
  187.7460  178.3620  140.0170 C   0  0  0  0  0  2  0  0  0  0  0  0
  189.1230  178.9870  137.9490 C   0  0  0  0  0  1  0  0  0  0  0  0
  189.3930  176.8270  141.0590 C   0  0  0  0  0  2  0  0  0  0  0  0
  187.9780  177.4110  141.2090 C   0  0  1  0  0  3  0  0  0  0  0  0
  190.9790  177.1200  139.2630 O   0  0  0  0  0  0  0  0  0  0  0  0
  188.9160  178.2380  139.1770 N   0  0  0  0  0  0  0  0  0  0  0  0
  184.5390  178.9780  142.4240 C   0  0  0  0  0  3  0  0  0  0  0  0
  185.5500  178.8670  143.2940 C   0  0  0  0  0  3  0  0  0  0  0  0
  184.2740  177.9770  141.3420 C   0  0  0  0  0  2  0  0  0  0  0  0
  183.4010  179.4010  139.4650 C   0  0  0  0  0  0  0  0  0  0  0  0
  184.6670  179.9300  139.2440 O   0  0  0  0  0  1  0  0  0  0  0  0
  183.1860  178.4370  140.4940 N   0  0  0  0  0  2  0  0  0  0  0  0
  182.4360  179.7740  138.7490 O   0  0  0  0  0  0  0  0  0  0  0  0
  1 12  1  0  0  0  0
  2  1  1  6  0  0  0
  2 11  1  0  0  0  0
  3  7  1  1  0  0  0
  3 14  1  0  0  0  0
  4  9  1  0  0  0  0
  5  2  1  0  0  0  0
  5  3  1  0  0  0  0
  6 23  1  0  0  0  0
  6  7  1  0  0  0  0
  8 13  1  0  0  0  0
 10  6  1  0  0  0  0
 10  5  1  0  0  0  0
 11  8  1  0  0  0  0
 11 14  1  0  0  0  0
 12  8  2  0  0  0  0
 13  9  2  0  0  0  0
 14  4  1  0  0  0  0
 15 18  1  0  0  0  0
 16 19  1  0  0  0  0
 17 21  1  0  0  0  0
 18 19  1  0  0  0  0
 19 10  1  0  0  0  0
 20 15  2  0  0  0  0
 21 15  1  0  0  0  0
 21 16  1  0  0  0  0
 22 23  2  0  0  0  0
 24 22  1  0  0  0  0
 25 27  1  0  0  0  0
 26 25  1  0  0  0  0
 27 24  1  0  0  0  0
 28 25  2  0  0  0  0
M  END
>  <MODEL>
5

>  <REMARK>
 VINA RESULT:      -8.4      2.801      7.460
  Name = 
  4 active torsions:
  status: ('A' for Active; 'I' for Inactive)
    1  A    between atoms: C_9  and  C_25
    2  A    between atoms: N_12  and  C_25
    3  A    between atoms: C_13  and  C_26
    4  A    between atoms: C_17  and  C_20
                            x       y       z     vdW  Elec       q    Type
                         _______ _______ _______ _____ _____    ______ ____

>  <TORSDO>
F 4

$$$$
=
 OpenBabel11042412023D

 28 32  0  0  1  0  0  0  0  0999 V2000
  191.4770  177.1850  144.1260 C   0  0  0  0  0  2  0  0  0  0  0  0
  190.2290  178.0130  144.0940 C   0  0  1  0  0  3  0  0  0  0  0  0
  188.0580  177.4950  144.3920 C   0  0  2  0  0  3  0  0  0  0  0  0
  187.7940  177.5410  146.8760 C   0  0  0  0  0  2  0  0  0  0  0  0
  189.1430  177.5420  143.4810 C   0  0  1  0  0  3  0  0  0  0  0  0
  187.0680  177.8780  142.3430 C   0  0  2  0  0  3  0  0  0  0  0  0
  186.8110  177.7140  143.7750 N   0  0  0  0  0  2  0  0  0  0  0  0
  190.5780  177.1320  146.1950 C   0  0  0  0  0  0  0  0  0  0  0  0
  188.7510  176.6640  147.6720 C   0  0  0  0  0  3  0  0  0  0  0  0
  188.6110  177.9340  142.1420 C   0  0  2  0  0  3  0  0  0  0  0  0
  189.8740  178.2480  145.5290 C   0  0  2  0  0  3  0  0  0  0  0  0
  191.4320  176.5350  145.4330 N   0  0  0  0  0  0  0  0  0  0  0  0
  190.0050  176.4890  147.3430 N   0  0  0  0  0  0  0  0  0  0  0  0
  188.4240  177.9430  145.5780 C   0  0  1  0  0  3  0  0  0  0  0  0
  190.9220  177.1260  139.6150 C   0  0  0  0  0  0  0  0  0  0  0  0
  188.5960  177.4020  139.6630 C   0  0  0  0  0  2  0  0  0  0  0  0
  189.8050  177.8430  137.4480 C   0  0  0  0  0  1  0  0  0  0  0  0
  190.5930  176.8310  141.0210 C   0  0  0  0  0  2  0  0  0  0  0  0
  189.0590  176.9460  141.0620 C   0  0  1  0  0  3  0  0  0  0  0  0
  192.0910  177.1130  139.1490 O   0  0  0  0  0  0  0  0  0  0  0  0
  189.7860  177.4360  138.8420 N   0  0  0  0  0  0  0  0  0  0  0  0
  185.1350  179.2560  141.5870 C   0  0  0  0  0  3  0  0  0  0  0  0
  186.4400  179.1500  141.8620 C   0  0  0  0  0  3  0  0  0  0  0  0
  184.1710  178.1190  141.7290 C   0  0  0  0  0  2  0  0  0  0  0  0
  182.2850  178.9940  143.1390 C   0  0  0  0  0  0  0  0  0  0  0  0
  183.0560  178.8750  144.2890 O   0  0  0  0  0  1  0  0  0  0  0  0
  182.8160  178.6270  141.8670 N   0  0  0  0  0  2  0  0  0  0  0  0
  181.1090  179.4330  143.2190 O   0  0  0  0  0  0  0  0  0  0  0  0
  1 12  1  0  0  0  0
  2  1  1  1  0  0  0
  2 11  1  0  0  0  0
  3  7  1  6  0  0  0
  3 14  1  0  0  0  0
  4  9  1  0  0  0  0
  5  2  1  0  0  0  0
  5  3  1  0  0  0  0
  6  7  1  0  0  0  0
  8 13  1  0  0  0  0
 10  6  1  0  0  0  0
 10  5  1  0  0  0  0
 11 14  1  0  0  0  0
 11  8  1  0  0  0  0
 12  8  2  0  0  0  0
 13  9  2  0  0  0  0
 14  4  1  0  0  0  0
 15 18  1  0  0  0  0
 16 19  1  0  0  0  0
 17 21  1  0  0  0  0
 18 19  1  0  0  0  0
 19 10  1  0  0  0  0
 20 15  2  0  0  0  0
 21 15  1  0  0  0  0
 21 16  1  0  0  0  0
 22 24  1  0  0  0  0
 22 23  2  0  0  0  0
 23  6  1  0  0  0  0
 24 27  1  0  0  0  0
 25 28  2  0  0  0  0
 25 26  1  0  0  0  0
 27 25  1  0  0  0  0
M  END
>  <MODEL>
6

>  <REMARK>
 VINA RESULT:      -8.4      2.688      7.535
  Name = 
  4 active torsions:
  status: ('A' for Active; 'I' for Inactive)
    1  A    between atoms: C_9  and  C_25
    2  A    between atoms: N_12  and  C_25
    3  A    between atoms: C_13  and  C_26
    4  A    between atoms: C_17  and  C_20
                            x       y       z     vdW  Elec       q    Type
                         _______ _______ _______ _____ _____    ______ ____

>  <TORSDO>
F 4

$$$$
=
 OpenBabel11042412023D

 28 32  0  0  1  0  0  0  0  0999 V2000
  184.4950  179.0590  145.8700 C   0  0  0  0  0  2  0  0  0  0  0  0
  185.4220  179.3300  144.7250 C   0  0  1  0  0  3  0  0  0  0  0  0
  185.9420  178.1440  142.8820 C   0  0  2  0  0  3  0  0  0  0  0  0
  184.1120  178.7340  141.2870 C   0  0  0  0  0  2  0  0  0  0  0  0
  186.1980  178.3500  144.2620 C   0  0  1  0  0  3  0  0  0  0  0  0
  188.1670  177.5880  143.1410 C   0  0  2  0  0  3  0  0  0  0  0  0
  187.0790  177.7190  142.1690 N   0  0  0  0  0  2  0  0  0  0  0  0
  183.2360  179.2180  144.0040 C   0  0  0  0  0  0  0  0  0  0  0  0
  182.6890  178.5110  141.7810 C   0  0  0  0  0  3  0  0  0  0  0  0
  187.6590  178.1550  144.4980 C   0  0  2  0  0  3  0  0  0  0  0  0
  184.5420  179.7810  143.6020 C   0  0  2  0  0  3  0  0  0  0  0  0
  183.2100  178.8030  145.2250 N   0  0  0  0  0  0  0  0  0  0  0  0
  182.3160  178.7320  143.0160 N   0  0  0  0  0  0  0  0  0  0  0  0
  185.0250  178.9870  142.4470 C   0  0  1  0  0  3  0  0  0  0  0  0
  188.7900  177.5960  147.7830 C   0  0  0  0  0  0  0  0  0  0  0  0
  189.3850  176.7290  145.6900 C   0  0  0  0  0  2  0  0  0  0  0  0
  191.1720  176.7490  147.5250 C   0  0  0  0  0  1  0  0  0  0  0  0
  187.5560  177.7780  146.9980 C   0  0  0  0  0  2  0  0  0  0  0  0
  187.9040  177.1570  145.6340 C   0  0  1  0  0  3  0  0  0  0  0  0
  188.9180  177.9520  148.9840 O   0  0  0  0  0  0  0  0  0  0  0  0
  189.8220  176.9870  147.0430 N   0  0  0  0  0  0  0  0  0  0  0  0
  190.2870  177.8500  141.8600 C   0  0  0  0  0  3  0  0  0  0  0  0
  189.3570  178.3670  142.6710 C   0  0  0  0  0  3  0  0  0  0  0  0
  190.2370  176.4460  141.3410 C   0  0  0  0  0  2  0  0  0  0  0  0
  189.8640  176.7110  138.8710 C   0  0  0  0  0  0  0  0  0  0  0  0
  188.5360  177.0650  139.0840 O   0  0  0  0  0  1  0  0  0  0  0  0
  190.7190  176.4030  139.9700 N   0  0  0  0  0  2  0  0  0  0  0  0
  190.3170  176.6660  137.6980 O   0  0  0  0  0  0  0  0  0  0  0  0
  2  1  1  1  0  0  0
  3  7  1  6  0  0  0
  3  5  1  0  0  0  0
  4  9  1  0  0  0  0
  4 14  1  0  0  0  0
  5 10  1  0  0  0  0
  5  2  1  0  0  0  0
  6 10  1  0  0  0  0
  7  6  1  0  0  0  0
  8 12  2  0  0  0  0
  9 13  2  0  0  0  0
 10 19  1  0  0  0  0
 11  8  1  0  0  0  0
 11  2  1  0  0  0  0
 12  1  1  0  0  0  0
 13  8  1  0  0  0  0
 14  3  1  0  0  0  0
 14 11  1  0  0  0  0
 15 20  2  0  0  0  0
 16 21  1  0  0  0  0
 18 15  1  0  0  0  0
 19 16  1  0  0  0  0
 19 18  1  0  0  0  0
 21 17  1  0  0  0  0
 21 15  1  0  0  0  0
 22 23  2  0  0  0  0
 23  6  1  0  0  0  0
 24 22  1  0  0  0  0
 25 26  1  0  0  0  0
 25 27  1  0  0  0  0
 27 24  1  0  0  0  0
 28 25  2  0  0  0  0
M  END
>  <MODEL>
7

>  <REMARK>
 VINA RESULT:      -8.3      2.893      6.386
  Name = 
  4 active torsions:
  status: ('A' for Active; 'I' for Inactive)
    1  A    between atoms: C_9  and  C_25
    2  A    between atoms: N_12  and  C_25
    3  A    between atoms: C_13  and  C_26
    4  A    between atoms: C_17  and  C_20
                            x       y       z     vdW  Elec       q    Type
                         _______ _______ _______ _____ _____    ______ ____

>  <TORSDO>
F 4

$$$$
=
 OpenBabel11042412023D

 28 32  0  0  1  0  0  0  0  0999 V2000
  186.4320  177.9520  143.0480 C   0  0  0  0  0  2  0  0  0  0  0  0
  187.3290  177.1800  143.9660 C   0  0  1  0  0  3  0  0  0  0  0  0
  188.7420  177.8220  145.5980 C   0  0  2  0  0  3  0  0  0  0  0  0
  187.2460  178.0720  147.5840 C   0  0  0  0  0  2  0  0  0  0  0  0
  188.5630  177.6240  144.2060 C   0  0  1  0  0  3  0  0  0  0  0  0
  190.8400  177.2500  144.8270 C   0  0  2  0  0  3  0  0  0  0  0  0
  190.0640  177.5880  146.0220 N   0  0  0  0  0  2  0  0  0  0  0  0
  185.6880  178.2800  145.1530 C   0  0  0  0  0  0  0  0  0  0  0  0
  186.0460  178.9920  147.4120 C   0  0  0  0  0  3  0  0  0  0  0  0
  189.8440  177.1050  143.6410 C   0  0  2  0  0  3  0  0  0  0  0  0
  186.6040  177.1270  145.2740 C   0  0  2  0  0  3  0  0  0  0  0  0
  185.6070  178.7480  143.9530 N   0  0  0  0  0  0  0  0  0  0  0  0
  185.3580  179.0750  146.3020 N   0  0  0  0  0  0  0  0  0  0  0  0
  187.6480  177.4970  146.2600 C   0  0  1  0  0  3  0  0  0  0  0  0
  190.6980  177.2070  140.2290 C   0  0  0  0  0  0  0  0  0  0  0  0
  191.8120  177.8010  142.2020 C   0  0  0  0  0  2  0  0  0  0  0  0
  193.2370  177.1270  140.1830 C   0  0  0  0  0  1  0  0  0  0  0  0
  189.5850  177.4890  141.1540 C   0  0  0  0  0  2  0  0  0  0  0  0
  190.2950  177.9430  142.4410 C   0  0  1  0  0  3  0  0  0  0  0  0
  190.5440  176.8270  139.0390 O   0  0  0  0  0  0  0  0  0  0  0  0
  191.9610  177.3990  140.8210 N   0  0  0  0  0  0  0  0  0  0  0  0
  192.0550  175.5980  146.2420 C   0  0  0  0  0  3  0  0  0  0  0  0
  191.5680  175.9600  145.0500 C   0  0  0  0  0  3  0  0  0  0  0  0
  191.9260  176.4420  147.4720 C   0  0  0  0  0  2  0  0  0  0  0  0
  193.3690  177.0470  149.4390 C   0  0  0  0  0  0  0  0  0  0  0  0
  192.6950  178.2530  149.5940 O   0  0  0  0  0  0  0  0  0  0  0  0
  193.0050  176.1400  148.4000 N   0  0  0  0  0  2  0  0  0  0  0  0
  194.3060  176.7510  150.2240 O   0  0  0  0  0  1  0  0  0  0  0  0
  1 12  1  0  0  0  0
  2  1  1  6  0  0  0
  2  5  1  0  0  0  0
  2 11  1  0  0  0  0
  3  7  1  1  0  0  0
  3 14  1  0  0  0  0
  5  3  1  0  0  0  0
  6 23  1  0  0  0  0
  6  7  1  0  0  0  0
  8 11  1  0  0  0  0
  8 13  1  0  0  0  0
  9  4  1  0  0  0  0
 10  5  1  0  0  0  0
 10  6  1  0  0  0  0
 11 14  1  0  0  0  0
 12  8  2  0  0  0  0
 13  9  2  0  0  0  0
 14  4  1  0  0  0  0
 15 21  1  0  0  0  0
 15 18  1  0  0  0  0
 16 19  1  0  0  0  0
 17 21  1  0  0  0  0
 18 19  1  0  0  0  0
 19 10  1  0  0  0  0
 20 15  2  0  0  0  0
 21 16  1  0  0  0  0
 22 24  1  0  0  0  0
 23 22  2  0  0  0  0
 24 27  1  0  0  0  0
 25 26  2  0  0  0  0
 25 28  1  0  0  0  0
 27 25  1  0  0  0  0
M  END
>  <MODEL>
8

>  <REMARK>
 VINA RESULT:      -8.3      2.751      6.019
  Name = 
  4 active torsions:
  status: ('A' for Active; 'I' for Inactive)
    1  A    between atoms: C_9  and  C_25
    2  A    between atoms: N_12  and  C_25
    3  A    between atoms: C_13  and  C_26
    4  A    between atoms: C_17  and  C_20
                            x       y       z     vdW  Elec       q    Type
                         _______ _______ _______ _____ _____    ______ ____

>  <TORSDO>
F 4

$$$$
=
 OpenBabel11042412023D

 28 32  0  0  1  0  0  0  0  0999 V2000
  185.2860  178.6690  146.2160 C   0  0  0  0  0  2  0  0  0  0  0  0
  185.6870  179.1600  144.8590 C   0  0  1  0  0  3  0  0  0  0  0  0
  185.4070  178.3050  142.7940 C   0  0  2  0  0  3  0  0  0  0  0  0
  183.1060  179.0530  142.1720 C   0  0  0  0  0  2  0  0  0  0  0  0
  186.1950  178.3020  143.9730 C   0  0  1  0  0  3  0  0  0  0  0  0
  187.5400  177.8190  142.0570 C   0  0  2  0  0  3  0  0  0  0  0  0
  186.1590  178.0510  141.6300 N   0  0  0  0  0  2  0  0  0  0  0  0
  183.3930  179.0610  145.0530 C   0  0  0  0  0  0  0  0  0  0  0  0
  181.9930  178.6900  143.1450 C   0  0  0  0  0  3  0  0  0  0  0  0
  187.6250  178.1410  143.5780 C   0  0  2  0  0  3  0  0  0  0  0  0
  184.4430  179.7410  144.2650 C   0  0  2  0  0  3  0  0  0  0  0  0
  183.8460  178.4580  146.1000 N   0  0  0  0  0  0  0  0  0  0  0  0
  182.1460  178.6950  144.4440 N   0  0  0  0  0  0  0  0  0  0  0  0
  184.4110  179.1630  142.9000 C   0  0  1  0  0  3  0  0  0  0  0  0
  190.3850  176.9790  145.4270 C   0  0  0  0  0  0  0  0  0  0  0  0
  189.3190  176.2560  143.4700 C   0  0  0  0  0  2  0  0  0  0  0  0
  191.8010  175.6890  143.7570 C   0  0  0  0  0  1  0  0  0  0  0  0
  189.0180  177.5060  145.5920 C   0  0  0  0  0  2  0  0  0  0  0  0
  188.2810  176.9880  144.3450 C   0  0  1  0  0  3  0  0  0  0  0  0
  191.3130  177.1580  146.2580 O   0  0  0  0  0  0  0  0  0  0  0  0
  190.5500  176.2580  144.2280 N   0  0  0  0  0  0  0  0  0  0  0  0
  188.8840  178.4340  140.0520 C   0  0  0  0  0  3  0  0  0  0  0  0
  188.4600  178.7170  141.2890 C   0  0  0  0  0  3  0  0  0  0  0  0
  188.4850  177.1950  139.3110 C   0  0  0  0  0  2  0  0  0  0  0  0
  187.1800  178.1940  137.4100 C   0  0  0  0  0  0  0  0  0  0  0  0
  186.1860  178.6200  138.2830 O   0  0  0  0  0  1  0  0  0  0  0  0
  188.3220  177.4910  137.8960 N   0  0  0  0  0  2  0  0  0  0  0  0
  187.0750  178.4340  136.1800 O   0  0  0  0  0  0  0  0  0  0  0  0
  2  1  1  1  0  0  0
  3  7  1  6  0  0  0
  3 14  1  0  0  0  0
  3  5  1  0  0  0  0
  4 14  1  0  0  0  0
  4  9  1  0  0  0  0
  5  2  1  0  0  0  0
  6 10  1  0  0  0  0
  7  6  1  0  0  0  0
  8 12  2  0  0  0  0
  9 13  2  0  0  0  0
 10  5  1  0  0  0  0
 10 19  1  0  0  0  0
 11  2  1  0  0  0  0
 11  8  1  0  0  0  0
 12  1  1  0  0  0  0
 13  8  1  0  0  0  0
 14 11  1  0  0  0  0
 15 18  1  0  0  0  0
 15 20  2  0  0  0  0
 16 21  1  0  0  0  0
 16 19  1  0  0  0  0
 17 21  1  0  0  0  0
 19 18  1  0  0  0  0
 21 15  1  0  0  0  0
 22 23  2  0  0  0  0
 23  6  1  0  0  0  0
 24 22  1  0  0  0  0
 25 27  1  0  0  0  0
 25 26  1  0  0  0  0
 27 24  1  0  0  0  0
 28 25  2  0  0  0  0
M  END
>  <MODEL>
9

>  <REMARK>
 VINA RESULT:      -8.0      2.671      7.429
  Name = 
  4 active torsions:
  status: ('A' for Active; 'I' for Inactive)
    1  A    between atoms: C_9  and  C_25
    2  A    between atoms: N_12  and  C_25
    3  A    between atoms: C_13  and  C_26
    4  A    between atoms: C_17  and  C_20
                            x       y       z     vdW  Elec       q    Type
                         _______ _______ _______ _____ _____    ______ ____

>  <TORSDO>
F 4

$$$$
