=
 OpenBabel11032420333D

 53 55  0  0  1  0  0  0  0  0999 V2000
  190.4570  176.1490  141.9700 C   0  0  0  0  0  2  0  0  0  0  0  0
  189.5170  176.9170  135.5710 N   0  0  0  0  0  2  0  0  0  0  0  0
  189.6700  178.2360  143.8940 C   0  0  0  0  0  3  0  0  0  0  0  0
  188.3570  178.4650  137.0240 C   0  0  0  0  0  0  0  0  0  0  0  0
  191.8960  175.4340  143.7250 O   0  0  0  0  0  0  0  0  0  0  0  0
  191.1160  176.3240  138.0880 C   0  0  0  0  0  3  0  0  0  0  0  0
  187.5390  178.9360  136.1900 O   0  0  0  0  0  0  0  0  0  0  0  0
  188.9670  178.1830  142.5660 C   0  0  1  0  0  3  0  0  0  0  0  0
  190.5950  177.3450  144.2700 C   0  0  0  0  0  0  0  0  0  0  0  0
  189.4670  177.5900  136.6740 C   0  0  0  0  0  0  0  0  0  0  0  0
  191.0360  176.2740  143.3480 C   0  0  0  0  0  0  0  0  0  0  0  0
  190.0990  177.1780  137.9240 C   0  0  0  0  0  0  0  0  0  0  0  0
  188.2770  178.7110  138.4950 C   0  0  0  0  0  2  0  0  0  0  0  0
  189.5960  177.6460  140.2840 C   0  0  0  0  0  0  0  0  0  0  0  0
  189.4050  177.8740  139.0110 C   0  0  0  0  0  0  0  0  0  0  0  0
  189.7710  177.4130  141.5540 C   0  0  0  0  0  0  0  0  0  0  0  0
  192.2810  173.6660  135.8350 C   0  0  1  0  0  3  0  0  0  0  0  0
  193.4910  174.1660  136.6030 C   0  0  2  0  0  3  0  0  0  0  0  0
  191.8250  175.6460  136.9570 C   0  0  1  0  0  3  0  0  0  0  0  0
  193.1530  175.3410  137.3080 O   0  0  0  0  0  0  0  0  0  0  0  0
  190.6660  173.6410  137.5900 O   0  0  0  0  0  1  0  0  0  0  0  0
  192.1700  172.2770  135.9400 O   0  0  0  0  0  1  0  0  0  0  0  0
  191.1330  174.3780  136.4930 C   0  0  2  0  0  3  0  0  0  0  0  0
  195.7360  173.5230  135.6820 C   0  0  0  0  0  3  0  0  0  0  0  0
  196.7040  173.7190  134.8990 O   0  0  0  0  0  0  0  0  0  0  0  0
  194.6140  174.4160  135.7060 N   0  0  0  0  0  0  0  0  0  0  0  0
  194.5280  175.5290  134.7710 C   0  0  0  0  0  2  0  0  0  0  0  0
  195.5620  176.5920  135.1110 C   0  0  0  0  0  2  0  0  0  0  0  0
  194.9500  177.6610  135.7690 O   0  0  0  0  0  1  0  0  0  0  0  0
  186.5260  178.3550  142.8010 C   0  0  0  0  0  3  0  0  0  0  0  0
  187.6090  177.5780  142.7470 C   0  0  0  0  0  3  0  0  0  0  0  0
  185.1740  177.7500  142.9810 C   0  0  0  0  0  2  0  0  0  0  0  0
  184.2010  178.3210  141.9600 C   0  0  0  0  0  2  0  0  0  0  0  0
  180.4930  179.1520  142.7680 C   0  0  0  0  0  1  0  0  0  0  0  0
  182.9740  178.8580  142.6310 C   0  0  0  0  0  0  0  0  0  0  0  0
  181.6750  178.7070  142.0370 N   0  0  0  0  0  0  0  0  0  0  0  0
  183.0980  179.4280  143.7490 O   0  0  0  0  0  0  0  0  0  0  0  0
  180.2420  177.3440  140.5520 C   0  0  0  0  0  1  0  0  0  0  0  0
  181.5400  178.1270  140.6980 C   0  0  1  0  0  3  0  0  0  0  0  0
  181.7390  179.1720  139.5960 C   0  0  0  0  0  2  0  0  0  0  0  0
  184.2440  178.3330  138.3780 O   0  0  0  0  0  1  0  0  0  0  0  0
  183.0460  177.5450  136.5870 O   0  0  0  0  0  0  0  0  0  0  0  0
  181.8080  178.5620  138.2740 N   0  0  0  0  0  2  0  0  0  0  0  0
  183.0430  178.1200  137.7070 C   0  0  0  0  0  0  0  0  0  0  0  0
  191.1870  177.4620  145.6390 C   0  0  0  0  0  2  0  0  0  0  0  0
  190.2910  176.7920  146.6800 C   0  0  1  0  0  3  0  0  0  0  0  0
  192.4990  175.6300  147.1200 C   0  0  0  0  0  1  0  0  0  0  0  0
  191.1160  175.9600  147.6610 C   0  0  0  0  0  2  0  0  0  0  0  0
  189.4270  177.8170  147.4080 C   0  0  0  0  0  2  0  0  0  0  0  0
  188.0040  177.3000  147.5880 C   0  0  0  0  0  2  0  0  0  0  0  0
  187.0590  177.8630  146.5350 C   0  0  0  0  0  2  0  0  0  0  0  0
  184.8170  178.6540  146.5090 O   0  0  0  0  0  1  0  0  0  0  0  0
  186.0350  178.7840  147.1750 C   0  0  0  0  0  2  0  0  0  0  0  0
  1 11  1  0  0  0  0
  2 10  2  0  0  0  0
  3  9  2  0  0  0  0
  4 13  1  0  0  0  0
  7  4  2  0  0  0  0
  8 31  1  1  0  0  0
  8  3  1  0  0  0  0
  9 45  1  0  0  0  0
 10  4  1  0  0  0  0
 10 12  1  0  0  0  0
 11  5  2  0  0  0  0
 11  9  1  0  0  0  0
 12  6  2  0  0  0  0
 12 15  1  0  0  0  0
 13 15  1  0  0  0  0
 14 16  2  0  0  0  0
 15 14  2  0  0  0  0
 16  1  1  0  0  0  0
 16  8  1  0  0  0  0
 17 22  1  1  0  0  0
 17 23  1  0  0  0  0
 17 18  1  0  0  0  0
 18 26  1  6  0  0  0
 18 20  1  0  0  0  0
 19 20  1  0  0  0  0
 19  6  1  1  0  0  0
 23 19  1  0  0  0  0
 23 21  1  1  0  0  0
 24 26  1  0  0  0  0
 25 24  2  0  0  0  0
 27 28  1  0  0  0  0
 27 26  1  0  0  0  0
 28 29  1  0  0  0  0
 30 32  1  0  0  0  0
 31 30  2  0  0  0  0
 33 35  1  0  0  0  0
 33 32  1  0  0  0  0
 35 37  2  0  0  0  0
 36 35  1  0  0  0  0
 36 34  1  0  0  0  0
 39 38  1  1  0  0  0
 39 36  1  0  0  0  0
 40 39  1  0  0  0  0
 42 44  2  0  0  0  0
 43 40  1  0  0  0  0
 44 43  1  0  0  0  0
 44 41  1  0  0  0  0
 46 45  1  6  0  0  0
 46 49  1  0  0  0  0
 46 48  1  0  0  0  0
 47 48  1  0  0  0  0
 49 50  1  0  0  0  0
 51 53  1  0  0  0  0
 51 50  1  0  0  0  0
 52 53  1  0  0  0  0
M  END
>  <MODEL>
1

>  <REMARK>
 VINA RESULT:      -8.3      0.000      0.000
  Name = 
  18 active torsions:
  status: ('A' for Active; 'I' for Inactive)
    1  A    between atoms: C_1  and  C_47
    2  A    between atoms: C_1  and  N_48
    3  A    between atoms: C_6  and  C_16
    4  A    between atoms: C_6  and  C_26
    5  A    between atoms: C_9  and  C_41
    6  A    between atoms: C_9  and  C_44
    7  A    between atoms: C_9  and  C_50
    8  A    between atoms: C_12  and  N_48
    9  A    between atoms: C_14  and  C_19
   10  A    between atoms: C_16  and  C_18
   11  A    between atoms: C_17  and  C_22
   12  A    between atoms: C_20  and  N_27
   13  A    between atoms: C_20  and  C_31
   14  A    between atoms: C_21  and  C_50
   15  A    between atoms: C_30  and  C_38
   16  A    between atoms: C_31  and  N_42
   17  A    between atoms: C_38  and  C_51
   18  A    between atoms: C_44  and  C_51
                            x       y       z     vdW  Elec       q    Type
                         _______ _______ _______ _____ _____    ______ ____

>  <TORSDO>
F 18

$$$$
=
 OpenBabel11032420333D

 53 55  0  0  1  0  0  0  0  0999 V2000
  189.6040  176.5150  141.7570 C   0  0  0  0  0  2  0  0  0  0  0  0
  189.6110  176.6790  135.2460 N   0  0  0  0  0  2  0  0  0  0  0  0
  188.4680  178.7220  143.3430 C   0  0  0  0  0  3  0  0  0  0  0  0
  188.1960  178.2920  136.3630 C   0  0  0  0  0  0  0  0  0  0  0  0
  190.7850  176.0220  143.7630 O   0  0  0  0  0  0  0  0  0  0  0  0
  190.8330  176.3830  138.0150 C   0  0  0  0  0  3  0  0  0  0  0  0
  187.4980  178.6500  135.3780 O   0  0  0  0  0  0  0  0  0  0  0  0
  187.9750  178.5210  141.9370 C   0  0  1  0  0  3  0  0  0  0  0  0
  189.3550  177.9110  143.9310 C   0  0  0  0  0  0  0  0  0  0  0  0
  189.3740  177.4420  136.2630 C   0  0  0  0  0  0  0  0  0  0  0  0
  189.9650  176.7850  143.1880 C   0  0  0  0  0  0  0  0  0  0  0  0
  189.8240  177.1710  137.6250 C   0  0  0  0  0  0  0  0  0  0  0  0
  187.8870  178.6600  137.7770 C   0  0  0  0  0  2  0  0  0  0  0  0
  188.9570  177.8180  139.8310 C   0  0  0  0  0  0  0  0  0  0  0  0
  188.9520  177.9250  138.5290 C   0  0  0  0  0  0  0  0  0  0  0  0
  188.9470  177.7040  141.1300 C   0  0  0  0  0  0  0  0  0  0  0  0
  192.3380  173.6060  136.1370 C   0  0  1  0  0  3  0  0  0  0  0  0
  193.3930  174.1220  137.0980 C   0  0  2  0  0  3  0  0  0  0  0  0
  191.7260  175.6420  137.0680 C   0  0  1  0  0  3  0  0  0  0  0  0
  192.9570  175.3330  137.6770 O   0  0  0  0  0  0  0  0  0  0  0  0
  190.4210  173.6870  137.5530 O   0  0  0  0  0  1  0  0  0  0  0  0
  192.1760  172.2250  136.2770 O   0  0  0  0  0  1  0  0  0  0  0  0
  191.1040  174.3660  136.5350 C   0  0  2  0  0  3  0  0  0  0  0  0
  194.8820  175.4560  135.5790 C   0  0  0  0  0  3  0  0  0  0  0  0
  195.9870  175.6410  135.0030 O   0  0  0  0  0  0  0  0  0  0  0  0
  194.6710  174.3130  136.4200 N   0  0  0  0  0  0  0  0  0  0  0  0
  195.7540  173.3790  136.6920 C   0  0  0  0  0  2  0  0  0  0  0  0
  195.7790  173.0060  138.1670 C   0  0  0  0  0  2  0  0  0  0  0  0
  195.5820  171.6330  138.3170 O   0  0  0  0  0  1  0  0  0  0  0  0
  185.5400  178.5510  141.5990 C   0  0  0  0  0  3  0  0  0  0  0  0
  186.6260  177.8710  141.9720 C   0  0  0  0  0  3  0  0  0  0  0  0
  184.1970  177.9020  141.6340 C   0  0  0  0  0  2  0  0  0  0  0  0
  183.4370  178.1940  140.3490 C   0  0  0  0  0  2  0  0  0  0  0  0
  179.6960  177.1690  140.5870 C   0  0  0  0  0  1  0  0  0  0  0  0
  181.9600  178.2370  140.5990 C   0  0  0  0  0  0  0  0  0  0  0  0
  181.1130  177.1350  140.2350 N   0  0  0  0  0  0  0  0  0  0  0  0
  181.4710  179.2530  141.1620 O   0  0  0  0  0  0  0  0  0  0  0  0
  180.6370  174.8790  139.3420 C   0  0  0  0  0  1  0  0  0  0  0  0
  181.6630  175.9940  139.5000 C   0  0  1  0  0  3  0  0  0  0  0  0
  182.3000  176.4170  138.1730 C   0  0  0  0  0  2  0  0  0  0  0  0
  184.6290  177.5140  136.8180 O   0  0  0  0  0  0  0  0  0  0  0  0
  185.6450  175.4680  137.0250 O   0  0  0  0  0  1  0  0  0  0  0  0
  183.4780  175.6190  137.8570 N   0  0  0  0  0  2  0  0  0  0  0  0
  184.6280  176.1830  137.2250 C   0  0  0  0  0  0  0  0  0  0  0  0
  189.7300  178.1740  145.3560 C   0  0  0  0  0  2  0  0  0  0  0  0
  188.7770  177.4600  146.3120 C   0  0  1  0  0  3  0  0  0  0  0  0
  188.0500  177.2520  148.7300 C   0  0  0  0  0  1  0  0  0  0  0  0
  188.8790  178.0360  147.7240 C   0  0  0  0  0  2  0  0  0  0  0  0
  187.3410  177.5020  145.7960 C   0  0  0  0  0  2  0  0  0  0  0  0
  186.5890  178.6950  146.3760 C   0  0  0  0  0  2  0  0  0  0  0  0
  185.1040  178.4010  146.5420 C   0  0  0  0  0  2  0  0  0  0  0  0
  184.7990  179.7980  144.6420 O   0  0  0  0  0  1  0  0  0  0  0  0
  184.3690  178.6100  145.2300 C   0  0  0  0  0  2  0  0  0  0  0  0
  1 11  1  0  0  0  0
  2 10  2  0  0  0  0
  3  9  2  0  0  0  0
  4 13  1  0  0  0  0
  7  4  2  0  0  0  0
  8 31  1  1  0  0  0
  8  3  1  0  0  0  0
  9 45  1  0  0  0  0
 10  4  1  0  0  0  0
 10 12  1  0  0  0  0
 11  5  2  0  0  0  0
 11  9  1  0  0  0  0
 12  6  2  0  0  0  0
 12 15  1  0  0  0  0
 13 15  1  0  0  0  0
 14 16  2  0  0  0  0
 15 14  2  0  0  0  0
 16  1  1  0  0  0  0
 16  8  1  0  0  0  0
 17 22  1  1  0  0  0
 17 23  1  0  0  0  0
 17 18  1  0  0  0  0
 18 26  1  6  0  0  0
 18 20  1  0  0  0  0
 19 20  1  0  0  0  0
 19  6  1  1  0  0  0
 23 19  1  0  0  0  0
 23 21  1  1  0  0  0
 24 26  1  0  0  0  0
 25 24  2  0  0  0  0
 26 27  1  0  0  0  0
 27 28  1  0  0  0  0
 28 29  1  0  0  0  0
 30 32  1  0  0  0  0
 30 31  2  0  0  0  0
 33 35  1  0  0  0  0
 33 32  1  0  0  0  0
 35 37  2  0  0  0  0
 36 34  1  0  0  0  0
 36 35  1  0  0  0  0
 39 38  1  6  0  0  0
 39 36  1  0  0  0  0
 40 39  1  0  0  0  0
 41 44  2  0  0  0  0
 42 44  1  0  0  0  0
 43 40  1  0  0  0  0
 44 43  1  0  0  0  0
 46 45  1  6  0  0  0
 46 48  1  0  0  0  0
 48 47  1  0  0  0  0
 49 46  1  0  0  0  0
 49 50  1  0  0  0  0
 50 51  1  0  0  0  0
 52 53  1  0  0  0  0
 53 51  1  0  0  0  0
M  END
>  <MODEL>
2

>  <REMARK>
 VINA RESULT:      -6.8      1.578      2.230
  Name = 
  18 active torsions:
  status: ('A' for Active; 'I' for Inactive)
    1  A    between atoms: C_1  and  C_47
    2  A    between atoms: C_1  and  N_48
    3  A    between atoms: C_6  and  C_16
    4  A    between atoms: C_6  and  C_26
    5  A    between atoms: C_9  and  C_41
    6  A    between atoms: C_9  and  C_44
    7  A    between atoms: C_9  and  C_50
    8  A    between atoms: C_12  and  N_48
    9  A    between atoms: C_14  and  C_19
   10  A    between atoms: C_16  and  C_18
   11  A    between atoms: C_17  and  C_22
   12  A    between atoms: C_20  and  N_27
   13  A    between atoms: C_20  and  C_31
   14  A    between atoms: C_21  and  C_50
   15  A    between atoms: C_30  and  C_38
   16  A    between atoms: C_31  and  N_42
   17  A    between atoms: C_38  and  C_51
   18  A    between atoms: C_44  and  C_51
                            x       y       z     vdW  Elec       q    Type
                         _______ _______ _______ _____ _____    ______ ____

>  <TORSDO>
F 18

$$$$
=
 OpenBabel11032420333D

 53 55  0  0  1  0  0  0  0  0999 V2000
  183.4180  178.1160  140.9550 C   0  0  0  0  0  2  0  0  0  0  0  0
  189.6900  176.6710  141.9530 N   0  0  0  0  0  2  0  0  0  0  0  0
  182.5820  179.8440  138.7200 C   0  0  0  0  0  3  0  0  0  0  0  0
  189.1380  177.6480  139.8110 C   0  0  0  0  0  0  0  0  0  0  0  0
  181.3200  178.7420  141.8860 O   0  0  0  0  0  0  0  0  0  0  0  0
  186.9180  177.6670  142.7090 C   0  0  0  0  0  3  0  0  0  0  0  0
  190.2060  177.3840  139.1980 O   0  0  0  0  0  0  0  0  0  0  0  0
  183.8830  179.1000  138.6030 C   0  0  1  0  0  3  0  0  0  0  0  0
  181.7560  179.7150  139.7640 C   0  0  0  0  0  0  0  0  0  0  0  0
  188.9480  177.4550  141.2410 C   0  0  0  0  0  0  0  0  0  0  0  0
  182.1180  178.8650  140.9200 C   0  0  0  0  0  0  0  0  0  0  0  0
  187.5530  177.7680  141.5360 C   0  0  0  0  0  0  0  0  0  0  0  0
  187.9030  178.1610  139.1450 C   0  0  0  0  0  2  0  0  0  0  0  0
  185.6600  178.4490  140.1240 C   0  0  0  0  0  0  0  0  0  0  0  0
  186.9370  178.2200  140.2860 C   0  0  0  0  0  0  0  0  0  0  0  0
  184.3860  178.6650  139.9530 C   0  0  0  0  0  0  0  0  0  0  0  0
  187.6840  177.3830  146.2920 C   0  0  1  0  0  3  0  0  0  0  0  0
  188.8730  178.0560  145.6310 C   0  0  2  0  0  3  0  0  0  0  0  0
  187.5790  177.2260  143.9790 C   0  0  1  0  0  3  0  0  0  0  0  0
  188.7410  177.9810  144.2280 O   0  0  0  0  0  0  0  0  0  0  0  0
  185.9040  178.4840  145.1490 O   0  0  0  0  0  1  0  0  0  0  0  0
  187.2310  178.1370  147.3770 O   0  0  0  0  0  1  0  0  0  0  0  0
  186.6680  177.3100  145.1870 C   0  0  2  0  0  3  0  0  0  0  0  0
  190.3570  177.1560  147.4440 C   0  0  0  0  0  3  0  0  0  0  0  0
  191.4290  176.6110  147.8220 O   0  0  0  0  0  0  0  0  0  0  0  0
  190.1260  177.4450  146.0580 N   0  0  0  0  0  0  0  0  0  0  0  0
  191.0910  177.0450  145.0440 C   0  0  0  0  0  2  0  0  0  0  0  0
  192.0390  178.1920  144.7270 C   0  0  0  0  0  2  0  0  0  0  0  0
  191.4630  179.0420  143.7820 O   0  0  0  0  0  1  0  0  0  0  0  0
  184.7570  177.3600  137.1020 C   0  0  0  0  0  3  0  0  0  0  0  0
  183.7020  177.9230  137.6930 C   0  0  0  0  0  3  0  0  0  0  0  0
  184.5750  176.1890  136.1960 C   0  0  0  0  0  2  0  0  0  0  0  0
  183.0940  175.9300  135.9600 C   0  0  0  0  0  2  0  0  0  0  0  0
  181.0710  172.8740  137.2530 C   0  0  0  0  0  1  0  0  0  0  0  0
  182.7210  174.5390  136.3750 C   0  0  0  0  0  0  0  0  0  0  0  0
  181.4380  174.2560  136.9560 N   0  0  0  0  0  0  0  0  0  0  0  0
  183.5480  173.6080  136.1800 O   0  0  0  0  0  0  0  0  0  0  0  0
  179.0610  174.9230  137.0870 C   0  0  0  0  0  1  0  0  0  0  0  0
  180.5120  175.3470  137.2670 C   0  0  1  0  0  3  0  0  0  0  0  0
  180.7920  175.9660  138.6400 C   0  0  0  0  0  2  0  0  0  0  0  0
  179.0170  176.9800  140.7110 O   0  0  0  0  0  0  0  0  0  0  0  0
  178.9310  174.8640  141.5950 O   0  0  0  0  0  1  0  0  0  0  0  0
  180.2870  175.1330  139.7250 N   0  0  0  0  0  2  0  0  0  0  0  0
  179.3860  175.6370  140.7110 C   0  0  0  0  0  0  0  0  0  0  0  0
  180.4590  180.4620  139.7460 C   0  0  0  0  0  2  0  0  0  0  0  0
  180.1600  181.0040  138.3500 C   0  0  1  0  0  3  0  0  0  0  0  0
  179.2580  178.9590  137.1570 C   0  0  0  0  0  1  0  0  0  0  0  0
  178.9320  180.3230  137.7470 C   0  0  0  0  0  2  0  0  0  0  0  0
  180.0040  182.5210  138.3660 C   0  0  0  0  0  2  0  0  0  0  0  0
  181.1930  183.1990  137.6920 C   0  0  0  0  0  2  0  0  0  0  0  0
  180.8720  183.6180  136.2640 C   0  0  0  0  0  2  0  0  0  0  0  0
  179.2940  185.3970  136.2910 O   0  0  0  0  0  1  0  0  0  0  0  0
  180.6560  185.1190  136.1840 C   0  0  0  0  0  2  0  0  0  0  0  0
  3  9  2  0  0  0  0
  4 10  1  0  0  0  0
  7  4  2  0  0  0  0
  8 31  1  6  0  0  0
  8  3  1  0  0  0  0
  8 16  1  0  0  0  0
  9 11  1  0  0  0  0
 10 12  1  0  0  0  0
 10  2  2  0  0  0  0
 11  1  1  0  0  0  0
 11  5  2  0  0  0  0
 12  6  2  0  0  0  0
 13  4  1  0  0  0  0
 13 15  1  0  0  0  0
 14 15  2  0  0  0  0
 15 12  1  0  0  0  0
 16 14  2  0  0  0  0
 16  1  1  0  0  0  0
 17 22  1  1  0  0  0
 18 26  1  1  0  0  0
 18 17  1  0  0  0  0
 19  6  1  6  0  0  0
 19 20  1  0  0  0  0
 19 23  1  0  0  0  0
 20 18  1  0  0  0  0
 23 21  1  6  0  0  0
 23 17  1  0  0  0  0
 24 25  2  0  0  0  0
 26 24  1  0  0  0  0
 27 26  1  0  0  0  0
 28 27  1  0  0  0  0
 29 28  1  0  0  0  0
 30 31  2  0  0  0  0
 32 30  1  0  0  0  0
 33 32  1  0  0  0  0
 33 35  1  0  0  0  0
 35 36  1  0  0  0  0
 36 34  1  0  0  0  0
 36 39  1  0  0  0  0
 37 35  2  0  0  0  0
 39 38  1  1  0  0  0
 39 40  1  0  0  0  0
 40 43  1  0  0  0  0
 43 44  1  0  0  0  0
 44 41  2  0  0  0  0
 44 42  1  0  0  0  0
 45  9  1  0  0  0  0
 46 48  1  1  0  0  0
 46 49  1  0  0  0  0
 46 45  1  0  0  0  0
 47 48  1  0  0  0  0
 50 49  1  0  0  0  0
 51 50  1  0  0  0  0
 53 51  1  0  0  0  0
 53 52  1  0  0  0  0
M  END
>  <MODEL>
3

>  <REMARK>
 VINA RESULT:      -6.7      3.936      9.486
  Name = 
  18 active torsions:
  status: ('A' for Active; 'I' for Inactive)
    1  A    between atoms: C_1  and  C_47
    2  A    between atoms: C_1  and  N_48
    3  A    between atoms: C_6  and  C_16
    4  A    between atoms: C_6  and  C_26
    5  A    between atoms: C_9  and  C_41
    6  A    between atoms: C_9  and  C_44
    7  A    between atoms: C_9  and  C_50
    8  A    between atoms: C_12  and  N_48
    9  A    between atoms: C_14  and  C_19
   10  A    between atoms: C_16  and  C_18
   11  A    between atoms: C_17  and  C_22
   12  A    between atoms: C_20  and  N_27
   13  A    between atoms: C_20  and  C_31
   14  A    between atoms: C_21  and  C_50
   15  A    between atoms: C_30  and  C_38
   16  A    between atoms: C_31  and  N_42
   17  A    between atoms: C_38  and  C_51
   18  A    between atoms: C_44  and  C_51
                            x       y       z     vdW  Elec       q    Type
                         _______ _______ _______ _____ _____    ______ ____

>  <TORSDO>
F 18

$$$$
=
 OpenBabel11032420333D

 53 55  0  0  1  0  0  0  0  0999 V2000
  185.8660  178.4320  138.9750 C   0  0  0  0  0  2  0  0  0  0  0  0
  186.2160  179.0170  145.4520 N   0  0  0  0  0  2  0  0  0  0  0  0
  183.4230  177.4480  137.6570 C   0  0  0  0  0  3  0  0  0  0  0  0
  184.0080  178.7040  144.5170 C   0  0  0  0  0  0  0  0  0  0  0  0
  186.9210  177.7590  136.9510 O   0  0  0  0  0  0  0  0  0  0  0  0
  187.1130  178.0920  142.6980 C   0  0  0  0  0  3  0  0  0  0  0  0
  183.3240  179.0310  145.5230 O   0  0  0  0  0  0  0  0  0  0  0  0
  183.2990  178.0830  139.0130 C   0  0  1  0  0  3  0  0  0  0  0  0
  184.5800  177.3610  136.9910 C   0  0  0  0  0  0  0  0  0  0  0  0
  185.4520  178.5190  144.5360 C   0  0  0  0  0  0  0  0  0  0  0  0
  185.8440  177.8340  137.5990 C   0  0  0  0  0  0  0  0  0  0  0  0
  185.8690  178.2580  143.1610 C   0  0  0  0  0  0  0  0  0  0  0  0
  183.4320  178.4960  143.1540 C   0  0  0  0  0  2  0  0  0  0  0  0
  184.6420  178.1460  141.0350 C   0  0  0  0  0  0  0  0  0  0  0  0
  184.6560  178.2140  142.3410 C   0  0  0  0  0  0  0  0  0  0  0  0
  184.6210  178.0940  139.7330 C   0  0  0  0  0  0  0  0  0  0  0  0
  190.6200  177.7500  143.7420 C   0  0  1  0  0  3  0  0  0  0  0  0
  189.8240  176.6970  144.4900 C   0  0  2  0  0  3  0  0  0  0  0  0
  188.3350  178.1170  143.5640 C   0  0  1  0  0  3  0  0  0  0  0  0
  188.4440  176.9300  144.3130 O   0  0  0  0  0  0  0  0  0  0  0  0
  189.5980  177.5850  141.5940 O   0  0  0  0  0  1  0  0  0  0  0  0
  191.7080  177.1720  143.0850 O   0  0  0  0  0  1  0  0  0  0  0  0
  189.6170  178.3270  142.7830 C   0  0  2  0  0  3  0  0  0  0  0  0
  191.5320  176.7280  146.3300 C   0  0  0  0  0  3  0  0  0  0  0  0
  191.8350  176.7450  147.5530 O   0  0  0  0  0  0  0  0  0  0  0  0
  190.1610  176.6950  145.9100 N   0  0  0  0  0  0  0  0  0  0  0  0
  189.0820  176.7590  146.8850 C   0  0  0  0  0  2  0  0  0  0  0  0
  188.8720  178.1910  147.3550 C   0  0  0  0  0  2  0  0  0  0  0  0
  189.1020  178.2820  148.7280 O   0  0  0  0  0  1  0  0  0  0  0  0
  181.6410  179.8320  139.4970 C   0  0  0  0  0  3  0  0  0  0  0  0
  182.7580  179.4720  138.8650 C   0  0  0  0  0  3  0  0  0  0  0  0
  181.1030  181.2160  139.3470 C   0  0  0  0  0  2  0  0  0  0  0  0
  179.8170  181.1960  138.5350 C   0  0  0  0  0  2  0  0  0  0  0  0
  180.7840  182.2880  134.9340 C   0  0  0  0  0  1  0  0  0  0  0  0
  180.1110  181.1650  137.0660 C   0  0  0  0  0  0  0  0  0  0  0  0
  180.4020  182.3690  136.3410 N   0  0  0  0  0  0  0  0  0  0  0  0
  180.1240  180.0500  136.4770 O   0  0  0  0  0  0  0  0  0  0  0  0
  181.6620  184.3280  137.1710 C   0  0  0  0  0  1  0  0  0  0  0  0
  180.2980  183.6720  137.0020 C   0  0  1  0  0  3  0  0  0  0  0  0
  179.2730  184.5830  136.3210 C   0  0  0  0  0  2  0  0  0  0  0  0
  178.9310  184.7700  139.2050 O   0  0  0  0  0  1  0  0  0  0  0  0
  178.9380  187.0560  139.0020 O   0  0  0  0  0  0  0  0  0  0  0  0
  179.1290  185.8560  137.0180 N   0  0  0  0  0  2  0  0  0  0  0  0
  179.0010  185.9310  138.4390 C   0  0  0  0  0  0  0  0  0  0  0  0
  184.5740  176.7590  135.6210 C   0  0  0  0  0  2  0  0  0  0  0  0
  184.7160  175.2400  135.6920 C   0  0  1  0  0  3  0  0  0  0  0  0
  187.1430  174.5820  135.3780 C   0  0  0  0  0  1  0  0  0  0  0  0
  185.7820  174.7410  134.7160 C   0  0  0  0  0  2  0  0  0  0  0  0
  185.0060  174.7770  137.1170 C   0  0  0  0  0  2  0  0  0  0  0  0
  183.8550  173.9370  137.6610 C   0  0  0  0  0  2  0  0  0  0  0  0
  183.2130  173.0850  136.5760 C   0  0  0  0  0  2  0  0  0  0  0  0
  183.5540  170.7380  136.7490 O   0  0  0  0  0  1  0  0  0  0  0  0
  182.7120  171.7730  137.1540 C   0  0  0  0  0  2  0  0  0  0  0  0
  1 16  1  0  0  0  0
  3  8  1  0  0  0  0
  4 10  1  0  0  0  0
  4  7  2  0  0  0  0
  5 11  2  0  0  0  0
  6 12  2  0  0  0  0
  8 31  1  6  0  0  0
  8 16  1  0  0  0  0
  9 11  1  0  0  0  0
  9  3  2  0  0  0  0
 10  2  2  0  0  0  0
 11  1  1  0  0  0  0
 12 10  1  0  0  0  0
 13  4  1  0  0  0  0
 14 15  2  0  0  0  0
 15 13  1  0  0  0  0
 15 12  1  0  0  0  0
 16 14  2  0  0  0  0
 17 22  1  6  0  0  0
 17 18  1  0  0  0  0
 18 26  1  1  0  0  0
 19  6  1  6  0  0  0
 19 20  1  0  0  0  0
 20 18  1  0  0  0  0
 23 21  1  6  0  0  0
 23 19  1  0  0  0  0
 23 17  1  0  0  0  0
 24 25  2  0  0  0  0
 26 24  1  0  0  0  0
 26 27  1  0  0  0  0
 27 28  1  0  0  0  0
 28 29  1  0  0  0  0
 31 30  2  0  0  0  0
 32 30  1  0  0  0  0
 33 32  1  0  0  0  0
 34 36  1  0  0  0  0
 35 33  1  0  0  0  0
 36 39  1  0  0  0  0
 36 35  1  0  0  0  0
 37 35  2  0  0  0  0
 39 38  1  6  0  0  0
 40 39  1  0  0  0  0
 40 43  1  0  0  0  0
 43 44  1  0  0  0  0
 44 42  2  0  0  0  0
 44 41  1  0  0  0  0
 45 46  1  0  0  0  0
 45  9  1  0  0  0  0
 46 48  1  6  0  0  0
 46 49  1  0  0  0  0
 48 47  1  0  0  0  0
 49 50  1  0  0  0  0
 51 53  1  0  0  0  0
 51 50  1  0  0  0  0
 52 53  1  0  0  0  0
M  END
>  <MODEL>
4

>  <REMARK>
 VINA RESULT:      -6.6      4.532      9.449
  Name = 
  18 active torsions:
  status: ('A' for Active; 'I' for Inactive)
    1  A    between atoms: C_1  and  C_47
    2  A    between atoms: C_1  and  N_48
    3  A    between atoms: C_6  and  C_16
    4  A    between atoms: C_6  and  C_26
    5  A    between atoms: C_9  and  C_41
    6  A    between atoms: C_9  and  C_44
    7  A    between atoms: C_9  and  C_50
    8  A    between atoms: C_12  and  N_48
    9  A    between atoms: C_14  and  C_19
   10  A    between atoms: C_16  and  C_18
   11  A    between atoms: C_17  and  C_22
   12  A    between atoms: C_20  and  N_27
   13  A    between atoms: C_20  and  C_31
   14  A    between atoms: C_21  and  C_50
   15  A    between atoms: C_30  and  C_38
   16  A    between atoms: C_31  and  N_42
   17  A    between atoms: C_38  and  C_51
   18  A    between atoms: C_44  and  C_51
                            x       y       z     vdW  Elec       q    Type
                         _______ _______ _______ _____ _____    ______ ____

>  <TORSDO>
F 18

$$$$
=
 OpenBabel11032420333D

 53 55  0  0  1  0  0  0  0  0999 V2000
  185.8030  178.6310  139.5700 C   0  0  0  0  0  2  0  0  0  0  0  0
  186.4470  178.8970  146.0460 N   0  0  0  0  0  2  0  0  0  0  0  0
  183.3010  177.7110  138.3170 C   0  0  0  0  0  3  0  0  0  0  0  0
  184.1980  178.6290  145.1970 C   0  0  0  0  0  0  0  0  0  0  0  0
  186.7640  178.0600  137.4700 O   0  0  0  0  0  0  0  0  0  0  0  0
  187.2170  178.1110  143.2120 C   0  0  0  0  0  3  0  0  0  0  0  0
  183.5610  178.9060  146.2480 O   0  0  0  0  0  0  0  0  0  0  0  0
  183.2400  178.2790  139.7080 C   0  0  1  0  0  3  0  0  0  0  0  0
  184.4270  177.6580  137.5970 C   0  0  0  0  0  0  0  0  0  0  0  0
  185.6410  178.4450  145.1420 C   0  0  0  0  0  0  0  0  0  0  0  0
  185.7180  178.1020  138.1690 C   0  0  0  0  0  0  0  0  0  0  0  0
  185.9960  178.2520  143.7390 C   0  0  0  0  0  0  0  0  0  0  0  0
  183.5610  178.4880  143.8540 C   0  0  0  0  0  2  0  0  0  0  0  0
  184.6730  178.2430  141.6670 C   0  0  0  0  0  0  0  0  0  0  0  0
  184.7470  178.2470  142.9730 C   0  0  0  0  0  0  0  0  0  0  0  0
  184.5930  178.2550  140.3670 C   0  0  0  0  0  0  0  0  0  0  0  0
  190.7840  177.8440  144.0540 C   0  0  1  0  0  3  0  0  0  0  0  0
  190.0830  176.6560  144.6870 C   0  0  2  0  0  3  0  0  0  0  0  0
  188.4770  178.0940  144.0220 C   0  0  1  0  0  3  0  0  0  0  0  0
  188.6850  176.8270  144.6000 O   0  0  0  0  0  0  0  0  0  0  0  0
  189.6680  177.9010  141.9470 O   0  0  0  0  0  1  0  0  0  0  0  0
  191.8680  177.4220  143.2800 O   0  0  0  0  0  1  0  0  0  0  0  0
  189.7060  178.4800  143.2230 C   0  0  2  0  0  3  0  0  0  0  0  0
  191.8730  176.3140  146.4140 C   0  0  0  0  0  3  0  0  0  0  0  0
  192.2370  176.1860  147.6140 O   0  0  0  0  0  0  0  0  0  0  0  0
  190.4890  176.4880  146.0780 N   0  0  0  0  0  0  0  0  0  0  0  0
  189.4780  176.5990  147.1200 C   0  0  0  0  0  2  0  0  0  0  0  0
  189.3580  178.0400  147.5940 C   0  0  0  0  0  2  0  0  0  0  0  0
  188.6090  178.0960  148.7710 O   0  0  0  0  0  1  0  0  0  0  0  0
  182.6400  180.3300  138.4930 C   0  0  0  0  0  3  0  0  0  0  0  0
  182.6940  179.6730  139.6520 C   0  0  0  0  0  3  0  0  0  0  0  0
  182.0970  181.7180  138.4400 C   0  0  0  0  0  2  0  0  0  0  0  0
  180.5830  181.6860  138.2880 C   0  0  0  0  0  2  0  0  0  0  0  0
  179.1690  179.0090  135.8530 C   0  0  0  0  0  1  0  0  0  0  0  0
  180.1850  180.9660  137.0360 C   0  0  0  0  0  0  0  0  0  0  0  0
  179.6400  179.6380  137.0840 N   0  0  0  0  0  0  0  0  0  0  0  0
  180.3130  181.5600  135.9310 O   0  0  0  0  0  0  0  0  0  0  0  0
  178.9310  179.7510  139.4500 C   0  0  0  0  0  1  0  0  0  0  0  0
  179.5760  178.9130  138.3550 C   0  0  1  0  0  3  0  0  0  0  0  0
  178.9310  177.5320  138.1970 C   0  0  0  0  0  2  0  0  0  0  0  0
  179.6670  176.6240  140.8610 O   0  0  0  0  0  1  0  0  0  0  0  0
  180.9950  175.0250  139.8900 O   0  0  0  0  0  0  0  0  0  0  0  0
  179.8870  176.4560  138.4280 N   0  0  0  0  0  2  0  0  0  0  0  0
  180.2080  175.9960  139.7420 C   0  0  0  0  0  0  0  0  0  0  0  0
  184.3580  177.1240  136.2000 C   0  0  0  0  0  2  0  0  0  0  0  0
  184.6620  175.6270  136.1730 C   0  0  1  0  0  3  0  0  0  0  0  0
  182.8580  173.9370  135.6190 C   0  0  0  0  0  1  0  0  0  0  0  0
  183.4770  174.8160  136.6950 C   0  0  0  0  0  2  0  0  0  0  0  0
  185.0760  175.1720  134.7770 C   0  0  0  0  0  2  0  0  0  0  0  0
  186.5870  175.2770  134.5960 C   0  0  0  0  0  2  0  0  0  0  0  0
  187.3320  175.0500  135.9040 C   0  0  0  0  0  2  0  0  0  0  0  0
  189.2180  173.9860  136.8850 O   0  0  0  0  0  1  0  0  0  0  0  0
  188.6020  174.2530  135.6630 C   0  0  0  0  0  2  0  0  0  0  0  0
  1 16  1  0  0  0  0
  3  8  1  0  0  0  0
  4  7  2  0  0  0  0
  5 11  2  0  0  0  0
  6 12  2  0  0  0  0
  8 31  1  6  0  0  0
  8 16  1  0  0  0  0
  9 11  1  0  0  0  0
  9  3  2  0  0  0  0
 10  4  1  0  0  0  0
 10  2  2  0  0  0  0
 11  1  1  0  0  0  0
 12 10  1  0  0  0  0
 13  4  1  0  0  0  0
 14 15  2  0  0  0  0
 15 12  1  0  0  0  0
 15 13  1  0  0  0  0
 16 14  2  0  0  0  0
 17 22  1  6  0  0  0
 17 18  1  0  0  0  0
 18 26  1  1  0  0  0
 19  6  1  6  0  0  0
 19 20  1  0  0  0  0
 20 18  1  0  0  0  0
 23 21  1  6  0  0  0
 23 19  1  0  0  0  0
 23 17  1  0  0  0  0
 24 25  2  0  0  0  0
 26 24  1  0  0  0  0
 26 27  1  0  0  0  0
 27 28  1  0  0  0  0
 28 29  1  0  0  0  0
 30 31  2  0  0  0  0
 32 30  1  0  0  0  0
 33 32  1  0  0  0  0
 34 36  1  0  0  0  0
 35 36  1  0  0  0  0
 35 33  1  0  0  0  0
 36 39  1  0  0  0  0
 37 35  2  0  0  0  0
 39 38  1  1  0  0  0
 40 39  1  0  0  0  0
 40 43  1  0  0  0  0
 43 44  1  0  0  0  0
 44 42  2  0  0  0  0
 44 41  1  0  0  0  0
 45  9  1  0  0  0  0
 46 49  1  6  0  0  0
 46 45  1  0  0  0  0
 46 48  1  0  0  0  0
 47 48  1  0  0  0  0
 50 49  1  0  0  0  0
 50 51  1  0  0  0  0
 53 51  1  0  0  0  0
 53 52  1  0  0  0  0
M  END
>  <MODEL>
5

>  <REMARK>
 VINA RESULT:      -6.4      3.835      9.186
  Name = 
  18 active torsions:
  status: ('A' for Active; 'I' for Inactive)
    1  A    between atoms: C_1  and  C_47
    2  A    between atoms: C_1  and  N_48
    3  A    between atoms: C_6  and  C_16
    4  A    between atoms: C_6  and  C_26
    5  A    between atoms: C_9  and  C_41
    6  A    between atoms: C_9  and  C_44
    7  A    between atoms: C_9  and  C_50
    8  A    between atoms: C_12  and  N_48
    9  A    between atoms: C_14  and  C_19
   10  A    between atoms: C_16  and  C_18
   11  A    between atoms: C_17  and  C_22
   12  A    between atoms: C_20  and  N_27
   13  A    between atoms: C_20  and  C_31
   14  A    between atoms: C_21  and  C_50
   15  A    between atoms: C_30  and  C_38
   16  A    between atoms: C_31  and  N_42
   17  A    between atoms: C_38  and  C_51
   18  A    between atoms: C_44  and  C_51
                            x       y       z     vdW  Elec       q    Type
                         _______ _______ _______ _____ _____    ______ ____

>  <TORSDO>
F 18

$$$$
=
 OpenBabel11032420333D

 53 55  0  0  1  0  0  0  0  0999 V2000
  185.8010  178.6340  139.5700 C   0  0  0  0  0  2  0  0  0  0  0  0
  186.3410  178.9620  146.0520 N   0  0  0  0  0  2  0  0  0  0  0  0
  183.3160  177.7130  138.2860 C   0  0  0  0  0  3  0  0  0  0  0  0
  184.1050  178.6960  145.1700 C   0  0  0  0  0  0  0  0  0  0  0  0
  186.7940  178.0370  137.4910 O   0  0  0  0  0  0  0  0  0  0  0  0
  187.1540  178.1430  143.2390 C   0  0  0  0  0  3  0  0  0  0  0  0
  183.4530  178.9860  146.2070 O   0  0  0  0  0  0  0  0  0  0  0  0
  183.2340  178.2950  139.6690 C   0  0  1  0  0  3  0  0  0  0  0  0
  184.4520  177.6470  137.5840 C   0  0  0  0  0  0  0  0  0  0  0  0
  185.5480  178.5040  145.1390 C   0  0  0  0  0  0  0  0  0  0  0  0
  185.7360  178.0900  138.1730 C   0  0  0  0  0  0  0  0  0  0  0  0
  185.9240  178.2960  143.7440 C   0  0  0  0  0  0  0  0  0  0  0  0
  183.4890  178.5440  143.8170 C   0  0  0  0  0  2  0  0  0  0  0  0
  184.6350  178.2720  141.6520 C   0  0  0  0  0  0  0  0  0  0  0  0
  184.6880  178.2890  142.9580 C   0  0  0  0  0  0  0  0  0  0  0  0
  184.5760  178.2710  140.3500 C   0  0  0  0  0  0  0  0  0  0  0  0
  190.7040  177.8650  144.1420 C   0  0  1  0  0  3  0  0  0  0  0  0
  189.9860  176.6890  144.7770 C   0  0  2  0  0  3  0  0  0  0  0  0
  188.4000  178.1290  144.0690 C   0  0  1  0  0  3  0  0  0  0  0  0
  188.5910  176.8680  144.6650 O   0  0  0  0  0  0  0  0  0  0  0  0
  189.6230  177.9040  142.0170 O   0  0  0  0  0  1  0  0  0  0  0  0
  191.7980  177.4270  143.3910 O   0  0  0  0  0  1  0  0  0  0  0  0
  189.6440  178.4980  143.2860 C   0  0  2  0  0  3  0  0  0  0  0  0
  191.7450  176.3530  146.5370 C   0  0  0  0  0  3  0  0  0  0  0  0
  192.0890  176.2370  147.7440 O   0  0  0  0  0  0  0  0  0  0  0  0
  190.3690  176.5350  146.1770 N   0  0  0  0  0  0  0  0  0  0  0  0
  189.3430  176.6690  147.2010 C   0  0  0  0  0  2  0  0  0  0  0  0
  189.2240  178.1180  147.6500 C   0  0  0  0  0  2  0  0  0  0  0  0
  188.4570  178.1970  148.8140 O   0  0  0  0  0  1  0  0  0  0  0  0
  182.6620  180.3350  138.4240 C   0  0  0  0  0  3  0  0  0  0  0  0
  182.6960  179.6910  139.5910 C   0  0  0  0  0  3  0  0  0  0  0  0
  182.1260  181.7260  138.3480 C   0  0  0  0  0  2  0  0  0  0  0  0
  180.6150  181.6990  138.1790 C   0  0  0  0  0  2  0  0  0  0  0  0
  179.2150  178.9960  135.7640 C   0  0  0  0  0  1  0  0  0  0  0  0
  180.2280  180.9640  136.9320 C   0  0  0  0  0  0  0  0  0  0  0  0
  179.6740  179.6400  136.9910 N   0  0  0  0  0  0  0  0  0  0  0  0
  180.3720  181.5420  135.8200 O   0  0  0  0  0  0  0  0  0  0  0  0
  178.9450  179.7940  139.3490 C   0  0  0  0  0  1  0  0  0  0  0  0
  179.5900  178.9330  138.2710 C   0  0  1  0  0  3  0  0  0  0  0  0
  178.9310  177.5580  138.1270 C   0  0  0  0  0  2  0  0  0  0  0  0
  179.6330  176.6800  140.8100 O   0  0  0  0  0  1  0  0  0  0  0  0
  180.9500  175.0510  139.8730 O   0  0  0  0  0  0  0  0  0  0  0  0
  179.8720  176.4740  138.3820 N   0  0  0  0  0  2  0  0  0  0  0  0
  180.1760  176.0300  139.7050 C   0  0  0  0  0  0  0  0  0  0  0  0
  184.4030  177.0990  136.1910 C   0  0  0  0  0  2  0  0  0  0  0  0
  184.7030  175.6020  136.1840 C   0  0  1  0  0  3  0  0  0  0  0  0
  187.0870  174.7460  136.2100 C   0  0  0  0  0  1  0  0  0  0  0  0
  185.9530  175.2950  135.3590 C   0  0  0  0  0  2  0  0  0  0  0  0
  184.8250  175.0540  137.6030 C   0  0  0  0  0  2  0  0  0  0  0  0
  183.7840  173.9690  137.8590 C   0  0  0  0  0  2  0  0  0  0  0  0
  183.4490  173.1960  136.5910 C   0  0  0  0  0  2  0  0  0  0  0  0
  182.0230  171.3010  136.4060 O   0  0  0  0  0  1  0  0  0  0  0  0
  183.2570  171.7210  136.9010 C   0  0  0  0  0  2  0  0  0  0  0  0
  1 16  1  0  0  0  0
  3  8  1  0  0  0  0
  4  7  2  0  0  0  0
  5 11  2  0  0  0  0
  6 12  2  0  0  0  0
  8 31  1  6  0  0  0
  8 16  1  0  0  0  0
  9 11  1  0  0  0  0
  9  3  2  0  0  0  0
 10  4  1  0  0  0  0
 10  2  2  0  0  0  0
 11  1  1  0  0  0  0
 12 10  1  0  0  0  0
 13  4  1  0  0  0  0
 14 15  2  0  0  0  0
 15 12  1  0  0  0  0
 15 13  1  0  0  0  0
 16 14  2  0  0  0  0
 17 22  1  6  0  0  0
 17 18  1  0  0  0  0
 18 26  1  1  0  0  0
 19  6  1  6  0  0  0
 19 20  1  0  0  0  0
 20 18  1  0  0  0  0
 23 21  1  6  0  0  0
 23 19  1  0  0  0  0
 23 17  1  0  0  0  0
 24 25  2  0  0  0  0
 26 24  1  0  0  0  0
 26 27  1  0  0  0  0
 27 28  1  0  0  0  0
 28 29  1  0  0  0  0
 30 31  2  0  0  0  0
 32 30  1  0  0  0  0
 33 32  1  0  0  0  0
 34 36  1  0  0  0  0
 35 36  1  0  0  0  0
 35 33  1  0  0  0  0
 36 39  1  0  0  0  0
 37 35  2  0  0  0  0
 39 38  1  1  0  0  0
 40 39  1  0  0  0  0
 40 43  1  0  0  0  0
 43 44  1  0  0  0  0
 44 42  2  0  0  0  0
 44 41  1  0  0  0  0
 45  9  1  0  0  0  0
 46 48  1  6  0  0  0
 46 45  1  0  0  0  0
 46 49  1  0  0  0  0
 48 47  1  0  0  0  0
 49 50  1  0  0  0  0
 51 53  1  0  0  0  0
 51 50  1  0  0  0  0
 52 53  1  0  0  0  0
M  END
>  <MODEL>
6

>  <REMARK>
 VINA RESULT:      -6.3      4.535      9.080
  Name = 
  18 active torsions:
  status: ('A' for Active; 'I' for Inactive)
    1  A    between atoms: C_1  and  C_47
    2  A    between atoms: C_1  and  N_48
    3  A    between atoms: C_6  and  C_16
    4  A    between atoms: C_6  and  C_26
    5  A    between atoms: C_9  and  C_41
    6  A    between atoms: C_9  and  C_44
    7  A    between atoms: C_9  and  C_50
    8  A    between atoms: C_12  and  N_48
    9  A    between atoms: C_14  and  C_19
   10  A    between atoms: C_16  and  C_18
   11  A    between atoms: C_17  and  C_22
   12  A    between atoms: C_20  and  N_27
   13  A    between atoms: C_20  and  C_31
   14  A    between atoms: C_21  and  C_50
   15  A    between atoms: C_30  and  C_38
   16  A    between atoms: C_31  and  N_42
   17  A    between atoms: C_38  and  C_51
   18  A    between atoms: C_44  and  C_51
                            x       y       z     vdW  Elec       q    Type
                         _______ _______ _______ _____ _____    ______ ____

>  <TORSDO>
F 18

$$$$
=
 OpenBabel11032420333D

 53 55  0  0  1  0  0  0  0  0999 V2000
  183.4940  178.1550  141.0540 C   0  0  0  0  0  2  0  0  0  0  0  0
  189.7900  176.7570  141.9640 N   0  0  0  0  0  2  0  0  0  0  0  0
  182.6150  179.8840  138.8370 C   0  0  0  0  0  3  0  0  0  0  0  0
  189.2010  177.7380  139.8330 C   0  0  0  0  0  0  0  0  0  0  0  0
  181.4030  178.7600  142.0160 O   0  0  0  0  0  0  0  0  0  0  0  0
  187.0210  177.7280  142.7600 C   0  0  0  0  0  3  0  0  0  0  0  0
  190.2630  177.4850  139.2040 O   0  0  0  0  0  0  0  0  0  0  0  0
  183.9200  179.1500  138.7000 C   0  0  1  0  0  3  0  0  0  0  0  0
  181.8030  179.7440  139.8910 C   0  0  0  0  0  0  0  0  0  0  0  0
  189.0320  177.5380  141.2650 C   0  0  0  0  0  0  0  0  0  0  0  0
  182.1880  178.8930  141.0400 C   0  0  0  0  0  0  0  0  0  0  0  0
  187.6390  177.8390  141.5790 C   0  0  0  0  0  0  0  0  0  0  0  0
  187.9540  178.2430  139.1850 C   0  0  0  0  0  2  0  0  0  0  0  0
  185.7220  178.5090  140.1950 C   0  0  0  0  0  0  0  0  0  0  0  0
  187.0020  178.2900  140.3390 C   0  0  0  0  0  0  0  0  0  0  0  0
  184.4440  178.7150  140.0420 C   0  0  0  0  0  0  0  0  0  0  0  0
  187.8770  177.4830  146.3250 C   0  0  1  0  0  3  0  0  0  0  0  0
  189.0680  178.1040  145.6200 C   0  0  2  0  0  3  0  0  0  0  0  0
  187.7020  177.2880  144.0190 C   0  0  1  0  0  3  0  0  0  0  0  0
  188.8950  178.0080  144.2220 O   0  0  0  0  0  0  0  0  0  0  0  0
  186.1030  178.6220  145.2110 O   0  0  0  0  0  1  0  0  0  0  0  0
  187.4800  178.2710  147.4080 O   0  0  0  0  0  1  0  0  0  0  0  0
  186.8280  177.4240  145.2510 C   0  0  2  0  0  3  0  0  0  0  0  0
  190.5470  177.1330  147.4010 C   0  0  0  0  0  3  0  0  0  0  0  0
  191.6100  176.5590  147.7590 O   0  0  0  0  0  0  0  0  0  0  0  0
  190.3120  177.4580  146.0240 N   0  0  0  0  0  0  0  0  0  0  0  0
  191.2620  177.0630  144.9930 C   0  0  0  0  0  2  0  0  0  0  0  0
  192.0770  178.2620  144.5310 C   0  0  0  0  0  2  0  0  0  0  0  0
  191.2270  179.3180  144.1970 O   0  0  0  0  0  1  0  0  0  0  0  0
  182.5260  177.4480  137.6040 C   0  0  0  0  0  3  0  0  0  0  0  0
  183.7370  177.9760  137.7880 C   0  0  0  0  0  3  0  0  0  0  0  0
  182.3460  176.2780  136.6950 C   0  0  0  0  0  2  0  0  0  0  0  0
  182.5690  174.9800  137.4570 C   0  0  0  0  0  2  0  0  0  0  0  0
  184.2000  172.1630  135.3350 C   0  0  0  0  0  1  0  0  0  0  0  0
  182.7530  173.8300  136.5140 C   0  0  0  0  0  0  0  0  0  0  0  0
  184.0630  173.3480  136.1760 N   0  0  0  0  0  0  0  0  0  0  0  0
  181.7290  173.2710  136.0370 O   0  0  0  0  0  0  0  0  0  0  0  0
  186.2770  173.0920  137.2480 C   0  0  0  0  0  1  0  0  0  0  0  0
  185.2540  174.0530  136.6560 C   0  0  1  0  0  3  0  0  0  0  0  0
  185.8460  174.9760  135.5870 C   0  0  0  0  0  2  0  0  0  0  0  0
  187.0330  177.6240  135.8050 O   0  0  0  0  0  0  0  0  0  0  0  0
  189.0680  176.6240  136.1510 O   0  0  0  0  0  1  0  0  0  0  0  0
  187.2760  175.1880  135.7820 N   0  0  0  0  0  2  0  0  0  0  0  0
  187.8360  176.4940  135.9260 C   0  0  0  0  0  0  0  0  0  0  0  0
  180.5000  180.4810  139.8940 C   0  0  0  0  0  2  0  0  0  0  0  0
  180.1840  181.0350  138.5060 C   0  0  1  0  0  3  0  0  0  0  0  0
  179.0760  178.8530  137.8490 C   0  0  0  0  0  1  0  0  0  0  0  0
  178.9420  180.3670  137.9160 C   0  0  0  0  0  2  0  0  0  0  0  0
  180.0390  182.5530  138.5360 C   0  0  0  0  0  2  0  0  0  0  0  0
  179.5320  183.0790  137.1970 C   0  0  0  0  0  2  0  0  0  0  0  0
  180.1420  184.4300  136.8510 C   0  0  0  0  0  2  0  0  0  0  0  0
  180.9420  183.0510  135.0860 O   0  0  0  0  0  1  0  0  0  0  0  0
  180.8150  184.3790  135.4900 C   0  0  0  0  0  2  0  0  0  0  0  0
  3  9  2  0  0  0  0
  4 10  1  0  0  0  0
  7  4  2  0  0  0  0
  8 31  1  6  0  0  0
  8  3  1  0  0  0  0
  8 16  1  0  0  0  0
  9 45  1  0  0  0  0
  9 11  1  0  0  0  0
 10 12  1  0  0  0  0
 10  2  2  0  0  0  0
 11  1  1  0  0  0  0
 11  5  2  0  0  0  0
 12  6  2  0  0  0  0
 13  4  1  0  0  0  0
 13 15  1  0  0  0  0
 14 15  2  0  0  0  0
 15 12  1  0  0  0  0
 16 14  2  0  0  0  0
 16  1  1  0  0  0  0
 17 22  1  1  0  0  0
 18 26  1  1  0  0  0
 18 17  1  0  0  0  0
 19  6  1  6  0  0  0
 19 20  1  0  0  0  0
 19 23  1  0  0  0  0
 20 18  1  0  0  0  0
 23 21  1  6  0  0  0
 23 17  1  0  0  0  0
 24 25  2  0  0  0  0
 26 24  1  0  0  0  0
 27 26  1  0  0  0  0
 28 27  1  0  0  0  0
 29 28  1  0  0  0  0
 30 31  2  0  0  0  0
 32 33  1  0  0  0  0
 32 30  1  0  0  0  0
 34 36  1  0  0  0  0
 35 33  1  0  0  0  0
 36 35  1  0  0  0  0
 36 39  1  0  0  0  0
 37 35  2  0  0  0  0
 39 38  1  6  0  0  0
 40 43  1  0  0  0  0
 40 39  1  0  0  0  0
 41 44  2  0  0  0  0
 43 44  1  0  0  0  0
 44 42  1  0  0  0  0
 46 48  1  1  0  0  0
 46 49  1  0  0  0  0
 46 45  1  0  0  0  0
 47 48  1  0  0  0  0
 50 49  1  0  0  0  0
 51 50  1  0  0  0  0
 52 53  1  0  0  0  0
 53 51  1  0  0  0  0
M  END
>  <MODEL>
7

>  <REMARK>
 VINA RESULT:      -6.2      3.756      9.668
  Name = 
  18 active torsions:
  status: ('A' for Active; 'I' for Inactive)
    1  A    between atoms: C_1  and  C_47
    2  A    between atoms: C_1  and  N_48
    3  A    between atoms: C_6  and  C_16
    4  A    between atoms: C_6  and  C_26
    5  A    between atoms: C_9  and  C_41
    6  A    between atoms: C_9  and  C_44
    7  A    between atoms: C_9  and  C_50
    8  A    between atoms: C_12  and  N_48
    9  A    between atoms: C_14  and  C_19
   10  A    between atoms: C_16  and  C_18
   11  A    between atoms: C_17  and  C_22
   12  A    between atoms: C_20  and  N_27
   13  A    between atoms: C_20  and  C_31
   14  A    between atoms: C_21  and  C_50
   15  A    between atoms: C_30  and  C_38
   16  A    between atoms: C_31  and  N_42
   17  A    between atoms: C_38  and  C_51
   18  A    between atoms: C_44  and  C_51
                            x       y       z     vdW  Elec       q    Type
                         _______ _______ _______ _____ _____    ______ ____

>  <TORSDO>
F 18

$$$$
=
 OpenBabel11032420333D

 53 55  0  0  1  0  0  0  0  0999 V2000
  188.5070  174.7130  136.9210 C   0  0  0  0  0  2  0  0  0  0  0  0
  182.1920  175.4410  138.3400 N   0  0  0  0  0  2  0  0  0  0  0  0
  190.1650  177.0040  136.0980 C   0  0  0  0  0  3  0  0  0  0  0  0
  183.5040  177.4670  138.1980 C   0  0  0  0  0  0  0  0  0  0  0  0
  190.1960  173.4310  135.8420 O   0  0  0  0  0  0  0  0  0  0  0  0
  184.5960  174.2210  136.9350 C   0  0  0  0  0  3  0  0  0  0  0  0
  182.6950  178.2600  138.7490 O   0  0  0  0  0  0  0  0  0  0  0  0
  188.9370  177.2680  136.9250 C   0  0  1  0  0  3  0  0  0  0  0  0
  190.5750  175.7750  135.7670 C   0  0  0  0  0  0  0  0  0  0  0  0
  183.1810  176.0970  137.8270 C   0  0  0  0  0  0  0  0  0  0  0  0
  189.7860  174.5820  136.1480 C   0  0  0  0  0  0  0  0  0  0  0  0
  184.4090  175.4860  137.3260 C   0  0  0  0  0  0  0  0  0  0  0  0
  184.9220  177.8150  137.8830 C   0  0  0  0  0  2  0  0  0  0  0  0
  186.7100  176.3160  137.0870 C   0  0  0  0  0  0  0  0  0  0  0  0
  185.4430  176.5240  137.3310 C   0  0  0  0  0  0  0  0  0  0  0  0
  187.9770  176.1120  136.8590 C   0  0  0  0  0  0  0  0  0  0  0  0
  182.9170  170.9820  136.5000 C   0  0  1  0  0  3  0  0  0  0  0  0
  182.3600  171.9210  135.4470 C   0  0  2  0  0  3  0  0  0  0  0  0
  183.5150  173.1850  136.9160 C   0  0  1  0  0  3  0  0  0  0  0  0
  182.7900  173.2390  135.7110 O   0  0  0  0  0  0  0  0  0  0  0  0
  185.2230  171.5800  136.4030 O   0  0  0  0  0  1  0  0  0  0  0  0
  183.3710  169.7980  135.9150 O   0  0  0  0  0  1  0  0  0  0  0  0
  184.0340  171.7750  137.1170 C   0  0  2  0  0  3  0  0  0  0  0  0
  180.2400  170.8520  134.6290 C   0  0  0  0  0  3  0  0  0  0  0  0
  178.9830  170.7780  134.6020 O   0  0  0  0  0  0  0  0  0  0  0  0
  180.9030  171.8590  135.4070 N   0  0  0  0  0  0  0  0  0  0  0  0
  180.1410  172.7730  136.2460 C   0  0  0  0  0  2  0  0  0  0  0  0
  179.6110  172.0510  137.4760 C   0  0  0  0  0  2  0  0  0  0  0  0
  179.3670  172.9670  138.5000 O   0  0  0  0  0  1  0  0  0  0  0  0
  188.5430  178.2550  139.1420 C   0  0  0  0  0  3  0  0  0  0  0  0
  189.3420  177.5500  138.3400 C   0  0  0  0  0  3  0  0  0  0  0  0
  188.9480  178.5350  140.5500 C   0  0  0  0  0  2  0  0  0  0  0  0
  189.4100  177.2540  141.2300 C   0  0  0  0  0  2  0  0  0  0  0  0
  190.8260  177.8090  144.8060 C   0  0  0  0  0  1  0  0  0  0  0  0
  190.3420  177.5560  142.3640 C   0  0  0  0  0  0  0  0  0  0  0  0
  189.8710  177.6140  143.7190 N   0  0  0  0  0  0  0  0  0  0  0  0
  191.5640  177.7340  142.1090 O   0  0  0  0  0  0  0  0  0  0  0  0
  187.8900  176.1390  143.5950 C   0  0  0  0  0  1  0  0  0  0  0  0
  188.4390  177.4980  144.0070 C   0  0  1  0  0  3  0  0  0  0  0  0
  188.1130  177.8620  145.4590 C   0  0  0  0  0  2  0  0  0  0  0  0
  186.9600  178.4800  148.0580 O   0  0  0  0  0  1  0  0  0  0  0  0
  184.9040  178.6290  147.0490 O   0  0  0  0  0  0  0  0  0  0  0  0
  186.6830  178.0650  145.6600 N   0  0  0  0  0  2  0  0  0  0  0  0
  186.1380  178.4060  146.9360 C   0  0  0  0  0  0  0  0  0  0  0  0
  191.8450  175.6300  134.9890 C   0  0  0  0  0  2  0  0  0  0  0  0
  193.0300  176.1960  135.7690 C   0  0  1  0  0  3  0  0  0  0  0  0
  193.9990  174.3590  137.2210 C   0  0  0  0  0  1  0  0  0  0  0  0
  193.1060  175.5900  137.1700 C   0  0  0  0  0  2  0  0  0  0  0  0
  194.3380  176.0020  135.0070 C   0  0  0  0  0  2  0  0  0  0  0  0
  195.1550  177.2890  134.9910 C   0  0  0  0  0  2  0  0  0  0  0  0
  196.6240  177.0310  135.2950 C   0  0  0  0  0  2  0  0  0  0  0  0
  198.1030  175.4260  136.2400 O   0  0  0  0  0  1  0  0  0  0  0  0
  196.8460  175.5720  135.6560 C   0  0  0  0  0  2  0  0  0  0  0  0
  3  8  1  0  0  0  0
  4  7  2  0  0  0  0
  5 11  2  0  0  0  0
  6 12  2  0  0  0  0
  8 31  1  1  0  0  0
  9  3  2  0  0  0  0
  9 11  1  0  0  0  0
 10  4  1  0  0  0  0
 10  2  2  0  0  0  0
 11  1  1  0  0  0  0
 12 15  1  0  0  0  0
 12 10  1  0  0  0  0
 13  4  1  0  0  0  0
 14 15  2  0  0  0  0
 15 13  1  0  0  0  0
 16  1  1  0  0  0  0
 16  8  1  0  0  0  0
 16 14  2  0  0  0  0
 17 22  1  6  0  0  0
 17 23  1  0  0  0  0
 18 26  1  1  0  0  0
 18 20  1  0  0  0  0
 18 17  1  0  0  0  0
 19  6  1  6  0  0  0
 19 23  1  0  0  0  0
 20 19  1  0  0  0  0
 23 21  1  6  0  0  0
 24 26  1  0  0  0  0
 25 24  2  0  0  0  0
 26 27  1  0  0  0  0
 27 28  1  0  0  0  0
 28 29  1  0  0  0  0
 30 32  1  0  0  0  0
 31 30  2  0  0  0  0
 32 33  1  0  0  0  0
 33 35  1  0  0  0  0
 35 36  1  0  0  0  0
 36 39  1  0  0  0  0
 36 34  1  0  0  0  0
 37 35  2  0  0  0  0
 39 38  1  1  0  0  0
 39 40  1  0  0  0  0
 40 43  1  0  0  0  0
 43 44  1  0  0  0  0
 44 42  2  0  0  0  0
 44 41  1  0  0  0  0
 45  9  1  0  0  0  0
 46 45  1  6  0  0  0
 46 48  1  0  0  0  0
 48 47  1  0  0  0  0
 49 46  1  0  0  0  0
 50 49  1  0  0  0  0
 50 51  1  0  0  0  0
 51 53  1  0  0  0  0
 53 52  1  0  0  0  0
M  END
>  <MODEL>
8

>  <REMARK>
 VINA RESULT:      -5.9      3.942     10.096
  Name = 
  18 active torsions:
  status: ('A' for Active; 'I' for Inactive)
    1  A    between atoms: C_1  and  C_47
    2  A    between atoms: C_1  and  N_48
    3  A    between atoms: C_6  and  C_16
    4  A    between atoms: C_6  and  C_26
    5  A    between atoms: C_9  and  C_41
    6  A    between atoms: C_9  and  C_44
    7  A    between atoms: C_9  and  C_50
    8  A    between atoms: C_12  and  N_48
    9  A    between atoms: C_14  and  C_19
   10  A    between atoms: C_16  and  C_18
   11  A    between atoms: C_17  and  C_22
   12  A    between atoms: C_20  and  N_27
   13  A    between atoms: C_20  and  C_31
   14  A    between atoms: C_21  and  C_50
   15  A    between atoms: C_30  and  C_38
   16  A    between atoms: C_31  and  N_42
   17  A    between atoms: C_38  and  C_51
   18  A    between atoms: C_44  and  C_51
                            x       y       z     vdW  Elec       q    Type
                         _______ _______ _______ _____ _____    ______ ____

>  <TORSDO>
F 18

$$$$
=
 OpenBabel11032420333D

 53 55  0  0  1  0  0  0  0  0999 V2000
  188.4690  177.7850  139.3360 C   0  0  0  0  0  2  0  0  0  0  0  0
  186.3500  173.8520  134.5960 N   0  0  0  0  0  2  0  0  0  0  0  0
  190.6510  176.9700  141.1390 C   0  0  0  0  0  3  0  0  0  0  0  0
  188.4560  173.2590  135.6260 C   0  0  0  0  0  0  0  0  0  0  0  0
  187.9310  179.3010  141.0890 O   0  0  0  0  0  0  0  0  0  0  0  0
  186.0860  175.6530  137.0310 C   0  0  0  0  0  3  0  0  0  0  0  0
  188.8600  172.4250  134.7730 O   0  0  0  0  0  0  0  0  0  0  0  0
  190.5700  176.3350  139.7790 C   0  0  1  0  0  3  0  0  0  0  0  0
  189.8160  177.9310  141.5490 C   0  0  0  0  0  0  0  0  0  0  0  0
  187.1200  173.8370  135.6340 C   0  0  0  0  0  0  0  0  0  0  0  0
  188.6970  178.3830  140.6930 C   0  0  0  0  0  0  0  0  0  0  0  0
  187.0890  174.8320  136.7030 C   0  0  0  0  0  0  0  0  0  0  0  0
  189.3090  173.7990  136.7270 C   0  0  0  0  0  2  0  0  0  0  0  0
  188.7870  175.6330  138.2890 C   0  0  0  0  0  0  0  0  0  0  0  0
  188.3900  174.7860  137.3760 C   0  0  0  0  0  0  0  0  0  0  0  0
  189.1940  176.4830  139.1890 C   0  0  0  0  0  0  0  0  0  0  0  0
  182.8510  176.8580  135.7710 C   0  0  1  0  0  3  0  0  0  0  0  0
  182.5580  175.8140  136.8320 C   0  0  2  0  0  3  0  0  0  0  0  0
  184.7560  175.6610  136.3420 C   0  0  1  0  0  3  0  0  0  0  0  0
  183.7510  175.1470  137.1840 O   0  0  0  0  0  0  0  0  0  0  0  0
  184.6560  178.0110  136.8200 O   0  0  0  0  0  1  0  0  0  0  0  0
  182.1590  178.0410  136.0390 O   0  0  0  0  0  1  0  0  0  0  0  0
  184.3400  177.0380  135.8620 C   0  0  2  0  0  3  0  0  0  0  0  0
  181.8210  174.0390  135.2160 C   0  0  0  0  0  3  0  0  0  0  0  0
  180.9740  173.1970  134.8150 O   0  0  0  0  0  0  0  0  0  0  0  0
  181.5600  174.8570  136.3650 N   0  0  0  0  0  0  0  0  0  0  0  0
  180.3420  174.6820  137.1430 C   0  0  0  0  0  2  0  0  0  0  0  0
  180.2960  175.6770  138.2930 C   0  0  0  0  0  2  0  0  0  0  0  0
  179.0160  175.7070  138.8480 O   0  0  0  0  0  1  0  0  0  0  0  0
  192.4060  176.1650  138.1530 C   0  0  0  0  0  3  0  0  0  0  0  0
  191.6060  176.9430  138.8830 C   0  0  0  0  0  3  0  0  0  0  0  0
  193.4370  176.7720  137.2620 C   0  0  0  0  0  2  0  0  0  0  0  0
  193.8560  175.7790  136.1880 C   0  0  0  0  0  2  0  0  0  0  0  0
  197.5220  174.4960  136.0790 C   0  0  0  0  0  1  0  0  0  0  0  0
  195.3480  175.7350  136.0520 C   0  0  0  0  0  0  0  0  0  0  0  0
  196.0830  174.5300  136.3210 N   0  0  0  0  0  0  0  0  0  0  0  0
  195.9510  176.7730  135.6680 O   0  0  0  0  0  0  0  0  0  0  0  0
  196.1430  172.0660  136.5200 C   0  0  0  0  0  1  0  0  0  0  0  0
  195.3960  173.3510  136.8530 C   0  0  1  0  0  3  0  0  0  0  0  0
  195.0810  173.4930  138.3450 C   0  0  0  0  0  2  0  0  0  0  0  0
  195.2890  175.8030  140.1020 O   0  0  0  0  0  0  0  0  0  0  0  0
  197.3780  175.0800  140.7150 O   0  0  0  0  0  1  0  0  0  0  0  0
  196.2760  173.7850  139.1280 N   0  0  0  0  0  2  0  0  0  0  0  0
  196.3470  174.9020  140.0150 C   0  0  0  0  0  0  0  0  0  0  0  0
  190.0280  178.5320  142.9040 C   0  0  0  0  0  2  0  0  0  0  0  0
  189.6870  177.5290  144.0040 C   0  0  1  0  0  3  0  0  0  0  0  0
  187.2400  176.9810  143.6440 C   0  0  0  0  0  1  0  0  0  0  0  0
  188.6750  176.4950  143.5120 C   0  0  0  0  0  2  0  0  0  0  0  0
  190.9440  176.8610  144.5540 C   0  0  0  0  0  2  0  0  0  0  0  0
  191.1980  177.2820  145.9970 C   0  0  0  0  0  2  0  0  0  0  0  0
  190.4040  176.4350  146.9820 C   0  0  0  0  0  2  0  0  0  0  0  0
  189.4260  178.2040  148.2350 O   0  0  0  0  0  1  0  0  0  0  0  0
  189.1220  177.1440  147.3830 C   0  0  0  0  0  2  0  0  0  0  0  0
  1 11  1  0  0  0  0
  2 10  2  0  0  0  0
  3  9  2  0  0  0  0
  4 10  1  0  0  0  0
  4 13  1  0  0  0  0
  7  4  2  0  0  0  0
  8 31  1  6  0  0  0
  8  3  1  0  0  0  0
  9 45  1  0  0  0  0
 10 12  1  0  0  0  0
 11  5  2  0  0  0  0
 11  9  1  0  0  0  0
 12  6  2  0  0  0  0
 12 15  1  0  0  0  0
 13 15  1  0  0  0  0
 14 16  2  0  0  0  0
 15 14  2  0  0  0  0
 16  1  1  0  0  0  0
 16  8  1  0  0  0  0
 17 23  1  0  0  0  0
 17 22  1  1  0  0  0
 17 18  1  0  0  0  0
 18 26  1  6  0  0  0
 18 20  1  0  0  0  0
 19  6  1  1  0  0  0
 19 20  1  0  0  0  0
 23 19  1  0  0  0  0
 23 21  1  1  0  0  0
 24 26  1  0  0  0  0
 25 24  2  0  0  0  0
 26 27  1  0  0  0  0
 27 28  1  0  0  0  0
 28 29  1  0  0  0  0
 30 31  2  0  0  0  0
 32 30  1  0  0  0  0
 33 32  1  0  0  0  0
 34 36  1  0  0  0  0
 35 33  1  0  0  0  0
 35 36  1  0  0  0  0
 36 39  1  0  0  0  0
 37 35  2  0  0  0  0
 39 38  1  1  0  0  0
 39 40  1  0  0  0  0
 40 43  1  0  0  0  0
 43 44  1  0  0  0  0
 44 41  2  0  0  0  0
 44 42  1  0  0  0  0
 46 45  1  6  0  0  0
 46 49  1  0  0  0  0
 48 47  1  0  0  0  0
 48 46  1  0  0  0  0
 49 50  1  0  0  0  0
 50 51  1  0  0  0  0
 51 53  1  0  0  0  0
 53 52  1  0  0  0  0
M  END
>  <MODEL>
9

>  <REMARK>
 VINA RESULT:      -5.8      2.851     10.016
  Name = 
  18 active torsions:
  status: ('A' for Active; 'I' for Inactive)
    1  A    between atoms: C_1  and  C_47
    2  A    between atoms: C_1  and  N_48
    3  A    between atoms: C_6  and  C_16
    4  A    between atoms: C_6  and  C_26
    5  A    between atoms: C_9  and  C_41
    6  A    between atoms: C_9  and  C_44
    7  A    between atoms: C_9  and  C_50
    8  A    between atoms: C_12  and  N_48
    9  A    between atoms: C_14  and  C_19
   10  A    between atoms: C_16  and  C_18
   11  A    between atoms: C_17  and  C_22
   12  A    between atoms: C_20  and  N_27
   13  A    between atoms: C_20  and  C_31
   14  A    between atoms: C_21  and  C_50
   15  A    between atoms: C_30  and  C_38
   16  A    between atoms: C_31  and  N_42
   17  A    between atoms: C_38  and  C_51
   18  A    between atoms: C_44  and  C_51
                            x       y       z     vdW  Elec       q    Type
                         _______ _______ _______ _____ _____    ______ ____

>  <TORSDO>
F 18

$$$$
