=
 OpenBabel11042411583D

 28 32  0  0  1  0  0  0  0  0999 V2000
  185.7620  178.7010  143.0320 C   0  0  0  0  0  0  0  0  0  0  0  0
  186.8250  178.3910  140.4510 C   0  0  0  0  0  3  0  0  0  0  0  0
  192.0710  176.2510  145.6910 N   0  0  0  0  0  0  0  0  0  0  0  0
  190.3330  176.7840  147.2480 C   0  0  0  0  0  3  0  0  0  0  0  0
  187.6160  178.1310  141.5680 C   0  0  0  0  0  3  0  0  0  0  0  0
  185.4910  178.7840  140.6060 C   0  0  0  0  0  0  0  0  0  0  0  0
  187.4150  178.0150  145.3340 C   0  0  0  0  0  0  0  0  0  0  0  0
  191.2900  176.6220  144.6400 C   0  0  0  0  0  3  0  0  0  0  0  0
  187.0950  178.2740  142.8600 C   0  0  0  0  0  0  0  0  0  0  0  0
  189.5150  177.1680  146.1850 C   0  0  0  0  0  0  0  0  0  0  0  0
  189.2000  177.4600  143.8300 N   0  0  0  0  0  0  0  0  0  0  0  0
  189.9950  177.0890  144.8670 C   0  0  0  0  0  0  0  0  0  0  0  0
  185.1900  178.8770  144.4230 C   0  0  2  0  0  0  0  0  0  0  0  0
  191.6250  176.3220  146.9750 C   0  0  0  0  0  0  0  0  0  0  0  0
  184.1670  179.9640  144.6990 C   0  0  0  0  0  1  0  0  0  0  0  0
  188.2230  177.6360  146.4110 C   0  0  0  0  0  3  0  0  0  0  0  0
  186.0480  178.5570  145.6410 C   0  0  1  0  0  3  0  0  0  0  0  0
  192.4750  175.9250  148.0440 N   0  0  0  0  0  1  0  0  0  0  0  0
  187.9300  177.9220  144.0240 C   0  0  0  0  0  0  0  0  0  0  0  0
  184.9610  177.5880  145.1820 C   0  0  0  0  0  2  0  0  0  0  0  0
  183.6540  179.2800  142.0280 F   0  0  0  0  0  0  0  0  0  0  0  0
  184.9590  178.9270  141.8940 C   0  0  0  0  0  0  0  0  0  0  0  0
  184.6530  179.0390  139.4670 N   0  0  0  0  0  2  0  0  0  0  0  0
  183.2950  177.0270  139.7620 C   0  0  0  0  0  1  0  0  0  0  0  0
  183.8030  178.0690  138.7780 C   0  0  0  0  0  0  0  0  0  0  0  0
  182.6280  178.7770  138.1220 C   0  0  0  0  0  1  0  0  0  0  0  0
  184.6340  177.3810  137.7050 C   0  0  0  0  0  2  0  0  0  0  0  0
  185.7030  178.1720  137.3140 F   0  0  0  0  0  0  0  0  0  0  0  0
  1 13  1  0  0  0  0
  2  6  2  0  0  0  0
  2  5  1  0  0  0  0
  3 14  1  0  0  0  0
  5  9  2  0  0  0  0
  6 22  1  0  0  0  0
  7 17  1  0  0  0  0
  7 16  1  0  0  0  0
  8 12  1  0  0  0  0
  8  3  2  0  0  0  0
  9  1  1  0  0  0  0
  9 19  1  0  0  0  0
 10 16  2  0  0  0  0
 10  4  1  0  0  0  0
 11 19  1  0  0  0  0
 11 12  2  0  0  0  0
 12 10  1  0  0  0  0
 13 15  1  1  0  0  0
 13 20  1  0  0  0  0
 13 17  1  0  0  0  0
 14  4  2  0  0  0  0
 14 18  1  0  0  0  0
 17 20  1  1  0  0  0
 19  7  2  0  0  0  0
 22 21  1  0  0  0  0
 22  1  2  0  0  0  0
 23  6  1  0  0  0  0
 25 23  1  0  0  0  0
 25 24  1  0  0  0  0
 26 25  1  0  0  0  0
 27 25  1  0  0  0  0
 28 27  1  0  0  0  0
M  END
>  <MODEL>
1

>  <REMARK>
 VINA RESULT:      -8.8      0.000      0.000
  Name = 
  3 active torsions:
  status: ('A' for Active; 'I' for Inactive)
    1  A    between atoms: N_3  and  C_7
    2  A    between atoms: N_3  and  C_11
    3  A    between atoms: C_11  and  C_21
                            x       y       z     vdW  Elec       q    Type
                         _______ _______ _______ _____ _____    ______ ____

>  <TORSDO>
F 3

$$$$
=
 OpenBabel11042411583D

 28 32  0  0  1  0  0  0  0  0999 V2000
  188.0270  177.7980  140.8980 C   0  0  0  0  0  0  0  0  0  0  0  0
  185.6920  178.8900  142.0130 C   0  0  0  0  0  3  0  0  0  0  0  0
  190.5350  176.8190  147.6530 N   0  0  0  0  0  0  0  0  0  0  0  0
  191.9540  176.1930  145.8320 C   0  0  0  0  0  3  0  0  0  0  0  0
  186.6880  178.3800  142.8420 C   0  0  0  0  0  3  0  0  0  0  0  0
  185.8560  178.8850  140.6240 C   0  0  0  0  0  0  0  0  0  0  0  0
  190.1400  176.8670  142.6780 C   0  0  0  0  0  0  0  0  0  0  0  0
  189.5490  177.2030  146.7980 C   0  0  0  0  0  3  0  0  0  0  0  0
  187.8600  177.8400  142.2990 C   0  0  0  0  0  0  0  0  0  0  0  0
  190.9580  176.5820  144.9360 C   0  0  0  0  0  0  0  0  0  0  0  0
  188.7700  177.4740  144.5510 N   0  0  0  0  0  0  0  0  0  0  0  0
  189.7410  177.0920  145.4200 C   0  0  0  0  0  0  0  0  0  0  0  0
  189.2810  177.2020  140.2960 C   0  0  2  0  0  0  0  0  0  0  0  0
  191.7190  176.3210  147.2050 C   0  0  0  0  0  0  0  0  0  0  0  0
  189.2180  176.4630  138.9710 C   0  0  0  0  0  1  0  0  0  0  0  0
  191.1490  176.4700  143.5610 C   0  0  0  0  0  3  0  0  0  0  0  0
  190.3830  176.6770  141.2070 C   0  0  1  0  0  3  0  0  0  0  0  0
  192.7220  175.9310  148.1340 N   0  0  0  0  0  1  0  0  0  0  0  0
  188.9320  177.3740  143.1990 C   0  0  0  0  0  0  0  0  0  0  0  0
  190.5350  178.0220  140.5010 C   0  0  0  0  0  2  0  0  0  0  0  0
  187.1860  178.3780  138.7210 F   0  0  0  0  0  0  0  0  0  0  0  0
  187.0270  178.3500  140.0700 C   0  0  0  0  0  0  0  0  0  0  0  0
  184.8490  179.4230  139.7520 N   0  0  0  0  0  2  0  0  0  0  0  0
  183.9800  178.0420  137.9310 C   0  0  0  0  0  1  0  0  0  0  0  0
  183.6650  178.7230  139.2530 C   0  0  0  0  0  0  0  0  0  0  0  0
  183.2020  177.6910  140.2690 C   0  0  0  0  0  1  0  0  0  0  0  0
  182.5590  179.7460  139.0390 C   0  0  0  0  0  2  0  0  0  0  0  0
  183.0760  180.9680  138.6380 F   0  0  0  0  0  0  0  0  0  0  0  0
  1  9  1  0  0  0  0
  2  5  1  0  0  0  0
  4 14  2  0  0  0  0
  6  2  2  0  0  0  0
  7 19  2  0  0  0  0
  7 16  1  0  0  0  0
  8  3  2  0  0  0  0
  9  5  2  0  0  0  0
  9 19  1  0  0  0  0
 10 12  1  0  0  0  0
 10  4  1  0  0  0  0
 11 12  2  0  0  0  0
 12  8  1  0  0  0  0
 13 15  1  6  0  0  0
 13 20  1  0  0  0  0
 13  1  1  0  0  0  0
 13 17  1  0  0  0  0
 14  3  1  0  0  0  0
 14 18  1  0  0  0  0
 16 10  2  0  0  0  0
 17 20  1  6  0  0  0
 17  7  1  0  0  0  0
 19 11  1  0  0  0  0
 21 22  1  0  0  0  0
 22  6  1  0  0  0  0
 22  1  2  0  0  0  0
 23  6  1  0  0  0  0
 24 25  1  0  0  0  0
 25 23  1  0  0  0  0
 25 26  1  0  0  0  0
 27 25  1  0  0  0  0
 28 27  1  0  0  0  0
M  END
>  <MODEL>
2

>  <REMARK>
 VINA RESULT:      -8.6      1.676      3.552
  Name = 
  3 active torsions:
  status: ('A' for Active; 'I' for Inactive)
    1  A    between atoms: N_3  and  C_7
    2  A    between atoms: N_3  and  C_11
    3  A    between atoms: C_11  and  C_21
                            x       y       z     vdW  Elec       q    Type
                         _______ _______ _______ _____ _____    ______ ____

>  <TORSDO>
F 3

$$$$
=
 OpenBabel11042411583D

 28 32  0  0  1  0  0  0  0  0999 V2000
  185.3090  178.4810  143.8340 C   0  0  0  0  0  0  0  0  0  0  0  0
  183.5990  179.0250  141.6730 C   0  0  0  0  0  3  0  0  0  0  0  0
  190.7160  177.5970  139.0520 N   0  0  0  0  0  0  0  0  0  0  0  0
  191.2060  177.2570  141.3690 C   0  0  0  0  0  3  0  0  0  0  0  0
  184.9570  178.8040  141.4510 C   0  0  0  0  0  3  0  0  0  0  0  0
  183.0740  178.9540  142.9680 C   0  0  0  0  0  0  0  0  0  0  0  0
  188.1150  177.8910  143.3020 C   0  0  0  0  0  0  0  0  0  0  0  0
  189.4230  177.9120  139.3360 C   0  0  0  0  0  3  0  0  0  0  0  0
  185.8170  178.5240  142.5180 C   0  0  0  0  0  0  0  0  0  0  0  0
  189.8840  177.5750  141.6830 C   0  0  0  0  0  0  0  0  0  0  0  0
  187.6930  178.2160  140.9620 N   0  0  0  0  0  0  0  0  0  0  0  0
  188.9810  177.9070  140.6600 C   0  0  0  0  0  0  0  0  0  0  0  0
  186.2310  178.1960  145.0000 C   0  0  2  0  0  0  0  0  0  0  0  0
  191.6060  177.2740  140.0290 C   0  0  0  0  0  0  0  0  0  0  0  0
  185.9810  178.8430  146.3510 C   0  0  0  0  0  1  0  0  0  0  0  0
  189.4430  177.5720  143.0040 C   0  0  0  0  0  3  0  0  0  0  0  0
  187.7080  177.9190  144.7480 C   0  0  1  0  0  3  0  0  0  0  0  0
  192.9490  176.9520  139.6870 N   0  0  0  0  0  1  0  0  0  0  0  0
  187.2360  178.2200  142.2480 C   0  0  0  0  0  0  0  0  0  0  0  0
  186.7480  176.7760  145.0670 C   0  0  0  0  0  2  0  0  0  0  0  0
  183.3980  178.5760  145.2910 F   0  0  0  0  0  0  0  0  0  0  0  0
  183.9270  178.6710  144.0440 C   0  0  0  0  0  0  0  0  0  0  0  0
  181.6740  179.1610  143.2170 N   0  0  0  0  0  2  0  0  0  0  0  0
  180.0710  180.1030  141.6290 C   0  0  0  0  0  1  0  0  0  0  0  0
  180.5730  178.8400  142.3090 C   0  0  0  0  0  0  0  0  0  0  0  0
  181.0330  177.8370  141.2640 C   0  0  0  0  0  1  0  0  0  0  0  0
  179.4440  178.2280  143.1260 C   0  0  0  0  0  2  0  0  0  0  0  0
  179.9320  177.5680  144.2430 F   0  0  0  0  0  0  0  0  0  0  0  0
  1 22  1  0  0  0  0
  1 13  1  0  0  0  0
  2  6  1  0  0  0  0
  3  8  2  0  0  0  0
  3 14  1  0  0  0  0
  4 10  1  0  0  0  0
  5  2  2  0  0  0  0
  5  9  1  0  0  0  0
  6 23  1  0  0  0  0
  6 22  2  0  0  0  0
  7 17  1  0  0  0  0
  8 12  1  0  0  0  0
  9  1  2  0  0  0  0
 10 16  2  0  0  0  0
 11 19  1  0  0  0  0
 12 11  2  0  0  0  0
 12 10  1  0  0  0  0
 13 20  1  0  0  0  0
 13 15  1  1  0  0  0
 14  4  2  0  0  0  0
 16  7  1  0  0  0  0
 17 13  1  0  0  0  0
 17 20  1  6  0  0  0
 18 14  1  0  0  0  0
 19  9  1  0  0  0  0
 19  7  2  0  0  0  0
 22 21  1  0  0  0  0
 24 25  1  0  0  0  0
 25 27  1  0  0  0  0
 25 23  1  0  0  0  0
 26 25  1  0  0  0  0
 27 28  1  0  0  0  0
M  END
>  <MODEL>
3

>  <REMARK>
 VINA RESULT:      -8.4      3.417      4.626
  Name = 
  3 active torsions:
  status: ('A' for Active; 'I' for Inactive)
    1  A    between atoms: N_3  and  C_7
    2  A    between atoms: N_3  and  C_11
    3  A    between atoms: C_11  and  C_21
                            x       y       z     vdW  Elec       q    Type
                         _______ _______ _______ _____ _____    ______ ____

>  <TORSDO>
F 3

$$$$
=
 OpenBabel11042411583D

 28 32  0  0  1  0  0  0  0  0999 V2000
  184.8120  178.6220  142.7120 C   0  0  0  0  0  0  0  0  0  0  0  0
  182.9810  179.0120  144.8060 C   0  0  0  0  0  3  0  0  0  0  0  0
  189.8270  176.9330  147.7000 N   0  0  0  0  0  0  0  0  0  0  0  0
  190.4940  176.9430  145.4020 C   0  0  0  0  0  3  0  0  0  0  0  0
  184.2720  178.5640  145.0810 C   0  0  0  0  0  3  0  0  0  0  0  0
  182.5960  179.2940  143.4910 C   0  0  0  0  0  0  0  0  0  0  0  0
  187.5400  177.8140  143.3520 C   0  0  0  0  0  0  0  0  0  0  0  0
  188.5500  177.2670  147.3660 C   0  0  0  0  0  3  0  0  0  0  0  0
  185.1960  178.3740  144.0470 C   0  0  0  0  0  0  0  0  0  0  0  0
  189.1930  177.2860  145.0370 C   0  0  0  0  0  0  0  0  0  0  0  0
  186.9400  177.7870  145.6740 N   0  0  0  0  0  0  0  0  0  0  0  0
  188.2070  177.4500  146.0260 C   0  0  0  0  0  0  0  0  0  0  0  0
  185.7950  178.4050  141.5820 C   0  0  2  0  0  0  0  0  0  0  0  0
  190.7950  176.7690  146.7570 C   0  0  0  0  0  0  0  0  0  0  0  0
  185.3100  177.9230  140.2260 C   0  0  0  0  0  1  0  0  0  0  0  0
  188.8490  177.4670  143.7000 C   0  0  0  0  0  3  0  0  0  0  0  0
  187.2160  177.9490  141.8910 C   0  0  1  0  0  3  0  0  0  0  0  0
  192.1160  176.4190  147.1500 N   0  0  0  0  0  1  0  0  0  0  0  0
  186.5770  177.9700  144.3710 C   0  0  0  0  0  0  0  0  0  0  0  0
  186.9300  179.4040  141.5270 C   0  0  0  0  0  2  0  0  0  0  0  0
  183.1360  179.4160  141.1800 F   0  0  0  0  0  0  0  0  0  0  0  0
  183.5140  179.1100  142.4480 C   0  0  0  0  0  0  0  0  0  0  0  0
  181.2770  179.7750  143.1880 N   0  0  0  0  0  2  0  0  0  0  0  0
  180.3180  177.9820  141.8290 C   0  0  0  0  0  1  0  0  0  0  0  0
  180.0820  178.9590  142.9700 C   0  0  0  0  0  0  0  0  0  0  0  0
  179.7300  178.1980  144.2390 C   0  0  0  0  0  1  0  0  0  0  0  0
  178.9310  179.8850  142.6060 C   0  0  0  0  0  2  0  0  0  0  0  0
  179.3950  181.0840  142.0890 F   0  0  0  0  0  0  0  0  0  0  0  0
  1  9  1  0  0  0  0
  2  5  1  0  0  0  0
  4 14  1  0  0  0  0
  6  2  2  0  0  0  0
  7 16  2  0  0  0  0
  7 19  1  0  0  0  0
  8  3  1  0  0  0  0
  9 19  1  0  0  0  0
  9  5  2  0  0  0  0
 10  4  2  0  0  0  0
 10 12  1  0  0  0  0
 11 12  1  0  0  0  0
 12  8  2  0  0  0  0
 13 15  1  6  0  0  0
 13 17  1  0  0  0  0
 13  1  1  0  0  0  0
 14 18  1  0  0  0  0
 14  3  2  0  0  0  0
 16 10  1  0  0  0  0
 17 20  1  1  0  0  0
 17  7  1  0  0  0  0
 19 11  2  0  0  0  0
 20 13  1  0  0  0  0
 21 22  1  0  0  0  0
 22  1  2  0  0  0  0
 22  6  1  0  0  0  0
 23  6  1  0  0  0  0
 24 25  1  0  0  0  0
 25 23  1  0  0  0  0
 25 26  1  0  0  0  0
 27 25  1  0  0  0  0
 28 27  1  0  0  0  0
M  END
>  <MODEL>
4

>  <REMARK>
 VINA RESULT:      -8.1      2.523      4.078
  Name = 
  3 active torsions:
  status: ('A' for Active; 'I' for Inactive)
    1  A    between atoms: N_3  and  C_7
    2  A    between atoms: N_3  and  C_11
    3  A    between atoms: C_11  and  C_21
                            x       y       z     vdW  Elec       q    Type
                         _______ _______ _______ _____ _____    ______ ____

>  <TORSDO>
F 3

$$$$
=
 OpenBabel11042411583D

 28 32  0  0  1  0  0  0  0  0999 V2000
  186.2150  178.0780  144.7000 C   0  0  0  0  0  0  0  0  0  0  0  0
  188.4270  177.0390  143.3170 C   0  0  0  0  0  3  0  0  0  0  0  0
  182.6230  178.2660  138.3810 N   0  0  0  0  0  0  0  0  0  0  0  0
  181.4980  179.0770  140.3310 C   0  0  0  0  0  3  0  0  0  0  0  0
  187.2310  177.2770  142.6430 C   0  0  0  0  0  3  0  0  0  0  0  0
  188.5430  177.3370  144.6780 C   0  0  0  0  0  0  0  0  0  0  0  0
  183.7790  178.6860  143.2180 C   0  0  0  0  0  0  0  0  0  0  0  0
  183.7290  177.9510  139.1080 C   0  0  0  0  0  3  0  0  0  0  0  0
  186.1240  177.8020  143.3200 C   0  0  0  0  0  0  0  0  0  0  0  0
  182.6220  178.7640  141.0950 C   0  0  0  0  0  0  0  0  0  0  0  0
  184.8470  177.8890  141.2230 N   0  0  0  0  0  0  0  0  0  0  0  0
  183.7500  178.1940  140.4820 C   0  0  0  0  0  0  0  0  0  0  0  0
  185.0210  178.6300  145.4490 C   0  0  2  0  0  0  0  0  0  0  0  0
  181.5190  178.8170  138.9570 C   0  0  0  0  0  0  0  0  0  0  0  0
  184.7830  178.2500  146.9000 C   0  0  0  0  0  1  0  0  0  0  0  0
  182.6430  179.0040  142.4670 C   0  0  0  0  0  3  0  0  0  0  0  0
  183.7270  178.9230  144.7010 C   0  0  1  0  0  3  0  0  0  0  0  0
  180.3840  179.1290  138.1590 N   0  0  0  0  0  1  0  0  0  0  0  0
  184.8930  178.1150  142.5690 C   0  0  0  0  0  0  0  0  0  0  0  0
  184.6620  180.0590  145.1060 C   0  0  0  0  0  2  0  0  0  0  0  0
  187.5780  178.1790  146.6800 F   0  0  0  0  0  0  0  0  0  0  0  0
  187.4420  177.8660  145.3650 C   0  0  0  0  0  0  0  0  0  0  0  0
  189.7730  177.1160  145.3870 N   0  0  0  0  0  2  0  0  0  0  0  0
  191.0790  176.0280  143.6290 C   0  0  0  0  0  1  0  0  0  0  0  0
  191.1070  176.9990  144.7990 C   0  0  0  0  0  0  0  0  0  0  0  0
  191.5920  178.3610  144.3290 C   0  0  0  0  0  1  0  0  0  0  0  0
  192.0550  176.4710  145.8660 C   0  0  0  0  0  2  0  0  0  0  0  0
  191.5150  176.6150  147.1340 F   0  0  0  0  0  0  0  0  0  0  0  0
  1 22  1  0  0  0  0
  1 13  1  0  0  0  0
  2  6  1  0  0  0  0
  3 14  2  0  0  0  0
  3  8  1  0  0  0  0
  4 10  2  0  0  0  0
  5  2  2  0  0  0  0
  5  9  1  0  0  0  0
  6 22  2  0  0  0  0
  6 23  1  0  0  0  0
  7 17  1  0  0  0  0
  8 12  2  0  0  0  0
  9  1  2  0  0  0  0
 10 16  1  0  0  0  0
 11 19  2  0  0  0  0
 12 10  1  0  0  0  0
 12 11  1  0  0  0  0
 13 15  1  1  0  0  0
 14  4  1  0  0  0  0
 16  7  2  0  0  0  0
 17 20  1  6  0  0  0
 17 13  1  0  0  0  0
 18 14  1  0  0  0  0
 19  7  1  0  0  0  0
 19  9  1  0  0  0  0
 20 13  1  0  0  0  0
 22 21  1  0  0  0  0
 24 25  1  0  0  0  0
 25 23  1  0  0  0  0
 25 27  1  0  0  0  0
 26 25  1  0  0  0  0
 27 28  1  0  0  0  0
M  END
>  <MODEL>
5

>  <REMARK>
 VINA RESULT:      -8.0      2.740      7.944
  Name = 
  3 active torsions:
  status: ('A' for Active; 'I' for Inactive)
    1  A    between atoms: N_3  and  C_7
    2  A    between atoms: N_3  and  C_11
    3  A    between atoms: C_11  and  C_21
                            x       y       z     vdW  Elec       q    Type
                         _______ _______ _______ _____ _____    ______ ____

>  <TORSDO>
F 3

$$$$
=
 OpenBabel11042411583D

 28 32  0  0  1  0  0  0  0  0999 V2000
  186.5830  178.1700  144.6330 C   0  0  0  0  0  0  0  0  0  0  0  0
  188.3380  177.8450  142.4650 C   0  0  0  0  0  3  0  0  0  0  0  0
  181.1970  179.1530  139.8470 N   0  0  0  0  0  0  0  0  0  0  0  0
  180.6680  179.3140  142.1750 C   0  0  0  0  0  3  0  0  0  0  0  0
  186.9750  178.0240  142.2390 C   0  0  0  0  0  3  0  0  0  0  0  0
  188.8450  177.8490  143.7690 C   0  0  0  0  0  0  0  0  0  0  0  0
  183.7610  178.6780  144.1030 C   0  0  0  0  0  0  0  0  0  0  0  0
  182.4990  178.8730  140.1280 C   0  0  0  0  0  3  0  0  0  0  0  0
  186.0920  178.1950  143.3110 C   0  0  0  0  0  0  0  0  0  0  0  0
  181.9980  179.0310  142.4860 C   0  0  0  0  0  0  0  0  0  0  0  0
  184.2220  178.5310  141.7530 N   0  0  0  0  0  0  0  0  0  0  0  0
  182.9260  178.8060  141.4550 C   0  0  0  0  0  0  0  0  0  0  0  0
  185.6370  178.3360  145.8030 C   0  0  2  0  0  0  0  0  0  0  0  0
  180.2830  179.3720  140.8310 C   0  0  0  0  0  0  0  0  0  0  0  0
  185.8990  177.6100  147.1110 C   0  0  0  0  0  1  0  0  0  0  0  0
  182.4240  178.9610  143.8100 C   0  0  0  0  0  3  0  0  0  0  0  0
  184.1530  178.5690  145.5500 C   0  0  1  0  0  3  0  0  0  0  0  0
  178.9320  179.6600  140.4940 N   0  0  0  0  0  1  0  0  0  0  0  0
  184.6650  178.4580  143.0430 C   0  0  0  0  0  0  0  0  0  0  0  0
  185.0600  179.7260  145.9590 C   0  0  0  0  0  2  0  0  0  0  0  0
  188.4800  178.0550  146.1070 F   0  0  0  0  0  0  0  0  0  0  0  0
  187.9700  178.0230  144.8490 C   0  0  0  0  0  0  0  0  0  0  0  0
  190.2500  177.6840  144.0220 N   0  0  0  0  0  2  0  0  0  0  0  0
  191.8420  176.0240  144.8540 C   0  0  0  0  0  1  0  0  0  0  0  0
  191.0730  176.5350  143.6460 C   0  0  0  0  0  0  0  0  0  0  0  0
  190.1960  175.4260  143.0840 C   0  0  0  0  0  1  0  0  0  0  0  0
  192.0590  176.9830  142.5770 C   0  0  0  0  0  2  0  0  0  0  0  0
  191.4030  177.3670  141.4180 F   0  0  0  0  0  0  0  0  0  0  0  0
  1 22  1  0  0  0  0
  1 13  1  0  0  0  0
  2  6  1  0  0  0  0
  3  8  2  0  0  0  0
  3 14  1  0  0  0  0
  4 10  1  0  0  0  0
  5  2  2  0  0  0  0
  5  9  1  0  0  0  0
  6 23  1  0  0  0  0
  6 22  2  0  0  0  0
  7 17  1  0  0  0  0
  8 12  1  0  0  0  0
  9  1  2  0  0  0  0
 10 16  2  0  0  0  0
 11 19  1  0  0  0  0
 12 11  2  0  0  0  0
 12 10  1  0  0  0  0
 13 20  1  0  0  0  0
 13 15  1  1  0  0  0
 14  4  2  0  0  0  0
 16  7  1  0  0  0  0
 17 13  1  0  0  0  0
 17 20  1  1  0  0  0
 18 14  1  0  0  0  0
 19  9  1  0  0  0  0
 19  7  2  0  0  0  0
 22 21  1  0  0  0  0
 25 23  1  0  0  0  0
 25 24  1  0  0  0  0
 26 25  1  0  0  0  0
 27 25  1  0  0  0  0
 28 27  1  0  0  0  0
M  END
>  <MODEL>
6

>  <REMARK>
 VINA RESULT:      -8.0      2.839      7.634
  Name = 
  3 active torsions:
  status: ('A' for Active; 'I' for Inactive)
    1  A    between atoms: N_3  and  C_7
    2  A    between atoms: N_3  and  C_11
    3  A    between atoms: C_11  and  C_21
                            x       y       z     vdW  Elec       q    Type
                         _______ _______ _______ _____ _____    ______ ____

>  <TORSDO>
F 3

$$$$
=
 OpenBabel11042411583D

 28 32  0  0  1  0  0  0  0  0999 V2000
  181.6840  178.8740  141.6350 C   0  0  0  0  0  0  0  0  0  0  0  0
  183.0030  178.0650  139.2920 C   0  0  0  0  0  3  0  0  0  0  0  0
  187.8420  177.5970  145.2850 N   0  0  0  0  0  0  0  0  0  0  0  0
  185.9370  178.3350  146.5300 C   0  0  0  0  0  3  0  0  0  0  0  0
  183.6980  178.1300  140.4970 C   0  0  0  0  0  3  0  0  0  0  0  0
  181.6400  178.3780  139.2440 C   0  0  0  0  0  0  0  0  0  0  0  0
  183.1480  178.8640  144.1570 C   0  0  0  0  0  0  0  0  0  0  0  0
  187.1450  177.6560  144.1180 C   0  0  0  0  0  3  0  0  0  0  0  0
  183.0500  178.5240  141.6730 C   0  0  0  0  0  0  0  0  0  0  0  0
  185.2030  178.4010  145.3460 C   0  0  0  0  0  0  0  0  0  0  0  0
  185.0960  178.1200  142.9710 N   0  0  0  0  0  0  0  0  0  0  0  0
  185.8090  178.0600  144.1250 C   0  0  0  0  0  0  0  0  0  0  0  0
  180.9730  179.3180  142.8960 C   0  0  2  0  0  0  0  0  0  0  0  0
  187.2730  177.9250  146.4770 C   0  0  0  0  0  0  0  0  0  0  0  0
  179.8680  180.3570  142.8280 C   0  0  0  0  0  1  0  0  0  0  0  0
  183.8700  178.8060  145.3530 C   0  0  0  0  0  3  0  0  0  0  0  0
  181.7290  179.3530  144.2190 C   0  0  1  0  0  3  0  0  0  0  0  0
  188.0390  177.8510  147.6730 N   0  0  0  0  0  1  0  0  0  0  0  0
  183.7900  178.5140  142.9500 C   0  0  0  0  0  0  0  0  0  0  0  0
  180.7480  178.2240  143.9160 C   0  0  0  0  0  2  0  0  0  0  0  0
  179.6510  179.0420  140.3600 F   0  0  0  0  0  0  0  0  0  0  0  0
  180.9810  178.7700  140.4160 C   0  0  0  0  0  0  0  0  0  0  0  0
  180.9010  178.2990  138.0140 N   0  0  0  0  0  2  0  0  0  0  0  0
  179.0390  179.6230  137.1420 C   0  0  0  0  0  1  0  0  0  0  0  0
  180.5450  179.4160  137.1400 C   0  0  0  0  0  0  0  0  0  0  0  0
  181.2430  180.6850  137.6030 C   0  0  0  0  0  1  0  0  0  0  0  0
  181.0020  179.0810  135.7270 C   0  0  0  0  0  2  0  0  0  0  0  0
  182.0970  178.2320  135.7410 F   0  0  0  0  0  0  0  0  0  0  0  0
  1  9  1  0  0  0  0
  1 13  1  0  0  0  0
  2  5  1  0  0  0  0
  3 14  1  0  0  0  0
  5  9  2  0  0  0  0
  6  2  2  0  0  0  0
  6 22  1  0  0  0  0
  7 17  1  0  0  0  0
  7 16  1  0  0  0  0
  8 12  1  0  0  0  0
  8  3  2  0  0  0  0
  9 19  1  0  0  0  0
 10 16  2  0  0  0  0
 10  4  1  0  0  0  0
 11 12  2  0  0  0  0
 12 10  1  0  0  0  0
 13 15  1  6  0  0  0
 13 20  1  0  0  0  0
 13 17  1  0  0  0  0
 14  4  2  0  0  0  0
 14 18  1  0  0  0  0
 17 20  1  1  0  0  0
 19 11  1  0  0  0  0
 19  7  2  0  0  0  0
 21 22  1  0  0  0  0
 22  1  2  0  0  0  0
 23  6  1  0  0  0  0
 25 24  1  0  0  0  0
 25 26  1  0  0  0  0
 25 23  1  0  0  0  0
 27 28  1  0  0  0  0
 27 25  1  0  0  0  0
M  END
>  <MODEL>
7

>  <REMARK>
 VINA RESULT:      -7.9      2.772      4.372
  Name = 
  3 active torsions:
  status: ('A' for Active; 'I' for Inactive)
    1  A    between atoms: N_3  and  C_7
    2  A    between atoms: N_3  and  C_11
    3  A    between atoms: C_11  and  C_21
                            x       y       z     vdW  Elec       q    Type
                         _______ _______ _______ _____ _____    ______ ____

>  <TORSDO>
F 3

$$$$
=
 OpenBabel11042411583D

 28 32  0  0  1  0  0  0  0  0999 V2000
  190.4790  177.2030  141.8260 C   0  0  0  0  0  0  0  0  0  0  0  0
  190.1630  177.4860  139.0490 C   0  0  0  0  0  3  0  0  0  0  0  0
  183.4400  178.8630  142.5780 N   0  0  0  0  0  0  0  0  0  0  0  0
  184.7140  178.4670  144.5650 C   0  0  0  0  0  3  0  0  0  0  0  0
  189.0640  177.6200  139.8940 C   0  0  0  0  0  3  0  0  0  0  0  0
  191.4340  177.2350  139.5770 C   0  0  0  0  0  0  0  0  0  0  0  0
  188.1740  177.6260  143.5610 C   0  0  0  0  0  0  0  0  0  0  0  0
  184.5230  178.6150  141.7930 C   0  0  0  0  0  3  0  0  0  0  0  0
  189.2100  177.4890  141.2800 C   0  0  0  0  0  0  0  0  0  0  0  0
  185.8370  178.2110  143.7790 C   0  0  0  0  0  0  0  0  0  0  0  0
  186.8380  178.0370  141.6110 N   0  0  0  0  0  0  0  0  0  0  0  0
  185.7450  178.2830  142.3790 C   0  0  0  0  0  0  0  0  0  0  0  0
  190.6490  177.0420  143.3210 C   0  0  2  0  0  0  0  0  0  0  0  0
  183.5080  178.7960  143.9360 C   0  0  0  0  0  0  0  0  0  0  0  0
  191.6690  176.0630  143.8760 C   0  0  0  0  0  1  0  0  0  0  0  0
  187.0570  177.8780  144.3630 C   0  0  0  0  0  3  0  0  0  0  0  0
  189.4510  177.2250  144.2440 C   0  0  1  0  0  3  0  0  0  0  0  0
  182.3510  179.0610  144.7190 N   0  0  0  0  0  1  0  0  0  0  0  0
  188.0450  177.7090  142.1580 C   0  0  0  0  0  0  0  0  0  0  0  0
  190.5060  178.3210  144.1170 C   0  0  0  0  0  2  0  0  0  0  0  0
  192.8360  176.8900  141.4640 F   0  0  0  0  0  0  0  0  0  0  0  0
  191.5920  177.1050  140.9640 C   0  0  0  0  0  0  0  0  0  0  0  0
  192.5840  177.1120  138.7250 N   0  0  0  0  0  2  0  0  0  0  0  0
  191.8370  174.9090  137.9680 C   0  0  0  0  0  1  0  0  0  0  0  0
  192.9420  175.9510  137.9090 C   0  0  0  0  0  0  0  0  0  0  0  0
  193.1740  176.3780  136.4680 C   0  0  0  0  0  1  0  0  0  0  0  0
  194.2260  175.3530  138.4660 C   0  0  0  0  0  2  0  0  0  0  0  0
  194.3030  173.9950  138.2010 F   0  0  0  0  0  0  0  0  0  0  0  0
  1 13  1  0  0  0  0
  2  6  2  0  0  0  0
  2  5  1  0  0  0  0
  3 14  1  0  0  0  0
  5  9  2  0  0  0  0
  6 22  1  0  0  0  0
  7 17  1  0  0  0  0
  7 16  1  0  0  0  0
  8 12  1  0  0  0  0
  8  3  2  0  0  0  0
  9  1  1  0  0  0  0
  9 19  1  0  0  0  0
 10 16  2  0  0  0  0
 10  4  1  0  0  0  0
 11 19  1  0  0  0  0
 11 12  2  0  0  0  0
 12 10  1  0  0  0  0
 13 15  1  1  0  0  0
 13 20  1  0  0  0  0
 13 17  1  0  0  0  0
 14  4  2  0  0  0  0
 14 18  1  0  0  0  0
 17 20  1  1  0  0  0
 19  7  2  0  0  0  0
 22 21  1  0  0  0  0
 22  1  2  0  0  0  0
 23  6  1  0  0  0  0
 25 24  1  0  0  0  0
 25 27  1  0  0  0  0
 25 23  1  0  0  0  0
 26 25  1  0  0  0  0
 28 27  1  0  0  0  0
M  END
>  <MODEL>
8

>  <REMARK>
 VINA RESULT:      -7.9      4.336      7.057
  Name = 
  3 active torsions:
  status: ('A' for Active; 'I' for Inactive)
    1  A    between atoms: N_3  and  C_7
    2  A    between atoms: N_3  and  C_11
    3  A    between atoms: C_11  and  C_21
                            x       y       z     vdW  Elec       q    Type
                         _______ _______ _______ _____ _____    ______ ____

>  <TORSDO>
F 3

$$$$
=
 OpenBabel11042411583D

 28 32  0  0  1  0  0  0  0  0999 V2000
  189.4630  177.5770  143.5470 C   0  0  0  0  0  0  0  0  0  0  0  0
  186.6610  177.4250  143.6620 C   0  0  0  0  0  3  0  0  0  0  0  0
  189.0090  176.5450  136.3630 N   0  0  0  0  0  0  0  0  0  0  0  0
  191.1890  176.7500  137.3280 C   0  0  0  0  0  3  0  0  0  0  0  0
  187.3140  177.3620  142.4330 C   0  0  0  0  0  3  0  0  0  0  0  0
  187.3950  177.5390  144.8470 C   0  0  0  0  0  0  0  0  0  0  0  0
  190.7880  177.3050  140.9640 C   0  0  0  0  0  0  0  0  0  0  0  0
  188.4180  176.7200  137.5770 C   0  0  0  0  0  3  0  0  0  0  0  0
  188.7100  177.4290  142.3630 C   0  0  0  0  0  0  0  0  0  0  0  0
  190.6050  176.9300  138.5820 C   0  0  0  0  0  0  0  0  0  0  0  0
  188.6340  177.0900  139.9310 N   0  0  0  0  0  0  0  0  0  0  0  0
  189.2060  176.9170  138.7120 C   0  0  0  0  0  0  0  0  0  0  0  0
  190.9730  177.6670  143.4860 C   0  0  2  0  0  0  0  0  0  0  0  0
  190.3620  176.5560  136.2160 C   0  0  0  0  0  0  0  0  0  0  0  0
  191.7300  178.5280  144.4810 C   0  0  0  0  0  1  0  0  0  0  0  0
  191.3900  177.1280  139.7140 C   0  0  0  0  0  3  0  0  0  0  0  0
  191.6840  177.5620  142.1430 C   0  0  1  0  0  3  0  0  0  0  0  0
  190.9370  176.3700  134.9290 N   0  0  0  0  0  1  0  0  0  0  0  0
  189.3810  177.2860  141.0570 C   0  0  0  0  0  0  0  0  0  0  0  0
  191.6710  176.3790  143.1080 C   0  0  0  0  0  2  0  0  0  0  0  0
  189.4950  177.6840  145.9490 F   0  0  0  0  0  0  0  0  0  0  0  0
  188.7940  177.6030  144.7890 C   0  0  0  0  0  0  0  0  0  0  0  0
  186.7420  177.5870  146.1260 N   0  0  0  0  0  2  0  0  0  0  0  0
  185.4470  179.5430  145.4370 C   0  0  0  0  0  1  0  0  0  0  0  0
  185.7880  178.5980  146.5780 C   0  0  0  0  0  0  0  0  0  0  0  0
  184.5220  177.9300  147.0920 C   0  0  0  0  0  1  0  0  0  0  0  0
  186.4290  179.3890  147.7090 C   0  0  0  0  0  2  0  0  0  0  0  0
  187.6130  178.8010  148.1250 F   0  0  0  0  0  0  0  0  0  0  0  0
  1 22  1  0  0  0  0
  2  6  1  0  0  0  0
  3  8  1  0  0  0  0
  4 10  2  0  0  0  0
  5  2  2  0  0  0  0
  6 23  1  0  0  0  0
  7 19  1  0  0  0  0
  7 17  1  0  0  0  0
  8 12  2  0  0  0  0
  9  5  1  0  0  0  0
  9  1  2  0  0  0  0
 10 12  1  0  0  0  0
 10 16  1  0  0  0  0
 11 19  2  0  0  0  0
 12 11  1  0  0  0  0
 13  1  1  0  0  0  0
 13 15  1  1  0  0  0
 14  3  2  0  0  0  0
 14  4  1  0  0  0  0
 16  7  2  0  0  0  0
 17 20  1  1  0  0  0
 17 13  1  0  0  0  0
 18 14  1  0  0  0  0
 19  9  1  0  0  0  0
 20 13  1  0  0  0  0
 22  6  2  0  0  0  0
 22 21  1  0  0  0  0
 23 25  1  0  0  0  0
 24 25  1  0  0  0  0
 25 26  1  0  0  0  0
 25 27  1  0  0  0  0
 27 28  1  0  0  0  0
M  END
>  <MODEL>
9

>  <REMARK>
 VINA RESULT:      -7.7      3.844      7.442
  Name = 
  3 active torsions:
  status: ('A' for Active; 'I' for Inactive)
    1  A    between atoms: N_3  and  C_7
    2  A    between atoms: N_3  and  C_11
    3  A    between atoms: C_11  and  C_21
                            x       y       z     vdW  Elec       q    Type
                         _______ _______ _______ _____ _____    ______ ____

>  <TORSDO>
F 3

$$$$
