=
 OpenBabel11042411173D

 48 54  0  0  1  0  0  0  0  0999 V2000
  187.2650  177.5510  137.1800 C   0  0  2  0  0  0  0  0  0  0  0  0
  191.0590  174.9710  136.8720 C   0  0  2  0  0  3  0  0  0  0  0  0
  187.7930  176.3040  136.5540 N   0  0  0  0  0  0  0  0  0  0  0  0
  188.5160  175.1070  136.8280 C   0  0  0  0  0  0  0  0  0  0  0  0
  192.1740  174.6870  137.7760 N   0  0  0  0  0  2  0  0  0  0  0  0
  187.7700  173.6700  136.5900 S   0  0  0  0  0  0  0  0  0  0  0  0
  189.7630  175.1800  137.6870 C   0  0  2  0  0  3  0  0  0  0  0  0
  188.6140  176.8400  139.0650 O   0  0  0  0  0  0  0  0  0  0  0  0
  189.8250  176.5460  138.4220 C   0  0  1  0  0  3  0  0  0  0  0  0
  187.1810  178.6250  139.2580 O   0  0  0  0  0  0  0  0  0  0  0  0
  187.8200  177.6660  135.9240 C   0  0  1  0  0  3  0  0  0  0  0  0
  193.0160  175.8660  137.9970 C   0  0  1  0  0  3  0  0  0  0  0  0
  190.9970  176.7300  139.3860 C   0  0  2  0  0  3  0  0  0  0  0  0
  188.0930  177.9670  138.4000 C   0  0  2  0  0  3  0  0  0  0  0  0
  193.2230  177.8470  139.5170 C   0  0  0  0  0  1  0  0  0  0  0  0
  184.9250  179.0600  139.6560 N   0  0  0  0  0  0  0  0  0  0  0  0
  193.7470  176.2680  136.7270 C   0  0  0  0  0  1  0  0  0  0  0  0
  192.2770  177.0650  138.6190 C   0  0  1  0  0  3  0  0  0  0  0  0
  185.8360  178.4750  138.9430 C   0  0  0  0  0  0  0  0  0  0  0  0
  185.4710  177.4750  137.4980 S   0  0  0  0  0  0  0  0  0  0  0  0
  191.1550  175.6340  140.2410 O   0  0  0  0  0  1  0  0  0  0  0  0
  186.8180  177.7110  134.7800 C   0  0  0  0  0  2  0  0  0  0  0  0
  186.3680  179.0200  134.6060 O   0  0  0  0  0  1  0  0  0  0  0  0
  182.9840  180.3480  138.9710 C   0  0  0  0  0  1  0  0  0  0  0  0
  183.4950  178.9720  139.3760 C   0  0  2  0  0  3  0  0  0  0  0  0
  181.5370  179.0440  143.2530 C   0  0  0  0  0  2  0  0  0  0  0  0
  183.9140  179.0120  144.2570 C   0  0  0  0  0  1  0  0  0  0  0  0
  180.7200  178.6250  142.0320 C   0  0  2  0  0  3  0  0  0  0  0  0
  183.5760  178.6500  141.8710 C   0  0  0  0  0  3  0  0  0  0  0  0
  181.3870  179.1420  140.7600 C   0  0  0  0  0  2  0  0  0  0  0  0
  179.3200  179.1890  142.1410 C   0  0  0  0  0  1  0  0  0  0  0  0
  182.7520  178.4680  140.6150 C   0  0  1  0  0  3  0  0  0  0  0  0
  183.0210  178.8170  143.0830 C   0  0  0  0  0  0  0  0  0  0  0  0
  190.9720  173.8770  135.7940 C   0  0  0  0  0  2  0  0  0  0  0  0
  192.3350  173.3270  135.3780 C   0  0  0  0  0  2  0  0  0  0  0  0
  192.4630  171.8580  135.7650 C   0  0  0  0  0  2  0  0  0  0  0  0
  194.1830  170.2400  135.9700 O   0  0  0  0  0  0  0  0  0  0  0  0
  193.8920  171.4220  135.8450 C   0  0  0  0  0  0  0  0  0  0  0  0
  194.9680  172.4440  135.7000 C   0  0  0  0  0  2  0  0  0  0  0  0
  196.8520  174.0440  137.9700 N   0  0  0  0  0  0  0  0  0  0  0  0
  197.3240  174.6430  139.2150 C   0  0  0  0  0  1  0  0  0  0  0  0
  197.8760  175.0750  135.9450 C   0  0  0  0  0  2  0  0  0  0  0  0
  197.6570  173.8410  136.7850 C   0  0  0  0  0  0  0  0  0  0  0  0
  199.0480  174.4220  136.6840 C   0  0  0  0  0  2  0  0  0  0  0  0
  195.9560  172.9620  137.9040 C   0  0  0  0  0  0  0  0  0  0  0  0
  196.1330  172.1860  136.6490 C   0  0  2  0  0  3  0  0  0  0  0  0
  197.3230  172.6800  136.0500 O   0  0  0  0  0  0  0  0  0  0  0  0
  195.1370  172.6750  138.8180 O   0  0  0  0  0  0  0  0  0  0  0  0
  1 20  1  1  0  0  0
  1 14  1  0  0  0  0
  2 34  1  6  0  0  0
  2  7  1  0  0  0  0
  2  5  1  0  0  0  0
  3  4  1  0  0  0  0
  3  1  1  0  0  0  0
  5 12  1  0  0  0  0
  6  4  2  0  0  0  0
  7  4  1  6  0  0  0
  7  9  1  0  0  0  0
  9  8  1  1  0  0  0
  9 13  1  0  0  0  0
 11 22  1  6  0  0  0
 11  3  1  0  0  0  0
 11  1  1  0  0  0  0
 12 17  1  6  0  0  0
 12 18  1  0  0  0  0
 13 21  1  6  0  0  0
 14  8  1  1  0  0  0
 14 10  1  0  0  0  0
 18 13  1  0  0  0  0
 18 15  1  1  0  0  0
 19 10  1  0  0  0  0
 19 16  2  0  0  0  0
 20 19  1  0  0  0  0
 23 22  1  0  0  0  0
 25 24  1  1  0  0  0
 25 16  1  0  0  0  0
 28 31  1  1  0  0  0
 28 26  1  0  0  0  0
 29 33  2  0  0  0  0
 30 28  1  0  0  0  0
 32 25  1  6  0  0  0
 32 30  1  0  0  0  0
 32 29  1  0  0  0  0
 33 26  1  0  0  0  0
 33 27  1  0  0  0  0
 35 36  1  0  0  0  0
 35 34  1  0  0  0  0
 36 38  1  0  0  0  0
 38 37  2  0  0  0  0
 39 38  1  0  0  0  0
 40 41  1  0  0  0  0
 42 44  1  0  0  0  0
 42 43  1  0  0  0  0
 43 40  1  0  0  0  0
 44 43  1  0  0  0  0
 45 40  1  0  0  0  0
 45 48  2  0  0  0  0
 46 39  1  6  0  0  0
 46 45  1  0  0  0  0
 47 46  1  0  0  0  0
 47 43  1  0  0  0  0
M  END
>  <MODEL>
1

>  <REMARK>
 VINA RESULT:      -6.9      0.000      0.000
  Name = 
  9 active torsions:
  status: ('A' for Active; 'I' for Inactive)
    1  A    between atoms: C_2  and  C_8
    2  A    between atoms: C_2  and  C_10
    3  A    between atoms: C_3  and  C_10
    4  A    between atoms: C_3  and  C_32
    5  A    between atoms: C_4  and  C_24
    6  A    between atoms: C_14  and  C_32
    7  A    between atoms: C_14  and  C_34
    8  A    between atoms: C_27  and  N_40
    9  A    between atoms: C_27  and  C_47
                            x       y       z     vdW  Elec       q    Type
                         _______ _______ _______ _____ _____    ______ ____

>  <TORSDO>
F 9

$$$$
=
 OpenBabel11042411173D

 48 54  0  0  1  0  0  0  0  0999 V2000
  184.1800  178.1660  139.1060 C   0  0  2  0  0  0  0  0  0  0  0  0
  186.9830  175.4380  136.6860 C   0  0  2  0  0  3  0  0  0  0  0  0
  185.4950  178.1570  138.4000 N   0  0  0  0  0  0  0  0  0  0  0  0
  186.1330  177.7890  137.1810 C   0  0  0  0  0  0  0  0  0  0  0  0
  186.7730  174.3140  135.7730 N   0  0  0  0  0  2  0  0  0  0  0  0
  186.8330  178.9600  136.2780 S   0  0  0  0  0  0  0  0  0  0  0  0
  185.8160  176.4420  136.5610 C   0  0  2  0  0  3  0  0  0  0  0  0
  183.4920  176.7720  137.2440 O   0  0  0  0  0  0  0  0  0  0  0  0
  184.5410  175.8420  137.2130 C   0  0  1  0  0  3  0  0  0  0  0  0
  181.9490  177.5450  138.7600 O   0  0  0  0  0  0  0  0  0  0  0  0
  185.2910  177.8390  139.8520 C   0  0  1  0  0  3  0  0  0  0  0  0
  186.2520  173.1340  136.4660 C   0  0  1  0  0  3  0  0  0  0  0  0
  184.0580  174.5140  136.6310 C   0  0  2  0  0  3  0  0  0  0  0  0
  183.2630  177.0440  138.6070 C   0  0  2  0  0  3  0  0  0  0  0  0
  184.0830  172.0720  137.1320 C   0  0  0  0  0  1  0  0  0  0  0  0
  180.6860  179.4570  139.1950 N   0  0  0  0  0  0  0  0  0  0  0  0
  187.2810  172.5580  137.4260 C   0  0  0  0  0  1  0  0  0  0  0  0
  184.8980  173.3550  137.1650 C   0  0  1  0  0  3  0  0  0  0  0  0
  181.8460  178.9080  139.0160 C   0  0  0  0  0  0  0  0  0  0  0  0
  183.3940  179.8110  139.1130 S   0  0  0  0  0  0  0  0  0  0  0  0
  184.0040  174.5390  135.2330 O   0  0  0  0  0  1  0  0  0  0  0  0
  185.8510  178.9720  140.6990 C   0  0  0  0  0  2  0  0  0  0  0  0
  185.7300  178.6490  142.0500 O   0  0  0  0  0  1  0  0  0  0  0  0
  179.5780  181.0090  140.6990 C   0  0  0  0  0  1  0  0  0  0  0  0
  180.4950  180.8740  139.4920 C   0  0  2  0  0  3  0  0  0  0  0  0
  180.2620  182.7640  135.5880 C   0  0  0  0  0  2  0  0  0  0  0  0
  181.2450  184.8550  136.7370 C   0  0  0  0  0  1  0  0  0  0  0  0
  179.4290  181.5080  135.8410 C   0  0  2  0  0  3  0  0  0  0  0  0
  180.5140  182.9460  138.0630 C   0  0  0  0  0  3  0  0  0  0  0  0
  180.0110  180.7280  137.0150 C   0  0  0  0  0  2  0  0  0  0  0  0
  179.4300  180.6420  134.5990 C   0  0  0  0  0  1  0  0  0  0  0  0
  179.8920  181.5830  138.2770 C   0  0  1  0  0  3  0  0  0  0  0  0
  180.5950  183.5220  136.8520 C   0  0  0  0  0  0  0  0  0  0  0  0
  188.3790  176.0430  136.4550 C   0  0  0  0  0  2  0  0  0  0  0  0
  189.4250  175.0100  136.0380 C   0  0  0  0  0  2  0  0  0  0  0  0
  190.5210  174.8980  137.0920 C   0  0  0  0  0  2  0  0  0  0  0  0
  191.0830  177.1540  137.5510 O   0  0  0  0  0  0  0  0  0  0  0  0
  190.5880  176.1140  137.9610 C   0  0  0  0  0  0  0  0  0  0  0  0
  189.9760  176.0640  139.3210 C   0  0  0  0  0  2  0  0  0  0  0  0
  190.9400  177.2660  142.3030 N   0  0  0  0  0  0  0  0  0  0  0  0
  191.7580  177.7480  143.4120 C   0  0  0  0  0  1  0  0  0  0  0  0
  188.7460  176.3410  143.0420 C   0  0  0  0  0  2  0  0  0  0  0  0
  189.4980  177.3640  142.2260 C   0  0  0  0  0  0  0  0  0  0  0  0
  188.6880  177.8250  143.4160 C   0  0  0  0  0  2  0  0  0  0  0  0
  191.3110  177.3560  140.9500 C   0  0  0  0  0  0  0  0  0  0  0  0
  190.1200  177.3890  140.0610 C   0  0  2  0  0  3  0  0  0  0  0  0
  188.9990  177.5540  140.9170 O   0  0  0  0  0  0  0  0  0  0  0  0
  192.5060  177.4370  140.5560 O   0  0  0  0  0  0  0  0  0  0  0  0
  1 20  1  1  0  0  0
  1 11  1  0  0  0  0
  2 34  1  6  0  0  0
  3  1  1  0  0  0  0
  3 11  1  0  0  0  0
  4  3  1  0  0  0  0
  5 12  1  0  0  0  0
  5  2  1  0  0  0  0
  6  4  2  0  0  0  0
  7  2  1  0  0  0  0
  7  4  1  1  0  0  0
  7  9  1  0  0  0  0
  9  8  1  6  0  0  0
 10 19  1  0  0  0  0
 11 22  1  1  0  0  0
 12 18  1  0  0  0  0
 12 17  1  1  0  0  0
 13 21  1  6  0  0  0
 13 18  1  0  0  0  0
 13  9  1  0  0  0  0
 14  8  1  6  0  0  0
 14 10  1  0  0  0  0
 14  1  1  0  0  0  0
 16 25  1  0  0  0  0
 18 15  1  6  0  0  0
 19 20  1  0  0  0  0
 19 16  2  0  0  0  0
 22 23  1  0  0  0  0
 25 24  1  1  0  0  0
 26 28  1  0  0  0  0
 26 33  1  0  0  0  0
 27 33  1  0  0  0  0
 28 31  1  6  0  0  0
 28 30  1  0  0  0  0
 29 32  1  0  0  0  0
 30 32  1  0  0  0  0
 32 25  1  1  0  0  0
 33 29  2  0  0  0  0
 35 34  1  0  0  0  0
 35 36  1  0  0  0  0
 36 38  1  0  0  0  0
 37 38  2  0  0  0  0
 38 39  1  0  0  0  0
 40 41  1  0  0  0  0
 42 44  1  0  0  0  0
 43 40  1  0  0  0  0
 43 42  1  0  0  0  0
 43 44  1  0  0  0  0
 45 40  1  0  0  0  0
 46 39  1  1  0  0  0
 46 47  1  0  0  0  0
 46 45  1  0  0  0  0
 47 43  1  0  0  0  0
 48 45  2  0  0  0  0
M  END
>  <MODEL>
2

>  <REMARK>
 VINA RESULT:      -6.9      4.163      6.927
  Name = 
  9 active torsions:
  status: ('A' for Active; 'I' for Inactive)
    1  A    between atoms: C_2  and  C_8
    2  A    between atoms: C_2  and  C_10
    3  A    between atoms: C_3  and  C_10
    4  A    between atoms: C_3  and  C_32
    5  A    between atoms: C_4  and  C_24
    6  A    between atoms: C_14  and  C_32
    7  A    between atoms: C_14  and  C_34
    8  A    between atoms: C_27  and  N_40
    9  A    between atoms: C_27  and  C_47
                            x       y       z     vdW  Elec       q    Type
                         _______ _______ _______ _____ _____    ______ ____

>  <TORSDO>
F 9

$$$$
=
 OpenBabel11042411173D

 48 54  0  0  1  0  0  0  0  0999 V2000
  189.8820  175.4300  137.6260 C   0  0  2  0  0  0  0  0  0  0  0  0
  187.6410  178.1090  140.6180 C   0  0  2  0  0  3  0  0  0  0  0  0
  188.8040  176.4590  137.7080 N   0  0  0  0  0  0  0  0  0  0  0  0
  188.4870  177.7410  138.2430 C   0  0  0  0  0  0  0  0  0  0  0  0
  188.0080  178.7620  141.8750 N   0  0  0  0  0  2  0  0  0  0  0  0
  188.1340  178.9570  137.2080 S   0  0  0  0  0  0  0  0  0  0  0  0
  188.8650  178.0540  139.6780 C   0  0  2  0  0  3  0  0  0  0  0  0
  190.9420  176.8170  139.3100 O   0  0  0  0  0  0  0  0  0  0  0  0
  189.8770  177.0000  140.2050 C   0  0  1  0  0  3  0  0  0  0  0  0
  192.0770  175.0630  138.3540 O   0  0  0  0  0  0  0  0  0  0  0  0
  188.5930  174.9770  137.8030 C   0  0  1  0  0  3  0  0  0  0  0  0
  188.2440  177.7930  142.9480 C   0  0  1  0  0  3  0  0  0  0  0  0
  190.4050  177.2340  141.6190 C   0  0  2  0  0  3  0  0  0  0  0  0
  190.8190  175.4960  138.8360 C   0  0  2  0  0  3  0  0  0  0  0  0
  190.0810  176.4180  143.9530 C   0  0  0  0  0  1  0  0  0  0  0  0
  193.3070  174.5770  136.4330 N   0  0  0  0  0  0  0  0  0  0  0  0
  186.9610  177.0780  143.3380 C   0  0  0  0  0  1  0  0  0  0  0  0
  189.3760  176.7900  142.6580 C   0  0  1  0  0  3  0  0  0  0  0  0
  192.2010  174.9850  136.9720 C   0  0  0  0  0  0  0  0  0  0  0  0
  190.7480  175.4430  136.0220 S   0  0  0  0  0  0  0  0  0  0  0  0
  190.8290  178.5530  141.8130 O   0  0  0  0  0  1  0  0  0  0  0  0
  187.9070  174.4840  136.5370 C   0  0  0  0  0  2  0  0  0  0  0  0
  187.7520  173.0990  136.5980 O   0  0  0  0  0  1  0  0  0  0  0  0
  193.3020  172.9890  134.5960 C   0  0  0  0  0  1  0  0  0  0  0  0
  193.5090  174.4440  134.9940 C   0  0  2  0  0  3  0  0  0  0  0  0
  197.3980  176.3390  135.3710 C   0  0  0  0  0  2  0  0  0  0  0  0
  196.1760  178.5500  134.8470 C   0  0  0  0  0  1  0  0  0  0  0  0
  197.3420  174.8290  135.1480 C   0  0  2  0  0  3  0  0  0  0  0  0
  195.0240  176.4160  134.6100 C   0  0  0  0  0  3  0  0  0  0  0  0
  195.9700  174.2960  135.5490 C   0  0  0  0  0  2  0  0  0  0  0  0
  198.4150  174.1550  135.9760 C   0  0  0  0  0  1  0  0  0  0  0  0
  194.9190  174.9070  134.6210 C   0  0  1  0  0  3  0  0  0  0  0  0
  196.1760  177.0630  134.8580 C   0  0  0  0  0  0  0  0  0  0  0  0
  186.4010  178.7960  140.0180 C   0  0  0  0  0  2  0  0  0  0  0  0
  185.3770  179.2230  141.0690 C   0  0  0  0  0  2  0  0  0  0  0  0
  183.9900  178.6990  140.7120 C   0  0  0  0  0  2  0  0  0  0  0  0
  183.6850  180.4100  139.1020 O   0  0  0  0  0  0  0  0  0  0  0  0
  183.5070  179.2390  139.4030 C   0  0  0  0  0  0  0  0  0  0  0  0
  182.8630  178.3080  138.4320 C   0  0  0  0  0  2  0  0  0  0  0  0
  183.2500  175.4100  136.7830 N   0  0  0  0  0  0  0  0  0  0  0  0
  183.8110  174.3330  135.9720 C   0  0  0  0  0  1  0  0  0  0  0  0
  180.7580  175.4240  136.7910 C   0  0  0  0  0  2  0  0  0  0  0  0
  182.0430  175.3160  137.5740 C   0  0  0  0  0  0  0  0  0  0  0  0
  181.1410  174.1080  137.4710 C   0  0  0  0  0  2  0  0  0  0  0  0
  184.0190  176.3190  137.5300 C   0  0  0  0  0  0  0  0  0  0  0  0
  183.2540  176.8560  138.6860 C   0  0  2  0  0  3  0  0  0  0  0  0
  182.0710  176.0750  138.7670 O   0  0  0  0  0  0  0  0  0  0  0  0
  185.2190  176.6050  137.2660 O   0  0  0  0  0  0  0  0  0  0  0  0
  1 20  1  6  0  0  0
  1  3  1  0  0  0  0
  1 11  1  0  0  0  0
  1 14  1  0  0  0  0
  2 34  1  6  0  0  0
  2  5  1  0  0  0  0
  3 11  1  0  0  0  0
  3  4  1  0  0  0  0
  5 12  1  0  0  0  0
  6  4  2  0  0  0  0
  7  4  1  6  0  0  0
  7  9  1  0  0  0  0
  7  2  1  0  0  0  0
  9  8  1  6  0  0  0
  9 13  1  0  0  0  0
 11 22  1  6  0  0  0
 12 17  1  6  0  0  0
 13 21  1  6  0  0  0
 13 18  1  0  0  0  0
 14 10  1  6  0  0  0
 14  8  1  0  0  0  0
 16 19  2  0  0  0  0
 18 12  1  0  0  0  0
 18 15  1  1  0  0  0
 19 10  1  0  0  0  0
 20 19  1  0  0  0  0
 22 23  1  0  0  0  0
 25 24  1  1  0  0  0
 25 16  1  0  0  0  0
 27 33  1  0  0  0  0
 28 26  1  0  0  0  0
 28 30  1  0  0  0  0
 28 31  1  1  0  0  0
 29 32  1  0  0  0  0
 29 33  2  0  0  0  0
 32 25  1  1  0  0  0
 32 30  1  0  0  0  0
 33 26  1  0  0  0  0
 34 35  1  0  0  0  0
 36 35  1  0  0  0  0
 37 38  2  0  0  0  0
 38 36  1  0  0  0  0
 39 38  1  0  0  0  0
 40 45  1  0  0  0  0
 40 43  1  0  0  0  0
 41 40  1  0  0  0  0
 42 44  1  0  0  0  0
 42 43  1  0  0  0  0
 43 47  1  0  0  0  0
 44 43  1  0  0  0  0
 45 46  1  0  0  0  0
 46 39  1  6  0  0  0
 46 47  1  0  0  0  0
 48 45  2  0  0  0  0
M  END
>  <MODEL>
3

>  <REMARK>
 VINA RESULT:      -6.3      2.973     11.268
  Name = 
  9 active torsions:
  status: ('A' for Active; 'I' for Inactive)
    1  A    between atoms: C_2  and  C_8
    2  A    between atoms: C_2  and  C_10
    3  A    between atoms: C_3  and  C_10
    4  A    between atoms: C_3  and  C_32
    5  A    between atoms: C_4  and  C_24
    6  A    between atoms: C_14  and  C_32
    7  A    between atoms: C_14  and  C_34
    8  A    between atoms: C_27  and  N_40
    9  A    between atoms: C_27  and  C_47
                            x       y       z     vdW  Elec       q    Type
                         _______ _______ _______ _____ _____    ______ ____

>  <TORSDO>
F 9

$$$$
=
 OpenBabel11042411173D

 48 54  0  0  1  0  0  0  0  0999 V2000
  189.1610  175.5010  137.4460 C   0  0  2  0  0  0  0  0  0  0  0  0
  186.7280  178.3540  140.1080 C   0  0  2  0  0  3  0  0  0  0  0  0
  188.0820  176.5310  137.3910 N   0  0  0  0  0  0  0  0  0  0  0  0
  187.7340  177.8430  137.8240 C   0  0  0  0  0  0  0  0  0  0  0  0
  187.0100  179.0830  141.3460 N   0  0  0  0  0  2  0  0  0  0  0  0
  187.4560  178.9930  136.6950 S   0  0  0  0  0  0  0  0  0  0  0  0
  188.0140  178.2430  139.2600 C   0  0  2  0  0  3  0  0  0  0  0  0
  190.1070  176.9880  139.1120 O   0  0  0  0  0  0  0  0  0  0  0  0
  188.9840  177.2250  139.9180 C   0  0  1  0  0  3  0  0  0  0  0  0
  191.2990  175.1810  138.3440 O   0  0  0  0  0  0  0  0  0  0  0  0
  187.8620  175.0570  137.5610 C   0  0  1  0  0  3  0  0  0  0  0  0
  187.1690  178.1810  142.4890 C   0  0  1  0  0  3  0  0  0  0  0  0
  189.4150  177.5450  141.3490 C   0  0  2  0  0  3  0  0  0  0  0  0
  190.0130  175.6410  138.7120 C   0  0  2  0  0  3  0  0  0  0  0  0
  188.9290  176.8720  143.7000 C   0  0  0  0  0  1  0  0  0  0  0  0
  192.6570  174.5800  136.5450 N   0  0  0  0  0  0  0  0  0  0  0  0
  185.8600  177.4900  142.8340 C   0  0  0  0  0  1  0  0  0  0  0  0
  188.3150  177.1640  142.3400 C   0  0  1  0  0  3  0  0  0  0  0  0
  191.5180  175.0200  136.9810 C   0  0  0  0  0  0  0  0  0  0  0  0
  190.1350  175.4160  135.9070 S   0  0  0  0  0  0  0  0  0  0  0  0
  189.8280  178.8740  141.4900 O   0  0  0  0  0  1  0  0  0  0  0  0
  187.2630  174.4870  136.2840 C   0  0  0  0  0  2  0  0  0  0  0  0
  186.7710  173.2050  136.5300 O   0  0  0  0  0  1  0  0  0  0  0  0
  192.6680  172.9060  134.7860 C   0  0  0  0  0  1  0  0  0  0  0  0
  192.9560  174.3600  135.1340 C   0  0  2  0  0  3  0  0  0  0  0  0
  196.9320  176.0090  135.7180 C   0  0  0  0  0  2  0  0  0  0  0  0
  195.9230  178.2540  134.9450 C   0  0  0  0  0  1  0  0  0  0  0  0
  196.7830  174.4930  135.5920 C   0  0  2  0  0  3  0  0  0  0  0  0
  194.6400  176.1920  134.7520 C   0  0  0  0  0  3  0  0  0  0  0  0
  195.3470  174.0860  135.9070 C   0  0  0  0  0  2  0  0  0  0  0  0
  197.7320  173.8090  136.5520 C   0  0  0  0  0  1  0  0  0  0  0  0
  194.4230  174.6970  134.8540 C   0  0  1  0  0  3  0  0  0  0  0  0
  195.8120  176.7740  135.0540 C   0  0  0  0  0  0  0  0  0  0  0  0
  185.5340  179.0010  139.3840 C   0  0  0  0  0  2  0  0  0  0  0  0
  184.2060  178.2950  139.6550 C   0  0  0  0  0  2  0  0  0  0  0  0
  183.3270  178.3080  138.4090 C   0  0  0  0  0  2  0  0  0  0  0  0
  181.0360  178.5690  138.9580 O   0  0  0  0  0  0  0  0  0  0  0  0
  182.0790  179.1070  138.6130 C   0  0  0  0  0  0  0  0  0  0  0  0
  182.1370  180.5900  138.4580 C   0  0  0  0  0  2  0  0  0  0  0  0
  180.8050  182.6630  136.1790 N   0  0  0  0  0  0  0  0  0  0  0  0
  180.2400  183.1960  134.9430 C   0  0  0  0  0  1  0  0  0  0  0  0
  181.8750  184.4140  137.5940 C   0  0  0  0  0  2  0  0  0  0  0  0
  180.8170  183.3480  137.4540 C   0  0  0  0  0  0  0  0  0  0  0  0
  180.3930  184.7950  137.5600 C   0  0  0  0  0  2  0  0  0  0  0  0
  180.7160  181.3160  136.5730 C   0  0  0  0  0  0  0  0  0  0  0  0
  180.7900  181.1750  138.0500 C   0  0  2  0  0  3  0  0  0  0  0  0
  180.6920  182.4920  138.5720 O   0  0  0  0  0  0  0  0  0  0  0  0
  180.5540  180.3610  135.7660 O   0  0  0  0  0  0  0  0  0  0  0  0
  1 20  1  6  0  0  0
  1 11  1  0  0  0  0
  1 14  1  0  0  0  0
  2 34  1  6  0  0  0
  2  5  1  0  0  0  0
  3  1  1  0  0  0  0
  3 11  1  0  0  0  0
  3  4  1  0  0  0  0
  5 12  1  0  0  0  0
  6  4  2  0  0  0  0
  7  4  1  6  0  0  0
  7  9  1  0  0  0  0
  7  2  1  0  0  0  0
  9  8  1  6  0  0  0
  9 13  1  0  0  0  0
 11 22  1  6  0  0  0
 12 17  1  6  0  0  0
 13 21  1  6  0  0  0
 13 18  1  0  0  0  0
 14 10  1  6  0  0  0
 14  8  1  0  0  0  0
 16 19  2  0  0  0  0
 18 12  1  0  0  0  0
 18 15  1  1  0  0  0
 19 10  1  0  0  0  0
 20 19  1  0  0  0  0
 22 23  1  0  0  0  0
 25 24  1  1  0  0  0
 25 16  1  0  0  0  0
 27 33  1  0  0  0  0
 28 26  1  0  0  0  0
 28 30  1  0  0  0  0
 28 31  1  1  0  0  0
 29 32  1  0  0  0  0
 29 33  2  0  0  0  0
 32 25  1  1  0  0  0
 32 30  1  0  0  0  0
 33 26  1  0  0  0  0
 34 35  1  0  0  0  0
 36 38  1  0  0  0  0
 36 35  1  0  0  0  0
 38 37  2  0  0  0  0
 39 38  1  0  0  0  0
 40 45  1  0  0  0  0
 40 43  1  0  0  0  0
 41 40  1  0  0  0  0
 43 44  1  0  0  0  0
 43 42  1  0  0  0  0
 43 47  1  0  0  0  0
 44 42  1  0  0  0  0
 45 46  1  0  0  0  0
 46 39  1  6  0  0  0
 46 47  1  0  0  0  0
 48 45  2  0  0  0  0
M  END
>  <MODEL>
4

>  <REMARK>
 VINA RESULT:      -6.0      3.158     12.287
  Name = 
  9 active torsions:
  status: ('A' for Active; 'I' for Inactive)
    1  A    between atoms: C_2  and  C_8
    2  A    between atoms: C_2  and  C_10
    3  A    between atoms: C_3  and  C_10
    4  A    between atoms: C_3  and  C_32
    5  A    between atoms: C_4  and  C_24
    6  A    between atoms: C_14  and  C_32
    7  A    between atoms: C_14  and  C_34
    8  A    between atoms: C_27  and  N_40
    9  A    between atoms: C_27  and  C_47
                            x       y       z     vdW  Elec       q    Type
                         _______ _______ _______ _____ _____    ______ ____

>  <TORSDO>
F 9

$$$$
=
 OpenBabel11042411173D

 48 54  0  0  1  0  0  0  0  0999 V2000
  189.3840  174.6410  136.8430 C   0  0  2  0  0  0  0  0  0  0  0  0
  186.1640  177.7340  137.9460 C   0  0  2  0  0  3  0  0  0  0  0  0
  188.1580  175.3060  136.3110 N   0  0  0  0  0  0  0  0  0  0  0  0
  187.5320  176.5740  136.1370 C   0  0  0  0  0  0  0  0  0  0  0  0
  186.1520  178.9410  138.7740 N   0  0  0  0  0  2  0  0  0  0  0  0
  187.2060  177.0840  134.6170 S   0  0  0  0  0  0  0  0  0  0  0  0
  187.5490  177.5680  137.2820 C   0  0  2  0  0  3  0  0  0  0  0  0
  189.8310  176.8380  137.7690 O   0  0  0  0  0  0  0  0  0  0  0  0
  188.5890  177.1340  138.3500 C   0  0  1  0  0  3  0  0  0  0  0  0
  191.4110  175.1750  137.8870 O   0  0  0  0  0  0  0  0  0  0  0  0
  188.1790  174.0160  137.0750 C   0  0  1  0  0  3  0  0  0  0  0  0
  186.3170  178.6320  140.1970 C   0  0  1  0  0  3  0  0  0  0  0  0
  188.7680  178.0860  139.5310 C   0  0  2  0  0  3  0  0  0  0  0  0
  190.0270  175.4580  137.9690 C   0  0  2  0  0  3  0  0  0  0  0  0
  188.1060  178.3300  141.9230 C   0  0  0  0  0  1  0  0  0  0  0  0
  193.0750  174.2060  136.5710 N   0  0  0  0  0  0  0  0  0  0  0  0
  185.1150  177.8760  140.7410 C   0  0  0  0  0  1  0  0  0  0  0  0
  187.6330  177.9110  140.5400 C   0  0  1  0  0  3  0  0  0  0  0  0
  191.8300  174.5290  136.7290 C   0  0  0  0  0  0  0  0  0  0  0  0
  190.5490  174.1550  135.5280 S   0  0  0  0  0  0  0  0  0  0  0  0
  188.9200  179.4140  139.1200 O   0  0  0  0  0  1  0  0  0  0  0  0
  187.8600  172.8670  136.1310 C   0  0  0  0  0  2  0  0  0  0  0  0
  187.8620  171.6650  136.8390 O   0  0  0  0  0  1  0  0  0  0  0  0
  193.7430  172.0280  135.7310 C   0  0  0  0  0  1  0  0  0  0  0  0
  193.5890  173.5050  135.3980 C   0  0  2  0  0  3  0  0  0  0  0  0
  197.2300  175.8610  135.6140 C   0  0  0  0  0  2  0  0  0  0  0  0
  195.7550  177.8780  134.9680 C   0  0  0  0  0  1  0  0  0  0  0  0
  197.3510  174.3440  135.4850 C   0  0  2  0  0  3  0  0  0  0  0  0
  194.8610  175.6130  134.8760 C   0  0  0  0  0  3  0  0  0  0  0  0
  196.0530  173.6810  135.9330 C   0  0  0  0  0  2  0  0  0  0  0  0
  198.4990  173.8530  136.3400 C   0  0  0  0  0  1  0  0  0  0  0  0
  194.9330  174.1050  134.9810 C   0  0  1  0  0  3  0  0  0  0  0  0
  195.9300  176.4040  135.0700 C   0  0  0  0  0  0  0  0  0  0  0  0
  184.9800  177.7640  136.9650 C   0  0  0  0  0  2  0  0  0  0  0  0
  184.1380  176.4890  136.9920 C   0  0  0  0  0  2  0  0  0  0  0  0
  182.6620  176.8230  137.1780 C   0  0  0  0  0  2  0  0  0  0  0  0
  182.7980  175.7570  139.2900 O   0  0  0  0  0  0  0  0  0  0  0  0
  182.1960  176.5420  138.5710 C   0  0  0  0  0  0  0  0  0  0  0  0
  181.0190  177.2880  139.1040 C   0  0  0  0  0  2  0  0  0  0  0  0
  179.9970  180.4140  139.7750 N   0  0  0  0  0  0  0  0  0  0  0  0
  179.2990  181.5560  140.3580 C   0  0  0  0  0  1  0  0  0  0  0  0
  180.8200  180.8530  137.4640 C   0  0  0  0  0  2  0  0  0  0  0  0
  181.1420  180.4970  138.8940 C   0  0  0  0  0  0  0  0  0  0  0  0
  181.6030  181.8280  138.3470 C   0  0  0  0  0  2  0  0  0  0  0  0
  180.2370  179.2050  140.4520 C   0  0  0  0  0  0  0  0  0  0  0  0
  181.4360  178.5100  139.9150 C   0  0  2  0  0  3  0  0  0  0  0  0
  182.0660  179.4380  139.0440 O   0  0  0  0  0  0  0  0  0  0  0  0
  179.5390  178.7920  141.4170 O   0  0  0  0  0  0  0  0  0  0  0  0
  1 20  1  6  0  0  0
  1 11  1  0  0  0  0
  1 14  1  0  0  0  0
  2 34  1  6  0  0  0
  2  5  1  0  0  0  0
  3  1  1  0  0  0  0
  3 11  1  0  0  0  0
  4  3  1  0  0  0  0
  5 12  1  0  0  0  0
  6  4  2  0  0  0  0
  7  4  1  6  0  0  0
  7  2  1  0  0  0  0
  7  9  1  0  0  0  0
  9  8  1  6  0  0  0
  9 13  1  0  0  0  0
 10 14  1  0  0  0  0
 11 22  1  6  0  0  0
 12 18  1  0  0  0  0
 12 17  1  6  0  0  0
 13 21  1  6  0  0  0
 13 18  1  0  0  0  0
 14  8  1  6  0  0  0
 16 19  2  0  0  0  0
 18 15  1  1  0  0  0
 19 10  1  0  0  0  0
 20 19  1  0  0  0  0
 22 23  1  0  0  0  0
 25 24  1  1  0  0  0
 25 16  1  0  0  0  0
 27 33  1  0  0  0  0
 28 26  1  0  0  0  0
 28 30  1  0  0  0  0
 28 31  1  1  0  0  0
 29 32  1  0  0  0  0
 29 33  2  0  0  0  0
 32 25  1  1  0  0  0
 32 30  1  0  0  0  0
 33 26  1  0  0  0  0
 34 35  1  0  0  0  0
 35 36  1  0  0  0  0
 36 38  1  0  0  0  0
 38 39  1  0  0  0  0
 38 37  2  0  0  0  0
 40 41  1  0  0  0  0
 40 45  1  0  0  0  0
 42 44  1  0  0  0  0
 42 43  1  0  0  0  0
 43 47  1  0  0  0  0
 43 40  1  0  0  0  0
 44 43  1  0  0  0  0
 45 48  2  0  0  0  0
 46 39  1  6  0  0  0
 46 45  1  0  0  0  0
 47 46  1  0  0  0  0
M  END
>  <MODEL>
5

>  <REMARK>
 VINA RESULT:      -5.9      2.709     12.015
  Name = 
  9 active torsions:
  status: ('A' for Active; 'I' for Inactive)
    1  A    between atoms: C_2  and  C_8
    2  A    between atoms: C_2  and  C_10
    3  A    between atoms: C_3  and  C_10
    4  A    between atoms: C_3  and  C_32
    5  A    between atoms: C_4  and  C_24
    6  A    between atoms: C_14  and  C_32
    7  A    between atoms: C_14  and  C_34
    8  A    between atoms: C_27  and  N_40
    9  A    between atoms: C_27  and  C_47
                            x       y       z     vdW  Elec       q    Type
                         _______ _______ _______ _____ _____    ______ ____

>  <TORSDO>
F 9

$$$$
=
 OpenBabel11042411173D

 48 54  0  0  1  0  0  0  0  0999 V2000
  188.7120  175.5400  137.3380 C   0  0  2  0  0  0  0  0  0  0  0  0
  185.9950  178.5040  139.5690 C   0  0  2  0  0  3  0  0  0  0  0  0
  187.5850  176.4940  137.1250 N   0  0  0  0  0  0  0  0  0  0  0  0
  187.1450  177.8200  137.4010 C   0  0  0  0  0  0  0  0  0  0  0  0
  186.1740  179.3710  140.7340 N   0  0  0  0  0  2  0  0  0  0  0  0
  186.8640  178.8300  136.1440 S   0  0  0  0  0  0  0  0  0  0  0  0
  187.3280  178.3820  138.7980 C   0  0  2  0  0  3  0  0  0  0  0  0
  189.4900  177.2440  138.8790 O   0  0  0  0  0  0  0  0  0  0  0  0
  188.3160  177.4960  139.6030 C   0  0  1  0  0  3  0  0  0  0  0  0
  190.8150  175.4400  138.3620 O   0  0  0  0  0  0  0  0  0  0  0  0
  187.4350  175.0350  137.4400 C   0  0  1  0  0  3  0  0  0  0  0  0
  186.3210  178.6030  141.9730 C   0  0  1  0  0  3  0  0  0  0  0  0
  188.6540  177.9860  141.0100 C   0  0  2  0  0  3  0  0  0  0  0  0
  189.4890  175.8590  138.6190 C   0  0  2  0  0  3  0  0  0  0  0  0
  188.0840  177.5320  143.3950 C   0  0  0  0  0  1  0  0  0  0  0  0
  192.2950  174.7380  136.7010 N   0  0  0  0  0  0  0  0  0  0  0  0
  185.0350  177.8760  142.3280 C   0  0  0  0  0  1  0  0  0  0  0  0
  187.5270  177.6460  141.9850 C   0  0  1  0  0  3  0  0  0  0  0  0
  191.1130  175.1520  137.0350 C   0  0  0  0  0  0  0  0  0  0  0  0
  189.7680  175.3550  135.8630 S   0  0  0  0  0  0  0  0  0  0  0  0
  188.9880  179.3440  141.0300 O   0  0  0  0  0  1  0  0  0  0  0  0
  186.9340  174.3020  136.2040 C   0  0  0  0  0  2  0  0  0  0  0  0
  187.0360  172.9250  136.4030 O   0  0  0  0  0  1  0  0  0  0  0  0
  192.3000  172.9410  135.0680 C   0  0  0  0  0  1  0  0  0  0  0  0
  192.6780  174.3910  135.3360 C   0  0  2  0  0  3  0  0  0  0  0  0
  196.6730  175.9740  135.9650 C   0  0  0  0  0  2  0  0  0  0  0  0
  195.8900  178.0150  134.5940 C   0  0  0  0  0  1  0  0  0  0  0  0
  196.4420  174.4780  136.1710 C   0  0  2  0  0  3  0  0  0  0  0  0
  194.5040  176.0160  134.7350 C   0  0  0  0  0  3  0  0  0  0  0  0
  194.9590  174.2120  136.4110 C   0  0  0  0  0  2  0  0  0  0  0  0
  197.2470  174.0010  137.3610 C   0  0  0  0  0  1  0  0  0  0  0  0
  194.1830  174.5970  135.1500 C   0  0  1  0  0  3  0  0  0  0  0  0
  195.6750  176.6070  135.0240 C   0  0  0  0  0  0  0  0  0  0  0  0
  184.8080  179.0020  138.7270 C   0  0  0  0  0  2  0  0  0  0  0  0
  183.6400  178.0180  138.6860 C   0  0  0  0  0  2  0  0  0  0  0  0
  183.1410  177.8350  137.2560 C   0  0  0  0  0  2  0  0  0  0  0  0
  181.0990  178.2510  136.1280 O   0  0  0  0  0  0  0  0  0  0  0  0
  181.8820  178.6010  137.0000 C   0  0  0  0  0  0  0  0  0  0  0  0
  181.5540  179.7650  137.8730 C   0  0  0  0  0  2  0  0  0  0  0  0
  179.9920  180.2480  140.8040 N   0  0  0  0  0  0  0  0  0  0  0  0
  179.3040  180.8740  141.9300 C   0  0  0  0  0  1  0  0  0  0  0  0
  181.1930  178.1580  141.4410 C   0  0  0  0  0  2  0  0  0  0  0  0
  180.1300  178.8220  140.6000 C   0  0  0  0  0  0  0  0  0  0  0  0
  179.7130  177.8420  141.6730 C   0  0  0  0  0  2  0  0  0  0  0  0
  179.9480  180.7280  139.4840 C   0  0  0  0  0  0  0  0  0  0  0  0
  180.1700  179.6370  138.5010 C   0  0  2  0  0  3  0  0  0  0  0  0
  180.1200  178.4270  139.2430 O   0  0  0  0  0  0  0  0  0  0  0  0
  179.7090  181.9300  139.1840 O   0  0  0  0  0  0  0  0  0  0  0  0
  1 20  1  6  0  0  0
  1 11  1  0  0  0  0
  1 14  1  0  0  0  0
  2 34  1  6  0  0  0
  2  5  1  0  0  0  0
  3  1  1  0  0  0  0
  3  4  1  0  0  0  0
  3 11  1  0  0  0  0
  5 12  1  0  0  0  0
  6  4  2  0  0  0  0
  7  4  1  6  0  0  0
  7  2  1  0  0  0  0
  7  9  1  0  0  0  0
  9  8  1  6  0  0  0
  9 13  1  0  0  0  0
 11 22  1  6  0  0  0
 12 18  1  0  0  0  0
 12 17  1  6  0  0  0
 13 21  1  6  0  0  0
 13 18  1  0  0  0  0
 14 10  1  6  0  0  0
 14  8  1  0  0  0  0
 16 19  2  0  0  0  0
 18 15  1  1  0  0  0
 19 10  1  0  0  0  0
 20 19  1  0  0  0  0
 22 23  1  0  0  0  0
 25 24  1  1  0  0  0
 25 16  1  0  0  0  0
 26 28  1  0  0  0  0
 27 33  1  0  0  0  0
 28 30  1  0  0  0  0
 28 31  1  1  0  0  0
 29 33  2  0  0  0  0
 29 32  1  0  0  0  0
 32 25  1  1  0  0  0
 32 30  1  0  0  0  0
 33 26  1  0  0  0  0
 35 34  1  0  0  0  0
 36 35  1  0  0  0  0
 37 38  2  0  0  0  0
 38 36  1  0  0  0  0
 38 39  1  0  0  0  0
 40 41  1  0  0  0  0
 42 44  1  0  0  0  0
 43 40  1  0  0  0  0
 43 42  1  0  0  0  0
 43 44  1  0  0  0  0
 45 40  1  0  0  0  0
 46 39  1  1  0  0  0
 46 47  1  0  0  0  0
 46 45  1  0  0  0  0
 47 43  1  0  0  0  0
 48 45  2  0  0  0  0
M  END
>  <MODEL>
6

>  <REMARK>
 VINA RESULT:      -5.9      2.768     12.113
  Name = 
  9 active torsions:
  status: ('A' for Active; 'I' for Inactive)
    1  A    between atoms: C_2  and  C_8
    2  A    between atoms: C_2  and  C_10
    3  A    between atoms: C_3  and  C_10
    4  A    between atoms: C_3  and  C_32
    5  A    between atoms: C_4  and  C_24
    6  A    between atoms: C_14  and  C_32
    7  A    between atoms: C_14  and  C_34
    8  A    between atoms: C_27  and  N_40
    9  A    between atoms: C_27  and  C_47
                            x       y       z     vdW  Elec       q    Type
                         _______ _______ _______ _____ _____    ______ ____

>  <TORSDO>
F 9

$$$$
=
 OpenBabel11042411173D

 48 54  0  0  1  0  0  0  0  0999 V2000
  188.8260  175.2940  137.1940 C   0  0  2  0  0  0  0  0  0  0  0  0
  185.9490  178.2670  139.2010 C   0  0  2  0  0  3  0  0  0  0  0  0
  187.6170  176.1270  136.9250 N   0  0  0  0  0  0  0  0  0  0  0  0
  187.0780  177.4370  137.0740 C   0  0  0  0  0  0  0  0  0  0  0  0
  186.0930  179.2700  140.2570 N   0  0  0  0  0  2  0  0  0  0  0  0
  186.6740  178.2750  135.7280 S   0  0  0  0  0  0  0  0  0  0  0  0
  187.2600  178.1640  138.3920 C   0  0  2  0  0  3  0  0  0  0  0  0
  189.5100  177.2150  138.5060 O   0  0  0  0  0  0  0  0  0  0  0  0
  188.3440  177.4540  139.2470 C   0  0  1  0  0  3  0  0  0  0  0  0
  190.9630  175.4750  138.1330 O   0  0  0  0  0  0  0  0  0  0  0  0
  187.5990  174.7050  137.4030 C   0  0  1  0  0  3  0  0  0  0  0  0
  186.3440  178.6580  141.5640 C   0  0  1  0  0  3  0  0  0  0  0  0
  188.6870  178.1230  140.5780 C   0  0  2  0  0  3  0  0  0  0  0  0
  189.6160  175.8150  138.3990 C   0  0  2  0  0  3  0  0  0  0  0  0
  188.2350  177.8940  143.0190 C   0  0  0  0  0  1  0  0  0  0  0  0
  192.4400  174.7110  136.4980 N   0  0  0  0  0  0  0  0  0  0  0  0
  185.1350  177.8760  142.0500 C   0  0  0  0  0  1  0  0  0  0  0  0
  187.6240  177.8060  141.6290 C   0  0  1  0  0  3  0  0  0  0  0  0
  191.2400  175.0650  136.8340 C   0  0  0  0  0  0  0  0  0  0  0  0
  189.8450  175.0290  135.7050 S   0  0  0  0  0  0  0  0  0  0  0  0
  188.9080  179.4970  140.4350 O   0  0  0  0  0  1  0  0  0  0  0  0
  187.1200  173.8020  136.2760 C   0  0  0  0  0  2  0  0  0  0  0  0
  187.3300  172.4680  136.6240 O   0  0  0  0  0  1  0  0  0  0  0  0
  192.5460  172.7480  135.0720 C   0  0  0  0  0  1  0  0  0  0  0  0
  192.8060  174.2450  135.1640 C   0  0  2  0  0  3  0  0  0  0  0  0
  196.7840  175.8970  135.7180 C   0  0  0  0  0  2  0  0  0  0  0  0
  195.8110  178.0940  134.7780 C   0  0  0  0  0  1  0  0  0  0  0  0
  196.6240  174.3780  135.6890 C   0  0  2  0  0  3  0  0  0  0  0  0
  194.5130  176.0340  134.6960 C   0  0  0  0  0  3  0  0  0  0  0  0
  195.1780  174.0030  136.0010 C   0  0  0  0  0  2  0  0  0  0  0  0
  197.5480  173.7510  136.7110 C   0  0  0  0  0  1  0  0  0  0  0  0
  194.2800  174.5520  134.8910 C   0  0  1  0  0  3  0  0  0  0  0  0
  195.6850  176.6260  134.9820 C   0  0  0  0  0  0  0  0  0  0  0  0
  184.6960  178.5730  138.3610 C   0  0  0  0  0  2  0  0  0  0  0  0
  183.4330  178.7570  139.2000 C   0  0  0  0  0  2  0  0  0  0  0  0
  182.6400  179.9670  138.7190 C   0  0  0  0  0  2  0  0  0  0  0  0
  180.6240  181.0880  139.2600 O   0  0  0  0  0  0  0  0  0  0  0  0
  181.3780  180.1560  139.4990 C   0  0  0  0  0  0  0  0  0  0  0  0
  181.0100  179.1450  140.5330 C   0  0  0  0  0  2  0  0  0  0  0  0
  179.9580  175.9710  140.2420 N   0  0  0  0  0  0  0  0  0  0  0  0
  179.4400  174.6420  140.5520 C   0  0  0  0  0  1  0  0  0  0  0  0
  181.3830  176.0070  138.1980 C   0  0  0  0  0  2  0  0  0  0  0  0
  180.1490  176.5030  138.9100 C   0  0  0  0  0  0  0  0  0  0  0  0
  179.9900  175.6200  137.6940 C   0  0  0  0  0  2  0  0  0  0  0  0
  179.6530  177.1300  140.9780 C   0  0  0  0  0  0  0  0  0  0  0  0
  179.7690  178.3520  140.1400 C   0  0  2  0  0  3  0  0  0  0  0  0
  179.9270  177.8950  138.8050 O   0  0  0  0  0  0  0  0  0  0  0  0
  179.2890  177.1170  142.1850 O   0  0  0  0  0  0  0  0  0  0  0  0
  1 20  1  6  0  0  0
  1 11  1  0  0  0  0
  1 14  1  0  0  0  0
  2 34  1  6  0  0  0
  2  5  1  0  0  0  0
  3  4  1  0  0  0  0
  3  1  1  0  0  0  0
  3 11  1  0  0  0  0
  5 12  1  0  0  0  0
  6  4  2  0  0  0  0
  7  4  1  6  0  0  0
  7  2  1  0  0  0  0
  7  9  1  0  0  0  0
  9  8  1  6  0  0  0
  9 13  1  0  0  0  0
 11 22  1  6  0  0  0
 12 18  1  0  0  0  0
 12 17  1  6  0  0  0
 13 21  1  6  0  0  0
 13 18  1  0  0  0  0
 14 10  1  6  0  0  0
 14  8  1  0  0  0  0
 16 19  2  0  0  0  0
 18 15  1  1  0  0  0
 19 10  1  0  0  0  0
 20 19  1  0  0  0  0
 22 23  1  0  0  0  0
 25 24  1  1  0  0  0
 25 16  1  0  0  0  0
 27 33  1  0  0  0  0
 28 26  1  0  0  0  0
 28 30  1  0  0  0  0
 28 31  1  1  0  0  0
 29 32  1  0  0  0  0
 29 33  2  0  0  0  0
 32 25  1  1  0  0  0
 32 30  1  0  0  0  0
 33 26  1  0  0  0  0
 34 35  1  0  0  0  0
 36 35  1  0  0  0  0
 36 38  1  0  0  0  0
 37 38  2  0  0  0  0
 38 39  1  0  0  0  0
 40 41  1  0  0  0  0
 40 45  1  0  0  0  0
 42 43  1  0  0  0  0
 43 40  1  0  0  0  0
 44 42  1  0  0  0  0
 44 43  1  0  0  0  0
 45 48  2  0  0  0  0
 46 39  1  1  0  0  0
 46 45  1  0  0  0  0
 47 43  1  0  0  0  0
 47 46  1  0  0  0  0
M  END
>  <MODEL>
7

>  <REMARK>
 VINA RESULT:      -5.8      3.021     12.116
  Name = 
  9 active torsions:
  status: ('A' for Active; 'I' for Inactive)
    1  A    between atoms: C_2  and  C_8
    2  A    between atoms: C_2  and  C_10
    3  A    between atoms: C_3  and  C_10
    4  A    between atoms: C_3  and  C_32
    5  A    between atoms: C_4  and  C_24
    6  A    between atoms: C_14  and  C_32
    7  A    between atoms: C_14  and  C_34
    8  A    between atoms: C_27  and  N_40
    9  A    between atoms: C_27  and  C_47
                            x       y       z     vdW  Elec       q    Type
                         _______ _______ _______ _____ _____    ______ ____

>  <TORSDO>
F 9

$$$$
=
 OpenBabel11042411173D

 48 54  0  0  1  0  0  0  0  0999 V2000
  184.3190  176.7620  137.4300 C   0  0  2  0  0  0  0  0  0  0  0  0
  188.5290  175.7520  135.8820 C   0  0  2  0  0  3  0  0  0  0  0  0
  185.5210  177.3810  136.7980 N   0  0  0  0  0  0  0  0  0  0  0  0
  186.4580  177.2280  135.7360 C   0  0  0  0  0  0  0  0  0  0  0  0
  189.1350  174.5660  135.2750 N   0  0  0  0  0  2  0  0  0  0  0  0
  186.5450  178.3960  134.5940 S   0  0  0  0  0  0  0  0  0  0  0  0
  187.0460  175.8570  135.4640 C   0  0  2  0  0  3  0  0  0  0  0  0
  184.8470  174.9100  135.9560 O   0  0  0  0  0  0  0  0  0  0  0  0
  186.2200  174.7670  136.1990 C   0  0  1  0  0  3  0  0  0  0  0  0
  182.8970  174.9200  137.1700 O   0  0  0  0  0  0  0  0  0  0  0  0
  185.2760  177.2790  138.2750 C   0  0  1  0  0  3  0  0  0  0  0  0
  189.2370  173.4550  136.2230 C   0  0  1  0  0  3  0  0  0  0  0  0
  186.6570  173.3230  135.9530 C   0  0  2  0  0  3  0  0  0  0  0  0
  184.2730  175.2490  137.1970 C   0  0  2  0  0  3  0  0  0  0  0  0
  187.9310  171.4850  137.0540 C   0  0  0  0  0  1  0  0  0  0  0  0
  180.7380  175.7980  137.0610 N   0  0  0  0  0  0  0  0  0  0  0  0
  190.2260  173.7660  137.3350 C   0  0  0  0  0  1  0  0  0  0  0  0
  187.8870  172.9820  136.7930 C   0  0  1  0  0  3  0  0  0  0  0  0
  182.0190  175.9940  137.0690 C   0  0  0  0  0  0  0  0  0  0  0  0
  182.7720  177.6220  136.9930 S   0  0  0  0  0  0  0  0  0  0  0  0
  186.8430  173.0520  134.5940 O   0  0  0  0  0  1  0  0  0  0  0  0
  184.9640  178.6610  138.8290 C   0  0  0  0  0  2  0  0  0  0  0  0
  185.7860  178.9220  139.9250 O   0  0  0  0  0  1  0  0  0  0  0  0
  180.4270  178.1250  136.4420 C   0  0  0  0  0  1  0  0  0  0  0  0
  179.7530  176.8720  136.9840 C   0  0  2  0  0  3  0  0  0  0  0  0
  179.5300  177.2360  141.3060 C   0  0  0  0  0  2  0  0  0  0  0  0
  179.2990  174.6660  141.3340 C   0  0  0  0  0  1  0  0  0  0  0  0
  179.2670  178.4780  140.4550 C   0  0  2  0  0  3  0  0  0  0  0  0
  179.1870  175.8930  139.2320 C   0  0  0  0  0  3  0  0  0  0  0  0
  179.8760  178.2950  139.0690 C   0  0  0  0  0  2  0  0  0  0  0  0
  179.8760  179.6900  141.1270 C   0  0  0  0  0  1  0  0  0  0  0  0
  179.1620  177.1370  138.3700 C   0  0  1  0  0  3  0  0  0  0  0  0
  179.2570  175.9430  140.5730 C   0  0  0  0  0  0  0  0  0  0  0  0
  189.3790  176.9940  135.5580 C   0  0  0  0  0  2  0  0  0  0  0  0
  190.2050  177.4890  136.7430 C   0  0  0  0  0  2  0  0  0  0  0  0
  189.5010  177.1740  138.0590 C   0  0  0  0  0  2  0  0  0  0  0  0
  188.3300  179.2330  138.1300 O   0  0  0  0  0  0  0  0  0  0  0  0
  189.0020  178.4110  138.7370 C   0  0  0  0  0  0  0  0  0  0  0  0
  189.2750  178.5970  140.1910 C   0  0  0  0  0  2  0  0  0  0  0  0
  189.1830  177.5210  143.3690 N   0  0  0  0  0  0  0  0  0  0  0  0
  188.7440  177.2470  144.7350 C   0  0  0  0  0  1  0  0  0  0  0  0
  191.6640  177.5620  143.1340 C   0  0  0  0  0  2  0  0  0  0  0  0
  190.3470  176.9420  142.7350 C   0  0  0  0  0  0  0  0  0  0  0  0
  191.3350  176.1200  143.5310 C   0  0  0  0  0  2  0  0  0  0  0  0
  188.3120  177.6930  142.2790 C   0  0  0  0  0  0  0  0  0  0  0  0
  188.9710  177.3380  140.9950 C   0  0  2  0  0  3  0  0  0  0  0  0
  190.1990  176.7170  141.3470 O   0  0  0  0  0  0  0  0  0  0  0  0
  187.1120  178.0660  142.3930 O   0  0  0  0  0  0  0  0  0  0  0  0
  1 20  1  6  0  0  0
  1 11  1  0  0  0  0
  2 34  1  6  0  0  0
  3  1  1  0  0  0  0
  3 11  1  0  0  0  0
  4  3  1  0  0  0  0
  5  2  1  0  0  0  0
  5 12  1  0  0  0  0
  6  4  2  0  0  0  0
  7  4  1  1  0  0  0
  7  2  1  0  0  0  0
  7  9  1  0  0  0  0
  9  8  1  6  0  0  0
 10 14  1  0  0  0  0
 11 22  1  6  0  0  0
 12 18  1  0  0  0  0
 12 17  1  1  0  0  0
 13 21  1  6  0  0  0
 13  9  1  0  0  0  0
 13 18  1  0  0  0  0
 14  8  1  6  0  0  0
 14  1  1  0  0  0  0
 16 19  2  0  0  0  0
 18 15  1  6  0  0  0
 19 10  1  0  0  0  0
 20 19  1  0  0  0  0
 22 23  1  0  0  0  0
 25 24  1  1  0  0  0
 25 16  1  0  0  0  0
 28 31  1  1  0  0  0
 28 26  1  0  0  0  0
 29 33  2  0  0  0  0
 30 28  1  0  0  0  0
 32 25  1  6  0  0  0
 32 30  1  0  0  0  0
 32 29  1  0  0  0  0
 33 26  1  0  0  0  0
 33 27  1  0  0  0  0
 34 35  1  0  0  0  0
 35 36  1  0  0  0  0
 36 38  1  0  0  0  0
 37 38  2  0  0  0  0
 38 39  1  0  0  0  0
 40 41  1  0  0  0  0
 42 44  1  0  0  0  0
 43 42  1  0  0  0  0
 43 40  1  0  0  0  0
 43 44  1  0  0  0  0
 45 48  2  0  0  0  0
 45 40  1  0  0  0  0
 46 39  1  6  0  0  0
 46 47  1  0  0  0  0
 46 45  1  0  0  0  0
 47 43  1  0  0  0  0
M  END
>  <MODEL>
8

>  <REMARK>
 VINA RESULT:      -5.7      4.367      6.553
  Name = 
  9 active torsions:
  status: ('A' for Active; 'I' for Inactive)
    1  A    between atoms: C_2  and  C_8
    2  A    between atoms: C_2  and  C_10
    3  A    between atoms: C_3  and  C_10
    4  A    between atoms: C_3  and  C_32
    5  A    between atoms: C_4  and  C_24
    6  A    between atoms: C_14  and  C_32
    7  A    between atoms: C_14  and  C_34
    8  A    between atoms: C_27  and  N_40
    9  A    between atoms: C_27  and  C_47
                            x       y       z     vdW  Elec       q    Type
                         _______ _______ _______ _____ _____    ______ ____

>  <TORSDO>
F 9

$$$$
=
 OpenBabel11042411173D

 48 54  0  0  1  0  0  0  0  0999 V2000
  182.8250  178.1680  138.8740 C   0  0  2  0  0  0  0  0  0  0  0  0
  185.0400  175.0870  136.2770 C   0  0  2  0  0  3  0  0  0  0  0  0
  184.1320  177.9210  138.1960 N   0  0  0  0  0  0  0  0  0  0  0  0
  184.7190  177.5190  136.9620 C   0  0  0  0  0  0  0  0  0  0  0  0
  184.6200  174.1190  135.2630 N   0  0  0  0  0  2  0  0  0  0  0  0
  185.6980  178.5720  136.1810 S   0  0  0  0  0  0  0  0  0  0  0  0
  184.1330  176.3350  136.2180 C   0  0  2  0  0  3  0  0  0  0  0  0
  181.9170  177.1250  136.8820 O   0  0  0  0  0  0  0  0  0  0  0  0
  182.7320  175.9870  136.7890 C   0  0  1  0  0  3  0  0  0  0  0  0
  180.5270  178.0990  138.4300 O   0  0  0  0  0  0  0  0  0  0  0  0
  183.8050  177.5390  139.6090 C   0  0  1  0  0  3  0  0  0  0  0  0
  183.8220  173.0330  135.8380 C   0  0  1  0  0  3  0  0  0  0  0  0
  181.9870  174.8560  136.0810 C   0  0  2  0  0  3  0  0  0  0  0  0
  181.7010  177.3280  138.2590 C   0  0  2  0  0  3  0  0  0  0  0  0
  181.4460  172.4380  136.3630 C   0  0  0  0  0  1  0  0  0  0  0  0
  179.7070  180.2050  139.0080 N   0  0  0  0  0  0  0  0  0  0  0  0
  184.6580  172.1630  136.7630 C   0  0  0  0  0  1  0  0  0  0  0  0
  182.5250  173.4960  136.5270 C   0  0  1  0  0  3  0  0  0  0  0  0
  180.7220  179.4240  138.8040 C   0  0  0  0  0  0  0  0  0  0  0  0
  182.4280  179.9430  139.0120 S   0  0  0  0  0  0  0  0  0  0  0  0
  181.9950  175.0070  134.6910 O   0  0  0  0  0  1  0  0  0  0  0  0
  184.5700  178.4420  140.5650 C   0  0  0  0  0  2  0  0  0  0  0  0
  184.3050  178.0620  141.8800 O   0  0  0  0  0  1  0  0  0  0  0  0
  178.9790  181.8170  140.6720 C   0  0  0  0  0  1  0  0  0  0  0  0
  179.8270  181.5980  139.4260 C   0  0  2  0  0  3  0  0  0  0  0  0
  179.8340  184.9350  136.6470 C   0  0  0  0  0  2  0  0  0  0  0  0
  178.9320  186.3450  138.6110 C   0  0  0  0  0  1  0  0  0  0  0  0
  179.8830  183.5170  136.0820 C   0  0  2  0  0  3  0  0  0  0  0  0
  179.0870  183.9210  138.8000 C   0  0  0  0  0  3  0  0  0  0  0  0
  180.3820  182.5510  137.1510 C   0  0  0  0  0  2  0  0  0  0  0  0
  180.8110  183.4800  134.8860 C   0  0  0  0  0  1  0  0  0  0  0  0
  179.3670  182.5220  138.2960 C   0  0  1  0  0  3  0  0  0  0  0  0
  179.2070  185.0080  138.0200 C   0  0  0  0  0  0  0  0  0  0  0  0
  186.5440  175.3770  136.1270 C   0  0  0  0  0  2  0  0  0  0  0  0
  187.3790  174.1260  135.8570 C   0  0  0  0  0  2  0  0  0  0  0  0
  188.5250  174.0180  136.8560 C   0  0  0  0  0  2  0  0  0  0  0  0
  189.9200  174.7380  135.0810 O   0  0  0  0  0  0  0  0  0  0  0  0
  189.8220  174.4810  136.2730 C   0  0  0  0  0  0  0  0  0  0  0  0
  190.9870  174.6950  137.1800 C   0  0  0  0  0  2  0  0  0  0  0  0
  191.7190  176.9290  139.5760 N   0  0  0  0  0  0  0  0  0  0  0  0
  192.4400  177.7240  140.5660 C   0  0  0  0  0  1  0  0  0  0  0  0
  189.2800  176.7520  140.0610 C   0  0  0  0  0  2  0  0  0  0  0  0
  190.3720  177.1910  139.1160 C   0  0  0  0  0  0  0  0  0  0  0  0
  189.5150  178.2400  139.7880 C   0  0  0  0  0  2  0  0  0  0  0  0
  192.3110  176.3620  138.4340 C   0  0  0  0  0  0  0  0  0  0  0  0
  191.3190  176.1740  137.3430 C   0  0  2  0  0  3  0  0  0  0  0  0
  190.1470  176.8590  137.7610 O   0  0  0  0  0  0  0  0  0  0  0  0
  193.5390  176.0870  138.3450 O   0  0  0  0  0  0  0  0  0  0  0  0
  1 20  1  1  0  0  0
  1 11  1  0  0  0  0
  2 34  1  6  0  0  0
  3  1  1  0  0  0  0
  3 11  1  0  0  0  0
  4  3  1  0  0  0  0
  5 12  1  0  0  0  0
  5  2  1  0  0  0  0
  6  4  2  0  0  0  0
  7  2  1  0  0  0  0
  7  9  1  0  0  0  0
  7  4  1  1  0  0  0
  9  8  1  6  0  0  0
 10 19  1  0  0  0  0
 11 22  1  1  0  0  0
 12 18  1  0  0  0  0
 12 17  1  1  0  0  0
 13 21  1  6  0  0  0
 13 18  1  0  0  0  0
 13  9  1  0  0  0  0
 14  8  1  6  0  0  0
 14 10  1  0  0  0  0
 14  1  1  0  0  0  0
 16 25  1  0  0  0  0
 18 15  1  6  0  0  0
 19 16  2  0  0  0  0
 19 20  1  0  0  0  0
 22 23  1  0  0  0  0
 25 24  1  1  0  0  0
 26 33  1  0  0  0  0
 28 31  1  6  0  0  0
 28 26  1  0  0  0  0
 28 30  1  0  0  0  0
 30 32  1  0  0  0  0
 32 29  1  0  0  0  0
 32 25  1  1  0  0  0
 33 27  1  0  0  0  0
 33 29  2  0  0  0  0
 35 34  1  0  0  0  0
 35 36  1  0  0  0  0
 37 38  2  0  0  0  0
 38 36  1  0  0  0  0
 38 39  1  0  0  0  0
 40 41  1  0  0  0  0
 43 40  1  0  0  0  0
 43 44  1  0  0  0  0
 43 42  1  0  0  0  0
 44 42  1  0  0  0  0
 45 40  1  0  0  0  0
 46 39  1  1  0  0  0
 46 47  1  0  0  0  0
 46 45  1  0  0  0  0
 47 43  1  0  0  0  0
 48 45  2  0  0  0  0
M  END
>  <MODEL>
9

>  <REMARK>
 VINA RESULT:      -5.4      3.993      7.265
  Name = 
  9 active torsions:
  status: ('A' for Active; 'I' for Inactive)
    1  A    between atoms: C_2  and  C_8
    2  A    between atoms: C_2  and  C_10
    3  A    between atoms: C_3  and  C_10
    4  A    between atoms: C_3  and  C_32
    5  A    between atoms: C_4  and  C_24
    6  A    between atoms: C_14  and  C_32
    7  A    between atoms: C_14  and  C_34
    8  A    between atoms: C_27  and  N_40
    9  A    between atoms: C_27  and  C_47
                            x       y       z     vdW  Elec       q    Type
                         _______ _______ _______ _____ _____    ______ ____

>  <TORSDO>
F 9

$$$$
