=
 OpenBabel11042411293D

 55 61  0  0  1  0  0  0  0  0999 V2000
  182.0020  179.4250  139.8730 C   0  0  0  0  0  3  0  0  0  0  0  0
  183.0550  178.6180  140.0100 C   0  0  0  0  0  0  0  0  0  0  0  0
  184.8610  178.1630  138.2420 C   0  0  0  0  0  0  0  0  0  0  0  0
  185.6770  179.0030  138.7090 O   0  0  0  0  0  0  0  0  0  0  0  0
  183.5920  177.9340  138.8660 N   0  0  0  0  0  2  0  0  0  0  0  0
  183.9590  177.1240  136.1840 C   0  0  0  0  0  1  0  0  0  0  0  0
  185.2050  177.3870  137.0140 C   0  0  2  0  0  3  0  0  0  0  0  0
  185.8910  176.0800  137.3920 C   0  0  0  0  0  2  0  0  0  0  0  0
  188.9030  176.2820  135.4990 C   0  0  0  0  0  0  0  0  0  0  0  0
  190.9820  175.5420  135.6190 C   0  0  0  0  0  0  0  0  0  0  0  0
  190.1360  176.7490  135.4380 C   0  0  0  0  0  3  0  0  0  0  0  0
  187.7470  176.9050  136.0240 N   0  0  0  0  0  0  0  0  0  0  0  0
  187.1640  175.9090  136.6340 C   0  0  0  0  0  0  0  0  0  0  0  0
  190.2650  174.4530  135.9340 C   0  0  0  0  0  3  0  0  0  0  0  0
  187.9110  174.6730  136.6430 N   0  0  0  0  0  2  0  0  0  0  0  0
  188.9010  174.9340  135.8650 C   0  0  1  0  0  3  0  0  0  0  0  0
  192.4690  175.5490  135.5300 C   0  0  0  0  0  2  0  0  0  0  0  0
  194.7830  174.4730  138.1980 C   0  0  0  0  0  2  0  0  0  0  0  0
  193.8320  173.6240  135.6950 C   0  0  2  0  0  3  0  0  0  0  0  0
  193.0270  174.5900  136.4700 N   0  0  0  0  0  0  0  0  0  0  0  0
  193.4440  172.2020  136.0700 C   0  0  0  0  0  1  0  0  0  0  0  0
  195.3550  173.8260  135.7880 C   0  0  0  0  0  2  0  0  0  0  0  0
  193.7920  175.3610  137.4590 C   0  0  0  0  0  2  0  0  0  0  0  0
  195.8620  174.0040  137.2260 C   0  0  2  0  0  3  0  0  0  0  0  0
  196.5520  172.7770  137.7270 C   0  0  0  0  0  0  0  0  0  0  0  0
  197.9130  172.6160  137.5020 O   0  0  0  0  0  0  0  0  0  0  0  0
  195.9110  171.8840  138.3430 O   0  0  0  0  0  1  0  0  0  0  0  0
  183.6350  178.4770  141.3190 C   0  0  0  0  0  0  0  0  0  0  0  0
  184.1170  178.3690  142.4190 C   0  0  0  0  0  0  0  0  0  0  0  0
  186.7740  178.7620  147.4110 C   0  0  0  0  0  2  0  0  0  0  0  0
  184.0030  178.6510  144.7970 C   0  0  0  0  0  3  0  0  0  0  0  0
  188.0280  176.3780  145.1550 F   0  0  0  0  0  0  0  0  0  0  0  0
  187.9290  177.8840  147.0150 C   0  0  0  0  0  0  0  0  0  0  0  0
  186.0730  177.6910  143.8970 C   0  0  0  0  0  2  0  0  0  0  0  0
  184.6900  178.2500  143.7290 C   0  0  0  0  0  0  0  0  0  0  0  0
  188.0670  176.6330  147.8590 C   0  0  0  0  0  2  0  0  0  0  0  0
  186.0580  179.0780  146.1080 C   0  0  2  0  0  3  0  0  0  0  0  0
  189.1060  177.7410  147.9570 C   0  0  0  0  0  2  0  0  0  0  0  0
  184.6240  178.5440  146.1560 C   0  0  0  0  0  2  0  0  0  0  0  0
  186.8910  178.4980  144.9280 C   0  0  1  0  0  3  0  0  0  0  0  0
  188.0850  177.7200  145.5060 C   0  0  2  0  0  0  0  0  0  0  0  0
  189.4060  178.3030  144.9820 C   0  0  0  0  0  2  0  0  0  0  0  0
  190.0850  177.4250  143.9770 C   0  0  0  0  0  3  0  0  0  0  0  0
  190.9130  177.9550  143.0820 C   0  0  0  0  0  2  0  0  0  0  0  0
  181.3450  179.6880  138.5540 C   0  0  0  0  0  2  0  0  0  0  0  0
  180.2630  182.9480  136.9310 C   0  0  0  0  0  0  0  0  0  0  0  0
  179.6440  183.6020  135.5210 S   0  0  0  0  0  0  0  0  0  0  0  0
  179.5330  184.9540  137.5890 C   0  0  0  0  0  0  0  0  0  0  0  0
  179.1820  185.0550  136.2420 C   0  0  0  0  0  3  0  0  0  0  0  0
  182.8130  183.0730  138.3130 O   0  0  0  0  0  1  0  0  0  0  0  0
  179.2770  186.0520  138.5570 C   0  0  0  0  0  1  0  0  0  0  0  0
  182.4730  181.8030  138.7200 N   0  0  0  0  0  0  0  0  0  0  0  0
  180.7860  181.6220  137.0360 N   0  0  0  0  0  2  0  0  0  0  0  0
  180.1220  183.7910  137.9730 N   0  0  0  0  0  0  0  0  0  0  0  0
  181.5350  181.1110  138.1480 C   0  0  0  0  0  0  0  0  0  0  0  0
  1  2  2  0  0  0  0
  2 28  1  0  0  0  0
  3  4  2  0  0  0  0
  3  5  1  0  0  0  0
  5  2  1  0  0  0  0
  7  6  1  1  0  0  0
  7  8  1  0  0  0  0
  7  3  1  0  0  0  0
  9 16  1  0  0  0  0
  9 12  1  0  0  0  0
 10 14  2  0  0  0  0
 11  9  2  0  0  0  0
 11 10  1  0  0  0  0
 12 13  2  0  0  0  0
 13 15  1  0  0  0  0
 13  8  1  0  0  0  0
 16 14  1  1  0  0  0
 16 15  1  0  0  0  0
 17 10  1  0  0  0  0
 17 20  1  0  0  0  0
 19 22  1  0  0  0  0
 19 21  1  1  0  0  0
 19 20  1  0  0  0  0
 20 23  1  0  0  0  0
 22 24  1  0  0  0  0
 23 18  1  0  0  0  0
 24 25  1  1  0  0  0
 24 18  1  0  0  0  0
 25 27  1  0  0  0  0
 26 25  2  0  0  0  0
 28 29  3  0  0  0  0
 29 35  1  0  0  0  0
 31 39  1  0  0  0  0
 33 30  1  0  0  0  0
 33 36  1  0  0  0  0
 33 38  1  0  0  0  0
 35 34  1  0  0  0  0
 35 31  2  0  0  0  0
 36 38  1  0  0  0  0
 37 39  1  1  0  0  0
 37 30  1  0  0  0  0
 40 34  1  1  0  0  0
 40 41  1  0  0  0  0
 40 37  1  0  0  0  0
 41 32  1  6  0  0  0
 41 33  1  0  0  0  0
 42 41  1  0  0  0  0
 43 42  1  0  0  0  0
 44 43  2  0  0  0  0
 45  1  1  0  0  0  0
 46 53  1  0  0  0  0
 46 54  2  0  0  0  0
 47 49  1  0  0  0  0
 47 46  1  0  0  0  0
 48 54  1  0  0  0  0
 48 51  1  0  0  0  0
 49 48  2  0  0  0  0
 50 52  1  0  0  0  0
 53 55  1  0  0  0  0
 55 45  1  0  0  0  0
 55 52  2  0  0  0  0
M  END
>  <MODEL>
1

>  <REMARK>
 VINA RESULT:      -9.3      0.000      0.000
  Name = 
  13 active torsions:
  status: ('A' for Active; 'I' for Inactive)
    1  A    between atoms: C_5  and  C_28
    2  A    between atoms: C_11  and  C_55
    3  A    between atoms: C_12  and  C_33
    4  A    between atoms: C_13  and  C_54
    5  A    between atoms: C_14  and  C_16
    6  A    between atoms: C_14  and  N_17
    7  A    between atoms: C_18  and  C_37
    8  A    between atoms: C_18  and  N_39
    9  A    between atoms: C_24  and  C_47
   10  A    between atoms: C_28  and  C_53
   11  A    between atoms: C_31  and  C_40
   12  A    between atoms: C_33  and  C_43
   13  A    between atoms: C_47  and  C_54
                            x       y       z     vdW  Elec       q    Type
                         _______ _______ _______ _____ _____    ______ ____

>  <TORSDO>
F 13

$$$$
=
 OpenBabel11042411293D

 55 61  0  0  1  0  0  0  0  0999 V2000
  182.7600  179.3900  139.4800 C   0  0  0  0  0  3  0  0  0  0  0  0
  183.8040  178.5890  139.6970 C   0  0  0  0  0  0  0  0  0  0  0  0
  185.8110  178.0520  138.1870 C   0  0  0  0  0  0  0  0  0  0  0  0
  186.6230  178.7670  138.8350 O   0  0  0  0  0  0  0  0  0  0  0  0
  184.4430  177.9240  138.5950 N   0  0  0  0  0  2  0  0  0  0  0  0
  185.0930  177.0770  136.0280 C   0  0  0  0  0  1  0  0  0  0  0  0
  186.2640  177.3240  136.9660 C   0  0  2  0  0  3  0  0  0  0  0  0
  186.9330  176.0110  137.3540 C   0  0  0  0  0  2  0  0  0  0  0  0
  189.7370  175.8380  135.1610 C   0  0  0  0  0  0  0  0  0  0  0  0
  191.5310  174.5810  134.8710 C   0  0  0  0  0  0  0  0  0  0  0  0
  191.0430  175.9740  135.0310 C   0  0  0  0  0  3  0  0  0  0  0  0
  188.8410  176.6080  135.9390 N   0  0  0  0  0  0  0  0  0  0  0  0
  188.0500  175.6880  136.4200 C   0  0  0  0  0  0  0  0  0  0  0  0
  190.5650  173.6710  135.0640 C   0  0  0  0  0  3  0  0  0  0  0  0
  188.4230  174.3300  136.0990 N   0  0  0  0  0  2  0  0  0  0  0  0
  189.3880  174.4900  135.2630 C   0  0  1  0  0  3  0  0  0  0  0  0
  192.9510  174.2250  134.5940 C   0  0  0  0  0  2  0  0  0  0  0  0
  196.2420  175.2430  135.9200 C   0  0  0  0  0  2  0  0  0  0  0  0
  193.6920  174.4860  136.8240 C   0  0  2  0  0  3  0  0  0  0  0  0
  193.8340  175.0040  135.4470 N   0  0  0  0  0  0  0  0  0  0  0  0
  193.4450  175.6340  137.7900 C   0  0  0  0  0  1  0  0  0  0  0  0
  194.8540  173.5970  137.3050 C   0  0  0  0  0  2  0  0  0  0  0  0
  195.1860  174.8770  134.8880 C   0  0  0  0  0  2  0  0  0  0  0  0
  196.2390  174.2010  137.0360 C   0  0  2  0  0  3  0  0  0  0  0  0
  196.8630  174.7370  138.2840 C   0  0  0  0  0  0  0  0  0  0  0  0
  196.1190  174.7850  139.4550 O   0  0  0  0  0  1  0  0  0  0  0  0
  198.0520  175.1530  138.2820 O   0  0  0  0  0  0  0  0  0  0  0  0
  184.2700  178.4340  141.0500 C   0  0  0  0  0  0  0  0  0  0  0  0
  184.6540  178.3120  142.1850 C   0  0  0  0  0  0  0  0  0  0  0  0
  186.8150  178.6610  147.4160 C   0  0  0  0  0  2  0  0  0  0  0  0
  184.3070  178.5140  144.5500 C   0  0  0  0  0  3  0  0  0  0  0  0
  188.3820  176.4070  145.2220 F   0  0  0  0  0  0  0  0  0  0  0  0
  188.0400  177.8470  147.1060 C   0  0  0  0  0  0  0  0  0  0  0  0
  186.4940  177.6740  143.8230 C   0  0  0  0  0  2  0  0  0  0  0  0
  185.1080  178.1770  143.5410 C   0  0  0  0  0  0  0  0  0  0  0  0
  188.1580  176.5770  147.9240 C   0  0  0  0  0  2  0  0  0  0  0  0
  186.2090  178.9870  146.0600 C   0  0  2  0  0  3  0  0  0  0  0  0
  189.1310  177.7260  148.1500 C   0  0  0  0  0  2  0  0  0  0  0  0
  184.8030  178.3900  145.9570 C   0  0  0  0  0  2  0  0  0  0  0  0
  187.1740  178.4820  144.9480 C   0  0  1  0  0  3  0  0  0  0  0  0
  188.3440  177.7390  145.6140 C   0  0  2  0  0  0  0  0  0  0  0  0
  189.6800  178.3950  145.2340 C   0  0  0  0  0  2  0  0  0  0  0  0
  190.5900  177.4870  144.4660 C   0  0  0  0  0  3  0  0  0  0  0  0
  190.7330  177.6410  143.1550 C   0  0  0  0  0  2  0  0  0  0  0  0
  182.2170  179.6670  138.1130 C   0  0  0  0  0  2  0  0  0  0  0  0
  181.0320  176.1340  137.3690 C   0  0  0  0  0  0  0  0  0  0  0  0
  181.3710  174.7710  136.4590 S   0  0  0  0  0  0  0  0  0  0  0  0
  179.8500  174.5410  138.3950 C   0  0  0  0  0  0  0  0  0  0  0  0
  180.4000  173.7510  137.3860 C   0  0  0  0  0  3  0  0  0  0  0  0
  178.9320  178.1380  137.3740 O   0  0  0  0  0  1  0  0  0  0  0  0
  178.9310  173.9860  139.4230 C   0  0  0  0  0  1  0  0  0  0  0  0
  179.9380  178.9600  137.8290 N   0  0  0  0  0  0  0  0  0  0  0  0
  181.6290  177.4140  137.1450 N   0  0  0  0  0  2  0  0  0  0  0  0
  180.2030  175.8540  138.3940 N   0  0  0  0  0  0  0  0  0  0  0  0
  181.1950  178.6460  137.7380 C   0  0  0  0  0  0  0  0  0  0  0  0
  1  2  2  0  0  0  0
  2 28  1  0  0  0  0
  3  5  1  0  0  0  0
  3  4  2  0  0  0  0
  5  2  1  0  0  0  0
  7  6  1  6  0  0  0
  7  8  1  0  0  0  0
  7  3  1  0  0  0  0
  9 16  1  0  0  0  0
  9 12  1  0  0  0  0
 10 11  1  0  0  0  0
 10 14  2  0  0  0  0
 11  9  2  0  0  0  0
 12 13  2  0  0  0  0
 13  8  1  0  0  0  0
 15 13  1  0  0  0  0
 16 14  1  1  0  0  0
 16 15  1  0  0  0  0
 17 10  1  0  0  0  0
 17 20  1  0  0  0  0
 18 24  1  0  0  0  0
 19 22  1  0  0  0  0
 19 21  1  1  0  0  0
 20 19  1  0  0  0  0
 23 20  1  0  0  0  0
 23 18  1  0  0  0  0
 24 22  1  0  0  0  0
 24 25  1  1  0  0  0
 25 26  1  0  0  0  0
 27 25  2  0  0  0  0
 28 29  3  0  0  0  0
 29 35  1  0  0  0  0
 31 39  1  0  0  0  0
 33 30  1  0  0  0  0
 33 36  1  0  0  0  0
 33 38  1  0  0  0  0
 35 34  1  0  0  0  0
 35 31  2  0  0  0  0
 36 38  1  0  0  0  0
 37 39  1  6  0  0  0
 37 30  1  0  0  0  0
 40 34  1  6  0  0  0
 40 41  1  0  0  0  0
 40 37  1  0  0  0  0
 41 32  1  6  0  0  0
 41 33  1  0  0  0  0
 42 41  1  0  0  0  0
 43 42  1  0  0  0  0
 44 43  2  0  0  0  0
 45  1  1  0  0  0  0
 46 54  2  0  0  0  0
 47 46  1  0  0  0  0
 47 49  1  0  0  0  0
 48 51  1  0  0  0  0
 49 48  2  0  0  0  0
 50 52  1  0  0  0  0
 53 46  1  0  0  0  0
 53 55  1  0  0  0  0
 54 48  1  0  0  0  0
 55 52  2  0  0  0  0
 55 45  1  0  0  0  0
M  END
>  <MODEL>
2

>  <REMARK>
 VINA RESULT:      -8.8      2.562      3.697
  Name = 
  13 active torsions:
  status: ('A' for Active; 'I' for Inactive)
    1  A    between atoms: C_5  and  C_28
    2  A    between atoms: C_11  and  C_55
    3  A    between atoms: C_12  and  C_33
    4  A    between atoms: C_13  and  C_54
    5  A    between atoms: C_14  and  C_16
    6  A    between atoms: C_14  and  N_17
    7  A    between atoms: C_18  and  C_37
    8  A    between atoms: C_18  and  N_39
    9  A    between atoms: C_24  and  C_47
   10  A    between atoms: C_28  and  C_53
   11  A    between atoms: C_31  and  C_40
   12  A    between atoms: C_33  and  C_43
   13  A    between atoms: C_47  and  C_54
                            x       y       z     vdW  Elec       q    Type
                         _______ _______ _______ _____ _____    ______ ____

>  <TORSDO>
F 13

$$$$
=
 OpenBabel11042411293D

 55 61  0  0  1  0  0  0  0  0999 V2000
  190.1580  176.8890  140.6070 C   0  0  0  0  0  3  0  0  0  0  0  0
  190.1120  176.7670  139.2800 C   0  0  0  0  0  0  0  0  0  0  0  0
  188.2310  176.1470  137.6450 C   0  0  0  0  0  0  0  0  0  0  0  0
  188.6870  174.9990  137.3930 O   0  0  0  0  0  0  0  0  0  0  0  0
  188.8840  177.0180  138.5760 N   0  0  0  0  0  2  0  0  0  0  0  0
  186.3630  177.7680  137.7480 C   0  0  0  0  0  1  0  0  0  0  0  0
  186.9910  176.6260  136.9660 C   0  0  2  0  0  3  0  0  0  0  0  0
  186.0050  175.4780  136.7980 C   0  0  0  0  0  2  0  0  0  0  0  0
  182.6300  176.5480  137.2030 C   0  0  0  0  0  0  0  0  0  0  0  0
  181.3790  178.2950  136.6900 C   0  0  0  0  0  0  0  0  0  0  0  0
  181.8060  177.3950  137.7900 C   0  0  0  0  0  2  0  0  0  0  0  0
  183.7860  175.9280  137.7320 N   0  0  0  0  0  0  0  0  0  0  0  0
  184.6050  175.9860  136.7170 C   0  0  0  0  0  0  0  0  0  0  0  0
  182.0540  178.0750  135.5520 C   0  0  0  0  0  3  0  0  0  0  0  0
  184.1070  176.7050  135.5680 N   0  0  0  0  0  2  0  0  0  0  0  0
  182.8820  176.9350  135.8850 C   0  0  0  0  0  0  0  0  0  0  0  0
  180.3610  179.3720  136.8450 C   0  0  0  0  0  2  0  0  0  0  0  0
  181.4540  182.7260  137.9350 C   0  0  0  0  0  2  0  0  0  0  0  0
  180.0610  181.4880  135.8330 C   0  0  2  0  0  3  0  0  0  0  0  0
  180.9820  180.6730  136.6530 N   0  0  0  0  0  0  0  0  0  0  0  0
  180.8120  182.1090  134.6670 C   0  0  0  0  0  1  0  0  0  0  0  0
  179.2680  182.5530  136.6130 C   0  0  0  0  0  2  0  0  0  0  0  0
  181.2470  181.2190  137.9900 C   0  0  0  0  0  2  0  0  0  0  0  0
  180.1400  183.4010  137.5490 C   0  0  2  0  0  3  0  0  0  0  0  0
  180.3720  184.7720  137.0010 C   0  0  0  0  0  0  0  0  0  0  0  0
  179.4070  185.7540  137.1820 O   0  0  0  0  0  1  0  0  0  0  0  0
  181.4280  185.0440  136.3700 O   0  0  0  0  0  0  0  0  0  0  0  0
  191.3200  176.4010  138.5900 C   0  0  0  0  0  0  0  0  0  0  0  0
  192.3360  176.0900  138.0210 C   0  0  0  0  0  0  0  0  0  0  0  0
  196.6150  173.9070  135.0090 C   0  0  0  0  0  2  0  0  0  0  0  0
  193.8620  176.2690  136.1800 C   0  0  0  0  0  3  0  0  0  0  0  0
  196.8140  173.5460  138.4990 F   0  0  0  0  0  0  0  0  0  0  0  0
  197.2330  173.1770  136.1690 C   0  0  0  0  0  0  0  0  0  0  0  0
  194.4650  174.6980  137.9650 C   0  0  0  0  0  2  0  0  0  0  0  0
  193.5510  175.7200  137.3530 C   0  0  0  0  0  0  0  0  0  0  0  0
  198.6450  173.6230  136.4930 C   0  0  0  0  0  2  0  0  0  0  0  0
  195.2390  174.3280  135.5010 C   0  0  2  0  0  3  0  0  0  0  0  0
  198.3930  172.2370  135.9170 C   0  0  0  0  0  2  0  0  0  0  0  0
  195.1210  175.8550  135.4840 C   0  0  0  0  0  2  0  0  0  0  0  0
  195.0020  173.7090  136.9080 C   0  0  1  0  0  3  0  0  0  0  0  0
  196.2830  172.9800  137.3470 C   0  0  2  0  0  0  0  0  0  0  0  0
  195.9870  171.5000  137.6260 C   0  0  0  0  0  2  0  0  0  0  0  0
  194.9250  170.9280  136.7390 C   0  0  0  0  0  3  0  0  0  0  0  0
  194.3700  169.7580  137.0330 C   0  0  0  0  0  2  0  0  0  0  0  0
  188.9800  177.3110  141.4270 C   0  0  0  0  0  2  0  0  0  0  0  0
  188.9750  177.5110  145.2210 C   0  0  0  0  0  0  0  0  0  0  0  0
  187.9730  177.6560  146.5540 S   0  0  0  0  0  0  0  0  0  0  0  0
  190.2900  176.8670  146.9080 C   0  0  0  0  0  0  0  0  0  0  0  0
  189.1450  177.1440  147.6540 C   0  0  0  0  0  3  0  0  0  0  0  0
  190.9360  179.2120  143.9230 O   0  0  0  0  0  1  0  0  0  0  0  0
  191.5460  176.3820  147.5370 C   0  0  0  0  0  1  0  0  0  0  0  0
  190.5230  178.5510  142.7900 N   0  0  0  0  0  0  0  0  0  0  0  0
  188.5530  177.7400  143.8750 N   0  0  0  0  0  2  0  0  0  0  0  0
  190.1970  177.0600  145.5650 N   0  0  0  0  0  0  0  0  0  0  0  0
  189.4250  177.8590  142.7420 C   0  0  0  0  0  0  0  0  0  0  0  0
  1 45  1  0  0  0  0
  2  1  2  0  0  0  0
  3  5  1  0  0  0  0
  4  3  2  0  0  0  0
  5  2  1  0  0  0  0
  7  3  1  0  0  0  0
  7  6  1  1  0  0  0
  8  7  1  0  0  0  0
  9 12  1  0  0  0  0
  9 11  1  0  0  0  0
 10 17  1  0  0  0  0
 10 11  1  0  0  0  0
 13  8  1  0  0  0  0
 13 12  2  0  0  0  0
 14 16  1  0  0  0  0
 14 10  2  0  0  0  0
 15 16  1  0  0  0  0
 15 13  1  0  0  0  0
 16  9  2  0  0  0  0
 18 23  1  0  0  0  0
 19 21  1  6  0  0  0
 19 22  1  0  0  0  0
 19 20  1  0  0  0  0
 20 17  1  0  0  0  0
 20 23  1  0  0  0  0
 22 24  1  0  0  0  0
 24 25  1  6  0  0  0
 24 18  1  0  0  0  0
 25 26  1  0  0  0  0
 27 25  2  0  0  0  0
 28  2  1  0  0  0  0
 29 28  3  0  0  0  0
 30 33  1  0  0  0  0
 31 35  2  0  0  0  0
 33 36  1  0  0  0  0
 33 41  1  0  0  0  0
 35 34  1  0  0  0  0
 35 29  1  0  0  0  0
 37 30  1  1  0  0  0
 37 40  1  0  0  0  0
 38 33  1  0  0  0  0
 38 36  1  0  0  0  0
 39 37  1  0  0  0  0
 39 31  1  0  0  0  0
 40 41  1  0  0  0  0
 40 34  1  1  0  0  0
 41 42  1  0  0  0  0
 41 32  1  1  0  0  0
 43 44  2  0  0  0  0
 43 42  1  0  0  0  0
 45 55  1  0  0  0  0
 46 54  2  0  0  0  0
 46 47  1  0  0  0  0
 47 49  1  0  0  0  0
 48 51  1  0  0  0  0
 48 49  2  0  0  0  0
 52 50  1  0  0  0  0
 53 46  1  0  0  0  0
 54 48  1  0  0  0  0
 55 52  2  0  0  0  0
 55 53  1  0  0  0  0
M  END
>  <MODEL>
3

>  <REMARK>
 VINA RESULT:      -8.1      3.950     12.586
  Name = 
  13 active torsions:
  status: ('A' for Active; 'I' for Inactive)
    1  A    between atoms: C_5  and  C_28
    2  A    between atoms: C_11  and  C_55
    3  A    between atoms: C_12  and  C_33
    4  A    between atoms: C_13  and  C_54
    5  A    between atoms: C_14  and  C_16
    6  A    between atoms: C_14  and  N_17
    7  A    between atoms: C_18  and  C_37
    8  A    between atoms: C_18  and  N_39
    9  A    between atoms: C_24  and  C_47
   10  A    between atoms: C_28  and  C_53
   11  A    between atoms: C_31  and  C_40
   12  A    between atoms: C_33  and  C_43
   13  A    between atoms: C_47  and  C_54
                            x       y       z     vdW  Elec       q    Type
                         _______ _______ _______ _____ _____    ______ ____

>  <TORSDO>
F 13

$$$$
=
 OpenBabel11042411293D

 55 61  0  0  1  0  0  0  0  0999 V2000
  190.6180  176.7760  140.5210 C   0  0  0  0  0  3  0  0  0  0  0  0
  190.5300  176.6320  139.1990 C   0  0  0  0  0  0  0  0  0  0  0  0
  188.6030  175.9200  137.6570 C   0  0  0  0  0  0  0  0  0  0  0  0
  189.0730  174.7730  137.4270 O   0  0  0  0  0  0  0  0  0  0  0  0
  189.2730  176.8350  138.5330 N   0  0  0  0  0  2  0  0  0  0  0  0
  187.3330  175.9850  135.5340 C   0  0  0  0  0  1  0  0  0  0  0  0
  187.3300  176.3510  137.0090 C   0  0  2  0  0  3  0  0  0  0  0  0
  187.1260  177.8490  137.1950 C   0  0  0  0  0  2  0  0  0  0  0  0
  184.2610  178.9440  139.0100 C   0  0  0  0  0  0  0  0  0  0  0  0
  182.1750  179.5450  138.5970 C   0  0  0  0  0  0  0  0  0  0  0  0
  183.4380  179.9410  139.2710 C   0  0  0  0  0  2  0  0  0  0  0  0
  185.6580  178.9840  138.7940 N   0  0  0  0  0  0  0  0  0  0  0  0
  185.7990  178.1320  137.8150 C   0  0  0  0  0  0  0  0  0  0  0  0
  182.3160  178.4440  137.8450 C   0  0  0  0  0  3  0  0  0  0  0  0
  184.5660  177.5980  137.2840 N   0  0  0  0  0  2  0  0  0  0  0  0
  183.6840  178.0500  138.1050 C   0  0  0  0  0  0  0  0  0  0  0  0
  180.9060  180.3200  138.6900 C   0  0  0  0  0  2  0  0  0  0  0  0
  178.9380  180.3560  141.8130 C   0  0  0  0  0  2  0  0  0  0  0  0
  180.8490  178.7820  140.4850 C   0  0  2  0  0  3  0  0  0  0  0  0
  180.0370  179.7310  139.6950 N   0  0  0  0  0  0  0  0  0  0  0  0
  180.1400  177.4400  140.5770 C   0  0  0  0  0  1  0  0  0  0  0  0
  181.2630  179.2870  141.8790 C   0  0  0  0  0  2  0  0  0  0  0  0
  179.4750  180.8420  140.4740 C   0  0  0  0  0  2  0  0  0  0  0  0
  180.1020  179.8880  142.6830 C   0  0  2  0  0  3  0  0  0  0  0  0
  179.6380  178.9660  143.7640 C   0  0  0  0  0  0  0  0  0  0  0  0
  179.9830  177.6220  143.7110 O   0  0  0  0  0  0  0  0  0  0  0  0
  178.9310  179.3920  144.7150 O   0  0  0  0  0  1  0  0  0  0  0  0
  191.7250  176.2910  138.4730 C   0  0  0  0  0  0  0  0  0  0  0  0
  192.7270  175.9970  137.8710 C   0  0  0  0  0  0  0  0  0  0  0  0
  196.9410  173.8250  134.7610 C   0  0  0  0  0  2  0  0  0  0  0  0
  194.1530  176.1370  135.9480 C   0  0  0  0  0  3  0  0  0  0  0  0
  197.3240  173.6580  138.2500 F   0  0  0  0  0  0  0  0  0  0  0  0
  197.6450  173.1830  135.9240 C   0  0  0  0  0  0  0  0  0  0  0  0
  194.9060  174.6870  137.7780 C   0  0  0  0  0  2  0  0  0  0  0  0
  193.9220  175.6390  137.1620 C   0  0  0  0  0  0  0  0  0  0  0  0
  199.0510  173.7000  136.1530 C   0  0  0  0  0  2  0  0  0  0  0  0
  195.5750  174.2190  135.3000 C   0  0  2  0  0  3  0  0  0  0  0  0
  198.8290  172.2760  135.6620 C   0  0  0  0  0  2  0  0  0  0  0  0
  195.3930  175.7360  135.2110 C   0  0  0  0  0  2  0  0  0  0  0  0
  195.4320  173.6660  136.7470 C   0  0  1  0  0  3  0  0  0  0  0  0
  196.7620  173.0120  137.1570 C   0  0  2  0  0  0  0  0  0  0  0  0
  196.5420  171.5380  137.5260 C   0  0  0  0  0  2  0  0  0  0  0  0
  195.1260  171.0850  137.3440 C   0  0  0  0  0  3  0  0  0  0  0  0
  194.8570  170.0300  136.5830 C   0  0  0  0  0  2  0  0  0  0  0  0
  189.4550  177.1750  141.3750 C   0  0  0  0  0  2  0  0  0  0  0  0
  189.4170  177.4320  145.1650 C   0  0  0  0  0  0  0  0  0  0  0  0
  188.4130  177.6770  146.4820 S   0  0  0  0  0  0  0  0  0  0  0  0
  190.6540  176.7090  146.8790 C   0  0  0  0  0  0  0  0  0  0  0  0
  189.5250  177.0890  147.6050 C   0  0  0  0  0  3  0  0  0  0  0  0
  191.5260  178.9490  143.8720 O   0  0  0  0  0  1  0  0  0  0  0  0
  191.8580  176.1340  147.5330 C   0  0  0  0  0  1  0  0  0  0  0  0
  191.0750  178.3070  142.7420 N   0  0  0  0  0  0  0  0  0  0  0  0
  189.0330  177.6740  143.8100 N   0  0  0  0  0  2  0  0  0  0  0  0
  190.5940  176.8890  145.5330 N   0  0  0  0  0  0  0  0  0  0  0  0
  189.9260  177.7060  142.6880 C   0  0  0  0  0  0  0  0  0  0  0  0
  1 45  1  0  0  0  0
  2  1  2  0  0  0  0
  3  5  1  0  0  0  0
  4  3  2  0  0  0  0
  5  2  1  0  0  0  0
  7  6  1  6  0  0  0
  7  8  1  0  0  0  0
  7  3  1  0  0  0  0
  8 13  1  0  0  0  0
  9 11  1  0  0  0  0
 10 17  1  0  0  0  0
 10 11  1  0  0  0  0
 12  9  1  0  0  0  0
 13 12  2  0  0  0  0
 14 16  1  0  0  0  0
 14 10  2  0  0  0  0
 15 13  1  0  0  0  0
 15 16  1  0  0  0  0
 16  9  2  0  0  0  0
 17 20  1  0  0  0  0
 18 24  1  0  0  0  0
 19 21  1  1  0  0  0
 19 22  1  0  0  0  0
 20 23  1  0  0  0  0
 20 19  1  0  0  0  0
 22 24  1  0  0  0  0
 23 18  1  0  0  0  0
 24 25  1  1  0  0  0
 25 27  1  0  0  0  0
 26 25  2  0  0  0  0
 28  2  1  0  0  0  0
 29 28  3  0  0  0  0
 30 33  1  0  0  0  0
 31 35  2  0  0  0  0
 33 36  1  0  0  0  0
 33 41  1  0  0  0  0
 35 34  1  0  0  0  0
 35 29  1  0  0  0  0
 37 30  1  1  0  0  0
 37 40  1  0  0  0  0
 38 33  1  0  0  0  0
 38 36  1  0  0  0  0
 39 37  1  0  0  0  0
 39 31  1  0  0  0  0
 40 41  1  0  0  0  0
 40 34  1  1  0  0  0
 41 42  1  0  0  0  0
 41 32  1  1  0  0  0
 43 42  1  0  0  0  0
 44 43  2  0  0  0  0
 45 55  1  0  0  0  0
 46 54  2  0  0  0  0
 46 47  1  0  0  0  0
 47 49  1  0  0  0  0
 48 51  1  0  0  0  0
 48 49  2  0  0  0  0
 52 50  1  0  0  0  0
 53 46  1  0  0  0  0
 54 48  1  0  0  0  0
 55 52  2  0  0  0  0
 55 53  1  0  0  0  0
M  END
>  <MODEL>
4

>  <REMARK>
 VINA RESULT:      -8.0      4.301     12.653
  Name = 
  13 active torsions:
  status: ('A' for Active; 'I' for Inactive)
    1  A    between atoms: C_5  and  C_28
    2  A    between atoms: C_11  and  C_55
    3  A    between atoms: C_12  and  C_33
    4  A    between atoms: C_13  and  C_54
    5  A    between atoms: C_14  and  C_16
    6  A    between atoms: C_14  and  N_17
    7  A    between atoms: C_18  and  C_37
    8  A    between atoms: C_18  and  N_39
    9  A    between atoms: C_24  and  C_47
   10  A    between atoms: C_28  and  C_53
   11  A    between atoms: C_31  and  C_40
   12  A    between atoms: C_33  and  C_43
   13  A    between atoms: C_47  and  C_54
                            x       y       z     vdW  Elec       q    Type
                         _______ _______ _______ _____ _____    ______ ____

>  <TORSDO>
F 13

$$$$
=
 OpenBabel11042411293D

 55 61  0  0  1  0  0  0  0  0999 V2000
  182.0280  177.7050  136.3510 C   0  0  0  0  0  3  0  0  0  0  0  0
  182.7750  177.6330  137.4530 C   0  0  0  0  0  0  0  0  0  0  0  0
  181.8810  176.9350  139.7570 C   0  0  0  0  0  0  0  0  0  0  0  0
  182.1640  175.7140  139.6130 O   0  0  0  0  0  0  0  0  0  0  0  0
  182.1890  177.8940  138.7390 N   0  0  0  0  0  2  0  0  0  0  0  0
  179.7040  177.2010  140.9050 C   0  0  0  0  0  1  0  0  0  0  0  0
  181.2080  177.4040  141.0040 C   0  0  2  0  0  3  0  0  0  0  0  0
  181.5400  178.8680  141.2620 C   0  0  0  0  0  2  0  0  0  0  0  0
  183.5800  179.3660  144.1420 C   0  0  0  0  0  0  0  0  0  0  0  0
  185.1430  178.2810  145.2650 C   0  0  0  0  0  0  0  0  0  0  0  0
  183.8470  178.9960  145.3790 C   0  0  0  0  0  2  0  0  0  0  0  0
  182.3230  179.4740  143.5020 N   0  0  0  0  0  0  0  0  0  0  0  0
  182.5870  178.9970  142.3160 C   0  0  0  0  0  0  0  0  0  0  0  0
  185.5260  178.1070  143.9910 C   0  0  0  0  0  3  0  0  0  0  0  0
  183.9230  178.4730  142.1490 N   0  0  0  0  0  2  0  0  0  0  0  0
  184.5000  178.8100  143.2490 C   0  0  0  0  0  0  0  0  0  0  0  0
  185.9070  177.7540  146.4300 C   0  0  0  0  0  2  0  0  0  0  0  0
  189.2920  177.9670  144.9720 C   0  0  0  0  0  2  0  0  0  0  0  0
  188.0310  177.5300  147.4440 C   0  0  2  0  0  3  0  0  0  0  0  0
  187.2820  178.2250  146.3770 N   0  0  0  0  0  0  0  0  0  0  0  0
  188.8090  178.5370  148.2760 C   0  0  0  0  0  1  0  0  0  0  0  0
  188.9440  176.3890  146.9580 C   0  0  0  0  0  2  0  0  0  0  0  0
  187.7710  177.9560  145.0190 C   0  0  0  0  0  2  0  0  0  0  0  0
  189.8300  176.7800  145.7660 C   0  0  2  0  0  3  0  0  0  0  0  0
  191.2500  176.9970  146.1770 C   0  0  0  0  0  0  0  0  0  0  0  0
  192.0640  177.8250  145.4160 O   0  0  0  0  0  0  0  0  0  0  0  0
  191.7190  176.4300  147.2000 O   0  0  0  0  0  1  0  0  0  0  0  0
  184.1610  177.2710  137.3110 C   0  0  0  0  0  0  0  0  0  0  0  0
  185.3230  176.9700  137.2020 C   0  0  0  0  0  0  0  0  0  0  0  0
  190.6160  174.9520  137.4310 C   0  0  0  0  0  2  0  0  0  0  0  0
  187.0900  175.7020  136.1930 C   0  0  0  0  0  3  0  0  0  0  0  0
  190.1390  178.2290  138.6060 F   0  0  0  0  0  0  0  0  0  0  0  0
  191.1540  176.0880  138.2570 C   0  0  0  0  0  0  0  0  0  0  0  0
  187.7300  177.2690  137.9690 C   0  0  0  0  0  2  0  0  0  0  0  0
  186.7090  176.6190  137.0810 C   0  0  0  0  0  0  0  0  0  0  0  0
  192.2560  176.8730  137.5760 C   0  0  0  0  0  2  0  0  0  0  0  0
  189.1040  175.1010  137.4990 C   0  0  2  0  0  3  0  0  0  0  0  0
  192.5700  176.0090  138.7890 C   0  0  0  0  0  2  0  0  0  0  0  0
  188.5370  175.3280  136.0950 C   0  0  0  0  0  2  0  0  0  0  0  0
  188.7610  176.2470  138.4940 C   0  0  1  0  0  3  0  0  0  0  0  0
  190.0720  176.8910  138.9730 C   0  0  2  0  0  0  0  0  0  0  0  0
  190.1850  176.8020  140.5020 C   0  0  0  0  0  2  0  0  0  0  0  0
  188.9690  177.3040  141.2170 C   0  0  0  0  0  3  0  0  0  0  0  0
  188.9970  178.4820  141.8320 C   0  0  0  0  0  2  0  0  0  0  0  0
  180.5660  178.0240  136.3790 C   0  0  0  0  0  2  0  0  0  0  0  0
  179.9280  181.6120  137.4530 C   0  0  0  0  0  0  0  0  0  0  0  0
  178.9310  182.5710  138.3940 S   0  0  0  0  0  0  0  0  0  0  0  0
  181.0930  183.5080  137.6430 C   0  0  0  0  0  0  0  0  0  0  0  0
  179.9790  183.8920  138.3900 C   0  0  0  0  0  3  0  0  0  0  0  0
  180.3590  181.2610  134.6040 O   0  0  0  0  0  1  0  0  0  0  0  0
  182.2460  184.4180  137.4180 C   0  0  0  0  0  1  0  0  0  0  0  0
  180.6590  179.9700  134.9710 N   0  0  0  0  0  0  0  0  0  0  0  0
  179.6440  180.2510  137.1170 N   0  0  0  0  0  2  0  0  0  0  0  0
  181.0710  182.2480  137.1320 N   0  0  0  0  0  0  0  0  0  0  0  0
  180.3420  179.4790  136.1310 C   0  0  0  0  0  0  0  0  0  0  0  0
  1 45  1  0  0  0  0
  1  2  2  0  0  0  0
  2  5  1  0  0  0  0
  3  7  1  0  0  0  0
  4  3  2  0  0  0  0
  5  3  1  0  0  0  0
  7  6  1  6  0  0  0
  7  8  1  0  0  0  0
  8 13  1  0  0  0  0
  9 11  1  0  0  0  0
 10 11  1  0  0  0  0
 10 17  1  0  0  0  0
 12  9  1  0  0  0  0
 13 12  2  0  0  0  0
 14 10  2  0  0  0  0
 15 13  1  0  0  0  0
 15 16  1  0  0  0  0
 16 14  1  0  0  0  0
 16  9  2  0  0  0  0
 18 23  1  0  0  0  0
 18 24  1  0  0  0  0
 19 21  1  6  0  0  0
 20 17  1  0  0  0  0
 20 19  1  0  0  0  0
 22 19  1  0  0  0  0
 23 20  1  0  0  0  0
 24 25  1  1  0  0  0
 24 22  1  0  0  0  0
 25 27  1  0  0  0  0
 26 25  2  0  0  0  0
 28  2  1  0  0  0  0
 29 28  3  0  0  0  0
 30 37  1  0  0  0  0
 30 33  1  0  0  0  0
 31 35  2  0  0  0  0
 33 38  1  0  0  0  0
 33 41  1  0  0  0  0
 35 29  1  0  0  0  0
 35 34  1  0  0  0  0
 36 33  1  0  0  0  0
 36 38  1  0  0  0  0
 37 39  1  6  0  0  0
 37 40  1  0  0  0  0
 39 31  1  0  0  0  0
 40 34  1  6  0  0  0
 40 41  1  0  0  0  0
 41 32  1  6  0  0  0
 41 42  1  0  0  0  0
 42 43  1  0  0  0  0
 43 44  2  0  0  0  0
 46 47  1  0  0  0  0
 48 49  2  0  0  0  0
 49 47  1  0  0  0  0
 50 52  1  0  0  0  0
 51 48  1  0  0  0  0
 52 55  2  0  0  0  0
 53 46  1  0  0  0  0
 54 46  2  0  0  0  0
 54 48  1  0  0  0  0
 55 45  1  0  0  0  0
 55 53  1  0  0  0  0
M  END
>  <MODEL>
5

>  <REMARK>
 VINA RESULT:      -7.8      3.687      8.204
  Name = 
  13 active torsions:
  status: ('A' for Active; 'I' for Inactive)
    1  A    between atoms: C_5  and  C_28
    2  A    between atoms: C_11  and  C_55
    3  A    between atoms: C_12  and  C_33
    4  A    between atoms: C_13  and  C_54
    5  A    between atoms: C_14  and  C_16
    6  A    between atoms: C_14  and  N_17
    7  A    between atoms: C_18  and  C_37
    8  A    between atoms: C_18  and  N_39
    9  A    between atoms: C_24  and  C_47
   10  A    between atoms: C_28  and  C_53
   11  A    between atoms: C_31  and  C_40
   12  A    between atoms: C_33  and  C_43
   13  A    between atoms: C_47  and  C_54
                            x       y       z     vdW  Elec       q    Type
                         _______ _______ _______ _____ _____    ______ ____

>  <TORSDO>
F 13

$$$$
=
 OpenBabel11042411293D

 55 61  0  0  1  0  0  0  0  0999 V2000
  190.3520  177.0000  140.6430 C   0  0  0  0  0  3  0  0  0  0  0  0
  190.2520  176.6960  139.3490 C   0  0  0  0  0  0  0  0  0  0  0  0
  188.5840  177.4350  137.5410 C   0  0  0  0  0  0  0  0  0  0  0  0
  189.4140  178.1540  136.9210 O   0  0  0  0  0  0  0  0  0  0  0  0
  188.9660  176.6940  138.7060 N   0  0  0  0  0  2  0  0  0  0  0  0
  187.1260  177.0800  135.5720 C   0  0  0  0  0  1  0  0  0  0  0  0
  187.1710  177.3460  137.0680 C   0  0  2  0  0  3  0  0  0  0  0  0
  186.4190  178.6250  137.4140 C   0  0  0  0  0  2  0  0  0  0  0  0
  183.9540  178.4020  139.9780 C   0  0  0  0  0  0  0  0  0  0  0  0
  181.7550  178.2780  140.1470 C   0  0  0  0  0  0  0  0  0  0  0  0
  182.9640  179.0040  140.6090 C   0  0  0  0  0  2  0  0  0  0  0  0
  185.1590  178.9580  139.4870 N   0  0  0  0  0  0  0  0  0  0  0  0
  185.2880  178.3420  138.3440 C   0  0  0  0  0  0  0  0  0  0  0  0
  182.0220  177.4010  139.1680 C   0  0  0  0  0  3  0  0  0  0  0  0
  184.1870  177.4800  137.9830 N   0  0  0  0  0  2  0  0  0  0  0  0
  183.4620  177.4840  139.0470 C   0  0  0  0  0  0  0  0  0  0  0  0
  180.3820  178.5380  140.6640 C   0  0  0  0  0  2  0  0  0  0  0  0
  179.6140  179.9330  137.3340 C   0  0  0  0  0  2  0  0  0  0  0  0
  180.1230  180.7810  139.9630 C   0  0  2  0  0  3  0  0  0  0  0  0
  179.6580  179.3970  139.7400 N   0  0  0  0  0  0  0  0  0  0  0  0
  178.9320  181.7100  140.1360 C   0  0  0  0  0  1  0  0  0  0  0  0
  181.0950  181.3190  138.8960 C   0  0  0  0  0  2  0  0  0  0  0  0
  179.9160  178.8800  138.3900 C   0  0  0  0  0  2  0  0  0  0  0  0
  180.6200  181.0750  137.4570 C   0  0  2  0  0  3  0  0  0  0  0  0
  180.1050  182.3270  136.8220 C   0  0  0  0  0  0  0  0  0  0  0  0
  180.6210  183.5550  137.2130 O   0  0  0  0  0  1  0  0  0  0  0  0
  179.2010  182.2800  135.9460 O   0  0  0  0  0  0  0  0  0  0  0  0
  191.4600  176.3950  138.6280 C   0  0  0  0  0  0  0  0  0  0  0  0
  192.4760  176.1390  138.0330 C   0  0  0  0  0  0  0  0  0  0  0  0
  196.7890  174.1680  134.9240 C   0  0  0  0  0  2  0  0  0  0  0  0
  193.9330  176.3780  136.1430 C   0  0  0  0  0  3  0  0  0  0  0  0
  197.1130  173.8790  138.4100 F   0  0  0  0  0  0  0  0  0  0  0  0
  197.4850  173.4970  136.0750 C   0  0  0  0  0  0  0  0  0  0  0  0
  194.6830  174.8770  137.9320 C   0  0  0  0  0  2  0  0  0  0  0  0
  193.6910  175.8310  137.3330 C   0  0  0  0  0  0  0  0  0  0  0  0
  198.8750  174.0330  136.3480 C   0  0  0  0  0  2  0  0  0  0  0  0
  195.4050  174.5140  135.4510 C   0  0  2  0  0  3  0  0  0  0  0  0
  198.6920  172.6250  135.8020 C   0  0  0  0  0  2  0  0  0  0  0  0
  195.1940  176.0300  135.4150 C   0  0  0  0  0  2  0  0  0  0  0  0
  195.2480  173.9050  136.8740 C   0  0  1  0  0  3  0  0  0  0  0  0
  196.5840  173.2630  137.2840 C   0  0  2  0  0  0  0  0  0  0  0  0
  196.3870  171.7720  137.5950 C   0  0  0  0  0  2  0  0  0  0  0  0
  195.0920  171.2240  137.0800 C   0  0  0  0  0  3  0  0  0  0  0  0
  195.0850  170.4060  136.0330 C   0  0  0  0  0  2  0  0  0  0  0  0
  189.1720  177.3760  141.4840 C   0  0  0  0  0  2  0  0  0  0  0  0
  189.1510  177.4640  145.2820 C   0  0  0  0  0  0  0  0  0  0  0  0
  188.1440  177.5810  146.6140 S   0  0  0  0  0  0  0  0  0  0  0  0
  190.4510  176.7560  146.9550 C   0  0  0  0  0  0  0  0  0  0  0  0
  189.3050  177.0240  147.7040 C   0  0  0  0  0  3  0  0  0  0  0  0
  191.1380  179.1800  144.0440 O   0  0  0  0  0  1  0  0  0  0  0  0
  191.6980  176.2380  147.5750 C   0  0  0  0  0  1  0  0  0  0  0  0
  190.7220  178.5580  142.8890 N   0  0  0  0  0  0  0  0  0  0  0  0
  188.7380  177.7380  143.9410 N   0  0  0  0  0  2  0  0  0  0  0  0
  190.3670  176.9900  145.6180 N   0  0  0  0  0  0  0  0  0  0  0  0
  189.6170  177.8810  142.8170 C   0  0  0  0  0  0  0  0  0  0  0  0
  1 45  1  0  0  0  0
  2  1  2  0  0  0  0
  3  5  1  0  0  0  0
  4  3  2  0  0  0  0
  5  2  1  0  0  0  0
  7  6  1  6  0  0  0
  7  8  1  0  0  0  0
  7  3  1  0  0  0  0
  8 13  1  0  0  0  0
  9 11  1  0  0  0  0
 10 11  1  0  0  0  0
 10 17  1  0  0  0  0
 12  9  1  0  0  0  0
 13 12  2  0  0  0  0
 14 10  2  0  0  0  0
 15 13  1  0  0  0  0
 15 16  1  0  0  0  0
 16 14  1  0  0  0  0
 16  9  2  0  0  0  0
 18 24  1  0  0  0  0
 18 23  1  0  0  0  0
 19 21  1  6  0  0  0
 20 19  1  0  0  0  0
 20 17  1  0  0  0  0
 22 19  1  0  0  0  0
 23 20  1  0  0  0  0
 24 25  1  1  0  0  0
 24 22  1  0  0  0  0
 25 26  1  0  0  0  0
 27 25  2  0  0  0  0
 28  2  1  0  0  0  0
 29 28  3  0  0  0  0
 30 33  1  0  0  0  0
 31 35  2  0  0  0  0
 33 36  1  0  0  0  0
 33 41  1  0  0  0  0
 35 34  1  0  0  0  0
 35 29  1  0  0  0  0
 37 30  1  1  0  0  0
 37 40  1  0  0  0  0
 38 33  1  0  0  0  0
 38 36  1  0  0  0  0
 39 37  1  0  0  0  0
 39 31  1  0  0  0  0
 40 41  1  0  0  0  0
 40 34  1  1  0  0  0
 41 42  1  0  0  0  0
 41 32  1  1  0  0  0
 43 42  1  0  0  0  0
 44 43  2  0  0  0  0
 45 55  1  0  0  0  0
 46 54  2  0  0  0  0
 46 47  1  0  0  0  0
 47 49  1  0  0  0  0
 48 51  1  0  0  0  0
 48 49  2  0  0  0  0
 52 50  1  0  0  0  0
 53 46  1  0  0  0  0
 54 48  1  0  0  0  0
 55 52  2  0  0  0  0
 55 53  1  0  0  0  0
M  END
>  <MODEL>
6

>  <REMARK>
 VINA RESULT:      -7.7      4.032     12.619
  Name = 
  13 active torsions:
  status: ('A' for Active; 'I' for Inactive)
    1  A    between atoms: C_5  and  C_28
    2  A    between atoms: C_11  and  C_55
    3  A    between atoms: C_12  and  C_33
    4  A    between atoms: C_13  and  C_54
    5  A    between atoms: C_14  and  C_16
    6  A    between atoms: C_14  and  N_17
    7  A    between atoms: C_18  and  C_37
    8  A    between atoms: C_18  and  N_39
    9  A    between atoms: C_24  and  C_47
   10  A    between atoms: C_28  and  C_53
   11  A    between atoms: C_31  and  C_40
   12  A    between atoms: C_33  and  C_43
   13  A    between atoms: C_47  and  C_54
                            x       y       z     vdW  Elec       q    Type
                         _______ _______ _______ _____ _____    ______ ____

>  <TORSDO>
F 13

$$$$
=
 OpenBabel11042411293D

 55 61  0  0  1  0  0  0  0  0999 V2000
  184.2850  179.5760  139.9790 C   0  0  0  0  0  3  0  0  0  0  0  0
  185.1750  178.5840  140.0030 C   0  0  0  0  0  0  0  0  0  0  0  0
  186.6880  178.0670  137.9920 C   0  0  0  0  0  0  0  0  0  0  0  0
  187.6000  178.8650  138.3410 O   0  0  0  0  0  0  0  0  0  0  0  0
  185.5110  177.8890  138.7900 N   0  0  0  0  0  2  0  0  0  0  0  0
  185.6100  177.5300  135.8290 C   0  0  0  0  0  1  0  0  0  0  0  0
  186.8160  177.2910  136.7240 C   0  0  2  0  0  3  0  0  0  0  0  0
  186.9800  175.8080  137.0280 C   0  0  0  0  0  2  0  0  0  0  0  0
  190.1210  175.0730  135.5140 C   0  0  0  0  0  0  0  0  0  0  0  0
  191.6950  173.5280  135.6430 C   0  0  0  0  0  0  0  0  0  0  0  0
  191.4280  174.9880  135.6740 C   0  0  0  0  0  2  0  0  0  0  0  0
  189.2220  176.0160  136.0640 N   0  0  0  0  0  0  0  0  0  0  0  0
  188.2010  175.2620  136.3690 C   0  0  0  0  0  0  0  0  0  0  0  0
  190.5700  172.7980  135.6280 C   0  0  0  0  0  3  0  0  0  0  0  0
  188.3980  173.8470  136.1550 N   0  0  0  0  0  2  0  0  0  0  0  0
  189.5340  173.8070  135.5510 C   0  0  0  0  0  0  0  0  0  0  0  0
  193.0600  172.9320  135.6910 C   0  0  0  0  0  2  0  0  0  0  0  0
  196.4650  174.1970  136.3500 C   0  0  0  0  0  2  0  0  0  0  0  0
  193.9510  174.0220  137.5910 C   0  0  2  0  0  3  0  0  0  0  0  0
  194.0240  173.9340  136.1180 N   0  0  0  0  0  0  0  0  0  0  0  0
  193.8090  175.4740  138.0200 C   0  0  0  0  0  1  0  0  0  0  0  0
  195.1060  173.3340  138.3410 C   0  0  0  0  0  2  0  0  0  0  0  0
  195.3320  173.5110  135.6000 C   0  0  0  0  0  2  0  0  0  0  0  0
  196.4930  173.6940  137.7910 C   0  0  2  0  0  3  0  0  0  0  0  0
  197.2150  174.6480  138.6880 C   0  0  0  0  0  0  0  0  0  0  0  0
  198.0500  175.6090  138.1340 O   0  0  0  0  0  0  0  0  0  0  0  0
  197.0820  174.5820  139.9390 O   0  0  0  0  0  1  0  0  0  0  0  0
  185.7900  178.2540  141.2610 C   0  0  0  0  0  0  0  0  0  0  0  0
  186.3060  177.9880  142.3170 C   0  0  0  0  0  0  0  0  0  0  0  0
  189.0450  177.6940  147.2730 C   0  0  0  0  0  2  0  0  0  0  0  0
  186.2290  177.7840  144.7050 C   0  0  0  0  0  3  0  0  0  0  0  0
  190.4890  175.9560  144.5820 F   0  0  0  0  0  0  0  0  0  0  0  0
  190.2770  177.0470  146.7030 C   0  0  0  0  0  0  0  0  0  0  0  0
  188.3660  177.2600  143.6200 C   0  0  0  0  0  2  0  0  0  0  0  0
  186.9260  177.6800  143.5750 C   0  0  0  0  0  0  0  0  0  0  0  0
  190.5760  175.6790  147.2830 C   0  0  0  0  0  2  0  0  0  0  0  0
  188.2610  178.1760  146.0620 C   0  0  2  0  0  3  0  0  0  0  0  0
  191.4890  176.8570  147.5920 C   0  0  0  0  0  2  0  0  0  0  0  0
  186.8960  177.4840  146.0120 C   0  0  0  0  0  2  0  0  0  0  0  0
  189.1190  177.9370  144.7860 C   0  0  1  0  0  3  0  0  0  0  0  0
  190.4070  177.2010  145.1910 C   0  0  2  0  0  0  0  0  0  0  0  0
  191.6410  178.0210  144.7850 C   0  0  0  0  0  2  0  0  0  0  0  0
  191.7870  178.1810  143.3030 C   0  0  0  0  0  3  0  0  0  0  0  0
  192.3280  177.2080  142.5790 C   0  0  0  0  0  2  0  0  0  0  0  0
  183.6170  180.0410  138.7230 C   0  0  0  0  0  2  0  0  0  0  0  0
  180.6900  178.7760  136.6570 C   0  0  0  0  0  0  0  0  0  0  0  0
  179.5390  179.2440  135.5360 S   0  0  0  0  0  0  0  0  0  0  0  0
  179.9780  176.8280  135.8260 C   0  0  0  0  0  0  0  0  0  0  0  0
  179.1600  177.6680  135.0720 C   0  0  0  0  0  3  0  0  0  0  0  0
  180.6420  177.9660  139.4440 O   0  0  0  0  0  1  0  0  0  0  0  0
  179.9330  175.3490  135.6910 C   0  0  0  0  0  1  0  0  0  0  0  0
  181.8920  178.5420  139.4670 N   0  0  0  0  0  0  0  0  0  0  0  0
  181.4960  179.6880  137.4070 N   0  0  0  0  0  2  0  0  0  0  0  0
  180.8290  177.4360  136.6950 N   0  0  0  0  0  0  0  0  0  0  0  0
  182.3120  179.3410  138.5330 C   0  0  0  0  0  0  0  0  0  0  0  0
  1  2  2  0  0  0  0
  2 28  1  0  0  0  0
  3  4  2  0  0  0  0
  3  5  1  0  0  0  0
  5  2  1  0  0  0  0
  7  6  1  6  0  0  0
  7  8  1  0  0  0  0
  7  3  1  0  0  0  0
  9 16  2  0  0  0  0
  9 11  1  0  0  0  0
  9 12  1  0  0  0  0
 10 11  1  0  0  0  0
 10 17  1  0  0  0  0
 12 13  2  0  0  0  0
 13  8  1  0  0  0  0
 14 10  2  0  0  0  0
 15 13  1  0  0  0  0
 16 14  1  0  0  0  0
 16 15  1  0  0  0  0
 17 20  1  0  0  0  0
 18 24  1  0  0  0  0
 19 21  1  6  0  0  0
 19 22  1  0  0  0  0
 20 19  1  0  0  0  0
 23 20  1  0  0  0  0
 23 18  1  0  0  0  0
 24 22  1  0  0  0  0
 24 25  1  1  0  0  0
 25 27  1  0  0  0  0
 26 25  2  0  0  0  0
 28 29  3  0  0  0  0
 29 35  1  0  0  0  0
 31 39  1  0  0  0  0
 33 30  1  0  0  0  0
 33 36  1  0  0  0  0
 33 38  1  0  0  0  0
 35 34  1  0  0  0  0
 35 31  2  0  0  0  0
 36 38  1  0  0  0  0
 37 39  1  6  0  0  0
 37 30  1  0  0  0  0
 40 34  1  6  0  0  0
 40 41  1  0  0  0  0
 40 37  1  0  0  0  0
 41 32  1  6  0  0  0
 41 33  1  0  0  0  0
 42 41  1  0  0  0  0
 43 42  1  0  0  0  0
 44 43  2  0  0  0  0
 45  1  1  0  0  0  0
 46 54  2  0  0  0  0
 46 53  1  0  0  0  0
 47 46  1  0  0  0  0
 48 54  1  0  0  0  0
 49 47  1  0  0  0  0
 49 48  2  0  0  0  0
 50 52  1  0  0  0  0
 51 48  1  0  0  0  0
 53 55  1  0  0  0  0
 55 45  1  0  0  0  0
 55 52  2  0  0  0  0
M  END
>  <MODEL>
7

>  <REMARK>
 VINA RESULT:      -7.7      2.510      3.318
  Name = 
  13 active torsions:
  status: ('A' for Active; 'I' for Inactive)
    1  A    between atoms: C_5  and  C_28
    2  A    between atoms: C_11  and  C_55
    3  A    between atoms: C_12  and  C_33
    4  A    between atoms: C_13  and  C_54
    5  A    between atoms: C_14  and  C_16
    6  A    between atoms: C_14  and  N_17
    7  A    between atoms: C_18  and  C_37
    8  A    between atoms: C_18  and  N_39
    9  A    between atoms: C_24  and  C_47
   10  A    between atoms: C_28  and  C_53
   11  A    between atoms: C_31  and  C_40
   12  A    between atoms: C_33  and  C_43
   13  A    between atoms: C_47  and  C_54
                            x       y       z     vdW  Elec       q    Type
                         _______ _______ _______ _____ _____    ______ ____

>  <TORSDO>
F 13

$$$$
=
 OpenBabel11042411293D

 55 61  0  0  1  0  0  0  0  0999 V2000
  190.5340  176.7640  137.9820 C   0  0  0  0  0  3  0  0  0  0  0  0
  189.4160  177.1970  138.5640 C   0  0  0  0  0  0  0  0  0  0  0  0
  189.6370  177.1960  141.1230 C   0  0  0  0  0  0  0  0  0  0  0  0
  189.8020  175.9500  141.2130 O   0  0  0  0  0  0  0  0  0  0  0  0
  189.4730  177.8350  139.8510 N   0  0  0  0  0  2  0  0  0  0  0  0
  190.9620  178.0420  143.0350 C   0  0  0  0  0  1  0  0  0  0  0  0
  189.6020  178.0380  142.3560 C   0  0  2  0  0  3  0  0  0  0  0  0
  188.5230  177.5350  143.3060 C   0  0  0  0  0  2  0  0  0  0  0  0
  185.6030  179.0200  141.9040 C   0  0  0  0  0  0  0  0  0  0  0  0
  183.4480  178.5680  141.7170 C   0  0  0  0  0  0  0  0  0  0  0  0
  184.6730  178.9510  140.9700 C   0  0  0  0  0  3  0  0  0  0  0  0
  186.9780  178.7020  141.8070 N   0  0  0  0  0  0  0  0  0  0  0  0
  187.1910  178.1010  142.9460 C   0  0  0  0  0  0  0  0  0  0  0  0
  183.6990  178.2690  143.0000 C   0  0  0  0  0  3  0  0  0  0  0  0
  186.0170  177.8990  143.7630 N   0  0  0  0  0  2  0  0  0  0  0  0
  185.1120  178.5560  143.1270 C   0  0  1  0  0  3  0  0  0  0  0  0
  182.0980  178.4580  141.0970 C   0  0  0  0  0  2  0  0  0  0  0  0
  179.5720  181.0270  140.2910 C   0  0  0  0  0  2  0  0  0  0  0  0
  181.8130  179.7730  139.1530 C   0  0  2  0  0  3  0  0  0  0  0  0
  181.6630  179.7620  140.6220 N   0  0  0  0  0  0  0  0  0  0  0  0
  182.5700  181.0170  138.7150 C   0  0  0  0  0  1  0  0  0  0  0  0
  180.4990  179.6180  138.3650 C   0  0  0  0  0  2  0  0  0  0  0  0
  180.2840  179.9470  141.0920 C   0  0  0  0  0  2  0  0  0  0  0  0
  179.3780  180.5460  138.8550 C   0  0  2  0  0  3  0  0  0  0  0  0
  179.1570  181.6910  137.9210 C   0  0  0  0  0  0  0  0  0  0  0  0
  179.1910  182.9900  138.4110 O   0  0  0  0  0  1  0  0  0  0  0  0
  178.9310  181.4910  136.6980 O   0  0  0  0  0  0  0  0  0  0  0  0
  188.1730  177.0230  137.8600 C   0  0  0  0  0  0  0  0  0  0  0  0
  187.1300  176.8870  137.2720 C   0  0  0  0  0  0  0  0  0  0  0  0
  181.9430  177.0850  134.9920 C   0  0  0  0  0  2  0  0  0  0  0  0
  185.7340  177.2290  135.3530 C   0  0  0  0  0  3  0  0  0  0  0  0
  182.5250  174.5320  137.3350 F   0  0  0  0  0  0  0  0  0  0  0  0
  181.3460  176.0770  135.9350 C   0  0  0  0  0  0  0  0  0  0  0  0
  184.7350  176.0280  137.2440 C   0  0  0  0  0  2  0  0  0  0  0  0
  185.8820  176.7320  136.5790 C   0  0  0  0  0  0  0  0  0  0  0  0
  180.8120  174.8370  135.2490 C   0  0  0  0  0  2  0  0  0  0  0  0
  183.2830  177.4520  135.6090 C   0  0  2  0  0  3  0  0  0  0  0  0
  179.8530  175.8250  135.8990 C   0  0  0  0  0  2  0  0  0  0  0  0
  184.4200  177.0810  134.6520 C   0  0  0  0  0  2  0  0  0  0  0  0
  183.3990  176.7600  136.9970 C   0  0  1  0  0  3  0  0  0  0  0  0
  182.1640  175.8670  137.2050 C   0  0  2  0  0  0  0  0  0  0  0  0
  181.4060  176.2890  138.4730 C   0  0  0  0  0  2  0  0  0  0  0  0
  181.1360  175.1520  139.4100 C   0  0  0  0  0  3  0  0  0  0  0  0
  180.0380  174.4180  139.2670 C   0  0  0  0  0  2  0  0  0  0  0  0
  191.8890  176.9330  138.5960 C   0  0  0  0  0  2  0  0  0  0  0  0
  194.7860  174.5230  138.1170 C   0  0  0  0  0  0  0  0  0  0  0  0
  196.3020  174.1170  138.6980 S   0  0  0  0  0  0  0  0  0  0  0  0
  195.1050  172.4700  137.2960 C   0  0  0  0  0  0  0  0  0  0  0  0
  196.3200  172.5970  137.9690 C   0  0  0  0  0  3  0  0  0  0  0  0
  193.7650  175.6880  135.6630 O   0  0  0  0  0  1  0  0  0  0  0  0
  194.7500  171.2480  136.5280 C   0  0  0  0  0  1  0  0  0  0  0  0
  192.7940  176.1940  136.4960 N   0  0  0  0  0  0  0  0  0  0  0  0
  194.1020  175.7350  138.4430 N   0  0  0  0  0  2  0  0  0  0  0  0
  194.2530  173.5260  137.3820 N   0  0  0  0  0  0  0  0  0  0  0  0
  192.9240  176.2230  137.7880 C   0  0  0  0  0  0  0  0  0  0  0  0
  1  2  2  0  0  0  0
  1 45  1  0  0  0  0
  2  5  1  0  0  0  0
  3  4  2  0  0  0  0
  3  7  1  0  0  0  0
  5  3  1  0  0  0  0
  7  6  1  1  0  0  0
  7  8  1  0  0  0  0
  9 16  1  0  0  0  0
 10 14  2  0  0  0  0
 11 10  1  0  0  0  0
 11  9  2  0  0  0  0
 12  9  1  0  0  0  0
 12 13  2  0  0  0  0
 13  8  1  0  0  0  0
 13 15  1  0  0  0  0
 16 14  1  6  0  0  0
 16 15  1  0  0  0  0
 17 10  1  0  0  0  0
 18 23  1  0  0  0  0
 19 21  1  6  0  0  0
 19 20  1  0  0  0  0
 20 23  1  0  0  0  0
 20 17  1  0  0  0  0
 22 24  1  0  0  0  0
 22 19  1  0  0  0  0
 24 25  1  6  0  0  0
 24 18  1  0  0  0  0
 25 26  1  0  0  0  0
 27 25  2  0  0  0  0
 28  2  1  0  0  0  0
 29 28  3  0  0  0  0
 30 37  1  0  0  0  0
 30 33  1  0  0  0  0
 31 35  2  0  0  0  0
 33 41  1  0  0  0  0
 35 34  1  0  0  0  0
 35 29  1  0  0  0  0
 36 38  1  0  0  0  0
 36 33  1  0  0  0  0
 37 39  1  6  0  0  0
 37 40  1  0  0  0  0
 38 33  1  0  0  0  0
 39 31  1  0  0  0  0
 40 41  1  0  0  0  0
 40 34  1  6  0  0  0
 41 32  1  1  0  0  0
 41 42  1  0  0  0  0
 42 43  1  0  0  0  0
 44 43  2  0  0  0  0
 46 53  1  0  0  0  0
 46 47  1  0  0  0  0
 48 54  1  0  0  0  0
 48 49  2  0  0  0  0
 49 47  1  0  0  0  0
 50 52  1  0  0  0  0
 51 48  1  0  0  0  0
 52 55  2  0  0  0  0
 54 46  2  0  0  0  0
 55 53  1  0  0  0  0
 55 45  1  0  0  0  0
M  END
>  <MODEL>
8

>  <REMARK>
 VINA RESULT:      -7.7      4.100     12.829
  Name = 
  13 active torsions:
  status: ('A' for Active; 'I' for Inactive)
    1  A    between atoms: C_5  and  C_28
    2  A    between atoms: C_11  and  C_55
    3  A    between atoms: C_12  and  C_33
    4  A    between atoms: C_13  and  C_54
    5  A    between atoms: C_14  and  C_16
    6  A    between atoms: C_14  and  N_17
    7  A    between atoms: C_18  and  C_37
    8  A    between atoms: C_18  and  N_39
    9  A    between atoms: C_24  and  C_47
   10  A    between atoms: C_28  and  C_53
   11  A    between atoms: C_31  and  C_40
   12  A    between atoms: C_33  and  C_43
   13  A    between atoms: C_47  and  C_54
                            x       y       z     vdW  Elec       q    Type
                         _______ _______ _______ _____ _____    ______ ____

>  <TORSDO>
F 13

$$$$
=
 OpenBabel11042411293D

 55 61  0  0  1  0  0  0  0  0999 V2000
  190.7710  177.3050  140.3280 C   0  0  0  0  0  3  0  0  0  0  0  0
  190.7470  177.1860  139.0000 C   0  0  0  0  0  0  0  0  0  0  0  0
  188.6620  176.8940  137.5280 C   0  0  0  0  0  0  0  0  0  0  0  0
  188.7090  175.6340  137.5300 O   0  0  0  0  0  0  0  0  0  0  0  0
  189.6200  177.6750  138.2540 N   0  0  0  0  0  2  0  0  0  0  0  0
  186.5000  178.0900  137.6890 C   0  0  0  0  0  1  0  0  0  0  0  0
  187.5980  177.6020  136.7570 C   0  0  2  0  0  3  0  0  0  0  0  0
  187.0280  176.6860  135.6820 C   0  0  0  0  0  2  0  0  0  0  0  0
  183.8350  175.5420  136.7760 C   0  0  0  0  0  0  0  0  0  0  0  0
  181.8770  176.4000  137.3350 C   0  0  0  0  0  0  0  0  0  0  0  0
  182.9650  175.4870  137.7670 C   0  0  0  0  0  2  0  0  0  0  0  0
  185.2460  175.4620  136.8320 N   0  0  0  0  0  0  0  0  0  0  0  0
  185.5980  176.3660  135.9600 C   0  0  0  0  0  0  0  0  0  0  0  0
  182.1840  177.0760  136.2180 C   0  0  0  0  0  3  0  0  0  0  0  0
  184.5100  177.1290  135.3940 N   0  0  0  0  0  2  0  0  0  0  0  0
  183.4710  176.5240  135.8520 C   0  0  0  0  0  0  0  0  0  0  0  0
  180.6100  176.5980  138.0920 C   0  0  0  0  0  2  0  0  0  0  0  0
  179.6810  176.9240  141.6500 C   0  0  0  0  0  2  0  0  0  0  0  0
  181.3830  178.0970  139.7490 C   0  0  2  0  0  3  0  0  0  0  0  0
  180.8940  176.7230  139.5130 N   0  0  0  0  0  0  0  0  0  0  0  0
  182.6750  178.0610  140.5490 C   0  0  0  0  0  1  0  0  0  0  0  0
  180.3580  179.0490  140.3930 C   0  0  0  0  0  2  0  0  0  0  0  0
  179.6540  176.3900  140.2250 C   0  0  0  0  0  2  0  0  0  0  0  0
  179.6530  178.4490  141.6180 C   0  0  2  0  0  3  0  0  0  0  0  0
  180.1670  179.0310  142.8950 C   0  0  0  0  0  0  0  0  0  0  0  0
  179.9510  178.3580  144.0900 O   0  0  0  0  0  1  0  0  0  0  0  0
  180.7860  180.1290  142.9000 O   0  0  0  0  0  0  0  0  0  0  0  0
  191.8790  176.5800  138.3520 C   0  0  0  0  0  0  0  0  0  0  0  0
  192.8240  176.0740  137.8000 C   0  0  0  0  0  0  0  0  0  0  0  0
  196.5990  173.0490  134.8440 C   0  0  0  0  0  2  0  0  0  0  0  0
  194.3100  175.8980  135.9270 C   0  0  0  0  0  3  0  0  0  0  0  0
  196.8250  172.8430  138.3450 F   0  0  0  0  0  0  0  0  0  0  0  0
  197.1170  172.2880  136.0330 C   0  0  0  0  0  0  0  0  0  0  0  0
  194.6880  174.3430  137.7870 C   0  0  0  0  0  2  0  0  0  0  0  0
  193.9430  175.4710  137.1340 C   0  0  0  0  0  0  0  0  0  0  0  0
  198.5910  172.5070  136.3080 C   0  0  0  0  0  2  0  0  0  0  0  0
  195.3270  173.7210  135.3340 C   0  0  2  0  0  3  0  0  0  0  0  0
  198.0970  171.1540  135.8150 C   0  0  0  0  0  2  0  0  0  0  0  0
  195.4650  175.2420  135.2340 C   0  0  0  0  0  2  0  0  0  0  0  0
  195.0250  173.2250  136.7780 C   0  0  1  0  0  3  0  0  0  0  0  0
  196.1780  172.3150  137.2350 C   0  0  2  0  0  0  0  0  0  0  0  0
  195.6470  170.9220  137.6020 C   0  0  0  0  0  2  0  0  0  0  0  0
  194.4180  170.5350  136.8380 C   0  0  0  0  0  3  0  0  0  0  0  0
  194.5060  169.6820  135.8240 C   0  0  0  0  0  2  0  0  0  0  0  0
  189.6740  177.9610  141.1060 C   0  0  0  0  0  2  0  0  0  0  0  0
  190.4090  176.9460  144.6930 C   0  0  0  0  0  0  0  0  0  0  0  0
  191.6130  176.3690  145.7020 S   0  0  0  0  0  0  0  0  0  0  0  0
  189.6120  177.3960  146.7310 C   0  0  0  0  0  0  0  0  0  0  0  0
  190.8100  176.7980  147.1220 C   0  0  0  0  0  3  0  0  0  0  0  0
  187.9350  175.8750  143.6160 O   0  0  0  0  0  1  0  0  0  0  0  0
  188.6270  177.9140  147.7160 C   0  0  0  0  0  1  0  0  0  0  0  0
  188.2300  176.6980  142.5530 N   0  0  0  0  0  0  0  0  0  0  0  0
  190.4970  176.9530  143.2660 N   0  0  0  0  0  2  0  0  0  0  0  0
  189.3920  177.4870  145.3920 N   0  0  0  0  0  0  0  0  0  0  0  0
  189.4080  177.2130  142.3700 C   0  0  0  0  0  0  0  0  0  0  0  0
  1 45  1  0  0  0  0
  2  1  2  0  0  0  0
  3  4  2  0  0  0  0
  3  5  1  0  0  0  0
  5  2  1  0  0  0  0
  7  3  1  0  0  0  0
  7  6  1  1  0  0  0
  8 13  1  0  0  0  0
  8  7  1  0  0  0  0
  9 12  1  0  0  0  0
  9 11  1  0  0  0  0
 10 11  1  0  0  0  0
 10 17  1  0  0  0  0
 13 12  2  0  0  0  0
 14 10  2  0  0  0  0
 15 16  1  0  0  0  0
 15 13  1  0  0  0  0
 16 14  1  0  0  0  0
 16  9  2  0  0  0  0
 17 20  1  0  0  0  0
 19 22  1  0  0  0  0
 19 21  1  1  0  0  0
 20 19  1  0  0  0  0
 20 23  1  0  0  0  0
 22 24  1  0  0  0  0
 23 18  1  0  0  0  0
 24 18  1  0  0  0  0
 24 25  1  1  0  0  0
 25 27  2  0  0  0  0
 25 26  1  0  0  0  0
 28  2  1  0  0  0  0
 29 28  3  0  0  0  0
 30 33  1  0  0  0  0
 31 35  2  0  0  0  0
 33 36  1  0  0  0  0
 33 41  1  0  0  0  0
 35 34  1  0  0  0  0
 35 29  1  0  0  0  0
 37 30  1  1  0  0  0
 37 40  1  0  0  0  0
 38 33  1  0  0  0  0
 38 36  1  0  0  0  0
 39 37  1  0  0  0  0
 39 31  1  0  0  0  0
 40 41  1  0  0  0  0
 40 34  1  1  0  0  0
 41 42  1  0  0  0  0
 41 32  1  1  0  0  0
 43 42  1  0  0  0  0
 44 43  2  0  0  0  0
 45 55  1  0  0  0  0
 46 54  2  0  0  0  0
 46 47  1  0  0  0  0
 47 49  1  0  0  0  0
 48 49  2  0  0  0  0
 48 51  1  0  0  0  0
 52 50  1  0  0  0  0
 53 46  1  0  0  0  0
 54 48  1  0  0  0  0
 55 52  2  0  0  0  0
 55 53  1  0  0  0  0
M  END
>  <MODEL>
9

>  <REMARK>
 VINA RESULT:      -7.6      4.636     12.297
  Name = 
  13 active torsions:
  status: ('A' for Active; 'I' for Inactive)
    1  A    between atoms: C_5  and  C_28
    2  A    between atoms: C_11  and  C_55
    3  A    between atoms: C_12  and  C_33
    4  A    between atoms: C_13  and  C_54
    5  A    between atoms: C_14  and  C_16
    6  A    between atoms: C_14  and  N_17
    7  A    between atoms: C_18  and  C_37
    8  A    between atoms: C_18  and  N_39
    9  A    between atoms: C_24  and  C_47
   10  A    between atoms: C_28  and  C_53
   11  A    between atoms: C_31  and  C_40
   12  A    between atoms: C_33  and  C_43
   13  A    between atoms: C_47  and  C_54
                            x       y       z     vdW  Elec       q    Type
                         _______ _______ _______ _____ _____    ______ ____

>  <TORSDO>
F 13

$$$$
