=
 OpenBabel11042412203D

 44 48  0  0  1  0  0  0  0  0999 V2000
  184.8780  179.3270  146.0610 N   0  0  0  0  0  0  0  0  0  0  0  0
  187.7010  178.5420  148.1800 C   0  0  0  0  0  3  0  0  0  0  0  0
  189.1250  176.9920  147.0040 C   0  0  0  0  0  3  0  0  0  0  0  0
  187.1390  177.7750  145.9550 C   0  0  0  0  0  0  0  0  0  0  0  0
  186.2660  177.7950  144.8580 C   0  0  0  0  0  0  0  0  0  0  0  0
  188.2720  177.0170  145.9440 N   0  0  0  0  0  0  0  0  0  0  0  0
  186.8380  178.5540  147.0840 C   0  0  0  0  0  0  0  0  0  0  0  0
  185.0930  178.5870  144.9360 C   0  0  0  0  0  0  0  0  0  0  0  0
  188.8540  177.7550  148.1430 C   0  0  0  0  0  3  0  0  0  0  0  0
  185.7160  179.3120  147.0980 N   0  0  0  0  0  0  0  0  0  0  0  0
  182.4150  178.7020  141.1340 C   0  0  0  0  0  0  0  0  0  0  0  0
  183.7230  178.5860  141.3410 C   0  0  0  0  0  3  0  0  0  0  0  0
  182.6850  178.7940  144.2600 C   0  0  0  0  0  3  0  0  0  0  0  0
  184.4940  178.5650  142.5830 C   0  0  0  0  0  3  0  0  0  0  0  0
  181.4490  178.8340  142.1380 O   0  0  0  0  0  0  0  0  0  0  0  0
  184.0870  178.6720  143.8460 C   0  0  0  0  0  0  0  0  0  0  0  0
  181.5780  178.8630  143.5280 C   0  0  0  0  0  3  0  0  0  0  0  0
  181.3690  177.7260  137.7140 N   0  0  0  0  0  0  0  0  0  0  0  0
  181.1560  176.6600  136.8210 N   0  0  0  0  0  2  0  0  0  0  0  0
  182.0950  176.1490  139.4230 C   0  0  0  0  0  2  0  0  0  0  0  0
  181.2880  175.0980  138.6700 C   0  0  0  0  0  2  0  0  0  0  0  0
  181.7770  177.5410  138.9350 C   0  0  0  0  0  0  0  0  0  0  0  0
  181.5010  175.2900  137.1780 C   0  0  0  0  0  2  0  0  0  0  0  0
  181.9930  178.6900  139.7650 N   0  0  0  0  0  2  0  0  0  0  0  0
  186.6040  176.9940  143.6350 C   0  0  0  0  0  2  0  0  0  0  0  0
  188.0060  177.1870  143.3000 N   0  0  0  0  0  2  0  0  0  0  0  0
  188.4880  174.9060  143.2360 O   0  0  0  0  0  0  0  0  0  0  0  0
  188.9060  176.0900  143.1350 C   0  0  0  0  0  0  0  0  0  0  0  0
  190.2930  176.3230  142.8720 N   0  0  0  0  0  2  0  0  0  0  0  0
  191.7540  177.9740  143.9430 C   0  0  0  0  0  1  0  0  0  0  0  0
  190.9010  177.6450  142.7310 C   0  0  1  0  0  3  0  0  0  0  0  0
  191.7330  177.7500  141.4570 C   0  0  0  0  0  2  0  0  0  0  0  0
  191.9360  177.1640  139.0630 C   0  0  0  0  0  1  0  0  0  0  0  0
  191.0240  177.1170  140.2700 C   0  0  2  0  0  3  0  0  0  0  0  0
  189.8010  177.8450  139.9740 N   0  0  0  0  0  2  0  0  0  0  0  0
  189.8040  178.0980  138.5960 N   0  0  0  0  0  2  0  0  0  0  0  0
  188.5720  178.6910  138.2930 N   0  0  0  0  0  2  0  0  0  0  0  0
  185.6250  175.5840  137.0880 O   0  0  0  0  0  0  0  0  0  0  0  0
  187.4370  177.8890  137.9710 C   0  0  0  0  0  0  0  0  0  0  0  0
  185.0990  176.7250  136.4800 C   0  0  0  0  0  2  0  0  0  0  0  0
  186.3060  178.4840  137.7210 N   0  0  0  0  0  0  0  0  0  0  0  0
  187.5770  176.4950  137.9410 O   0  0  0  0  0  0  0  0  0  0  0  0
  185.0130  177.8360  137.5120 C   0  0  0  0  0  2  0  0  0  0  0  0
  187.0070  175.6850  136.9180 C   0  0  0  0  0  2  0  0  0  0  0  0
  1 10  1  0  0  0  0
  3  9  1  0  0  0  0
  4  7  1  0  0  0  0
  5  8  1  0  0  0  0
  5  4  2  0  0  0  0
  6  4  1  0  0  0  0
  6  3  2  0  0  0  0
  7 10  2  0  0  0  0
  7  2  1  0  0  0  0
  8  1  2  0  0  0  0
  9  2  2  0  0  0  0
 11 12  2  0  0  0  0
 11 15  1  0  0  0  0
 12 14  1  0  0  0  0
 14 16  2  0  0  0  0
 15 17  1  0  0  0  0
 16 13  1  0  0  0  0
 16  8  1  0  0  0  0
 17 13  2  0  0  0  0
 18 22  2  0  0  0  0
 19 23  1  0  0  0  0
 19 18  1  0  0  0  0
 21 20  1  0  0  0  0
 22 20  1  0  0  0  0
 22 24  1  0  0  0  0
 23 21  1  0  0  0  0
 24 11  1  0  0  0  0
 25  5  1  0  0  0  0
 26 25  1  0  0  0  0
 28 27  2  0  0  0  0
 28 26  1  0  0  0  0
 29 28  1  0  0  0  0
 31 29  1  0  0  0  0
 31 30  1  1  0  0  0
 32 31  1  0  0  0  0
 34 33  1  6  0  0  0
 34 32  1  0  0  0  0
 35 34  1  0  0  0  0
 36 35  1  0  0  0  0
 37 36  1  0  0  0  0
 39 37  1  0  0  0  0
 40 38  1  0  0  0  0
 40 43  1  0  0  0  0
 41 39  2  0  0  0  0
 42 39  1  0  0  0  0
 43 41  1  0  0  0  0
 44 38  1  0  0  0  0
 44 42  1  0  0  0  0
M  END
>  <MODEL>
1

>  <REMARK>
 VINA RESULT:      -9.4      0.000      0.000
  Name = 
  10 active torsions:
  status: ('A' for Active; 'I' for Inactive)
    1  A    between atoms: C_2  and  N_40
    2  A    between atoms: N_7  and  N_25
    3  A    between atoms: N_8  and  C_39
    4  A    between atoms: C_9  and  N_28
    5  A    between atoms: C_9  and  C_42
    6  A    between atoms: C_23  and  C_39
    7  A    between atoms: N_25  and  N_38
    8  A    between atoms: C_33  and  C_35
    9  A    between atoms: N_38  and  C_41
   10  A    between atoms: C_41  and  C_42
                            x       y       z     vdW  Elec       q    Type
                         _______ _______ _______ _____ _____    ______ ____

>  <TORSDO>
F 10

$$$$
=
 OpenBabel11042412203D

 44 48  0  0  1  0  0  0  0  0999 V2000
  184.8510  179.3450  145.9460 N   0  0  0  0  0  0  0  0  0  0  0  0
  187.6180  178.5970  148.1500 C   0  0  0  0  0  3  0  0  0  0  0  0
  189.0600  177.0090  147.0480 C   0  0  0  0  0  3  0  0  0  0  0  0
  187.1040  177.7760  145.9330 C   0  0  0  0  0  0  0  0  0  0  0  0
  186.2570  177.7740  144.8150 C   0  0  0  0  0  0  0  0  0  0  0  0
  188.2320  177.0120  145.9680 N   0  0  0  0  0  0  0  0  0  0  0  0
  186.7810  178.5860  147.0340 C   0  0  0  0  0  0  0  0  0  0  0  0
  185.0880  178.5750  144.8450 C   0  0  0  0  0  0  0  0  0  0  0  0
  188.7660  177.8030  148.1610 C   0  0  0  0  0  3  0  0  0  0  0  0
  185.6640  179.3510  147.0020 N   0  0  0  0  0  0  0  0  0  0  0  0
  182.4870  178.5560  140.9880 C   0  0  0  0  0  0  0  0  0  0  0  0
  183.7800  178.3690  141.2330 C   0  0  0  0  0  3  0  0  0  0  0  0
  182.7110  178.8900  144.1010 C   0  0  0  0  0  3  0  0  0  0  0  0
  184.5270  178.3980  142.4890 C   0  0  0  0  0  3  0  0  0  0  0  0
  181.5160  178.8380  141.9570 O   0  0  0  0  0  0  0  0  0  0  0  0
  184.1080  178.6380  143.7300 C   0  0  0  0  0  0  0  0  0  0  0  0
  181.6250  178.9740  143.3420 C   0  0  0  0  0  3  0  0  0  0  0  0
  181.3450  179.2500  137.5300 N   0  0  0  0  0  0  0  0  0  0  0  0
  180.8750  180.2270  136.6330 N   0  0  0  0  0  2  0  0  0  0  0  0
  181.4370  180.9220  139.3010 C   0  0  0  0  0  2  0  0  0  0  0  0
  181.5360  181.9630  138.1920 C   0  0  0  0  0  2  0  0  0  0  0  0
  181.6440  179.5260  138.7660 C   0  0  0  0  0  0  0  0  0  0  0  0
  180.5790  181.5840  137.0750 C   0  0  0  0  0  2  0  0  0  0  0  0
  182.0880  178.4600  139.6150 N   0  0  0  0  0  2  0  0  0  0  0  0
  186.6180  176.9400  143.6210 C   0  0  0  0  0  2  0  0  0  0  0  0
  188.0170  177.1530  143.2860 N   0  0  0  0  0  2  0  0  0  0  0  0
  188.5390  174.8800  143.2520 O   0  0  0  0  0  0  0  0  0  0  0  0
  188.9360  176.0700  143.1360 C   0  0  0  0  0  0  0  0  0  0  0  0
  190.3200  176.3240  142.8720 N   0  0  0  0  0  2  0  0  0  0  0  0
  191.7810  177.9980  143.9050 C   0  0  0  0  0  1  0  0  0  0  0  0
  190.9050  177.6540  142.7140 C   0  0  1  0  0  3  0  0  0  0  0  0
  191.7050  177.7680  141.4210 C   0  0  0  0  0  2  0  0  0  0  0  0
  191.8590  177.1790  139.0240 C   0  0  0  0  0  1  0  0  0  0  0  0
  190.9730  177.1310  140.2500 C   0  0  2  0  0  3  0  0  0  0  0  0
  189.7420  177.8560  139.9790 N   0  0  0  0  0  2  0  0  0  0  0  0
  189.7450  178.1610  138.6110 N   0  0  0  0  0  2  0  0  0  0  0  0
  188.4960  178.7240  138.3210 N   0  0  0  0  0  2  0  0  0  0  0  0
  185.6350  175.5560  137.0680 O   0  0  0  0  0  0  0  0  0  0  0  0
  187.3840  177.8960  137.9880 C   0  0  0  0  0  0  0  0  0  0  0  0
  185.0750  176.6920  136.4810 C   0  0  0  0  0  2  0  0  0  0  0  0
  186.2360  178.4630  137.7500 N   0  0  0  0  0  0  0  0  0  0  0  0
  187.5630  176.5070  137.9330 O   0  0  0  0  0  0  0  0  0  0  0  0
  184.9610  177.7830  137.5330 C   0  0  0  0  0  2  0  0  0  0  0  0
  187.0130  175.7000  136.8970 C   0  0  0  0  0  2  0  0  0  0  0  0
  1 10  1  0  0  0  0
  2  9  2  0  0  0  0
  3  9  1  0  0  0  0
  4  6  1  0  0  0  0
  4  7  1  0  0  0  0
  5  8  1  0  0  0  0
  5  4  2  0  0  0  0
  6  3  2  0  0  0  0
  7  2  1  0  0  0  0
  8  1  2  0  0  0  0
 10  7  2  0  0  0  0
 11 12  2  0  0  0  0
 11 15  1  0  0  0  0
 12 14  1  0  0  0  0
 14 16  2  0  0  0  0
 15 17  1  0  0  0  0
 16 13  1  0  0  0  0
 16  8  1  0  0  0  0
 17 13  2  0  0  0  0
 18 22  2  0  0  0  0
 19 23  1  0  0  0  0
 19 18  1  0  0  0  0
 21 20  1  0  0  0  0
 22 20  1  0  0  0  0
 22 24  1  0  0  0  0
 23 21  1  0  0  0  0
 24 11  1  0  0  0  0
 25  5  1  0  0  0  0
 26 25  1  0  0  0  0
 28 27  2  0  0  0  0
 28 26  1  0  0  0  0
 29 28  1  0  0  0  0
 31 29  1  0  0  0  0
 31 30  1  1  0  0  0
 32 31  1  0  0  0  0
 34 33  1  6  0  0  0
 34 32  1  0  0  0  0
 35 34  1  0  0  0  0
 36 35  1  0  0  0  0
 37 36  1  0  0  0  0
 39 37  1  0  0  0  0
 40 38  1  0  0  0  0
 40 43  1  0  0  0  0
 41 39  2  0  0  0  0
 42 39  1  0  0  0  0
 43 41  1  0  0  0  0
 44 38  1  0  0  0  0
 44 42  1  0  0  0  0
M  END
>  <MODEL>
2

>  <REMARK>
 VINA RESULT:      -9.4      1.216      1.724
  Name = 
  10 active torsions:
  status: ('A' for Active; 'I' for Inactive)
    1  A    between atoms: C_2  and  N_40
    2  A    between atoms: N_7  and  N_25
    3  A    between atoms: N_8  and  C_39
    4  A    between atoms: C_9  and  N_28
    5  A    between atoms: C_9  and  C_42
    6  A    between atoms: C_23  and  C_39
    7  A    between atoms: N_25  and  N_38
    8  A    between atoms: C_33  and  C_35
    9  A    between atoms: N_38  and  C_41
   10  A    between atoms: C_41  and  C_42
                            x       y       z     vdW  Elec       q    Type
                         _______ _______ _______ _____ _____    ______ ____

>  <TORSDO>
F 10

$$$$
=
 OpenBabel11042412203D

 44 48  0  0  1  0  0  0  0  0999 V2000
  186.5580  175.4470  136.5520 N   0  0  0  0  0  0  0  0  0  0  0  0
  183.6440  177.2160  137.7590 C   0  0  0  0  0  3  0  0  0  0  0  0
  184.3830  179.2000  138.9120 C   0  0  0  0  0  3  0  0  0  0  0  0
  185.9980  177.7410  137.9530 C   0  0  0  0  0  0  0  0  0  0  0  0
  187.3330  177.4080  137.6830 C   0  0  0  0  0  0  0  0  0  0  0  0
  185.6760  178.8700  138.6450 N   0  0  0  0  0  0  0  0  0  0  0  0
  184.9760  176.8930  137.4970 C   0  0  0  0  0  0  0  0  0  0  0  0
  187.6060  176.2100  136.9750 C   0  0  0  0  0  0  0  0  0  0  0  0
  183.3420  178.3770  138.4730 C   0  0  0  0  0  3  0  0  0  0  0  0
  185.2900  175.7720  136.8030 N   0  0  0  0  0  0  0  0  0  0  0  0
  191.7690  174.2480  136.2980 C   0  0  0  0  0  0  0  0  0  0  0  0
  190.7290  173.9670  137.0770 C   0  0  0  0  0  3  0  0  0  0  0  0
  189.7010  176.5100  135.6240 C   0  0  0  0  0  3  0  0  0  0  0  0
  189.4450  174.6460  137.2360 C   0  0  0  0  0  3  0  0  0  0  0  0
  191.8430  175.3280  135.4120 O   0  0  0  0  0  0  0  0  0  0  0  0
  188.9790  175.7460  136.6480 C   0  0  0  0  0  0  0  0  0  0  0  0
  190.9120  176.3250  135.1110 C   0  0  0  0  0  3  0  0  0  0  0  0
  194.9820  172.6140  137.1670 N   0  0  0  0  0  0  0  0  0  0  0  0
  196.1900  172.7260  137.8780 N   0  0  0  0  0  2  0  0  0  0  0  0
  194.3280  174.8340  137.9270 C   0  0  0  0  0  2  0  0  0  0  0  0
  195.2890  174.6210  139.0920 C   0  0  0  0  0  2  0  0  0  0  0  0
  194.0770  173.5480  137.1790 C   0  0  0  0  0  0  0  0  0  0  0  0
  196.5510  173.9560  138.5720 C   0  0  0  0  0  2  0  0  0  0  0  0
  192.8880  173.3580  136.4010 N   0  0  0  0  0  2  0  0  0  0  0  0
  188.4270  178.3300  138.1340 C   0  0  0  0  0  2  0  0  0  0  0  0
  189.0040  177.8280  139.3720 N   0  0  0  0  0  2  0  0  0  0  0  0
  187.7360  179.2290  140.7400 O   0  0  0  0  0  0  0  0  0  0  0  0
  188.6260  178.3420  140.6500 C   0  0  0  0  0  0  0  0  0  0  0  0
  189.2660  177.8690  141.8400 N   0  0  0  0  0  2  0  0  0  0  0  0
  191.6670  177.4560  141.5710 C   0  0  0  0  0  1  0  0  0  0  0  0
  190.3100  176.8460  141.8710 C   0  0  1  0  0  3  0  0  0  0  0  0
  190.3440  176.1180  143.2110 C   0  0  0  0  0  2  0  0  0  0  0  0
  191.6830  176.0540  145.2880 C   0  0  0  0  0  1  0  0  0  0  0  0
  190.9960  176.9640  144.2930 C   0  0  2  0  0  3  0  0  0  0  0  0
  189.9890  177.7540  144.9830 N   0  0  0  0  0  2  0  0  0  0  0  0
  188.9380  176.8830  145.2990 N   0  0  0  0  0  2  0  0  0  0  0  0
  187.9930  177.6330  146.0100 N   0  0  0  0  0  2  0  0  0  0  0  0
  184.3490  178.2570  143.5360 O   0  0  0  0  0  0  0  0  0  0  0  0
  186.7010  177.8840  145.4620 C   0  0  0  0  0  0  0  0  0  0  0  0
  184.2740  179.3290  144.4280 C   0  0  0  0  0  2  0  0  0  0  0  0
  185.8470  178.5660  146.1700 N   0  0  0  0  0  0  0  0  0  0  0  0
  186.3950  177.3870  144.1880 O   0  0  0  0  0  0  0  0  0  0  0  0
  184.4420  178.8030  145.8430 C   0  0  0  0  0  2  0  0  0  0  0  0
  185.7020  178.1520  143.2080 C   0  0  0  0  0  2  0  0  0  0  0  0
  1 10  2  0  0  0  0
  1  8  1  0  0  0  0
  2  9  1  0  0  0  0
  4  6  2  0  0  0  0
  5  4  1  0  0  0  0
  5 25  1  0  0  0  0
  6  3  1  0  0  0  0
  7  2  2  0  0  0  0
  7  4  1  0  0  0  0
  8  5  2  0  0  0  0
  9  3  2  0  0  0  0
 10  7  1  0  0  0  0
 11 24  1  0  0  0  0
 11 12  2  0  0  0  0
 12 14  1  0  0  0  0
 13 16  1  0  0  0  0
 15 11  1  0  0  0  0
 16  8  1  0  0  0  0
 16 14  2  0  0  0  0
 17 15  1  0  0  0  0
 17 13  2  0  0  0  0
 18 22  2  0  0  0  0
 18 19  1  0  0  0  0
 19 23  1  0  0  0  0
 20 21  1  0  0  0  0
 22 20  1  0  0  0  0
 23 21  1  0  0  0  0
 24 22  1  0  0  0  0
 25 26  1  0  0  0  0
 26 28  1  0  0  0  0
 28 27  2  0  0  0  0
 28 29  1  0  0  0  0
 29 31  1  0  0  0  0
 31 30  1  1  0  0  0
 31 32  1  0  0  0  0
 32 34  1  0  0  0  0
 34 35  1  0  0  0  0
 34 33  1  1  0  0  0
 35 36  1  0  0  0  0
 36 37  1  0  0  0  0
 38 40  1  0  0  0  0
 39 37  1  0  0  0  0
 39 41  2  0  0  0  0
 40 43  1  0  0  0  0
 42 39  1  0  0  0  0
 43 41  1  0  0  0  0
 44 38  1  0  0  0  0
 44 42  1  0  0  0  0
M  END
>  <MODEL>
3

>  <REMARK>
 VINA RESULT:      -9.1      3.208      9.327
  Name = 
  10 active torsions:
  status: ('A' for Active; 'I' for Inactive)
    1  A    between atoms: C_2  and  N_40
    2  A    between atoms: N_7  and  N_25
    3  A    between atoms: N_8  and  C_39
    4  A    between atoms: C_9  and  N_28
    5  A    between atoms: C_9  and  C_42
    6  A    between atoms: C_23  and  C_39
    7  A    between atoms: N_25  and  N_38
    8  A    between atoms: C_33  and  C_35
    9  A    between atoms: N_38  and  C_41
   10  A    between atoms: C_41  and  C_42
                            x       y       z     vdW  Elec       q    Type
                         _______ _______ _______ _____ _____    ______ ____

>  <TORSDO>
F 10

$$$$
=
 OpenBabel11042412203D

 44 48  0  0  1  0  0  0  0  0999 V2000
  189.1860  173.7930  136.5680 N   0  0  0  0  0  0  0  0  0  0  0  0
  192.7930  173.7630  136.8120 C   0  0  0  0  0  3  0  0  0  0  0  0
  193.5040  175.8360  137.8170 C   0  0  0  0  0  3  0  0  0  0  0  0
  191.1830  175.4430  137.4740 C   0  0  0  0  0  0  0  0  0  0  0  0
  189.8480  175.8600  137.5740 C   0  0  0  0  0  0  0  0  0  0  0  0
  192.2050  176.2320  137.9100 N   0  0  0  0  0  0  0  0  0  0  0  0
  191.4680  174.1870  136.9140 C   0  0  0  0  0  0  0  0  0  0  0  0
  188.8290  175.0040  137.0840 C   0  0  0  0  0  0  0  0  0  0  0  0
  193.8210  174.5920  137.2650 C   0  0  0  0  0  3  0  0  0  0  0  0
  190.4560  173.3970  136.4840 N   0  0  0  0  0  0  0  0  0  0  0  0
  184.4840  176.6630  137.0610 C   0  0  0  0  0  0  0  0  0  0  0  0
  185.6880  177.2230  137.0040 C   0  0  0  0  0  3  0  0  0  0  0  0
  186.4480  174.2180  137.1820 C   0  0  0  0  0  3  0  0  0  0  0  0
  187.0210  176.6230  137.0230 C   0  0  0  0  0  3  0  0  0  0  0  0
  184.2380  175.2880  137.1560 O   0  0  0  0  0  0  0  0  0  0  0  0
  187.3840  175.3460  137.1190 C   0  0  0  0  0  0  0  0  0  0  0  0
  185.1200  174.2070  137.1990 C   0  0  0  0  0  3  0  0  0  0  0  0
  181.6200  178.8590  137.9090 N   0  0  0  0  0  0  0  0  0  0  0  0
  180.7790  179.3330  138.9320 N   0  0  0  0  0  2  0  0  0  0  0  0
  182.7950  177.4610  139.5220 C   0  0  0  0  0  2  0  0  0  0  0  0
  182.3040  178.4330  140.5880 C   0  0  0  0  0  2  0  0  0  0  0  0
  182.5830  178.0140  138.1340 C   0  0  0  0  0  0  0  0  0  0  0  0
  180.8620  178.8050  140.2890 C   0  0  0  0  0  2  0  0  0  0  0  0
  183.3710  177.5650  137.0230 N   0  0  0  0  0  2  0  0  0  0  0  0
  189.5360  177.1840  138.2050 C   0  0  0  0  0  2  0  0  0  0  0  0
  189.7270  177.0920  139.6440 N   0  0  0  0  0  2  0  0  0  0  0  0
  188.0250  178.6060  140.1460 O   0  0  0  0  0  0  0  0  0  0  0  0
  188.9440  177.8540  140.5650 C   0  0  0  0  0  0  0  0  0  0  0  0
  189.2080  177.7870  141.9700 N   0  0  0  0  0  2  0  0  0  0  0  0
  191.5820  177.6680  142.5650 C   0  0  0  0  0  1  0  0  0  0  0  0
  190.2420  176.9560  142.5820 C   0  0  1  0  0  3  0  0  0  0  0  0
  189.8750  176.5590  144.0090 C   0  0  0  0  0  2  0  0  0  0  0  0
  191.4140  176.6190  145.9430 C   0  0  0  0  0  1  0  0  0  0  0  0
  190.5470  177.4610  145.0320 C   0  0  2  0  0  3  0  0  0  0  0  0
  189.5420  178.1470  145.8280 N   0  0  0  0  0  2  0  0  0  0  0  0
  188.5260  177.2180  146.0850 N   0  0  0  0  0  2  0  0  0  0  0  0
  187.4010  177.9510  146.4840 N   0  0  0  0  0  2  0  0  0  0  0  0
  184.4770  178.2160  143.1420 O   0  0  0  0  0  0  0  0  0  0  0  0
  186.2800  178.0940  145.6150 C   0  0  0  0  0  0  0  0  0  0  0  0
  184.1330  179.3310  143.9090 C   0  0  0  0  0  2  0  0  0  0  0  0
  185.2460  178.7630  146.0380 N   0  0  0  0  0  0  0  0  0  0  0  0
  186.3270  177.5070  144.3430 O   0  0  0  0  0  0  0  0  0  0  0  0
  183.9610  178.8980  145.3550 C   0  0  0  0  0  2  0  0  0  0  0  0
  185.8720  178.1720  143.1690 C   0  0  0  0  0  2  0  0  0  0  0  0
  1  8  1  0  0  0  0
  2  7  2  0  0  0  0
  2  9  1  0  0  0  0
  3  6  1  0  0  0  0
  4  5  1  0  0  0  0
  4  6  2  0  0  0  0
  5 25  1  0  0  0  0
  7  4  1  0  0  0  0
  8 16  1  0  0  0  0
  8  5  2  0  0  0  0
  9  3  2  0  0  0  0
 10  1  2  0  0  0  0
 10  7  1  0  0  0  0
 11 15  1  0  0  0  0
 12 14  1  0  0  0  0
 12 11  2  0  0  0  0
 13 17  2  0  0  0  0
 14 16  2  0  0  0  0
 15 17  1  0  0  0  0
 16 13  1  0  0  0  0
 18 22  2  0  0  0  0
 18 19  1  0  0  0  0
 19 23  1  0  0  0  0
 20 21  1  0  0  0  0
 22 20  1  0  0  0  0
 23 21  1  0  0  0  0
 24 11  1  0  0  0  0
 24 22  1  0  0  0  0
 25 26  1  0  0  0  0
 26 28  1  0  0  0  0
 27 28  2  0  0  0  0
 28 29  1  0  0  0  0
 29 31  1  0  0  0  0
 31 30  1  1  0  0  0
 31 32  1  0  0  0  0
 32 34  1  0  0  0  0
 34 35  1  0  0  0  0
 34 33  1  1  0  0  0
 35 36  1  0  0  0  0
 36 37  1  0  0  0  0
 38 44  1  0  0  0  0
 38 40  1  0  0  0  0
 39 41  2  0  0  0  0
 39 37  1  0  0  0  0
 40 43  1  0  0  0  0
 42 39  1  0  0  0  0
 43 41  1  0  0  0  0
 44 42  1  0  0  0  0
M  END
>  <MODEL>
4

>  <REMARK>
 VINA RESULT:      -8.9      2.264      7.356
  Name = 
  10 active torsions:
  status: ('A' for Active; 'I' for Inactive)
    1  A    between atoms: C_2  and  N_40
    2  A    between atoms: N_7  and  N_25
    3  A    between atoms: N_8  and  C_39
    4  A    between atoms: C_9  and  N_28
    5  A    between atoms: C_9  and  C_42
    6  A    between atoms: C_23  and  C_39
    7  A    between atoms: N_25  and  N_38
    8  A    between atoms: C_33  and  C_35
    9  A    between atoms: N_38  and  C_41
   10  A    between atoms: C_41  and  C_42
                            x       y       z     vdW  Elec       q    Type
                         _______ _______ _______ _____ _____    ______ ____

>  <TORSDO>
F 10

$$$$
=
 OpenBabel11042412203D

 44 48  0  0  1  0  0  0  0  0999 V2000
  183.5310  178.5520  144.0420 N   0  0  0  0  0  0  0  0  0  0  0  0
  180.0400  179.2130  143.3700 C   0  0  0  0  0  3  0  0  0  0  0  0
  179.7470  179.3970  140.9830 C   0  0  0  0  0  3  0  0  0  0  0  0
  181.9140  178.9590  141.8610 C   0  0  0  0  0  0  0  0  0  0  0  0
  183.2830  178.7210  141.6690 C   0  0  0  0  0  0  0  0  0  0  0  0
  181.0770  179.1660  140.8060 N   0  0  0  0  0  0  0  0  0  0  0  0
  181.4000  178.9800  143.1680 C   0  0  0  0  0  0  0  0  0  0  0  0
  184.1070  178.5320  142.8060 C   0  0  0  0  0  0  0  0  0  0  0  0
  179.2050  179.4250  142.2710 C   0  0  0  0  0  3  0  0  0  0  0  0
  182.2270  178.7680  144.2200 N   0  0  0  0  0  0  0  0  0  0  0  0
  188.6090  177.3810  143.0380 C   0  0  0  0  0  0  0  0  0  0  0  0
  187.5490  177.1290  143.7990 C   0  0  0  0  0  3  0  0  0  0  0  0
  186.2630  178.8560  141.5630 C   0  0  0  0  0  3  0  0  0  0  0  0
  186.1520  177.5380  143.6580 C   0  0  0  0  0  3  0  0  0  0  0  0
  188.5940  178.1440  141.8640 O   0  0  0  0  0  0  0  0  0  0  0  0
  185.5720  178.2920  142.7270 C   0  0  0  0  0  0  0  0  0  0  0  0
  187.5420  178.7880  141.2100 C   0  0  0  0  0  3  0  0  0  0  0  0
  191.4880  176.1880  145.0450 N   0  0  0  0  0  0  0  0  0  0  0  0
  192.0630  176.1140  146.3270 N   0  0  0  0  0  2  0  0  0  0  0  0
  189.6060  177.4370  145.9610 C   0  0  0  0  0  2  0  0  0  0  0  0
  189.9520  176.8000  147.3020 C   0  0  0  0  0  2  0  0  0  0  0  0
  190.3430  176.7650  144.8280 C   0  0  0  0  0  0  0  0  0  0  0  0
  191.4610  176.7910  147.4690 C   0  0  0  0  0  2  0  0  0  0  0  0
  189.8490  176.8180  143.4830 N   0  0  0  0  0  2  0  0  0  0  0  0
  183.8300  178.6600  140.2740 C   0  0  0  0  0  2  0  0  0  0  0  0
  183.2710  177.5070  139.5840 N   0  0  0  0  0  2  0  0  0  0  0  0
  182.6470  178.7190  137.6900 O   0  0  0  0  0  0  0  0  0  0  0  0
  182.6700  177.6120  138.2920 C   0  0  0  0  0  0  0  0  0  0  0  0
  182.0720  176.4670  137.6750 N   0  0  0  0  0  2  0  0  0  0  0  0
  180.8430  174.9910  139.1960 C   0  0  0  0  0  1  0  0  0  0  0  0
  182.0330  175.1310  138.2660 C   0  0  1  0  0  3  0  0  0  0  0  0
  181.9970  174.0440  137.1970 C   0  0  0  0  0  2  0  0  0  0  0  0
  183.5730  172.1410  137.0980 C   0  0  0  0  0  1  0  0  0  0  0  0
  183.3960  173.6120  136.7880 C   0  0  2  0  0  3  0  0  0  0  0  0
  184.3890  174.3780  137.5240 N   0  0  0  0  0  2  0  0  0  0  0  0
  185.1730  175.0440  136.5730 N   0  0  0  0  0  2  0  0  0  0  0  0
  186.4950  174.9940  137.0340 N   0  0  0  0  0  2  0  0  0  0  0  0
  188.1070  179.1100  137.5320 O   0  0  0  0  0  0  0  0  0  0  0  0
  187.1980  176.1900  137.3620 C   0  0  0  0  0  0  0  0  0  0  0  0
  189.2770  178.3640  137.3730 C   0  0  0  0  0  2  0  0  0  0  0  0
  188.4160  176.0920  137.8100 N   0  0  0  0  0  0  0  0  0  0  0  0
  186.5540  177.4230  137.1950 O   0  0  0  0  0  0  0  0  0  0  0  0
  189.2410  177.1830  138.3270 C   0  0  0  0  0  2  0  0  0  0  0  0
  187.1980  178.5590  136.6270 C   0  0  0  0  0  2  0  0  0  0  0  0
  1 10  1  0  0  0  0
  3  9  1  0  0  0  0
  4  7  1  0  0  0  0
  5  4  2  0  0  0  0
  5  8  1  0  0  0  0
  6  3  2  0  0  0  0
  6  4  1  0  0  0  0
  7  2  1  0  0  0  0
  7 10  2  0  0  0  0
  8  1  2  0  0  0  0
  9  2  2  0  0  0  0
 11 24  1  0  0  0  0
 11 12  2  0  0  0  0
 13 16  1  0  0  0  0
 14 12  1  0  0  0  0
 15 11  1  0  0  0  0
 16  8  1  0  0  0  0
 16 14  2  0  0  0  0
 17 13  2  0  0  0  0
 17 15  1  0  0  0  0
 18 19  1  0  0  0  0
 19 23  1  0  0  0  0
 20 21  1  0  0  0  0
 21 23  1  0  0  0  0
 22 18  2  0  0  0  0
 22 20  1  0  0  0  0
 24 22  1  0  0  0  0
 25  5  1  0  0  0  0
 26 25  1  0  0  0  0
 27 28  2  0  0  0  0
 28 26  1  0  0  0  0
 29 31  1  0  0  0  0
 29 28  1  0  0  0  0
 31 30  1  1  0  0  0
 32 31  1  0  0  0  0
 34 33  1  1  0  0  0
 34 32  1  0  0  0  0
 34 35  1  0  0  0  0
 36 37  1  0  0  0  0
 36 35  1  0  0  0  0
 37 39  1  0  0  0  0
 39 41  2  0  0  0  0
 40 38  1  0  0  0  0
 40 43  1  0  0  0  0
 41 43  1  0  0  0  0
 42 39  1  0  0  0  0
 44 42  1  0  0  0  0
 44 38  1  0  0  0  0
M  END
>  <MODEL>
5

>  <REMARK>
 VINA RESULT:      -8.8      2.257      8.003
  Name = 
  10 active torsions:
  status: ('A' for Active; 'I' for Inactive)
    1  A    between atoms: C_2  and  N_40
    2  A    between atoms: N_7  and  N_25
    3  A    between atoms: N_8  and  C_39
    4  A    between atoms: C_9  and  N_28
    5  A    between atoms: C_9  and  C_42
    6  A    between atoms: C_23  and  C_39
    7  A    between atoms: N_25  and  N_38
    8  A    between atoms: C_33  and  C_35
    9  A    between atoms: N_38  and  C_41
   10  A    between atoms: C_41  and  C_42
                            x       y       z     vdW  Elec       q    Type
                         _______ _______ _______ _____ _____    ______ ____

>  <TORSDO>
F 10

$$$$
=
 OpenBabel11042412203D

 44 48  0  0  1  0  0  0  0  0999 V2000
  189.5180  176.3430  142.3380 N   0  0  0  0  0  0  0  0  0  0  0  0
  186.4370  177.5130  143.8260 C   0  0  0  0  0  3  0  0  0  0  0  0
  185.4670  179.1670  142.3640 C   0  0  0  0  0  3  0  0  0  0  0  0
  187.5190  178.1310  141.7520 C   0  0  0  0  0  0  0  0  0  0  0  0
  188.5860  177.9730  140.8560 C   0  0  0  0  0  0  0  0  0  0  0  0
  186.5070  179.0080  141.5000 N   0  0  0  0  0  0  0  0  0  0  0  0
  187.4960  177.3660  142.9290 C   0  0  0  0  0  0  0  0  0  0  0  0
  189.6200  177.0600  141.1820 C   0  0  0  0  0  0  0  0  0  0  0  0
  185.4140  178.4210  143.5450 C   0  0  0  0  0  3  0  0  0  0  0  0
  188.4970  176.4890  143.1820 N   0  0  0  0  0  0  0  0  0  0  0  0
  192.9400  176.0470  138.0850 C   0  0  0  0  0  0  0  0  0  0  0  0
  191.6550  175.7260  138.2030 C   0  0  0  0  0  3  0  0  0  0  0  0
  192.0480  177.5010  140.7200 C   0  0  0  0  0  3  0  0  0  0  0  0
  190.6710  176.0860  139.2230 C   0  0  0  0  0  3  0  0  0  0  0  0
  193.6550  176.8520  138.9800 O   0  0  0  0  0  0  0  0  0  0  0  0
  190.8080  176.8240  140.3220 C   0  0  0  0  0  0  0  0  0  0  0  0
  193.2450  177.5030  140.1460 C   0  0  0  0  0  3  0  0  0  0  0  0
  195.0600  174.0560  135.7870 N   0  0  0  0  0  0  0  0  0  0  0  0
  196.0110  173.0240  135.6790 N   0  0  0  0  0  2  0  0  0  0  0  0
  195.0400  173.7840  138.2080 C   0  0  0  0  0  2  0  0  0  0  0  0
  195.5390  172.3640  137.9640 C   0  0  0  0  0  2  0  0  0  0  0  0
  194.5610  174.4260  136.9290 C   0  0  0  0  0  0  0  0  0  0  0  0
  196.5830  172.3930  136.8620 C   0  0  0  0  0  2  0  0  0  0  0  0
  193.6190  175.5070  136.9450 N   0  0  0  0  0  2  0  0  0  0  0  0
  188.5970  178.7600  139.5790 C   0  0  0  0  0  2  0  0  0  0  0  0
  187.9480  177.9900  138.5290 N   0  0  0  0  0  2  0  0  0  0  0  0
  189.3620  178.7630  136.8430 O   0  0  0  0  0  0  0  0  0  0  0  0
  188.3710  178.0550  137.1670 C   0  0  0  0  0  0  0  0  0  0  0  0
  187.6640  177.3340  136.1520 N   0  0  0  0  0  2  0  0  0  0  0  0
  185.2540  177.0870  135.7850 C   0  0  0  0  0  1  0  0  0  0  0  0
  186.5040  176.4800  136.3970 C   0  0  1  0  0  3  0  0  0  0  0  0
  186.7200  175.0680  135.8610 C   0  0  0  0  0  2  0  0  0  0  0  0
  188.7880  173.9050  136.5580 C   0  0  0  0  0  1  0  0  0  0  0  0
  187.3380  174.1580  136.9110 C   0  0  2  0  0  3  0  0  0  0  0  0
  186.6270  172.8910  136.9530 N   0  0  0  0  0  2  0  0  0  0  0  0
  185.6670  172.9980  137.9670 N   0  0  0  0  0  2  0  0  0  0  0  0
  184.4250  172.7330  137.3770 N   0  0  0  0  0  2  0  0  0  0  0  0
  181.6590  176.1590  138.0090 O   0  0  0  0  0  0  0  0  0  0  0  0
  183.3990  173.7220  137.3630 C   0  0  0  0  0  0  0  0  0  0  0  0
  180.7650  175.1060  137.8060 C   0  0  0  0  0  2  0  0  0  0  0  0
  182.2700  173.4390  136.7800 N   0  0  0  0  0  0  0  0  0  0  0  0
  183.6430  174.9620  137.9700 O   0  0  0  0  0  0  0  0  0  0  0  0
  181.1610  174.3620  136.5420 C   0  0  0  0  0  2  0  0  0  0  0  0
  182.6840  175.6200  138.7900 C   0  0  0  0  0  2  0  0  0  0  0  0
  1 10  1  0  0  0  0
  3  9  1  0  0  0  0
  4  7  1  0  0  0  0
  5  8  1  0  0  0  0
  5  4  2  0  0  0  0
  6  4  1  0  0  0  0
  6  3  2  0  0  0  0
  7 10  2  0  0  0  0
  7  2  1  0  0  0  0
  8  1  2  0  0  0  0
  9  2  2  0  0  0  0
 11 12  2  0  0  0  0
 11 15  1  0  0  0  0
 12 14  1  0  0  0  0
 14 16  2  0  0  0  0
 15 17  1  0  0  0  0
 16 13  1  0  0  0  0
 16  8  1  0  0  0  0
 17 13  2  0  0  0  0
 18 22  2  0  0  0  0
 19 18  1  0  0  0  0
 19 23  1  0  0  0  0
 21 20  1  0  0  0  0
 22 24  1  0  0  0  0
 22 20  1  0  0  0  0
 23 21  1  0  0  0  0
 24 11  1  0  0  0  0
 25  5  1  0  0  0  0
 26 25  1  0  0  0  0
 27 28  2  0  0  0  0
 28 26  1  0  0  0  0
 29 31  1  0  0  0  0
 29 28  1  0  0  0  0
 31 30  1  6  0  0  0
 32 31  1  0  0  0  0
 32 34  1  0  0  0  0
 34 33  1  6  0  0  0
 34 35  1  0  0  0  0
 35 36  1  0  0  0  0
 37 36  1  0  0  0  0
 38 44  1  0  0  0  0
 39 37  1  0  0  0  0
 39 42  1  0  0  0  0
 40 38  1  0  0  0  0
 41 39  2  0  0  0  0
 42 44  1  0  0  0  0
 43 41  1  0  0  0  0
 43 40  1  0  0  0  0
M  END
>  <MODEL>
6

>  <REMARK>
 VINA RESULT:      -8.7      3.450      8.580
  Name = 
  10 active torsions:
  status: ('A' for Active; 'I' for Inactive)
    1  A    between atoms: C_2  and  N_40
    2  A    between atoms: N_7  and  N_25
    3  A    between atoms: N_8  and  C_39
    4  A    between atoms: C_9  and  N_28
    5  A    between atoms: C_9  and  C_42
    6  A    between atoms: C_23  and  C_39
    7  A    between atoms: N_25  and  N_38
    8  A    between atoms: C_33  and  C_35
    9  A    between atoms: N_38  and  C_41
   10  A    between atoms: C_41  and  C_42
                            x       y       z     vdW  Elec       q    Type
                         _______ _______ _______ _____ _____    ______ ____

>  <TORSDO>
F 10

$$$$
=
 OpenBabel11042412203D

 44 48  0  0  1  0  0  0  0  0999 V2000
  189.2340  173.0560  136.9200 N   0  0  0  0  0  0  0  0  0  0  0  0
  185.6580  172.5290  136.8180 C   0  0  0  0  0  3  0  0  0  0  0  0
  184.5700  174.6800  136.8790 C   0  0  0  0  0  3  0  0  0  0  0  0
  186.9460  174.5740  136.9260 C   0  0  0  0  0  0  0  0  0  0  0  0
  188.1950  175.2100  136.9760 C   0  0  0  0  0  0  0  0  0  0  0  0
  185.7860  175.2900  136.9280 N   0  0  0  0  0  0  0  0  0  0  0  0
  186.8950  173.1710  136.8700 C   0  0  0  0  0  0  0  0  0  0  0  0
  189.3660  174.4120  136.9910 C   0  0  0  0  0  0  0  0  0  0  0  0
  184.4850  173.2860  136.8240 C   0  0  0  0  0  3  0  0  0  0  0  0
  188.0450  172.4560  136.8620 N   0  0  0  0  0  0  0  0  0  0  0  0
  193.7230  175.9950  136.6100 C   0  0  0  0  0  0  0  0  0  0  0  0
  192.9280  175.2750  135.8250 C   0  0  0  0  0  3  0  0  0  0  0  0
  191.0690  175.7430  138.2670 C   0  0  0  0  0  3  0  0  0  0  0  0
  191.5570  174.8090  136.0240 C   0  0  0  0  0  3  0  0  0  0  0  0
  193.3770  176.4860  137.8740 O   0  0  0  0  0  0  0  0  0  0  0  0
  190.7400  174.9720  137.0620 C   0  0  0  0  0  0  0  0  0  0  0  0
  192.1880  176.3770  138.5990 C   0  0  0  0  0  3  0  0  0  0  0  0
  197.3290  175.9110  135.7550 N   0  0  0  0  0  0  0  0  0  0  0  0
  198.5580  175.2540  135.9510 N   0  0  0  0  0  2  0  0  0  0  0  0
  196.2520  174.3590  137.2930 C   0  0  0  0  0  2  0  0  0  0  0  0
  197.3860  173.3920  136.9710 C   0  0  0  0  0  2  0  0  0  0  0  0
  196.2310  175.5210  136.3310 C   0  0  0  0  0  0  0  0  0  0  0  0
  198.6920  174.1660  136.9130 C   0  0  0  0  0  2  0  0  0  0  0  0
  195.0320  176.2700  136.0940 N   0  0  0  0  0  2  0  0  0  0  0  0
  188.2560  176.7090  136.9970 C   0  0  0  0  0  2  0  0  0  0  0  0
  187.8300  177.1940  138.3010 N   0  0  0  0  0  2  0  0  0  0  0  0
  186.3620  178.7830  137.4280 O   0  0  0  0  0  0  0  0  0  0  0  0
  186.8880  178.2580  138.4460 C   0  0  0  0  0  0  0  0  0  0  0  0
  186.5450  178.7510  139.7450 N   0  0  0  0  0  2  0  0  0  0  0  0
  188.5910  178.3850  141.0420 C   0  0  0  0  0  1  0  0  0  0  0  0
  187.0820  178.2290  141.0000 C   0  0  1  0  0  3  0  0  0  0  0  0
  186.4480  178.9090  142.2090 C   0  0  0  0  0  2  0  0  0  0  0  0
  184.6400  178.6290  143.8720 C   0  0  0  0  0  1  0  0  0  0  0  0
  185.7250  177.9100  143.0990 C   0  0  2  0  0  3  0  0  0  0  0  0
  186.6600  177.3070  144.0340 N   0  0  0  0  0  2  0  0  0  0  0  0
  186.7440  178.1690  145.1350 N   0  0  0  0  0  2  0  0  0  0  0  0
  187.4380  177.4780  146.1360 N   0  0  0  0  0  2  0  0  0  0  0  0
  191.8030  177.5050  145.2790 O   0  0  0  0  0  0  0  0  0  0  0  0
  188.8630  177.4300  146.1340 C   0  0  0  0  0  0  0  0  0  0  0  0
  191.6800  176.3780  146.0940 C   0  0  0  0  0  2  0  0  0  0  0  0
  189.4650  176.7970  147.0990 N   0  0  0  0  0  0  0  0  0  0  0  0
  189.5620  178.0670  145.1000 O   0  0  0  0  0  0  0  0  0  0  0  0
  190.9050  176.7570  147.3440 C   0  0  0  0  0  2  0  0  0  0  0  0
  190.6810  177.4770  144.4480 C   0  0  0  0  0  2  0  0  0  0  0  0
  1  8  1  0  0  0  0
  2  9  2  0  0  0  0
  2  7  1  0  0  0  0
  3  6  2  0  0  0  0
  4  6  1  0  0  0  0
  4  5  1  0  0  0  0
  5  8  2  0  0  0  0
  5 25  1  0  0  0  0
  7  4  2  0  0  0  0
  8 16  1  0  0  0  0
  9  3  1  0  0  0  0
 10  7  1  0  0  0  0
 10  1  2  0  0  0  0
 11 15  1  0  0  0  0
 12 14  1  0  0  0  0
 12 11  2  0  0  0  0
 13 17  2  0  0  0  0
 14 16  2  0  0  0  0
 15 17  1  0  0  0  0
 16 13  1  0  0  0  0
 18 19  1  0  0  0  0
 18 22  2  0  0  0  0
 19 23  1  0  0  0  0
 21 20  1  0  0  0  0
 22 20  1  0  0  0  0
 23 21  1  0  0  0  0
 24 22  1  0  0  0  0
 24 11  1  0  0  0  0
 25 26  1  0  0  0  0
 26 28  1  0  0  0  0
 27 28  2  0  0  0  0
 28 29  1  0  0  0  0
 29 31  1  0  0  0  0
 31 30  1  6  0  0  0
 31 32  1  0  0  0  0
 32 34  1  0  0  0  0
 34 33  1  1  0  0  0
 34 35  1  0  0  0  0
 35 36  1  0  0  0  0
 36 37  1  0  0  0  0
 38 40  1  0  0  0  0
 39 37  1  0  0  0  0
 39 41  2  0  0  0  0
 40 43  1  0  0  0  0
 41 43  1  0  0  0  0
 42 39  1  0  0  0  0
 44 42  1  0  0  0  0
 44 38  1  0  0  0  0
M  END
>  <MODEL>
7

>  <REMARK>
 VINA RESULT:      -8.7      3.919     10.770
  Name = 
  10 active torsions:
  status: ('A' for Active; 'I' for Inactive)
    1  A    between atoms: C_2  and  N_40
    2  A    between atoms: N_7  and  N_25
    3  A    between atoms: N_8  and  C_39
    4  A    between atoms: C_9  and  N_28
    5  A    between atoms: C_9  and  C_42
    6  A    between atoms: C_23  and  C_39
    7  A    between atoms: N_25  and  N_38
    8  A    between atoms: C_33  and  C_35
    9  A    between atoms: N_38  and  C_41
   10  A    between atoms: C_41  and  C_42
                            x       y       z     vdW  Elec       q    Type
                         _______ _______ _______ _____ _____    ______ ____

>  <TORSDO>
F 10

$$$$
=
 OpenBabel11042412203D

 44 48  0  0  1  0  0  0  0  0999 V2000
  187.1020  177.0590  144.3270 N   0  0  0  0  0  0  0  0  0  0  0  0
  190.6380  176.4080  143.9380 C   0  0  0  0  0  3  0  0  0  0  0  0
  191.3950  177.5000  141.9260 C   0  0  0  0  0  3  0  0  0  0  0  0
  189.1090  177.6800  142.5590 C   0  0  0  0  0  0  0  0  0  0  0  0
  187.8130  178.1620  142.3260 C   0  0  0  0  0  0  0  0  0  0  0  0
  190.1340  177.9640  141.7070 N   0  0  0  0  0  0  0  0  0  0  0  0
  189.3520  176.8910  143.6960 C   0  0  0  0  0  0  0  0  0  0  0  0
  186.7840  177.8180  143.2380 C   0  0  0  0  0  0  0  0  0  0  0  0
  191.6690  176.7120  143.0470 C   0  0  0  0  0  3  0  0  0  0  0  0
  188.3370  176.6110  144.5490 N   0  0  0  0  0  0  0  0  0  0  0  0
  182.3650  178.8520  142.2200 C   0  0  0  0  0  0  0  0  0  0  0  0
  183.3500  178.2510  141.5600 C   0  0  0  0  0  3  0  0  0  0  0  0
  184.7620  178.9130  144.2440 C   0  0  0  0  0  3  0  0  0  0  0  0
  184.7280  177.9670  141.9550 C   0  0  0  0  0  3  0  0  0  0  0  0
  182.4620  179.3690  143.5170 O   0  0  0  0  0  0  0  0  0  0  0  0
  185.3720  178.2530  143.0840 C   0  0  0  0  0  0  0  0  0  0  0  0
  183.5310  179.3820  144.4140 C   0  0  0  0  0  3  0  0  0  0  0  0
  179.7190  179.3630  139.6730 N   0  0  0  0  0  0  0  0  0  0  0  0
  179.4370  179.7350  138.3460 N   0  0  0  0  0  2  0  0  0  0  0  0
  182.0910  179.7610  139.2800 C   0  0  0  0  0  2  0  0  0  0  0  0
  181.7920  179.5420  137.8010 C   0  0  0  0  0  2  0  0  0  0  0  0
  180.9310  179.3330  140.1450 C   0  0  0  0  0  0  0  0  0  0  0  0
  180.4810  180.2290  137.4570 C   0  0  0  0  0  2  0  0  0  0  0  0
  181.1200  178.9690  141.5190 N   0  0  0  0  0  2  0  0  0  0  0  0
  187.5580  179.0370  141.1350 C   0  0  0  0  0  2  0  0  0  0  0  0
  187.2510  178.2060  139.9800 N   0  0  0  0  0  2  0  0  0  0  0  0
  189.0360  179.0030  138.7080 O   0  0  0  0  0  0  0  0  0  0  0  0
  188.0240  178.2560  138.7810 C   0  0  0  0  0  0  0  0  0  0  0  0
  187.6500  177.4720  137.6430 N   0  0  0  0  0  2  0  0  0  0  0  0
  185.2180  177.3430  137.3700 C   0  0  0  0  0  1  0  0  0  0  0  0
  186.5030  176.5680  137.5990 C   0  0  1  0  0  3  0  0  0  0  0  0
  186.6710  175.4970  136.5250 C   0  0  0  0  0  2  0  0  0  0  0  0
  188.4610  175.9450  134.8790 C   0  0  0  0  0  1  0  0  0  0  0  0
  188.1360  175.2630  136.1910 C   0  0  2  0  0  3  0  0  0  0  0  0
  188.3970  173.8380  136.0670 N   0  0  0  0  0  2  0  0  0  0  0  0
  189.1050  173.4550  137.2140 N   0  0  0  0  0  2  0  0  0  0  0  0
  190.4540  173.3780  136.8480 N   0  0  0  0  0  2  0  0  0  0  0  0
  192.7520  176.6860  138.7370 O   0  0  0  0  0  0  0  0  0  0  0  0
  191.4120  174.2750  137.4040 C   0  0  0  0  0  0  0  0  0  0  0  0
  193.5540  176.3750  137.6380 C   0  0  0  0  0  2  0  0  0  0  0  0
  192.6600  174.1500  137.0530 N   0  0  0  0  0  0  0  0  0  0  0  0
  190.9810  175.2540  138.3090 O   0  0  0  0  0  0  0  0  0  0  0  0
  193.7970  174.8750  137.6150 C   0  0  0  0  0  2  0  0  0  0  0  0
  191.4400  176.6010  138.2660 C   0  0  0  0  0  2  0  0  0  0  0  0
  1 10  1  0  0  0  0
  3  9  1  0  0  0  0
  4  7  1  0  0  0  0
  5  4  2  0  0  0  0
  5  8  1  0  0  0  0
  6  3  2  0  0  0  0
  6  4  1  0  0  0  0
  7  2  1  0  0  0  0
  7 10  2  0  0  0  0
  8  1  2  0  0  0  0
  9  2  2  0  0  0  0
 11 15  1  0  0  0  0
 12 14  1  0  0  0  0
 12 11  2  0  0  0  0
 13 17  2  0  0  0  0
 14 16  2  0  0  0  0
 15 17  1  0  0  0  0
 16  8  1  0  0  0  0
 16 13  1  0  0  0  0
 18 22  2  0  0  0  0
 19 18  1  0  0  0  0
 20 22  1  0  0  0  0
 21 20  1  0  0  0  0
 22 24  1  0  0  0  0
 23 21  1  0  0  0  0
 23 19  1  0  0  0  0
 24 11  1  0  0  0  0
 25  5  1  0  0  0  0
 26 25  1  0  0  0  0
 27 28  2  0  0  0  0
 28 26  1  0  0  0  0
 29 28  1  0  0  0  0
 31 30  1  6  0  0  0
 31 29  1  0  0  0  0
 32 31  1  0  0  0  0
 34 33  1  6  0  0  0
 34 32  1  0  0  0  0
 35 34  1  0  0  0  0
 35 36  1  0  0  0  0
 37 36  1  0  0  0  0
 37 39  1  0  0  0  0
 39 42  1  0  0  0  0
 40 38  1  0  0  0  0
 41 39  2  0  0  0  0
 41 43  1  0  0  0  0
 43 40  1  0  0  0  0
 44 42  1  0  0  0  0
 44 38  1  0  0  0  0
M  END
>  <MODEL>
8

>  <REMARK>
 VINA RESULT:      -8.6      2.607      5.029
  Name = 
  10 active torsions:
  status: ('A' for Active; 'I' for Inactive)
    1  A    between atoms: C_2  and  N_40
    2  A    between atoms: N_7  and  N_25
    3  A    between atoms: N_8  and  C_39
    4  A    between atoms: C_9  and  N_28
    5  A    between atoms: C_9  and  C_42
    6  A    between atoms: C_23  and  C_39
    7  A    between atoms: N_25  and  N_38
    8  A    between atoms: C_33  and  C_35
    9  A    between atoms: N_38  and  C_41
   10  A    between atoms: C_41  and  C_42
                            x       y       z     vdW  Elec       q    Type
                         _______ _______ _______ _____ _____    ______ ____

>  <TORSDO>
F 10

$$$$
=
 OpenBabel11042412203D

 44 48  0  0  1  0  0  0  0  0999 V2000
  187.0470  177.2670  144.3720 N   0  0  0  0  0  0  0  0  0  0  0  0
  190.6060  176.6580  144.1750 C   0  0  0  0  0  3  0  0  0  0  0  0
  191.4060  177.5040  142.0630 C   0  0  0  0  0  3  0  0  0  0  0  0
  189.0970  177.7070  142.6000 C   0  0  0  0  0  0  0  0  0  0  0  0
  187.8000  178.1240  142.2700 C   0  0  0  0  0  0  0  0  0  0  0  0
  190.1430  177.9050  141.7500 N   0  0  0  0  0  0  0  0  0  0  0  0
  189.3190  177.0750  143.8350 C   0  0  0  0  0  0  0  0  0  0  0  0
  186.7490  177.8730  143.1870 C   0  0  0  0  0  0  0  0  0  0  0  0
  191.6590  176.8710  143.2840 C   0  0  0  0  0  3  0  0  0  0  0  0
  188.2830  176.8810  144.6870 N   0  0  0  0  0  0  0  0  0  0  0  0
  182.3530  178.6810  141.8990 C   0  0  0  0  0  0  0  0  0  0  0  0
  183.3810  178.0540  141.3370 C   0  0  0  0  0  3  0  0  0  0  0  0
  184.6570  178.9920  144.0080 C   0  0  0  0  0  3  0  0  0  0  0  0
  184.7480  177.8470  141.8120 C   0  0  0  0  0  3  0  0  0  0  0  0
  182.3790  179.3130  143.1480 O   0  0  0  0  0  0  0  0  0  0  0  0
  185.3340  178.2510  142.9370 C   0  0  0  0  0  0  0  0  0  0  0  0
  183.4080  179.4370  144.0840 C   0  0  0  0  0  3  0  0  0  0  0  0
  179.6980  179.3450  139.3980 N   0  0  0  0  0  0  0  0  0  0  0  0
  179.3260  180.0900  138.2640 N   0  0  0  0  0  2  0  0  0  0  0  0
  181.8400  180.5050  139.4590 C   0  0  0  0  0  2  0  0  0  0  0  0
  181.6330  180.7790  137.9740 C   0  0  0  0  0  2  0  0  0  0  0  0
  180.8570  179.4800  139.9710 C   0  0  0  0  0  0  0  0  0  0  0  0
  180.1780  181.1500  137.7390 C   0  0  0  0  0  2  0  0  0  0  0  0
  181.1370  178.6980  141.1400 N   0  0  0  0  0  2  0  0  0  0  0  0
  187.5660  178.8330  140.9690 C   0  0  0  0  0  2  0  0  0  0  0  0
  187.7180  177.8940  139.8690 N   0  0  0  0  0  2  0  0  0  0  0  0
  189.0560  179.3230  138.5990 O   0  0  0  0  0  0  0  0  0  0  0  0
  188.4650  178.2140  138.6940 C   0  0  0  0  0  0  0  0  0  0  0  0
  188.5360  177.2880  137.6050 N   0  0  0  0  0  2  0  0  0  0  0  0
  186.6710  175.9820  136.6980 C   0  0  0  0  0  1  0  0  0  0  0  0
  187.8990  175.9730  137.5910 C   0  0  1  0  0  3  0  0  0  0  0  0
  188.8670  174.8820  137.1430 C   0  0  0  0  0  2  0  0  0  0  0  0
  190.6120  175.0240  135.3960 C   0  0  0  0  0  1  0  0  0  0  0  0
  190.2340  175.4530  136.7980 C   0  0  2  0  0  3  0  0  0  0  0  0
  191.2300  174.9590  137.7340 N   0  0  0  0  0  2  0  0  0  0  0  0
  192.4820  175.1750  137.1440 N   0  0  0  0  0  2  0  0  0  0  0  0
  193.4290  174.5570  137.9700 N   0  0  0  0  0  2  0  0  0  0  0  0
  197.5440  175.6280  136.6630 O   0  0  0  0  0  0  0  0  0  0  0  0
  194.8210  174.8230  137.8100 C   0  0  0  0  0  0  0  0  0  0  0  0
  197.7640  174.4250  137.3370 C   0  0  0  0  0  2  0  0  0  0  0  0
  195.6620  174.2440  138.6170 N   0  0  0  0  0  0  0  0  0  0  0  0
  195.2320  175.6990  136.7960 O   0  0  0  0  0  0  0  0  0  0  0  0
  197.0990  174.4980  138.7010 C   0  0  0  0  0  2  0  0  0  0  0  0
  196.3530  175.4370  135.9590 C   0  0  0  0  0  2  0  0  0  0  0  0
  1 10  1  0  0  0  0
  3  9  1  0  0  0  0
  4  7  1  0  0  0  0
  5  4  2  0  0  0  0
  5  8  1  0  0  0  0
  6  3  2  0  0  0  0
  6  4  1  0  0  0  0
  7  2  1  0  0  0  0
  7 10  2  0  0  0  0
  8  1  2  0  0  0  0
  9  2  2  0  0  0  0
 11 15  1  0  0  0  0
 12 14  1  0  0  0  0
 12 11  2  0  0  0  0
 13 17  2  0  0  0  0
 14 16  2  0  0  0  0
 15 17  1  0  0  0  0
 16  8  1  0  0  0  0
 16 13  1  0  0  0  0
 18 22  2  0  0  0  0
 19 18  1  0  0  0  0
 20 22  1  0  0  0  0
 21 20  1  0  0  0  0
 22 24  1  0  0  0  0
 23 21  1  0  0  0  0
 23 19  1  0  0  0  0
 24 11  1  0  0  0  0
 25  5  1  0  0  0  0
 26 25  1  0  0  0  0
 27 28  2  0  0  0  0
 28 26  1  0  0  0  0
 29 28  1  0  0  0  0
 31 30  1  6  0  0  0
 31 29  1  0  0  0  0
 32 31  1  0  0  0  0
 34 33  1  6  0  0  0
 34 32  1  0  0  0  0
 34 35  1  0  0  0  0
 36 35  1  0  0  0  0
 36 37  1  0  0  0  0
 38 40  1  0  0  0  0
 39 37  1  0  0  0  0
 39 41  2  0  0  0  0
 40 43  1  0  0  0  0
 41 43  1  0  0  0  0
 42 39  1  0  0  0  0
 44 38  1  0  0  0  0
 44 42  1  0  0  0  0
M  END
>  <MODEL>
9

>  <REMARK>
 VINA RESULT:      -8.6      3.506      5.841
  Name = 
  10 active torsions:
  status: ('A' for Active; 'I' for Inactive)
    1  A    between atoms: C_2  and  N_40
    2  A    between atoms: N_7  and  N_25
    3  A    between atoms: N_8  and  C_39
    4  A    between atoms: C_9  and  N_28
    5  A    between atoms: C_9  and  C_42
    6  A    between atoms: C_23  and  C_39
    7  A    between atoms: N_25  and  N_38
    8  A    between atoms: C_33  and  C_35
    9  A    between atoms: N_38  and  C_41
   10  A    between atoms: C_41  and  C_42
                            x       y       z     vdW  Elec       q    Type
                         _______ _______ _______ _____ _____    ______ ____

>  <TORSDO>
F 10

$$$$
