=
 OpenBabel11042413203D

 40 46  0  0  1  0  0  0  0  0999 V2000
  189.9930  177.2060  144.2530 C   0  0  0  0  0  0  0  0  0  0  0  0
  185.1980  179.1230  140.1120 C   0  0  0  0  0  2  0  0  0  0  0  0
  189.8430  177.1500  145.6660 C   0  0  0  0  0  3  0  0  0  0  0  0
  186.4210  178.3630  142.1910 C   0  0  0  0  0  0  0  0  0  0  0  0
  186.2540  178.0170  145.8090 N   0  0  0  0  0  0  0  0  0  0  0  0
  187.5930  178.1310  141.4270 C   0  0  0  0  0  3  0  0  0  0  0  0
  184.3040  178.4520  144.5480 C   0  0  0  0  0  2  0  0  0  0  0  0
  191.3690  177.0360  143.7090 C   0  0  0  0  0  1  0  0  0  0  0  0
  183.9110  178.6830  142.0590 C   0  0  0  0  0  0  0  0  0  0  0  0
  187.5220  177.7000  145.4610 C   0  0  0  0  0  0  0  0  0  0  0  0
  182.9490  178.6460  140.9280 C   0  0  1  0  0  3  0  0  0  0  0  0
  188.8620  177.5040  143.4370 C   0  0  0  0  0  0  0  0  0  0  0  0
  187.6770  177.7330  144.1170 C   0  0  0  0  0  0  0  0  0  0  0  0
  188.7990  177.6560  142.0180 C   0  0  0  0  0  0  0  0  0  0  0  0
  185.6220  178.2530  144.6220 C   0  0  0  0  0  0  0  0  0  0  0  0
  183.7240  179.2040  139.7470 C   0  0  0  0  0  2  0  0  0  0  0  0
  185.2630  179.1470  141.6330 C   0  0  2  0  0  3  0  0  0  0  0  0
  188.5980  177.3950  146.2880 C   0  0  0  0  0  3  0  0  0  0  0  0
  183.4910  178.5000  143.3150 C   0  0  0  0  0  3  0  0  0  0  0  0
  186.5050  178.1060  143.5580 C   0  0  0  0  0  0  0  0  0  0  0  0
  191.3670  176.7760  139.2320 C   0  0  0  0  0  0  0  0  0  0  0  0
  192.0180  177.4790  140.1850 N   0  0  0  0  0  0  0  0  0  0  0  0
  189.7480  176.5390  139.6310 S   0  0  0  0  0  0  0  0  0  0  0  0
  189.9080  177.3250  141.1120 C   0  0  0  0  0  0  0  0  0  0  0  0
  191.2090  177.8010  141.2310 C   0  0  0  0  0  3  0  0  0  0  0  0
  192.0110  176.3510  137.9560 C   0  0  2  0  0  3  0  0  0  0  0  0
  193.3900  175.4970  135.8010 N   0  0  0  0  0  2  0  0  0  0  0  0
  191.4880  174.6510  137.5190 S   0  0  0  0  0  0  0  0  0  0  0  0
  194.0790  176.3950  136.7400 C   0  0  0  0  0  2  0  0  0  0  0  0
  192.9580  174.2900  136.4950 C   0  0  0  0  0  2  0  0  0  0  0  0
  193.4630  176.4180  138.0750 N   0  0  0  0  0  2  0  0  0  0  0  0
  182.5710  177.2670  140.6510 N   0  0  0  0  0  2  0  0  0  0  0  0
  180.9610  177.2770  140.0130 S   0  0  0  0  0  0  0  0  0  0  0  0
  180.3430  175.9150  140.1720 O   0  0  0  0  0  0  0  0  0  0  0  0
  181.0110  177.6260  138.5530 O   0  0  0  0  0  0  0  0  0  0  0  0
  179.9640  178.4790  140.8680 C   0  0  0  0  0  2  0  0  0  0  0  0
  179.5090  177.9350  142.0970 O   0  0  0  0  0  0  0  0  0  0  0  0
  179.5570  177.9800  144.3890 O   0  0  0  0  0  1  0  0  0  0  0  0
  179.7150  178.5990  143.3040 C   0  0  0  0  0  0  0  0  0  0  0  0
  180.0870  179.9390  143.3250 O   0  0  0  0  0  0  0  0  0  0  0  0
  1  3  1  0  0  0  0
  3 18  2  0  0  0  0
  4 20  2  0  0  0  0
  6 14  2  0  0  0  0
  6  4  1  0  0  0  0
  7 15  1  0  0  0  0
  8  1  1  0  0  0  0
  9 19  2  0  0  0  0
 10  5  1  0  0  0  0
 10 18  1  0  0  0  0
 11 32  1  6  0  0  0
 11  9  1  0  0  0  0
 12 13  1  0  0  0  0
 12  1  2  0  0  0  0
 13 10  2  0  0  0  0
 14 12  1  0  0  0  0
 15  5  2  0  0  0  0
 16  2  1  0  0  0  0
 16 11  1  0  0  0  0
 17  2  1  6  0  0  0
 17  9  1  0  0  0  0
 17  4  1  0  0  0  0
 19  7  1  0  0  0  0
 20 13  1  0  0  0  0
 20 15  1  0  0  0  0
 21 23  1  0  0  0  0
 21 22  2  0  0  0  0
 22 25  1  0  0  0  0
 23 24  1  0  0  0  0
 24 25  2  0  0  0  0
 24 14  1  0  0  0  0
 26 31  1  0  0  0  0
 26 21  1  1  0  0  0
 27 30  1  0  0  0  0
 27 29  1  0  0  0  0
 28 26  1  0  0  0  0
 29 31  1  0  0  0  0
 30 28  1  0  0  0  0
 33 34  2  0  0  0  0
 33 32  1  0  0  0  0
 33 36  1  0  0  0  0
 35 33  2  0  0  0  0
 36 37  1  0  0  0  0
 37 39  1  0  0  0  0
 39 40  2  0  0  0  0
 39 38  1  0  0  0  0
M  END
>  <MODEL>
1

>  <REMARK>
 VINA RESULT:      -9.8      0.000      0.000
  Name = 
  7 active torsions:
  status: ('A' for Active; 'I' for Inactive)
    1  A    between atoms: C_3  and  C_5
    2  A    between atoms: S_6  and  C_7
    3  A    between atoms: S_6  and  N_17
    4  A    between atoms: C_7  and  O_14
    5  A    between atoms: O_14  and  C_22
    6  A    between atoms: N_17  and  C_26
    7  A    between atoms: C_29  and  C_35
                            x       y       z     vdW  Elec       q    Type
                         _______ _______ _______ _____ _____    ______ ____

>  <TORSDO>
F 7

$$$$
=
 OpenBabel11042413203D

 40 46  0  0  1  0  0  0  0  0999 V2000
  189.7510  177.2150  144.3570 C   0  0  0  0  0  0  0  0  0  0  0  0
  185.0790  179.1820  140.1000 C   0  0  0  0  0  2  0  0  0  0  0  0
  189.5660  177.1580  145.7650 C   0  0  0  0  0  3  0  0  0  0  0  0
  186.2430  178.4080  142.2080 C   0  0  0  0  0  0  0  0  0  0  0  0
  185.9830  178.0610  145.8200 N   0  0  0  0  0  0  0  0  0  0  0  0
  187.4320  178.1650  141.4730 C   0  0  0  0  0  3  0  0  0  0  0  0
  184.0690  178.5150  144.5120 C   0  0  0  0  0  2  0  0  0  0  0  0
  191.1380  177.0320  143.8470 C   0  0  0  0  0  1  0  0  0  0  0  0
  183.7400  178.7520  142.0140 C   0  0  0  0  0  0  0  0  0  0  0  0
  187.2560  177.7320  145.5040 C   0  0  0  0  0  0  0  0  0  0  0  0
  182.8060  178.7260  140.8600 C   0  0  1  0  0  3  0  0  0  0  0  0
  188.6440  177.5250  143.5130 C   0  0  0  0  0  0  0  0  0  0  0  0
  187.4450  177.7650  144.1640 C   0  0  0  0  0  0  0  0  0  0  0  0
  188.6170  177.6780  142.0930 C   0  0  0  0  0  0  0  0  0  0  0  0
  185.3820  178.3030  144.6190 C   0  0  0  0  0  0  0  0  0  0  0  0
  183.6150  179.2770  139.6990 C   0  0  0  0  0  2  0  0  0  0  0  0
  185.1070  179.2040  141.6230 C   0  0  2  0  0  3  0  0  0  0  0  0
  188.3080  177.4150  146.3570 C   0  0  0  0  0  3  0  0  0  0  0  0
  183.2880  178.5720  143.2600 C   0  0  0  0  0  3  0  0  0  0  0  0
  186.2910  178.1490  143.5770 C   0  0  0  0  0  0  0  0  0  0  0  0
  191.2480  176.7910  139.3680 C   0  0  0  0  0  0  0  0  0  0  0  0
  191.8870  177.4530  140.3570 N   0  0  0  0  0  0  0  0  0  0  0  0
  189.6110  176.5900  139.7110 S   0  0  0  0  0  0  0  0  0  0  0  0
  189.7450  177.3380  141.2150 C   0  0  0  0  0  0  0  0  0  0  0  0
  191.0540  177.7740  141.3850 C   0  0  0  0  0  3  0  0  0  0  0  0
  191.9210  176.3780  138.1030 C   0  0  2  0  0  3  0  0  0  0  0  0
  193.3460  175.5420  135.9720 N   0  0  0  0  0  2  0  0  0  0  0  0
  191.3980  174.6870  137.6320 S   0  0  0  0  0  0  0  0  0  0  0  0
  194.0170  176.4240  136.9390 C   0  0  0  0  0  2  0  0  0  0  0  0
  192.8910  174.3300  136.6400 C   0  0  0  0  0  2  0  0  0  0  0  0
  193.3700  176.4340  138.2580 N   0  0  0  0  0  2  0  0  0  0  0  0
  182.4220  177.3510  140.5720 N   0  0  0  0  0  2  0  0  0  0  0  0
  180.8160  177.3740  139.9230 S   0  0  0  0  0  0  0  0  0  0  0  0
  180.2550  178.7670  140.0030 O   0  0  0  0  0  0  0  0  0  0  0  0
  179.9480  176.4470  140.7240 O   0  0  0  0  0  0  0  0  0  0  0  0
  180.8290  176.8410  138.2240 C   0  0  0  0  0  2  0  0  0  0  0  0
  181.0710  175.4440  138.1640 O   0  0  0  0  0  0  0  0  0  0  0  0
  183.3170  174.9840  138.2080 O   0  0  0  0  0  1  0  0  0  0  0  0
  182.2280  174.9340  137.5790 C   0  0  0  0  0  0  0  0  0  0  0  0
  182.1960  174.3760  136.3050 O   0  0  0  0  0  0  0  0  0  0  0  0
  1  3  1  0  0  0  0
  3 18  2  0  0  0  0
  4 20  2  0  0  0  0
  6 14  2  0  0  0  0
  6  4  1  0  0  0  0
  7 15  1  0  0  0  0
  8  1  1  0  0  0  0
  9 19  2  0  0  0  0
 10  5  1  0  0  0  0
 10 18  1  0  0  0  0
 11 32  1  6  0  0  0
 11  9  1  0  0  0  0
 12 13  1  0  0  0  0
 12  1  2  0  0  0  0
 13 10  2  0  0  0  0
 14 12  1  0  0  0  0
 15  5  2  0  0  0  0
 16  2  1  0  0  0  0
 16 11  1  0  0  0  0
 17  2  1  6  0  0  0
 17  9  1  0  0  0  0
 17  4  1  0  0  0  0
 19  7  1  0  0  0  0
 20 13  1  0  0  0  0
 20 15  1  0  0  0  0
 21 23  1  0  0  0  0
 21 22  2  0  0  0  0
 22 25  1  0  0  0  0
 23 24  1  0  0  0  0
 24 25  2  0  0  0  0
 24 14  1  0  0  0  0
 26 31  1  0  0  0  0
 26 21  1  1  0  0  0
 27 30  1  0  0  0  0
 27 29  1  0  0  0  0
 28 26  1  0  0  0  0
 29 31  1  0  0  0  0
 30 28  1  0  0  0  0
 33 34  2  0  0  0  0
 33 32  1  0  0  0  0
 33 35  2  0  0  0  0
 36 33  1  0  0  0  0
 37 36  1  0  0  0  0
 39 37  1  0  0  0  0
 39 38  1  0  0  0  0
 40 39  2  0  0  0  0
M  END
>  <MODEL>
2

>  <REMARK>
 VINA RESULT:      -9.1      1.379      2.500
  Name = 
  7 active torsions:
  status: ('A' for Active; 'I' for Inactive)
    1  A    between atoms: C_3  and  C_5
    2  A    between atoms: S_6  and  C_7
    3  A    between atoms: S_6  and  N_17
    4  A    between atoms: C_7  and  O_14
    5  A    between atoms: O_14  and  C_22
    6  A    between atoms: N_17  and  C_26
    7  A    between atoms: C_29  and  C_35
                            x       y       z     vdW  Elec       q    Type
                         _______ _______ _______ _____ _____    ______ ____

>  <TORSDO>
F 7

$$$$
=
 OpenBabel11042413203D

 40 46  0  0  1  0  0  0  0  0999 V2000
  189.4630  177.4240  142.5040 C   0  0  0  0  0  0  0  0  0  0  0  0
  183.9280  179.3890  139.4510 C   0  0  0  0  0  2  0  0  0  0  0  0
  189.5920  177.3150  143.9160 C   0  0  0  0  0  3  0  0  0  0  0  0
  185.5430  178.5810  141.2220 C   0  0  0  0  0  0  0  0  0  0  0  0
  186.0900  178.1050  144.7870 N   0  0  0  0  0  0  0  0  0  0  0  0
  186.5470  178.3990  140.2360 C   0  0  0  0  0  3  0  0  0  0  0  0
  183.9260  178.5440  143.9480 C   0  0  0  0  0  2  0  0  0  0  0  0
  190.7080  177.3010  141.6970 C   0  0  0  0  0  1  0  0  0  0  0  0
  183.0520  178.8550  141.5930 C   0  0  0  0  0  0  0  0  0  0  0  0
  187.2690  177.8260  144.1880 C   0  0  0  0  0  0  0  0  0  0  0  0
  181.8880  178.8380  140.6710 C   0  0  1  0  0  3  0  0  0  0  0  0
  188.1910  177.7280  141.9350 C   0  0  0  0  0  0  0  0  0  0  0  0
  187.1590  177.9090  142.8410 C   0  0  0  0  0  0  0  0  0  0  0  0
  187.8500  177.9280  140.5630 C   0  0  0  0  0  0  0  0  0  0  0  0
  185.2350  178.3690  143.7560 C   0  0  0  0  0  0  0  0  0  0  0  0
  182.4100  179.4530  139.3840 C   0  0  0  0  0  2  0  0  0  0  0  0
  184.2890  179.3610  140.9310 C   0  0  2  0  0  3  0  0  0  0  0  0
  188.4900  177.5130  144.7770 C   0  0  0  0  0  3  0  0  0  0  0  0
  182.8880  178.6190  142.8990 C   0  0  0  0  0  3  0  0  0  0  0  0
  185.8960  178.2780  142.5360 C   0  0  0  0  0  0  0  0  0  0  0  0
  190.0100  176.7340  137.5560 C   0  0  0  0  0  0  0  0  0  0  0  0
  189.9700  178.0840  137.5240 N   0  0  0  0  0  0  0  0  0  0  0  0
  189.1550  176.1180  138.8690 S   0  0  0  0  0  0  0  0  0  0  0  0
  188.7650  177.6520  139.4470 C   0  0  0  0  0  0  0  0  0  0  0  0
  189.2670  178.6040  138.5670 C   0  0  0  0  0  3  0  0  0  0  0  0
  190.6680  175.9180  136.4960 C   0  0  2  0  0  3  0  0  0  0  0  0
  192.0850  174.4480  134.7330 N   0  0  0  0  0  2  0  0  0  0  0  0
  190.3710  174.1360  136.7940 S   0  0  0  0  0  0  0  0  0  0  0  0
  192.6720  175.7160  135.1920 C   0  0  0  0  0  2  0  0  0  0  0  0
  191.8450  173.5720  135.8730 C   0  0  0  0  0  2  0  0  0  0  0  0
  192.1000  176.1930  136.4590 N   0  0  0  0  0  2  0  0  0  0  0  0
  181.4810  177.4630  140.4200 N   0  0  0  0  0  2  0  0  0  0  0  0
  179.7530  177.3940  140.5200 S   0  0  0  0  0  0  0  0  0  0  0  0
  179.1840  178.7840  140.4360 O   0  0  0  0  0  0  0  0  0  0  0  0
  179.3600  176.7800  141.8320 O   0  0  0  0  0  0  0  0  0  0  0  0
  179.0960  176.4070  139.1920 C   0  0  0  0  0  2  0  0  0  0  0  0
  180.0010  175.3590  138.8830 O   0  0  0  0  0  0  0  0  0  0  0  0
  179.7390  173.1320  138.4060 O   0  0  0  0  0  0  0  0  0  0  0  0
  179.7480  174.0450  139.2710 C   0  0  0  0  0  0  0  0  0  0  0  0
  179.4970  173.7320  140.6040 O   0  0  0  0  0  1  0  0  0  0  0  0
  1  3  1  0  0  0  0
  3 18  2  0  0  0  0
  4 20  2  0  0  0  0
  6 14  2  0  0  0  0
  6  4  1  0  0  0  0
  8  1  1  0  0  0  0
  9 19  2  0  0  0  0
 10 18  1  0  0  0  0
 10  5  1  0  0  0  0
 11 32  1  6  0  0  0
 11  9  1  0  0  0  0
 12  1  2  0  0  0  0
 12 13  1  0  0  0  0
 13 10  2  0  0  0  0
 14 12  1  0  0  0  0
 15  7  1  0  0  0  0
 15  5  2  0  0  0  0
 16  2  1  0  0  0  0
 16 11  1  0  0  0  0
 17  2  1  6  0  0  0
 17  4  1  0  0  0  0
 17  9  1  0  0  0  0
 19  7  1  0  0  0  0
 20 13  1  0  0  0  0
 20 15  1  0  0  0  0
 21 23  1  0  0  0  0
 22 21  2  0  0  0  0
 22 25  1  0  0  0  0
 23 24  1  0  0  0  0
 24 14  1  0  0  0  0
 25 24  2  0  0  0  0
 26 28  1  0  0  0  0
 26 21  1  1  0  0  0
 27 29  1  0  0  0  0
 27 30  1  0  0  0  0
 29 31  1  0  0  0  0
 30 28  1  0  0  0  0
 31 26  1  0  0  0  0
 32 33  1  0  0  0  0
 33 35  2  0  0  0  0
 34 33  2  0  0  0  0
 36 33  1  0  0  0  0
 37 36  1  0  0  0  0
 37 39  1  0  0  0  0
 38 39  2  0  0  0  0
 39 40  1  0  0  0  0
M  END
>  <MODEL>
3

>  <REMARK>
 VINA RESULT:      -8.6      1.747      2.686
  Name = 
  7 active torsions:
  status: ('A' for Active; 'I' for Inactive)
    1  A    between atoms: C_3  and  C_5
    2  A    between atoms: S_6  and  C_7
    3  A    between atoms: S_6  and  N_17
    4  A    between atoms: C_7  and  O_14
    5  A    between atoms: O_14  and  C_22
    6  A    between atoms: N_17  and  C_26
    7  A    between atoms: C_29  and  C_35
                            x       y       z     vdW  Elec       q    Type
                         _______ _______ _______ _____ _____    ______ ____

>  <TORSDO>
F 7

$$$$
=
 OpenBabel11042413203D

 40 46  0  0  1  0  0  0  0  0999 V2000
  184.7410  178.7420  144.5430 C   0  0  0  0  0  0  0  0  0  0  0  0
  187.1590  178.1930  138.4060 C   0  0  0  0  0  2  0  0  0  0  0  0
  183.3700  178.9800  144.8350 C   0  0  0  0  0  3  0  0  0  0  0  0
  185.5570  178.3220  140.3590 C   0  0  0  0  0  0  0  0  0  0  0  0
  182.0970  178.8070  141.3710 N   0  0  0  0  0  0  0  0  0  0  0  0
  186.6460  178.2570  141.2670 C   0  0  0  0  0  3  0  0  0  0  0  0
  182.6420  178.3620  139.1160 C   0  0  0  0  0  2  0  0  0  0  0  0
  185.7040  178.8440  145.6740 C   0  0  0  0  0  1  0  0  0  0  0  0
  184.8450  177.8790  137.9680 C   0  0  0  0  0  0  0  0  0  0  0  0
  182.8210  178.7880  142.5130 C   0  0  0  0  0  0  0  0  0  0  0  0
  185.5540  177.3060  136.7960 C   0  0  1  0  0  3  0  0  0  0  0  0
  185.1420  178.5070  143.1950 C   0  0  0  0  0  0  0  0  0  0  0  0
  184.1270  178.5460  142.2530 C   0  0  0  0  0  0  0  0  0  0  0  0
  186.4560  178.2950  142.6770 C   0  0  0  0  0  0  0  0  0  0  0  0
  183.0080  178.5670  140.3830 C   0  0  0  0  0  0  0  0  0  0  0  0
  186.9930  177.7650  136.9550 C   0  0  0  0  0  2  0  0  0  0  0  0
  185.7730  178.5920  138.8940 C   0  0  2  0  0  3  0  0  0  0  0  0
  182.3900  179.0030  143.8180 C   0  0  0  0  0  3  0  0  0  0  0  0
  183.5090  177.8860  138.0180 C   0  0  0  0  0  3  0  0  0  0  0  0
  184.2850  178.4290  140.9170 C   0  0  0  0  0  0  0  0  0  0  0  0
  189.4130  177.2480  144.9780 C   0  0  0  0  0  0  0  0  0  0  0  0
  189.8660  178.2000  144.1340 N   0  0  0  0  0  0  0  0  0  0  0  0
  187.7810  176.9200  144.7270 S   0  0  0  0  0  0  0  0  0  0  0  0
  187.6410  178.0880  143.5210 C   0  0  0  0  0  0  0  0  0  0  0  0
  188.8890  178.6650  143.3090 C   0  0  0  0  0  3  0  0  0  0  0  0
  190.2980  176.5340  145.9440 C   0  0  2  0  0  3  0  0  0  0  0  0
  192.1040  175.3960  147.5920 N   0  0  0  0  0  2  0  0  0  0  0  0
  190.2840  177.3890  147.5640 S   0  0  0  0  0  0  0  0  0  0  0  0
  192.4190  175.4340  146.1560 C   0  0  0  0  0  2  0  0  0  0  0  0
  191.9120  176.7510  148.0940 C   0  0  0  0  0  2  0  0  0  0  0  0
  191.6580  176.4570  145.4240 N   0  0  0  0  0  2  0  0  0  0  0  0
  185.5010  175.8520  136.8540 N   0  0  0  0  0  2  0  0  0  0  0  0
  184.6470  175.2960  135.4520 S   0  0  0  0  0  0  0  0  0  0  0  0
  185.5390  174.4030  134.6350 O   0  0  0  0  0  0  0  0  0  0  0  0
  184.2410  176.4790  134.6220 O   0  0  0  0  0  0  0  0  0  0  0  0
  183.1910  174.3930  135.9350 C   0  0  0  0  0  2  0  0  0  0  0  0
  183.4070  173.7760  137.1940 O   0  0  0  0  0  0  0  0  0  0  0  0
  183.7550  171.5400  136.8240 O   0  0  0  0  0  0  0  0  0  0  0  0
  184.1770  172.6210  137.3120 C   0  0  0  0  0  0  0  0  0  0  0  0
  185.4030  172.6460  137.9680 O   0  0  0  0  0  1  0  0  0  0  0  0
  1  3  1  0  0  0  0
  1  8  1  0  0  0  0
  4 20  2  0  0  0  0
  4  6  1  0  0  0  0
  5 10  1  0  0  0  0
  6 14  2  0  0  0  0
  7 15  1  0  0  0  0
  9 19  2  0  0  0  0
  9 17  1  0  0  0  0
 10 18  1  0  0  0  0
 11 32  1  1  0  0  0
 11 16  1  0  0  0  0
 11  9  1  0  0  0  0
 12  1  2  0  0  0  0
 13 10  2  0  0  0  0
 13 12  1  0  0  0  0
 14 12  1  0  0  0  0
 14 24  1  0  0  0  0
 15 20  1  0  0  0  0
 15  5  2  0  0  0  0
 16  2  1  0  0  0  0
 17  2  1  6  0  0  0
 17  4  1  0  0  0  0
 18  3  2  0  0  0  0
 19  7  1  0  0  0  0
 20 13  1  0  0  0  0
 22 21  2  0  0  0  0
 23 21  1  0  0  0  0
 24 23  1  0  0  0  0
 25 24  2  0  0  0  0
 25 22  1  0  0  0  0
 26 21  1  6  0  0  0
 26 28  1  0  0  0  0
 27 30  1  0  0  0  0
 28 30  1  0  0  0  0
 29 27  1  0  0  0  0
 31 26  1  0  0  0  0
 31 29  1  0  0  0  0
 33 36  1  0  0  0  0
 33 32  1  0  0  0  0
 34 33  2  0  0  0  0
 35 33  2  0  0  0  0
 36 37  1  0  0  0  0
 37 39  1  0  0  0  0
 38 39  2  0  0  0  0
 39 40  1  0  0  0  0
M  END
>  <MODEL>
4

>  <REMARK>
 VINA RESULT:      -8.4      4.353      6.610
  Name = 
  7 active torsions:
  status: ('A' for Active; 'I' for Inactive)
    1  A    between atoms: C_3  and  C_5
    2  A    between atoms: S_6  and  C_7
    3  A    between atoms: S_6  and  N_17
    4  A    between atoms: C_7  and  O_14
    5  A    between atoms: O_14  and  C_22
    6  A    between atoms: N_17  and  C_26
    7  A    between atoms: C_29  and  C_35
                            x       y       z     vdW  Elec       q    Type
                         _______ _______ _______ _____ _____    ______ ____

>  <TORSDO>
F 7

$$$$
=
 OpenBabel11042413203D

 40 46  0  0  1  0  0  0  0  0999 V2000
  190.1010  175.5170  135.6480 C   0  0  0  0  0  0  0  0  0  0  0  0
  188.4750  178.0360  141.5500 C   0  0  0  0  0  2  0  0  0  0  0  0
  191.4310  175.4660  135.1490 C   0  0  0  0  0  3  0  0  0  0  0  0
  189.8150  177.1150  139.6130 C   0  0  0  0  0  0  0  0  0  0  0  0
  193.1320  176.7570  138.1640 N   0  0  0  0  0  0  0  0  0  0  0  0
  188.6170  176.7500  138.9460 C   0  0  0  0  0  3  0  0  0  0  0  0
  192.8650  177.4340  140.4120 C   0  0  0  0  0  2  0  0  0  0  0  0
  189.0050  175.1890  134.6950 C   0  0  0  0  0  1  0  0  0  0  0  0
  190.8110  177.7340  141.8580 C   0  0  0  0  0  0  0  0  0  0  0  0
  192.2670  176.2930  137.2340 C   0  0  0  0  0  0  0  0  0  0  0  0
  190.2360  177.8240  143.2250 C   0  0  1  0  0  3  0  0  0  0  0  0
  189.8670  175.9570  136.9850 C   0  0  0  0  0  0  0  0  0  0  0  0
  190.9960  176.3200  137.7010 C   0  0  0  0  0  0  0  0  0  0  0  0
  188.6240  176.1280  137.6650 C   0  0  0  0  0  0  0  0  0  0  0  0
  192.3480  177.0770  139.2340 C   0  0  0  0  0  0  0  0  0  0  0  0
  188.8090  178.2960  143.0110 C   0  0  0  0  0  2  0  0  0  0  0  0
  189.8020  178.0370  140.8020 C   0  0  2  0  0  3  0  0  0  0  0  0
  192.5350  175.8530  135.9420 C   0  0  0  0  0  3  0  0  0  0  0  0
  192.1280  177.5910  141.6820 C   0  0  0  0  0  3  0  0  0  0  0  0
  191.0080  176.8360  138.9490 C   0  0  0  0  0  0  0  0  0  0  0  0
  185.2390  174.5330  136.6020 C   0  0  0  0  0  0  0  0  0  0  0  0
  185.1570  175.8620  136.3750 N   0  0  0  0  0  0  0  0  0  0  0  0
  186.7470  174.0990  137.2130 S   0  0  0  0  0  0  0  0  0  0  0  0
  187.3320  175.6760  137.1300 C   0  0  0  0  0  0  0  0  0  0  0  0
  186.3140  176.5100  136.6790 C   0  0  0  0  0  3  0  0  0  0  0  0
  184.0880  173.6050  136.4060 C   0  0  2  0  0  3  0  0  0  0  0  0
  182.0570  171.8340  136.3050 N   0  0  0  0  0  2  0  0  0  0  0  0
  182.5220  174.4310  136.8750 S   0  0  0  0  0  0  0  0  0  0  0  0
  183.3800  171.3330  136.7060 C   0  0  0  0  0  2  0  0  0  0  0  0
  181.6220  172.8790  137.2240 C   0  0  0  0  0  2  0  0  0  0  0  0
  184.2760  172.3910  137.1920 N   0  0  0  0  0  2  0  0  0  0  0  0
  190.2220  176.5030  143.8380 N   0  0  0  0  0  2  0  0  0  0  0  0
  191.1800  176.5770  145.2800 S   0  0  0  0  0  0  0  0  0  0  0  0
  192.0470  177.8060  145.2510 O   0  0  0  0  0  0  0  0  0  0  0  0
  192.0540  175.3590  145.3530 O   0  0  0  0  0  0  0  0  0  0  0  0
  190.1290  176.6310  146.7170 C   0  0  0  0  0  2  0  0  0  0  0  0
  188.9620  177.3830  146.4260 O   0  0  0  0  0  0  0  0  0  0  0  0
  188.4480  177.6880  148.6400 O   0  0  0  0  0  1  0  0  0  0  0  0
  188.0970  177.7970  147.4370 C   0  0  0  0  0  0  0  0  0  0  0  0
  186.8460  178.3240  147.1320 O   0  0  0  0  0  0  0  0  0  0  0  0
  1 12  1  0  0  0  0
  2 16  1  0  0  0  0
  3  1  2  0  0  0  0
  3 18  1  0  0  0  0
  4 17  1  0  0  0  0
  5 15  2  0  0  0  0
  6  4  2  0  0  0  0
  7 19  1  0  0  0  0
  8  1  1  0  0  0  0
  9 11  1  0  0  0  0
 10 13  1  0  0  0  0
 10  5  1  0  0  0  0
 11 32  1  6  0  0  0
 12 14  2  0  0  0  0
 12 13  1  0  0  0  0
 13 20  2  0  0  0  0
 14  6  1  0  0  0  0
 15  7  1  0  0  0  0
 16 11  1  0  0  0  0
 17  2  1  1  0  0  0
 17  9  1  0  0  0  0
 18 10  2  0  0  0  0
 19  9  2  0  0  0  0
 20 15  1  0  0  0  0
 20  4  1  0  0  0  0
 21 23  1  0  0  0  0
 22 21  2  0  0  0  0
 22 25  1  0  0  0  0
 24 23  1  0  0  0  0
 24 14  1  0  0  0  0
 25 24  2  0  0  0  0
 26 21  1  1  0  0  0
 26 28  1  0  0  0  0
 26 31  1  0  0  0  0
 27 29  1  0  0  0  0
 27 30  1  0  0  0  0
 28 30  1  0  0  0  0
 29 31  1  0  0  0  0
 32 33  1  0  0  0  0
 33 35  2  0  0  0  0
 33 36  1  0  0  0  0
 34 33  2  0  0  0  0
 37 36  1  0  0  0  0
 37 39  1  0  0  0  0
 39 38  1  0  0  0  0
 40 39  2  0  0  0  0
M  END
>  <MODEL>
5

>  <REMARK>
 VINA RESULT:      -8.2      5.214      8.860
  Name = 
  7 active torsions:
  status: ('A' for Active; 'I' for Inactive)
    1  A    between atoms: C_3  and  C_5
    2  A    between atoms: S_6  and  C_7
    3  A    between atoms: S_6  and  N_17
    4  A    between atoms: C_7  and  O_14
    5  A    between atoms: O_14  and  C_22
    6  A    between atoms: N_17  and  C_26
    7  A    between atoms: C_29  and  C_35
                            x       y       z     vdW  Elec       q    Type
                         _______ _______ _______ _____ _____    ______ ____

>  <TORSDO>
F 7

$$$$
=
 OpenBabel11042413203D

 40 46  0  0  1  0  0  0  0  0999 V2000
  184.2350  178.8340  144.4280 C   0  0  0  0  0  0  0  0  0  0  0  0
  186.1340  177.9950  138.1420 C   0  0  0  0  0  2  0  0  0  0  0  0
  182.8940  179.0940  144.8210 C   0  0  0  0  0  3  0  0  0  0  0  0
  184.7010  178.2220  140.2130 C   0  0  0  0  0  0  0  0  0  0  0  0
  181.3370  178.7740  141.4850 N   0  0  0  0  0  0  0  0  0  0  0  0
  185.8600  178.1910  141.0300 C   0  0  0  0  0  3  0  0  0  0  0  0
  181.6930  178.2260  139.2150 C   0  0  0  0  0  2  0  0  0  0  0  0
  185.2890  178.9810  145.4690 C   0  0  0  0  0  1  0  0  0  0  0  0
  183.7910  177.6770  137.9120 C   0  0  0  0  0  0  0  0  0  0  0  0
  182.1540  178.8020  142.5630 C   0  0  0  0  0  0  0  0  0  0  0  0
  184.3990  177.0480  136.7120 C   0  0  1  0  0  3  0  0  0  0  0  0
  184.5230  178.5370  143.0630 C   0  0  0  0  0  0  0  0  0  0  0  0
  183.4330  178.5400  142.2070 C   0  0  0  0  0  0  0  0  0  0  0  0
  185.7890  178.2930  142.4480 C   0  0  0  0  0  0  0  0  0  0  0  0
  182.1620  178.4840  140.4370 C   0  0  0  0  0  0  0  0  0  0  0  0
  185.8470  177.5040  136.7310 C   0  0  0  0  0  2  0  0  0  0  0  0
  184.7940  178.4250  138.7250 C   0  0  2  0  0  3  0  0  0  0  0  0
  181.8330  179.0780  143.8880 C   0  0  0  0  0  3  0  0  0  0  0  0
  182.4640  177.6960  138.0720 C   0  0  0  0  0  3  0  0  0  0  0  0
  183.4790  178.3620  140.8690 C   0  0  0  0  0  0  0  0  0  0  0  0
  188.8850  177.3680  144.6130 C   0  0  0  0  0  0  0  0  0  0  0  0
  189.3200  178.1010  143.5650 N   0  0  0  0  0  0  0  0  0  0  0  0
  187.2130  177.1750  144.5850 S   0  0  0  0  0  0  0  0  0  0  0  0
  187.0390  178.1160  143.1990 C   0  0  0  0  0  0  0  0  0  0  0  0
  188.3000  178.5110  142.7640 C   0  0  0  0  0  3  0  0  0  0  0  0
  189.8080  176.7500  145.6080 C   0  0  2  0  0  3  0  0  0  0  0  0
  191.6630  175.8200  147.3310 N   0  0  0  0  0  2  0  0  0  0  0  0
  189.5520  177.5000  147.2600 S   0  0  0  0  0  0  0  0  0  0  0  0
  192.0610  175.9870  145.9250 C   0  0  0  0  0  2  0  0  0  0  0  0
  191.2240  177.0970  147.8780 C   0  0  0  0  0  2  0  0  0  0  0  0
  191.1940  176.9170  145.1870 N   0  0  0  0  0  2  0  0  0  0  0  0
  184.3470  175.5980  136.8400 N   0  0  0  0  0  2  0  0  0  0  0  0
  183.4530  174.9790  135.4910 S   0  0  0  0  0  0  0  0  0  0  0  0
  184.3640  174.1780  134.6020 O   0  0  0  0  0  0  0  0  0  0  0  0
  182.8850  176.1270  134.7070 O   0  0  0  0  0  0  0  0  0  0  0  0
  182.1210  173.9420  136.0570 C   0  0  0  0  0  2  0  0  0  0  0  0
  181.8990  174.1630  137.4410 O   0  0  0  0  0  0  0  0  0  0  0  0
  179.9640  175.2950  137.9250 O   0  0  0  0  0  0  0  0  0  0  0  0
  180.6100  174.2160  137.9690 C   0  0  0  0  0  0  0  0  0  0  0  0
  180.0320  173.0910  138.5480 O   0  0  0  0  0  1  0  0  0  0  0  0
  1  3  1  0  0  0  0
  1  8  1  0  0  0  0
  4 20  2  0  0  0  0
  4  6  1  0  0  0  0
  5 10  1  0  0  0  0
  6 14  2  0  0  0  0
  7 15  1  0  0  0  0
  9 19  2  0  0  0  0
  9 17  1  0  0  0  0
 10 18  1  0  0  0  0
 11 16  1  0  0  0  0
 11 32  1  1  0  0  0
 11  9  1  0  0  0  0
 12  1  2  0  0  0  0
 13 10  2  0  0  0  0
 13 12  1  0  0  0  0
 14 12  1  0  0  0  0
 14 24  1  0  0  0  0
 15 20  1  0  0  0  0
 15  5  2  0  0  0  0
 16  2  1  0  0  0  0
 17  2  1  6  0  0  0
 17  4  1  0  0  0  0
 18  3  2  0  0  0  0
 19  7  1  0  0  0  0
 20 13  1  0  0  0  0
 22 21  2  0  0  0  0
 23 21  1  0  0  0  0
 24 23  1  0  0  0  0
 25 24  2  0  0  0  0
 25 22  1  0  0  0  0
 26 21  1  6  0  0  0
 26 28  1  0  0  0  0
 27 30  1  0  0  0  0
 28 30  1  0  0  0  0
 29 27  1  0  0  0  0
 31 26  1  0  0  0  0
 31 29  1  0  0  0  0
 33 36  1  0  0  0  0
 33 32  1  0  0  0  0
 34 33  2  0  0  0  0
 35 33  2  0  0  0  0
 36 37  1  0  0  0  0
 37 39  1  0  0  0  0
 38 39  2  0  0  0  0
 39 40  1  0  0  0  0
M  END
>  <MODEL>
6

>  <REMARK>
 VINA RESULT:      -8.1      4.145      6.316
  Name = 
  7 active torsions:
  status: ('A' for Active; 'I' for Inactive)
    1  A    between atoms: C_3  and  C_5
    2  A    between atoms: S_6  and  C_7
    3  A    between atoms: S_6  and  N_17
    4  A    between atoms: C_7  and  O_14
    5  A    between atoms: O_14  and  C_22
    6  A    between atoms: N_17  and  C_26
    7  A    between atoms: C_29  and  C_35
                            x       y       z     vdW  Elec       q    Type
                         _______ _______ _______ _____ _____    ______ ____

>  <TORSDO>
F 7

$$$$
=
 OpenBabel11042413203D

 40 46  0  0  1  0  0  0  0  0999 V2000
  183.1850  178.7040  144.3270 C   0  0  0  0  0  0  0  0  0  0  0  0
  186.9640  178.2370  138.9110 C   0  0  0  0  0  2  0  0  0  0  0  0
  181.7940  178.9950  144.2980 C   0  0  0  0  0  3  0  0  0  0  0  0
  184.9520  178.3780  140.4380 C   0  0  0  0  0  0  0  0  0  0  0  0
  181.3710  178.9870  140.6270 N   0  0  0  0  0  0  0  0  0  0  0  0
  185.7920  178.2360  141.5720 C   0  0  0  0  0  3  0  0  0  0  0  0
  182.4170  178.5890  138.5470 C   0  0  0  0  0  2  0  0  0  0  0  0
  183.8570  178.7280  145.6550 C   0  0  0  0  0  1  0  0  0  0  0  0
  184.8090  178.0420  137.9300 C   0  0  0  0  0  0  0  0  0  0  0  0
  181.8030  178.9010  141.9060 C   0  0  0  0  0  0  0  0  0  0  0  0
  185.7540  177.4750  136.9350 C   0  0  1  0  0  3  0  0  0  0  0  0
  183.8860  178.4940  143.1020 C   0  0  0  0  0  0  0  0  0  0  0  0
  183.1240  178.6070  141.9510 C   0  0  0  0  0  0  0  0  0  0  0  0
  185.2760  178.2380  142.8990 C   0  0  0  0  0  0  0  0  0  0  0  0
  182.4800  178.7370  139.8720 C   0  0  0  0  0  0  0  0  0  0  0  0
  187.1300  177.8620  137.4470 C   0  0  0  0  0  2  0  0  0  0  0  0
  185.5170  178.6840  139.0760 C   0  0  2  0  0  3  0  0  0  0  0  0
  181.0840  179.0940  143.0810 C   0  0  0  0  0  3  0  0  0  0  0  0
  183.5000  178.1090  137.6660 C   0  0  0  0  0  3  0  0  0  0  0  0
  183.5880  178.5250  140.6850 C   0  0  0  0  0  0  0  0  0  0  0  0
  188.1170  177.3350  145.3980 C   0  0  0  0  0  0  0  0  0  0  0  0
  187.3670  178.3070  145.9610 N   0  0  0  0  0  0  0  0  0  0  0  0
  187.5230  176.8890  143.8870 S   0  0  0  0  0  0  0  0  0  0  0  0
  186.2200  177.9520  143.9880 C   0  0  0  0  0  0  0  0  0  0  0  0
  186.3150  178.6670  145.1770 C   0  0  0  0  0  3  0  0  0  0  0  0
  189.3610  176.8050  146.0270 C   0  0  2  0  0  3  0  0  0  0  0  0
  191.7370  176.0700  147.0690 N   0  0  0  0  0  2  0  0  0  0  0  0
  189.4620  177.3380  147.7760 S   0  0  0  0  0  0  0  0  0  0  0  0
  191.7000  176.4370  145.6450 C   0  0  0  0  0  2  0  0  0  0  0  0
  191.2810  177.1900  147.8820 C   0  0  0  0  0  2  0  0  0  0  0  0
  190.5350  177.2590  145.2910 N   0  0  0  0  0  2  0  0  0  0  0  0
  185.6350  176.0230  136.9190 N   0  0  0  0  0  2  0  0  0  0  0  0
  186.3150  175.4520  135.4310 S   0  0  0  0  0  0  0  0  0  0  0  0
  186.8000  176.6170  134.6140 O   0  0  0  0  0  0  0  0  0  0  0  0
  185.2590  174.7150  134.6590 O   0  0  0  0  0  0  0  0  0  0  0  0
  187.6770  174.3520  135.7570 C   0  0  0  0  0  2  0  0  0  0  0  0
  188.5070  174.9060  136.7650 O   0  0  0  0  0  0  0  0  0  0  0  0
  190.5490  175.4440  135.8720 O   0  0  0  0  0  0  0  0  0  0  0  0
  189.8930  174.7780  136.7140 C   0  0  0  0  0  0  0  0  0  0  0  0
  190.5600  173.9160  137.5800 O   0  0  0  0  0  1  0  0  0  0  0  0
  1  8  1  0  0  0  0
  3  1  1  0  0  0  0
  4 20  2  0  0  0  0
  4  6  1  0  0  0  0
  5 10  1  0  0  0  0
  6 14  2  0  0  0  0
  7 15  1  0  0  0  0
  9 17  1  0  0  0  0
 10 13  2  0  0  0  0
 10 18  1  0  0  0  0
 11 32  1  1  0  0  0
 11 16  1  0  0  0  0
 11  9  1  0  0  0  0
 12  1  2  0  0  0  0
 13 12  1  0  0  0  0
 14 12  1  0  0  0  0
 14 24  1  0  0  0  0
 15  5  2  0  0  0  0
 15 20  1  0  0  0  0
 16  2  1  0  0  0  0
 17  2  1  1  0  0  0
 17  4  1  0  0  0  0
 18  3  2  0  0  0  0
 19  9  2  0  0  0  0
 19  7  1  0  0  0  0
 20 13  1  0  0  0  0
 21 22  2  0  0  0  0
 23 24  1  0  0  0  0
 23 21  1  0  0  0  0
 24 25  2  0  0  0  0
 25 22  1  0  0  0  0
 26 21  1  6  0  0  0
 26 28  1  0  0  0  0
 27 30  1  0  0  0  0
 28 30  1  0  0  0  0
 29 27  1  0  0  0  0
 31 29  1  0  0  0  0
 31 26  1  0  0  0  0
 33 36  1  0  0  0  0
 33 32  1  0  0  0  0
 34 33  2  0  0  0  0
 35 33  2  0  0  0  0
 36 37  1  0  0  0  0
 38 39  2  0  0  0  0
 39 37  1  0  0  0  0
 39 40  1  0  0  0  0
M  END
>  <MODEL>
7

>  <REMARK>
 VINA RESULT:      -8.1      4.634      7.698
  Name = 
  7 active torsions:
  status: ('A' for Active; 'I' for Inactive)
    1  A    between atoms: C_3  and  C_5
    2  A    between atoms: S_6  and  C_7
    3  A    between atoms: S_6  and  N_17
    4  A    between atoms: C_7  and  O_14
    5  A    between atoms: O_14  and  C_22
    6  A    between atoms: N_17  and  C_26
    7  A    between atoms: C_29  and  C_35
                            x       y       z     vdW  Elec       q    Type
                         _______ _______ _______ _____ _____    ______ ____

>  <TORSDO>
F 7

$$$$
=
 OpenBabel11042413203D

 40 46  0  0  1  0  0  0  0  0999 V2000
  181.8430  179.0350  142.4540 C   0  0  0  0  0  0  0  0  0  0  0  0
  187.9220  176.4350  142.7800 C   0  0  0  0  0  2  0  0  0  0  0  0
  181.1180  179.4970  143.5860 C   0  0  0  0  0  3  0  0  0  0  0  0
  185.7860  177.6440  143.3890 C   0  0  0  0  0  0  0  0  0  0  0  0
  183.7790  179.0020  146.1020 N   0  0  0  0  0  0  0  0  0  0  0  0
  185.3430  177.5560  142.0440 C   0  0  0  0  0  3  0  0  0  0  0  0
  186.0330  178.3940  146.4580 C   0  0  0  0  0  2  0  0  0  0  0  0
  181.1000  178.9320  141.1680 C   0  0  0  0  0  1  0  0  0  0  0  0
  187.8170  177.5080  144.8970 C   0  0  0  0  0  0  0  0  0  0  0  0
  183.0190  179.1040  144.9880 C   0  0  0  0  0  0  0  0  0  0  0  0
  189.2620  177.3060  144.6240 C   0  0  1  0  0  3  0  0  0  0  0  0
  183.1970  178.6140  142.6090 C   0  0  0  0  0  0  0  0  0  0  0  0
  183.7010  178.6830  143.8970 C   0  0  0  0  0  0  0  0  0  0  0  0
  184.0850  178.0770  141.6280 C   0  0  0  0  0  0  0  0  0  0  0  0
  184.9680  178.4970  145.6620 C   0  0  0  0  0  0  0  0  0  0  0  0
  189.3000  176.3780  143.4230 C   0  0  0  0  0  2  0  0  0  0  0  0
  186.9530  176.8340  143.8860 C   0  0  2  0  0  3  0  0  0  0  0  0
  181.7030  179.5390  144.8720 C   0  0  0  0  0  3  0  0  0  0  0  0
  187.4130  178.0700  146.0420 C   0  0  0  0  0  3  0  0  0  0  0  0
  184.9240  178.2660  144.2910 C   0  0  0  0  0  0  0  0  0  0  0  0
  182.8940  177.6740  137.9460 C   0  0  0  0  0  0  0  0  0  0  0  0
  183.4670  178.8920  138.0630 N   0  0  0  0  0  0  0  0  0  0  0  0
  182.9470  176.8210  139.3970 S   0  0  0  0  0  0  0  0  0  0  0  0
  183.7880  178.0480  140.1890 C   0  0  0  0  0  0  0  0  0  0  0  0
  183.9560  179.1140  139.3130 C   0  0  0  0  0  3  0  0  0  0  0  0
  182.2300  177.2070  136.6950 C   0  0  2  0  0  3  0  0  0  0  0  0
  180.8340  176.2540  134.5940 N   0  0  0  0  0  2  0  0  0  0  0  0
  181.1350  178.5170  136.0340 S   0  0  0  0  0  0  0  0  0  0  0  0
  181.1560  175.3170  135.6800 C   0  0  0  0  0  2  0  0  0  0  0  0
  180.0510  177.3680  135.1130 C   0  0  0  0  0  2  0  0  0  0  0  0
  181.4680  175.9900  136.9490 N   0  0  0  0  0  2  0  0  0  0  0  0
  189.8770  178.5780  144.2720 N   0  0  0  0  0  2  0  0  0  0  0  0
  191.5780  178.3090  144.0760 S   0  0  0  0  0  0  0  0  0  0  0  0
  192.3410  179.5070  144.5690 O   0  0  0  0  0  0  0  0  0  0  0  0
  191.8790  178.0980  142.6200 O   0  0  0  0  0  0  0  0  0  0  0  0
  192.0850  176.8690  144.9920 C   0  0  0  0  0  2  0  0  0  0  0  0
  192.0250  177.1430  146.3830 O   0  0  0  0  0  0  0  0  0  0  0  0
  190.9160  175.5510  147.6040 O   0  0  0  0  0  0  0  0  0  0  0  0
  192.0050  176.1160  147.3240 C   0  0  0  0  0  0  0  0  0  0  0  0
  193.1730  175.7110  147.9620 O   0  0  0  0  0  1  0  0  0  0  0  0
  1 12  2  0  0  0  0
  1  3  1  0  0  0  0
  2 16  1  0  0  0  0
  3 18  2  0  0  0  0
  4 17  1  0  0  0  0
  4 20  2  0  0  0  0
  6  4  1  0  0  0  0
  8  1  1  0  0  0  0
  9 19  2  0  0  0  0
 10  5  1  0  0  0  0
 11 32  1  6  0  0  0
 11  9  1  0  0  0  0
 12 13  1  0  0  0  0
 13 20  1  0  0  0  0
 13 10  2  0  0  0  0
 14  6  2  0  0  0  0
 14 12  1  0  0  0  0
 15  5  2  0  0  0  0
 15  7  1  0  0  0  0
 16 11  1  0  0  0  0
 17  2  1  6  0  0  0
 17  9  1  0  0  0  0
 18 10  1  0  0  0  0
 19  7  1  0  0  0  0
 20 15  1  0  0  0  0
 21 22  2  0  0  0  0
 21 23  1  0  0  0  0
 22 25  1  0  0  0  0
 23 24  1  0  0  0  0
 24 14  1  0  0  0  0
 25 24  2  0  0  0  0
 26 31  1  0  0  0  0
 26 21  1  1  0  0  0
 27 30  1  0  0  0  0
 27 29  1  0  0  0  0
 28 26  1  0  0  0  0
 29 31  1  0  0  0  0
 30 28  1  0  0  0  0
 33 32  1  0  0  0  0
 33 34  2  0  0  0  0
 33 36  1  0  0  0  0
 35 33  2  0  0  0  0
 36 37  1  0  0  0  0
 37 39  1  0  0  0  0
 39 38  2  0  0  0  0
 39 40  1  0  0  0  0
M  END
>  <MODEL>
8

>  <REMARK>
 VINA RESULT:      -7.6      5.564      8.936
  Name = 
  7 active torsions:
  status: ('A' for Active; 'I' for Inactive)
    1  A    between atoms: C_3  and  C_5
    2  A    between atoms: S_6  and  C_7
    3  A    between atoms: S_6  and  N_17
    4  A    between atoms: C_7  and  O_14
    5  A    between atoms: O_14  and  C_22
    6  A    between atoms: N_17  and  C_26
    7  A    between atoms: C_29  and  C_35
                            x       y       z     vdW  Elec       q    Type
                         _______ _______ _______ _____ _____    ______ ____

>  <TORSDO>
F 7

$$$$
=
 OpenBabel11042413203D

 40 46  0  0  1  0  0  0  0  0999 V2000
  184.6460  178.7410  144.7080 C   0  0  0  0  0  0  0  0  0  0  0  0
  186.6520  178.2070  138.4220 C   0  0  0  0  0  2  0  0  0  0  0  0
  183.3020  179.0020  145.0900 C   0  0  0  0  0  3  0  0  0  0  0  0
  185.1830  178.3470  140.4760 C   0  0  0  0  0  0  0  0  0  0  0  0
  181.8050  178.8870  141.7140 N   0  0  0  0  0  0  0  0  0  0  0  0
  186.3260  178.2530  141.3110 C   0  0  0  0  0  3  0  0  0  0  0  0
  182.1950  178.4540  139.4250 C   0  0  0  0  0  2  0  0  0  0  0  0
  185.6820  178.8140  145.7750 C   0  0  0  0  0  1  0  0  0  0  0  0
  184.3100  177.9410  138.1330 C   0  0  0  0  0  0  0  0  0  0  0  0
  182.6010  178.8430  142.8070 C   0  0  0  0  0  0  0  0  0  0  0  0
  184.9300  177.3670  136.9120 C   0  0  1  0  0  3  0  0  0  0  0  0
  184.9550  178.5120  143.3350 C   0  0  0  0  0  0  0  0  0  0  0  0
  183.8830  178.5790  142.4610 C   0  0  0  0  0  0  0  0  0  0  0  0
  186.2290  178.2810  142.7310 C   0  0  0  0  0  0  0  0  0  0  0  0
  182.6450  178.6390  140.6670 C   0  0  0  0  0  0  0  0  0  0  0  0
  186.3850  177.7970  136.9820 C   0  0  0  0  0  2  0  0  0  0  0  0
  185.3080  178.6280  139.0030 C   0  0  2  0  0  3  0  0  0  0  0  0
  182.2590  179.0530  144.1390 C   0  0  0  0  0  3  0  0  0  0  0  0
  182.9800  177.9730  138.2690 C   0  0  0  0  0  3  0  0  0  0  0  0
  183.9510  178.4730  141.1160 C   0  0  0  0  0  0  0  0  0  0  0  0
  189.3250  177.1450  144.7940 C   0  0  0  0  0  0  0  0  0  0  0  0
  189.7140  178.1630  143.9950 N   0  0  0  0  0  0  0  0  0  0  0  0
  187.6880  176.7990  144.6080 S   0  0  0  0  0  0  0  0  0  0  0  0
  187.4620  178.0430  143.4950 C   0  0  0  0  0  0  0  0  0  0  0  0
  188.6850  178.6610  143.2570 C   0  0  0  0  0  3  0  0  0  0  0  0
  190.2740  176.3880  145.6600 C   0  0  2  0  0  3  0  0  0  0  0  0
  192.1880  175.1830  147.1300 N   0  0  0  0  0  2  0  0  0  0  0  0
  190.3220  177.1210  147.3380 S   0  0  0  0  0  0  0  0  0  0  0  0
  192.4290  175.3340  145.6870 C   0  0  0  0  0  2  0  0  0  0  0  0
  191.9900  176.4910  147.7400 C   0  0  0  0  0  2  0  0  0  0  0  0
  191.6080  176.3860  145.0710 N   0  0  0  0  0  2  0  0  0  0  0  0
  184.8530  175.9130  136.9610 N   0  0  0  0  0  2  0  0  0  0  0  0
  183.9650  175.3830  135.5710 S   0  0  0  0  0  0  0  0  0  0  0  0
  182.9330  174.3700  135.9840 O   0  0  0  0  0  0  0  0  0  0  0  0
  184.9120  174.7490  134.5940 O   0  0  0  0  0  0  0  0  0  0  0  0
  183.1560  176.7640  134.7900 C   0  0  0  0  0  2  0  0  0  0  0  0
  181.7590  176.6980  135.0320 O   0  0  0  0  0  0  0  0  0  0  0  0
  181.4700  178.9540  134.7480 O   0  0  0  0  0  0  0  0  0  0  0  0
  180.9450  177.8190  134.8870 C   0  0  0  0  0  0  0  0  0  0  0  0
  179.5590  177.6990  134.9010 O   0  0  0  0  0  1  0  0  0  0  0  0
  1  3  1  0  0  0  0
  1  8  1  0  0  0  0
  4 20  2  0  0  0  0
  4  6  1  0  0  0  0
  5 10  1  0  0  0  0
  6 14  2  0  0  0  0
  7 15  1  0  0  0  0
  9 19  2  0  0  0  0
  9 17  1  0  0  0  0
 10 18  1  0  0  0  0
 11 32  1  1  0  0  0
 11 16  1  0  0  0  0
 11  9  1  0  0  0  0
 12  1  2  0  0  0  0
 13 10  2  0  0  0  0
 13 12  1  0  0  0  0
 14 12  1  0  0  0  0
 14 24  1  0  0  0  0
 15 20  1  0  0  0  0
 15  5  2  0  0  0  0
 16  2  1  0  0  0  0
 17  2  1  6  0  0  0
 17  4  1  0  0  0  0
 18  3  2  0  0  0  0
 19  7  1  0  0  0  0
 20 13  1  0  0  0  0
 22 21  2  0  0  0  0
 23 21  1  0  0  0  0
 24 23  1  0  0  0  0
 25 24  2  0  0  0  0
 25 22  1  0  0  0  0
 26 21  1  6  0  0  0
 26 28  1  0  0  0  0
 27 30  1  0  0  0  0
 28 30  1  0  0  0  0
 29 27  1  0  0  0  0
 31 26  1  0  0  0  0
 31 29  1  0  0  0  0
 33 34  2  0  0  0  0
 33 32  1  0  0  0  0
 35 33  2  0  0  0  0
 36 37  1  0  0  0  0
 36 33  1  0  0  0  0
 38 39  2  0  0  0  0
 39 40  1  0  0  0  0
 39 37  1  0  0  0  0
M  END
>  <MODEL>
9

>  <REMARK>
 VINA RESULT:      -7.6      4.427      6.303
  Name = 
  7 active torsions:
  status: ('A' for Active; 'I' for Inactive)
    1  A    between atoms: C_3  and  C_5
    2  A    between atoms: S_6  and  C_7
    3  A    between atoms: S_6  and  N_17
    4  A    between atoms: C_7  and  O_14
    5  A    between atoms: O_14  and  C_22
    6  A    between atoms: N_17  and  C_26
    7  A    between atoms: C_29  and  C_35
                            x       y       z     vdW  Elec       q    Type
                         _______ _______ _______ _____ _____    ______ ____

>  <TORSDO>
F 7

$$$$
