=
 OpenBabel11042412013D

 28 31  0  0  0  0  0  0  0  0999 V2000
  181.8880  179.2190  143.0260 N   0  0  0  0  0  2  0  0  0  0  0  0
  182.6760  178.7040  141.9890 C   0  0  0  0  0  0  0  0  0  0  0  0
  183.2000  178.7850  143.2540 C   0  0  0  0  0  0  0  0  0  0  0  0
  184.3160  178.5790  144.1680 C   0  0  0  0  0  0  0  0  0  0  0  0
  186.4930  178.1120  145.2730 C   0  0  0  0  0  0  0  0  0  0  0  0
  185.8670  178.1330  143.7090 S   0  0  0  0  0  0  0  0  0  0  0  0
  184.2560  178.7200  145.5460 C   0  0  0  0  0  3  0  0  0  0  0  0
  185.4840  178.4570  146.1700 C   0  0  0  0  0  3  0  0  0  0  0  0
  190.5370  177.1530  146.3310 C   0  0  0  0  0  0  0  0  0  0  0  0
  190.1640  177.2620  144.9820 C   0  0  0  0  0  3  0  0  0  0  0  0
  188.8470  177.5760  144.6380 C   0  0  0  0  0  3  0  0  0  0  0  0
  189.5770  177.3580  147.3270 C   0  0  0  0  0  3  0  0  0  0  0  0
  188.2590  177.6720  146.9820 C   0  0  0  0  0  3  0  0  0  0  0  0
  187.8830  177.7830  145.6350 C   0  0  0  0  0  0  0  0  0  0  0  0
  191.8460  176.8400  146.7070 O   0  0  0  0  0  0  0  0  0  0  0  0
  192.1720  175.6810  147.4620 C   0  0  0  0  0  1  0  0  0  0  0  0
  182.8430  178.3550  140.5510 C   0  0  0  0  0  2  0  0  0  0  0  0
  183.6860  179.3840  139.8690 C   0  0  0  0  0  0  0  0  0  0  0  0
  183.2090  180.1580  138.8930 C   0  0  0  0  0  3  0  0  0  0  0  0
  185.0150  179.5260  140.2520 O   0  0  0  0  0  1  0  0  0  0  0  0
  181.7970  180.0930  138.3930 C   0  0  0  0  0  2  0  0  0  0  0  0
  181.1560  181.3610  138.5120 O   0  0  0  0  0  0  0  0  0  0  0  0
  181.0510  182.2760  137.4590 C   0  0  0  0  0  0  0  0  0  0  0  0
  181.2320  184.5280  136.5620 C   0  0  0  0  0  3  0  0  0  0  0  0
  180.8180  184.0630  135.3100 C   0  0  0  0  0  3  0  0  0  0  0  0
  180.5200  182.7080  135.1320 C   0  0  0  0  0  3  0  0  0  0  0  0
  181.3490  183.6380  137.6340 C   0  0  0  0  0  3  0  0  0  0  0  0
  180.6360  181.8190  136.2040 C   0  0  0  0  0  3  0  0  0  0  0  0
  1  3  1  0  0  0  0
  2  1  1  0  0  0  0
  2  3  2  0  0  0  0
  3  4  1  0  0  0  0
  4  7  2  0  0  0  0
  5 14  1  0  0  0  0
  5  8  2  0  0  0  0
  6  4  1  0  0  0  0
  6  5  1  0  0  0  0
  7  8  1  0  0  0  0
  9 15  1  0  0  0  0
  9 12  1  0  0  0  0
 10  9  2  0  0  0  0
 11 10  1  0  0  0  0
 11 14  2  0  0  0  0
 13 12  2  0  0  0  0
 14 13  1  0  0  0  0
 15 16  1  0  0  0  0
 17  2  1  0  0  0  0
 18 20  1  0  0  0  0
 18 17  1  0  0  0  0
 19 18  2  0  0  0  0
 21 22  1  0  0  0  0
 21 19  1  0  0  0  0
 23 27  1  0  0  0  0
 23 22  1  0  0  0  0
 24 27  2  0  0  0  0
 25 24  1  0  0  0  0
 26 25  2  0  0  0  0
 26 28  1  0  0  0  0
 28 23  2  0  0  0  0
M  END
>  <MODEL>
1

>  <REMARK>
 VINA RESULT:      -9.0      0.000      0.000
  Name = 
  8 active torsions:
  status: ('A' for Active; 'I' for Inactive)
    1  A    between atoms: C_1  and  C_18
    2  A    between atoms: C_2  and  C_16
    3  A    between atoms: O_3  and  C_4
    4  A    between atoms: C_5  and  C_28
    5  A    between atoms: C_9  and  O_17
    6  A    between atoms: C_13  and  C_16
    7  A    between atoms: O_17  and  C_26
    8  A    between atoms: C_20  and  C_26
                            x       y       z     vdW  Elec       q    Type
                         _______ _______ _______ _____ _____    ______ ____

>  <TORSDO>
F 8

$$$$
=
 OpenBabel11042412013D

 28 31  0  0  0  0  0  0  0  0999 V2000
  181.9340  179.2180  142.9990 N   0  0  0  0  0  2  0  0  0  0  0  0
  182.6920  178.5180  142.0510 C   0  0  0  0  0  0  0  0  0  0  0  0
  183.2110  178.7290  143.3020 C   0  0  0  0  0  0  0  0  0  0  0  0
  184.3050  178.5700  144.2530 C   0  0  0  0  0  0  0  0  0  0  0  0
  186.4500  178.1490  145.4360 C   0  0  0  0  0  0  0  0  0  0  0  0
  185.8580  178.0710  143.8610 S   0  0  0  0  0  0  0  0  0  0  0  0
  184.2180  178.8070  145.6170 C   0  0  0  0  0  3  0  0  0  0  0  0
  185.4280  178.5700  146.2840 C   0  0  0  0  0  3  0  0  0  0  0  0
  190.4570  177.2100  146.6410 C   0  0  0  0  0  0  0  0  0  0  0  0
  189.4230  177.2500  147.5890 C   0  0  0  0  0  3  0  0  0  0  0  0
  188.1170  177.5550  147.1950 C   0  0  0  0  0  3  0  0  0  0  0  0
  190.1690  177.4810  145.3000 C   0  0  0  0  0  3  0  0  0  0  0  0
  188.8630  177.7860  144.9070 C   0  0  0  0  0  3  0  0  0  0  0  0
  187.8260  177.8250  145.8510 C   0  0  0  0  0  0  0  0  0  0  0  0
  191.7720  176.9090  147.0030 O   0  0  0  0  0  0  0  0  0  0  0  0
  192.2460  175.5760  147.1360 C   0  0  0  0  0  1  0  0  0  0  0  0
  182.8430  177.9710  140.6740 C   0  0  0  0  0  2  0  0  0  0  0  0
  183.2590  179.0580  139.7350 C   0  0  0  0  0  0  0  0  0  0  0  0
  184.5420  179.3300  139.4890 C   0  0  0  0  0  3  0  0  0  0  0  0
  182.2780  179.8200  139.1120 O   0  0  0  0  0  1  0  0  0  0  0  0
  185.6860  178.5800  140.1050 C   0  0  0  0  0  2  0  0  0  0  0  0
  186.8360  178.6290  139.2650 O   0  0  0  0  0  0  0  0  0  0  0  0
  188.0900  178.1350  139.6410 C   0  0  0  0  0  0  0  0  0  0  0  0
  189.7120  177.4940  141.3340 C   0  0  0  0  0  3  0  0  0  0  0  0
  190.6200  177.1410  140.3310 C   0  0  0  0  0  3  0  0  0  0  0  0
  190.2660  177.2850  138.9860 C   0  0  0  0  0  3  0  0  0  0  0  0
  188.4500  177.9900  140.9910 C   0  0  0  0  0  3  0  0  0  0  0  0
  189.0040  177.7820  138.6430 C   0  0  0  0  0  3  0  0  0  0  0  0
  1  3  1  0  0  0  0
  2  1  1  0  0  0  0
  2  3  2  0  0  0  0
  3  4  1  0  0  0  0
  4  7  2  0  0  0  0
  5 14  1  0  0  0  0
  5  8  2  0  0  0  0
  6  4  1  0  0  0  0
  6  5  1  0  0  0  0
  7  8  1  0  0  0  0
  9 15  1  0  0  0  0
  9 10  1  0  0  0  0
 11 10  2  0  0  0  0
 12  9  2  0  0  0  0
 13 12  1  0  0  0  0
 13 14  2  0  0  0  0
 14 11  1  0  0  0  0
 15 16  1  0  0  0  0
 17  2  1  0  0  0  0
 18 17  1  0  0  0  0
 19 18  2  0  0  0  0
 19 21  1  0  0  0  0
 20 18  1  0  0  0  0
 22 23  1  0  0  0  0
 22 21  1  0  0  0  0
 23 27  1  0  0  0  0
 25 24  1  0  0  0  0
 26 25  2  0  0  0  0
 27 24  2  0  0  0  0
 28 26  1  0  0  0  0
 28 23  2  0  0  0  0
M  END
>  <MODEL>
2

>  <REMARK>
 VINA RESULT:      -9.0      2.870      5.368
  Name = 
  8 active torsions:
  status: ('A' for Active; 'I' for Inactive)
    1  A    between atoms: C_1  and  C_18
    2  A    between atoms: C_2  and  C_16
    3  A    between atoms: O_3  and  C_4
    4  A    between atoms: C_5  and  C_28
    5  A    between atoms: C_9  and  O_17
    6  A    between atoms: C_13  and  C_16
    7  A    between atoms: O_17  and  C_26
    8  A    between atoms: C_20  and  C_26
                            x       y       z     vdW  Elec       q    Type
                         _______ _______ _______ _____ _____    ______ ____

>  <TORSDO>
F 8

$$$$
=
 OpenBabel11042412013D

 28 31  0  0  0  0  0  0  0  0999 V2000
  181.7790  179.3490  142.7030 N   0  0  0  0  0  2  0  0  0  0  0  0
  182.5940  178.6310  141.8190 C   0  0  0  0  0  0  0  0  0  0  0  0
  183.0170  178.8350  143.1070 C   0  0  0  0  0  0  0  0  0  0  0  0
  184.0280  178.6550  144.1430 C   0  0  0  0  0  0  0  0  0  0  0  0
  186.0630  178.1940  145.4920 C   0  0  0  0  0  0  0  0  0  0  0  0
  185.5980  178.1280  143.8750 S   0  0  0  0  0  0  0  0  0  0  0  0
  183.8360  178.8930  145.4950 C   0  0  0  0  0  3  0  0  0  0  0  0
  184.9840  178.6330  146.2570 C   0  0  0  0  0  3  0  0  0  0  0  0
  189.9400  177.1770  147.0190 C   0  0  0  0  0  0  0  0  0  0  0  0
  189.6970  177.1640  145.6360 C   0  0  0  0  0  3  0  0  0  0  0  0
  188.4330  177.4970  145.1400 C   0  0  0  0  0  3  0  0  0  0  0  0
  188.9060  177.5240  147.8940 C   0  0  0  0  0  3  0  0  0  0  0  0
  187.6420  177.8570  147.3960 C   0  0  0  0  0  3  0  0  0  0  0  0
  187.3960  177.8460  146.0160 C   0  0  0  0  0  0  0  0  0  0  0  0
  191.1910  176.8500  147.5460 O   0  0  0  0  0  0  0  0  0  0  0  0
  192.0500  175.8900  146.9460 C   0  0  0  0  0  1  0  0  0  0  0  0
  182.8430  178.0780  140.4590 C   0  0  0  0  0  2  0  0  0  0  0  0
  183.3550  179.1530  139.5550 C   0  0  0  0  0  0  0  0  0  0  0  0
  184.6590  179.3810  139.3920 C   0  0  0  0  0  3  0  0  0  0  0  0
  182.4420  179.9520  138.8770 O   0  0  0  0  0  1  0  0  0  0  0  0
  185.7350  178.5890  140.0730 C   0  0  0  0  0  2  0  0  0  0  0  0
  186.9470  178.6270  139.3230 O   0  0  0  0  0  0  0  0  0  0  0  0
  188.1730  178.1640  139.8110 C   0  0  0  0  0  0  0  0  0  0  0  0
  190.4420  177.3610  139.4680 C   0  0  0  0  0  3  0  0  0  0  0  0
  190.6070  177.2370  140.8510 C   0  0  0  0  0  3  0  0  0  0  0  0
  189.5590  177.5750  141.7130 C   0  0  0  0  0  3  0  0  0  0  0  0
  189.2290  177.8220  138.9480 C   0  0  0  0  0  3  0  0  0  0  0  0
  188.3460  178.0360  141.1930 C   0  0  0  0  0  3  0  0  0  0  0  0
  1  3  1  0  0  0  0
  2  1  1  0  0  0  0
  2  3  2  0  0  0  0
  3  4  1  0  0  0  0
  4  7  2  0  0  0  0
  5 14  1  0  0  0  0
  5  8  2  0  0  0  0
  6  4  1  0  0  0  0
  6  5  1  0  0  0  0
  7  8  1  0  0  0  0
  9 15  1  0  0  0  0
  9 12  1  0  0  0  0
 10  9  2  0  0  0  0
 11 10  1  0  0  0  0
 11 14  2  0  0  0  0
 13 12  2  0  0  0  0
 14 13  1  0  0  0  0
 16 15  1  0  0  0  0
 17  2  1  0  0  0  0
 18 17  1  0  0  0  0
 19 18  2  0  0  0  0
 19 21  1  0  0  0  0
 20 18  1  0  0  0  0
 22 23  1  0  0  0  0
 22 21  1  0  0  0  0
 23 28  1  0  0  0  0
 24 25  2  0  0  0  0
 25 26  1  0  0  0  0
 27 24  1  0  0  0  0
 27 23  2  0  0  0  0
 28 26  2  0  0  0  0
M  END
>  <MODEL>
3

>  <REMARK>
 VINA RESULT:      -8.9      2.838      5.409
  Name = 
  8 active torsions:
  status: ('A' for Active; 'I' for Inactive)
    1  A    between atoms: C_1  and  C_18
    2  A    between atoms: C_2  and  C_16
    3  A    between atoms: O_3  and  C_4
    4  A    between atoms: C_5  and  C_28
    5  A    between atoms: C_9  and  O_17
    6  A    between atoms: C_13  and  C_16
    7  A    between atoms: O_17  and  C_26
    8  A    between atoms: C_20  and  C_26
                            x       y       z     vdW  Elec       q    Type
                         _______ _______ _______ _____ _____    ______ ____

>  <TORSDO>
F 8

$$$$
=
 OpenBabel11042412013D

 28 31  0  0  0  0  0  0  0  0999 V2000
  190.1100  176.8050  147.3130 N   0  0  0  0  0  2  0  0  0  0  0  0
  190.5040  176.9810  145.9810 C   0  0  0  0  0  0  0  0  0  0  0  0
  189.2090  177.2540  146.3390 C   0  0  0  0  0  0  0  0  0  0  0  0
  187.8660  177.6860  145.9710 C   0  0  0  0  0  0  0  0  0  0  0  0
  185.7180  178.2410  144.8510 C   0  0  0  0  0  0  0  0  0  0  0  0
  187.1980  177.5510  144.4380 S   0  0  0  0  0  0  0  0  0  0  0  0
  186.9500  178.2700  146.8330 C   0  0  0  0  0  3  0  0  0  0  0  0
  185.7380  178.5830  146.2020 C   0  0  0  0  0  3  0  0  0  0  0  0
  182.4150  178.8520  142.1840 C   0  0  0  0  0  0  0  0  0  0  0  0
  183.6700  178.4700  141.6830 C   0  0  0  0  0  3  0  0  0  0  0  0
  184.7450  178.2700  142.5530 C   0  0  0  0  0  3  0  0  0  0  0  0
  182.2530  179.0330  143.5610 C   0  0  0  0  0  3  0  0  0  0  0  0
  183.3290  178.8330  144.4310 C   0  0  0  0  0  3  0  0  0  0  0  0
  184.5840  178.4500  143.9340 C   0  0  0  0  0  0  0  0  0  0  0  0
  181.3210  179.0600  141.3410 O   0  0  0  0  0  0  0  0  0  0  0  0
  180.5860  177.9920  140.7600 C   0  0  0  0  0  1  0  0  0  0  0  0
  191.5530  176.8990  144.9280 C   0  0  0  0  0  2  0  0  0  0  0  0
  191.4120  178.0420  143.9740 C   0  0  0  0  0  0  0  0  0  0  0  0
  190.8490  177.8980  142.7730 C   0  0  0  0  0  3  0  0  0  0  0  0
  191.8970  179.2910  144.3440 O   0  0  0  0  0  1  0  0  0  0  0  0
  190.2940  176.6020  142.2630 C   0  0  0  0  0  2  0  0  0  0  0  0
  189.1990  176.8300  141.3790 O   0  0  0  0  0  0  0  0  0  0  0  0
  189.3520  177.2070  140.0400 C   0  0  0  0  0  0  0  0  0  0  0  0
  188.7870  178.6140  138.1410 C   0  0  0  0  0  3  0  0  0  0  0  0
  189.7000  177.9120  137.3490 C   0  0  0  0  0  3  0  0  0  0  0  0
  190.4380  176.8600  137.8990 C   0  0  0  0  0  3  0  0  0  0  0  0
  188.6110  178.2630  139.4830 C   0  0  0  0  0  3  0  0  0  0  0  0
  190.2630  176.5080  139.2410 C   0  0  0  0  0  3  0  0  0  0  0  0
  2  3  2  0  0  0  0
  2  1  1  0  0  0  0
  3  1  1  0  0  0  0
  4  3  1  0  0  0  0
  4  7  2  0  0  0  0
  5  8  2  0  0  0  0
  6  5  1  0  0  0  0
  6  4  1  0  0  0  0
  8  7  1  0  0  0  0
  9 12  1  0  0  0  0
 10  9  2  0  0  0  0
 10 11  1  0  0  0  0
 11 14  2  0  0  0  0
 12 13  2  0  0  0  0
 14 13  1  0  0  0  0
 14  5  1  0  0  0  0
 15  9  1  0  0  0  0
 16 15  1  0  0  0  0
 17  2  1  0  0  0  0
 18 20  1  0  0  0  0
 18 17  1  0  0  0  0
 19 18  2  0  0  0  0
 21 19  1  0  0  0  0
 22 21  1  0  0  0  0
 23 22  1  0  0  0  0
 24 27  2  0  0  0  0
 25 26  2  0  0  0  0
 25 24  1  0  0  0  0
 26 28  1  0  0  0  0
 27 23  1  0  0  0  0
 28 23  2  0  0  0  0
M  END
>  <MODEL>
4

>  <REMARK>
 VINA RESULT:      -8.8      4.092      8.537
  Name = 
  8 active torsions:
  status: ('A' for Active; 'I' for Inactive)
    1  A    between atoms: C_1  and  C_18
    2  A    between atoms: C_2  and  C_16
    3  A    between atoms: O_3  and  C_4
    4  A    between atoms: C_5  and  C_28
    5  A    between atoms: C_9  and  O_17
    6  A    between atoms: C_13  and  C_16
    7  A    between atoms: O_17  and  C_26
    8  A    between atoms: C_20  and  C_26
                            x       y       z     vdW  Elec       q    Type
                         _______ _______ _______ _____ _____    ______ ____

>  <TORSDO>
F 8

$$$$
=
 OpenBabel11042412013D

 28 31  0  0  0  0  0  0  0  0999 V2000
  188.8810  178.2510  148.5290 N   0  0  0  0  0  2  0  0  0  0  0  0
  189.1690  177.1730  147.6820 C   0  0  0  0  0  0  0  0  0  0  0  0
  188.0390  177.9190  147.4600 C   0  0  0  0  0  0  0  0  0  0  0  0
  186.8320  178.1730  146.6820 C   0  0  0  0  0  0  0  0  0  0  0  0
  185.0830  178.4500  144.9380 C   0  0  0  0  0  0  0  0  0  0  0  0
  186.6950  177.9670  145.0230 S   0  0  0  0  0  0  0  0  0  0  0  0
  185.6270  178.6200  147.2020 C   0  0  0  0  0  3  0  0  0  0  0  0
  184.6400  178.7770  146.2190 C   0  0  0  0  0  3  0  0  0  0  0  0
  182.7230  178.6400  141.3630 C   0  0  0  0  0  0  0  0  0  0  0  0
  182.1670  179.0040  142.6000 C   0  0  0  0  0  3  0  0  0  0  0  0
  182.9370  178.9430  143.7640 C   0  0  0  0  0  3  0  0  0  0  0  0
  184.0530  178.2140  141.3080 C   0  0  0  0  0  3  0  0  0  0  0  0
  184.8230  178.1530  142.4730 C   0  0  0  0  0  3  0  0  0  0  0  0
  184.2720  178.5170  143.7100 C   0  0  0  0  0  0  0  0  0  0  0  0
  181.9790  178.6900  140.1810 O   0  0  0  0  0  0  0  0  0  0  0  0
  182.5000  179.2140  138.9680 C   0  0  0  0  0  1  0  0  0  0  0  0
  190.0430  176.0270  147.3090 C   0  0  0  0  0  2  0  0  0  0  0  0
  191.3320  176.5310  146.7420 C   0  0  0  0  0  0  0  0  0  0  0  0
  191.4920  176.7570  145.4380 C   0  0  0  0  0  3  0  0  0  0  0  0
  192.4030  176.7530  147.6000 O   0  0  0  0  0  1  0  0  0  0  0  0
  190.4130  176.5500  144.4170 C   0  0  0  0  0  2  0  0  0  0  0  0
  190.2110  177.7290  143.6430 O   0  0  0  0  0  0  0  0  0  0  0  0
  189.8500  177.7150  142.2910 C   0  0  0  0  0  0  0  0  0  0  0  0
  188.3000  178.2250  140.4900 C   0  0  0  0  0  3  0  0  0  0  0  0
  189.1830  177.6540  139.5690 C   0  0  0  0  0  3  0  0  0  0  0  0
  190.3970  177.1140  140.0050 C   0  0  0  0  0  3  0  0  0  0  0  0
  188.6320  178.2560  141.8480 C   0  0  0  0  0  3  0  0  0  0  0  0
  190.7280  177.1450  141.3640 C   0  0  0  0  0  3  0  0  0  0  0  0
  2  1  1  0  0  0  0
  3  2  2  0  0  0  0
  3  1  1  0  0  0  0
  4  7  2  0  0  0  0
  4  3  1  0  0  0  0
  5  6  1  0  0  0  0
  5  8  2  0  0  0  0
  6  4  1  0  0  0  0
  8  7  1  0  0  0  0
  9 10  1  0  0  0  0
 10 11  2  0  0  0  0
 12  9  2  0  0  0  0
 12 13  1  0  0  0  0
 13 14  2  0  0  0  0
 14 11  1  0  0  0  0
 14  5  1  0  0  0  0
 15  9  1  0  0  0  0
 16 15  1  0  0  0  0
 17  2  1  0  0  0  0
 18 17  1  0  0  0  0
 18 20  1  0  0  0  0
 19 18  2  0  0  0  0
 21 19  1  0  0  0  0
 22 21  1  0  0  0  0
 23 22  1  0  0  0  0
 24 27  2  0  0  0  0
 25 26  2  0  0  0  0
 25 24  1  0  0  0  0
 26 28  1  0  0  0  0
 27 23  1  0  0  0  0
 28 23  2  0  0  0  0
M  END
>  <MODEL>
5

>  <REMARK>
 VINA RESULT:      -8.7      3.195      9.098
  Name = 
  8 active torsions:
  status: ('A' for Active; 'I' for Inactive)
    1  A    between atoms: C_1  and  C_18
    2  A    between atoms: C_2  and  C_16
    3  A    between atoms: O_3  and  C_4
    4  A    between atoms: C_5  and  C_28
    5  A    between atoms: C_9  and  O_17
    6  A    between atoms: C_13  and  C_16
    7  A    between atoms: O_17  and  C_26
    8  A    between atoms: C_20  and  C_26
                            x       y       z     vdW  Elec       q    Type
                         _______ _______ _______ _____ _____    ______ ____

>  <TORSDO>
F 8

$$$$
=
 OpenBabel11042412013D

 28 31  0  0  0  0  0  0  0  0999 V2000
  191.5520  176.7600  146.8440 N   0  0  0  0  0  2  0  0  0  0  0  0
  190.1520  176.7260  146.8790 C   0  0  0  0  0  0  0  0  0  0  0  0
  190.7890  176.9210  145.6800 C   0  0  0  0  0  0  0  0  0  0  0  0
  190.7200  177.1450  144.2420 C   0  0  0  0  0  0  0  0  0  0  0  0
  190.0670  177.5000  141.8700 C   0  0  0  0  0  0  0  0  0  0  0  0
  189.3030  177.2510  143.3500 S   0  0  0  0  0  0  0  0  0  0  0  0
  191.8150  177.3020  143.4050 C   0  0  0  0  0  3  0  0  0  0  0  0
  191.4460  177.5030  142.0670 C   0  0  0  0  0  3  0  0  0  0  0  0
  188.0930  178.0370  138.1000 C   0  0  0  0  0  0  0  0  0  0  0  0
  187.3990  178.2530  139.3010 C   0  0  0  0  0  3  0  0  0  0  0  0
  188.0430  178.0780  140.5290 C   0  0  0  0  0  3  0  0  0  0  0  0
  189.4340  177.6440  138.1450 C   0  0  0  0  0  3  0  0  0  0  0  0
  190.0780  177.4700  139.3740 C   0  0  0  0  0  3  0  0  0  0  0  0
  189.3880  177.6860  140.5750 C   0  0  0  0  0  0  0  0  0  0  0  0
  187.4770  178.2030  136.8570 O   0  0  0  0  0  0  0  0  0  0  0  0
  186.9550  177.1150  136.1080 C   0  0  0  0  0  1  0  0  0  0  0  0
  188.8870  176.6040  147.6550 C   0  0  0  0  0  2  0  0  0  0  0  0
  188.4610  177.9480  148.1540 C   0  0  0  0  0  0  0  0  0  0  0  0
  187.3230  178.5210  147.7620 C   0  0  0  0  0  3  0  0  0  0  0  0
  189.2870  178.6280  149.0410 O   0  0  0  0  0  1  0  0  0  0  0  0
  186.3560  177.8870  146.8070 C   0  0  0  0  0  2  0  0  0  0  0  0
  185.4250  178.8480  146.3130 O   0  0  0  0  0  0  0  0  0  0  0  0
  184.8410  178.7770  145.0440 C   0  0  0  0  0  0  0  0  0  0  0  0
  182.9320  179.0020  143.5560 C   0  0  0  0  0  3  0  0  0  0  0  0
  183.7270  178.6110  142.4760 C   0  0  0  0  0  3  0  0  0  0  0  0
  185.0760  178.3030  142.6760 C   0  0  0  0  0  3  0  0  0  0  0  0
  183.4860  179.0840  144.8380 C   0  0  0  0  0  3  0  0  0  0  0  0
  185.6300  178.3850  143.9570 C   0  0  0  0  0  3  0  0  0  0  0  0
  1  2  1  0  0  0  0
  2 17  1  0  0  0  0
  3  1  1  0  0  0  0
  3  2  2  0  0  0  0
  4  3  1  0  0  0  0
  5  8  2  0  0  0  0
  5  6  1  0  0  0  0
  6  4  1  0  0  0  0
  7  4  2  0  0  0  0
  8  7  1  0  0  0  0
  9 12  2  0  0  0  0
  9 10  1  0  0  0  0
 10 11  2  0  0  0  0
 11 14  1  0  0  0  0
 12 13  1  0  0  0  0
 13 14  2  0  0  0  0
 14  5  1  0  0  0  0
 15  9  1  0  0  0  0
 16 15  1  0  0  0  0
 17 18  1  0  0  0  0
 18 20  1  0  0  0  0
 19 18  2  0  0  0  0
 21 19  1  0  0  0  0
 22 21  1  0  0  0  0
 23 22  1  0  0  0  0
 24 27  2  0  0  0  0
 25 26  2  0  0  0  0
 25 24  1  0  0  0  0
 26 28  1  0  0  0  0
 27 23  1  0  0  0  0
 28 23  2  0  0  0  0
M  END
>  <MODEL>
6

>  <REMARK>
 VINA RESULT:      -8.5      4.942      8.726
  Name = 
  8 active torsions:
  status: ('A' for Active; 'I' for Inactive)
    1  A    between atoms: C_1  and  C_18
    2  A    between atoms: C_2  and  C_16
    3  A    between atoms: O_3  and  C_4
    4  A    between atoms: C_5  and  C_28
    5  A    between atoms: C_9  and  O_17
    6  A    between atoms: C_13  and  C_16
    7  A    between atoms: O_17  and  C_26
    8  A    between atoms: C_20  and  C_26
                            x       y       z     vdW  Elec       q    Type
                         _______ _______ _______ _____ _____    ______ ____

>  <TORSDO>
F 8

$$$$
=
 OpenBabel11042412013D

 28 31  0  0  0  0  0  0  0  0999 V2000
  189.8320  177.3980  137.0950 N   0  0  0  0  0  2  0  0  0  0  0  0
  188.6320  178.0060  137.4860 C   0  0  0  0  0  0  0  0  0  0  0  0
  189.5430  177.6420  138.4440 C   0  0  0  0  0  0  0  0  0  0  0  0
  189.9260  177.5580  139.8480 C   0  0  0  0  0  0  0  0  0  0  0  0
  190.0440  177.4420  142.3280 C   0  0  0  0  0  0  0  0  0  0  0  0
  188.8560  177.5580  141.1400 S   0  0  0  0  0  0  0  0  0  0  0  0
  191.2290  177.4670  140.3160 C   0  0  0  0  0  3  0  0  0  0  0  0
  191.2960  177.4020  141.7160 C   0  0  0  0  0  3  0  0  0  0  0  0
  189.3360  177.2920  146.5550 C   0  0  0  0  0  0  0  0  0  0  0  0
  190.6350  177.1300  146.0480 C   0  0  0  0  0  3  0  0  0  0  0  0
  190.8650  177.1800  144.6710 C   0  0  0  0  0  3  0  0  0  0  0  0
  188.2750  177.5010  145.6690 C   0  0  0  0  0  3  0  0  0  0  0  0
  188.5060  177.5520  144.2910 C   0  0  0  0  0  3  0  0  0  0  0  0
  189.8020  177.3910  143.7810 C   0  0  0  0  0  0  0  0  0  0  0  0
  189.0740  177.2460  147.9270 O   0  0  0  0  0  0  0  0  0  0  0  0
  187.9320  177.8580  148.5100 C   0  0  0  0  0  1  0  0  0  0  0  0
  187.3100  178.5900  137.1290 C   0  0  0  0  0  2  0  0  0  0  0  0
  186.2400  177.5550  137.2630 C   0  0  0  0  0  0  0  0  0  0  0  0
  185.1540  177.7510  138.0140 C   0  0  0  0  0  3  0  0  0  0  0  0
  186.3890  176.3430  136.6000 O   0  0  0  0  0  1  0  0  0  0  0  0
  184.8860  179.0130  138.7790 C   0  0  0  0  0  2  0  0  0  0  0  0
  185.5700  179.0050  140.0290 O   0  0  0  0  0  0  0  0  0  0  0  0
  184.9210  178.9130  141.2650 C   0  0  0  0  0  0  0  0  0  0  0  0
  184.9480  178.9060  143.6950 C   0  0  0  0  0  3  0  0  0  0  0  0
  183.5630  178.7180  143.7100 C   0  0  0  0  0  3  0  0  0  0  0  0
  182.8570  178.6270  142.5070 C   0  0  0  0  0  3  0  0  0  0  0  0
  185.6270  179.0030  142.4770 C   0  0  0  0  0  3  0  0  0  0  0  0
  183.5360  178.7230  141.2880 C   0  0  0  0  0  3  0  0  0  0  0  0
  1  2  1  0  0  0  0
  1  3  1  0  0  0  0
  2  3  2  0  0  0  0
  3  4  1  0  0  0  0
  4  7  2  0  0  0  0
  4  6  1  0  0  0  0
  5 14  1  0  0  0  0
  6  5  1  0  0  0  0
  7  8  1  0  0  0  0
  8  5  2  0  0  0  0
  9 15  1  0  0  0  0
 10  9  1  0  0  0  0
 11 10  2  0  0  0  0
 12  9  2  0  0  0  0
 13 12  1  0  0  0  0
 14 13  2  0  0  0  0
 14 11  1  0  0  0  0
 15 16  1  0  0  0  0
 17 18  1  0  0  0  0
 17  2  1  0  0  0  0
 18 19  2  0  0  0  0
 19 21  1  0  0  0  0
 20 18  1  0  0  0  0
 21 22  1  0  0  0  0
 22 23  1  0  0  0  0
 23 28  2  0  0  0  0
 23 27  1  0  0  0  0
 24 25  1  0  0  0  0
 26 25  2  0  0  0  0
 27 24  2  0  0  0  0
 28 26  1  0  0  0  0
M  END
>  <MODEL>
7

>  <REMARK>
 VINA RESULT:      -8.3      3.975      6.131
  Name = 
  8 active torsions:
  status: ('A' for Active; 'I' for Inactive)
    1  A    between atoms: C_1  and  C_18
    2  A    between atoms: C_2  and  C_16
    3  A    between atoms: O_3  and  C_4
    4  A    between atoms: C_5  and  C_28
    5  A    between atoms: C_9  and  O_17
    6  A    between atoms: C_13  and  C_16
    7  A    between atoms: O_17  and  C_26
    8  A    between atoms: C_20  and  C_26
                            x       y       z     vdW  Elec       q    Type
                         _______ _______ _______ _____ _____    ______ ____

>  <TORSDO>
F 8

$$$$
=
 OpenBabel11042412013D

 28 31  0  0  0  0  0  0  0  0999 V2000
  186.7730  178.5540  137.1210 N   0  0  0  0  0  2  0  0  0  0  0  0
  185.8250  178.3150  138.1240 C   0  0  0  0  0  0  0  0  0  0  0  0
  187.1590  178.1840  138.4150 C   0  0  0  0  0  0  0  0  0  0  0  0
  188.2130  177.8730  139.3730 C   0  0  0  0  0  0  0  0  0  0  0  0
  189.6170  177.4200  141.3740 C   0  0  0  0  0  0  0  0  0  0  0  0
  188.0170  177.8270  141.0390 S   0  0  0  0  0  0  0  0  0  0  0  0
  189.5260  177.5720  139.0460 C   0  0  0  0  0  3  0  0  0  0  0  0
  190.3190  177.3160  140.1740 C   0  0  0  0  0  3  0  0  0  0  0  0
  191.2640  176.8000  145.2840 C   0  0  0  0  0  0  0  0  0  0  0  0
  191.6870  176.0100  144.2040 C   0  0  0  0  0  3  0  0  0  0  0  0
  191.1500  176.2130  142.9300 C   0  0  0  0  0  3  0  0  0  0  0  0
  190.3000  177.7910  145.0740 C   0  0  0  0  0  3  0  0  0  0  0  0
  189.7640  177.9940  143.7990 C   0  0  0  0  0  3  0  0  0  0  0  0
  190.1840  177.2070  142.7170 C   0  0  0  0  0  0  0  0  0  0  0  0
  191.7810  176.6220  146.5700 O   0  0  0  0  0  0  0  0  0  0  0  0
  191.1280  177.1080  147.7340 C   0  0  0  0  0  1  0  0  0  0  0  0
  184.4030  178.2280  138.5570 C   0  0  0  0  0  2  0  0  0  0  0  0
  184.0270  179.4550  139.3250 C   0  0  0  0  0  0  0  0  0  0  0  0
  183.5450  179.3930  140.5670 C   0  0  0  0  0  3  0  0  0  0  0  0
  184.1680  180.6970  138.7190 O   0  0  0  0  0  1  0  0  0  0  0  0
  183.3450  178.1120  141.3210 C   0  0  0  0  0  2  0  0  0  0  0  0
  184.5120  177.7720  142.0650 O   0  0  0  0  0  0  0  0  0  0  0  0
  184.7180  178.1480  143.3970 C   0  0  0  0  0  0  0  0  0  0  0  0
  186.1540  178.4420  145.3350 C   0  0  0  0  0  3  0  0  0  0  0  0
  185.0640  178.9140  146.0720 C   0  0  0  0  0  3  0  0  0  0  0  0
  183.8030  179.0030  145.4740 C   0  0  0  0  0  3  0  0  0  0  0  0
  185.9830  178.0590  144.0010 C   0  0  0  0  0  3  0  0  0  0  0  0
  183.6310  178.6200  144.1410 C   0  0  0  0  0  3  0  0  0  0  0  0
  1  2  1  0  0  0  0
  1  3  1  0  0  0  0
  2  3  2  0  0  0  0
  2 17  1  0  0  0  0
  3  4  1  0  0  0  0
  4  6  1  0  0  0  0
  5 14  1  0  0  0  0
  6  5  1  0  0  0  0
  7  4  2  0  0  0  0
  7  8  1  0  0  0  0
  8  5  2  0  0  0  0
  9 15  1  0  0  0  0
 10  9  2  0  0  0  0
 11 10  1  0  0  0  0
 12  9  1  0  0  0  0
 13 12  2  0  0  0  0
 14 11  2  0  0  0  0
 14 13  1  0  0  0  0
 15 16  1  0  0  0  0
 17 18  1  0  0  0  0
 18 19  2  0  0  0  0
 19 21  1  0  0  0  0
 20 18  1  0  0  0  0
 21 22  1  0  0  0  0
 22 23  1  0  0  0  0
 23 27  2  0  0  0  0
 23 28  1  0  0  0  0
 24 25  2  0  0  0  0
 26 25  1  0  0  0  0
 27 24  1  0  0  0  0
 28 26  2  0  0  0  0
M  END
>  <MODEL>
8

>  <REMARK>
 VINA RESULT:      -8.3      3.394      6.328
  Name = 
  8 active torsions:
  status: ('A' for Active; 'I' for Inactive)
    1  A    between atoms: C_1  and  C_18
    2  A    between atoms: C_2  and  C_16
    3  A    between atoms: O_3  and  C_4
    4  A    between atoms: C_5  and  C_28
    5  A    between atoms: C_9  and  O_17
    6  A    between atoms: C_13  and  C_16
    7  A    between atoms: O_17  and  C_26
    8  A    between atoms: C_20  and  C_26
                            x       y       z     vdW  Elec       q    Type
                         _______ _______ _______ _____ _____    ______ ____

>  <TORSDO>
F 8

$$$$
=
 OpenBabel11042412013D

 28 31  0  0  0  0  0  0  0  0999 V2000
  191.7490  177.2470  145.7710 N   0  0  0  0  0  2  0  0  0  0  0  0
  190.5000  176.9120  146.3090 C   0  0  0  0  0  0  0  0  0  0  0  0
  190.6270  177.0670  144.9520 C   0  0  0  0  0  0  0  0  0  0  0  0
  190.0260  177.0600  143.6240 C   0  0  0  0  0  0  0  0  0  0  0  0
  189.4900  177.2230  141.2020 C   0  0  0  0  0  0  0  0  0  0  0  0
  190.8130  177.4970  142.2090 S   0  0  0  0  0  0  0  0  0  0  0  0
  188.7190  176.6920  143.3410 C   0  0  0  0  0  3  0  0  0  0  0  0
  188.4160  176.7840  141.9750 C   0  0  0  0  0  3  0  0  0  0  0  0
  189.4310  177.7800  136.9510 C   0  0  0  0  0  0  0  0  0  0  0  0
  188.4200  178.3340  137.7520 C   0  0  0  0  0  3  0  0  0  0  0  0
  188.4410  178.1530  139.1380 C   0  0  0  0  0  3  0  0  0  0  0  0
  190.4560  177.0430  137.5520 C   0  0  0  0  0  3  0  0  0  0  0  0
  190.4760  176.8630  138.9380 C   0  0  0  0  0  3  0  0  0  0  0  0
  189.4690  177.4160  139.7420 C   0  0  0  0  0  0  0  0  0  0  0  0
  189.4380  177.9430  135.5630 O   0  0  0  0  0  0  0  0  0  0  0  0
  189.3400  176.8490  134.6610 C   0  0  0  0  0  1  0  0  0  0  0  0
  189.6430  176.6300  147.4930 C   0  0  0  0  0  2  0  0  0  0  0  0
  189.1410  177.9110  148.0790 C   0  0  0  0  0  0  0  0  0  0  0  0
  187.9290  178.3920  147.7970 C   0  0  0  0  0  3  0  0  0  0  0  0
  189.9700  178.6310  148.9300 O   0  0  0  0  0  1  0  0  0  0  0  0
  186.9500  177.7070  146.8910 C   0  0  0  0  0  2  0  0  0  0  0  0
  185.8160  178.5350  146.6490 O   0  0  0  0  0  0  0  0  0  0  0  0
  185.1390  178.5830  145.4260 C   0  0  0  0  0  0  0  0  0  0  0  0
  185.0640  178.2850  143.0150 C   0  0  0  0  0  3  0  0  0  0  0  0
  183.7300  178.7020  143.0040 C   0  0  0  0  0  3  0  0  0  0  0  0
  183.1000  179.0600  144.2000 C   0  0  0  0  0  3  0  0  0  0  0  0
  185.7680  178.2250  144.2210 C   0  0  0  0  0  3  0  0  0  0  0  0
  183.8050  179.0010  145.4070 C   0  0  0  0  0  3  0  0  0  0  0  0
  1  2  1  0  0  0  0
  2 17  1  0  0  0  0
  3  1  1  0  0  0  0
  3  2  2  0  0  0  0
  4  3  1  0  0  0  0
  5  8  2  0  0  0  0
  5  6  1  0  0  0  0
  6  4  1  0  0  0  0
  7  4  2  0  0  0  0
  8  7  1  0  0  0  0
  9 12  2  0  0  0  0
  9 10  1  0  0  0  0
 10 11  2  0  0  0  0
 11 14  1  0  0  0  0
 12 13  1  0  0  0  0
 13 14  2  0  0  0  0
 14  5  1  0  0  0  0
 15  9  1  0  0  0  0
 16 15  1  0  0  0  0
 17 18  1  0  0  0  0
 18 20  1  0  0  0  0
 19 18  2  0  0  0  0
 21 19  1  0  0  0  0
 22 21  1  0  0  0  0
 23 22  1  0  0  0  0
 24 27  1  0  0  0  0
 25 24  2  0  0  0  0
 25 26  1  0  0  0  0
 26 28  2  0  0  0  0
 27 23  2  0  0  0  0
 28 23  1  0  0  0  0
M  END
>  <MODEL>
9

>  <REMARK>
 VINA RESULT:      -8.2      5.357      9.004
  Name = 
  8 active torsions:
  status: ('A' for Active; 'I' for Inactive)
    1  A    between atoms: C_1  and  C_18
    2  A    between atoms: C_2  and  C_16
    3  A    between atoms: O_3  and  C_4
    4  A    between atoms: C_5  and  C_28
    5  A    between atoms: C_9  and  O_17
    6  A    between atoms: C_13  and  C_16
    7  A    between atoms: O_17  and  C_26
    8  A    between atoms: C_20  and  C_26
                            x       y       z     vdW  Elec       q    Type
                         _______ _______ _______ _____ _____    ______ ____

>  <TORSDO>
F 8

$$$$
