=
 OpenBabel11032419523D

 27 30  0  0  1  0  0  0  0  0999 V2000
  185.3020  178.6510  145.5110 C   0  0  1  0  0  3  0  0  0  0  0  0
  183.9180  179.6150  143.6380 C   0  0  0  0  0  2  0  0  0  0  0  0
  183.6120  176.7330  138.3440 C   0  0  0  0  0  3  0  0  0  0  0  0
  184.0150  177.7080  139.2670 C   0  0  0  0  0  0  0  0  0  0  0  0
  187.6670  178.1950  140.9980 C   0  0  0  0  0  0  0  0  0  0  0  0
  182.1330  176.4780  140.3440 S   0  0  0  0  0  0  0  0  0  0  0  0
  185.6600  178.2960  142.3960 C   0  0  0  0  0  0  0  0  0  0  0  0
  188.3420  177.5260  142.0150 C   0  0  0  0  0  3  0  0  0  0  0  0
  182.5590  175.9370  138.8000 C   0  0  0  0  0  3  0  0  0  0  0  0
  184.1750  178.5060  142.6400 C   0  0  2  0  0  3  0  0  0  0  0  0
  183.3640  178.6830  141.4480 N   0  0  0  0  0  2  0  0  0  0  0  0
  185.8420  177.5270  144.7510 N   0  0  0  0  0  2  0  0  0  0  0  0
  186.3290  178.6020  141.1740 C   0  0  0  0  0  0  0  0  0  0  0  0
  186.3960  177.6920  143.4420 C   0  0  0  0  0  0  0  0  0  0  0  0
  185.3600  179.0360  137.8450 O   0  0  0  0  0  0  0  0  0  0  0  0
  183.8990  179.0220  145.0370 C   0  0  0  0  0  2  0  0  0  0  0  0
  183.2930  177.6780  140.4400 C   0  0  0  0  0  0  0  0  0  0  0  0
  185.7030  179.3530  140.1240 N   0  0  0  0  0  2  0  0  0  0  0  0
  187.7140  177.2850  143.2320 C   0  0  0  0  0  3  0  0  0  0  0  0
  185.0590  178.7080  139.0230 C   0  0  0  0  0  0  0  0  0  0  0  0
  188.3980  178.4720  139.7290 C   0  0  0  0  0  1  0  0  0  0  0  0
  185.2640  178.2790  146.9820 C   0  0  0  0  0  2  0  0  0  0  0  0
  186.5740  178.6420  147.6530 C   0  0  0  0  0  2  0  0  0  0  0  0
  189.9540  176.8190  147.1970 C   0  0  0  0  0  1  0  0  0  0  0  0
  189.1430  178.3420  148.8310 O   0  0  0  0  0  0  0  0  0  0  0  0
  188.9050  177.6960  147.7760 C   0  0  0  0  0  0  0  0  0  0  0  0
  187.6360  177.8000  147.1310 N   0  0  0  0  0  2  0  0  0  0  0  0
  1 22  1  1  0  0  0
  2 16  1  0  0  0  0
  3  9  2  0  0  0  0
  3  4  1  0  0  0  0
  4 17  2  0  0  0  0
  5 13  2  0  0  0  0
  5  8  1  0  0  0  0
  6 17  1  0  0  0  0
  7 10  1  0  0  0  0
  7 14  2  0  0  0  0
  8 19  2  0  0  0  0
  9  6  1  0  0  0  0
 10  2  1  1  0  0  0
 11 10  1  0  0  0  0
 12  1  1  0  0  0  0
 13  7  1  0  0  0  0
 14 12  1  0  0  0  0
 15 20  2  0  0  0  0
 16  1  1  0  0  0  0
 17 11  1  0  0  0  0
 18 13  1  0  0  0  0
 19 14  1  0  0  0  0
 20  4  1  0  0  0  0
 20 18  1  0  0  0  0
 21  5  1  0  0  0  0
 22 23  1  0  0  0  0
 24 26  1  0  0  0  0
 26 25  2  0  0  0  0
 27 23  1  0  0  0  0
 27 26  1  0  0  0  0
M  END
>  <MODEL>
1

>  <REMARK>
 VINA RESULT:      -8.3      0.000      0.000
  Name = 
  3 active torsions:
  status: ('A' for Active; 'I' for Inactive)
    1  A    between atoms: C_1  and  C_22
    2  A    between atoms: C_2  and  N_8
    3  A    between atoms: C_2  and  C_22
                            x       y       z     vdW  Elec       q    Type
                         _______ _______ _______ _____ _____    ______ ____

>  <TORSDO>
F 3

$$$$
=
 OpenBabel11032419523D

 27 30  0  0  1  0  0  0  0  0999 V2000
  185.9720  178.4410  144.4540 C   0  0  1  0  0  3  0  0  0  0  0  0
  185.7890  179.7720  142.3210 C   0  0  0  0  0  2  0  0  0  0  0  0
  186.7780  177.0750  137.0120 C   0  0  0  0  0  3  0  0  0  0  0  0
  187.0470  177.8850  138.1240 C   0  0  0  0  0  0  0  0  0  0  0  0
  189.6840  177.2210  141.1540 C   0  0  0  0  0  0  0  0  0  0  0  0
  184.6240  177.3170  138.2590 S   0  0  0  0  0  0  0  0  0  0  0  0
  187.4130  177.9600  141.6890 C   0  0  0  0  0  0  0  0  0  0  0  0
  189.6740  176.3850  142.2670 C   0  0  0  0  0  3  0  0  0  0  0  0
  185.4480  176.6540  136.9410 C   0  0  0  0  0  3  0  0  0  0  0  0
  186.0850  178.6270  141.3750 C   0  0  2  0  0  3  0  0  0  0  0  0
  185.9020  179.0370  139.9930 N   0  0  0  0  0  2  0  0  0  0  0  0
  186.4150  177.1970  143.8320 N   0  0  0  0  0  2  0  0  0  0  0  0
  188.5680  178.0280  140.8550 C   0  0  0  0  0  0  0  0  0  0  0  0
  187.4640  177.1670  142.8590 C   0  0  0  0  0  0  0  0  0  0  0  0
  189.1690  178.7100  137.4810 O   0  0  0  0  0  0  0  0  0  0  0  0
  185.0470  179.2290  143.5310 C   0  0  0  0  0  2  0  0  0  0  0  0
  185.9460  178.0940  138.9250 C   0  0  0  0  0  0  0  0  0  0  0  0
  188.6580  178.9270  139.7410 N   0  0  0  0  0  2  0  0  0  0  0  0
  188.5760  176.3650  143.1180 C   0  0  0  0  0  3  0  0  0  0  0  0
  188.3450  178.5050  138.4110 C   0  0  0  0  0  0  0  0  0  0  0  0
  190.9050  177.2420  140.2970 C   0  0  0  0  0  1  0  0  0  0  0  0
  185.2480  178.1150  145.7480 C   0  0  0  0  0  2  0  0  0  0  0  0
  186.1390  178.4060  146.9400 C   0  0  0  0  0  2  0  0  0  0  0  0
  189.7440  177.1000  147.4440 C   0  0  0  0  0  1  0  0  0  0  0  0
  188.0960  177.9250  148.9440 O   0  0  0  0  0  0  0  0  0  0  0  0
  188.4000  177.6520  147.7530 C   0  0  0  0  0  0  0  0  0  0  0  0
  187.4660  177.8690  146.6950 N   0  0  0  0  0  2  0  0  0  0  0  0
  1 22  1  1  0  0  0
  2 16  1  0  0  0  0
  3  4  1  0  0  0  0
  4 20  1  0  0  0  0
  4 17  2  0  0  0  0
  5  8  1  0  0  0  0
  6 17  1  0  0  0  0
  7 14  2  0  0  0  0
  8 19  2  0  0  0  0
  9  3  2  0  0  0  0
  9  6  1  0  0  0  0
 10  7  1  0  0  0  0
 10  2  1  1  0  0  0
 11 10  1  0  0  0  0
 12  1  1  0  0  0  0
 13  5  2  0  0  0  0
 13  7  1  0  0  0  0
 14 19  1  0  0  0  0
 14 12  1  0  0  0  0
 15 20  2  0  0  0  0
 16  1  1  0  0  0  0
 17 11  1  0  0  0  0
 18 13  1  0  0  0  0
 20 18  1  0  0  0  0
 21  5  1  0  0  0  0
 22 23  1  0  0  0  0
 24 26  1  0  0  0  0
 26 25  2  0  0  0  0
 27 23  1  0  0  0  0
 27 26  1  0  0  0  0
M  END
>  <MODEL>
2

>  <REMARK>
 VINA RESULT:      -8.3      1.781      2.352
  Name = 
  3 active torsions:
  status: ('A' for Active; 'I' for Inactive)
    1  A    between atoms: C_1  and  C_22
    2  A    between atoms: C_2  and  N_8
    3  A    between atoms: C_2  and  C_22
                            x       y       z     vdW  Elec       q    Type
                         _______ _______ _______ _____ _____    ______ ____

>  <TORSDO>
F 3

$$$$
=
 OpenBabel11032419523D

 27 30  0  0  1  0  0  0  0  0999 V2000
  186.6180  178.2830  140.3100 C   0  0  1  0  0  3  0  0  0  0  0  0
  184.5290  177.8400  138.9710 C   0  0  0  0  0  2  0  0  0  0  0  0
  179.6630  181.3210  139.7700 C   0  0  0  0  0  3  0  0  0  0  0  0
  180.4760  180.1840  139.8820 C   0  0  0  0  0  0  0  0  0  0  0  0
  182.4100  178.7740  143.1750 C   0  0  0  0  0  0  0  0  0  0  0  0
  181.5550  181.6340  138.1650 S   0  0  0  0  0  0  0  0  0  0  0  0
  183.6180  178.9170  141.0510 C   0  0  0  0  0  0  0  0  0  0  0  0
  183.5580  179.1720  143.8550 C   0  0  0  0  0  3  0  0  0  0  0  0
  180.1370  182.2530  138.8450 C   0  0  0  0  0  3  0  0  0  0  0  0
  183.7130  178.9830  139.5360 C   0  0  2  0  0  3  0  0  0  0  0  0
  182.4470  179.1120  138.8350 N   0  0  0  0  0  2  0  0  0  0  0  0
  186.0620  179.3550  141.1290 N   0  0  0  0  0  2  0  0  0  0  0  0
  182.4230  178.6280  141.7730 C   0  0  0  0  0  0  0  0  0  0  0  0
  184.7900  179.2350  141.7750 C   0  0  0  0  0  0  0  0  0  0  0  0
  178.9990  178.7860  141.0920 O   0  0  0  0  0  0  0  0  0  0  0  0
  185.9900  178.2580  138.9200 C   0  0  0  0  0  2  0  0  0  0  0  0
  181.5820  180.2220  139.0610 C   0  0  0  0  0  0  0  0  0  0  0  0
  181.2350  178.1440  141.1290 N   0  0  0  0  0  2  0  0  0  0  0  0
  184.7420  179.3910  143.1610 C   0  0  0  0  0  3  0  0  0  0  0  0
  180.1830  179.0290  140.7380 C   0  0  0  0  0  0  0  0  0  0  0  0
  181.1760  178.5060  143.9690 C   0  0  0  0  0  1  0  0  0  0  0  0
  188.1190  178.4810  140.1900 C   0  0  0  0  0  2  0  0  0  0  0  0
  188.8550  177.4840  141.0630 C   0  0  0  0  0  2  0  0  0  0  0  0
  188.2620  177.5410  144.8840 C   0  0  0  0  0  1  0  0  0  0  0  0
  187.9310  175.8780  143.2180 O   0  0  0  0  0  0  0  0  0  0  0  0
  188.3110  177.0490  143.4830 C   0  0  0  0  0  0  0  0  0  0  0  0
  188.7870  177.9110  142.4500 N   0  0  0  0  0  2  0  0  0  0  0  0
  1 22  1  6  0  0  0
  1 12  1  0  0  0  0
  3  4  1  0  0  0  0
  4 20  1  0  0  0  0
  5  8  1  0  0  0  0
  5 21  1  0  0  0  0
  6  9  1  0  0  0  0
  6 17  1  0  0  0  0
  7 13  1  0  0  0  0
  7 14  2  0  0  0  0
  9  3  2  0  0  0  0
 10  2  1  6  0  0  0
 10  7  1  0  0  0  0
 11 17  1  0  0  0  0
 11 10  1  0  0  0  0
 12 14  1  0  0  0  0
 13  5  2  0  0  0  0
 14 19  1  0  0  0  0
 16  2  1  0  0  0  0
 16  1  1  0  0  0  0
 17  4  2  0  0  0  0
 18 13  1  0  0  0  0
 19  8  2  0  0  0  0
 20 15  2  0  0  0  0
 20 18  1  0  0  0  0
 22 23  1  0  0  0  0
 23 27  1  0  0  0  0
 25 26  2  0  0  0  0
 26 24  1  0  0  0  0
 27 26  1  0  0  0  0
M  END
>  <MODEL>
3

>  <REMARK>
 VINA RESULT:      -7.4      3.204      5.261
  Name = 
  3 active torsions:
  status: ('A' for Active; 'I' for Inactive)
    1  A    between atoms: C_1  and  C_22
    2  A    between atoms: C_2  and  N_8
    3  A    between atoms: C_2  and  C_22
                            x       y       z     vdW  Elec       q    Type
                         _______ _______ _______ _____ _____    ______ ____

>  <TORSDO>
F 3

$$$$
=
 OpenBabel11032419523D

 27 30  0  0  1  0  0  0  0  0999 V2000
  192.8800  174.8440  136.9900 C   0  0  1  0  0  3  0  0  0  0  0  0
  192.6270  176.8600  138.4810 C   0  0  0  0  0  2  0  0  0  0  0  0
  188.1330  177.0690  142.5050 C   0  0  0  0  0  3  0  0  0  0  0  0
  188.8300  177.3630  141.3250 C   0  0  0  0  0  0  0  0  0  0  0  0
  187.9720  176.1850  137.5240 C   0  0  0  0  0  0  0  0  0  0  0  0
  190.4500  176.1760  142.8030 S   0  0  0  0  0  0  0  0  0  0  0  0
  190.2710  175.9950  138.3420 C   0  0  0  0  0  0  0  0  0  0  0  0
  188.1170  174.9820  136.8380 C   0  0  0  0  0  3  0  0  0  0  0  0
  188.9030  176.3860  143.4490 C   0  0  0  0  0  3  0  0  0  0  0  0
  191.4290  176.3560  139.2570 C   0  0  2  0  0  3  0  0  0  0  0  0
  191.1050  177.2550  140.3510 N   0  0  0  0  0  2  0  0  0  0  0  0
  191.6770  174.1530  137.4470 N   0  0  0  0  0  2  0  0  0  0  0  0
  189.0430  176.7150  138.2710 C   0  0  0  0  0  0  0  0  0  0  0  0
  190.4170  174.8210  137.5670 C   0  0  0  0  0  0  0  0  0  0  0  0
  187.3170  178.9110  140.3710 O   0  0  0  0  0  0  0  0  0  0  0  0
  193.5030  175.6760  138.1060 C   0  0  0  0  0  2  0  0  0  0  0  0
  190.1320  176.9100  141.3340 C   0  0  0  0  0  0  0  0  0  0  0  0
  188.8670  177.9940  138.8970 N   0  0  0  0  0  2  0  0  0  0  0  0
  189.3340  174.3100  136.8510 C   0  0  0  0  0  3  0  0  0  0  0  0
  188.2790  178.1170  140.1950 C   0  0  0  0  0  0  0  0  0  0  0  0
  186.6620  176.8920  137.4410 C   0  0  0  0  0  1  0  0  0  0  0  0
  193.8820  173.8160  136.4960 C   0  0  0  0  0  2  0  0  0  0  0  0
  195.2630  174.1190  137.0450 C   0  0  0  0  0  2  0  0  0  0  0  0
  198.3070  175.1890  134.9130 C   0  0  0  0  0  1  0  0  0  0  0  0
  197.6720  175.6230  137.1620 O   0  0  0  0  0  0  0  0  0  0  0  0
  197.3890  175.0550  136.0740 C   0  0  0  0  0  0  0  0  0  0  0  0
  196.1960  174.2830  135.9440 N   0  0  0  0  0  2  0  0  0  0  0  0
  1 22  1  1  0  0  0
  1 12  1  0  0  0  0
  1 16  1  0  0  0  0
  3  9  2  0  0  0  0
  4 17  2  0  0  0  0
  4  3  1  0  0  0  0
  5 13  1  0  0  0  0
  6  9  1  0  0  0  0
  7 10  1  0  0  0  0
  8 19  1  0  0  0  0
  8  5  2  0  0  0  0
 10  2  1  6  0  0  0
 10 11  1  0  0  0  0
 11 17  1  0  0  0  0
 12 14  1  0  0  0  0
 13  7  2  0  0  0  0
 13 18  1  0  0  0  0
 14  7  1  0  0  0  0
 16  2  1  0  0  0  0
 17  6  1  0  0  0  0
 18 20  1  0  0  0  0
 19 14  2  0  0  0  0
 20 15  2  0  0  0  0
 20  4  1  0  0  0  0
 21  5  1  0  0  0  0
 22 23  1  0  0  0  0
 24 26  1  0  0  0  0
 26 25  2  0  0  0  0
 27 26  1  0  0  0  0
 27 23  1  0  0  0  0
M  END
>  <MODEL>
4

>  <REMARK>
 VINA RESULT:      -7.2      6.438      9.499
  Name = 
  3 active torsions:
  status: ('A' for Active; 'I' for Inactive)
    1  A    between atoms: C_1  and  C_22
    2  A    between atoms: C_2  and  N_8
    3  A    between atoms: C_2  and  C_22
                            x       y       z     vdW  Elec       q    Type
                         _______ _______ _______ _____ _____    ______ ____

>  <TORSDO>
F 3

$$$$
=
 OpenBabel11032419523D

 27 30  0  0  1  0  0  0  0  0999 V2000
  188.4030  177.4690  135.8850 C   0  0  1  0  0  3  0  0  0  0  0  0
  188.8100  178.9970  137.8480 C   0  0  0  0  0  2  0  0  0  0  0  0
  186.6470  177.5290  143.2890 C   0  0  0  0  0  3  0  0  0  0  0  0
  186.7200  178.2040  142.0630 C   0  0  0  0  0  0  0  0  0  0  0  0
  184.2500  177.8750  138.8430 C   0  0  0  0  0  0  0  0  0  0  0  0
  188.8650  176.9530  142.2870 S   0  0  0  0  0  0  0  0  0  0  0  0
  186.6730  177.8430  138.4970 C   0  0  0  0  0  0  0  0  0  0  0  0
  184.0960  176.9120  137.8490 C   0  0  0  0  0  3  0  0  0  0  0  0
  187.7790  176.7610  143.5680 C   0  0  0  0  0  3  0  0  0  0  0  0
  188.1120  178.1420  138.8840 C   0  0  2  0  0  3  0  0  0  0  0  0
  188.3010  178.6850  140.2180 N   0  0  0  0  0  2  0  0  0  0  0  0
  187.5600  176.5130  136.5960 N   0  0  0  0  0  2  0  0  0  0  0  0
  185.5300  178.3640  139.1730 C   0  0  0  0  0  0  0  0  0  0  0  0
  186.4780  176.9310  137.4340 C   0  0  0  0  0  0  0  0  0  0  0  0
  184.9000  179.6890  142.3440 O   0  0  0  0  0  0  0  0  0  0  0  0
  189.4470  178.0890  136.8100 C   0  0  0  0  0  2  0  0  0  0  0  0
  187.8930  177.9670  141.3790 C   0  0  0  0  0  0  0  0  0  0  0  0
  185.6280  179.4080  140.1520 N   0  0  0  0  0  2  0  0  0  0  0  0
  185.2010  176.4520  137.1430 C   0  0  0  0  0  3  0  0  0  0  0  0
  185.6950  179.1190  141.5510 C   0  0  0  0  0  0  0  0  0  0  0  0
  183.0300  178.3730  139.5400 C   0  0  0  0  0  1  0  0  0  0  0  0
  189.0950  176.7590  134.7360 C   0  0  0  0  0  2  0  0  0  0  0  0
  189.3510  175.3060  135.0900 C   0  0  0  0  0  2  0  0  0  0  0  0
  192.4380  174.4870  137.2710 C   0  0  0  0  0  1  0  0  0  0  0  0
  190.0990  174.2470  137.6190 O   0  0  0  0  0  0  0  0  0  0  0  0
  191.0210  174.6150  136.8440 C   0  0  0  0  0  0  0  0  0  0  0  0
  190.7180  175.1570  135.5590 N   0  0  0  0  0  2  0  0  0  0  0  0
  1 22  1  6  0  0  0
  1 12  1  0  0  0  0
  1 16  1  0  0  0  0
  3  9  2  0  0  0  0
  4  3  1  0  0  0  0
  5 13  1  0  0  0  0
  5 21  1  0  0  0  0
  6  9  1  0  0  0  0
  7 10  1  0  0  0  0
  7 13  2  0  0  0  0
  8  5  2  0  0  0  0
 10  2  1  6  0  0  0
 10 11  1  0  0  0  0
 11 17  1  0  0  0  0
 12 14  1  0  0  0  0
 13 18  1  0  0  0  0
 14  7  1  0  0  0  0
 16  2  1  0  0  0  0
 17  4  2  0  0  0  0
 17  6  1  0  0  0  0
 18 20  1  0  0  0  0
 19 14  2  0  0  0  0
 19  8  1  0  0  0  0
 20  4  1  0  0  0  0
 20 15  2  0  0  0  0
 22 23  1  0  0  0  0
 23 27  1  0  0  0  0
 26 24  1  0  0  0  0
 26 25  2  0  0  0  0
 27 26  1  0  0  0  0
M  END
>  <MODEL>
5

>  <REMARK>
 VINA RESULT:      -7.1      3.803      7.819
  Name = 
  3 active torsions:
  status: ('A' for Active; 'I' for Inactive)
    1  A    between atoms: C_1  and  C_22
    2  A    between atoms: C_2  and  N_8
    3  A    between atoms: C_2  and  C_22
                            x       y       z     vdW  Elec       q    Type
                         _______ _______ _______ _____ _____    ______ ____

>  <TORSDO>
F 3

$$$$
=
 OpenBabel11032419523D

 27 30  0  0  1  0  0  0  0  0999 V2000
  185.5560  178.7410  143.1640 C   0  0  1  0  0  3  0  0  0  0  0  0
  186.9390  179.5520  141.2190 C   0  0  0  0  0  2  0  0  0  0  0  0
  190.7160  175.7540  138.4360 C   0  0  0  0  0  3  0  0  0  0  0  0
  190.3190  176.8000  139.2820 C   0  0  0  0  0  0  0  0  0  0  0  0
  190.3240  176.9000  143.3510 C   0  0  0  0  0  0  0  0  0  0  0  0
  188.3140  176.2180  137.9200 S   0  0  0  0  0  0  0  0  0  0  0  0
  188.3470  177.6850  142.1400 C   0  0  0  0  0  0  0  0  0  0  0  0
  189.5040  176.3360  144.3240 C   0  0  0  0  0  3  0  0  0  0  0  0
  189.6940  175.2960  137.6030 C   0  0  0  0  0  3  0  0  0  0  0  0
  187.6180  178.2320  140.9240 C   0  0  2  0  0  3  0  0  0  0  0  0
  188.4080  178.3150  139.7080 N   0  0  0  0  0  2  0  0  0  0  0  0
  186.1300  177.4000  143.2230 N   0  0  0  0  0  2  0  0  0  0  0  0
  189.7650  177.5910  142.2580 C   0  0  0  0  0  0  0  0  0  0  0  0
  187.5430  177.1770  143.1870 C   0  0  0  0  0  0  0  0  0  0  0  0
  192.4510  177.5110  140.0230 O   0  0  0  0  0  0  0  0  0  0  0  0
  185.5360  179.2770  141.7350 C   0  0  0  0  0  2  0  0  0  0  0  0
  188.9980  177.1570  139.1230 C   0  0  0  0  0  0  0  0  0  0  0  0
  190.6550  178.2180  141.3230 N   0  0  0  0  0  2  0  0  0  0  0  0
  188.1240  176.4820  144.2480 C   0  0  0  0  0  3  0  0  0  0  0  0
  191.2070  177.5000  140.2170 C   0  0  0  0  0  0  0  0  0  0  0  0
  191.8010  176.7570  143.5020 C   0  0  0  0  0  1  0  0  0  0  0  0
  184.1420  178.6970  143.7140 C   0  0  0  0  0  2  0  0  0  0  0  0
  184.1450  178.9790  145.2040 C   0  0  0  0  0  2  0  0  0  0  0  0
  187.0870  177.9960  147.5140 C   0  0  0  0  0  1  0  0  0  0  0  0
  185.7400  179.9470  147.3480 O   0  0  0  0  0  0  0  0  0  0  0  0
  185.9890  178.7940  146.9080 C   0  0  0  0  0  0  0  0  0  0  0  0
  185.2280  178.2440  145.8330 N   0  0  0  0  0  2  0  0  0  0  0  0
  1 12  1  0  0  0  0
  1 22  1  6  0  0  0
  2 16  1  0  0  0  0
  3  4  1  0  0  0  0
  4 20  1  0  0  0  0
  5 21  1  0  0  0  0
  5  8  1  0  0  0  0
  6 17  1  0  0  0  0
  7 13  1  0  0  0  0
  7 14  2  0  0  0  0
  9  6  1  0  0  0  0
  9  3  2  0  0  0  0
 10  2  1  1  0  0  0
 10  7  1  0  0  0  0
 11 10  1  0  0  0  0
 13  5  2  0  0  0  0
 14 12  1  0  0  0  0
 14 19  1  0  0  0  0
 15 20  2  0  0  0  0
 16  1  1  0  0  0  0
 17  4  2  0  0  0  0
 17 11  1  0  0  0  0
 18 13  1  0  0  0  0
 19  8  2  0  0  0  0
 20 18  1  0  0  0  0
 22 23  1  0  0  0  0
 23 27  1  0  0  0  0
 26 25  2  0  0  0  0
 26 24  1  0  0  0  0
 27 26  1  0  0  0  0
M  END
>  <MODEL>
6

>  <REMARK>
 VINA RESULT:      -7.0      3.044      4.609
  Name = 
  3 active torsions:
  status: ('A' for Active; 'I' for Inactive)
    1  A    between atoms: C_1  and  C_22
    2  A    between atoms: C_2  and  N_8
    3  A    between atoms: C_2  and  C_22
                            x       y       z     vdW  Elec       q    Type
                         _______ _______ _______ _____ _____    ______ ____

>  <TORSDO>
F 3

$$$$
=
 OpenBabel11032419523D

 27 30  0  0  1  0  0  0  0  0999 V2000
  186.2040  177.4280  138.0060 C   0  0  1  0  0  3  0  0  0  0  0  0
  183.7210  177.1270  137.6990 C   0  0  0  0  0  2  0  0  0  0  0  0
  179.9040  181.2300  139.9420 C   0  0  0  0  0  3  0  0  0  0  0  0
  180.6020  180.0170  139.8620 C   0  0  0  0  0  0  0  0  0  0  0  0
  183.6220  178.6770  142.2400 C   0  0  0  0  0  0  0  0  0  0  0  0
  180.9730  181.1680  137.6820 S   0  0  0  0  0  0  0  0  0  0  0  0
  183.8420  178.4850  139.8100 C   0  0  0  0  0  0  0  0  0  0  0  0
  184.9750  178.9900  142.3380 C   0  0  0  0  0  3  0  0  0  0  0  0
  180.0170  182.0120  138.7910 C   0  0  0  0  0  3  0  0  0  0  0  0
  183.3020  178.4050  138.3920 C   0  0  2  0  0  3  0  0  0  0  0  0
  181.8730  178.6260  138.2550 N   0  0  0  0  0  2  0  0  0  0  0  0
  186.1210  178.6280  138.8330 N   0  0  0  0  0  2  0  0  0  0  0  0
  183.0390  178.4080  140.9860 C   0  0  0  0  0  0  0  0  0  0  0  0
  185.2300  178.7200  139.9490 C   0  0  0  0  0  0  0  0  0  0  0  0
  179.6650  178.9210  141.7370 O   0  0  0  0  0  0  0  0  0  0  0  0
  185.0540  177.3580  137.0060 C   0  0  0  0  0  2  0  0  0  0  0  0
  181.2650  179.8480  138.6660 C   0  0  0  0  0  0  0  0  0  0  0  0
  181.6590  178.0170  140.9480 N   0  0  0  0  0  2  0  0  0  0  0  0
  185.7750  179.0020  141.2020 C   0  0  0  0  0  3  0  0  0  0  0  0
  180.6080  178.9860  140.9050 C   0  0  0  0  0  0  0  0  0  0  0  0
  182.8150  178.6310  143.4940 C   0  0  0  0  0  1  0  0  0  0  0  0
  187.5280  177.4310  137.2630 C   0  0  0  0  0  2  0  0  0  0  0  0
  188.4080  178.5640  137.7560 C   0  0  0  0  0  2  0  0  0  0  0  0
  191.2190  177.1270  139.9910 C   0  0  0  0  0  1  0  0  0  0  0  0
  188.9880  177.8170  140.4360 O   0  0  0  0  0  0  0  0  0  0  0  0
  189.8990  177.6720  139.5790 C   0  0  0  0  0  0  0  0  0  0  0  0
  189.6780  178.0270  138.2140 N   0  0  0  0  0  2  0  0  0  0  0  0
  1 22  1  6  0  0  0
  1 12  1  0  0  0  0
  4  3  1  0  0  0  0
  4 20  1  0  0  0  0
  5  8  1  0  0  0  0
  5 21  1  0  0  0  0
  6 17  1  0  0  0  0
  6  9  1  0  0  0  0
  7 14  2  0  0  0  0
  7 13  1  0  0  0  0
  9  3  2  0  0  0  0
 10  2  1  1  0  0  0
 10  7  1  0  0  0  0
 11 10  1  0  0  0  0
 11 17  1  0  0  0  0
 12 14  1  0  0  0  0
 13  5  2  0  0  0  0
 14 19  1  0  0  0  0
 16  2  1  0  0  0  0
 16  1  1  0  0  0  0
 17  4  2  0  0  0  0
 18 13  1  0  0  0  0
 19  8  2  0  0  0  0
 20 18  1  0  0  0  0
 20 15  2  0  0  0  0
 22 23  1  0  0  0  0
 23 27  1  0  0  0  0
 26 24  1  0  0  0  0
 26 25  2  0  0  0  0
 27 26  1  0  0  0  0
M  END
>  <MODEL>
7

>  <REMARK>
 VINA RESULT:      -6.9      4.029      6.287
  Name = 
  3 active torsions:
  status: ('A' for Active; 'I' for Inactive)
    1  A    between atoms: C_1  and  C_22
    2  A    between atoms: C_2  and  N_8
    3  A    between atoms: C_2  and  C_22
                            x       y       z     vdW  Elec       q    Type
                         _______ _______ _______ _____ _____    ______ ____

>  <TORSDO>
F 3

$$$$
=
 OpenBabel11032419523D

 27 30  0  0  1  0  0  0  0  0999 V2000
  187.1840  178.6590  142.0320 C   0  0  1  0  0  3  0  0  0  0  0  0
  189.6030  178.9230  142.6890 C   0  0  0  0  0  2  0  0  0  0  0  0
  192.1190  174.9830  146.5080 C   0  0  0  0  0  3  0  0  0  0  0  0
  191.5470  176.1900  146.0810 C   0  0  0  0  0  0  0  0  0  0  0  0
  187.8930  177.7240  147.0110 C   0  0  0  0  0  0  0  0  0  0  0  0
  192.0050  174.8780  144.0120 S   0  0  0  0  0  0  0  0  0  0  0  0
  188.6320  177.7300  144.6770 C   0  0  0  0  0  0  0  0  0  0  0  0
  186.5960  177.4260  146.5990 C   0  0  0  0  0  3  0  0  0  0  0  0
  192.4300  174.1150  145.4590 C   0  0  0  0  0  3  0  0  0  0  0  0
  189.6780  177.6990  143.5760 C   0  0  2  0  0  3  0  0  0  0  0  0
  191.0420  177.4610  144.0170 N   0  0  0  0  0  2  0  0  0  0  0  0
  186.9010  177.5250  142.9070 N   0  0  0  0  0  2  0  0  0  0  0  0
  188.9230  177.8930  146.0640 C   0  0  0  0  0  0  0  0  0  0  0  0
  187.2900  177.5140  144.2850 C   0  0  0  0  0  0  0  0  0  0  0  0
  191.7280  177.4220  148.0930 O   0  0  0  0  0  0  0  0  0  0  0  0
  188.6320  178.6460  141.5530 C   0  0  0  0  0  2  0  0  0  0  0  0
  191.4020  176.2710  144.7130 C   0  0  0  0  0  0  0  0  0  0  0  0
  190.2240  178.2720  146.5350 N   0  0  0  0  0  2  0  0  0  0  0  0
  186.2960  177.3320  145.2460 C   0  0  0  0  0  3  0  0  0  0  0  0
  191.1760  177.2980  146.9680 C   0  0  0  0  0  0  0  0  0  0  0  0
  188.1560  177.8610  148.4720 C   0  0  0  0  0  1  0  0  0  0  0  0
  186.2480  178.6060  140.8380 C   0  0  0  0  0  2  0  0  0  0  0  0
  184.8170  178.8540  141.2760 C   0  0  0  0  0  2  0  0  0  0  0  0
  182.6800  178.9200  138.0530 C   0  0  0  0  0  1  0  0  0  0  0  0
  184.1360  180.5030  139.0630 O   0  0  0  0  0  0  0  0  0  0  0  0
  183.6150  179.3580  139.1220 C   0  0  0  0  0  0  0  0  0  0  0  0
  183.9120  178.4770  140.2050 N   0  0  0  0  0  2  0  0  0  0  0  0
  1 22  1  6  0  0  0
  1 12  1  0  0  0  0
  4  3  1  0  0  0  0
  4 20  1  0  0  0  0
  5 21  1  0  0  0  0
  6 17  1  0  0  0  0
  6  9  1  0  0  0  0
  7 13  1  0  0  0  0
  8  5  1  0  0  0  0
  9  3  2  0  0  0  0
 10  2  1  1  0  0  0
 10 11  1  0  0  0  0
 10  7  1  0  0  0  0
 11 17  1  0  0  0  0
 12 14  1  0  0  0  0
 13 18  1  0  0  0  0
 13  5  2  0  0  0  0
 14  7  2  0  0  0  0
 14 19  1  0  0  0  0
 16  1  1  0  0  0  0
 16  2  1  0  0  0  0
 17  4  2  0  0  0  0
 18 20  1  0  0  0  0
 19  8  2  0  0  0  0
 20 15  2  0  0  0  0
 22 23  1  0  0  0  0
 24 26  1  0  0  0  0
 25 26  2  0  0  0  0
 26 27  1  0  0  0  0
 27 23  1  0  0  0  0
M  END
>  <MODEL>
8

>  <REMARK>
 VINA RESULT:      -6.8      2.966      8.165
  Name = 
  3 active torsions:
  status: ('A' for Active; 'I' for Inactive)
    1  A    between atoms: C_1  and  C_22
    2  A    between atoms: C_2  and  N_8
    3  A    between atoms: C_2  and  C_22
                            x       y       z     vdW  Elec       q    Type
                         _______ _______ _______ _____ _____    ______ ____

>  <TORSDO>
F 3

$$$$
=
 OpenBabel11032419523D

 27 30  0  0  1  0  0  0  0  0999 V2000
  189.7770  176.0490  136.2680 C   0  0  1  0  0  3  0  0  0  0  0  0
  189.4070  178.2160  137.5020 C   0  0  0  0  0  2  0  0  0  0  0  0
  185.4850  178.4230  142.0870 C   0  0  0  0  0  3  0  0  0  0  0  0
  185.9720  178.6250  140.7870 C   0  0  0  0  0  0  0  0  0  0  0  0
  184.8300  176.7780  137.3440 C   0  0  0  0  0  0  0  0  0  0  0  0
  187.9320  177.9060  142.1510 S   0  0  0  0  0  0  0  0  0  0  0  0
  187.2160  177.0280  137.8300 C   0  0  0  0  0  0  0  0  0  0  0  0
  185.0710  175.5160  136.8090 C   0  0  0  0  0  3  0  0  0  0  0  0
  186.4660  178.0010  142.9870 C   0  0  0  0  0  3  0  0  0  0  0  0
  188.4110  177.6770  138.5070 C   0  0  2  0  0  3  0  0  0  0  0  0
  188.0930  178.6790  139.5090 N   0  0  0  0  0  2  0  0  0  0  0  0
  188.7650  175.2790  136.9850 N   0  0  0  0  0  2  0  0  0  0  0  0
  185.8910  177.5560  137.8470 C   0  0  0  0  0  0  0  0  0  0  0  0
  187.4420  175.7810  137.2020 C   0  0  0  0  0  0  0  0  0  0  0  0
  184.1270  179.7910  139.8740 O   0  0  0  0  0  0  0  0  0  0  0  0
  190.4010  177.1190  137.1600 C   0  0  0  0  0  2  0  0  0  0  0  0
  187.3190  178.3590  140.6620 C   0  0  0  0  0  0  0  0  0  0  0  0
  185.6000  178.8800  138.3200 N   0  0  0  0  0  2  0  0  0  0  0  0
  186.3690  175.0250  136.7290 C   0  0  0  0  0  3  0  0  0  0  0  0
  185.1700  179.1180  139.6630 C   0  0  0  0  0  0  0  0  0  0  0  0
  183.4260  177.2810  137.3640 C   0  0  0  0  0  1  0  0  0  0  0  0
  190.8550  175.1040  135.7700 C   0  0  0  0  0  2  0  0  0  0  0  0
  192.2090  175.7880  135.7910 C   0  0  0  0  0  2  0  0  0  0  0  0
  194.8850  174.3560  138.1890 C   0  0  0  0  0  1  0  0  0  0  0  0
  193.7000  176.4150  138.1280 O   0  0  0  0  0  0  0  0  0  0  0  0
  193.8980  175.2930  137.5920 C   0  0  0  0  0  0  0  0  0  0  0  0
  193.1840  174.9110  136.4170 N   0  0  0  0  0  2  0  0  0  0  0  0
  1 22  1  1  0  0  0
  1 12  1  0  0  0  0
  1 16  1  0  0  0  0
  3  9  2  0  0  0  0
  4  3  1  0  0  0  0
  5 21  1  0  0  0  0
  5 13  1  0  0  0  0
  6  9  1  0  0  0  0
  7 13  2  0  0  0  0
  7 10  1  0  0  0  0
  8  5  2  0  0  0  0
 10  2  1  6  0  0  0
 10 11  1  0  0  0  0
 11 17  1  0  0  0  0
 12 14  1  0  0  0  0
 13 18  1  0  0  0  0
 14  7  1  0  0  0  0
 16  2  1  0  0  0  0
 17  4  2  0  0  0  0
 17  6  1  0  0  0  0
 18 20  1  0  0  0  0
 19  8  1  0  0  0  0
 19 14  2  0  0  0  0
 20 15  2  0  0  0  0
 20  4  1  0  0  0  0
 22 23  1  0  0  0  0
 23 27  1  0  0  0  0
 26 25  2  0  0  0  0
 26 24  1  0  0  0  0
 27 26  1  0  0  0  0
M  END
>  <MODEL>
9

>  <REMARK>
 VINA RESULT:      -6.8      4.403      7.864
  Name = 
  3 active torsions:
  status: ('A' for Active; 'I' for Inactive)
    1  A    between atoms: C_1  and  C_22
    2  A    between atoms: C_2  and  N_8
    3  A    between atoms: C_2  and  C_22
                            x       y       z     vdW  Elec       q    Type
                         _______ _______ _______ _____ _____    ______ ____

>  <TORSDO>
F 3

$$$$
