=
 OpenBabel11042410083D

 62 67  0  0  1  0  0  0  0  0999 V2000
  186.8780  178.2810  145.7630 C   0  0  0  0  0  0  0  0  0  0  0  0
  187.1560  177.9380  144.1370 S   0  0  1  0  0  3  0  0  0  0  0  0
  185.5780  178.2550  143.6360 C   0  0  0  0  0  0  0  0  0  0  0  0
  183.6800  178.7090  142.1750 N   0  0  0  0  0  0  0  0  0  0  0  0
  183.3360  178.7900  144.6150 C   0  0  0  0  0  2  0  0  0  0  0  0
  184.9530  178.8120  147.1320 F   0  0  0  0  0  0  0  0  0  0  0  0
  185.5280  178.5840  145.9310 C   0  0  0  0  0  0  0  0  0  0  0  0
  184.8110  178.5840  144.7360 C   0  0  0  0  0  0  0  0  0  0  0  0
  184.9640  178.0100  142.2920 C   0  0  1  0  0  3  0  0  0  0  0  0
  182.9240  179.0560  143.1850 C   0  0  0  0  0  0  0  0  0  0  0  0
  187.9000  178.0970  146.8320 C   0  0  0  0  0  2  0  0  0  0  0  0
  188.4390  176.0460  147.6980 N   0  0  0  0  0  1  0  0  0  0  0  0
  188.6990  176.8950  146.6140 N   0  0  0  0  0  0  0  0  0  0  0  0
  190.1180  177.2550  146.6800 C   0  0  0  0  0  3  0  0  0  0  0  0
  190.5750  177.6780  145.4230 O   0  0  0  0  0  0  0  0  0  0  0  0
  190.2110  176.6550  144.5380 C   0  0  0  0  0  1  0  0  0  0  0  0
  190.8670  176.1460  147.0930 O   0  0  0  0  0  0  0  0  0  0  0  0
  191.9540  176.6860  147.7870 C   0  0  0  0  0  1  0  0  0  0  0  0
  185.8850  178.4530  141.1660 C   0  0  0  0  0  2  0  0  0  0  0  0
  187.5090  178.8680  141.8290 S   0  0  2  0  0  3  0  0  0  0  0  0
  188.3830  176.4840  141.3840 F   0  0  0  0  0  0  0  0  0  0  0  0
  188.4990  177.8170  141.1140 C   0  0  2  0  0  3  0  0  0  0  0  0
  189.6150  178.3220  140.2580 C   0  0  0  0  0  2  0  0  0  0  0  0
  190.6520  177.2630  140.0580 C   0  0  0  0  0  0  0  0  0  0  0  0
  190.6710  176.4690  138.8560 N   0  0  0  0  0  0  0  0  0  0  0  0
  191.5430  177.1070  140.9390 O   0  0  0  0  0  0  0  0  0  0  0  0
  191.9160  175.8090  138.4620 C   0  0  1  0  0  3  0  0  0  0  0  0
  191.6350  174.6010  137.5900 C   0  0  0  0  0  1  0  0  0  0  0  0
  192.8740  176.7620  137.7520 C   0  0  0  0  0  2  0  0  0  0  0  0
  193.4390  176.1340  136.4900 C   0  0  0  0  0  2  0  0  0  0  0  0
  194.8090  176.3650  136.4190 O   0  0  0  0  0  1  0  0  0  0  0  0
  189.4680  176.4020  138.0210 C   0  0  0  0  0  2  0  0  0  0  0  0
  187.2390  177.9670  136.2000 C   0  0  1  0  0  3  0  0  0  0  0  0
  188.3930  178.4300  137.0710 C   0  0  0  0  0  2  0  0  0  0  0  0
  189.2620  176.7530  135.5490 C   0  0  0  0  0  2  0  0  0  0  0  0
  189.5120  177.4260  136.8900 C   0  0  2  0  0  3  0  0  0  0  0  0
  187.8440  177.0880  135.1250 C   0  0  0  0  0  2  0  0  0  0  0  0
  186.3040  177.1770  136.9900 N   0  0  0  0  0  2  0  0  0  0  0  0
  184.9850  176.8470  136.5380 C   0  0  0  0  0  0  0  0  0  0  0  0
  184.5480  177.3000  135.4480 O   0  0  0  0  0  0  0  0  0  0  0  0
  184.1410  175.9280  137.3490 C   0  0  0  0  0  2  0  0  0  0  0  0
  184.2110  174.5120  136.7970 C   0  0  0  0  0  2  0  0  0  0  0  0
  184.6050  173.5820  137.8510 N   0  0  0  0  0  1  0  0  0  0  0  0
  181.7040  179.6940  142.9620 O   0  0  0  0  0  0  0  0  0  0  0  0
  179.7880  177.6140  141.4050 C   0  0  1  0  0  3  0  0  0  0  0  0
  180.4550  179.0260  143.0870 C   0  0  1  0  0  3  0  0  0  0  0  0
  179.4420  179.7210  142.2710 C   0  0  0  0  0  0  0  0  0  0  0  0
  180.5780  177.7130  142.5810 O   0  0  0  0  0  0  0  0  0  0  0  0
  178.9310  180.9150  142.5560 C   0  0  0  0  0  2  0  0  0  0  0  0
  178.9730  178.8760  141.1810 C   0  0  0  0  0  2  0  0  0  0  0  0
  180.6490  177.2740  140.1790 C   0  0  1  0  0  3  0  0  0  0  0  0
  179.7330  173.4550  138.4230 C   0  0  0  0  0  3  0  0  0  0  0  0
  180.3940  174.4340  137.6730 C   0  0  0  0  0  3  0  0  0  0  0  0
  179.3520  173.7180  139.7420 C   0  0  0  0  0  3  0  0  0  0  0  0
  179.6280  174.9620  140.3110 C   0  0  0  0  0  3  0  0  0  0  0  0
  180.2830  175.9530  139.5620 C   0  0  0  0  0  0  0  0  0  0  0  0
  180.6700  175.6790  138.2430 C   0  0  0  0  0  3  0  0  0  0  0  0
  180.5610  178.3050  139.2380 O   0  0  0  0  0  0  0  0  0  0  0  0
  181.8370  178.8730  139.2150 C   0  0  0  0  0  2  0  0  0  0  0  0
  180.7600  179.5330  137.2530 C   0  0  0  0  0  1  0  0  0  0  0  0
  182.0490  181.0680  138.4390 C   0  0  0  0  0  1  0  0  0  0  0  0
  181.9890  179.6810  138.0140 N   0  0  0  0  0  0  0  0  0  0  0  0
  1  7  2  0  0  0  0
  1 11  1  0  0  0  0
  2  3  1  6  0  0  0
  2  1  1  0  0  0  0
  3  8  2  0  0  0  0
  4  9  1  0  0  0  0
  4 10  2  0  0  0  0
  5  8  1  0  0  0  0
  7  6  1  0  0  0  0
  8  7  1  0  0  0  0
  9 19  1  6  0  0  0
  9  3  1  0  0  0  0
 10  5  1  0  0  0  0
 13 14  1  0  0  0  0
 13 11  1  0  0  0  0
 13 12  1  0  0  0  0
 14 17  1  0  0  0  0
 15 14  1  0  0  0  0
 16 15  1  0  0  0  0
 17 18  1  0  0  0  0
 19 20  1  0  0  0  0
 20 22  1  6  0  0  0
 20  2  1  0  0  0  0
 22 21  1  1  0  0  0
 23 22  1  0  0  0  0
 24 23  1  0  0  0  0
 24 26  2  0  0  0  0
 25 24  1  0  0  0  0
 27 28  1  6  0  0  0
 27 25  1  0  0  0  0
 29 27  1  0  0  0  0
 30 29  1  0  0  0  0
 31 30  1  0  0  0  0
 32 25  1  0  0  0  0
 33 38  1  1  0  0  0
 33 34  1  0  0  0  0
 35 36  1  0  0  0  0
 36 34  1  0  0  0  0
 36 32  1  1  0  0  0
 37 35  1  0  0  0  0
 37 33  1  0  0  0  0
 39 38  1  0  0  0  0
 39 41  1  0  0  0  0
 40 39  2  0  0  0  0
 42 41  1  0  0  0  0
 42 43  1  0  0  0  0
 44 10  1  0  0  0  0
 45 51  1  6  0  0  0
 45 48  1  0  0  0  0
 46 44  1  6  0  0  0
 47 49  2  0  0  0  0
 47 46  1  0  0  0  0
 48 46  1  0  0  0  0
 50 45  1  0  0  0  0
 50 47  1  0  0  0  0
 51 58  1  6  0  0  0
 52 54  1  0  0  0  0
 53 57  1  0  0  0  0
 53 52  2  0  0  0  0
 54 55  2  0  0  0  0
 56 51  1  0  0  0  0
 56 55  1  0  0  0  0
 57 56  2  0  0  0  0
 59 58  1  0  0  0  0
 60 62  1  0  0  0  0
 62 61  1  0  0  0  0
 62 59  1  0  0  0  0
M  END
>  <MODEL>
1

>  <REMARK>
 VINA RESULT:      -6.4      0.000      0.000
  Name = 
  24 active torsions:
  status: ('A' for Active; 'I' for Inactive)
    1  A    between atoms: C_1  and  C_24
    2  A    between atoms: C_2  and  N_8
    3  A    between atoms: C_3  and  C_11
    4  A    between atoms: O_6  and  C_10
    5  A    between atoms: C_7  and  C_57
    6  A    between atoms: C_10  and  O_20
    7  A    between atoms: C_10  and  N_59
    8  A    between atoms: C_11  and  C_55
    9  A    between atoms: N_12  and  C_19
   10  A    between atoms: N_12  and  C_61
   11  A    between atoms: C_16  and  C_44
   12  A    between atoms: C_19  and  C_35
   13  A    between atoms: C_24  and  N_59
   14  A    between atoms: C_25  and  C_47
   15  A    between atoms: O_27  and  C_28
   16  A    between atoms: O_27  and  C_47
   17  A    between atoms: C_28  and  N_42
   18  A    between atoms: C_30  and  O_48
   19  A    between atoms: C_36  and  C_47
   20  A    between atoms: C_37  and  S_45
   21  A    between atoms: C_37  and  C_58
   22  A    between atoms: C_44  and  C_49
   23  A    between atoms: O_48  and  C_60
   24  A    between atoms: C_57  and  C_61
                            x       y       z     vdW  Elec       q    Type
                         _______ _______ _______ _____ _____    ______ ____

>  <TORSDO>
F 24

$$$$
=
 OpenBabel11042410083D

 62 66  0  0  1  0  0  0  0  0999 V2000
  193.0940  175.3180  137.1650 C   0  0  0  0  0  0  0  0  0  0  0  0
  192.8190  176.5870  138.2390 S   0  0  0  0  0  0  0  0  0  0  0  0
  191.1620  176.6870  137.9450 C   0  0  0  0  0  0  0  0  0  0  0  0
  188.8130  177.2820  138.2170 N   0  0  0  0  0  0  0  0  0  0  0  0
  189.4330  175.7160  136.4160 C   0  0  0  0  0  2  0  0  0  0  0  0
  191.7890  174.1010  135.5280 F   0  0  0  0  0  0  0  0  0  0  0  0
  191.8960  175.0090  136.5230 C   0  0  0  0  0  0  0  0  0  0  0  0
  190.8170  175.7670  136.9750 C   0  0  0  0  0  0  0  0  0  0  0  0
  190.1950  177.7260  138.4240 C   0  0  1  0  0  3  0  0  0  0  0  0
  188.4380  176.4020  137.3240 C   0  0  0  0  0  0  0  0  0  0  0  0
  194.4470  174.7750  136.8580 C   0  0  0  0  0  2  0  0  0  0  0  0
  194.7270  173.1860  138.4830 N   0  0  0  0  0  1  0  0  0  0  0  0
  194.5220  173.3390  137.1060 N   0  0  0  0  0  0  0  0  0  0  0  0
  195.7100  172.8070  136.4320 C   0  0  0  0  0  3  0  0  0  0  0  0
  195.5050  171.4700  136.0610 O   0  0  0  0  0  0  0  0  0  0  0  0
  194.2250  171.4390  135.4920 C   0  0  0  0  0  1  0  0  0  0  0  0
  196.8130  172.8820  137.2920 O   0  0  0  0  0  0  0  0  0  0  0  0
  197.9040  173.1380  136.4550 C   0  0  0  0  0  1  0  0  0  0  0  0
  190.4060  178.0530  139.8940 C   0  0  0  0  0  2  0  0  0  0  0  0
  189.7520  176.7220  140.9180 S   0  0  0  0  0  0  0  0  0  0  0  0
  191.9730  176.5220  142.2100 F   0  0  0  0  0  0  0  0  0  0  0  0
  190.6380  176.7970  142.2630 C   0  0  2  0  0  3  0  0  0  0  0  0
  189.9660  177.0450  143.5740 C   0  0  0  0  0  2  0  0  0  0  0  0
  190.8760  176.7010  144.7100 C   0  0  0  0  0  0  0  0  0  0  0  0
  190.5240  177.0400  146.0640 N   0  0  0  0  0  0  0  0  0  0  0  0
  191.9400  176.0630  144.4680 O   0  0  0  0  0  0  0  0  0  0  0  0
  191.1450  176.3030  147.1650 C   0  0  1  0  0  3  0  0  0  0  0  0
  192.1530  175.2970  146.6430 C   0  0  0  0  0  1  0  0  0  0  0  0
  191.8040  177.2330  148.1800 C   0  0  0  0  0  2  0  0  0  0  0  0
  192.8530  176.4990  148.9970 C   0  0  0  0  0  2  0  0  0  0  0  0
  193.6790  177.4160  149.6410 O   0  0  0  0  0  1  0  0  0  0  0  0
  189.5000  178.0620  146.3050 C   0  0  0  0  0  2  0  0  0  0  0  0
  186.3170  177.4390  145.8460 C   0  0  1  0  0  3  0  0  0  0  0  0
  187.4870  176.6070  146.3380 C   0  0  0  0  0  2  0  0  0  0  0  0
  187.4620  178.6570  147.6340 C   0  0  0  0  0  2  0  0  0  0  0  0
  188.3610  177.5230  147.1670 C   0  0  2  0  0  3  0  0  0  0  0  0
  186.1910  178.6050  146.8050 C   0  0  0  0  0  2  0  0  0  0  0  0
  186.5950  177.9500  144.5110 N   0  0  0  0  0  2  0  0  0  0  0  0
  185.5650  178.2870  143.5740 C   0  0  0  0  0  0  0  0  0  0  0  0
  184.3540  178.0790  143.8480 O   0  0  0  0  0  0  0  0  0  0  0  0
  185.9300  178.9230  142.2800 C   0  0  0  0  0  2  0  0  0  0  0  0
  184.8240  178.7230  141.2540 C   0  0  0  0  0  2  0  0  0  0  0  0
  184.9890  179.6620  140.1490 N   0  0  0  0  0  1  0  0  0  0  0  0
  187.0900  176.0710  137.1890 O   0  0  0  0  0  0  0  0  0  0  0  0
  184.0130  176.2960  136.2390 C   0  0  1  0  0  3  0  0  0  0  0  0
  186.0880  177.0330  136.8850 C   0  0  1  0  0  3  0  0  0  0  0  0
  185.9770  177.1820  135.4230 C   0  0  0  0  0  0  0  0  0  0  0  0
  184.8410  176.5700  137.3600 O   0  0  0  0  0  0  0  0  0  0  0  0
  186.8910  177.7620  134.6500 C   0  0  0  0  0  2  0  0  0  0  0  0
  184.6770  176.7310  134.9440 C   0  0  0  0  0  2  0  0  0  0  0  0
  183.6050  174.8160  136.1930 C   0  0  1  0  0  3  0  0  0  0  0  0
  186.8890  172.0730  135.7400 C   0  0  0  0  0  3  0  0  0  0  0  0
  186.4320  172.4180  137.0170 C   0  0  0  0  0  3  0  0  0  0  0  0
  186.2940  172.6310  134.6050 C   0  0  0  0  0  3  0  0  0  0  0  0
  185.2410  173.5370  134.7460 C   0  0  0  0  0  3  0  0  0  0  0  0
  184.7820  173.8950  136.0240 C   0  0  0  0  0  0  0  0  0  0  0  0
  185.3780  173.3250  137.1580 C   0  0  0  0  0  3  0  0  0  0  0  0
  182.8790  174.4880  137.3420 O   0  0  0  0  0  0  0  0  0  0  0  0
  181.5580  174.3610  136.9030 C   0  0  0  0  0  2  0  0  0  0  0  0
  181.2700  175.7140  138.7820 C   0  0  0  0  0  1  0  0  0  0  0  0
  179.4490  175.2280  137.4150 C   0  0  0  0  0  1  0  0  0  0  0  0
  180.6490  174.6590  138.0000 N   0  0  0  0  0  0  0  0  0  0  0  0
  1  2  1  0  0  0  0
  3  2  1  0  0  0  0
  3  9  1  0  0  0  0
  4  9  1  0  0  0  0
  5  8  1  0  0  0  0
  5 10  1  0  0  0  0
  6  7  1  0  0  0  0
  7  8  1  0  0  0  0
  7  1  2  0  0  0  0
  8  3  2  0  0  0  0
  9 19  1  1  0  0  0
 10  4  2  0  0  0  0
 11 13  1  0  0  0  0
 11  1  1  0  0  0  0
 13 12  1  0  0  0  0
 14 13  1  0  0  0  0
 14 17  1  0  0  0  0
 15 14  1  0  0  0  0
 16 15  1  0  0  0  0
 18 17  1  0  0  0  0
 19 20  1  0  0  0  0
 20 22  1  0  0  0  0
 22 21  1  1  0  0  0
 22 23  1  0  0  0  0
 23 24  1  0  0  0  0
 24 25  1  0  0  0  0
 25 32  1  0  0  0  0
 25 27  1  0  0  0  0
 26 24  2  0  0  0  0
 27 28  1  6  0  0  0
 27 29  1  0  0  0  0
 29 30  1  0  0  0  0
 30 31  1  0  0  0  0
 33 38  1  6  0  0  0
 33 34  1  0  0  0  0
 33 37  1  0  0  0  0
 34 36  1  0  0  0  0
 36 32  1  6  0  0  0
 36 35  1  0  0  0  0
 37 35  1  0  0  0  0
 39 40  2  0  0  0  0
 39 38  1  0  0  0  0
 41 39  1  0  0  0  0
 42 41  1  0  0  0  0
 43 42  1  0  0  0  0
 44 10  1  0  0  0  0
 45 51  1  6  0  0  0
 45 48  1  0  0  0  0
 46 44  1  6  0  0  0
 46 48  1  0  0  0  0
 47 46  1  0  0  0  0
 49 47  2  0  0  0  0
 50 47  1  0  0  0  0
 50 45  1  0  0  0  0
 51 58  1  1  0  0  0
 52 53  1  0  0  0  0
 53 57  2  0  0  0  0
 54 55  1  0  0  0  0
 54 52  2  0  0  0  0
 55 56  2  0  0  0  0
 56 51  1  0  0  0  0
 56 57  1  0  0  0  0
 59 58  1  0  0  0  0
 59 62  1  0  0  0  0
 61 62  1  0  0  0  0
 62 60  1  0  0  0  0
M  END
>  <MODEL>
2

>  <REMARK>
 VINA RESULT:      -5.9      2.948      8.878
  Name = 
  24 active torsions:
  status: ('A' for Active; 'I' for Inactive)
    1  A    between atoms: C_1  and  C_24
    2  A    between atoms: C_2  and  N_8
    3  A    between atoms: C_3  and  C_11
    4  A    between atoms: O_6  and  C_10
    5  A    between atoms: C_7  and  C_57
    6  A    between atoms: C_10  and  O_20
    7  A    between atoms: C_10  and  N_59
    8  A    between atoms: C_11  and  C_55
    9  A    between atoms: N_12  and  C_19
   10  A    between atoms: N_12  and  C_61
   11  A    between atoms: C_16  and  C_44
   12  A    between atoms: C_19  and  C_35
   13  A    between atoms: C_24  and  N_59
   14  A    between atoms: C_25  and  C_47
   15  A    between atoms: O_27  and  C_28
   16  A    between atoms: O_27  and  C_47
   17  A    between atoms: C_28  and  N_42
   18  A    between atoms: C_30  and  O_48
   19  A    between atoms: C_36  and  C_47
   20  A    between atoms: C_37  and  S_45
   21  A    between atoms: C_37  and  C_58
   22  A    between atoms: C_44  and  C_49
   23  A    between atoms: O_48  and  C_60
   24  A    between atoms: C_57  and  C_61
                            x       y       z     vdW  Elec       q    Type
                         _______ _______ _______ _____ _____    ______ ____

>  <TORSDO>
F 24

$$$$
=
 OpenBabel11042410083D

 62 66  0  0  1  0  0  0  0  0999 V2000
  192.3440  176.3730  136.3730 C   0  0  0  0  0  0  0  0  0  0  0  0
  190.7320  176.3890  135.8820 S   0  0  0  0  0  0  0  0  0  0  0  0
  190.0920  176.4430  137.4400 C   0  0  0  0  0  0  0  0  0  0  0  0
  188.4900  176.7290  139.2560 N   0  0  0  0  0  0  0  0  0  0  0  0
  190.8520  176.3050  139.8220 C   0  0  0  0  0  2  0  0  0  0  0  0
  193.5260  176.2310  138.4820 F   0  0  0  0  0  0  0  0  0  0  0  0
  192.3860  176.3460  137.7660 C   0  0  0  0  0  0  0  0  0  0  0  0
  191.1240  176.4010  138.3560 C   0  0  0  0  0  0  0  0  0  0  0  0
  188.6600  176.3120  137.8610 C   0  0  1  0  0  3  0  0  0  0  0  0
  189.4390  176.7240  140.1570 C   0  0  0  0  0  0  0  0  0  0  0  0
  193.4920  176.2280  135.4350 C   0  0  0  0  0  2  0  0  0  0  0  0
  195.4480  177.4210  135.4260 N   0  0  0  0  0  1  0  0  0  0  0  0
  194.7710  176.4060  136.1150 N   0  0  0  0  0  0  0  0  0  0  0  0
  195.5610  175.1810  135.9600 C   0  0  0  0  0  3  0  0  0  0  0  0
  194.8850  174.0880  136.5220 O   0  0  0  0  0  0  0  0  0  0  0  0
  195.5260  172.9550  136.0060 C   0  0  0  0  0  1  0  0  0  0  0  0
  196.7990  175.3340  136.5980 O   0  0  0  0  0  0  0  0  0  0  0  0
  197.7080  175.5740  135.5630 C   0  0  0  0  0  1  0  0  0  0  0  0
  187.7380  177.1320  136.9720 C   0  0  0  0  0  2  0  0  0  0  0  0
  187.0180  176.0810  135.6980 S   0  0  0  0  0  0  0  0  0  0  0  0
  186.2440  174.3580  137.4510 F   0  0  0  0  0  0  0  0  0  0  0  0
  185.8830  175.2460  136.4810 C   0  0  2  0  0  3  0  0  0  0  0  0
  184.4570  175.3620  136.0510 C   0  0  0  0  0  2  0  0  0  0  0  0
  183.8360  176.6060  136.6010 C   0  0  0  0  0  0  0  0  0  0  0  0
  183.1030  176.5780  137.8390 N   0  0  0  0  0  0  0  0  0  0  0  0
  184.0070  177.6970  135.9860 O   0  0  0  0  0  0  0  0  0  0  0  0
  182.9280  177.8220  138.5900 C   0  0  1  0  0  3  0  0  0  0  0  0
  182.7270  177.5400  140.0660 C   0  0  0  0  0  1  0  0  0  0  0  0
  184.0980  178.7830  138.3900 C   0  0  0  0  0  2  0  0  0  0  0  0
  184.6960  179.2040  139.7220 C   0  0  0  0  0  2  0  0  0  0  0  0
  185.9700  178.6600  139.8610 O   0  0  0  0  0  1  0  0  0  0  0  0
  182.6120  175.2950  138.3540 C   0  0  0  0  0  2  0  0  0  0  0  0
  179.3910  175.7830  138.0150 C   0  0  1  0  0  3  0  0  0  0  0  0
  180.5640  175.8230  137.0530 C   0  0  0  0  0  2  0  0  0  0  0  0
  180.6750  173.7120  138.2420 C   0  0  0  0  0  2  0  0  0  0  0  0
  181.5120  174.7180  137.4680 C   0  0  2  0  0  3  0  0  0  0  0  0
  179.3560  174.3800  138.5860 C   0  0  0  0  0  2  0  0  0  0  0  0
  179.6040  176.7320  139.1000 N   0  0  0  0  0  2  0  0  0  0  0  0
  179.3220  178.1320  138.9780 C   0  0  0  0  0  0  0  0  0  0  0  0
  178.9410  178.6170  137.8810 O   0  0  0  0  0  0  0  0  0  0  0  0
  179.4440  179.0110  140.1720 C   0  0  0  0  0  2  0  0  0  0  0  0
  180.1060  180.3300  139.8000 C   0  0  0  0  0  2  0  0  0  0  0  0
  179.6600  181.3860  140.7010 N   0  0  0  0  0  1  0  0  0  0  0  0
  189.1630  177.1140  141.4680 O   0  0  0  0  0  0  0  0  0  0  0  0
  187.9830  176.9080  144.4650 C   0  0  1  0  0  3  0  0  0  0  0  0
  188.9620  176.1800  142.5210 C   0  0  1  0  0  3  0  0  0  0  0  0
  190.0160  176.3500  143.5370 C   0  0  0  0  0  0  0  0  0  0  0  0
  187.7240  176.4470  143.1460 O   0  0  0  0  0  0  0  0  0  0  0  0
  191.2920  176.0140  143.3670 C   0  0  0  0  0  2  0  0  0  0  0  0
  189.4600  176.8110  144.8020 C   0  0  0  0  0  2  0  0  0  0  0  0
  187.4490  178.3320  144.6750 C   0  0  1  0  0  3  0  0  0  0  0  0
  183.1770  178.7080  144.3230 C   0  0  0  0  0  3  0  0  0  0  0  0
  183.7850  178.7450  145.5830 C   0  0  0  0  0  3  0  0  0  0  0  0
  183.9520  178.5320  143.1730 C   0  0  0  0  0  3  0  0  0  0  0  0
  185.3360  178.3900  143.2820 C   0  0  0  0  0  3  0  0  0  0  0  0
  185.9530  178.4160  144.5430 C   0  0  0  0  0  0  0  0  0  0  0  0
  185.1710  178.6020  145.6920 C   0  0  0  0  0  3  0  0  0  0  0  0
  187.8670  178.8170  145.9180 O   0  0  0  0  0  0  0  0  0  0  0  0
  187.7570  177.7230  146.7810 C   0  0  0  0  0  2  0  0  0  0  0  0
  187.6800  177.0320  149.0080 C   0  0  0  0  0  1  0  0  0  0  0  0
  189.4430  178.3620  148.2690 C   0  0  0  0  0  1  0  0  0  0  0  0
  188.0110  178.1540  148.1470 N   0  0  0  0  0  0  0  0  0  0  0  0
  1  7  2  0  0  0  0
  2  1  1  0  0  0  0
  2  3  1  0  0  0  0
  3  9  1  0  0  0  0
  3  8  2  0  0  0  0
  4 10  2  0  0  0  0
  5 10  1  0  0  0  0
  7  8  1  0  0  0  0
  7  6  1  0  0  0  0
  8  5  1  0  0  0  0
  9 19  1  6  0  0  0
  9  4  1  0  0  0  0
 10 44  1  0  0  0  0
 11 13  1  0  0  0  0
 11  1  1  0  0  0  0
 12 13  1  0  0  0  0
 14 13  1  0  0  0  0
 14 15  1  0  0  0  0
 14 17  1  0  0  0  0
 16 15  1  0  0  0  0
 18 17  1  0  0  0  0
 20 22  1  0  0  0  0
 20 19  1  0  0  0  0
 22 21  1  6  0  0  0
 23 22  1  0  0  0  0
 23 24  1  0  0  0  0
 24 25  1  0  0  0  0
 25 32  1  0  0  0  0
 25 27  1  0  0  0  0
 26 24  2  0  0  0  0
 27 28  1  1  0  0  0
 29 27  1  0  0  0  0
 29 30  1  0  0  0  0
 30 31  1  0  0  0  0
 33 37  1  0  0  0  0
 33 38  1  1  0  0  0
 34 36  1  0  0  0  0
 34 33  1  0  0  0  0
 35 37  1  0  0  0  0
 36 35  1  0  0  0  0
 36 32  1  1  0  0  0
 39 38  1  0  0  0  0
 39 41  1  0  0  0  0
 40 39  2  0  0  0  0
 42 41  1  0  0  0  0
 42 43  1  0  0  0  0
 45 51  1  6  0  0  0
 45 50  1  0  0  0  0
 46 44  1  6  0  0  0
 46 48  1  0  0  0  0
 46 47  1  0  0  0  0
 47 50  1  0  0  0  0
 48 45  1  0  0  0  0
 49 47  2  0  0  0  0
 51 58  1  1  0  0  0
 52 53  1  0  0  0  0
 53 57  2  0  0  0  0
 54 55  1  0  0  0  0
 54 52  2  0  0  0  0
 55 56  2  0  0  0  0
 56 51  1  0  0  0  0
 56 57  1  0  0  0  0
 58 59  1  0  0  0  0
 59 62  1  0  0  0  0
 62 61  1  0  0  0  0
 62 60  1  0  0  0  0
M  END
>  <MODEL>
3

>  <REMARK>
 VINA RESULT:      -5.7      2.955      9.445
  Name = 
  24 active torsions:
  status: ('A' for Active; 'I' for Inactive)
    1  A    between atoms: C_1  and  C_24
    2  A    between atoms: C_2  and  N_8
    3  A    between atoms: C_3  and  C_11
    4  A    between atoms: O_6  and  C_10
    5  A    between atoms: C_7  and  C_57
    6  A    between atoms: C_10  and  O_20
    7  A    between atoms: C_10  and  N_59
    8  A    between atoms: C_11  and  C_55
    9  A    between atoms: N_12  and  C_19
   10  A    between atoms: N_12  and  C_61
   11  A    between atoms: C_16  and  C_44
   12  A    between atoms: C_19  and  C_35
   13  A    between atoms: C_24  and  N_59
   14  A    between atoms: C_25  and  C_47
   15  A    between atoms: O_27  and  C_28
   16  A    between atoms: O_27  and  C_47
   17  A    between atoms: C_28  and  N_42
   18  A    between atoms: C_30  and  O_48
   19  A    between atoms: C_36  and  C_47
   20  A    between atoms: C_37  and  S_45
   21  A    between atoms: C_37  and  C_58
   22  A    between atoms: C_44  and  C_49
   23  A    between atoms: O_48  and  C_60
   24  A    between atoms: C_57  and  C_61
                            x       y       z     vdW  Elec       q    Type
                         _______ _______ _______ _____ _____    ______ ____

>  <TORSDO>
F 24

$$$$
=
 OpenBabel11042410083D

 62 66  0  0  1  0  0  0  0  0999 V2000
  193.0230  175.0810  137.7270 C   0  0  0  0  0  0  0  0  0  0  0  0
  192.3390  176.5660  138.1380 S   0  0  0  0  0  0  0  0  0  0  0  0
  190.7840  176.1720  137.6210 C   0  0  0  0  0  0  0  0  0  0  0  0
  188.3660  176.2810  137.3220 N   0  0  0  0  0  0  0  0  0  0  0  0
  189.5790  174.3320  136.4220 C   0  0  0  0  0  2  0  0  0  0  0  0
  192.2890  173.0750  136.5870 F   0  0  0  0  0  0  0  0  0  0  0  0
  192.0470  174.2910  137.1230 C   0  0  0  0  0  0  0  0  0  0  0  0
  190.7930  174.9010  137.0810 C   0  0  0  0  0  0  0  0  0  0  0  0
  189.5900  177.0690  137.5010 C   0  0  1  0  0  3  0  0  0  0  0  0
  188.3240  175.0690  136.8320 C   0  0  0  0  0  0  0  0  0  0  0  0
  194.4780  174.7810  137.8450 C   0  0  0  0  0  2  0  0  0  0  0  0
  195.4960  173.2320  139.1900 N   0  0  0  0  0  1  0  0  0  0  0  0
  194.7220  173.3540  138.0290 N   0  0  0  0  0  0  0  0  0  0  0  0
  195.5400  172.8690  136.9130 C   0  0  0  0  0  3  0  0  0  0  0  0
  195.0300  171.6580  136.4220 O   0  0  0  0  0  0  0  0  0  0  0  0
  195.4350  170.6880  137.3480 C   0  0  0  0  0  1  0  0  0  0  0  0
  196.8580  172.6730  137.3450 O   0  0  0  0  0  0  0  0  0  0  0  0
  197.6530  173.0980  136.2760 C   0  0  0  0  0  1  0  0  0  0  0  0
  189.4400  177.9660  138.7190 C   0  0  0  0  0  2  0  0  0  0  0  0
  188.7650  177.0220  140.0980 S   0  0  0  0  0  0  0  0  0  0  0  0
  190.2940  178.2380  141.7790 F   0  0  0  0  0  0  0  0  0  0  0  0
  189.0180  177.9700  141.3770 C   0  0  2  0  0  3  0  0  0  0  0  0
  187.8540  178.4430  142.1850 C   0  0  0  0  0  2  0  0  0  0  0  0
  186.6280  178.5540  141.3350 C   0  0  0  0  0  0  0  0  0  0  0  0
  185.3160  178.4680  141.9200 N   0  0  0  0  0  0  0  0  0  0  0  0
  186.7620  178.7750  140.0980 O   0  0  0  0  0  0  0  0  0  0  0  0
  184.1780  179.0430  141.2010 C   0  0  1  0  0  3  0  0  0  0  0  0
  184.5700  179.4270  139.7870 C   0  0  0  0  0  1  0  0  0  0  0  0
  182.9770  178.1020  141.1790 C   0  0  0  0  0  2  0  0  0  0  0  0
  181.7540  178.7870  140.5940 C   0  0  0  0  0  2  0  0  0  0  0  0
  180.6060  178.0730  140.9280 O   0  0  0  0  0  1  0  0  0  0  0  0
  185.1610  177.8740  143.2520 C   0  0  0  0  0  2  0  0  0  0  0  0
  185.9430  179.1410  146.1700 C   0  0  1  0  0  3  0  0  0  0  0  0
  185.5570  179.7480  144.8330 C   0  0  0  0  0  2  0  0  0  0  0  0
  183.8740  178.0930  145.3890 C   0  0  0  0  0  2  0  0  0  0  0  0
  184.5030  178.8460  144.2270 C   0  0  2  0  0  3  0  0  0  0  0  0
  184.7760  178.2740  146.5960 C   0  0  0  0  0  2  0  0  0  0  0  0
  187.1250  178.3040  146.0140 N   0  0  0  0  0  2  0  0  0  0  0  0
  187.9430  177.8960  147.1170 C   0  0  0  0  0  0  0  0  0  0  0  0
  187.7090  178.3170  148.2800 O   0  0  0  0  0  0  0  0  0  0  0  0
  189.0570  176.9360  146.8890 C   0  0  0  0  0  2  0  0  0  0  0  0
  189.8910  177.3610  145.6890 C   0  0  0  0  0  2  0  0  0  0  0  0
  191.2750  176.9320  145.8640 N   0  0  0  0  0  1  0  0  0  0  0  0
  187.1010  174.4170  136.6760 O   0  0  0  0  0  0  0  0  0  0  0  0
  184.5760  173.0550  135.1970 C   0  0  1  0  0  3  0  0  0  0  0  0
  186.7590  173.6950  135.5010 C   0  0  1  0  0  3  0  0  0  0  0  0
  186.6460  172.2600  135.8190 C   0  0  0  0  0  0  0  0  0  0  0  0
  185.4950  174.1270  135.0420 O   0  0  0  0  0  0  0  0  0  0  0  0
  187.6740  171.4680  136.1110 C   0  0  0  0  0  2  0  0  0  0  0  0
  185.2800  171.7870  135.6450 C   0  0  0  0  0  2  0  0  0  0  0  0
  183.4320  173.4320  136.1500 C   0  0  1  0  0  3  0  0  0  0  0  0
  183.1690  177.6380  137.0150 C   0  0  0  0  0  3  0  0  0  0  0  0
  182.8560  177.1620  135.7360 C   0  0  0  0  0  3  0  0  0  0  0  0
  183.5850  176.7530  138.0130 C   0  0  0  0  0  3  0  0  0  0  0  0
  183.6920  175.3890  137.7330 C   0  0  0  0  0  3  0  0  0  0  0  0
  183.3880  174.9050  136.4500 C   0  0  0  0  0  0  0  0  0  0  0  0
  182.9630  175.7970  135.4560 C   0  0  0  0  0  3  0  0  0  0  0  0
  182.2120  172.9960  135.6230 O   0  0  0  0  0  0  0  0  0  0  0  0
  182.0160  171.7310  136.1840 C   0  0  0  0  0  2  0  0  0  0  0  0
  182.1820  169.6370  135.1680 C   0  0  0  0  0  1  0  0  0  0  0  0
  180.0880  170.4890  135.7310 C   0  0  0  0  0  1  0  0  0  0  0  0
  181.3910  170.8550  135.2040 N   0  0  0  0  0  0  0  0  0  0  0  0
  1 11  1  0  0  0  0
  1  2  1  0  0  0  0
  3  2  1  0  0  0  0
  4  9  1  0  0  0  0
  5 10  1  0  0  0  0
  5  8  1  0  0  0  0
  6  7  1  0  0  0  0
  7  1  2  0  0  0  0
  8  7  1  0  0  0  0
  8  3  2  0  0  0  0
  9  3  1  0  0  0  0
  9 19  1  1  0  0  0
 10  4  2  0  0  0  0
 11 13  1  0  0  0  0
 13 12  1  0  0  0  0
 14 17  1  0  0  0  0
 14 13  1  0  0  0  0
 15 14  1  0  0  0  0
 15 16  1  0  0  0  0
 18 17  1  0  0  0  0
 19 20  1  0  0  0  0
 20 22  1  0  0  0  0
 22 21  1  1  0  0  0
 22 23  1  0  0  0  0
 24 25  1  0  0  0  0
 24 23  1  0  0  0  0
 25 32  1  0  0  0  0
 26 24  2  0  0  0  0
 27 28  1  6  0  0  0
 27 25  1  0  0  0  0
 29 27  1  0  0  0  0
 30 31  1  0  0  0  0
 30 29  1  0  0  0  0
 33 38  1  6  0  0  0
 33 37  1  0  0  0  0
 34 33  1  0  0  0  0
 35 37  1  0  0  0  0
 36 32  1  6  0  0  0
 36 34  1  0  0  0  0
 36 35  1  0  0  0  0
 38 39  1  0  0  0  0
 39 40  2  0  0  0  0
 41 39  1  0  0  0  0
 42 43  1  0  0  0  0
 42 41  1  0  0  0  0
 44 10  1  0  0  0  0
 45 50  1  0  0  0  0
 45 51  1  1  0  0  0
 46 47  1  0  0  0  0
 46 44  1  1  0  0  0
 47 49  2  0  0  0  0
 48 45  1  0  0  0  0
 48 46  1  0  0  0  0
 50 47  1  0  0  0  0
 51 58  1  6  0  0  0
 51 56  1  0  0  0  0
 52 54  1  0  0  0  0
 53 52  2  0  0  0  0
 55 54  2  0  0  0  0
 56 55  1  0  0  0  0
 57 53  1  0  0  0  0
 57 56  2  0  0  0  0
 58 59  1  0  0  0  0
 60 62  1  0  0  0  0
 62 61  1  0  0  0  0
 62 59  1  0  0  0  0
M  END
>  <MODEL>
4

>  <REMARK>
 VINA RESULT:      -5.6      3.129      9.553
  Name = 
  24 active torsions:
  status: ('A' for Active; 'I' for Inactive)
    1  A    between atoms: C_1  and  C_24
    2  A    between atoms: C_2  and  N_8
    3  A    between atoms: C_3  and  C_11
    4  A    between atoms: O_6  and  C_10
    5  A    between atoms: C_7  and  C_57
    6  A    between atoms: C_10  and  O_20
    7  A    between atoms: C_10  and  N_59
    8  A    between atoms: C_11  and  C_55
    9  A    between atoms: N_12  and  C_19
   10  A    between atoms: N_12  and  C_61
   11  A    between atoms: C_16  and  C_44
   12  A    between atoms: C_19  and  C_35
   13  A    between atoms: C_24  and  N_59
   14  A    between atoms: C_25  and  C_47
   15  A    between atoms: O_27  and  C_28
   16  A    between atoms: O_27  and  C_47
   17  A    between atoms: C_28  and  N_42
   18  A    between atoms: C_30  and  O_48
   19  A    between atoms: C_36  and  C_47
   20  A    between atoms: C_37  and  S_45
   21  A    between atoms: C_37  and  C_58
   22  A    between atoms: C_44  and  C_49
   23  A    between atoms: O_48  and  C_60
   24  A    between atoms: C_57  and  C_61
                            x       y       z     vdW  Elec       q    Type
                         _______ _______ _______ _____ _____    ______ ____

>  <TORSDO>
F 24

$$$$
=
 OpenBabel11042410083D

 62 66  0  0  1  0  0  0  0  0999 V2000
  193.6180  175.6860  136.0140 C   0  0  0  0  0  0  0  0  0  0  0  0
  192.1990  175.8660  135.1220 S   0  0  0  0  0  0  0  0  0  0  0  0
  191.1980  176.0910  136.4590 C   0  0  0  0  0  0  0  0  0  0  0  0
  189.2410  176.6770  137.7910 N   0  0  0  0  0  0  0  0  0  0  0  0
  191.3050  176.0050  138.9600 C   0  0  0  0  0  2  0  0  0  0  0  0
  194.1970  175.5280  138.3600 F   0  0  0  0  0  0  0  0  0  0  0  0
  193.3010  175.7370  137.3710 C   0  0  0  0  0  0  0  0  0  0  0  0
  191.9490  175.9800  137.6120 C   0  0  0  0  0  0  0  0  0  0  0  0
  189.7020  176.1590  136.4980 C   0  0  1  0  0  3  0  0  0  0  0  0
  189.9210  176.6110  138.9060 C   0  0  0  0  0  0  0  0  0  0  0  0
  194.9360  175.3470  135.4090 C   0  0  0  0  0  2  0  0  0  0  0  0
  196.4410  177.0690  135.2830 N   0  0  0  0  0  1  0  0  0  0  0  0
  196.0350  176.0090  136.1040 N   0  0  0  0  0  0  0  0  0  0  0  0
  197.1640  175.0780  136.1940 C   0  0  0  0  0  3  0  0  0  0  0  0
  197.2290  174.5100  137.4750 O   0  0  0  0  0  0  0  0  0  0  0  0
  197.4200  173.1390  137.2580 C   0  0  0  0  0  1  0  0  0  0  0  0
  198.3590  175.7600  135.9320 O   0  0  0  0  0  0  0  0  0  0  0  0
  199.0240  174.9690  134.9890 C   0  0  0  0  0  1  0  0  0  0  0  0
  189.1530  177.0310  135.3800 C   0  0  0  0  0  2  0  0  0  0  0  0
  187.7510  176.2120  134.5960 S   0  0  0  0  0  0  0  0  0  0  0  0
  187.3170  174.7800  136.6950 F   0  0  0  0  0  0  0  0  0  0  0  0
  186.8420  175.7280  135.8360 C   0  0  2  0  0  3  0  0  0  0  0  0
  185.4410  176.2310  135.9610 C   0  0  0  0  0  2  0  0  0  0  0  0
  184.4760  175.0930  136.0650 C   0  0  0  0  0  0  0  0  0  0  0  0
  183.2310  175.2450  136.7720 N   0  0  0  0  0  0  0  0  0  0  0  0
  184.7480  174.0070  135.4790 O   0  0  0  0  0  0  0  0  0  0  0  0
  182.1250  174.3360  136.4660 C   0  0  1  0  0  3  0  0  0  0  0  0
  182.4190  172.9370  136.9710 C   0  0  0  0  0  1  0  0  0  0  0  0
  180.7980  174.8350  137.0330 C   0  0  0  0  0  2  0  0  0  0  0  0
  180.5890  174.3430  138.4540 C   0  0  0  0  0  2  0  0  0  0  0  0
  179.8610  175.2830  139.1780 O   0  0  0  0  0  1  0  0  0  0  0  0
  183.0770  176.3490  137.7250 C   0  0  0  0  0  2  0  0  0  0  0  0
  182.4320  179.4390  138.6010 C   0  0  1  0  0  3  0  0  0  0  0  0
  183.6290  178.7590  137.9610 C   0  0  0  0  0  2  0  0  0  0  0  0
  181.6690  178.1350  136.6750 C   0  0  0  0  0  2  0  0  0  0  0  0
  183.0860  177.7030  137.0220 C   0  0  2  0  0  3  0  0  0  0  0  0
  181.2630  179.2120  137.6640 C   0  0  0  0  0  2  0  0  0  0  0  0
  182.1370  178.8210  139.8870 N   0  0  0  0  0  2  0  0  0  0  0  0
  181.0930  179.2820  140.7530 C   0  0  0  0  0  0  0  0  0  0  0  0
  180.4230  180.3080  140.4630 O   0  0  0  0  0  0  0  0  0  0  0  0
  180.7730  178.5160  141.9880 C   0  0  0  0  0  2  0  0  0  0  0  0
  181.3550  179.2090  143.2120 C   0  0  0  0  0  2  0  0  0  0  0  0
  182.7050  178.7190  143.4710 N   0  0  0  0  0  1  0  0  0  0  0  0
  189.3770  177.1100  140.0900 O   0  0  0  0  0  0  0  0  0  0  0  0
  187.4050  178.8150  141.9920 C   0  0  1  0  0  3  0  0  0  0  0  0
  188.7130  178.3640  140.1610 C   0  0  1  0  0  3  0  0  0  0  0  0
  187.3000  178.1960  139.7760 C   0  0  0  0  0  0  0  0  0  0  0  0
  188.7360  178.8260  141.4960 O   0  0  0  0  0  0  0  0  0  0  0  0
  186.8790  177.9470  138.5400 C   0  0  0  0  0  2  0  0  0  0  0  0
  186.4110  178.4700  140.8970 C   0  0  0  0  0  2  0  0  0  0  0  0
  187.2640  177.8740  143.1980 C   0  0  1  0  0  3  0  0  0  0  0  0
  191.0980  176.3320  144.3970 C   0  0  0  0  0  3  0  0  0  0  0  0
  190.3240  175.6420  143.4570 C   0  0  0  0  0  3  0  0  0  0  0  0
  190.6220  177.5170  144.9650 C   0  0  0  0  0  3  0  0  0  0  0  0
  189.3700  178.0130  144.5950 C   0  0  0  0  0  3  0  0  0  0  0  0
  188.5840  177.3210  143.6580 C   0  0  0  0  0  0  0  0  0  0  0  0
  189.0720  176.1370  143.0870 C   0  0  0  0  0  3  0  0  0  0  0  0
  186.6110  178.5360  144.2420 O   0  0  0  0  0  0  0  0  0  0  0  0
  186.2880  177.5270  145.1540 C   0  0  0  0  0  2  0  0  0  0  0  0
  185.9480  179.5460  146.2730 C   0  0  0  0  0  1  0  0  0  0  0  0
  184.7700  177.6460  146.9270 C   0  0  0  0  0  1  0  0  0  0  0  0
  186.0670  178.1110  146.4680 N   0  0  0  0  0  0  0  0  0  0  0  0
  1  7  2  0  0  0  0
  2  1  1  0  0  0  0
  2  3  1  0  0  0  0
  3  9  1  0  0  0  0
  3  8  2  0  0  0  0
  4 10  2  0  0  0  0
  7  8  1  0  0  0  0
  7  6  1  0  0  0  0
  8  5  1  0  0  0  0
  9 19  1  6  0  0  0
  9  4  1  0  0  0  0
 10  5  1  0  0  0  0
 10 44  1  0  0  0  0
 11  1  1  0  0  0  0
 11 13  1  0  0  0  0
 12 13  1  0  0  0  0
 13 14  1  0  0  0  0
 14 15  1  0  0  0  0
 16 15  1  0  0  0  0
 17 14  1  0  0  0  0
 18 17  1  0  0  0  0
 20 19  1  0  0  0  0
 20 22  1  0  0  0  0
 22 23  1  0  0  0  0
 22 21  1  6  0  0  0
 23 24  1  0  0  0  0
 24 25  1  0  0  0  0
 25 32  1  0  0  0  0
 26 24  2  0  0  0  0
 27 25  1  0  0  0  0
 27 28  1  1  0  0  0
 27 29  1  0  0  0  0
 29 30  1  0  0  0  0
 30 31  1  0  0  0  0
 33 38  1  1  0  0  0
 34 33  1  0  0  0  0
 35 36  1  0  0  0  0
 35 37  1  0  0  0  0
 36 32  1  1  0  0  0
 36 34  1  0  0  0  0
 37 33  1  0  0  0  0
 38 39  1  0  0  0  0
 39 41  1  0  0  0  0
 40 39  2  0  0  0  0
 41 42  1  0  0  0  0
 42 43  1  0  0  0  0
 45 51  1  1  0  0  0
 46 44  1  1  0  0  0
 46 48  1  0  0  0  0
 47 46  1  0  0  0  0
 47 50  1  0  0  0  0
 48 45  1  0  0  0  0
 49 47  2  0  0  0  0
 50 45  1  0  0  0  0
 51 56  1  0  0  0  0
 51 58  1  1  0  0  0
 52 54  1  0  0  0  0
 53 52  2  0  0  0  0
 55 54  2  0  0  0  0
 56 55  1  0  0  0  0
 57 53  1  0  0  0  0
 57 56  2  0  0  0  0
 58 59  1  0  0  0  0
 59 62  1  0  0  0  0
 60 62  1  0  0  0  0
 62 61  1  0  0  0  0
M  END
>  <MODEL>
5

>  <REMARK>
 VINA RESULT:      -5.2      3.036      9.725
  Name = 
  24 active torsions:
  status: ('A' for Active; 'I' for Inactive)
    1  A    between atoms: C_1  and  C_24
    2  A    between atoms: C_2  and  N_8
    3  A    between atoms: C_3  and  C_11
    4  A    between atoms: O_6  and  C_10
    5  A    between atoms: C_7  and  C_57
    6  A    between atoms: C_10  and  O_20
    7  A    between atoms: C_10  and  N_59
    8  A    between atoms: C_11  and  C_55
    9  A    between atoms: N_12  and  C_19
   10  A    between atoms: N_12  and  C_61
   11  A    between atoms: C_16  and  C_44
   12  A    between atoms: C_19  and  C_35
   13  A    between atoms: C_24  and  N_59
   14  A    between atoms: C_25  and  C_47
   15  A    between atoms: O_27  and  C_28
   16  A    between atoms: O_27  and  C_47
   17  A    between atoms: C_28  and  N_42
   18  A    between atoms: C_30  and  O_48
   19  A    between atoms: C_36  and  C_47
   20  A    between atoms: C_37  and  S_45
   21  A    between atoms: C_37  and  C_58
   22  A    between atoms: C_44  and  C_49
   23  A    between atoms: O_48  and  C_60
   24  A    between atoms: C_57  and  C_61
                            x       y       z     vdW  Elec       q    Type
                         _______ _______ _______ _____ _____    ______ ____

>  <TORSDO>
F 24

$$$$
=
 OpenBabel11042410083D

 62 66  0  0  1  0  0  0  0  0999 V2000
  191.9780  176.7580  138.2030 C   0  0  0  0  0  0  0  0  0  0  0  0
  190.8040  177.1550  137.0610 S   0  0  0  0  0  0  0  0  0  0  0  0
  189.5680  177.3940  138.1810 C   0  0  0  0  0  0  0  0  0  0  0  0
  187.4350  178.0950  139.1340 N   0  0  0  0  0  0  0  0  0  0  0  0
  189.1340  177.1220  140.6330 C   0  0  0  0  0  2  0  0  0  0  0  0
  192.0300  176.3750  140.5940 F   0  0  0  0  0  0  0  0  0  0  0  0
  191.3880  176.7490  139.4660 C   0  0  0  0  0  0  0  0  0  0  0  0
  190.0440  177.1210  139.4480 C   0  0  0  0  0  0  0  0  0  0  0  0
  188.1100  177.6220  137.9200 C   0  0  1  0  0  3  0  0  0  0  0  0
  187.8550  177.8780  140.3540 C   0  0  0  0  0  0  0  0  0  0  0  0
  193.3580  176.3200  137.8510 C   0  0  0  0  0  2  0  0  0  0  0  0
  192.4610  174.2180  137.7000 N   0  0  0  0  0  1  0  0  0  0  0  0
  193.3500  175.0930  137.0620 N   0  0  0  0  0  0  0  0  0  0  0  0
  194.6800  174.4800  137.1310 C   0  0  0  0  0  3  0  0  0  0  0  0
  195.2300  174.3590  135.8470 O   0  0  0  0  0  0  0  0  0  0  0  0
  195.8490  175.5900  135.5950 C   0  0  0  0  0  1  0  0  0  0  0  0
  194.5840  173.2100  137.7130 O   0  0  0  0  0  0  0  0  0  0  0  0
  195.1290  172.3390  136.7640 C   0  0  0  0  0  1  0  0  0  0  0  0
  187.8930  178.6250  136.7980 C   0  0  0  0  0  2  0  0  0  0  0  0
  187.1480  177.8030  135.3770 S   0  0  0  0  0  0  0  0  0  0  0  0
  186.8430  175.6160  136.7060 F   0  0  0  0  0  0  0  0  0  0  0  0
  186.2450  176.6400  136.0320 C   0  0  2  0  0  3  0  0  0  0  0  0
  184.7710  176.6280  135.7890 C   0  0  0  0  0  2  0  0  0  0  0  0
  184.2080  175.2600  136.0080 C   0  0  0  0  0  0  0  0  0  0  0  0
  182.8730  175.0860  136.5210 N   0  0  0  0  0  0  0  0  0  0  0  0
  184.9040  174.2550  135.6900 O   0  0  0  0  0  0  0  0  0  0  0  0
  182.1790  173.8200  136.2800 C   0  0  1  0  0  3  0  0  0  0  0  0
  181.2070  173.9480  135.1230 C   0  0  0  0  0  1  0  0  0  0  0  0
  183.1510  172.6700  136.0290 C   0  0  0  0  0  2  0  0  0  0  0  0
  183.1830  171.7120  137.2070 C   0  0  0  0  0  2  0  0  0  0  0  0
  183.3800  170.4110  136.7530 O   0  0  0  0  0  1  0  0  0  0  0  0
  182.2170  176.2040  137.2060 C   0  0  0  0  0  2  0  0  0  0  0  0
  179.9130  177.6190  139.0560 C   0  0  1  0  0  3  0  0  0  0  0  0
  179.8900  176.5080  138.0210 C   0  0  0  0  0  2  0  0  0  0  0  0
  181.6240  175.9650  139.6280 C   0  0  0  0  0  2  0  0  0  0  0  0
  181.1670  175.7140  138.2000 C   0  0  2  0  0  3  0  0  0  0  0  0
  180.8450  177.1560  140.1570 C   0  0  0  0  0  2  0  0  0  0  0  0
  180.4450  178.8400  138.4650 N   0  0  0  0  0  2  0  0  0  0  0  0
  180.4620  180.0960  139.1530 C   0  0  0  0  0  0  0  0  0  0  0  0
  179.9390  180.2120  140.2910 O   0  0  0  0  0  0  0  0  0  0  0  0
  181.1400  181.2640  138.5280 C   0  0  0  0  0  2  0  0  0  0  0  0
  180.1310  182.3550  138.1990 C   0  0  0  0  0  2  0  0  0  0  0  0
  180.4230  182.9300  136.8900 N   0  0  0  0  0  1  0  0  0  0  0  0
  187.1200  178.3480  141.4420 O   0  0  0  0  0  0  0  0  0  0  0  0
  184.3490  179.3650  142.7480 C   0  0  1  0  0  3  0  0  0  0  0  0
  186.1490  179.3800  141.3250 C   0  0  1  0  0  3  0  0  0  0  0  0
  184.9780  178.8730  140.5880 C   0  0  0  0  0  0  0  0  0  0  0  0
  185.7090  179.7510  142.6150 O   0  0  0  0  0  0  0  0  0  0  0  0
  184.9660  178.5960  139.2870 C   0  0  0  0  0  2  0  0  0  0  0  0
  183.7950  178.8380  141.4360 C   0  0  0  0  0  2  0  0  0  0  0  0
  184.1640  178.3500  143.8860 C   0  0  1  0  0  3  0  0  0  0  0  0
  187.4090  178.2250  146.7090 C   0  0  0  0  0  3  0  0  0  0  0  0
  186.3100  179.0610  146.9360 C   0  0  0  0  0  3  0  0  0  0  0  0
  187.4670  177.4380  145.5550 C   0  0  0  0  0  3  0  0  0  0  0  0
  186.4270  177.4890  144.6250 C   0  0  0  0  0  3  0  0  0  0  0  0
  185.3250  178.3330  144.8420 C   0  0  0  0  0  0  0  0  0  0  0  0
  185.2690  179.1120  146.0060 C   0  0  0  0  0  3  0  0  0  0  0  0
  182.9670  178.6070  144.5610 O   0  0  0  0  0  0  0  0  0  0  0  0
  181.9780  178.5120  143.5790 C   0  0  0  0  0  2  0  0  0  0  0  0
  180.2900  180.1160  143.4320 C   0  0  0  0  0  1  0  0  0  0  0  0
  179.7370  177.8820  143.7870 C   0  0  0  0  0  1  0  0  0  0  0  0
  180.6960  178.9140  144.1390 N   0  0  0  0  0  0  0  0  0  0  0  0
  1  7  2  0  0  0  0
  2  3  1  0  0  0  0
  2  1  1  0  0  0  0
  3  8  2  0  0  0  0
  4 10  2  0  0  0  0
  7  6  1  0  0  0  0
  8  7  1  0  0  0  0
  8  5  1  0  0  0  0
  9 19  1  6  0  0  0
  9  3  1  0  0  0  0
  9  4  1  0  0  0  0
 10  5  1  0  0  0  0
 10 44  1  0  0  0  0
 11  1  1  0  0  0  0
 13 14  1  0  0  0  0
 13 12  1  0  0  0  0
 13 11  1  0  0  0  0
 14 17  1  0  0  0  0
 15 14  1  0  0  0  0
 16 15  1  0  0  0  0
 18 17  1  0  0  0  0
 20 22  1  0  0  0  0
 20 19  1  0  0  0  0
 22 21  1  6  0  0  0
 23 24  1  0  0  0  0
 23 22  1  0  0  0  0
 24 25  1  0  0  0  0
 25 32  1  0  0  0  0
 26 24  2  0  0  0  0
 27 28  1  6  0  0  0
 27 25  1  0  0  0  0
 29 27  1  0  0  0  0
 29 30  1  0  0  0  0
 31 30  1  0  0  0  0
 33 38  1  6  0  0  0
 33 37  1  0  0  0  0
 34 36  1  0  0  0  0
 34 33  1  0  0  0  0
 35 37  1  0  0  0  0
 36 32  1  6  0  0  0
 36 35  1  0  0  0  0
 38 39  1  0  0  0  0
 39 40  2  0  0  0  0
 41 39  1  0  0  0  0
 42 41  1  0  0  0  0
 43 42  1  0  0  0  0
 45 51  1  1  0  0  0
 46 44  1  1  0  0  0
 46 48  1  0  0  0  0
 47 46  1  0  0  0  0
 47 50  1  0  0  0  0
 48 45  1  0  0  0  0
 49 47  2  0  0  0  0
 50 45  1  0  0  0  0
 51 58  1  1  0  0  0
 51 56  1  0  0  0  0
 52 53  1  0  0  0  0
 54 52  2  0  0  0  0
 55 56  2  0  0  0  0
 55 54  1  0  0  0  0
 56 57  1  0  0  0  0
 57 53  2  0  0  0  0
 59 62  1  0  0  0  0
 59 58  1  0  0  0  0
 60 62  1  0  0  0  0
 61 62  1  0  0  0  0
M  END
>  <MODEL>
6

>  <REMARK>
 VINA RESULT:      -4.7      3.262      8.406
  Name = 
  24 active torsions:
  status: ('A' for Active; 'I' for Inactive)
    1  A    between atoms: C_1  and  C_24
    2  A    between atoms: C_2  and  N_8
    3  A    between atoms: C_3  and  C_11
    4  A    between atoms: O_6  and  C_10
    5  A    between atoms: C_7  and  C_57
    6  A    between atoms: C_10  and  O_20
    7  A    between atoms: C_10  and  N_59
    8  A    between atoms: C_11  and  C_55
    9  A    between atoms: N_12  and  C_19
   10  A    between atoms: N_12  and  C_61
   11  A    between atoms: C_16  and  C_44
   12  A    between atoms: C_19  and  C_35
   13  A    between atoms: C_24  and  N_59
   14  A    between atoms: C_25  and  C_47
   15  A    between atoms: O_27  and  C_28
   16  A    between atoms: O_27  and  C_47
   17  A    between atoms: C_28  and  N_42
   18  A    between atoms: C_30  and  O_48
   19  A    between atoms: C_36  and  C_47
   20  A    between atoms: C_37  and  S_45
   21  A    between atoms: C_37  and  C_58
   22  A    between atoms: C_44  and  C_49
   23  A    between atoms: O_48  and  C_60
   24  A    between atoms: C_57  and  C_61
                            x       y       z     vdW  Elec       q    Type
                         _______ _______ _______ _____ _____    ______ ____

>  <TORSDO>
F 24

$$$$
=
 OpenBabel11042410083D

 62 66  0  0  1  0  0  0  0  0999 V2000
  189.5210  177.8100  143.8240 C   0  0  0  0  0  0  0  0  0  0  0  0
  187.9910  178.3170  143.3330 S   0  0  0  0  0  0  0  0  0  0  0  0
  188.2290  177.9800  141.6990 C   0  0  0  0  0  0  0  0  0  0  0  0
  187.7490  177.5840  139.3410 N   0  0  0  0  0  0  0  0  0  0  0  0
  190.0570  177.2590  140.1460 C   0  0  0  0  0  2  0  0  0  0  0  0
  191.5500  177.0690  142.7310 F   0  0  0  0  0  0  0  0  0  0  0  0
  190.2500  177.4340  142.6980 C   0  0  0  0  0  0  0  0  0  0  0  0
  189.5170  177.5160  141.5140 C   0  0  0  0  0  0  0  0  0  0  0  0
  187.3430  178.3240  140.5400 C   0  0  1  0  0  3  0  0  0  0  0  0
  188.9500  177.1110  139.1270 C   0  0  0  0  0  0  0  0  0  0  0  0
  190.0230  177.9360  145.2210 C   0  0  0  0  0  2  0  0  0  0  0  0
  188.1830  176.9290  146.1410 N   0  0  0  0  0  1  0  0  0  0  0  0
  189.5780  176.8260  146.0580 N   0  0  0  0  0  0  0  0  0  0  0  0
  190.1050  177.0170  147.4120 C   0  0  0  0  0  3  0  0  0  0  0  0
  190.9360  175.9440  147.7690 O   0  0  0  0  0  0  0  0  0  0  0  0
  192.0640  176.0650  146.9470 C   0  0  0  0  0  1  0  0  0  0  0  0
  189.0450  177.1010  148.3230 O   0  0  0  0  0  0  0  0  0  0  0  0
  188.7900  178.4700  148.4510 C   0  0  0  0  0  1  0  0  0  0  0  0
  185.8830  178.0300  140.8460 C   0  0  0  0  0  2  0  0  0  0  0  0
  184.8250  179.1890  139.9610 S   0  0  0  0  0  0  0  0  0  0  0  0
  185.7830  178.4450  137.6870 F   0  0  0  0  0  0  0  0  0  0  0  0
  184.6850  178.5420  138.4910 C   0  0  2  0  0  3  0  0  0  0  0  0
  183.3330  178.1680  137.9770 C   0  0  0  0  0  2  0  0  0  0  0  0
  182.2590  178.7280  138.8540 C   0  0  0  0  0  0  0  0  0  0  0  0
  181.5620  177.8870  139.7920 N   0  0  0  0  0  0  0  0  0  0  0  0
  182.0050  179.9640  138.7950 O   0  0  0  0  0  0  0  0  0  0  0  0
  180.8920  178.5040  140.9380 C   0  0  1  0  0  3  0  0  0  0  0  0
  179.5940  177.7880  141.2560 C   0  0  0  0  0  1  0  0  0  0  0  0
  181.7890  178.5480  142.1720 C   0  0  0  0  0  2  0  0  0  0  0  0
  181.1690  179.3950  143.2710 C   0  0  0  0  0  2  0  0  0  0  0  0
  180.6210  178.5730  144.2500 O   0  0  0  0  0  1  0  0  0  0  0  0
  181.6010  176.4310  139.6180 C   0  0  0  0  0  2  0  0  0  0  0  0
  180.9490  174.5210  137.0370 C   0  0  1  0  0  3  0  0  0  0  0  0
  180.5460  174.4800  138.5000 C   0  0  0  0  0  2  0  0  0  0  0  0
  180.0450  176.7050  137.6740 C   0  0  0  0  0  2  0  0  0  0  0  0
  180.3350  175.9130  138.9400 C   0  0  2  0  0  3  0  0  0  0  0  0
  180.4340  175.8370  136.4910 C   0  0  0  0  0  2  0  0  0  0  0  0
  182.4010  174.4940  136.9200 N   0  0  0  0  0  2  0  0  0  0  0  0
  183.0800  174.1260  135.7130 C   0  0  0  0  0  0  0  0  0  0  0  0
  182.4330  173.7320  134.7070 O   0  0  0  0  0  0  0  0  0  0  0  0
  184.5600  174.2500  135.6380 C   0  0  0  0  0  2  0  0  0  0  0  0
  185.0000  175.6560  136.0180 C   0  0  0  0  0  2  0  0  0  0  0  0
  184.9020  176.5420  134.8630 N   0  0  0  0  0  1  0  0  0  0  0  0
  189.2390  176.4450  137.9360 O   0  0  0  0  0  0  0  0  0  0  0  0
  188.9880  175.3360  134.9150 C   0  0  1  0  0  3  0  0  0  0  0  0
  188.3510  176.4370  136.8250 C   0  0  1  0  0  3  0  0  0  0  0  0
  188.7900  177.4380  135.8370 C   0  0  0  0  0  0  0  0  0  0  0  0
  188.4040  175.1720  136.1990 O   0  0  0  0  0  0  0  0  0  0  0  0
  188.7040  178.7540  136.0050 C   0  0  0  0  0  2  0  0  0  0  0  0
  189.2090  176.8040  134.5940 C   0  0  0  0  0  2  0  0  0  0  0  0
  190.2880  174.5290  134.7840 C   0  0  1  0  0  3  0  0  0  0  0  0
  193.3560  175.6170  137.5970 C   0  0  0  0  0  3  0  0  0  0  0  0
  192.4730  174.5710  137.8880 C   0  0  0  0  0  3  0  0  0  0  0  0
  193.2350  176.3260  136.3990 C   0  0  0  0  0  3  0  0  0  0  0  0
  192.2290  175.9910  135.4910 C   0  0  0  0  0  3  0  0  0  0  0  0
  191.3340  174.9480  135.7790 C   0  0  0  0  0  0  0  0  0  0  0  0
  191.4660  174.2350  136.9790 C   0  0  0  0  0  3  0  0  0  0  0  0
  190.0120  173.1630  134.8980 O   0  0  0  0  0  0  0  0  0  0  0  0
  188.6280  173.0650  134.7250 C   0  0  0  0  0  2  0  0  0  0  0  0
  189.4460  170.8880  134.9250 C   0  0  0  0  0  1  0  0  0  0  0  0
  187.3620  171.4280  135.8120 C   0  0  0  0  0  1  0  0  0  0  0  0
  188.2410  171.6620  134.6810 N   0  0  0  0  0  0  0  0  0  0  0  0
  1 11  1  0  0  0  0
  2  1  1  0  0  0  0
  3  2  1  0  0  0  0
  4  9  1  0  0  0  0
  5  8  1  0  0  0  0
  7  6  1  0  0  0  0
  7  1  2  0  0  0  0
  8  3  2  0  0  0  0
  8  7  1  0  0  0  0
  9 19  1  1  0  0  0
  9  3  1  0  0  0  0
 10  4  2  0  0  0  0
 10  5  1  0  0  0  0
 11 13  1  0  0  0  0
 13 12  1  0  0  0  0
 13 14  1  0  0  0  0
 14 15  1  0  0  0  0
 14 17  1  0  0  0  0
 16 15  1  0  0  0  0
 17 18  1  0  0  0  0
 20 19  1  0  0  0  0
 22 21  1  6  0  0  0
 22 20  1  0  0  0  0
 23 22  1  0  0  0  0
 23 24  1  0  0  0  0
 24 25  1  0  0  0  0
 25 27  1  0  0  0  0
 26 24  2  0  0  0  0
 27 28  1  1  0  0  0
 27 29  1  0  0  0  0
 29 30  1  0  0  0  0
 30 31  1  0  0  0  0
 32 25  1  0  0  0  0
 33 38  1  1  0  0  0
 33 34  1  0  0  0  0
 34 36  1  0  0  0  0
 35 36  1  0  0  0  0
 36 32  1  6  0  0  0
 37 33  1  0  0  0  0
 37 35  1  0  0  0  0
 39 38  1  0  0  0  0
 40 39  2  0  0  0  0
 41 39  1  0  0  0  0
 41 42  1  0  0  0  0
 43 42  1  0  0  0  0
 44 10  1  0  0  0  0
 45 51  1  1  0  0  0
 45 48  1  0  0  0  0
 46 44  1  1  0  0  0
 47 49  2  0  0  0  0
 47 46  1  0  0  0  0
 48 46  1  0  0  0  0
 50 45  1  0  0  0  0
 50 47  1  0  0  0  0
 51 58  1  1  0  0  0
 51 56  1  0  0  0  0
 52 53  1  0  0  0  0
 54 52  2  0  0  0  0
 55 56  2  0  0  0  0
 55 54  1  0  0  0  0
 56 57  1  0  0  0  0
 57 53  2  0  0  0  0
 59 58  1  0  0  0  0
 62 59  1  0  0  0  0
 62 60  1  0  0  0  0
 62 61  1  0  0  0  0
M  END
>  <MODEL>
7

>  <REMARK>
 VINA RESULT:      -4.7      2.362      8.789
  Name = 
  24 active torsions:
  status: ('A' for Active; 'I' for Inactive)
    1  A    between atoms: C_1  and  C_24
    2  A    between atoms: C_2  and  N_8
    3  A    between atoms: C_3  and  C_11
    4  A    between atoms: O_6  and  C_10
    5  A    between atoms: C_7  and  C_57
    6  A    between atoms: C_10  and  O_20
    7  A    between atoms: C_10  and  N_59
    8  A    between atoms: C_11  and  C_55
    9  A    between atoms: N_12  and  C_19
   10  A    between atoms: N_12  and  C_61
   11  A    between atoms: C_16  and  C_44
   12  A    between atoms: C_19  and  C_35
   13  A    between atoms: C_24  and  N_59
   14  A    between atoms: C_25  and  C_47
   15  A    between atoms: O_27  and  C_28
   16  A    between atoms: O_27  and  C_47
   17  A    between atoms: C_28  and  N_42
   18  A    between atoms: C_30  and  O_48
   19  A    between atoms: C_36  and  C_47
   20  A    between atoms: C_37  and  S_45
   21  A    between atoms: C_37  and  C_58
   22  A    between atoms: C_44  and  C_49
   23  A    between atoms: O_48  and  C_60
   24  A    between atoms: C_57  and  C_61
                            x       y       z     vdW  Elec       q    Type
                         _______ _______ _______ _____ _____    ______ ____

>  <TORSDO>
F 24

$$$$
=
 OpenBabel11042410083D

 62 66  0  0  1  0  0  0  0  0999 V2000
  187.1330  178.2810  144.8930 C   0  0  0  0  0  0  0  0  0  0  0  0
  187.1280  177.8720  143.2580 S   0  0  0  0  0  0  0  0  0  0  0  0
  185.5110  178.2690  142.9990 C   0  0  0  0  0  0  0  0  0  0  0  0
  183.4310  178.7930  141.8380 N   0  0  0  0  0  0  0  0  0  0  0  0
  183.4860  178.9690  144.2970 C   0  0  0  0  0  2  0  0  0  0  0  0
  185.4820  178.9700  146.5250 F   0  0  0  0  0  0  0  0  0  0  0  0
  185.8450  178.6710  145.2590 C   0  0  0  0  0  0  0  0  0  0  0  0
  184.9480  178.6770  144.1920 C   0  0  0  0  0  0  0  0  0  0  0  0
  184.6770  178.0210  141.7800 C   0  0  1  0  0  3  0  0  0  0  0  0
  182.8670  179.2160  142.9400 C   0  0  0  0  0  0  0  0  0  0  0  0
  188.2990  178.0680  145.7940 C   0  0  0  0  0  2  0  0  0  0  0  0
  189.1270  176.2830  144.6220 N   0  0  0  0  0  1  0  0  0  0  0  0
  189.4610  177.5690  145.0650 N   0  0  0  0  0  0  0  0  0  0  0  0
  190.5790  177.4250  146.0030 C   0  0  0  0  0  3  0  0  0  0  0  0
  191.8030  177.5490  145.3290 O   0  0  0  0  0  0  0  0  0  0  0  0
  191.5870  178.5340  144.3560 C   0  0  0  0  0  1  0  0  0  0  0  0
  190.5180  176.1680  146.6180 O   0  0  0  0  0  0  0  0  0  0  0  0
  191.8480  175.8450  146.9050 C   0  0  0  0  0  1  0  0  0  0  0  0
  185.4300  178.3720  140.5060 C   0  0  0  0  0  2  0  0  0  0  0  0
  184.8270  177.3650  139.1390 S   0  0  0  0  0  0  0  0  0  0  0  0
  184.2900  179.4600  137.7350 F   0  0  0  0  0  0  0  0  0  0  0  0
  185.0190  178.3110  137.8470 C   0  0  2  0  0  3  0  0  0  0  0  0
  185.8990  177.8600  136.7290 C   0  0  0  0  0  2  0  0  0  0  0  0
  187.3160  177.7250  137.1900 C   0  0  0  0  0  0  0  0  0  0  0  0
  188.1440  176.6450  136.7180 N   0  0  0  0  0  0  0  0  0  0  0  0
  187.7920  178.6030  137.9630 O   0  0  0  0  0  0  0  0  0  0  0  0
  189.5990  176.7880  136.7780 C   0  0  1  0  0  3  0  0  0  0  0  0
  190.1240  177.5030  135.5490 C   0  0  0  0  0  1  0  0  0  0  0  0
  190.0540  177.5090  138.0450 C   0  0  0  0  0  2  0  0  0  0  0  0
  190.1300  176.5530  139.2230 C   0  0  0  0  0  2  0  0  0  0  0  0
  189.4800  177.1060  140.3230 O   0  0  0  0  0  1  0  0  0  0  0  0
  187.5120  175.4620  136.1250 C   0  0  0  0  0  2  0  0  0  0  0  0
  187.4580  172.2980  135.2800 C   0  0  1  0  0  3  0  0  0  0  0  0
  187.9540  173.5580  134.5940 C   0  0  0  0  0  2  0  0  0  0  0  0
  188.9250  173.5140  136.8160 C   0  0  0  0  0  2  0  0  0  0  0  0
  188.5500  174.4400  135.6700 C   0  0  2  0  0  3  0  0  0  0  0  0
  188.2390  172.1820  136.5730 C   0  0  0  0  0  2  0  0  0  0  0  0
  186.0400  172.4260  135.5900 N   0  0  0  0  0  2  0  0  0  0  0  0
  185.1270  171.3240  135.5350 C   0  0  0  0  0  0  0  0  0  0  0  0
  185.5080  170.1930  135.1350 O   0  0  0  0  0  0  0  0  0  0  0  0
  183.7230  171.5110  135.9920 C   0  0  0  0  0  2  0  0  0  0  0  0
  183.3410  172.9840  135.9550 C   0  0  0  0  0  2  0  0  0  0  0  0
  181.9750  173.1350  135.4670 N   0  0  0  0  0  1  0  0  0  0  0  0
  181.6640  179.9190  142.8860 O   0  0  0  0  0  0  0  0  0  0  0  0
  179.7400  177.8550  141.3190 C   0  0  1  0  0  3  0  0  0  0  0  0
  180.3970  179.2830  142.9910 C   0  0  1  0  0  3  0  0  0  0  0  0
  179.4220  179.9840  142.1370 C   0  0  0  0  0  0  0  0  0  0  0  0
  180.5020  177.9580  142.5130 O   0  0  0  0  0  0  0  0  0  0  0  0
  178.9310  181.1950  142.3870 C   0  0  0  0  0  2  0  0  0  0  0  0
  178.9610  179.1300  141.0510 C   0  0  0  0  0  2  0  0  0  0  0  0
  180.6230  177.4720  140.1220 C   0  0  1  0  0  3  0  0  0  0  0  0
  179.6790  173.6130  138.4710 C   0  0  0  0  0  3  0  0  0  0  0  0
  180.6260  174.4330  137.8460 C   0  0  0  0  0  3  0  0  0  0  0  0
  179.0230  174.0500  139.6250 C   0  0  0  0  0  3  0  0  0  0  0  0
  179.3100  175.3090  140.1550 C   0  0  0  0  0  3  0  0  0  0  0  0
  180.2520  176.1420  139.5280 C   0  0  0  0  0  0  0  0  0  0  0  0
  180.9130  175.6940  138.3760 C   0  0  0  0  0  3  0  0  0  0  0  0
  180.5730  178.4800  139.1540 O   0  0  0  0  0  0  0  0  0  0  0  0
  181.6490  179.3180  139.4570 C   0  0  0  0  0  2  0  0  0  0  0  0
  181.0900  179.7320  137.2300 C   0  0  0  0  0  1  0  0  0  0  0  0
  181.3920  181.5140  138.6990 C   0  0  0  0  0  1  0  0  0  0  0  0
  181.9070  180.2060  138.3340 N   0  0  0  0  0  0  0  0  0  0  0  0
  1  7  2  0  0  0  0
  1 11  1  0  0  0  0
  2  1  1  0  0  0  0
  3  2  1  0  0  0  0
  3  8  2  0  0  0  0
  4 10  2  0  0  0  0
  7  6  1  0  0  0  0
  8  5  1  0  0  0  0
  8  7  1  0  0  0  0
  9 19  1  6  0  0  0
  9  4  1  0  0  0  0
  9  3  1  0  0  0  0
 10  5  1  0  0  0  0
 12 13  1  0  0  0  0
 13 11  1  0  0  0  0
 13 14  1  0  0  0  0
 14 17  1  0  0  0  0
 15 14  1  0  0  0  0
 16 15  1  0  0  0  0
 17 18  1  0  0  0  0
 20 19  1  0  0  0  0
 22 21  1  6  0  0  0
 22 20  1  0  0  0  0
 23 24  1  0  0  0  0
 23 22  1  0  0  0  0
 24 26  2  0  0  0  0
 25 27  1  0  0  0  0
 25 24  1  0  0  0  0
 27 28  1  6  0  0  0
 27 29  1  0  0  0  0
 29 30  1  0  0  0  0
 30 31  1  0  0  0  0
 32 25  1  0  0  0  0
 33 38  1  1  0  0  0
 33 37  1  0  0  0  0
 34 33  1  0  0  0  0
 34 36  1  0  0  0  0
 36 32  1  1  0  0  0
 36 35  1  0  0  0  0
 37 35  1  0  0  0  0
 39 38  1  0  0  0  0
 39 41  1  0  0  0  0
 40 39  2  0  0  0  0
 42 41  1  0  0  0  0
 43 42  1  0  0  0  0
 44 10  1  0  0  0  0
 45 51  1  6  0  0  0
 45 48  1  0  0  0  0
 46 44  1  6  0  0  0
 47 49  2  0  0  0  0
 47 46  1  0  0  0  0
 48 46  1  0  0  0  0
 50 45  1  0  0  0  0
 50 47  1  0  0  0  0
 51 58  1  6  0  0  0
 52 54  1  0  0  0  0
 53 57  1  0  0  0  0
 53 52  2  0  0  0  0
 54 55  2  0  0  0  0
 56 51  1  0  0  0  0
 56 55  1  0  0  0  0
 57 56  2  0  0  0  0
 58 59  1  0  0  0  0
 60 62  1  0  0  0  0
 62 61  1  0  0  0  0
 62 59  1  0  0  0  0
M  END
>  <MODEL>
8

>  <REMARK>
 VINA RESULT:      -4.7      2.153      2.993
  Name = 
  24 active torsions:
  status: ('A' for Active; 'I' for Inactive)
    1  A    between atoms: C_1  and  C_24
    2  A    between atoms: C_2  and  N_8
    3  A    between atoms: C_3  and  C_11
    4  A    between atoms: O_6  and  C_10
    5  A    between atoms: C_7  and  C_57
    6  A    between atoms: C_10  and  O_20
    7  A    between atoms: C_10  and  N_59
    8  A    between atoms: C_11  and  C_55
    9  A    between atoms: N_12  and  C_19
   10  A    between atoms: N_12  and  C_61
   11  A    between atoms: C_16  and  C_44
   12  A    between atoms: C_19  and  C_35
   13  A    between atoms: C_24  and  N_59
   14  A    between atoms: C_25  and  C_47
   15  A    between atoms: O_27  and  C_28
   16  A    between atoms: O_27  and  C_47
   17  A    between atoms: C_28  and  N_42
   18  A    between atoms: C_30  and  O_48
   19  A    between atoms: C_36  and  C_47
   20  A    between atoms: C_37  and  S_45
   21  A    between atoms: C_37  and  C_58
   22  A    between atoms: C_44  and  C_49
   23  A    between atoms: O_48  and  C_60
   24  A    between atoms: C_57  and  C_61
                            x       y       z     vdW  Elec       q    Type
                         _______ _______ _______ _____ _____    ______ ____

>  <TORSDO>
F 24

$$$$
=
 OpenBabel11042410083D

 62 66  0  0  1  0  0  0  0  0999 V2000
  189.3550  177.7150  141.9010 C   0  0  0  0  0  0  0  0  0  0  0  0
  188.1990  177.9430  140.6960 S   0  0  0  0  0  0  0  0  0  0  0  0
  189.0390  177.0910  139.5090 C   0  0  0  0  0  0  0  0  0  0  0  0
  189.5050  175.9010  137.4320 N   0  0  0  0  0  0  0  0  0  0  0  0
  191.2610  175.9900  139.1590 C   0  0  0  0  0  2  0  0  0  0  0  0
  191.5770  176.7610  142.0330 F   0  0  0  0  0  0  0  0  0  0  0  0
  190.4360  177.0230  141.3580 C   0  0  0  0  0  0  0  0  0  0  0  0
  190.2460  176.6630  140.0240 C   0  0  0  0  0  0  0  0  0  0  0  0
  188.7220  176.9770  138.0490 C   0  0  1  0  0  3  0  0  0  0  0  0
  190.6440  175.4490  137.8900 C   0  0  0  0  0  0  0  0  0  0  0  0
  189.2680  178.3300  143.2550 C   0  0  0  0  0  2  0  0  0  0  0  0
  188.2650  176.3760  143.9060 N   0  0  0  0  0  1  0  0  0  0  0  0
  189.2210  177.3180  144.3060 N   0  0  0  0  0  0  0  0  0  0  0  0
  188.7250  177.9400  145.5370 C   0  0  0  0  0  3  0  0  0  0  0  0
  188.7930  177.0340  146.6060 O   0  0  0  0  0  0  0  0  0  0  0  0
  189.9960  177.3300  147.2610 C   0  0  0  0  0  1  0  0  0  0  0  0
  187.3950  178.3410  145.3580 O   0  0  0  0  0  0  0  0  0  0  0  0
  186.7240  177.8740  146.4930 C   0  0  0  0  0  1  0  0  0  0  0  0
  187.2410  176.7230  137.8150 C   0  0  0  0  0  2  0  0  0  0  0  0
  186.7910  177.2120  136.1400 S   0  0  0  0  0  0  0  0  0  0  0  0
  188.0110  175.1760  135.1360 F   0  0  0  0  0  0  0  0  0  0  0  0
  186.8270  175.8310  135.3100 C   0  0  2  0  0  3  0  0  0  0  0  0
  185.5860  175.3460  134.6340 C   0  0  0  0  0  2  0  0  0  0  0  0
  185.1870  174.0030  135.1590 C   0  0  0  0  0  0  0  0  0  0  0  0
  183.9170  173.8160  135.8120 N   0  0  0  0  0  0  0  0  0  0  0  0
  185.9600  173.0210  134.9750 O   0  0  0  0  0  0  0  0  0  0  0  0
  183.3440  172.4710  135.8780 C   0  0  1  0  0  3  0  0  0  0  0  0
  183.7160  171.7880  137.1800 C   0  0  0  0  0  1  0  0  0  0  0  0
  181.8280  172.4820  135.7010 C   0  0  0  0  0  2  0  0  0  0  0  0
  181.3630  171.2970  134.8730 C   0  0  0  0  0  2  0  0  0  0  0  0
  179.9820  171.3430  134.7140 O   0  0  0  0  0  1  0  0  0  0  0  0
  183.1970  174.9840  136.3290 C   0  0  0  0  0  2  0  0  0  0  0  0
  181.6350  177.8320  135.9050 C   0  0  1  0  0  3  0  0  0  0  0  0
  182.5600  177.0040  135.0310 C   0  0  0  0  0  2  0  0  0  0  0  0
  180.8050  175.5310  135.8280 C   0  0  0  0  0  2  0  0  0  0  0  0
  182.2290  175.5500  135.2940 C   0  0  2  0  0  3  0  0  0  0  0  0
  180.4400  176.9540  136.2120 C   0  0  0  0  0  2  0  0  0  0  0  0
  182.3050  178.1780  137.1510 N   0  0  0  0  0  2  0  0  0  0  0  0
  181.9370  179.3110  137.9470 C   0  0  0  0  0  0  0  0  0  0  0  0
  181.0500  180.1120  137.5520 O   0  0  0  0  0  0  0  0  0  0  0  0
  182.5840  179.5190  139.2700 C   0  0  0  0  0  2  0  0  0  0  0  0
  184.0580  179.8590  139.0970 C   0  0  0  0  0  2  0  0  0  0  0  0
  184.8850  178.8430  139.7380 N   0  0  0  0  0  1  0  0  0  0  0  0
  191.3230  174.4390  137.2090 O   0  0  0  0  0  0  0  0  0  0  0  0
  193.6060  174.1220  134.9490 C   0  0  1  0  0  3  0  0  0  0  0  0
  191.4990  174.4480  135.7990 C   0  0  1  0  0  3  0  0  0  0  0  0
  192.0370  175.7540  135.3780 C   0  0  0  0  0  0  0  0  0  0  0  0
  192.4480  173.4640  135.4440 O   0  0  0  0  0  0  0  0  0  0  0  0
  191.3500  176.8930  135.3850 C   0  0  0  0  0  2  0  0  0  0  0  0
  193.3780  175.6180  134.8260 C   0  0  0  0  0  2  0  0  0  0  0  0
  194.8380  173.8090  135.8110 C   0  0  1  0  0  3  0  0  0  0  0  0
  195.1060  169.6340  136.8170 C   0  0  0  0  0  3  0  0  0  0  0  0
  195.6550  170.6000  137.6690 C   0  0  0  0  0  3  0  0  0  0  0  0
  194.4830  170.0190  135.6260 C   0  0  0  0  0  3  0  0  0  0  0  0
  194.4100  171.3710  135.2840 C   0  0  0  0  0  3  0  0  0  0  0  0
  194.9660  172.3450  136.1300 C   0  0  0  0  0  0  0  0  0  0  0  0
  195.5820  171.9530  137.3260 C   0  0  0  0  0  3  0  0  0  0  0  0
  195.9920  174.2830  135.1790 O   0  0  0  0  0  0  0  0  0  0  0  0
  196.3360  175.4370  135.8880 C   0  0  0  0  0  2  0  0  0  0  0  0
  197.9720  174.7510  137.4050 C   0  0  0  0  0  1  0  0  0  0  0  0
  198.3860  174.6220  135.1170 C   0  0  0  0  0  1  0  0  0  0  0  0
  197.7690  175.4420  136.1430 N   0  0  0  0  0  0  0  0  0  0  0  0
  1 11  1  0  0  0  0
  2  1  1  0  0  0  0
  3  8  2  0  0  0  0
  3  2  1  0  0  0  0
  4 10  2  0  0  0  0
  4  9  1  0  0  0  0
  5  8  1  0  0  0  0
  7  1  2  0  0  0  0
  7  6  1  0  0  0  0
  8  7  1  0  0  0  0
  9 19  1  1  0  0  0
  9  3  1  0  0  0  0
 10  5  1  0  0  0  0
 11 13  1  0  0  0  0
 12 13  1  0  0  0  0
 13 14  1  0  0  0  0
 14 15  1  0  0  0  0
 15 16  1  0  0  0  0
 17 14  1  0  0  0  0
 17 18  1  0  0  0  0
 20 19  1  0  0  0  0
 22 21  1  6  0  0  0
 22 20  1  0  0  0  0
 23 24  1  0  0  0  0
 23 22  1  0  0  0  0
 24 25  1  0  0  0  0
 25 27  1  0  0  0  0
 25 32  1  0  0  0  0
 26 24  2  0  0  0  0
 27 28  1  1  0  0  0
 29 27  1  0  0  0  0
 30 29  1  0  0  0  0
 31 30  1  0  0  0  0
 33 37  1  0  0  0  0
 33 38  1  1  0  0  0
 34 36  1  0  0  0  0
 34 33  1  0  0  0  0
 35 37  1  0  0  0  0
 36 35  1  0  0  0  0
 36 32  1  1  0  0  0
 38 39  1  0  0  0  0
 39 41  1  0  0  0  0
 40 39  2  0  0  0  0
 42 41  1  0  0  0  0
 42 43  1  0  0  0  0
 44 10  1  0  0  0  0
 45 48  1  0  0  0  0
 45 51  1  1  0  0  0
 46 44  1  1  0  0  0
 47 49  2  0  0  0  0
 47 46  1  0  0  0  0
 48 46  1  0  0  0  0
 50 45  1  0  0  0  0
 50 47  1  0  0  0  0
 51 58  1  6  0  0  0
 51 56  1  0  0  0  0
 52 53  1  0  0  0  0
 54 52  2  0  0  0  0
 55 54  1  0  0  0  0
 55 56  2  0  0  0  0
 56 57  1  0  0  0  0
 57 53  2  0  0  0  0
 58 59  1  0  0  0  0
 59 62  1  0  0  0  0
 61 62  1  0  0  0  0
 62 60  1  0  0  0  0
M  END
>  <MODEL>
9

>  <REMARK>
 VINA RESULT:      -4.4      3.343     10.520
  Name = 
  24 active torsions:
  status: ('A' for Active; 'I' for Inactive)
    1  A    between atoms: C_1  and  C_24
    2  A    between atoms: C_2  and  N_8
    3  A    between atoms: C_3  and  C_11
    4  A    between atoms: O_6  and  C_10
    5  A    between atoms: C_7  and  C_57
    6  A    between atoms: C_10  and  O_20
    7  A    between atoms: C_10  and  N_59
    8  A    between atoms: C_11  and  C_55
    9  A    between atoms: N_12  and  C_19
   10  A    between atoms: N_12  and  C_61
   11  A    between atoms: C_16  and  C_44
   12  A    between atoms: C_19  and  C_35
   13  A    between atoms: C_24  and  N_59
   14  A    between atoms: C_25  and  C_47
   15  A    between atoms: O_27  and  C_28
   16  A    between atoms: O_27  and  C_47
   17  A    between atoms: C_28  and  N_42
   18  A    between atoms: C_30  and  O_48
   19  A    between atoms: C_36  and  C_47
   20  A    between atoms: C_37  and  S_45
   21  A    between atoms: C_37  and  C_58
   22  A    between atoms: C_44  and  C_49
   23  A    between atoms: O_48  and  C_60
   24  A    between atoms: C_57  and  C_61
                            x       y       z     vdW  Elec       q    Type
                         _______ _______ _______ _____ _____    ______ ____

>  <TORSDO>
F 24

$$$$
