=
 OpenBabel11042410533D

 26 28  0  0  1  0  0  0  0  0999 V2000
  188.8640  177.1650  142.8140 N   0  0  0  0  0  2  0  0  0  0  0  0
  186.6470  177.9470  145.7620 C   0  0  0  0  0  3  0  0  0  0  0  0
  186.5800  177.9020  142.9850 C   0  0  0  0  0  3  0  0  0  0  0  0
  191.8110  178.4710  144.3210 O   0  0  0  0  0  0  0  0  0  0  0  0
  185.4380  178.2660  143.6990 C   0  0  0  0  0  0  0  0  0  0  0  0
  188.9540  177.2240  145.8920 C   0  0  0  0  0  3  0  0  0  0  0  0
  185.4700  178.2790  145.0930 C   0  0  0  0  0  3  0  0  0  0  0  0
  190.2470  177.2630  145.5910 C   0  0  0  0  0  0  0  0  0  0  0  0
  190.2370  177.3060  143.0670 N   0  0  0  0  0  0  0  0  0  0  0  0
  190.7740  177.7550  144.3150 C   0  0  0  0  0  0  0  0  0  0  0  0
  187.7760  177.5870  143.6420 C   0  0  0  0  0  0  0  0  0  0  0  0
  187.8100  177.6100  145.0570 C   0  0  0  0  0  0  0  0  0  0  0  0
  191.9270  176.5970  147.4560 N   0  0  0  0  0  0  0  0  0  0  0  0
  191.1780  176.8940  146.6240 C   0  0  0  0  0  0  0  0  0  0  0  0
  184.1770  178.5860  142.9780 C   0  0  0  0  0  2  0  0  0  0  0  0
  184.1540  177.8930  141.7020 N   0  0  0  0  0  2  0  0  0  0  0  0
  184.2270  180.4300  139.0440 O   0  0  0  0  0  1  0  0  0  0  0  0
  185.8100  178.7960  139.7630 O   0  0  0  0  0  1  0  0  0  0  0  0
  183.5080  178.7840  140.7530 C   0  0  1  0  0  3  0  0  0  0  0  0
  184.4800  179.2120  139.6720 C   0  0  0  0  0  0  0  0  0  0  0  0
  183.4850  178.1240  139.3700 C   0  0  0  0  0  2  0  0  0  0  0  0
  191.1500  177.0830  141.9540 C   0  0  0  0  0  2  0  0  0  0  0  0
  190.3650  176.7460  140.7000 C   0  0  0  0  0  2  0  0  0  0  0  0
  190.4790  177.7900  139.7850 O   0  0  0  0  0  0  0  0  0  0  0  0
  189.2270  177.8610  139.1760 C   0  0  0  0  0  2  0  0  0  0  0  0
  189.0230  179.1460  138.6780 O   0  0  0  0  0  1  0  0  0  0  0  0
  1  9  1  0  0  0  0
  1 11  1  0  0  0  0
  3 11  2  0  0  0  0
  3  5  1  0  0  0  0
  5  7  2  0  0  0  0
  7  2  1  0  0  0  0
  8  6  2  0  0  0  0
  8 14  1  0  0  0  0
  9 10  1  0  0  0  0
 10  4  2  0  0  0  0
 10  8  1  0  0  0  0
 11 12  1  0  0  0  0
 12  2  2  0  0  0  0
 12  6  1  0  0  0  0
 14 13  3  0  0  0  0
 15  5  1  0  0  0  0
 16 15  1  0  0  0  0
 17 20  1  0  0  0  0
 19 16  1  1  0  0  0
 20 18  1  0  0  0  0
 20 19  1  0  0  0  0
 21 20  1  0  0  0  0
 21 19  1  0  0  0  0
 22  9  1  0  0  0  0
 23 22  1  0  0  0  0
 24 23  1  0  0  0  0
 25 24  1  0  0  0  0
 26 25  1  0  0  0  0
M  END
>  <MODEL>
1

>  <REMARK>
 VINA RESULT:      -8.5      0.000      0.000
  Name = 
  8 active torsions:
  status: ('A' for Active; 'I' for Inactive)
    1  A    between atoms: C_1  and  C_8
    2  A    between atoms: C_1  and  N_15
    3  A    between atoms: C_5  and  N_13
    4  A    between atoms: C_5  and  C_21
    5  A    between atoms: C_6  and  O_26
    6  A    between atoms: C_12  and  C_19
    7  A    between atoms: N_15  and  C_17
    8  A    between atoms: C_21  and  O_26
                            x       y       z     vdW  Elec       q    Type
                         _______ _______ _______ _____ _____    ______ ____

>  <TORSDO>
F 8

$$$$
=
 OpenBabel11042410533D

 26 28  0  0  1  0  0  0  0  0999 V2000
  187.3120  177.5830  143.0130 N   0  0  0  0  0  2  0  0  0  0  0  0
  186.2560  178.1870  146.5820 C   0  0  0  0  0  3  0  0  0  0  0  0
  185.2390  178.3060  143.9990 C   0  0  0  0  0  3  0  0  0  0  0  0
  190.6220  178.8030  143.4870 O   0  0  0  0  0  0  0  0  0  0  0  0
  184.4190  178.6250  145.0820 C   0  0  0  0  0  0  0  0  0  0  0  0
  188.4540  177.4600  145.8710 C   0  0  0  0  0  3  0  0  0  0  0  0
  184.9270  178.5560  146.3780 C   0  0  0  0  0  3  0  0  0  0  0  0
  189.5660  177.5200  145.1470 C   0  0  0  0  0  0  0  0  0  0  0  0
  188.6910  177.7110  142.7870 N   0  0  0  0  0  0  0  0  0  0  0  0
  189.6320  178.0870  143.7980 C   0  0  0  0  0  0  0  0  0  0  0  0
  186.5820  177.9540  144.1870 C   0  0  0  0  0  0  0  0  0  0  0  0
  187.1000  177.8930  145.5030 C   0  0  0  0  0  0  0  0  0  0  0  0
  191.7700  176.7470  146.2800 N   0  0  0  0  0  0  0  0  0  0  0  0
  190.7870  177.0910  145.7750 C   0  0  0  0  0  0  0  0  0  0  0  0
  182.9930  178.9860  144.8560 C   0  0  0  0  0  2  0  0  0  0  0  0
  182.7850  179.3060  143.4550 N   0  0  0  0  0  2  0  0  0  0  0  0
  179.2850  178.4060  142.7860 O   0  0  0  0  0  1  0  0  0  0  0  0
  180.3950  180.5030  143.0400 O   0  0  0  0  0  1  0  0  0  0  0  0
  181.7570  178.4010  142.9670 C   0  0  1  0  0  3  0  0  0  0  0  0
  180.4630  179.1470  142.7120 C   0  0  0  0  0  0  0  0  0  0  0  0
  181.3540  178.8110  141.5470 C   0  0  0  0  0  2  0  0  0  0  0  0
  189.1620  177.5560  141.4170 C   0  0  0  0  0  2  0  0  0  0  0  0
  188.3370  178.4220  140.4840 C   0  0  0  0  0  2  0  0  0  0  0  0
  188.2310  177.7980  139.2430 O   0  0  0  0  0  0  0  0  0  0  0  0
  189.3020  178.3020  138.5050 C   0  0  0  0  0  2  0  0  0  0  0  0
  188.9140  179.4770  137.8650 O   0  0  0  0  0  1  0  0  0  0  0  0
  1 11  1  0  0  0  0
  3 11  2  0  0  0  0
  3  5  1  0  0  0  0
  4 10  2  0  0  0  0
  5  7  2  0  0  0  0
  7  2  1  0  0  0  0
  8 14  1  0  0  0  0
  8  6  2  0  0  0  0
  9  1  1  0  0  0  0
  9 10  1  0  0  0  0
 10  8  1  0  0  0  0
 11 12  1  0  0  0  0
 12  6  1  0  0  0  0
 12  2  2  0  0  0  0
 14 13  3  0  0  0  0
 15  5  1  0  0  0  0
 16 15  1  0  0  0  0
 19 16  1  1  0  0  0
 20 17  1  0  0  0  0
 20 19  1  0  0  0  0
 20 18  1  0  0  0  0
 21 20  1  0  0  0  0
 21 19  1  0  0  0  0
 22  9  1  0  0  0  0
 23 22  1  0  0  0  0
 24 23  1  0  0  0  0
 25 24  1  0  0  0  0
 26 25  1  0  0  0  0
M  END
>  <MODEL>
2

>  <REMARK>
 VINA RESULT:      -7.8      2.278      2.654
  Name = 
  8 active torsions:
  status: ('A' for Active; 'I' for Inactive)
    1  A    between atoms: C_1  and  C_8
    2  A    between atoms: C_1  and  N_15
    3  A    between atoms: C_5  and  N_13
    4  A    between atoms: C_5  and  C_21
    5  A    between atoms: C_6  and  O_26
    6  A    between atoms: C_12  and  C_19
    7  A    between atoms: N_15  and  C_17
    8  A    between atoms: C_21  and  O_26
                            x       y       z     vdW  Elec       q    Type
                         _______ _______ _______ _____ _____    ______ ____

>  <TORSDO>
F 8

$$$$
=
 OpenBabel11042410533D

 26 28  0  0  1  0  0  0  0  0999 V2000
  188.2730  176.8300  144.0290 N   0  0  0  0  0  2  0  0  0  0  0  0
  187.0320  178.2660  147.2870 C   0  0  0  0  0  3  0  0  0  0  0  0
  186.2490  177.9800  144.6370 C   0  0  0  0  0  3  0  0  0  0  0  0
  191.6720  177.7150  144.6050 O   0  0  0  0  0  0  0  0  0  0  0  0
  185.3980  178.6080  145.5470 C   0  0  0  0  0  0  0  0  0  0  0  0
  189.1580  177.1530  146.9620 C   0  0  0  0  0  3  0  0  0  0  0  0
  185.7870  178.7430  146.8790 C   0  0  0  0  0  3  0  0  0  0  0  0
  190.3210  176.9300  146.3600 C   0  0  0  0  0  0  0  0  0  0  0  0
  189.6710  176.7430  143.9280 N   0  0  0  0  0  0  0  0  0  0  0  0
  190.5710  177.2000  144.9420 C   0  0  0  0  0  0  0  0  0  0  0  0
  187.5120  177.5160  145.0280 C   0  0  0  0  0  0  0  0  0  0  0  0
  187.9110  177.6610  146.3780 C   0  0  0  0  0  0  0  0  0  0  0  0
  192.3010  176.1440  147.8440 N   0  0  0  0  0  0  0  0  0  0  0  0
  191.4180  176.4950  147.1830 C   0  0  0  0  0  0  0  0  0  0  0  0
  184.0580  179.0830  145.1090 C   0  0  0  0  0  2  0  0  0  0  0  0
  183.6240  178.3240  143.9500 N   0  0  0  0  0  2  0  0  0  0  0  0
  184.3930  179.6540  140.6110 O   0  0  0  0  0  1  0  0  0  0  0  0
  184.6320  177.4880  141.5830 O   0  0  0  0  0  1  0  0  0  0  0  0
  183.4410  179.2780  142.8690 C   0  0  1  0  0  3  0  0  0  0  0  0
  183.9860  178.7250  141.5670 C   0  0  0  0  0  0  0  0  0  0  0  0
  182.5020  178.6790  141.8160 C   0  0  0  0  0  2  0  0  0  0  0  0
  190.2220  176.2580  142.6700 C   0  0  0  0  0  2  0  0  0  0  0  0
  190.0970  177.3290  141.6030 C   0  0  0  0  0  2  0  0  0  0  0  0
  189.9570  176.7260  140.3540 O   0  0  0  0  0  0  0  0  0  0  0  0
  189.8230  177.7920  139.4640 C   0  0  0  0  0  2  0  0  0  0  0  0
  188.6210  178.4530  139.7080 O   0  0  0  0  0  1  0  0  0  0  0  0
  1 11  1  0  0  0  0
  3 11  2  0  0  0  0
  3  5  1  0  0  0  0
  4 10  2  0  0  0  0
  5  7  2  0  0  0  0
  7  2  1  0  0  0  0
  8  6  2  0  0  0  0
  8 14  1  0  0  0  0
  9  1  1  0  0  0  0
  9 10  1  0  0  0  0
 10  8  1  0  0  0  0
 11 12  1  0  0  0  0
 12  6  1  0  0  0  0
 12  2  2  0  0  0  0
 14 13  3  0  0  0  0
 15  5  1  0  0  0  0
 16 15  1  0  0  0  0
 17 20  1  0  0  0  0
 19 16  1  1  0  0  0
 20 18  1  0  0  0  0
 20 21  1  0  0  0  0
 20 19  1  0  0  0  0
 21 19  1  0  0  0  0
 22  9  1  0  0  0  0
 23 22  1  0  0  0  0
 24 23  1  0  0  0  0
 25 26  1  0  0  0  0
 25 24  1  0  0  0  0
M  END
>  <MODEL>
3

>  <REMARK>
 VINA RESULT:      -7.8      1.326      1.604
  Name = 
  8 active torsions:
  status: ('A' for Active; 'I' for Inactive)
    1  A    between atoms: C_1  and  C_8
    2  A    between atoms: C_1  and  N_15
    3  A    between atoms: C_5  and  N_13
    4  A    between atoms: C_5  and  C_21
    5  A    between atoms: C_6  and  O_26
    6  A    between atoms: C_12  and  C_19
    7  A    between atoms: N_15  and  C_17
    8  A    between atoms: C_21  and  O_26
                            x       y       z     vdW  Elec       q    Type
                         _______ _______ _______ _____ _____    ______ ____

>  <TORSDO>
F 8

$$$$
=
 OpenBabel11042410533D

 26 28  0  0  1  0  0  0  0  0999 V2000
  187.2420  177.0120  143.3430 N   0  0  0  0  0  2  0  0  0  0  0  0
  184.7900  178.9040  145.4930 C   0  0  0  0  0  3  0  0  0  0  0  0
  185.0740  177.9550  142.8970 C   0  0  0  0  0  3  0  0  0  0  0  0
  190.1200  178.4860  144.8300 O   0  0  0  0  0  0  0  0  0  0  0  0
  183.9080  178.6290  143.2650 C   0  0  0  0  0  0  0  0  0  0  0  0
  186.9440  178.0710  146.2200 C   0  0  0  0  0  3  0  0  0  0  0  0
  183.7630  179.0960  144.5700 C   0  0  0  0  0  3  0  0  0  0  0  0
  188.2590  177.8990  146.1380 C   0  0  0  0  0  0  0  0  0  0  0  0
  188.5780  177.1110  143.7610 N   0  0  0  0  0  0  0  0  0  0  0  0
  189.0050  177.8980  144.8770 C   0  0  0  0  0  0  0  0  0  0  0  0
  186.1230  177.7730  143.8070 C   0  0  0  0  0  0  0  0  0  0  0  0
  185.9780  178.2560  145.1300 C   0  0  0  0  0  0  0  0  0  0  0  0
  189.5820  177.7420  148.3660 N   0  0  0  0  0  0  0  0  0  0  0  0
  188.9920  177.8120  147.3730 C   0  0  0  0  0  0  0  0  0  0  0  0
  182.8040  178.8000  142.2820 C   0  0  0  0  0  2  0  0  0  0  0  0
  183.2460  178.3660  140.9690 N   0  0  0  0  0  2  0  0  0  0  0  0
  182.5020  181.0040  138.5200 O   0  0  0  0  0  1  0  0  0  0  0  0
  184.5480  180.0930  139.3440 O   0  0  0  0  0  1  0  0  0  0  0  0
  182.3810  179.0190  140.0000 C   0  0  1  0  0  3  0  0  0  0  0  0
  183.1840  179.9330  139.0950 C   0  0  0  0  0  0  0  0  0  0  0  0
  182.7770  178.5760  138.5870 C   0  0  0  0  0  2  0  0  0  0  0  0
  189.5880  176.4590  142.9390 C   0  0  0  0  0  2  0  0  0  0  0  0
  189.7750  177.2240  141.6430 C   0  0  0  0  0  2  0  0  0  0  0  0
  191.1270  177.2510  141.3090 O   0  0  0  0  0  0  0  0  0  0  0  0
  191.1460  177.1930  139.9160 C   0  0  0  0  0  2  0  0  0  0  0  0
  190.5680  175.9970  139.4930 O   0  0  0  0  0  1  0  0  0  0  0  0
  1  9  1  0  0  0  0
  1 11  1  0  0  0  0
  3  5  2  0  0  0  0
  3 11  1  0  0  0  0
  4 10  2  0  0  0  0
  5  7  1  0  0  0  0
  7  2  2  0  0  0  0
  8  6  2  0  0  0  0
  8 14  1  0  0  0  0
  9 10  1  0  0  0  0
 10  8  1  0  0  0  0
 11 12  2  0  0  0  0
 12  2  1  0  0  0  0
 12  6  1  0  0  0  0
 14 13  3  0  0  0  0
 15  5  1  0  0  0  0
 16 15  1  0  0  0  0
 17 20  1  0  0  0  0
 19 16  1  1  0  0  0
 20 18  1  0  0  0  0
 20 19  1  0  0  0  0
 21 20  1  0  0  0  0
 21 19  1  0  0  0  0
 22  9  1  0  0  0  0
 23 22  1  0  0  0  0
 24 23  1  0  0  0  0
 25 24  1  0  0  0  0
 26 25  1  0  0  0  0
M  END
>  <MODEL>
4

>  <REMARK>
 VINA RESULT:      -7.7      1.640      1.948
  Name = 
  8 active torsions:
  status: ('A' for Active; 'I' for Inactive)
    1  A    between atoms: C_1  and  C_8
    2  A    between atoms: C_1  and  N_15
    3  A    between atoms: C_5  and  N_13
    4  A    between atoms: C_5  and  C_21
    5  A    between atoms: C_6  and  O_26
    6  A    between atoms: C_12  and  C_19
    7  A    between atoms: N_15  and  C_17
    8  A    between atoms: C_21  and  O_26
                            x       y       z     vdW  Elec       q    Type
                         _______ _______ _______ _____ _____    ______ ____

>  <TORSDO>
F 8

$$$$
=
 OpenBabel11042410533D

 26 28  0  0  1  0  0  0  0  0999 V2000
  187.9060  176.9560  142.8570 N   0  0  0  0  0  2  0  0  0  0  0  0
  185.6950  178.5600  145.4560 C   0  0  0  0  0  3  0  0  0  0  0  0
  185.7410  178.0010  142.7350 C   0  0  0  0  0  3  0  0  0  0  0  0
  190.9390  178.1340  144.2990 O   0  0  0  0  0  0  0  0  0  0  0  0
  184.6310  178.6370  143.2930 C   0  0  0  0  0  0  0  0  0  0  0  0
  187.8720  177.5840  145.8720 C   0  0  0  0  0  3  0  0  0  0  0  0
  184.6050  178.9090  144.6600 C   0  0  0  0  0  3  0  0  0  0  0  0
  189.1700  177.3990  145.6580 C   0  0  0  0  0  0  0  0  0  0  0  0
  189.2740  176.9650  143.1730 N   0  0  0  0  0  0  0  0  0  0  0  0
  189.8130  177.5690  144.3520 C   0  0  0  0  0  0  0  0  0  0  0  0
  186.8530  177.6640  143.5180 C   0  0  0  0  0  0  0  0  0  0  0  0
  186.8290  177.9490  144.9050 C   0  0  0  0  0  0  0  0  0  0  0  0
  190.6590  176.8860  147.7210 N   0  0  0  0  0  0  0  0  0  0  0  0
  189.9950  177.1140  146.8010 C   0  0  0  0  0  0  0  0  0  0  0  0
  183.4590  178.9740  142.4410 C   0  0  0  0  0  2  0  0  0  0  0  0
  182.2420  178.8890  143.2280 N   0  0  0  0  0  2  0  0  0  0  0  0
  178.9310  177.7500  142.1100 O   0  0  0  0  0  1  0  0  0  0  0  0
  179.9540  177.8820  144.2620 O   0  0  0  0  0  1  0  0  0  0  0  0
  181.1350  178.8710  142.2860 C   0  0  1  0  0  3  0  0  0  0  0  0
  179.8780  178.3400  142.9450 C   0  0  0  0  0  0  0  0  0  0  0  0
  180.0400  179.8260  142.7710 C   0  0  0  0  0  2  0  0  0  0  0  0
  190.1930  176.4200  142.1830 C   0  0  0  0  0  2  0  0  0  0  0  0
  190.3200  177.3760  141.0120 C   0  0  0  0  0  2  0  0  0  0  0  0
  190.1610  176.6740  139.8190 O   0  0  0  0  0  0  0  0  0  0  0  0
  189.4210  177.5310  139.0040 C   0  0  0  0  0  2  0  0  0  0  0  0
  188.3740  176.8240  138.4160 O   0  0  0  0  0  1  0  0  0  0  0  0
  1  9  1  0  0  0  0
  1 11  1  0  0  0  0
  3  5  2  0  0  0  0
  3 11  1  0  0  0  0
  4 10  2  0  0  0  0
  5  7  1  0  0  0  0
  7  2  2  0  0  0  0
  8  6  2  0  0  0  0
  8 14  1  0  0  0  0
  9 10  1  0  0  0  0
 10  8  1  0  0  0  0
 11 12  2  0  0  0  0
 12  2  1  0  0  0  0
 12  6  1  0  0  0  0
 14 13  3  0  0  0  0
 15 16  1  0  0  0  0
 15  5  1  0  0  0  0
 17 20  1  0  0  0  0
 19 21  1  0  0  0  0
 19 20  1  0  0  0  0
 19 16  1  1  0  0  0
 20 18  1  0  0  0  0
 21 20  1  0  0  0  0
 22  9  1  0  0  0  0
 23 22  1  0  0  0  0
 24 23  1  0  0  0  0
 25 24  1  0  0  0  0
 26 25  1  0  0  0  0
M  END
>  <MODEL>
5

>  <REMARK>
 VINA RESULT:      -7.3      2.544      2.775
  Name = 
  8 active torsions:
  status: ('A' for Active; 'I' for Inactive)
    1  A    between atoms: C_1  and  C_8
    2  A    between atoms: C_1  and  N_15
    3  A    between atoms: C_5  and  N_13
    4  A    between atoms: C_5  and  C_21
    5  A    between atoms: C_6  and  O_26
    6  A    between atoms: C_12  and  C_19
    7  A    between atoms: N_15  and  C_17
    8  A    between atoms: C_21  and  O_26
                            x       y       z     vdW  Elec       q    Type
                         _______ _______ _______ _____ _____    ______ ____

>  <TORSDO>
F 8

$$$$
=
 OpenBabel11042410533D

 26 28  0  0  1  0  0  0  0  0999 V2000
  185.5610  178.9490  142.2550 N   0  0  0  0  0  2  0  0  0  0  0  0
  184.7230  178.3020  145.8740 C   0  0  0  0  0  3  0  0  0  0  0  0
  186.8790  178.2040  144.1260 C   0  0  0  0  0  3  0  0  0  0  0  0
  182.4480  177.7430  141.0230 O   0  0  0  0  0  0  0  0  0  0  0  0
  187.0600  177.8690  145.4680 C   0  0  0  0  0  0  0  0  0  0  0  0
  183.1600  179.0480  144.1810 C   0  0  0  0  0  3  0  0  0  0  0  0
  185.9800  177.9270  146.3460 C   0  0  0  0  0  3  0  0  0  0  0  0
  182.5490  179.0030  143.0030 C   0  0  0  0  0  0  0  0  0  0  0  0
  184.4730  178.8310  141.3770 N   0  0  0  0  0  0  0  0  0  0  0  0
  183.1560  178.4500  141.7890 C   0  0  0  0  0  0  0  0  0  0  0  0
  185.6180  178.5610  143.6310 C   0  0  0  0  0  0  0  0  0  0  0  0
  184.5190  178.6110  144.5230 C   0  0  0  0  0  0  0  0  0  0  0  0
  180.0730  179.7770  142.9130 N   0  0  0  0  0  0  0  0  0  0  0  0
  181.1770  179.4320  142.9530 C   0  0  0  0  0  0  0  0  0  0  0  0
  188.4120  177.5030  145.9700 C   0  0  0  0  0  2  0  0  0  0  0  0
  189.4240  178.2390  145.2330 N   0  0  0  0  0  2  0  0  0  0  0  0
  191.6800  175.6280  143.9690 O   0  0  0  0  0  1  0  0  0  0  0  0
  189.9990  176.9580  142.9210 O   0  0  0  0  0  1  0  0  0  0  0  0
  190.6430  177.4490  145.2920 C   0  0  1  0  0  3  0  0  0  0  0  0
  190.9270  176.8010  143.9520 C   0  0  0  0  0  0  0  0  0  0  0  0
  191.6810  178.0450  144.3350 C   0  0  0  0  0  2  0  0  0  0  0  0
  184.7370  179.0030  139.9550 C   0  0  0  0  0  2  0  0  0  0  0  0
  186.1730  178.6250  139.6460 C   0  0  0  0  0  2  0  0  0  0  0  0
  186.3680  178.6280  138.2670 O   0  0  0  0  0  0  0  0  0  0  0  0
  187.6590  178.1270  138.0940 C   0  0  0  0  0  2  0  0  0  0  0  0
  188.5780  179.0030  138.6680 O   0  0  0  0  0  1  0  0  0  0  0  0
  1 11  1  0  0  0  0
  2  7  1  0  0  0  0
  3  5  1  0  0  0  0
  4 10  2  0  0  0  0
  5 15  1  0  0  0  0
  5  7  2  0  0  0  0
  6 12  1  0  0  0  0
  8  6  2  0  0  0  0
  9 10  1  0  0  0  0
  9  1  1  0  0  0  0
 10  8  1  0  0  0  0
 11  3  2  0  0  0  0
 11 12  1  0  0  0  0
 12  2  2  0  0  0  0
 13 14  3  0  0  0  0
 14  8  1  0  0  0  0
 16 15  1  0  0  0  0
 18 20  1  0  0  0  0
 19 16  1  6  0  0  0
 20 17  1  0  0  0  0
 20 21  1  0  0  0  0
 20 19  1  0  0  0  0
 21 19  1  0  0  0  0
 22  9  1  0  0  0  0
 23 22  1  0  0  0  0
 24 23  1  0  0  0  0
 25 24  1  0  0  0  0
 25 26  1  0  0  0  0
M  END
>  <MODEL>
6

>  <REMARK>
 VINA RESULT:      -7.2      1.925      6.724
  Name = 
  8 active torsions:
  status: ('A' for Active; 'I' for Inactive)
    1  A    between atoms: C_1  and  C_8
    2  A    between atoms: C_1  and  N_15
    3  A    between atoms: C_5  and  N_13
    4  A    between atoms: C_5  and  C_21
    5  A    between atoms: C_6  and  O_26
    6  A    between atoms: C_12  and  C_19
    7  A    between atoms: N_15  and  C_17
    8  A    between atoms: C_21  and  O_26
                            x       y       z     vdW  Elec       q    Type
                         _______ _______ _______ _____ _____    ______ ____

>  <TORSDO>
F 8

$$$$
=
 OpenBabel11042410533D

 26 28  0  0  1  0  0  0  0  0999 V2000
  188.5460  178.2530  145.1020 N   0  0  0  0  0  2  0  0  0  0  0  0
  191.1030  176.7380  142.7820 C   0  0  0  0  0  3  0  0  0  0  0  0
  188.6040  177.9500  142.7160 C   0  0  0  0  0  3  0  0  0  0  0  0
  189.1190  175.9140  147.7230 O   0  0  0  0  0  0  0  0  0  0  0  0
  189.2070  177.5400  141.5260 C   0  0  0  0  0  0  0  0  0  0  0  0
  191.3110  176.8980  145.1900 C   0  0  0  0  0  3  0  0  0  0  0  0
  190.4650  176.9410  141.5590 C   0  0  0  0  0  3  0  0  0  0  0  0
  190.9060  176.7490  146.4460 C   0  0  0  0  0  0  0  0  0  0  0  0
  188.5960  177.7670  146.4180 N   0  0  0  0  0  0  0  0  0  0  0  0
  189.4990  176.7470  146.8550 C   0  0  0  0  0  0  0  0  0  0  0  0
  189.2230  177.7340  143.9540 C   0  0  0  0  0  0  0  0  0  0  0  0
  190.4970  177.1160  143.9880 C   0  0  0  0  0  0  0  0  0  0  0  0
  192.7220  176.2510  148.2330 N   0  0  0  0  0  0  0  0  0  0  0  0
  191.9120  176.4740  147.4360 C   0  0  0  0  0  0  0  0  0  0  0  0
  188.5330  177.7910  140.2230 C   0  0  0  0  0  2  0  0  0  0  0  0
  189.4710  177.5670  139.1360 N   0  0  0  0  0  2  0  0  0  0  0  0
  187.4000  178.6290  136.2910 O   0  0  0  0  0  1  0  0  0  0  0  0
  189.0550  179.7500  137.5940 O   0  0  0  0  0  1  0  0  0  0  0  0
  188.6770  177.2980  137.9480 C   0  0  1  0  0  3  0  0  0  0  0  0
  188.5250  178.5520  137.1110 C   0  0  0  0  0  0  0  0  0  0  0  0
  189.5400  177.5190  136.7010 C   0  0  0  0  0  2  0  0  0  0  0  0
  187.5930  178.2600  147.3520 C   0  0  0  0  0  2  0  0  0  0  0  0
  186.2030  178.0090  146.8010 C   0  0  0  0  0  2  0  0  0  0  0  0
  185.5780  179.2270  146.5420 O   0  0  0  0  0  0  0  0  0  0  0  0
  184.9120  179.0290  145.3330 C   0  0  0  0  0  2  0  0  0  0  0  0
  183.5370  179.0030  145.5580 O   0  0  0  0  0  1  0  0  0  0  0  0
  1  9  1  0  0  0  0
  2 12  1  0  0  0  0
  3 11  1  0  0  0  0
  5  7  1  0  0  0  0
  5  3  2  0  0  0  0
  6  8  2  0  0  0  0
  7  2  2  0  0  0  0
  8 10  1  0  0  0  0
  8 14  1  0  0  0  0
  9 10  1  0  0  0  0
  9 22  1  0  0  0  0
 10  4  2  0  0  0  0
 11 12  2  0  0  0  0
 11  1  1  0  0  0  0
 12  6  1  0  0  0  0
 14 13  3  0  0  0  0
 15  5  1  0  0  0  0
 16 15  1  0  0  0  0
 17 20  1  0  0  0  0
 19 16  1  1  0  0  0
 20 18  1  0  0  0  0
 20 19  1  0  0  0  0
 21 20  1  0  0  0  0
 21 19  1  0  0  0  0
 23 22  1  0  0  0  0
 24 23  1  0  0  0  0
 25 26  1  0  0  0  0
 25 24  1  0  0  0  0
M  END
>  <MODEL>
7

>  <REMARK>
 VINA RESULT:      -7.1      2.880      5.111
  Name = 
  8 active torsions:
  status: ('A' for Active; 'I' for Inactive)
    1  A    between atoms: C_1  and  C_8
    2  A    between atoms: C_1  and  N_15
    3  A    between atoms: C_5  and  N_13
    4  A    between atoms: C_5  and  C_21
    5  A    between atoms: C_6  and  O_26
    6  A    between atoms: C_12  and  C_19
    7  A    between atoms: N_15  and  C_17
    8  A    between atoms: C_21  and  O_26
                            x       y       z     vdW  Elec       q    Type
                         _______ _______ _______ _____ _____    ______ ____

>  <TORSDO>
F 8

$$$$
=
 OpenBabel11042410533D

 26 28  0  0  1  0  0  0  0  0999 V2000
  185.0110  178.7790  141.5590 N   0  0  0  0  0  2  0  0  0  0  0  0
  184.8070  178.3220  145.2960 C   0  0  0  0  0  3  0  0  0  0  0  0
  186.5780  177.9540  143.1880 C   0  0  0  0  0  3  0  0  0  0  0  0
  181.6200  177.8690  140.9770 O   0  0  0  0  0  0  0  0  0  0  0  0
  186.9740  177.6390  144.4890 C   0  0  0  0  0  0  0  0  0  0  0  0
  183.0340  179.1800  143.8870 C   0  0  0  0  0  3  0  0  0  0  0  0
  186.0880  177.8330  145.5470 C   0  0  0  0  0  3  0  0  0  0  0  0
  182.2120  179.1660  142.8440 C   0  0  0  0  0  0  0  0  0  0  0  0
  183.7710  178.7510  140.9030 N   0  0  0  0  0  0  0  0  0  0  0  0
  182.5250  178.5200  141.5670 C   0  0  0  0  0  0  0  0  0  0  0  0
  185.2870  178.4260  142.9180 C   0  0  0  0  0  0  0  0  0  0  0  0
  184.3850  178.6140  143.9930 C   0  0  0  0  0  0  0  0  0  0  0  0
  179.8490  180.1900  143.1750 N   0  0  0  0  0  0  0  0  0  0  0  0
  180.9030  179.7330  143.0270 C   0  0  0  0  0  0  0  0  0  0  0  0
  188.3550  177.1480  144.7500 C   0  0  0  0  0  2  0  0  0  0  0  0
  188.9170  177.8530  145.8880 N   0  0  0  0  0  2  0  0  0  0  0  0
  191.3660  175.5180  147.3230 O   0  0  0  0  0  1  0  0  0  0  0  0
  191.5970  177.5180  146.0420 O   0  0  0  0  0  1  0  0  0  0  0  0
  189.3230  176.8400  146.8490 C   0  0  1  0  0  3  0  0  0  0  0  0
  190.8340  176.7400  146.9150 C   0  0  0  0  0  0  0  0  0  0  0  0
  190.1040  177.5040  147.9870 C   0  0  0  0  0  2  0  0  0  0  0  0
  183.7800  178.8560  139.4500 C   0  0  0  0  0  2  0  0  0  0  0  0
  184.9710  178.1060  138.8830 C   0  0  0  0  0  2  0  0  0  0  0  0
  185.8980  179.0160  138.3810 O   0  0  0  0  0  0  0  0  0  0  0  0
  186.5630  178.3190  137.3730 C   0  0  0  0  0  2  0  0  0  0  0  0
  187.5910  179.1080  136.8610 O   0  0  0  0  0  1  0  0  0  0  0  0
  1 11  1  0  0  0  0
  2  7  1  0  0  0  0
  3  5  1  0  0  0  0
  4 10  2  0  0  0  0
  5 15  1  0  0  0  0
  5  7  2  0  0  0  0
  6 12  1  0  0  0  0
  8 14  1  0  0  0  0
  8  6  2  0  0  0  0
  9  1  1  0  0  0  0
  9 10  1  0  0  0  0
 10  8  1  0  0  0  0
 11  3  2  0  0  0  0
 11 12  1  0  0  0  0
 12  2  2  0  0  0  0
 14 13  3  0  0  0  0
 15 16  1  0  0  0  0
 18 20  1  0  0  0  0
 19 16  1  6  0  0  0
 19 20  1  0  0  0  0
 19 21  1  0  0  0  0
 20 17  1  0  0  0  0
 20 21  1  0  0  0  0
 22  9  1  0  0  0  0
 23 22  1  0  0  0  0
 24 23  1  0  0  0  0
 25 24  1  0  0  0  0
 26 25  1  0  0  0  0
M  END
>  <MODEL>
8

>  <REMARK>
 VINA RESULT:      -6.9      2.272      7.396
  Name = 
  8 active torsions:
  status: ('A' for Active; 'I' for Inactive)
    1  A    between atoms: C_1  and  C_8
    2  A    between atoms: C_1  and  N_15
    3  A    between atoms: C_5  and  N_13
    4  A    between atoms: C_5  and  C_21
    5  A    between atoms: C_6  and  O_26
    6  A    between atoms: C_12  and  C_19
    7  A    between atoms: N_15  and  C_17
    8  A    between atoms: C_21  and  O_26
                            x       y       z     vdW  Elec       q    Type
                         _______ _______ _______ _____ _____    ______ ____

>  <TORSDO>
F 8

$$$$
=
 OpenBabel11042410533D

 26 28  0  0  1  0  0  0  0  0999 V2000
  188.0990  177.6980  144.6510 N   0  0  0  0  0  2  0  0  0  0  0  0
  185.9010  178.6060  141.7260 C   0  0  0  0  0  3  0  0  0  0  0  0
  185.7720  178.2870  144.4830 C   0  0  0  0  0  3  0  0  0  0  0  0
  189.9860  175.2780  142.8480 O   0  0  0  0  0  0  0  0  0  0  0  0
  184.6330  178.6750  143.7760 C   0  0  0  0  0  0  0  0  0  0  0  0
  188.2500  178.0360  141.5930 C   0  0  0  0  0  3  0  0  0  0  0  0
  184.7010  178.8440  142.3950 C   0  0  0  0  0  3  0  0  0  0  0  0
  189.3230  177.2880  141.8280 C   0  0  0  0  0  0  0  0  0  0  0  0
  189.2060  176.9010  144.3200 N   0  0  0  0  0  0  0  0  0  0  0  0
  189.4730  176.4200  142.9990 C   0  0  0  0  0  0  0  0  0  0  0  0
  186.9790  178.0240  143.8230 C   0  0  0  0  0  0  0  0  0  0  0  0
  187.0450  178.1870  142.4180 C   0  0  0  0  0  0  0  0  0  0  0  0
  191.1660  177.2410  140.0000 N   0  0  0  0  0  0  0  0  0  0  0  0
  190.3440  177.2620  140.8160 C   0  0  0  0  0  0  0  0  0  0  0  0
  183.3660  178.9580  144.5030 C   0  0  0  0  0  2  0  0  0  0  0  0
  182.4240  179.6090  143.6090 N   0  0  0  0  0  2  0  0  0  0  0  0
  178.9340  178.6240  143.0120 O   0  0  0  0  0  1  0  0  0  0  0  0
  180.0800  180.7080  142.8240 O   0  0  0  0  0  1  0  0  0  0  0  0
  181.3960  178.6290  143.2980 C   0  0  1  0  0  3  0  0  0  0  0  0
  180.1300  179.3130  142.8220 C   0  0  0  0  0  0  0  0  0  0  0  0
  181.0590  178.7040  141.8050 C   0  0  0  0  0  2  0  0  0  0  0  0
  190.0630  176.4580  145.4110 C   0  0  0  0  0  2  0  0  0  0  0  0
  189.8170  177.3090  146.6420 C   0  0  0  0  0  2  0  0  0  0  0  0
  189.2610  176.5220  147.6490 O   0  0  0  0  0  0  0  0  0  0  0  0
  188.3430  177.3590  148.2820 C   0  0  0  0  0  2  0  0  0  0  0  0
  188.9110  178.6170  148.4680 O   0  0  0  0  0  1  0  0  0  0  0  0
  2  7  2  0  0  0  0
  2 12  1  0  0  0  0
  4 10  2  0  0  0  0
  5  3  2  0  0  0  0
  5 15  1  0  0  0  0
  6  8  2  0  0  0  0
  6 12  1  0  0  0  0
  7  5  1  0  0  0  0
  8 10  1  0  0  0  0
  9  1  1  0  0  0  0
  9 22  1  0  0  0  0
 10  9  1  0  0  0  0
 11  3  1  0  0  0  0
 11  1  1  0  0  0  0
 12 11  2  0  0  0  0
 13 14  3  0  0  0  0
 14  8  1  0  0  0  0
 16 15  1  0  0  0  0
 19 16  1  6  0  0  0
 20 18  1  0  0  0  0
 20 17  1  0  0  0  0
 20 19  1  0  0  0  0
 21 20  1  0  0  0  0
 21 19  1  0  0  0  0
 22 23  1  0  0  0  0
 23 24  1  0  0  0  0
 24 25  1  0  0  0  0
 25 26  1  0  0  0  0
M  END
>  <MODEL>
9

>  <REMARK>
 VINA RESULT:      -6.8      2.960      4.976
  Name = 
  8 active torsions:
  status: ('A' for Active; 'I' for Inactive)
    1  A    between atoms: C_1  and  C_8
    2  A    between atoms: C_1  and  N_15
    3  A    between atoms: C_5  and  N_13
    4  A    between atoms: C_5  and  C_21
    5  A    between atoms: C_6  and  O_26
    6  A    between atoms: C_12  and  C_19
    7  A    between atoms: N_15  and  C_17
    8  A    between atoms: C_21  and  O_26
                            x       y       z     vdW  Elec       q    Type
                         _______ _______ _______ _____ _____    ______ ____

>  <TORSDO>
F 8

$$$$
