=
 OpenBabel11042410233D

 29 30  0  0  1  0  0  0  0  0999 V2000
  192.7710  176.5790  138.3110 N   0  0  0  0  0  0  0  0  0  0  0  0
  188.7430  177.3140  141.7190 C   0  0  2  0  0  3  0  0  0  0  0  0
  189.1610  177.0620  140.2620 C   0  0  2  0  0  3  0  0  0  0  0  0
  190.5270  176.3410  140.1700 C   0  0  2  0  0  3  0  0  0  0  0  0
  191.7450  175.6120  138.0760 C   0  0  0  0  0  0  0  0  0  0  0  0
  191.7380  177.2160  140.4040 C   0  0  0  0  0  0  0  0  0  0  0  0
  191.0340  177.7020  142.7530 C   0  0  1  0  0  3  0  0  0  0  0  0
  192.7810  177.3260  139.3710 C   0  0  0  0  0  3  0  0  0  0  0  0
  189.6600  178.2980  142.4570 C   0  0  0  0  0  2  0  0  0  0  0  0
  191.8080  174.8610  137.0690 O   0  0  0  0  0  0  0  0  0  0  0  0
  190.6300  175.5200  138.9650 N   0  0  0  0  0  2  0  0  0  0  0  0
  191.9470  177.8280  141.5710 C   0  0  0  0  0  3  0  0  0  0  0  0
  190.0770  178.6340  138.6700 F   0  0  0  0  0  0  0  0  0  0  0  0
  188.9240  178.3080  139.3650 C   0  0  0  0  0  0  0  0  0  0  0  0
  188.6080  179.3780  140.1880 F   0  0  0  0  0  0  0  0  0  0  0  0
  187.7650  178.1330  138.3720 C   0  0  0  0  0  0  0  0  0  0  0  0
  187.9360  178.9570  137.2730 F   0  0  0  0  0  0  0  0  0  0  0  0
  187.7230  176.8200  137.9360 F   0  0  0  0  0  0  0  0  0  0  0  0
  186.5570  178.4170  138.9780 F   0  0  0  0  0  0  0  0  0  0  0  0
  191.2820  177.7170  145.2320 C   0  0  0  0  0  1  0  0  0  0  0  0
  191.6610  178.4130  143.9380 C   0  0  0  0  0  2  0  0  0  0  0  0
  188.6080  176.0590  142.4470 N   0  0  0  0  0  2  0  0  0  0  0  0
  187.7880  176.3210  143.6160 C   0  0  0  0  0  2  0  0  0  0  0  0
  186.7370  177.3560  143.2730 C   0  0  0  0  0  2  0  0  0  0  0  0
  186.3490  178.1570  144.5180 C   0  0  0  0  0  2  0  0  0  0  0  0
  184.7110  179.6550  143.9220 O   0  0  0  0  0  1  0  0  0  0  0  0
  184.9190  178.4900  144.5830 N   0  0  0  0  0  0  0  0  0  0  0  0
  185.7460  178.6410  146.8680 C   0  0  0  0  0  1  0  0  0  0  0  0
  184.5250  178.6960  145.9710 C   0  0  0  0  0  2  0  0  0  0  0  0
  1  8  2  0  0  0  0
  2 22  1  1  0  0  0
  2  9  1  0  0  0  0
  3 14  1  6  0  0  0
  3  2  1  0  0  0  0
  4 11  1  6  0  0  0
  4  3  1  0  0  0  0
  4  6  1  0  0  0  0
  5  1  1  0  0  0  0
  5 11  1  0  0  0  0
  6 12  2  0  0  0  0
  7 21  1  1  0  0  0
  8  6  1  0  0  0  0
  9  7  1  0  0  0  0
 10  5  2  0  0  0  0
 12  7  1  0  0  0  0
 13 14  1  0  0  0  0
 14 15  1  0  0  0  0
 16 19  1  0  0  0  0
 16 14  1  0  0  0  0
 17 16  1  0  0  0  0
 18 16  1  0  0  0  0
 21 20  1  0  0  0  0
 22 23  1  0  0  0  0
 24 23  1  0  0  0  0
 24 25  1  0  0  0  0
 25 27  1  0  0  0  0
 26 27  1  0  0  0  0
 27 29  1  0  0  0  0
 29 28  1  0  0  0  0
M  END
>  <MODEL>
1

>  <REMARK>
 VINA RESULT:      -6.2      0.000      0.000
  Name = 
  9 active torsions:
  status: ('A' for Active; 'I' for Inactive)
    1  A    between atoms: C_4  and  N_29
    2  A    between atoms: C_5  and  C_8
    3  A    between atoms: C_5  and  C_16
    4  A    between atoms: C_7  and  C_17
    5  A    between atoms: C_10  and  N_11
    6  A    between atoms: C_10  and  C_21
    7  A    between atoms: N_11  and  C_27
    8  A    between atoms: C_21  and  C_24
    9  A    between atoms: C_24  and  N_29
                            x       y       z     vdW  Elec       q    Type
                         _______ _______ _______ _____ _____    ______ ____

>  <TORSDO>
F 9

$$$$
=
 OpenBabel11042410233D

 29 30  0  0  1  0  0  0  0  0999 V2000
  188.2370  174.4700  134.9260 N   0  0  0  0  0  0  0  0  0  0  0  0
  190.2820  177.1700  139.0380 C   0  0  2  0  0  3  0  0  0  0  0  0
  189.0850  176.9840  138.0940 C   0  0  2  0  0  3  0  0  0  0  0  0
  189.0090  175.5440  137.5340 C   0  0  2  0  0  3  0  0  0  0  0  0
  187.2660  174.5910  135.9680 C   0  0  0  0  0  0  0  0  0  0  0  0
  189.9830  175.2300  136.4200 C   0  0  0  0  0  0  0  0  0  0  0  0
  191.9460  175.6040  137.9200 C   0  0  1  0  0  3  0  0  0  0  0  0
  189.4870  174.7630  135.1150 C   0  0  0  0  0  3  0  0  0  0  0  0
  191.6410  177.0410  138.3360 C   0  0  0  0  0  2  0  0  0  0  0  0
  186.0770  174.2330  135.7630 O   0  0  0  0  0  0  0  0  0  0  0  0
  187.6340  175.1490  137.2300 N   0  0  0  0  0  2  0  0  0  0  0  0
  191.3020  175.2690  136.6100 C   0  0  0  0  0  3  0  0  0  0  0  0
  189.6830  177.9380  135.9550 F   0  0  0  0  0  0  0  0  0  0  0  0
  188.9390  178.1690  137.1000 C   0  0  0  0  0  0  0  0  0  0  0  0
  189.4440  179.3080  137.7090 F   0  0  0  0  0  0  0  0  0  0  0  0
  187.4830  178.4630  136.7100 C   0  0  0  0  0  0  0  0  0  0  0  0
  186.6210  178.0890  137.7260 F   0  0  0  0  0  0  0  0  0  0  0  0
  187.3300  179.8190  136.4790 F   0  0  0  0  0  0  0  0  0  0  0  0
  187.1460  177.7950  135.5500 F   0  0  0  0  0  0  0  0  0  0  0  0
  193.7560  174.0330  137.2390 C   0  0  0  0  0  1  0  0  0  0  0  0
  193.4460  175.4090  137.7970 C   0  0  0  0  0  2  0  0  0  0  0  0
  190.1850  176.2750  140.1840 N   0  0  0  0  0  2  0  0  0  0  0  0
  190.0330  177.1020  141.3690 C   0  0  0  0  0  2  0  0  0  0  0  0
  191.3650  177.2080  142.0840 C   0  0  0  0  0  2  0  0  0  0  0  0
  191.2760  176.5760  143.4740 C   0  0  0  0  0  2  0  0  0  0  0  0
  191.7830  176.8600  145.6980 O   0  0  0  0  0  1  0  0  0  0  0  0
  191.4530  177.5370  144.5710 N   0  0  0  0  0  0  0  0  0  0  0  0
  189.2140  177.2840  145.4930 C   0  0  0  0  0  1  0  0  0  0  0  0
  190.1950  178.2290  144.8270 C   0  0  0  0  0  2  0  0  0  0  0  0
  1  8  2  0  0  0  0
  1  5  1  0  0  0  0
  2 22  1  1  0  0  0
  3 14  1  6  0  0  0
  3  2  1  0  0  0  0
  4  6  1  6  0  0  0
  4  3  1  0  0  0  0
  5 11  1  0  0  0  0
  6 12  2  0  0  0  0
  7 21  1  6  0  0  0
  7  9  1  0  0  0  0
  8  6  1  0  0  0  0
  9  2  1  0  0  0  0
 10  5  2  0  0  0  0
 11  4  1  0  0  0  0
 12  7  1  0  0  0  0
 13 14  1  0  0  0  0
 14 15  1  0  0  0  0
 16 14  1  0  0  0  0
 16 17  1  0  0  0  0
 18 16  1  0  0  0  0
 19 16  1  0  0  0  0
 20 21  1  0  0  0  0
 22 23  1  0  0  0  0
 23 24  1  0  0  0  0
 24 25  1  0  0  0  0
 25 27  1  0  0  0  0
 27 29  1  0  0  0  0
 27 26  1  0  0  0  0
 29 28  1  0  0  0  0
M  END
>  <MODEL>
2

>  <REMARK>
 VINA RESULT:      -5.9      3.044      4.844
  Name = 
  9 active torsions:
  status: ('A' for Active; 'I' for Inactive)
    1  A    between atoms: C_4  and  N_29
    2  A    between atoms: C_5  and  C_8
    3  A    between atoms: C_5  and  C_16
    4  A    between atoms: C_7  and  C_17
    5  A    between atoms: C_10  and  N_11
    6  A    between atoms: C_10  and  C_21
    7  A    between atoms: N_11  and  C_27
    8  A    between atoms: C_21  and  C_24
    9  A    between atoms: C_24  and  N_29
                            x       y       z     vdW  Elec       q    Type
                         _______ _______ _______ _____ _____    ______ ____

>  <TORSDO>
F 9

$$$$
=
 OpenBabel11042410233D

 29 30  0  0  1  0  0  0  0  0999 V2000
  179.7550  180.1560  138.7350 N   0  0  0  0  0  0  0  0  0  0  0  0
  184.3990  178.2550  140.5260 C   0  0  2  0  0  3  0  0  0  0  0  0
  183.4900  178.4830  139.3080 C   0  0  2  0  0  3  0  0  0  0  0  0
  182.5310  179.6800  139.5190 C   0  0  2  0  0  3  0  0  0  0  0  0
  180.8230  180.5890  137.8910 C   0  0  0  0  0  0  0  0  0  0  0  0
  181.3360  179.4040  140.4050 C   0  0  0  0  0  0  0  0  0  0  0  0
  182.8010  178.9520  142.3790 C   0  0  1  0  0  3  0  0  0  0  0  0
  179.9720  179.6060  139.8900 C   0  0  0  0  0  3  0  0  0  0  0  0
  183.6370  177.8210  141.7850 C   0  0  0  0  0  2  0  0  0  0  0  0
  180.5690  181.1790  136.8080 O   0  0  0  0  0  0  0  0  0  0  0  0
  182.1790  180.3250  138.2560 N   0  0  0  0  0  2  0  0  0  0  0  0
  181.4770  179.0700  141.6890 C   0  0  0  0  0  3  0  0  0  0  0  0
  181.5370  177.2780  138.5480 F   0  0  0  0  0  0  0  0  0  0  0  0
  182.8990  177.1530  138.7670 C   0  0  0  0  0  0  0  0  0  0  0  0
  183.0840  176.1740  139.7310 F   0  0  0  0  0  0  0  0  0  0  0  0
  183.5770  176.6640  137.4780 C   0  0  0  0  0  0  0  0  0  0  0  0
  184.9180  176.4030  137.7020 F   0  0  0  0  0  0  0  0  0  0  0  0
  182.9670  175.4980  137.0480 F   0  0  0  0  0  0  0  0  0  0  0  0
  183.4510  177.6040  136.4750 F   0  0  0  0  0  0  0  0  0  0  0  0
  183.8450  178.9310  144.6420 C   0  0  0  0  0  1  0  0  0  0  0  0
  182.5670  178.7000  143.8580 C   0  0  0  0  0  2  0  0  0  0  0  0
  185.2300  179.4240  140.7810 N   0  0  0  0  0  2  0  0  0  0  0  0
  186.2630  179.0260  141.7220 C   0  0  0  0  0  2  0  0  0  0  0  0
  187.5150  178.6380  140.9620 C   0  0  0  0  0  2  0  0  0  0  0  0
  188.2830  177.5500  141.7160 C   0  0  0  0  0  2  0  0  0  0  0  0
  190.0250  178.0230  143.1380 O   0  0  0  0  0  1  0  0  0  0  0  0
  188.6730  177.9400  143.0780 N   0  0  0  0  0  0  0  0  0  0  0  0
  188.0920  177.5180  145.4040 C   0  0  0  0  0  1  0  0  0  0  0  0
  188.2540  176.9130  144.0230 C   0  0  0  0  0  2  0  0  0  0  0  0
  1  8  2  0  0  0  0
  2 22  1  1  0  0  0
  2  9  1  0  0  0  0
  3 14  1  1  0  0  0
  3  4  1  0  0  0  0
  3  2  1  0  0  0  0
  4 11  1  6  0  0  0
  4  6  1  0  0  0  0
  5 11  1  0  0  0  0
  5  1  1  0  0  0  0
  6 12  2  0  0  0  0
  7 21  1  1  0  0  0
  8  6  1  0  0  0  0
  9  7  1  0  0  0  0
 10  5  2  0  0  0  0
 12  7  1  0  0  0  0
 13 14  1  0  0  0  0
 14 15  1  0  0  0  0
 16 17  1  0  0  0  0
 16 14  1  0  0  0  0
 18 16  1  0  0  0  0
 19 16  1  0  0  0  0
 21 20  1  0  0  0  0
 22 23  1  0  0  0  0
 24 25  1  0  0  0  0
 24 23  1  0  0  0  0
 25 27  1  0  0  0  0
 27 26  1  0  0  0  0
 27 29  1  0  0  0  0
 29 28  1  0  0  0  0
M  END
>  <MODEL>
3

>  <REMARK>
 VINA RESULT:      -5.7      4.823      7.718
  Name = 
  9 active torsions:
  status: ('A' for Active; 'I' for Inactive)
    1  A    between atoms: C_4  and  N_29
    2  A    between atoms: C_5  and  C_8
    3  A    between atoms: C_5  and  C_16
    4  A    between atoms: C_7  and  C_17
    5  A    between atoms: C_10  and  N_11
    6  A    between atoms: C_10  and  C_21
    7  A    between atoms: N_11  and  C_27
    8  A    between atoms: C_21  and  C_24
    9  A    between atoms: C_24  and  N_29
                            x       y       z     vdW  Elec       q    Type
                         _______ _______ _______ _____ _____    ______ ____

>  <TORSDO>
F 9

$$$$
=
 OpenBabel11042410233D

 29 30  0  0  1  0  0  0  0  0999 V2000
  181.1660  175.1060  137.5110 N   0  0  0  0  0  0  0  0  0  0  0  0
  183.5240  178.9310  140.3730 C   0  0  2  0  0  3  0  0  0  0  0  0
  182.2260  178.1620  140.0820 C   0  0  2  0  0  3  0  0  0  0  0  0
  182.5060  176.7450  139.5280 C   0  0  2  0  0  3  0  0  0  0  0  0
  180.8120  174.9780  138.8900 C   0  0  0  0  0  0  0  0  0  0  0  0
  182.9100  176.6870  138.0710 C   0  0  0  0  0  0  0  0  0  0  0  0
  184.9880  178.0040  138.5100 C   0  0  1  0  0  3  0  0  0  0  0  0
  182.1230  175.8880  137.1170 C   0  0  0  0  0  3  0  0  0  0  0  0
  184.3420  179.2490  139.1140 C   0  0  0  0  0  2  0  0  0  0  0  0
  179.9220  174.1580  139.2370 O   0  0  0  0  0  0  0  0  0  0  0  0
  181.4410  175.8050  139.8710 N   0  0  0  0  0  2  0  0  0  0  0  0
  184.0270  177.2670  137.6290 C   0  0  0  0  0  3  0  0  0  0  0  0
  181.3000  178.9070  137.9770 F   0  0  0  0  0  0  0  0  0  0  0  0
  181.1790  179.0450  139.3500 C   0  0  0  0  0  0  0  0  0  0  0  0
  181.4360  180.3710  139.6660 F   0  0  0  0  0  0  0  0  0  0  0  0
  179.7310  178.7460  139.7650 C   0  0  0  0  0  0  0  0  0  0  0  0
  179.6910  178.2060  141.0390 F   0  0  0  0  0  0  0  0  0  0  0  0
  178.9960  179.9190  139.7600 F   0  0  0  0  0  0  0  0  0  0  0  0
  179.1400  177.8710  138.8750 F   0  0  0  0  0  0  0  0  0  0  0  0
  187.4160  177.5950  138.1260 C   0  0  0  0  0  1  0  0  0  0  0  0
  186.2040  178.3990  137.6920 C   0  0  0  0  0  2  0  0  0  0  0  0
  184.3270  178.2370  141.3710 N   0  0  0  0  0  2  0  0  0  0  0  0
  183.7920  178.5820  142.6760 C   0  0  0  0  0  2  0  0  0  0  0  0
  184.8770  178.4300  143.7230 C   0  0  0  0  0  2  0  0  0  0  0  0
  184.4050  178.9880  145.0670 C   0  0  0  0  0  2  0  0  0  0  0  0
  185.5700  179.4460  146.9940 O   0  0  0  0  0  1  0  0  0  0  0  0
  185.1190  178.4270  146.2220 N   0  0  0  0  0  0  0  0  0  0  0  0
  187.4160  177.8250  146.7580 C   0  0  0  0  0  1  0  0  0  0  0  0
  186.2810  177.6750  145.7650 C   0  0  0  0  0  2  0  0  0  0  0  0
  1  5  1  0  0  0  0
  2 22  1  1  0  0  0
  3 14  1  6  0  0  0
  3  2  1  0  0  0  0
  4  6  1  6  0  0  0
  4 11  1  0  0  0  0
  4  3  1  0  0  0  0
  5 10  2  0  0  0  0
  5 11  1  0  0  0  0
  7 21  1  6  0  0  0
  7  9  1  0  0  0  0
  8  1  2  0  0  0  0
  8  6  1  0  0  0  0
  9  2  1  0  0  0  0
 12  6  2  0  0  0  0
 12  7  1  0  0  0  0
 13 14  1  0  0  0  0
 14 15  1  0  0  0  0
 14 16  1  0  0  0  0
 16 17  1  0  0  0  0
 18 16  1  0  0  0  0
 19 16  1  0  0  0  0
 21 20  1  0  0  0  0
 22 23  1  0  0  0  0
 23 24  1  0  0  0  0
 24 25  1  0  0  0  0
 25 27  1  0  0  0  0
 27 26  1  0  0  0  0
 29 27  1  0  0  0  0
 29 28  1  0  0  0  0
M  END
>  <MODEL>
4

>  <REMARK>
 VINA RESULT:      -5.6      5.369      7.677
  Name = 
  9 active torsions:
  status: ('A' for Active; 'I' for Inactive)
    1  A    between atoms: C_4  and  N_29
    2  A    between atoms: C_5  and  C_8
    3  A    between atoms: C_5  and  C_16
    4  A    between atoms: C_7  and  C_17
    5  A    between atoms: C_10  and  N_11
    6  A    between atoms: C_10  and  C_21
    7  A    between atoms: N_11  and  C_27
    8  A    between atoms: C_21  and  C_24
    9  A    between atoms: C_24  and  N_29
                            x       y       z     vdW  Elec       q    Type
                         _______ _______ _______ _____ _____    ______ ____

>  <TORSDO>
F 9

$$$$
=
 OpenBabel11042410233D

 29 30  0  0  1  0  0  0  0  0999 V2000
  179.2910  177.5950  142.2420 N   0  0  0  0  0  0  0  0  0  0  0  0
  183.2040  178.6580  138.7860 C   0  0  2  0  0  3  0  0  0  0  0  0
  182.1900  179.2270  139.7900 C   0  0  2  0  0  3  0  0  0  0  0  0
  181.8050  178.1900  140.8720 C   0  0  2  0  0  3  0  0  0  0  0  0
  180.2230  178.5110  142.8200 C   0  0  0  0  0  0  0  0  0  0  0  0
  180.8250  177.1250  140.4300 C   0  0  0  0  0  0  0  0  0  0  0  0
  182.4320  176.2340  138.7360 C   0  0  1  0  0  3  0  0  0  0  0  0
  179.5490  176.9540  141.1440 C   0  0  0  0  0  3  0  0  0  0  0  0
  182.6420  177.5150  137.9300 C   0  0  0  0  0  2  0  0  0  0  0  0
  179.9620  179.0620  143.9210 O   0  0  0  0  0  0  0  0  0  0  0  0
  181.4350  178.8300  142.1340 N   0  0  0  0  0  2  0  0  0  0  0  0
  181.1210  176.2580  139.4610 C   0  0  0  0  0  3  0  0  0  0  0  0
  180.0730  180.3760  139.9960 F   0  0  0  0  0  0  0  0  0  0  0  0
  181.0500  180.0120  139.0840 C   0  0  0  0  0  0  0  0  0  0  0  0
  180.4640  179.1740  138.1480 F   0  0  0  0  0  0  0  0  0  0  0  0
  181.5420  181.2620  138.3400 C   0  0  0  0  0  0  0  0  0  0  0  0
  182.8400  181.5680  138.7060 F   0  0  0  0  0  0  0  0  0  0  0  0
  181.5120  181.0300  136.9760 F   0  0  0  0  0  0  0  0  0  0  0  0
  180.7210  182.3400  138.6040 F   0  0  0  0  0  0  0  0  0  0  0  0
  183.8890  174.5590  137.6060 C   0  0  0  0  0  1  0  0  0  0  0  0
  182.4620  175.0310  137.8110 C   0  0  0  0  0  2  0  0  0  0  0  0
  184.4370  178.2680  139.4550 N   0  0  0  0  0  2  0  0  0  0  0  0
  184.8110  179.3540  140.3450 C   0  0  0  0  0  2  0  0  0  0  0  0
  185.5280  178.7910  141.5540 C   0  0  0  0  0  2  0  0  0  0  0  0
  184.9420  179.3720  142.8420 C   0  0  0  0  0  2  0  0  0  0  0  0
  183.8830  178.8830  144.8230 O   0  0  0  0  0  1  0  0  0  0  0  0
  184.7370  178.3740  143.9000 N   0  0  0  0  0  0  0  0  0  0  0  0
  185.8430  178.3070  146.0680 C   0  0  0  0  0  1  0  0  0  0  0  0
  186.0010  178.1040  144.5740 C   0  0  0  0  0  2  0  0  0  0  0  0
  1  5  1  0  0  0  0
  2 22  1  1  0  0  0
  2  3  1  0  0  0  0
  3 14  1  6  0  0  0
  3  4  1  0  0  0  0
  4  6  1  6  0  0  0
  4 11  1  0  0  0  0
  5 10  2  0  0  0  0
  6  8  1  0  0  0  0
  7 21  1  6  0  0  0
  7 12  1  0  0  0  0
  8  1  2  0  0  0  0
  9  7  1  0  0  0  0
  9  2  1  0  0  0  0
 11  5  1  0  0  0  0
 12  6  2  0  0  0  0
 14 13  1  0  0  0  0
 15 14  1  0  0  0  0
 16 19  1  0  0  0  0
 16 17  1  0  0  0  0
 16 14  1  0  0  0  0
 18 16  1  0  0  0  0
 20 21  1  0  0  0  0
 22 23  1  0  0  0  0
 23 24  1  0  0  0  0
 24 25  1  0  0  0  0
 25 27  1  0  0  0  0
 27 29  1  0  0  0  0
 27 26  1  0  0  0  0
 29 28  1  0  0  0  0
M  END
>  <MODEL>
5

>  <REMARK>
 VINA RESULT:      -5.6      5.602      8.707
  Name = 
  9 active torsions:
  status: ('A' for Active; 'I' for Inactive)
    1  A    between atoms: C_4  and  N_29
    2  A    between atoms: C_5  and  C_8
    3  A    between atoms: C_5  and  C_16
    4  A    between atoms: C_7  and  C_17
    5  A    between atoms: C_10  and  N_11
    6  A    between atoms: C_10  and  C_21
    7  A    between atoms: N_11  and  C_27
    8  A    between atoms: C_21  and  C_24
    9  A    between atoms: C_24  and  N_29
                            x       y       z     vdW  Elec       q    Type
                         _______ _______ _______ _____ _____    ______ ____

>  <TORSDO>
F 9

$$$$
=
 OpenBabel11042410233D

 29 30  0  0  1  0  0  0  0  0999 V2000
  185.8930  176.9900  137.8140 N   0  0  0  0  0  0  0  0  0  0  0  0
  181.6890  179.7410  139.5870 C   0  0  2  0  0  3  0  0  0  0  0  0
  183.1250  179.2690  139.8670 C   0  0  2  0  0  3  0  0  0  0  0  0
  183.9110  179.0060  138.5610 C   0  0  2  0  0  3  0  0  0  0  0  0
  186.3150  178.2510  138.3370 C   0  0  0  0  0  0  0  0  0  0  0  0
  183.5820  177.7080  137.8570 C   0  0  0  0  0  0  0  0  0  0  0  0
  181.2220  178.4250  137.4610 C   0  0  1  0  0  3  0  0  0  0  0  0
  184.6430  176.7220  137.5920 C   0  0  0  0  0  3  0  0  0  0  0  0
  180.8160  178.6760  138.9110 C   0  0  0  0  0  2  0  0  0  0  0  0
  187.5420  178.4960  138.4750 O   0  0  0  0  0  0  0  0  0  0  0  0
  185.3460  179.2230  138.7360 N   0  0  0  0  0  2  0  0  0  0  0  0
  182.3640  177.4600  137.3750 C   0  0  0  0  0  3  0  0  0  0  0  0
  183.4300  176.9430  140.4480 F   0  0  0  0  0  0  0  0  0  0  0  0
  183.1740  178.1930  140.9860 C   0  0  0  0  0  0  0  0  0  0  0  0
  181.9300  178.1460  141.5950 F   0  0  0  0  0  0  0  0  0  0  0  0
  184.2100  178.4970  142.0790 C   0  0  0  0  0  0  0  0  0  0  0  0
  183.6060  178.5440  143.3230 F   0  0  0  0  0  0  0  0  0  0  0  0
  185.1730  177.5030  142.0940 F   0  0  0  0  0  0  0  0  0  0  0  0
  184.8440  179.6980  141.8280 F   0  0  0  0  0  0  0  0  0  0  0  0
  180.4360  177.6110  135.2410 C   0  0  0  0  0  1  0  0  0  0  0  0
  180.0430  177.8660  136.6840 C   0  0  0  0  0  2  0  0  0  0  0  0
  181.6890  180.9890  138.8340 N   0  0  0  0  0  2  0  0  0  0  0  0
  180.4050  181.6300  139.0560 C   0  0  0  0  0  2  0  0  0  0  0  0
  179.8520  182.1210  137.7340 C   0  0  0  0  0  2  0  0  0  0  0  0
  180.0780  183.6270  137.5860 C   0  0  0  0  0  2  0  0  0  0  0  0
  182.1450  184.6280  137.4920 O   0  0  0  0  0  1  0  0  0  0  0  0
  181.2290  183.9700  136.7390 N   0  0  0  0  0  0  0  0  0  0  0  0
  179.3470  184.6280  135.3420 C   0  0  0  0  0  1  0  0  0  0  0  0
  180.8060  184.8720  135.6750 C   0  0  0  0  0  2  0  0  0  0  0  0
  1  5  1  0  0  0  0
  2 22  1  6  0  0  0
  2  3  1  0  0  0  0
  3 14  1  1  0  0  0
  4  6  1  1  0  0  0
  4 11  1  0  0  0  0
  4  3  1  0  0  0  0
  5 10  2  0  0  0  0
  5 11  1  0  0  0  0
  7 21  1  6  0  0  0
  7  9  1  0  0  0  0
  8  1  2  0  0  0  0
  8  6  1  0  0  0  0
  9  2  1  0  0  0  0
 12  7  1  0  0  0  0
 12  6  2  0  0  0  0
 13 14  1  0  0  0  0
 14 15  1  0  0  0  0
 14 16  1  0  0  0  0
 16 18  1  0  0  0  0
 16 17  1  0  0  0  0
 19 16  1  0  0  0  0
 20 21  1  0  0  0  0
 22 23  1  0  0  0  0
 24 23  1  0  0  0  0
 25 24  1  0  0  0  0
 27 26  1  0  0  0  0
 27 25  1  0  0  0  0
 28 29  1  0  0  0  0
 29 27  1  0  0  0  0
M  END
>  <MODEL>
6

>  <REMARK>
 VINA RESULT:      -5.3      6.609      9.084
  Name = 
  9 active torsions:
  status: ('A' for Active; 'I' for Inactive)
    1  A    between atoms: C_4  and  N_29
    2  A    between atoms: C_5  and  C_8
    3  A    between atoms: C_5  and  C_16
    4  A    between atoms: C_7  and  C_17
    5  A    between atoms: C_10  and  N_11
    6  A    between atoms: C_10  and  C_21
    7  A    between atoms: N_11  and  C_27
    8  A    between atoms: C_21  and  C_24
    9  A    between atoms: C_24  and  N_29
                            x       y       z     vdW  Elec       q    Type
                         _______ _______ _______ _____ _____    ______ ____

>  <TORSDO>
F 9

$$$$
=
 OpenBabel11042410233D

 29 30  0  0  1  0  0  0  0  0999 V2000
  190.2250  174.4850  136.0930 N   0  0  0  0  0  0  0  0  0  0  0  0
  188.5990  178.0210  139.7310 C   0  0  2  0  0  3  0  0  0  0  0  0
  188.3150  177.3480  138.3790 C   0  0  2  0  0  3  0  0  0  0  0  0
  188.9560  175.9430  138.2870 C   0  0  2  0  0  3  0  0  0  0  0  0
  188.8300  174.3170  136.3540 C   0  0  0  0  0  0  0  0  0  0  0  0
  190.4460  175.9270  138.0240 C   0  0  0  0  0  0  0  0  0  0  0  0
  190.9230  177.0900  140.1840 C   0  0  1  0  0  3  0  0  0  0  0  0
  190.9800  175.2230  136.8470 C   0  0  0  0  0  3  0  0  0  0  0  0
  190.0820  178.3440  139.9540 C   0  0  0  0  0  2  0  0  0  0  0  0
  188.1460  173.5390  135.6390 O   0  0  0  0  0  0  0  0  0  0  0  0
  188.2020  175.0570  137.4020 N   0  0  0  0  0  2  0  0  0  0  0  0
  191.3160  176.4550  138.8850 C   0  0  0  0  0  3  0  0  0  0  0  0
  189.4240  177.8130  136.2820 F   0  0  0  0  0  0  0  0  0  0  0  0
  188.5130  178.3280  137.1900 C   0  0  0  0  0  0  0  0  0  0  0  0
  189.0360  179.5120  137.6880 F   0  0  0  0  0  0  0  0  0  0  0  0
  187.2070  178.6740  136.4600 C   0  0  0  0  0  0  0  0  0  0  0  0
  186.1170  178.4630  137.2860 F   0  0  0  0  0  0  0  0  0  0  0  0
  187.2250  180.0050  136.0840 F   0  0  0  0  0  0  0  0  0  0  0  0
  187.0730  177.9120  135.3160 F   0  0  0  0  0  0  0  0  0  0  0  0
  191.8810  177.5040  142.4460 C   0  0  0  0  0  1  0  0  0  0  0  0
  192.1780  177.4450  140.9600 C   0  0  0  0  0  2  0  0  0  0  0  0
  188.0520  177.2340  140.8290 N   0  0  0  0  0  2  0  0  0  0  0  0
  187.7270  178.1540  141.9040 C   0  0  0  0  0  2  0  0  0  0  0  0
  187.3200  177.3690  143.1340 C   0  0  0  0  0  2  0  0  0  0  0  0
  188.5500  177.0140  143.9730 C   0  0  0  0  0  2  0  0  0  0  0  0
  189.9490  178.4410  145.1070 O   0  0  0  0  0  1  0  0  0  0  0  0
  188.7230  177.8660  145.1570 N   0  0  0  0  0  0  0  0  0  0  0  0
  189.0530  177.8840  147.5690 C   0  0  0  0  0  1  0  0  0  0  0  0
  188.6700  177.0490  146.3630 C   0  0  0  0  0  2  0  0  0  0  0  0
  1  5  1  0  0  0  0
  1  8  2  0  0  0  0
  2  9  1  0  0  0  0
  2 22  1  1  0  0  0
  3 14  1  6  0  0  0
  3  2  1  0  0  0  0
  4 11  1  6  0  0  0
  4  3  1  0  0  0  0
  5 11  1  0  0  0  0
  6  4  1  0  0  0  0
  6 12  2  0  0  0  0
  7 21  1  6  0  0  0
  8  6  1  0  0  0  0
  9  7  1  0  0  0  0
 10  5  2  0  0  0  0
 12  7  1  0  0  0  0
 13 14  1  0  0  0  0
 14 15  1  0  0  0  0
 16 14  1  0  0  0  0
 16 17  1  0  0  0  0
 18 16  1  0  0  0  0
 19 16  1  0  0  0  0
 21 20  1  0  0  0  0
 22 23  1  0  0  0  0
 23 24  1  0  0  0  0
 24 25  1  0  0  0  0
 25 27  1  0  0  0  0
 26 27  1  0  0  0  0
 27 29  1  0  0  0  0
 29 28  1  0  0  0  0
M  END
>  <MODEL>
7

>  <REMARK>
 VINA RESULT:      -5.2      2.436      3.121
  Name = 
  9 active torsions:
  status: ('A' for Active; 'I' for Inactive)
    1  A    between atoms: C_4  and  N_29
    2  A    between atoms: C_5  and  C_8
    3  A    between atoms: C_5  and  C_16
    4  A    between atoms: C_7  and  C_17
    5  A    between atoms: C_10  and  N_11
    6  A    between atoms: C_10  and  C_21
    7  A    between atoms: N_11  and  C_27
    8  A    between atoms: C_21  and  C_24
    9  A    between atoms: C_24  and  N_29
                            x       y       z     vdW  Elec       q    Type
                         _______ _______ _______ _____ _____    ______ ____

>  <TORSDO>
F 9

$$$$
=
 OpenBabel11042410233D

 29 30  0  0  1  0  0  0  0  0999 V2000
  179.2610  177.8170  142.2590 N   0  0  0  0  0  0  0  0  0  0  0  0
  182.7670  178.6280  138.3300 C   0  0  2  0  0  3  0  0  0  0  0  0
  182.0510  179.2210  139.5540 C   0  0  2  0  0  3  0  0  0  0  0  0
  181.6180  178.1260  140.5570 C   0  0  2  0  0  3  0  0  0  0  0  0
  180.4380  178.4450  142.7720 C   0  0  0  0  0  0  0  0  0  0  0  0
  180.3830  177.3430  140.1690 C   0  0  0  0  0  0  0  0  0  0  0  0
  181.5040  176.4290  138.1310 C   0  0  1  0  0  3  0  0  0  0  0  0
  179.2170  177.3100  141.0660 C   0  0  0  0  0  3  0  0  0  0  0  0
  181.8600  177.7520  137.4570 C   0  0  0  0  0  2  0  0  0  0  0  0
  180.4610  178.8640  143.9580 O   0  0  0  0  0  0  0  0  0  0  0  0
  181.5770  178.6280  141.9290 N   0  0  0  0  0  2  0  0  0  0  0  0
  180.3470  176.5900  139.0680 C   0  0  0  0  0  3  0  0  0  0  0  0
  180.3760  180.8090  140.2740 F   0  0  0  0  0  0  0  0  0  0  0  0
  181.0120  180.3030  139.1510 C   0  0  0  0  0  0  0  0  0  0  0  0
  180.0490  179.7030  138.3540 F   0  0  0  0  0  0  0  0  0  0  0  0
  181.6180  181.4620  138.3460 C   0  0  0  0  0  0  0  0  0  0  0  0
  181.5590  181.1960  136.9900 F   0  0  0  0  0  0  0  0  0  0  0  0
  180.9080  182.6230  138.6000 F   0  0  0  0  0  0  0  0  0  0  0  0
  182.9300  181.6780  138.7170 F   0  0  0  0  0  0  0  0  0  0  0  0
  181.3940  173.9940  137.6120 C   0  0  0  0  0  1  0  0  0  0  0  0
  181.1480  175.3930  137.0800 C   0  0  0  0  0  2  0  0  0  0  0  0
  183.9750  177.9180  138.7280 N   0  0  0  0  0  2  0  0  0  0  0  0
  185.0940  178.8240  138.5380 C   0  0  0  0  0  2  0  0  0  0  0  0
  186.0380  178.2480  137.5030 C   0  0  0  0  0  2  0  0  0  0  0  0
  187.2850  177.6720  138.1780 C   0  0  0  0  0  2  0  0  0  0  0  0
  188.9310  179.2670  138.3370 O   0  0  0  0  0  1  0  0  0  0  0  0
  187.9750  178.6270  139.0540 N   0  0  0  0  0  0  0  0  0  0  0  0
  188.3160  178.5610  141.4640 C   0  0  0  0  0  1  0  0  0  0  0  0
  188.6430  177.9110  140.1340 C   0  0  0  0  0  2  0  0  0  0  0  0
  1  5  1  0  0  0  0
  2 22  1  1  0  0  0
  2  3  1  0  0  0  0
  3 14  1  6  0  0  0
  3  4  1  0  0  0  0
  4  6  1  6  0  0  0
  4 11  1  0  0  0  0
  5 10  2  0  0  0  0
  6  8  1  0  0  0  0
  7 21  1  6  0  0  0
  7 12  1  0  0  0  0
  8  1  2  0  0  0  0
  9  7  1  0  0  0  0
  9  2  1  0  0  0  0
 11  5  1  0  0  0  0
 12  6  2  0  0  0  0
 14 13  1  0  0  0  0
 15 14  1  0  0  0  0
 16 18  1  0  0  0  0
 16 19  1  0  0  0  0
 16 14  1  0  0  0  0
 17 16  1  0  0  0  0
 21 20  1  0  0  0  0
 23 22  1  0  0  0  0
 24 25  1  0  0  0  0
 24 23  1  0  0  0  0
 25 27  1  0  0  0  0
 26 27  1  0  0  0  0
 27 29  1  0  0  0  0
 29 28  1  0  0  0  0
M  END
>  <MODEL>
8

>  <REMARK>
 VINA RESULT:      -5.2      5.705      9.480
  Name = 
  9 active torsions:
  status: ('A' for Active; 'I' for Inactive)
    1  A    between atoms: C_4  and  N_29
    2  A    between atoms: C_5  and  C_8
    3  A    between atoms: C_5  and  C_16
    4  A    between atoms: C_7  and  C_17
    5  A    between atoms: C_10  and  N_11
    6  A    between atoms: C_10  and  C_21
    7  A    between atoms: N_11  and  C_27
    8  A    between atoms: C_21  and  C_24
    9  A    between atoms: C_24  and  N_29
                            x       y       z     vdW  Elec       q    Type
                         _______ _______ _______ _____ _____    ______ ____

>  <TORSDO>
F 9

$$$$
=
 OpenBabel11042410233D

 29 30  0  0  1  0  0  0  0  0999 V2000
  189.2610  176.8880  147.7210 N   0  0  0  0  0  0  0  0  0  0  0  0
  188.9440  177.7850  142.4790 C   0  0  2  0  0  3  0  0  0  0  0  0
  189.8630  177.6330  143.7010 C   0  0  2  0  0  3  0  0  0  0  0  0
  189.2200  176.7530  144.8000 C   0  0  2  0  0  3  0  0  0  0  0  0
  190.2240  176.0930  147.0260 C   0  0  0  0  0  0  0  0  0  0  0  0
  188.1590  177.4340  145.6370 C   0  0  0  0  0  0  0  0  0  0  0  0
  186.6840  177.7620  143.6460 C   0  0  1  0  0  3  0  0  0  0  0  0
  188.3100  177.5140  147.0990 C   0  0  0  0  0  3  0  0  0  0  0  0
  187.6530  178.5590  142.7770 C   0  0  0  0  0  2  0  0  0  0  0  0
  191.0910  175.4480  147.6720 O   0  0  0  0  0  0  0  0  0  0  0  0
  190.2270  176.0550  145.5980 N   0  0  0  0  0  2  0  0  0  0  0  0
  187.0270  177.8900  145.0990 C   0  0  0  0  0  3  0  0  0  0  0  0
  190.0030  179.4020  145.3430 F   0  0  0  0  0  0  0  0  0  0  0  0
  190.5020  178.9850  144.1200 C   0  0  0  0  0  0  0  0  0  0  0  0
  190.1560  179.9380  143.1740 F   0  0  0  0  0  0  0  0  0  0  0  0
  192.0360  178.9400  144.1870 C   0  0  0  0  0  0  0  0  0  0  0  0
  192.5410  180.1540  144.6170 F   0  0  0  0  0  0  0  0  0  0  0  0
  192.4320  177.9580  145.0790 F   0  0  0  0  0  0  0  0  0  0  0  0
  192.5680  178.6300  142.9510 F   0  0  0  0  0  0  0  0  0  0  0  0
  184.6510  178.6920  144.7450 C   0  0  0  0  0  1  0  0  0  0  0  0
  185.2660  178.2590  143.4280 C   0  0  0  0  0  2  0  0  0  0  0  0
  188.6630  176.4900  141.8740 N   0  0  0  0  0  2  0  0  0  0  0  0
  189.7320  176.2100  140.9310 C   0  0  0  0  0  2  0  0  0  0  0  0
  190.2340  177.5100  140.3370 C   0  0  0  0  0  2  0  0  0  0  0  0
  189.7560  177.6570  138.8910 C   0  0  0  0  0  2  0  0  0  0  0  0
  187.6780  178.6090  139.1270 O   0  0  0  0  0  1  0  0  0  0  0  0
  188.9280  178.8480  138.6620 N   0  0  0  0  0  0  0  0  0  0  0  0
  189.1520  177.8460  136.4540 C   0  0  0  0  0  1  0  0  0  0  0  0
  188.8220  179.1060  137.2310 C   0  0  0  0  0  2  0  0  0  0  0  0
  2 22  1  1  0  0  0
  2  9  1  0  0  0  0
  2  3  1  0  0  0  0
  3 14  1  1  0  0  0
  3  4  1  0  0  0  0
  4 11  1  1  0  0  0
  4  6  1  0  0  0  0
  5 10  2  0  0  0  0
  5  1  1  0  0  0  0
  6  8  1  0  0  0  0
  7 21  1  1  0  0  0
  7 12  1  0  0  0  0
  8  1  2  0  0  0  0
  9  7  1  0  0  0  0
 11  5  1  0  0  0  0
 12  6  2  0  0  0  0
 14 16  1  0  0  0  0
 14 13  1  0  0  0  0
 15 14  1  0  0  0  0
 16 17  1  0  0  0  0
 16 18  1  0  0  0  0
 19 16  1  0  0  0  0
 21 20  1  0  0  0  0
 23 22  1  0  0  0  0
 24 23  1  0  0  0  0
 25 24  1  0  0  0  0
 27 25  1  0  0  0  0
 27 26  1  0  0  0  0
 28 29  1  0  0  0  0
 29 27  1  0  0  0  0
M  END
>  <MODEL>
9

>  <REMARK>
 VINA RESULT:      -5.1      3.478      6.845
  Name = 
  9 active torsions:
  status: ('A' for Active; 'I' for Inactive)
    1  A    between atoms: C_4  and  N_29
    2  A    between atoms: C_5  and  C_8
    3  A    between atoms: C_5  and  C_16
    4  A    between atoms: C_7  and  C_17
    5  A    between atoms: C_10  and  N_11
    6  A    between atoms: C_10  and  C_21
    7  A    between atoms: N_11  and  C_27
    8  A    between atoms: C_21  and  C_24
    9  A    between atoms: C_24  and  N_29
                            x       y       z     vdW  Elec       q    Type
                         _______ _______ _______ _____ _____    ______ ____

>  <TORSDO>
F 9

$$$$
