=
 OpenBabel11042410513D

 63 69  0  0  1  0  0  0  0  0999 V2000
  189.3840  176.4460  144.4080 C   0  0  1  0  0  3  0  0  0  0  0  0
  188.0450  177.0730  143.9630 C   0  0  0  0  0  2  0  0  0  0  0  0
  188.1640  177.0940  142.4870 C   0  0  2  0  0  3  0  0  0  0  0  0
  188.7020  178.0790  140.4950 C   0  0  0  0  0  0  0  0  0  0  0  0
  189.7130  177.3520  140.8620 N   0  0  0  0  0  0  0  0  0  0  0  0
  189.3350  176.7220  142.0770 C   0  0  1  0  0  3  0  0  0  0  0  0
  187.6230  178.1160  141.5510 C   0  0  1  0  0  3  0  0  0  0  0  0
  190.2570  176.3080  143.1530 C   0  0  0  0  0  2  0  0  0  0  0  0
  190.0860  177.2540  145.5150 C   0  0  1  0  0  3  0  0  0  0  0  0
  189.8760  176.6940  146.9440 C   0  0  1  0  0  3  0  0  0  0  0  0
  191.0060  176.8900  147.7420 O   0  0  0  0  0  1  0  0  0  0  0  0
  188.6940  177.3250  147.6090 C   0  0  0  0  0  0  0  0  0  0  0  0
  187.9900  178.4540  146.9340 C   0  0  0  0  0  1  0  0  0  0  0  0
  188.2770  176.8970  148.6760 O   0  0  0  0  0  0  0  0  0  0  0  0
  191.5470  177.5410  145.1480 C   0  0  0  0  0  2  0  0  0  0  0  0
  191.7060  178.7340  144.2090 C   0  0  0  0  0  1  0  0  0  0  0  0
  186.2520  177.7200  141.0240 C   0  0  0  0  0  2  0  0  0  0  0  0
  183.8050  178.2670  141.4860 C   0  0  0  0  0  0  0  0  0  0  0  0
  182.8280  178.8270  142.3320 C   0  0  0  0  0  3  0  0  0  0  0  0
  185.5030  178.8740  143.1120 C   0  0  0  0  0  3  0  0  0  0  0  0
  185.1570  178.2660  141.8990 C   0  0  0  0  0  0  0  0  0  0  0  0
  184.5250  179.4170  143.9470 C   0  0  0  0  0  3  0  0  0  0  0  0
  183.1850  179.3940  143.5550 C   0  0  0  0  0  3  0  0  0  0  0  0
  183.4140  177.7700  140.1550 C   0  0  0  0  0  3  0  0  0  0  0  0
  182.4840  176.8750  140.0320 N   0  0  0  0  0  0  0  0  0  0  0  0
  182.1200  176.4270  138.7580 N   0  0  0  0  0  2  0  0  0  0  0  0
  181.8900  175.0720  138.5250 N   0  0  0  0  0  2  0  0  0  0  0  0
  180.5010  174.8080  138.8870 C   0  0  0  0  0  2  0  0  0  0  0  0
  179.7560  174.1730  137.7130 C   0  0  2  0  0  3  0  0  0  0  0  0
  179.0460  172.9830  138.1570 N   0  0  0  0  0  1  0  0  0  0  0  0
  180.6660  173.8190  136.5290 C   0  0  0  0  0  2  0  0  0  0  0  0
  181.0010  177.3340  135.7910 C   0  0  0  0  0  0  0  0  0  0  0  0
  181.5640  174.8240  134.5940 C   0  0  0  0  0  2  0  0  0  0  0  0
  179.8030  177.9680  136.2670 N   0  0  0  0  0  2  0  0  0  0  0  0
  182.0290  178.0220  135.5630 O   0  0  0  0  0  0  0  0  0  0  0  0
  180.9700  175.9700  135.3680 N   0  0  0  0  0  0  0  0  0  0  0  0
  180.3700  174.6000  135.2540 C   0  0  2  0  0  3  0  0  0  0  0  0
  180.4510  181.1840  138.7290 C   0  0  1  0  0  3  0  0  0  0  0  0
  179.6790  179.4140  136.5120 C   0  0  2  0  0  0  0  0  0  0  0  0
  178.9320  180.0040  135.3250 C   0  0  0  0  0  1  0  0  0  0  0  0
  179.0630  180.9510  138.1280 C   0  0  0  0  0  2  0  0  0  0  0  0
  180.4580  180.7360  140.1690 C   0  0  0  0  0  1  0  0  0  0  0  0
  181.0890  180.0770  136.5320 C   0  0  0  0  0  2  0  0  0  0  0  0
  181.5390  180.4210  137.9590 C   0  0  0  0  0  2  0  0  0  0  0  0
  178.9310  179.6110  137.7040 O   0  0  0  0  0  0  0  0  0  0  0  0
  188.8000  179.0620  139.3690 C   0  0  0  0  0  2  0  0  0  0  0  0
  188.1970  179.0390  136.9530 C   0  0  0  0  0  2  0  0  0  0  0  0
  185.7220  178.9130  137.2560 C   0  0  0  0  0  1  0  0  0  0  0  0
  188.5460  176.9580  138.0760 C   0  0  1  0  0  3  0  0  0  0  0  0
  186.9660  178.1700  136.7940 C   0  0  2  0  0  3  0  0  0  0  0  0
  189.0400  178.3820  138.0220 C   0  0  2  0  0  3  0  0  0  0  0  0
  187.1460  176.9560  137.5910 N   0  0  0  0  0  0  0  0  0  0  0  0
  190.6820  176.3910  137.7610 C   0  0  0  0  0  1  0  0  0  0  0  0
  189.3850  176.1380  137.3050 O   0  0  0  0  0  0  0  0  0  0  0  0
  186.9100  175.8550  136.7450 N   0  0  0  0  0  2  0  0  0  0  0  0
  186.4150  174.7630  137.5790 C   0  0  0  0  0  2  0  0  0  0  0  0
  183.9340  172.0430  137.1440 C   0  0  0  0  0  2  0  0  0  0  0  0
  183.5770  171.4780  135.7700 C   0  0  0  0  0  2  0  0  0  0  0  0
  184.5800  173.3830  134.5950 O   0  0  0  0  0  0  0  0  0  0  0  0
  184.5000  171.9570  134.6440 C   0  0  0  0  0  2  0  0  0  0  0  0
  185.4180  172.4090  137.2670 C   0  0  0  0  0  2  0  0  0  0  0  0
  185.2520  174.1890  135.5290 C   0  0  0  0  0  3  0  0  0  0  0  0
  185.6650  173.7870  136.7360 C   0  0  0  0  0  0  0  0  0  0  0  0
  1  9  1  1  0  0  0
  2  1  1  0  0  0  0
  3  2  1  1  0  0  0
  4  5  2  0  0  0  0
  4  7  1  0  0  0  0
  5  6  1  0  0  0  0
  6  3  1  0  0  0  0
  6  8  1  1  0  0  0
  7 17  1  6  0  0  0
  7  3  1  0  0  0  0
  8  1  1  0  0  0  0
  9 15  1  6  0  0  0
  9 10  1  0  0  0  0
 10 12  1  0  0  0  0
 10 11  1  1  0  0  0
 12 14  2  0  0  0  0
 13 12  1  0  0  0  0
 16 15  1  0  0  0  0
 17 21  1  0  0  0  0
 18 21  2  0  0  0  0
 18 19  1  0  0  0  0
 19 23  2  0  0  0  0
 20 22  2  0  0  0  0
 21 20  1  0  0  0  0
 23 22  1  0  0  0  0
 24 18  1  0  0  0  0
 25 24  2  0  0  0  0
 26 25  1  0  0  0  0
 27 26  1  0  0  0  0
 27 28  1  0  0  0  0
 29 30  1  1  0  0  0
 29 28  1  0  0  0  0
 31 29  1  0  0  0  0
 32 34  1  0  0  0  0
 33 37  1  0  0  0  0
 33 36  1  0  0  0  0
 34 39  1  0  0  0  0
 35 32  2  0  0  0  0
 36 32  1  0  0  0  0
 37 36  1  0  0  0  0
 37 31  1  1  0  0  0
 38 42  1  1  0  0  0
 39 40  1  6  0  0  0
 39 43  1  0  0  0  0
 39 45  1  0  0  0  0
 41 38  1  0  0  0  0
 43 44  1  0  0  0  0
 44 38  1  0  0  0  0
 45 41  1  0  0  0  0
 46  4  1  0  0  0  0
 47 51  1  0  0  0  0
 49 54  1  6  0  0  0
 50 47  1  0  0  0  0
 50 48  1  1  0  0  0
 50 52  1  0  0  0  0
 51 49  1  0  0  0  0
 51 46  1  1  0  0  0
 52 49  1  0  0  0  0
 54 53  1  0  0  0  0
 55 56  1  0  0  0  0
 55 52  1  0  0  0  0
 57 61  1  0  0  0  0
 58 57  1  0  0  0  0
 59 60  1  0  0  0  0
 59 62  1  0  0  0  0
 60 58  1  0  0  0  0
 62 63  2  0  0  0  0
 63 61  1  0  0  0  0
 63 56  1  0  0  0  0
M  END
>  <MODEL>
1

>  <REMARK>
 VINA RESULT:      -6.3      0.000      0.000
  Name = 
  20 active torsions:
  status: ('A' for Active; 'I' for Inactive)
    1  A    between atoms: C_1  and  C_15
    2  A    between atoms: C_1  and  C_41
    3  A    between atoms: C_6  and  C_14
    4  A    between atoms: C_8  and  C_28
    5  A    between atoms: N_12  and  N_16
    6  A    between atoms: N_12  and  C_61
    7  A    between atoms: C_15  and  C_61
    8  A    between atoms: N_16  and  N_20
    9  A    between atoms: C_17  and  N_27
   10  A    between atoms: C_18  and  C_28
   11  A    between atoms: C_23  and  O_50
   12  A    between atoms: C_28  and  C_42
   13  A    between atoms: C_31  and  C_32
   14  A    between atoms: C_31  and  C_59
   15  A    between atoms: C_33  and  C_42
   16  A    between atoms: C_34  and  C_43
   17  A    between atoms: C_34  and  C_52
   18  A    between atoms: N_40  and  N_49
   19  A    between atoms: N_40  and  C_51
   20  A    between atoms: C_51  and  C_54
                            x       y       z     vdW  Elec       q    Type
                         _______ _______ _______ _____ _____    ______ ____

>  <TORSDO>
F 20

$$$$
=
 OpenBabel11042410513D

 63 69  0  0  1  0  0  0  0  0999 V2000
  186.2000  175.6050  135.8490 C   0  0  1  0  0  3  0  0  0  0  0  0
  187.0860  176.2560  136.9340 C   0  0  0  0  0  2  0  0  0  0  0  0
  188.4530  176.0850  136.3910 C   0  0  2  0  0  3  0  0  0  0  0  0
  190.4370  174.9700  136.1630 C   0  0  0  0  0  0  0  0  0  0  0  0
  189.6780  174.6370  135.1630 N   0  0  0  0  0  0  0  0  0  0  0  0
  188.4730  175.3730  135.3090 C   0  0  1  0  0  3  0  0  0  0  0  0
  189.7060  175.8430  137.1560 C   0  0  1  0  0  3  0  0  0  0  0  0
  187.1430  174.9480  134.8320 C   0  0  0  0  0  2  0  0  0  0  0  0
  185.1840  174.6040  136.4270 C   0  0  1  0  0  3  0  0  0  0  0  0
  183.7050  174.9460  136.1170 C   0  0  1  0  0  3  0  0  0  0  0  0
  182.9690  173.7990  135.8040 O   0  0  0  0  0  1  0  0  0  0  0  0
  183.0540  175.6440  137.2680 C   0  0  0  0  0  0  0  0  0  0  0  0
  183.2280  177.1170  137.4250 C   0  0  0  0  0  1  0  0  0  0  0  0
  182.3480  175.0260  138.0530 O   0  0  0  0  0  0  0  0  0  0  0  0
  185.5870  173.1590  136.1060 C   0  0  0  0  0  2  0  0  0  0  0  0
  186.1370  172.4080  137.3160 C   0  0  0  0  0  1  0  0  0  0  0  0
  190.4340  177.1440  137.4620 C   0  0  0  0  0  2  0  0  0  0  0  0
  190.2530  177.5100  139.9780 C   0  0  0  0  0  0  0  0  0  0  0  0
  190.8610  177.5110  141.2490 C   0  0  0  0  0  3  0  0  0  0  0  0
  192.3680  176.8130  139.0110 C   0  0  0  0  0  3  0  0  0  0  0  0
  191.0130  177.1260  138.8500 C   0  0  0  0  0  0  0  0  0  0  0  0
  192.9580  176.8070  140.2760 C   0  0  0  0  0  3  0  0  0  0  0  0
  192.2010  177.1580  141.3970 C   0  0  0  0  0  3  0  0  0  0  0  0
  188.8660  177.9880  139.8370 C   0  0  0  0  0  3  0  0  0  0  0  0
  188.2760  178.6000  140.8170 N   0  0  0  0  0  0  0  0  0  0  0  0
  186.9640  179.0560  140.6550 N   0  0  0  0  0  2  0  0  0  0  0  0
  186.0690  179.0220  141.7240 N   0  0  0  0  0  2  0  0  0  0  0  0
  184.7820  178.5910  141.1870 C   0  0  0  0  0  2  0  0  0  0  0  0
  183.8170  178.2530  142.3230 C   0  0  2  0  0  3  0  0  0  0  0  0
  182.4620  178.6370  141.9610 N   0  0  0  0  0  1  0  0  0  0  0  0
  184.1960  178.9000  143.6630 C   0  0  0  0  0  2  0  0  0  0  0  0
  186.5470  178.5930  146.3810 C   0  0  0  0  0  0  0  0  0  0  0  0
  183.7420  178.5840  145.9550 C   0  0  0  0  0  2  0  0  0  0  0  0
  187.6350  177.7920  145.8930 N   0  0  0  0  0  2  0  0  0  0  0  0
  186.7010  179.3060  147.4070 O   0  0  0  0  0  0  0  0  0  0  0  0
  185.2340  178.4230  145.8450 N   0  0  0  0  0  0  0  0  0  0  0  0
  184.2350  177.9320  144.8390 C   0  0  2  0  0  3  0  0  0  0  0  0
  191.6020  176.7770  145.6520 C   0  0  1  0  0  3  0  0  0  0  0  0
  188.9620  177.7330  146.5260 C   0  0  2  0  0  0  0  0  0  0  0  0
  188.8010  178.2530  147.9460 C   0  0  0  0  0  1  0  0  0  0  0  0
  190.7720  176.3290  146.8570 C   0  0  0  0  0  2  0  0  0  0  0  0
  191.7790  175.6170  144.7040 C   0  0  0  0  0  1  0  0  0  0  0  0
  189.9460  178.7000  145.8010 C   0  0  0  0  0  2  0  0  0  0  0  0
  190.9360  177.9410  144.9050 C   0  0  0  0  0  2  0  0  0  0  0  0
  189.3940  176.3790  146.5500 O   0  0  0  0  0  0  0  0  0  0  0  0
  191.7080  174.2410  136.4710 C   0  0  0  0  0  2  0  0  0  0  0  0
  192.5810  172.8220  134.6200 C   0  0  0  0  0  2  0  0  0  0  0  0
  193.2770  170.8790  136.0250 C   0  0  0  0  0  1  0  0  0  0  0  0
  194.0800  174.3060  135.7440 C   0  0  1  0  0  3  0  0  0  0  0  0
  193.7560  172.0340  135.1590 C   0  0  2  0  0  3  0  0  0  0  0  0
  192.6530  174.1840  135.2720 C   0  0  2  0  0  3  0  0  0  0  0  0
  194.5980  172.9330  135.9500 N   0  0  0  0  0  0  0  0  0  0  0  0
  194.7660  176.3630  135.2110 C   0  0  0  0  0  1  0  0  0  0  0  0
  194.8280  175.0280  134.8000 O   0  0  0  0  0  0  0  0  0  0  0  0
  195.9150  172.8150  135.4670 N   0  0  0  0  0  2  0  0  0  0  0  0
  196.7000  172.1470  136.5010 C   0  0  0  0  0  2  0  0  0  0  0  0
  196.2120  174.3480  139.4440 C   0  0  0  0  0  2  0  0  0  0  0  0
  197.3450  175.1870  140.0310 C   0  0  0  0  0  2  0  0  0  0  0  0
  199.0670  173.9080  138.8410 O   0  0  0  0  0  0  0  0  0  0  0  0
  198.6060  175.2220  139.1590 C   0  0  0  0  0  2  0  0  0  0  0  0
  196.2720  174.2570  137.9140 C   0  0  0  0  0  2  0  0  0  0  0  0
  198.4390  173.0230  137.9480 C   0  0  0  0  0  3  0  0  0  0  0  0
  197.1890  173.1520  137.4900 C   0  0  0  0  0  0  0  0  0  0  0  0
  1  9  1  1  0  0  0
  1  2  1  0  0  0  0
  3  2  1  1  0  0  0
  3  7  1  0  0  0  0
  4 46  1  0  0  0  0
  4  7  1  0  0  0  0
  5  6  1  0  0  0  0
  5  4  2  0  0  0  0
  6  8  1  1  0  0  0
  6  3  1  0  0  0  0
  7 17  1  6  0  0  0
  8  1  1  0  0  0  0
  9 15  1  6  0  0  0
 10 11  1  1  0  0  0
 10  9  1  0  0  0  0
 10 12  1  0  0  0  0
 12 13  1  0  0  0  0
 12 14  2  0  0  0  0
 15 16  1  0  0  0  0
 17 21  1  0  0  0  0
 18 19  1  0  0  0  0
 19 23  2  0  0  0  0
 20 22  2  0  0  0  0
 21 20  1  0  0  0  0
 21 18  2  0  0  0  0
 22 23  1  0  0  0  0
 24 18  1  0  0  0  0
 24 25  2  0  0  0  0
 26 25  1  0  0  0  0
 26 27  1  0  0  0  0
 28 27  1  0  0  0  0
 28 29  1  0  0  0  0
 29 30  1  6  0  0  0
 29 31  1  0  0  0  0
 32 35  2  0  0  0  0
 34 32  1  0  0  0  0
 34 39  1  0  0  0  0
 36 33  1  0  0  0  0
 36 32  1  0  0  0  0
 37 31  1  6  0  0  0
 37 36  1  0  0  0  0
 37 33  1  0  0  0  0
 38 42  1  6  0  0  0
 38 41  1  0  0  0  0
 39 45  1  0  0  0  0
 39 40  1  1  0  0  0
 43 39  1  0  0  0  0
 44 38  1  0  0  0  0
 44 43  1  0  0  0  0
 45 41  1  0  0  0  0
 47 50  1  0  0  0  0
 47 51  1  0  0  0  0
 49 54  1  6  0  0  0
 49 52  1  0  0  0  0
 50 52  1  0  0  0  0
 50 48  1  1  0  0  0
 51 49  1  0  0  0  0
 51 46  1  1  0  0  0
 54 53  1  0  0  0  0
 55 52  1  0  0  0  0
 55 56  1  0  0  0  0
 56 63  1  0  0  0  0
 57 58  1  0  0  0  0
 59 60  1  0  0  0  0
 60 58  1  0  0  0  0
 61 57  1  0  0  0  0
 62 59  1  0  0  0  0
 63 61  1  0  0  0  0
 63 62  2  0  0  0  0
M  END
>  <MODEL>
2

>  <REMARK>
 VINA RESULT:      -5.7      4.175     10.395
  Name = 
  20 active torsions:
  status: ('A' for Active; 'I' for Inactive)
    1  A    between atoms: C_1  and  C_15
    2  A    between atoms: C_1  and  C_41
    3  A    between atoms: C_6  and  C_14
    4  A    between atoms: C_8  and  C_28
    5  A    between atoms: N_12  and  N_16
    6  A    between atoms: N_12  and  C_61
    7  A    between atoms: C_15  and  C_61
    8  A    between atoms: N_16  and  N_20
    9  A    between atoms: C_17  and  N_27
   10  A    between atoms: C_18  and  C_28
   11  A    between atoms: C_23  and  O_50
   12  A    between atoms: C_28  and  C_42
   13  A    between atoms: C_31  and  C_32
   14  A    between atoms: C_31  and  C_59
   15  A    between atoms: C_33  and  C_42
   16  A    between atoms: C_34  and  C_43
   17  A    between atoms: C_34  and  C_52
   18  A    between atoms: N_40  and  N_49
   19  A    between atoms: N_40  and  C_51
   20  A    between atoms: C_51  and  C_54
                            x       y       z     vdW  Elec       q    Type
                         _______ _______ _______ _____ _____    ______ ____

>  <TORSDO>
F 20

$$$$
=
 OpenBabel11042410513D

 63 69  0  0  1  0  0  0  0  0999 V2000
  189.6050  176.7270  143.4260 C   0  0  1  0  0  3  0  0  0  0  0  0
  188.8120  176.8420  142.1070 C   0  0  0  0  0  2  0  0  0  0  0  0
  189.7830  176.3680  141.0940 C   0  0  2  0  0  3  0  0  0  0  0  0
  191.4290  176.6800  139.5380 C   0  0  0  0  0  0  0  0  0  0  0  0
  192.0010  176.3720  140.6620 N   0  0  0  0  0  0  0  0  0  0  0  0
  190.9560  176.1450  141.5960 C   0  0  1  0  0  3  0  0  0  0  0  0
  189.9360  176.8470  139.6940 C   0  0  1  0  0  3  0  0  0  0  0  0
  191.0470  176.3530  143.0550 C   0  0  0  0  0  2  0  0  0  0  0  0
  189.5410  178.0070  144.2780 C   0  0  1  0  0  3  0  0  0  0  0  0
  188.5100  177.9530  145.4340 C   0  0  1  0  0  3  0  0  0  0  0  0
  187.4250  177.1320  145.1130 O   0  0  0  0  0  1  0  0  0  0  0  0
  189.1360  177.4610  146.7000 C   0  0  0  0  0  0  0  0  0  0  0  0
  189.0280  178.2850  147.9380 C   0  0  0  0  0  1  0  0  0  0  0  0
  189.6940  176.3730  146.7380 O   0  0  0  0  0  0  0  0  0  0  0  0
  190.9450  178.4660  144.6940 C   0  0  0  0  0  2  0  0  0  0  0  0
  191.4670  179.6310  143.8570 C   0  0  0  0  0  1  0  0  0  0  0  0
  189.1310  175.9970  138.7220 C   0  0  0  0  0  2  0  0  0  0  0  0
  188.0140  176.2970  136.4500 C   0  0  0  0  0  0  0  0  0  0  0  0
  187.4560  177.1500  135.4780 C   0  0  0  0  0  3  0  0  0  0  0  0
  188.4480  178.2360  137.8450 C   0  0  0  0  0  3  0  0  0  0  0  0
  188.4890  176.8490  137.6620 C   0  0  0  0  0  0  0  0  0  0  0  0
  187.8830  179.0710  136.8790 C   0  0  0  0  0  3  0  0  0  0  0  0
  187.3870  178.5250  135.6920 C   0  0  0  0  0  3  0  0  0  0  0  0
  188.1700  174.8620  136.1540 C   0  0  0  0  0  3  0  0  0  0  0  0
  188.3130  174.4520  134.9310 N   0  0  0  0  0  0  0  0  0  0  0  0
  188.4730  173.0870  134.6740 N   0  0  0  0  0  2  0  0  0  0  0  0
  188.0270  172.1390  135.5950 N   0  0  0  0  0  2  0  0  0  0  0  0
  187.0640  171.2920  134.9010 C   0  0  0  0  0  2  0  0  0  0  0  0
  185.8390  171.0460  135.7810 C   0  0  2  0  0  3  0  0  0  0  0  0
  185.1050  169.8840  135.3040 N   0  0  0  0  0  1  0  0  0  0  0  0
  184.8940  172.2530  135.8670 C   0  0  0  0  0  2  0  0  0  0  0  0
  182.9730  174.9950  137.2110 C   0  0  0  0  0  0  0  0  0  0  0  0
  182.8580  172.1640  137.0540 C   0  0  0  0  0  2  0  0  0  0  0  0
  183.9200  175.9280  137.7570 N   0  0  0  0  0  2  0  0  0  0  0  0
  181.7990  175.3650  136.9560 O   0  0  0  0  0  0  0  0  0  0  0  0
  183.2880  173.6020  137.1590 N   0  0  0  0  0  0  0  0  0  0  0  0
  184.2070  172.4180  137.2170 C   0  0  2  0  0  3  0  0  0  0  0  0
  183.7740  178.9880  140.4840 C   0  0  1  0  0  3  0  0  0  0  0  0
  183.6080  177.3340  138.0590 C   0  0  2  0  0  0  0  0  0  0  0  0
  183.0380  177.9460  136.7890 C   0  0  0  0  0  1  0  0  0  0  0  0
  182.5520  178.6810  139.6160 C   0  0  0  0  0  2  0  0  0  0  0  0
  183.5590  178.4310  141.8700 C   0  0  0  0  0  1  0  0  0  0  0  0
  184.9160  178.1140  138.3880 C   0  0  0  0  0  2  0  0  0  0  0  0
  185.0570  178.3850  139.8940 C   0  0  0  0  0  2  0  0  0  0  0  0
  182.6360  177.3710  139.0950 O   0  0  0  0  0  0  0  0  0  0  0  0
  192.2080  177.1980  138.3680 C   0  0  0  0  0  2  0  0  0  0  0  0
  192.6330  174.8270  137.7370 C   0  0  0  0  0  2  0  0  0  0  0  0
  194.8710  174.6170  138.8230 C   0  0  0  0  0  1  0  0  0  0  0  0
  193.3870  176.5640  136.2780 C   0  0  1  0  0  3  0  0  0  0  0  0
  194.1210  174.6730  137.5010 C   0  0  2  0  0  3  0  0  0  0  0  0
  192.2630  176.1970  137.2150 C   0  0  2  0  0  3  0  0  0  0  0  0
  194.5880  175.8130  136.7110 N   0  0  0  0  0  0  0  0  0  0  0  0
  191.6250  176.4300  134.9120 C   0  0  0  0  0  1  0  0  0  0  0  0
  193.0140  176.2680  134.9570 O   0  0  0  0  0  0  0  0  0  0  0  0
  195.2870  175.3010  135.6010 N   0  0  0  0  0  2  0  0  0  0  0  0
  195.0240  173.8660  135.5450 C   0  0  0  0  0  2  0  0  0  0  0  0
  198.1730  172.9940  137.2970 C   0  0  0  0  0  2  0  0  0  0  0  0
  199.1360  171.9350  136.7640 C   0  0  0  0  0  2  0  0  0  0  0  0
  197.4570  171.0080  135.2350 O   0  0  0  0  0  0  0  0  0  0  0  0
  198.8080  171.4580  135.3450 C   0  0  0  0  0  2  0  0  0  0  0  0
  197.5190  173.8180  136.1810 C   0  0  0  0  0  2  0  0  0  0  0  0
  196.3230  171.8380  135.2500 C   0  0  0  0  0  3  0  0  0  0  0  0
  196.3090  173.1140  135.6490 C   0  0  0  0  0  0  0  0  0  0  0  0
  1  9  1  6  0  0  0
  2  1  1  0  0  0  0
  3  6  1  0  0  0  0
  3  2  1  1  0  0  0
  4  7  1  0  0  0  0
  4  5  2  0  0  0  0
  5  6  1  0  0  0  0
  6  8  1  1  0  0  0
  7 17  1  6  0  0  0
  7  3  1  0  0  0  0
  8  1  1  0  0  0  0
  9 15  1  1  0  0  0
  9 10  1  0  0  0  0
 10 11  1  6  0  0  0
 10 12  1  0  0  0  0
 12 14  2  0  0  0  0
 12 13  1  0  0  0  0
 16 15  1  0  0  0  0
 18 21  1  0  0  0  0
 19 23  1  0  0  0  0
 19 18  2  0  0  0  0
 21 20  2  0  0  0  0
 21 17  1  0  0  0  0
 22 20  1  0  0  0  0
 23 22  2  0  0  0  0
 24 18  1  0  0  0  0
 25 24  2  0  0  0  0
 26 25  1  0  0  0  0
 26 27  1  0  0  0  0
 28 27  1  0  0  0  0
 28 29  1  0  0  0  0
 29 30  1  6  0  0  0
 29 31  1  0  0  0  0
 32 34  1  0  0  0  0
 33 36  1  0  0  0  0
 33 37  1  0  0  0  0
 34 39  1  0  0  0  0
 35 32  2  0  0  0  0
 36 32  1  0  0  0  0
 36 37  1  0  0  0  0
 37 31  1  6  0  0  0
 38 42  1  1  0  0  0
 39 40  1  6  0  0  0
 39 43  1  0  0  0  0
 39 45  1  0  0  0  0
 41 38  1  0  0  0  0
 43 44  1  0  0  0  0
 44 38  1  0  0  0  0
 45 41  1  0  0  0  0
 46  4  1  0  0  0  0
 49 54  1  6  0  0  0
 49 52  1  0  0  0  0
 49 51  1  0  0  0  0
 50 47  1  0  0  0  0
 50 48  1  1  0  0  0
 51 47  1  0  0  0  0
 51 46  1  1  0  0  0
 52 50  1  0  0  0  0
 53 54  1  0  0  0  0
 55 52  1  0  0  0  0
 56 55  1  0  0  0  0
 56 63  1  0  0  0  0
 58 57  1  0  0  0  0
 59 62  1  0  0  0  0
 59 60  1  0  0  0  0
 60 58  1  0  0  0  0
 61 57  1  0  0  0  0
 62 63  2  0  0  0  0
 63 61  1  0  0  0  0
M  END
>  <MODEL>
3

>  <REMARK>
 VINA RESULT:      -5.6      3.883      6.710
  Name = 
  20 active torsions:
  status: ('A' for Active; 'I' for Inactive)
    1  A    between atoms: C_1  and  C_15
    2  A    between atoms: C_1  and  C_41
    3  A    between atoms: C_6  and  C_14
    4  A    between atoms: C_8  and  C_28
    5  A    between atoms: N_12  and  N_16
    6  A    between atoms: N_12  and  C_61
    7  A    between atoms: C_15  and  C_61
    8  A    between atoms: N_16  and  N_20
    9  A    between atoms: C_17  and  N_27
   10  A    between atoms: C_18  and  C_28
   11  A    between atoms: C_23  and  O_50
   12  A    between atoms: C_28  and  C_42
   13  A    between atoms: C_31  and  C_32
   14  A    between atoms: C_31  and  C_59
   15  A    between atoms: C_33  and  C_42
   16  A    between atoms: C_34  and  C_43
   17  A    between atoms: C_34  and  C_52
   18  A    between atoms: N_40  and  N_49
   19  A    between atoms: N_40  and  C_51
   20  A    between atoms: C_51  and  C_54
                            x       y       z     vdW  Elec       q    Type
                         _______ _______ _______ _____ _____    ______ ____

>  <TORSDO>
F 20

$$$$
=
 OpenBabel11042410513D

 63 69  0  0  1  0  0  0  0  0999 V2000
  184.1960  178.3990  139.6370 C   0  0  1  0  0  3  0  0  0  0  0  0
  183.1710  178.7620  138.5400 C   0  0  0  0  0  2  0  0  0  0  0  0
  182.0360  177.8580  138.8340 C   0  0  2  0  0  3  0  0  0  0  0  0
  180.8510  175.9190  138.5840 C   0  0  0  0  0  0  0  0  0  0  0  0
  181.6130  175.7840  139.6270 N   0  0  0  0  0  0  0  0  0  0  0  0
  182.3040  177.0150  139.7800 C   0  0  1  0  0  3  0  0  0  0  0  0
  181.1140  177.2160  137.8590 C   0  0  1  0  0  3  0  0  0  0  0  0
  183.6410  177.1800  140.3860 C   0  0  0  0  0  2  0  0  0  0  0  0
  185.6060  178.1410  139.0770 C   0  0  1  0  0  3  0  0  0  0  0  0
  185.7300  178.3330  137.5450 C   0  0  1  0  0  3  0  0  0  0  0  0
  186.7640  179.2160  137.2210 O   0  0  0  0  0  1  0  0  0  0  0  0
  185.9660  177.0300  136.8490 C   0  0  0  0  0  0  0  0  0  0  0  0
  184.8670  176.0240  136.7860 C   0  0  0  0  0  1  0  0  0  0  0  0
  187.0330  176.8030  136.2980 O   0  0  0  0  0  0  0  0  0  0  0  0
  186.6710  178.8740  139.9030 C   0  0  0  0  0  2  0  0  0  0  0  0
  187.8720  177.9970  140.2470 C   0  0  0  0  0  1  0  0  0  0  0  0
  179.8600  178.0510  137.6450 C   0  0  0  0  0  2  0  0  0  0  0  0
  180.1100  180.3930  138.6210 C   0  0  0  0  0  0  0  0  0  0  0  0
  180.4000  181.7580  138.4330 C   0  0  0  0  0  3  0  0  0  0  0  0
  180.5100  180.0250  136.2540 C   0  0  0  0  0  3  0  0  0  0  0  0
  180.1960  179.5110  137.5190 C   0  0  0  0  0  0  0  0  0  0  0  0
  180.8060  181.3780  136.0830 C   0  0  0  0  0  3  0  0  0  0  0  0
  180.7490  182.2460  137.1760 C   0  0  0  0  0  3  0  0  0  0  0  0
  179.6410  179.9230  139.9370 C   0  0  0  0  0  3  0  0  0  0  0  0
  180.4770  179.7640  140.9160 N   0  0  0  0  0  0  0  0  0  0  0  0
  180.0090  179.3300  142.1600 N   0  0  0  0  0  2  0  0  0  0  0  0
  180.7570  179.5580  143.3150 N   0  0  0  0  0  2  0  0  0  0  0  0
  182.0010  178.8100  143.1700 C   0  0  0  0  0  2  0  0  0  0  0  0
  183.0490  179.3220  144.1580 C   0  0  2  0  0  3  0  0  0  0  0  0
  183.1260  180.7730  144.0970 N   0  0  0  0  0  1  0  0  0  0  0  0
  184.4450  178.7230  143.9360 C   0  0  0  0  0  2  0  0  0  0  0  0
  187.6040  178.0980  145.5630 C   0  0  0  0  0  0  0  0  0  0  0  0
  184.8460  178.2540  146.2130 C   0  0  0  0  0  2  0  0  0  0  0  0
  188.3740  177.2860  144.6620 N   0  0  0  0  0  2  0  0  0  0  0  0
  188.1750  178.7220  146.4930 O   0  0  0  0  0  0  0  0  0  0  0  0
  186.1770  178.0310  145.5460 N   0  0  0  0  0  0  0  0  0  0  0  0
  184.8440  177.6670  144.9610 C   0  0  2  0  0  3  0  0  0  0  0  0
  192.0490  177.4600  142.8500 C   0  0  1  0  0  3  0  0  0  0  0  0
  189.8330  177.1160  144.7510 C   0  0  2  0  0  0  0  0  0  0  0  0
  190.1360  176.6000  146.1490 C   0  0  0  0  0  1  0  0  0  0  0  0
  191.6420  176.2080  143.6300 C   0  0  0  0  0  2  0  0  0  0  0  0
  191.9060  177.2010  141.3710 C   0  0  0  0  0  1  0  0  0  0  0  0
  190.5420  178.4970  144.6150 C   0  0  0  0  0  2  0  0  0  0  0  0
  191.1900  178.6730  143.2340 C   0  0  0  0  0  2  0  0  0  0  0  0
  190.2390  176.1590  143.7810 O   0  0  0  0  0  0  0  0  0  0  0  0
  180.1260  174.7570  137.9770 C   0  0  0  0  0  2  0  0  0  0  0  0
  179.5480  173.5310  135.8880 C   0  0  0  0  0  2  0  0  0  0  0  0
  179.6830  171.2260  136.8370 C   0  0  0  0  0  1  0  0  0  0  0  0
  181.8470  173.9770  136.3670 C   0  0  1  0  0  3  0  0  0  0  0  0
  180.3210  172.2290  135.8890 C   0  0  2  0  0  3  0  0  0  0  0  0
  180.4640  174.5660  136.5000 C   0  0  2  0  0  3  0  0  0  0  0  0
  181.6970  172.5040  136.3070 N   0  0  0  0  0  0  0  0  0  0  0  0
  181.6110  175.4870  134.7400 C   0  0  0  0  0  1  0  0  0  0  0  0
  182.4750  174.5010  135.2270 O   0  0  0  0  0  0  0  0  0  0  0  0
  182.5530  171.9510  135.3360 N   0  0  0  0  0  2  0  0  0  0  0  0
  183.3830  170.9530  136.0040 C   0  0  0  0  0  2  0  0  0  0  0  0
  186.5230  172.5620  137.1420 C   0  0  0  0  0  2  0  0  0  0  0  0
  187.8320  172.4370  136.3630 C   0  0  0  0  0  2  0  0  0  0  0  0
  187.0000  170.5490  135.0370 O   0  0  0  0  0  0  0  0  0  0  0  0
  187.6680  171.8100  134.9740 C   0  0  0  0  0  2  0  0  0  0  0  0
  185.2960  172.6630  136.2290 C   0  0  0  0  0  2  0  0  0  0  0  0
  185.6340  170.3690  135.3110 C   0  0  0  0  0  3  0  0  0  0  0  0
  184.8240  171.2990  135.8300 C   0  0  0  0  0  0  0  0  0  0  0  0
  1  9  1  6  0  0  0
  1  8  1  0  0  0  0
  2  1  1  0  0  0  0
  3  2  1  6  0  0  0
  3  6  1  0  0  0  0
  4  5  2  0  0  0  0
  5  6  1  0  0  0  0
  6  8  1  6  0  0  0
  7 17  1  1  0  0  0
  7  4  1  0  0  0  0
  7  3  1  0  0  0  0
  9 15  1  1  0  0  0
 10 11  1  1  0  0  0
 10  9  1  0  0  0  0
 12 10  1  0  0  0  0
 13 12  1  0  0  0  0
 14 12  2  0  0  0  0
 15 16  1  0  0  0  0
 18 24  1  0  0  0  0
 19 18  1  0  0  0  0
 20 21  1  0  0  0  0
 21 17  1  0  0  0  0
 21 18  2  0  0  0  0
 22 20  2  0  0  0  0
 22 23  1  0  0  0  0
 23 19  2  0  0  0  0
 24 25  2  0  0  0  0
 25 26  1  0  0  0  0
 26 27  1  0  0  0  0
 28 27  1  0  0  0  0
 28 29  1  0  0  0  0
 29 30  1  6  0  0  0
 31 29  1  0  0  0  0
 32 35  2  0  0  0  0
 34 39  1  0  0  0  0
 34 32  1  0  0  0  0
 36 32  1  0  0  0  0
 36 33  1  0  0  0  0
 37 31  1  6  0  0  0
 37 36  1  0  0  0  0
 37 33  1  0  0  0  0
 38 42  1  6  0  0  0
 38 44  1  0  0  0  0
 38 41  1  0  0  0  0
 39 40  1  1  0  0  0
 41 45  1  0  0  0  0
 43 39  1  0  0  0  0
 44 43  1  0  0  0  0
 45 39  1  0  0  0  0
 46  4  1  0  0  0  0
 47 50  1  0  0  0  0
 47 51  1  0  0  0  0
 49 54  1  6  0  0  0
 49 51  1  0  0  0  0
 50 52  1  0  0  0  0
 50 48  1  1  0  0  0
 51 46  1  1  0  0  0
 52 49  1  0  0  0  0
 53 54  1  0  0  0  0
 55 56  1  0  0  0  0
 55 52  1  0  0  0  0
 58 57  1  0  0  0  0
 59 62  1  0  0  0  0
 60 59  1  0  0  0  0
 60 58  1  0  0  0  0
 61 57  1  0  0  0  0
 62 63  2  0  0  0  0
 63 56  1  0  0  0  0
 63 61  1  0  0  0  0
M  END
>  <MODEL>
4

>  <REMARK>
 VINA RESULT:      -5.3      2.365      9.051
  Name = 
  20 active torsions:
  status: ('A' for Active; 'I' for Inactive)
    1  A    between atoms: C_1  and  C_15
    2  A    between atoms: C_1  and  C_41
    3  A    between atoms: C_6  and  C_14
    4  A    between atoms: C_8  and  C_28
    5  A    between atoms: N_12  and  N_16
    6  A    between atoms: N_12  and  C_61
    7  A    between atoms: C_15  and  C_61
    8  A    between atoms: N_16  and  N_20
    9  A    between atoms: C_17  and  N_27
   10  A    between atoms: C_18  and  C_28
   11  A    between atoms: C_23  and  O_50
   12  A    between atoms: C_28  and  C_42
   13  A    between atoms: C_31  and  C_32
   14  A    between atoms: C_31  and  C_59
   15  A    between atoms: C_33  and  C_42
   16  A    between atoms: C_34  and  C_43
   17  A    between atoms: C_34  and  C_52
   18  A    between atoms: N_40  and  N_49
   19  A    between atoms: N_40  and  C_51
   20  A    between atoms: C_51  and  C_54
                            x       y       z     vdW  Elec       q    Type
                         _______ _______ _______ _____ _____    ______ ____

>  <TORSDO>
F 20

$$$$
=
 OpenBabel11042410513D

 63 69  0  0  1  0  0  0  0  0999 V2000
  187.4240  173.1200  136.4320 C   0  0  1  0  0  3  0  0  0  0  0  0
  187.2610  174.5190  135.7990 C   0  0  0  0  0  2  0  0  0  0  0  0
  186.0120  175.0190  136.4170 C   0  0  2  0  0  3  0  0  0  0  0  0
  183.7490  175.3430  136.4770 C   0  0  0  0  0  0  0  0  0  0  0  0
  184.0140  174.2750  137.1680 N   0  0  0  0  0  0  0  0  0  0  0  0
  185.4250  174.1230  137.1470 C   0  0  1  0  0  3  0  0  0  0  0  0
  184.9790  175.8900  135.7930 C   0  0  1  0  0  3  0  0  0  0  0  0
  186.1530  172.8430  137.2470 C   0  0  0  0  0  2  0  0  0  0  0  0
  187.6940  172.0180  135.3910 C   0  0  1  0  0  3  0  0  0  0  0  0
  189.0290  171.2600  135.5980 C   0  0  1  0  0  3  0  0  0  0  0  0
  188.9580  169.9540  135.1030 O   0  0  0  0  0  1  0  0  0  0  0  0
  190.1680  171.9690  134.9380 C   0  0  0  0  0  0  0  0  0  0  0  0
  191.4270  171.2230  134.6500 C   0  0  0  0  0  1  0  0  0  0  0  0
  190.0600  173.1380  134.5950 O   0  0  0  0  0  0  0  0  0  0  0  0
  186.4670  171.1170  135.2070 C   0  0  0  0  0  2  0  0  0  0  0  0
  185.2480  171.8650  134.6740 C   0  0  0  0  0  1  0  0  0  0  0  0
  185.2320  177.3590  136.0960 C   0  0  0  0  0  2  0  0  0  0  0  0
  186.8490  177.9880  137.9640 C   0  0  0  0  0  0  0  0  0  0  0  0
  188.1710  178.2070  138.3990 C   0  0  0  0  0  3  0  0  0  0  0  0
  187.7080  177.4400  135.7600 C   0  0  0  0  0  3  0  0  0  0  0  0
  186.6210  177.5700  136.6330 C   0  0  0  0  0  0  0  0  0  0  0  0
  189.0150  177.6490  136.2050 C   0  0  0  0  0  3  0  0  0  0  0  0
  189.2450  178.0350  137.5280 C   0  0  0  0  0  3  0  0  0  0  0  0
  185.7280  178.2790  138.8740 C   0  0  0  0  0  3  0  0  0  0  0  0
  185.9090  179.0060  139.9340 N   0  0  0  0  0  0  0  0  0  0  0  0
  184.8270  179.2800  140.7760 N   0  0  0  0  0  2  0  0  0  0  0  0
  184.8260  178.8240  142.0940 N   0  0  0  0  0  2  0  0  0  0  0  0
  183.5210  179.1520  142.6570 C   0  0  0  0  0  2  0  0  0  0  0  0
  183.4010  178.6060  144.0800 C   0  0  2  0  0  3  0  0  0  0  0  0
  182.2720  179.2220  144.7590 N   0  0  0  0  0  1  0  0  0  0  0  0
  184.6730  178.7970  144.9180 C   0  0  0  0  0  2  0  0  0  0  0  0
  188.0080  177.8840  145.9470 C   0  0  0  0  0  0  0  0  0  0  0  0
  185.3450  177.7360  146.9140 C   0  0  0  0  0  2  0  0  0  0  0  0
  188.6750  177.3860  144.7750 N   0  0  0  0  0  2  0  0  0  0  0  0
  188.6790  178.2510  146.9460 O   0  0  0  0  0  0  0  0  0  0  0  0
  186.5900  177.7630  146.0690 N   0  0  0  0  0  0  0  0  0  0  0  0
  185.2020  177.5180  145.5560 C   0  0  2  0  0  3  0  0  0  0  0  0
  192.0490  177.7260  142.4690 C   0  0  1  0  0  3  0  0  0  0  0  0
  190.1360  177.2600  144.6520 C   0  0  2  0  0  0  0  0  0  0  0  0
  190.6500  176.7180  145.9770 C   0  0  0  0  0  1  0  0  0  0  0  0
  191.7920  176.4420  143.2590 C   0  0  0  0  0  2  0  0  0  0  0  0
  191.7040  177.5020  141.0170 C   0  0  0  0  0  1  0  0  0  0  0  0
  190.7800  178.6670  144.4600 C   0  0  0  0  0  2  0  0  0  0  0  0
  191.2190  178.9010  143.0070 C   0  0  0  0  0  2  0  0  0  0  0  0
  190.4270  176.3430  143.6060 O   0  0  0  0  0  0  0  0  0  0  0  0
  182.3490  175.7100  136.0920 C   0  0  0  0  0  2  0  0  0  0  0  0
  179.9690  175.6590  136.8240 C   0  0  0  0  0  2  0  0  0  0  0  0
  179.1640  177.5290  135.3780 C   0  0  0  0  0  1  0  0  0  0  0  0
  181.5040  177.0770  137.9840 C   0  0  1  0  0  3  0  0  0  0  0  0
  179.4500  177.0820  136.8040 C   0  0  2  0  0  3  0  0  0  0  0  0
  181.4040  175.7400  137.2920 C   0  0  2  0  0  3  0  0  0  0  0  0
  180.4600  177.9540  137.4060 N   0  0  0  0  0  0  0  0  0  0  0  0
  182.6470  176.6940  139.8640 C   0  0  0  0  0  1  0  0  0  0  0  0
  181.3560  176.9030  139.3690 O   0  0  0  0  0  0  0  0  0  0  0  0
  179.8230  178.7070  138.4110 N   0  0  0  0  0  2  0  0  0  0  0  0
  178.9320  179.6550  137.7480 C   0  0  0  0  0  2  0  0  0  0  0  0
  181.8150  181.9210  138.2940 C   0  0  0  0  0  2  0  0  0  0  0  0
  181.8500  183.3430  137.7370 C   0  0  0  0  0  2  0  0  0  0  0  0
  180.0040  182.9070  136.1820 O   0  0  0  0  0  0  0  0  0  0  0  0
  180.5100  183.8170  137.1600 C   0  0  0  0  0  2  0  0  0  0  0  0
  180.4160  181.5010  138.7600 C   0  0  0  0  0  2  0  0  0  0  0  0
  179.4710  181.6360  136.4560 C   0  0  0  0  0  3  0  0  0  0  0  0
  179.6150  180.9740  137.6090 C   0  0  0  0  0  0  0  0  0  0  0  0
  1  9  1  6  0  0  0
  1  8  1  0  0  0  0
  2  1  1  0  0  0  0
  3  2  1  6  0  0  0
  3  6  1  0  0  0  0
  4  5  2  0  0  0  0
  6  5  1  0  0  0  0
  6  8  1  6  0  0  0
  7 17  1  1  0  0  0
  7  3  1  0  0  0  0
  7  4  1  0  0  0  0
  9 15  1  1  0  0  0
  9 10  1  0  0  0  0
 10 11  1  6  0  0  0
 12 10  1  0  0  0  0
 13 12  1  0  0  0  0
 14 12  2  0  0  0  0
 16 15  1  0  0  0  0
 17 21  1  0  0  0  0
 18 19  1  0  0  0  0
 18 24  1  0  0  0  0
 20 22  2  0  0  0  0
 20 21  1  0  0  0  0
 21 18  2  0  0  0  0
 22 23  1  0  0  0  0
 23 19  2  0  0  0  0
 24 25  2  0  0  0  0
 25 26  1  0  0  0  0
 26 27  1  0  0  0  0
 27 28  1  0  0  0  0
 28 29  1  0  0  0  0
 29 30  1  1  0  0  0
 29 31  1  0  0  0  0
 32 36  1  0  0  0  0
 32 35  2  0  0  0  0
 34 32  1  0  0  0  0
 36 33  1  0  0  0  0
 37 31  1  6  0  0  0
 37 36  1  0  0  0  0
 37 33  1  0  0  0  0
 38 42  1  6  0  0  0
 38 44  1  0  0  0  0
 38 41  1  0  0  0  0
 39 34  1  0  0  0  0
 39 40  1  1  0  0  0
 41 45  1  0  0  0  0
 43 39  1  0  0  0  0
 44 43  1  0  0  0  0
 45 39  1  0  0  0  0
 46  4  1  0  0  0  0
 47 51  1  0  0  0  0
 49 54  1  1  0  0  0
 50 48  1  6  0  0  0
 50 47  1  0  0  0  0
 50 52  1  0  0  0  0
 51 46  1  6  0  0  0
 51 49  1  0  0  0  0
 52 49  1  0  0  0  0
 52 55  1  0  0  0  0
 54 53  1  0  0  0  0
 56 55  1  0  0  0  0
 57 61  1  0  0  0  0
 58 57  1  0  0  0  0
 59 62  1  0  0  0  0
 59 60  1  0  0  0  0
 60 58  1  0  0  0  0
 62 63  2  0  0  0  0
 63 56  1  0  0  0  0
 63 61  1  0  0  0  0
M  END
>  <MODEL>
5

>  <REMARK>
 VINA RESULT:      -5.3      2.668     10.176
  Name = 
  20 active torsions:
  status: ('A' for Active; 'I' for Inactive)
    1  A    between atoms: C_1  and  C_15
    2  A    between atoms: C_1  and  C_41
    3  A    between atoms: C_6  and  C_14
    4  A    between atoms: C_8  and  C_28
    5  A    between atoms: N_12  and  N_16
    6  A    between atoms: N_12  and  C_61
    7  A    between atoms: C_15  and  C_61
    8  A    between atoms: N_16  and  N_20
    9  A    between atoms: C_17  and  N_27
   10  A    between atoms: C_18  and  C_28
   11  A    between atoms: C_23  and  O_50
   12  A    between atoms: C_28  and  C_42
   13  A    between atoms: C_31  and  C_32
   14  A    between atoms: C_31  and  C_59
   15  A    between atoms: C_33  and  C_42
   16  A    between atoms: C_34  and  C_43
   17  A    between atoms: C_34  and  C_52
   18  A    between atoms: N_40  and  N_49
   19  A    between atoms: N_40  and  C_51
   20  A    between atoms: C_51  and  C_54
                            x       y       z     vdW  Elec       q    Type
                         _______ _______ _______ _____ _____    ______ ____

>  <TORSDO>
F 20

$$$$
=
 OpenBabel11042410513D

 63 69  0  0  1  0  0  0  0  0999 V2000
  193.2720  174.5450  136.6730 C   0  0  1  0  0  3  0  0  0  0  0  0
  192.7630  175.8580  136.0410 C   0  0  0  0  0  2  0  0  0  0  0  0
  191.3190  175.8480  136.3710 C   0  0  2  0  0  3  0  0  0  0  0  0
  189.1250  175.3810  135.9270 C   0  0  0  0  0  0  0  0  0  0  0  0
  189.5990  174.4070  136.6440 N   0  0  0  0  0  0  0  0  0  0  0  0
  190.9470  174.7440  136.9370 C   0  0  1  0  0  3  0  0  0  0  0  0
  190.1990  176.3710  135.5450 C   0  0  1  0  0  3  0  0  0  0  0  0
  192.0400  173.7810  137.1790 C   0  0  0  0  0  2  0  0  0  0  0  0
  194.1180  173.7010  135.7030 C   0  0  1  0  0  3  0  0  0  0  0  0
  195.5800  173.4740  136.1630 C   0  0  1  0  0  3  0  0  0  0  0  0
  196.4280  174.4770  135.6850 O   0  0  0  0  0  1  0  0  0  0  0  0
  195.6790  173.4220  137.6550 C   0  0  0  0  0  0  0  0  0  0  0  0
  195.2530  172.1870  138.3740 C   0  0  0  0  0  1  0  0  0  0  0  0
  196.1460  174.3630  138.2820 O   0  0  0  0  0  0  0  0  0  0  0  0
  193.3730  172.4260  135.2850 C   0  0  0  0  0  2  0  0  0  0  0  0
  194.3110  171.2810  134.9100 C   0  0  0  0  0  1  0  0  0  0  0  0
  189.8530  177.8050  135.9180 C   0  0  0  0  0  2  0  0  0  0  0  0
  188.4060  177.8320  138.0170 C   0  0  0  0  0  0  0  0  0  0  0  0
  187.1270  177.8650  138.6050 C   0  0  0  0  0  3  0  0  0  0  0  0
  187.3560  177.8970  135.8280 C   0  0  0  0  0  3  0  0  0  0  0  0
  188.5190  177.8790  136.6080 C   0  0  0  0  0  0  0  0  0  0  0  0
  186.0940  177.9400  136.4230 C   0  0  0  0  0  3  0  0  0  0  0  0
  185.9800  177.9230  137.8150 C   0  0  0  0  0  3  0  0  0  0  0  0
  189.5950  177.6650  138.8720 C   0  0  0  0  0  3  0  0  0  0  0  0
  189.4740  177.2540  140.0960 N   0  0  0  0  0  0  0  0  0  0  0  0
  190.6170  177.0910  140.8850 N   0  0  0  0  0  2  0  0  0  0  0  0
  190.6320  177.5360  142.2060 N   0  0  0  0  0  2  0  0  0  0  0  0
  191.8790  177.0640  142.8000 C   0  0  0  0  0  2  0  0  0  0  0  0
  191.5970  176.2970  144.0920 C   0  0  2  0  0  3  0  0  0  0  0  0
  192.0590  174.9240  143.9690 N   0  0  0  0  0  1  0  0  0  0  0  0
  190.1170  176.3090  144.5010 C   0  0  0  0  0  2  0  0  0  0  0  0
  186.8450  177.8280  144.4840 C   0  0  0  0  0  0  0  0  0  0  0  0
  189.0000  177.3850  146.2770 C   0  0  0  0  0  2  0  0  0  0  0  0
  186.7170  178.5080  143.2240 N   0  0  0  0  0  2  0  0  0  0  0  0
  185.8210  177.5570  145.1610 O   0  0  0  0  0  0  0  0  0  0  0  0
  188.1340  177.6520  145.0750 N   0  0  0  0  0  0  0  0  0  0  0  0
  189.6340  177.6360  145.0740 C   0  0  2  0  0  3  0  0  0  0  0  0
  182.7010  179.1860  143.7070 C   0  0  1  0  0  3  0  0  0  0  0  0
  185.4320  178.9330  142.6470 C   0  0  2  0  0  0  0  0  0  0  0  0
  185.6800  179.2290  141.1760 C   0  0  0  0  0  1  0  0  0  0  0  0
  183.1960  178.3480  142.5270 C   0  0  0  0  0  2  0  0  0  0  0  0
  182.1500  178.2750  144.7760 C   0  0  0  0  0  1  0  0  0  0  0  0
  184.9650  180.2680  143.3030 C   0  0  0  0  0  2  0  0  0  0  0  0
  183.8250  180.0430  144.3070 C   0  0  0  0  0  2  0  0  0  0  0  0
  184.5000  177.8680  142.7780 O   0  0  0  0  0  0  0  0  0  0  0  0
  187.7960  175.2870  135.2440 C   0  0  0  0  0  2  0  0  0  0  0  0
  185.8640  173.8210  134.6760 C   0  0  0  0  0  2  0  0  0  0  0  0
  184.1030  175.5880  134.7630 C   0  0  0  0  0  1  0  0  0  0  0  0
  186.4410  174.1350  136.9750 C   0  0  1  0  0  3  0  0  0  0  0  0
  184.6570  174.3380  135.4300 C   0  0  2  0  0  3  0  0  0  0  0  0
  187.0470  174.0040  135.6000 C   0  0  2  0  0  3  0  0  0  0  0  0
  185.0600  174.6440  136.8030 N   0  0  0  0  0  0  0  0  0  0  0  0
  187.6440  172.2640  137.1730 C   0  0  0  0  0  1  0  0  0  0  0  0
  186.4800  172.8920  137.6270 O   0  0  0  0  0  0  0  0  0  0  0  0
  184.1680  173.9770  137.6650 N   0  0  0  0  0  2  0  0  0  0  0  0
  182.8470  174.0210  137.0440 C   0  0  0  0  0  2  0  0  0  0  0  0
  182.3260  177.3050  138.6830 C   0  0  0  0  0  2  0  0  0  0  0  0
  180.9600  177.7470  139.2060 C   0  0  0  0  0  2  0  0  0  0  0  0
  179.7790  176.0160  137.9310 O   0  0  0  0  0  0  0  0  0  0  0  0
  179.9090  176.6310  139.2140 C   0  0  0  0  0  2  0  0  0  0  0  0
  182.5810  175.8060  138.8810 C   0  0  0  0  0  2  0  0  0  0  0  0
  180.7260  175.1600  137.3440 C   0  0  0  0  0  3  0  0  0  0  0  0
  181.9930  175.0190  137.7510 C   0  0  0  0  0  0  0  0  0  0  0  0
  1  9  1  6  0  0  0
  1  8  1  0  0  0  0
  2  1  1  0  0  0  0
  3  2  1  6  0  0  0
  3  6  1  0  0  0  0
  4  5  2  0  0  0  0
  5  6  1  0  0  0  0
  6  8  1  6  0  0  0
  7 17  1  1  0  0  0
  7  4  1  0  0  0  0
  7  3  1  0  0  0  0
  9 15  1  1  0  0  0
  9 10  1  0  0  0  0
 10 11  1  1  0  0  0
 10 12  1  0  0  0  0
 12 14  2  0  0  0  0
 12 13  1  0  0  0  0
 16 15  1  0  0  0  0
 17 21  1  0  0  0  0
 18 19  1  0  0  0  0
 18 24  1  0  0  0  0
 20 22  2  0  0  0  0
 20 21  1  0  0  0  0
 21 18  2  0  0  0  0
 22 23  1  0  0  0  0
 23 19  2  0  0  0  0
 24 25  2  0  0  0  0
 25 26  1  0  0  0  0
 26 27  1  0  0  0  0
 27 28  1  0  0  0  0
 28 29  1  0  0  0  0
 29 30  1  6  0  0  0
 29 31  1  0  0  0  0
 32 36  1  0  0  0  0
 32 35  2  0  0  0  0
 34 32  1  0  0  0  0
 36 33  1  0  0  0  0
 37 31  1  6  0  0  0
 37 36  1  0  0  0  0
 37 33  1  0  0  0  0
 38 44  1  0  0  0  0
 38 42  1  1  0  0  0
 39 40  1  6  0  0  0
 39 45  1  0  0  0  0
 39 34  1  0  0  0  0
 39 43  1  0  0  0  0
 41 45  1  0  0  0  0
 41 38  1  0  0  0  0
 43 44  1  0  0  0  0
 46  4  1  0  0  0  0
 47 50  1  0  0  0  0
 47 51  1  0  0  0  0
 49 54  1  6  0  0  0
 50 48  1  6  0  0  0
 50 52  1  0  0  0  0
 51 46  1  6  0  0  0
 51 49  1  0  0  0  0
 52 49  1  0  0  0  0
 52 55  1  0  0  0  0
 53 54  1  0  0  0  0
 56 55  1  0  0  0  0
 56 63  1  0  0  0  0
 57 61  1  0  0  0  0
 57 58  1  0  0  0  0
 58 60  1  0  0  0  0
 59 60  1  0  0  0  0
 62 63  2  0  0  0  0
 62 59  1  0  0  0  0
 63 61  1  0  0  0  0
M  END
>  <MODEL>
6

>  <REMARK>
 VINA RESULT:      -5.1      3.149      8.618
  Name = 
  20 active torsions:
  status: ('A' for Active; 'I' for Inactive)
    1  A    between atoms: C_1  and  C_15
    2  A    between atoms: C_1  and  C_41
    3  A    between atoms: C_6  and  C_14
    4  A    between atoms: C_8  and  C_28
    5  A    between atoms: N_12  and  N_16
    6  A    between atoms: N_12  and  C_61
    7  A    between atoms: C_15  and  C_61
    8  A    between atoms: N_16  and  N_20
    9  A    between atoms: C_17  and  N_27
   10  A    between atoms: C_18  and  C_28
   11  A    between atoms: C_23  and  O_50
   12  A    between atoms: C_28  and  C_42
   13  A    between atoms: C_31  and  C_32
   14  A    between atoms: C_31  and  C_59
   15  A    between atoms: C_33  and  C_42
   16  A    between atoms: C_34  and  C_43
   17  A    between atoms: C_34  and  C_52
   18  A    between atoms: N_40  and  N_49
   19  A    between atoms: N_40  and  C_51
   20  A    between atoms: C_51  and  C_54
                            x       y       z     vdW  Elec       q    Type
                         _______ _______ _______ _____ _____    ______ ____

>  <TORSDO>
F 20

$$$$
=
 OpenBabel11042410513D

 63 69  0  0  1  0  0  0  0  0999 V2000
  183.7570  172.4050  136.6320 C   0  0  1  0  0  3  0  0  0  0  0  0
  183.8200  173.6050  135.6620 C   0  0  0  0  0  2  0  0  0  0  0  0
  183.6430  174.7680  136.5610 C   0  0  2  0  0  3  0  0  0  0  0  0
  182.3870  176.3520  137.6300 C   0  0  0  0  0  0  0  0  0  0  0  0
  182.5650  175.3650  138.4560 N   0  0  0  0  0  0  0  0  0  0  0  0
  183.3800  174.4180  137.7810 C   0  0  1  0  0  3  0  0  0  0  0  0
  182.9440  176.0460  136.2600 C   0  0  1  0  0  3  0  0  0  0  0  0
  183.3740  172.9600  138.0110 C   0  0  0  0  0  2  0  0  0  0  0  0
  182.7900  171.3040  136.1620 C   0  0  1  0  0  3  0  0  0  0  0  0
  181.5260  171.8320  135.4390 C   0  0  1  0  0  3  0  0  0  0  0  0
  180.9690  170.8590  134.6040 O   0  0  0  0  0  1  0  0  0  0  0  0
  180.4880  172.2850  136.4160 C   0  0  0  0  0  0  0  0  0  0  0  0
  179.6740  171.2690  137.1450 C   0  0  0  0  0  1  0  0  0  0  0  0
  180.3320  173.4750  136.6530 O   0  0  0  0  0  0  0  0  0  0  0  0
  183.5380  170.1930  135.4150 C   0  0  0  0  0  2  0  0  0  0  0  0
  185.0510  170.2550  135.6070 C   0  0  0  0  0  1  0  0  0  0  0  0
  183.9110  177.1060  135.7540 C   0  0  0  0  0  2  0  0  0  0  0  0
  186.2070  177.0000  136.8570 C   0  0  0  0  0  0  0  0  0  0  0  0
  187.0640  177.3790  137.9090 C   0  0  0  0  0  3  0  0  0  0  0  0
  184.4420  178.3220  137.8730 C   0  0  0  0  0  3  0  0  0  0  0  0
  184.8860  177.5050  136.8270 C   0  0  0  0  0  0  0  0  0  0  0  0
  185.3030  178.6990  138.9050 C   0  0  0  0  0  3  0  0  0  0  0  0
  186.6170  178.2250  138.9220 C   0  0  0  0  0  3  0  0  0  0  0  0
  186.6720  176.0220  135.8580 C   0  0  0  0  0  3  0  0  0  0  0  0
  187.4340  175.0320  136.2080 N   0  0  0  0  0  0  0  0  0  0  0  0
  187.8520  174.1090  135.2450 N   0  0  0  0  0  2  0  0  0  0  0  0
  188.9420  173.2740  135.4940 N   0  0  0  0  0  2  0  0  0  0  0  0
  190.1450  174.0770  135.3020 C   0  0  0  0  0  2  0  0  0  0  0  0
  190.0160  175.4130  136.0320 C   0  0  2  0  0  3  0  0  0  0  0  0
  190.6090  176.4770  135.2370 N   0  0  0  0  0  1  0  0  0  0  0  0
  190.6410  175.4080  137.4340 C   0  0  0  0  0  2  0  0  0  0  0  0
  190.8810  176.7890  140.7580 C   0  0  0  0  0  0  0  0  0  0  0  0
  192.4190  176.6380  138.3780 C   0  0  0  0  0  2  0  0  0  0  0  0
  189.5820  177.3150  141.0780 N   0  0  0  0  0  2  0  0  0  0  0  0
  191.7100  176.5580  141.6760 O   0  0  0  0  0  0  0  0  0  0  0  0
  191.3170  176.7320  139.3990 N   0  0  0  0  0  0  0  0  0  0  0  0
  191.1240  176.7730  137.9120 C   0  0  2  0  0  3  0  0  0  0  0  0
  190.4780  177.7540  145.0560 C   0  0  1  0  0  3  0  0  0  0  0  0
  189.1330  177.6210  142.4450 C   0  0  2  0  0  0  0  0  0  0  0  0
  187.6300  177.8490  142.3790 C   0  0  0  0  0  1  0  0  0  0  0  0
  189.2920  176.8850  144.6330 C   0  0  0  0  0  2  0  0  0  0  0  0
  191.6450  176.8690  145.4210 C   0  0  0  0  0  1  0  0  0  0  0  0
  189.7710  178.9570  142.9320 C   0  0  0  0  0  2  0  0  0  0  0  0
  190.9060  178.7150  143.9380 C   0  0  0  0  0  2  0  0  0  0  0  0
  189.4190  176.5060  143.2780 O   0  0  0  0  0  0  0  0  0  0  0  0
  181.4030  177.4470  137.9050 C   0  0  0  0  0  2  0  0  0  0  0  0
  179.2360  178.0850  138.9520 C   0  0  0  0  0  2  0  0  0  0  0  0
  179.9810  180.2750  139.8900 C   0  0  0  0  0  1  0  0  0  0  0  0
  180.8310  176.8660  140.2500 C   0  0  1  0  0  3  0  0  0  0  0  0
  179.5450  178.8550  140.2180 C   0  0  2  0  0  3  0  0  0  0  0  0
  180.2870  177.0040  138.8490 C   0  0  2  0  0  3  0  0  0  0  0  0
  180.6130  178.1600  140.9380 N   0  0  0  0  0  0  0  0  0  0  0  0
  179.4830  175.1200  139.9040 C   0  0  0  0  0  1  0  0  0  0  0  0
  180.1950  175.7970  140.8990 O   0  0  0  0  0  0  0  0  0  0  0  0
  180.1710  177.9570  142.2590 N   0  0  0  0  0  2  0  0  0  0  0  0
  180.4940  179.1640  143.0160 C   0  0  0  0  0  2  0  0  0  0  0  0
  183.4050  178.2890  145.1390 C   0  0  0  0  0  2  0  0  0  0  0  0
  184.8370  178.6500  144.7470 C   0  0  0  0  0  2  0  0  0  0  0  0
  184.2110  179.1050  142.4190 O   0  0  0  0  0  0  0  0  0  0  0  0
  184.9300  179.6020  143.5490 C   0  0  0  0  0  2  0  0  0  0  0  0
  182.3910  179.3700  144.7450 C   0  0  0  0  0  2  0  0  0  0  0  0
  182.8110  179.0540  142.3080 C   0  0  0  0  0  3  0  0  0  0  0  0
  181.9530  179.1880  143.3250 C   0  0  0  0  0  0  0  0  0  0  0  0
  1  9  1  6  0  0  0
  1  8  1  0  0  0  0
  2  1  1  0  0  0  0
  3  2  1  6  0  0  0
  3  6  1  0  0  0  0
  4 46  1  0  0  0  0
  4  5  2  0  0  0  0
  6  8  1  6  0  0  0
  6  5  1  0  0  0  0
  7 17  1  1  0  0  0
  7  3  1  0  0  0  0
  7  4  1  0  0  0  0
  9 15  1  6  0  0  0
 10 11  1  1  0  0  0
 10  9  1  0  0  0  0
 10 12  1  0  0  0  0
 12 14  2  0  0  0  0
 12 13  1  0  0  0  0
 15 16  1  0  0  0  0
 17 21  1  0  0  0  0
 18 19  1  0  0  0  0
 19 23  2  0  0  0  0
 20 22  2  0  0  0  0
 21 18  2  0  0  0  0
 21 20  1  0  0  0  0
 22 23  1  0  0  0  0
 24 25  2  0  0  0  0
 24 18  1  0  0  0  0
 26 27  1  0  0  0  0
 26 25  1  0  0  0  0
 28 27  1  0  0  0  0
 28 29  1  0  0  0  0
 29 30  1  6  0  0  0
 29 31  1  0  0  0  0
 32 34  1  0  0  0  0
 32 35  2  0  0  0  0
 33 36  1  0  0  0  0
 34 39  1  0  0  0  0
 36 32  1  0  0  0  0
 37 31  1  6  0  0  0
 37 33  1  0  0  0  0
 37 36  1  0  0  0  0
 38 42  1  6  0  0  0
 39 40  1  6  0  0  0
 39 43  1  0  0  0  0
 39 45  1  0  0  0  0
 41 38  1  0  0  0  0
 43 44  1  0  0  0  0
 44 38  1  0  0  0  0
 45 41  1  0  0  0  0
 47 50  1  0  0  0  0
 49 54  1  1  0  0  0
 49 52  1  0  0  0  0
 50 48  1  6  0  0  0
 50 52  1  0  0  0  0
 51 46  1  6  0  0  0
 51 47  1  0  0  0  0
 51 49  1  0  0  0  0
 52 55  1  0  0  0  0
 53 54  1  0  0  0  0
 55 56  1  0  0  0  0
 56 63  1  0  0  0  0
 58 57  1  0  0  0  0
 59 60  1  0  0  0  0
 60 58  1  0  0  0  0
 61 57  1  0  0  0  0
 62 59  1  0  0  0  0
 62 63  2  0  0  0  0
 63 61  1  0  0  0  0
M  END
>  <MODEL>
7

>  <REMARK>
 VINA RESULT:      -4.6      2.481     10.324
  Name = 
  20 active torsions:
  status: ('A' for Active; 'I' for Inactive)
    1  A    between atoms: C_1  and  C_15
    2  A    between atoms: C_1  and  C_41
    3  A    between atoms: C_6  and  C_14
    4  A    between atoms: C_8  and  C_28
    5  A    between atoms: N_12  and  N_16
    6  A    between atoms: N_12  and  C_61
    7  A    between atoms: C_15  and  C_61
    8  A    between atoms: N_16  and  N_20
    9  A    between atoms: C_17  and  N_27
   10  A    between atoms: C_18  and  C_28
   11  A    between atoms: C_23  and  O_50
   12  A    between atoms: C_28  and  C_42
   13  A    between atoms: C_31  and  C_32
   14  A    between atoms: C_31  and  C_59
   15  A    between atoms: C_33  and  C_42
   16  A    between atoms: C_34  and  C_43
   17  A    between atoms: C_34  and  C_52
   18  A    between atoms: N_40  and  N_49
   19  A    between atoms: N_40  and  C_51
   20  A    between atoms: C_51  and  C_54
                            x       y       z     vdW  Elec       q    Type
                         _______ _______ _______ _____ _____    ______ ____

>  <TORSDO>
F 20

$$$$
=
 OpenBabel11042410513D

 63 69  0  0  1  0  0  0  0  0999 V2000
  183.8150  178.3440  140.3510 C   0  0  1  0  0  3  0  0  0  0  0  0
  182.7010  178.9000  139.4380 C   0  0  0  0  0  2  0  0  0  0  0  0
  181.7950  177.7400  139.2760 C   0  0  2  0  0  3  0  0  0  0  0  0
  181.0430  175.8700  138.1950 C   0  0  0  0  0  0  0  0  0  0  0  0
  181.8510  175.4840  139.1360 N   0  0  0  0  0  0  0  0  0  0  0  0
  182.2680  176.6600  139.8140 C   0  0  1  0  0  3  0  0  0  0  0  0
  181.0000  177.3740  138.0720 C   0  0  1  0  0  3  0  0  0  0  0  0
  183.5580  176.8390  140.5100 C   0  0  0  0  0  2  0  0  0  0  0  0
  185.2290  178.6350  139.8170 C   0  0  1  0  0  3  0  0  0  0  0  0
  186.2660  178.9790  140.9150 C   0  0  1  0  0  3  0  0  0  0  0  0
  185.9100  178.4250  142.1480 O   0  0  0  0  0  1  0  0  0  0  0  0
  187.6330  178.5000  140.5430 C   0  0  0  0  0  0  0  0  0  0  0  0
  188.2270  177.3420  141.2730 C   0  0  0  0  0  1  0  0  0  0  0  0
  188.2470  179.0190  139.6220 O   0  0  0  0  0  0  0  0  0  0  0  0
  185.6800  177.5540  138.8260 C   0  0  0  0  0  2  0  0  0  0  0  0
  186.0050  178.1090  137.4420 C   0  0  0  0  0  1  0  0  0  0  0  0
  179.5900  177.9420  138.1420 C   0  0  0  0  0  2  0  0  0  0  0  0
  179.4630  179.9690  139.6830 C   0  0  0  0  0  0  0  0  0  0  0  0
  179.4560  181.3680  139.8460 C   0  0  0  0  0  3  0  0  0  0  0  0
  179.6980  180.2900  137.2880 C   0  0  0  0  0  3  0  0  0  0  0  0
  179.6160  179.4260  138.3870 C   0  0  0  0  0  0  0  0  0  0  0  0
  179.7010  181.6750  137.4630 C   0  0  0  0  0  3  0  0  0  0  0  0
  179.5780  182.2140  138.7460 C   0  0  0  0  0  3  0  0  0  0  0  0
  179.2270  179.1010  140.8500 C   0  0  0  0  0  3  0  0  0  0  0  0
  179.9690  179.2030  141.9100 N   0  0  0  0  0  0  0  0  0  0  0  0
  179.7180  178.3770  143.0100 N   0  0  0  0  0  2  0  0  0  0  0  0
  180.3530  178.6140  144.2290 N   0  0  0  0  0  2  0  0  0  0  0  0
  181.7620  178.2810  144.0460 C   0  0  0  0  0  2  0  0  0  0  0  0
  182.6440  179.4700  144.4250 C   0  0  2  0  0  3  0  0  0  0  0  0
  182.4070  180.5790  143.5140 N   0  0  0  0  0  1  0  0  0  0  0  0
  184.1430  179.1380  144.4520 C   0  0  0  0  0  2  0  0  0  0  0  0
  187.2480  178.1410  145.9940 C   0  0  0  0  0  0  0  0  0  0  0  0
  184.4800  178.2390  146.6070 C   0  0  0  0  0  2  0  0  0  0  0  0
  188.0230  177.4950  144.9710 N   0  0  0  0  0  2  0  0  0  0  0  0
  187.8100  178.5640  147.0370 O   0  0  0  0  0  0  0  0  0  0  0  0
  185.8210  178.1140  145.9360 N   0  0  0  0  0  0  0  0  0  0  0  0
  184.4960  177.8990  145.2660 C   0  0  2  0  0  3  0  0  0  0  0  0
  191.7040  177.6040  143.1660 C   0  0  1  0  0  3  0  0  0  0  0  0
  189.4760  177.2750  145.0550 C   0  0  2  0  0  0  0  0  0  0  0  0
  189.7610  176.7090  146.4380 C   0  0  0  0  0  1  0  0  0  0  0  0
  191.2560  176.3430  143.9080 C   0  0  0  0  0  2  0  0  0  0  0  0
  191.5550  177.3930  141.6800 C   0  0  0  0  0  1  0  0  0  0  0  0
  190.2300  178.6360  144.9610 C   0  0  0  0  0  2  0  0  0  0  0  0
  190.8840  178.8320  143.5850 C   0  0  0  0  0  2  0  0  0  0  0  0
  189.8520  176.3350  144.0580 O   0  0  0  0  0  0  0  0  0  0  0  0
  180.5640  174.9320  137.1300 C   0  0  0  0  0  2  0  0  0  0  0  0
  181.0630  173.9230  134.9090 C   0  0  0  0  0  2  0  0  0  0  0  0
  181.7920  171.6860  135.7460 C   0  0  0  0  0  1  0  0  0  0  0  0
  182.8120  175.0500  136.0850 C   0  0  1  0  0  3  0  0  0  0  0  0
  182.2370  172.9820  135.0840 C   0  0  2  0  0  3  0  0  0  0  0  0
  181.3280  175.1010  135.8180 C   0  0  2  0  0  3  0  0  0  0  0  0
  183.2450  173.6440  135.9130 N   0  0  0  0  0  0  0  0  0  0  0  0
  183.9880  176.9470  136.0260 C   0  0  0  0  0  1  0  0  0  0  0  0
  183.4770  175.9290  135.2150 O   0  0  0  0  0  0  0  0  0  0  0  0
  184.4710  173.5770  135.2230 N   0  0  0  0  0  2  0  0  0  0  0  0
  185.4880  173.1540  136.1820 C   0  0  0  0  0  2  0  0  0  0  0  0
  187.5680  175.9860  134.9990 C   0  0  0  0  0  2  0  0  0  0  0  0
  189.0910  175.9010  134.9220 C   0  0  0  0  0  2  0  0  0  0  0  0
  189.1720  173.9120  136.3550 O   0  0  0  0  0  0  0  0  0  0  0  0
  189.6450  174.4880  135.1370 C   0  0  0  0  0  2  0  0  0  0  0  0
  186.8810  174.6650  134.6310 C   0  0  0  0  0  2  0  0  0  0  0  0
  187.8600  173.4650  136.5850 C   0  0  0  0  0  3  0  0  0  0  0  0
  186.8020  173.7630  135.8230 C   0  0  0  0  0  0  0  0  0  0  0  0
  1  9  1  6  0  0  0
  1  8  1  0  0  0  0
  2  1  1  0  0  0  0
  3  2  1  6  0  0  0
  3  6  1  0  0  0  0
  4  5  2  0  0  0  0
  5  6  1  0  0  0  0
  6  8  1  6  0  0  0
  7 17  1  1  0  0  0
  7  4  1  0  0  0  0
  7  3  1  0  0  0  0
  9 15  1  1  0  0  0
  9 10  1  0  0  0  0
 10 11  1  1  0  0  0
 12 10  1  0  0  0  0
 12 13  1  0  0  0  0
 14 12  2  0  0  0  0
 16 15  1  0  0  0  0
 17 21  1  0  0  0  0
 18 19  1  0  0  0  0
 18 24  1  0  0  0  0
 20 22  2  0  0  0  0
 20 21  1  0  0  0  0
 21 18  2  0  0  0  0
 22 23  1  0  0  0  0
 23 19  2  0  0  0  0
 24 25  2  0  0  0  0
 25 26  1  0  0  0  0
 26 27  1  0  0  0  0
 28 27  1  0  0  0  0
 28 29  1  0  0  0  0
 29 30  1  6  0  0  0
 29 31  1  0  0  0  0
 32 35  2  0  0  0  0
 34 39  1  0  0  0  0
 34 32  1  0  0  0  0
 36 32  1  0  0  0  0
 36 33  1  0  0  0  0
 37 31  1  6  0  0  0
 37 36  1  0  0  0  0
 37 33  1  0  0  0  0
 38 42  1  6  0  0  0
 38 44  1  0  0  0  0
 38 41  1  0  0  0  0
 39 40  1  1  0  0  0
 41 45  1  0  0  0  0
 43 39  1  0  0  0  0
 44 43  1  0  0  0  0
 45 39  1  0  0  0  0
 46  4  1  0  0  0  0
 47 50  1  0  0  0  0
 47 51  1  0  0  0  0
 49 54  1  6  0  0  0
 50 48  1  1  0  0  0
 50 52  1  0  0  0  0
 51 49  1  0  0  0  0
 51 46  1  1  0  0  0
 52 49  1  0  0  0  0
 54 53  1  0  0  0  0
 55 52  1  0  0  0  0
 55 56  1  0  0  0  0
 58 57  1  0  0  0  0
 58 60  1  0  0  0  0
 59 62  1  0  0  0  0
 60 59  1  0  0  0  0
 61 57  1  0  0  0  0
 61 63  1  0  0  0  0
 63 56  1  0  0  0  0
 63 62  2  0  0  0  0
M  END
>  <MODEL>
8

>  <REMARK>
 VINA RESULT:      -4.5      2.543      8.623
  Name = 
  20 active torsions:
  status: ('A' for Active; 'I' for Inactive)
    1  A    between atoms: C_1  and  C_15
    2  A    between atoms: C_1  and  C_41
    3  A    between atoms: C_6  and  C_14
    4  A    between atoms: C_8  and  C_28
    5  A    between atoms: N_12  and  N_16
    6  A    between atoms: N_12  and  C_61
    7  A    between atoms: C_15  and  C_61
    8  A    between atoms: N_16  and  N_20
    9  A    between atoms: C_17  and  N_27
   10  A    between atoms: C_18  and  C_28
   11  A    between atoms: C_23  and  O_50
   12  A    between atoms: C_28  and  C_42
   13  A    between atoms: C_31  and  C_32
   14  A    between atoms: C_31  and  C_59
   15  A    between atoms: C_33  and  C_42
   16  A    between atoms: C_34  and  C_43
   17  A    between atoms: C_34  and  C_52
   18  A    between atoms: N_40  and  N_49
   19  A    between atoms: N_40  and  C_51
   20  A    between atoms: C_51  and  C_54
                            x       y       z     vdW  Elec       q    Type
                         _______ _______ _______ _____ _____    ______ ____

>  <TORSDO>
F 20

$$$$
=
 OpenBabel11042410513D

 63 69  0  0  1  0  0  0  0  0999 V2000
  184.0750  172.1210  136.3020 C   0  0  1  0  0  3  0  0  0  0  0  0
  184.1680  173.2300  135.2320 C   0  0  0  0  0  2  0  0  0  0  0  0
  184.5250  174.4280  136.0260 C   0  0  2  0  0  3  0  0  0  0  0  0
  184.0210  176.3190  137.2100 C   0  0  0  0  0  0  0  0  0  0  0  0
  184.1650  175.3470  138.0600 N   0  0  0  0  0  0  0  0  0  0  0  0
  184.5170  174.1990  137.3020 C   0  0  1  0  0  3  0  0  0  0  0  0
  184.1030  175.8340  135.7820 C   0  0  1  0  0  3  0  0  0  0  0  0
  184.2170  172.8010  137.6710 C   0  0  0  0  0  2  0  0  0  0  0  0
  182.7790  171.2960  136.1990 C   0  0  1  0  0  3  0  0  0  0  0  0
  181.6740  171.9500  135.3330 C   0  0  1  0  0  3  0  0  0  0  0  0
  180.7860  170.9950  134.8280 O   0  0  0  0  0  1  0  0  0  0  0  0
  180.9030  172.9680  136.1120 C   0  0  0  0  0  0  0  0  0  0  0  0
  179.9830  173.8970  135.3930 C   0  0  0  0  0  1  0  0  0  0  0  0
  180.9870  173.0150  137.3310 O   0  0  0  0  0  0  0  0  0  0  0  0
  183.0820  169.8320  135.8510 C   0  0  0  0  0  2  0  0  0  0  0  0
  184.4470  169.6430  135.1940 C   0  0  0  0  0  1  0  0  0  0  0  0
  185.1300  176.5870  134.9490 C   0  0  0  0  0  2  0  0  0  0  0  0
  187.3470  176.7790  136.1930 C   0  0  0  0  0  0  0  0  0  0  0  0
  188.1960  177.5060  137.0500 C   0  0  0  0  0  3  0  0  0  0  0  0
  185.7080  178.5610  136.3700 C   0  0  0  0  0  3  0  0  0  0  0  0
  186.0980  177.3310  135.8270 C   0  0  0  0  0  0  0  0  0  0  0  0
  186.5620  179.2780  137.2100 C   0  0  0  0  0  3  0  0  0  0  0  0
  187.8090  178.7480  137.5510 C   0  0  0  0  0  3  0  0  0  0  0  0
  187.7360  175.4240  135.7640 C   0  0  0  0  0  3  0  0  0  0  0  0
  188.4440  174.6630  136.5410 N   0  0  0  0  0  0  0  0  0  0  0  0
  188.7910  173.3760  136.1180 N   0  0  0  0  0  2  0  0  0  0  0  0
  189.8510  172.6980  136.7180 N   0  0  0  0  0  2  0  0  0  0  0  0
  191.0810  173.3090  136.2230 C   0  0  0  0  0  2  0  0  0  0  0  0
  191.0880  174.8080  136.5200 C   0  0  2  0  0  3  0  0  0  0  0  0
  191.8840  175.5110  135.5260 N   0  0  0  0  0  1  0  0  0  0  0  0
  191.6000  175.1510  137.9260 C   0  0  0  0  0  2  0  0  0  0  0  0
  191.3400  177.0130  141.0040 C   0  0  0  0  0  0  0  0  0  0  0  0
  192.9970  176.8840  138.7050 C   0  0  0  0  0  2  0  0  0  0  0  0
  189.9400  177.2620  141.2150 N   0  0  0  0  0  2  0  0  0  0  0  0
  192.1490  177.1170  141.9620 O   0  0  0  0  0  0  0  0  0  0  0  0
  191.8500  176.8640  139.6780 N   0  0  0  0  0  0  0  0  0  0  0  0
  191.7330  176.6440  138.1990 C   0  0  2  0  0  3  0  0  0  0  0  0
  190.3780  177.7090  145.2680 C   0  0  1  0  0  3  0  0  0  0  0  0
  189.3600  177.6490  142.5110 C   0  0  2  0  0  0  0  0  0  0  0  0
  187.9100  178.0290  142.2530 C   0  0  0  0  0  1  0  0  0  0  0  0
  189.1680  176.9570  144.7110 C   0  0  0  0  0  2  0  0  0  0  0  0
  191.3900  176.7180  145.7890 C   0  0  0  0  0  1  0  0  0  0  0  0
  190.0710  178.9240  143.0570 C   0  0  0  0  0  2  0  0  0  0  0  0
  191.0400  178.5920  144.2010 C   0  0  0  0  0  2  0  0  0  0  0  0
  189.4210  176.5320  143.3880 O   0  0  0  0  0  0  0  0  0  0  0  0
  183.4430  177.6410  137.6090 C   0  0  0  0  0  2  0  0  0  0  0  0
  181.0630  176.9290  137.4290 C   0  0  0  0  0  2  0  0  0  0  0  0
  180.4820  178.3060  135.4280 C   0  0  0  0  0  1  0  0  0  0  0  0
  181.5960  178.8600  138.7340 C   0  0  1  0  0  3  0  0  0  0  0  0
  180.2660  178.1130  136.9220 C   0  0  2  0  0  3  0  0  0  0  0  0
  182.1160  177.4960  138.3530 C   0  0  2  0  0  3  0  0  0  0  0  0
  180.6960  179.3100  137.6460 N   0  0  0  0  0  0  0  0  0  0  0  0
  181.7660  179.4760  140.8730 C   0  0  0  0  0  1  0  0  0  0  0  0
  180.9460  178.7860  139.9750 O   0  0  0  0  0  0  0  0  0  0  0  0
  179.5430  179.9240  138.1710 N   0  0  0  0  0  2  0  0  0  0  0  0
  178.9330  180.6980  137.0930 C   0  0  0  0  0  2  0  0  0  0  0  0
  180.2870  183.5170  135.1020 C   0  0  0  0  0  2  0  0  0  0  0  0
  180.8870  184.7610  135.7540 C   0  0  0  0  0  2  0  0  0  0  0  0
  179.8980  184.2390  137.9370 O   0  0  0  0  0  0  0  0  0  0  0  0
  181.0980  184.6270  137.2670 C   0  0  0  0  0  2  0  0  0  0  0  0
  180.6050  182.2300  135.8730 C   0  0  0  0  0  2  0  0  0  0  0  0
  179.3130  182.9630  137.8760 C   0  0  0  0  0  3  0  0  0  0  0  0
  179.6140  182.0200  136.9760 C   0  0  0  0  0  0  0  0  0  0  0  0
  1  9  1  1  0  0  0
  1  8  1  0  0  0  0
  2  1  1  0  0  0  0
  3  2  1  6  0  0  0
  3  6  1  0  0  0  0
  4 46  1  0  0  0  0
  4  5  2  0  0  0  0
  6  8  1  6  0  0  0
  6  5  1  0  0  0  0
  7 17  1  6  0  0  0
  7  3  1  0  0  0  0
  7  4  1  0  0  0  0
  9 15  1  6  0  0  0
 10 11  1  1  0  0  0
 10 12  1  0  0  0  0
 10  9  1  0  0  0  0
 12 14  2  0  0  0  0
 13 12  1  0  0  0  0
 16 15  1  0  0  0  0
 17 21  1  0  0  0  0
 18 19  1  0  0  0  0
 19 23  2  0  0  0  0
 20 22  2  0  0  0  0
 21 18  2  0  0  0  0
 21 20  1  0  0  0  0
 22 23  1  0  0  0  0
 24 18  1  0  0  0  0
 24 25  2  0  0  0  0
 26 25  1  0  0  0  0
 26 27  1  0  0  0  0
 28 29  1  0  0  0  0
 28 27  1  0  0  0  0
 29 30  1  6  0  0  0
 29 31  1  0  0  0  0
 32 34  1  0  0  0  0
 32 35  2  0  0  0  0
 33 36  1  0  0  0  0
 34 39  1  0  0  0  0
 36 32  1  0  0  0  0
 37 31  1  1  0  0  0
 37 33  1  0  0  0  0
 37 36  1  0  0  0  0
 38 42  1  6  0  0  0
 39 40  1  6  0  0  0
 39 43  1  0  0  0  0
 39 45  1  0  0  0  0
 41 38  1  0  0  0  0
 43 44  1  0  0  0  0
 44 38  1  0  0  0  0
 45 41  1  0  0  0  0
 47 51  1  0  0  0  0
 49 54  1  1  0  0  0
 50 48  1  6  0  0  0
 50 47  1  0  0  0  0
 50 52  1  0  0  0  0
 51 46  1  6  0  0  0
 51 49  1  0  0  0  0
 52 55  1  0  0  0  0
 52 49  1  0  0  0  0
 54 53  1  0  0  0  0
 56 55  1  0  0  0  0
 57 58  1  0  0  0  0
 57 61  1  0  0  0  0
 58 60  1  0  0  0  0
 60 59  1  0  0  0  0
 61 63  1  0  0  0  0
 62 59  1  0  0  0  0
 63 56  1  0  0  0  0
 63 62  2  0  0  0  0
M  END
>  <MODEL>
9

>  <REMARK>
 VINA RESULT:      -4.4      2.484     10.605
  Name = 
  20 active torsions:
  status: ('A' for Active; 'I' for Inactive)
    1  A    between atoms: C_1  and  C_15
    2  A    between atoms: C_1  and  C_41
    3  A    between atoms: C_6  and  C_14
    4  A    between atoms: C_8  and  C_28
    5  A    between atoms: N_12  and  N_16
    6  A    between atoms: N_12  and  C_61
    7  A    between atoms: C_15  and  C_61
    8  A    between atoms: N_16  and  N_20
    9  A    between atoms: C_17  and  N_27
   10  A    between atoms: C_18  and  C_28
   11  A    between atoms: C_23  and  O_50
   12  A    between atoms: C_28  and  C_42
   13  A    between atoms: C_31  and  C_32
   14  A    between atoms: C_31  and  C_59
   15  A    between atoms: C_33  and  C_42
   16  A    between atoms: C_34  and  C_43
   17  A    between atoms: C_34  and  C_52
   18  A    between atoms: N_40  and  N_49
   19  A    between atoms: N_40  and  C_51
   20  A    between atoms: C_51  and  C_54
                            x       y       z     vdW  Elec       q    Type
                         _______ _______ _______ _____ _____    ______ ____

>  <TORSDO>
F 20

$$$$
