=
 OpenBabel11042412063D

 30 31  0  0  1  0  0  0  0  0999 V2000
  187.4610  177.6860  145.3630 C   0  0  0  0  0  0  0  0  0  0  0  0
  185.4720  178.3270  143.4610 C   0  0  0  0  0  0  0  0  0  0  0  0
  186.1390  177.9290  145.7680 C   0  0  0  0  0  3  0  0  0  0  0  0
  186.7950  178.0830  143.0630 C   0  0  0  0  0  3  0  0  0  0  0  0
  185.1570  178.2470  144.8270 C   0  0  0  0  0  3  0  0  0  0  0  0
  187.7900  177.7660  144.0000 C   0  0  0  0  0  0  0  0  0  0  0  0
  181.9760  178.1050  140.8150 C   0  0  0  0  0  2  0  0  0  0  0  0
  181.9350  178.6100  142.2120 C   0  0  0  0  0  3  0  0  0  0  0  0
  183.0370  178.8380  142.9230 C   0  0  0  0  0  3  0  0  0  0  0  0
  182.5960  179.1010  139.9520 N   0  0  0  0  0  0  0  0  0  0  0  0
  184.0110  179.3330  140.0270 C   0  0  0  0  0  0  0  0  0  0  0  0
  184.4360  178.6770  142.4520 C   0  0  0  0  0  0  0  0  0  0  0  0
  184.8290  178.9250  141.1880 C   0  0  0  0  0  3  0  0  0  0  0  0
  184.6040  179.8780  139.0580 O   0  0  0  0  0  0  0  0  0  0  0  0
  180.8590  180.6610  139.3040 C   0  0  0  0  0  2  0  0  0  0  0  0
  181.8180  179.8040  138.9710 C   0  0  0  0  0  3  0  0  0  0  0  0
  188.4550  177.3670  146.2970 O   0  0  0  0  0  0  0  0  0  0  0  0
  188.2200  177.3580  147.6980 C   0  0  0  0  0  1  0  0  0  0  0  0
  189.2040  177.5140  143.5530 C   0  0  1  0  0  3  0  0  0  0  0  0
  190.2320  178.0520  144.5570 C   0  0  0  0  0  3  0  0  0  0  0  0
  190.9220  179.2840  144.0020 C   0  0  0  0  0  1  0  0  0  0  0  0
  191.2710  177.0140  144.9590 C   0  0  0  0  0  1  0  0  0  0  0  0
  189.4440  176.0540  143.1590 C   0  0  0  0  0  2  0  0  0  0  0  0
  190.3090  175.9880  141.9920 N   0  0  0  0  0  2  0  0  0  0  0  0
  189.9420  177.0960  141.1240 C   0  0  0  0  0  2  0  0  0  0  0  0
  189.9130  177.4290  138.6330 C   0  0  0  0  0  3  0  0  0  0  0  0
  190.3850  176.8190  139.7240 C   0  0  0  0  0  3  0  0  0  0  0  0
  188.8550  178.4560  138.5810 C   0  0  0  0  0  0  0  0  0  0  0  0
  189.0780  179.5270  137.9590 O   0  0  0  0  0  0  0  0  0  0  0  0
  187.5820  178.2600  139.1910 N   0  0  0  0  0  1  0  0  0  0  0  0
  1  3  1  0  0  0  0
  1 17  1  0  0  0  0
  2  5  1  0  0  0  0
  4  2  2  0  0  0  0
  4  6  1  0  0  0  0
  5  3  2  0  0  0  0
  6  1  2  0  0  0  0
  7  8  1  0  0  0  0
  8  9  2  0  0  0  0
 10 11  1  0  0  0  0
 10  7  1  0  0  0  0
 11 13  1  0  0  0  0
 12  9  1  0  0  0  0
 12  2  1  0  0  0  0
 13 12  2  0  0  0  0
 14 11  2  0  0  0  0
 16 15  2  0  0  0  0
 16 10  1  0  0  0  0
 17 18  1  0  0  0  0
 19 23  1  1  0  0  0
 19  6  1  0  0  0  0
 19 20  1  0  0  0  0
 20 22  1  0  0  0  0
 21 20  1  0  0  0  0
 24 23  1  0  0  0  0
 25 24  1  0  0  0  0
 26 27  2  0  0  0  0
 27 25  1  0  0  0  0
 28 26  1  0  0  0  0
 28 30  1  0  0  0  0
 29 28  2  0  0  0  0
M  END
>  <MODEL>
1

>  <REMARK>
 VINA RESULT:      -8.6      0.000      0.000
  Name = 
  10 active torsions:
  status: ('A' for Active; 'I' for Inactive)
    1  A    between atoms: N_4  and  C_12
    2  A    between atoms: N_4  and  C_21
    3  A    between atoms: C_5  and  C_28
    4  A    between atoms: C_6  and  C_18
    5  A    between atoms: O_7  and  C_8
    6  A    between atoms: C_9  and  C_16
    7  A    between atoms: C_12  and  C_28
    8  A    between atoms: N_13  and  C_17
    9  A    between atoms: C_21  and  C_24
   10  A    between atoms: C_28  and  C_30
                            x       y       z     vdW  Elec       q    Type
                         _______ _______ _______ _____ _____    ______ ____

>  <TORSDO>
F 10

$$$$
=
 OpenBabel11042412063D

 30 31  0  0  1  0  0  0  0  0999 V2000
  182.8020  178.8750  142.7140 C   0  0  0  0  0  0  0  0  0  0  0  0
  185.3380  178.1060  143.6950 C   0  0  0  0  0  0  0  0  0  0  0  0
  183.1040  178.9930  144.0800 C   0  0  0  0  0  3  0  0  0  0  0  0
  185.0300  177.9910  142.3310 C   0  0  0  0  0  3  0  0  0  0  0  0
  184.3570  178.6100  144.5640 C   0  0  0  0  0  3  0  0  0  0  0  0
  183.7740  178.3680  141.8350 C   0  0  0  0  0  0  0  0  0  0  0  0
  189.2410  178.1340  145.7050 C   0  0  0  0  0  2  0  0  0  0  0  0
  187.9700  177.7170  146.3540 C   0  0  0  0  0  3  0  0  0  0  0  0
  186.8410  177.5430  145.6710 C   0  0  0  0  0  3  0  0  0  0  0  0
  189.6910  177.0910  144.7940 N   0  0  0  0  0  0  0  0  0  0  0  0
  189.0000  176.8740  143.5540 C   0  0  0  0  0  0  0  0  0  0  0  0
  186.6720  177.6850  144.2020 C   0  0  0  0  0  0  0  0  0  0  0  0
  187.6260  177.3610  143.3080 C   0  0  0  0  0  3  0  0  0  0  0  0
  189.5840  176.2740  142.6130 O   0  0  0  0  0  0  0  0  0  0  0  0
  191.6880  176.6280  146.0870 C   0  0  0  0  0  2  0  0  0  0  0  0
  190.8680  176.3210  145.0880 C   0  0  0  0  0  3  0  0  0  0  0  0
  181.5490  179.2530  142.2170 O   0  0  0  0  0  0  0  0  0  0  0  0
  180.4520  179.5770  143.0600 C   0  0  0  0  0  1  0  0  0  0  0  0
  183.4610  178.2320  140.3690 C   0  0  1  0  0  3  0  0  0  0  0  0
  182.1790  177.4260  140.1250 C   0  0  0  0  0  3  0  0  0  0  0  0
  182.5140  176.0170  139.6710 C   0  0  0  0  0  1  0  0  0  0  0  0
  181.2450  178.0840  139.1190 C   0  0  0  0  0  1  0  0  0  0  0  0
  183.4840  179.5750  139.6360 C   0  0  0  0  0  2  0  0  0  0  0  0
  184.7390  179.7290  138.9170 N   0  0  0  0  0  2  0  0  0  0  0  0
  185.3250  178.4040  138.7920 C   0  0  0  0  0  2  0  0  0  0  0  0
  187.3320  178.1730  137.2950 C   0  0  0  0  0  3  0  0  0  0  0  0
  186.0100  178.2680  137.4710 C   0  0  0  0  0  3  0  0  0  0  0  0
  188.3680  178.2150  138.3430 C   0  0  0  0  0  0  0  0  0  0  0  0
  188.9790  179.2960  138.5490 O   0  0  0  0  0  0  0  0  0  0  0  0
  188.6790  177.0790  139.1440 N   0  0  0  0  0  1  0  0  0  0  0  0
  1  3  1  0  0  0  0
  2 12  1  0  0  0  0
  2  5  1  0  0  0  0
  3  5  2  0  0  0  0
  4  2  2  0  0  0  0
  6  4  1  0  0  0  0
  6  1  2  0  0  0  0
  7  8  1  0  0  0  0
  9  8  2  0  0  0  0
 10 16  1  0  0  0  0
 10  7  1  0  0  0  0
 11 10  1  0  0  0  0
 12  9  1  0  0  0  0
 13 11  1  0  0  0  0
 13 12  2  0  0  0  0
 14 11  2  0  0  0  0
 16 15  2  0  0  0  0
 17  1  1  0  0  0  0
 17 18  1  0  0  0  0
 19 23  1  1  0  0  0
 19  6  1  0  0  0  0
 20 19  1  0  0  0  0
 21 20  1  0  0  0  0
 22 20  1  0  0  0  0
 24 23  1  0  0  0  0
 25 24  1  0  0  0  0
 26 27  2  0  0  0  0
 26 28  1  0  0  0  0
 27 25  1  0  0  0  0
 28 29  2  0  0  0  0
 28 30  1  0  0  0  0
M  END
>  <MODEL>
2

>  <REMARK>
 VINA RESULT:      -8.3      1.875      6.908
  Name = 
  10 active torsions:
  status: ('A' for Active; 'I' for Inactive)
    1  A    between atoms: N_4  and  C_12
    2  A    between atoms: N_4  and  C_21
    3  A    between atoms: C_5  and  C_28
    4  A    between atoms: C_6  and  C_18
    5  A    between atoms: O_7  and  C_8
    6  A    between atoms: C_9  and  C_16
    7  A    between atoms: C_12  and  C_28
    8  A    between atoms: N_13  and  C_17
    9  A    between atoms: C_21  and  C_24
   10  A    between atoms: C_28  and  C_30
                            x       y       z     vdW  Elec       q    Type
                         _______ _______ _______ _____ _____    ______ ____

>  <TORSDO>
F 10

$$$$
=
 OpenBabel11042412063D

 30 31  0  0  1  0  0  0  0  0999 V2000
  182.9180  178.9230  143.2540 C   0  0  0  0  0  0  0  0  0  0  0  0
  185.6440  178.2190  143.5050 C   0  0  0  0  0  0  0  0  0  0  0  0
  183.5440  178.9300  144.5100 C   0  0  0  0  0  3  0  0  0  0  0  0
  185.0130  178.2140  142.2510 C   0  0  0  0  0  3  0  0  0  0  0  0
  184.8900  178.5800  144.6330 C   0  0  0  0  0  3  0  0  0  0  0  0
  183.6600  178.5600  142.1170 C   0  0  0  0  0  0  0  0  0  0  0  0
  189.8920  178.2290  144.6130 C   0  0  0  0  0  2  0  0  0  0  0  0
  188.8190  177.5920  145.4200 C   0  0  0  0  0  3  0  0  0  0  0  0
  187.5760  177.4440  144.9700 C   0  0  0  0  0  3  0  0  0  0  0  0
  190.1750  177.4110  143.4410 N   0  0  0  0  0  0  0  0  0  0  0  0
  189.2340  177.3620  142.3570 C   0  0  0  0  0  0  0  0  0  0  0  0
  187.0750  177.8330  143.6270 C   0  0  0  0  0  0  0  0  0  0  0  0
  187.8190  177.7610  142.5060 C   0  0  0  0  0  3  0  0  0  0  0  0
  189.6200  176.9950  141.2150 O   0  0  0  0  0  0  0  0  0  0  0  0
  191.6690  175.5830  143.9850 C   0  0  0  0  0  2  0  0  0  0  0  0
  191.4220  176.7090  143.3240 C   0  0  0  0  0  3  0  0  0  0  0  0
  181.5690  179.2700  143.1170 O   0  0  0  0  0  0  0  0  0  0  0  0
  180.5240  178.5740  143.7820 C   0  0  0  0  0  1  0  0  0  0  0  0
  183.0000  178.5420  140.7650 C   0  0  1  0  0  3  0  0  0  0  0  0
  183.8630  179.2200  139.6930 C   0  0  0  0  0  3  0  0  0  0  0  0
  183.0370  180.2090  138.8920 C   0  0  0  0  0  1  0  0  0  0  0  0
  184.5330  178.2260  138.7530 C   0  0  0  0  0  1  0  0  0  0  0  0
  182.5170  177.1460  140.3650 C   0  0  0  0  0  2  0  0  0  0  0  0
  181.0920  177.1750  140.0770 N   0  0  0  0  0  2  0  0  0  0  0  0
  180.8240  176.1000  139.1340 C   0  0  0  0  0  2  0  0  0  0  0  0
  182.1100  175.7990  136.9950 C   0  0  0  0  0  3  0  0  0  0  0  0
  181.2680  176.4970  137.7640 C   0  0  0  0  0  3  0  0  0  0  0  0
  182.7880  174.5370  137.3460 C   0  0  0  0  0  0  0  0  0  0  0  0
  183.8790  174.5880  137.9700 O   0  0  0  0  0  0  0  0  0  0  0  0
  182.2320  173.2650  137.0220 N   0  0  0  0  0  1  0  0  0  0  0  0
  1  3  1  0  0  0  0
  2 12  1  0  0  0  0
  2  5  1  0  0  0  0
  3  5  2  0  0  0  0
  4  2  2  0  0  0  0
  6  4  1  0  0  0  0
  6  1  2  0  0  0  0
  7  8  1  0  0  0  0
  9  8  2  0  0  0  0
 10  7  1  0  0  0  0
 11 13  1  0  0  0  0
 11 10  1  0  0  0  0
 12  9  1  0  0  0  0
 13 12  2  0  0  0  0
 14 11  2  0  0  0  0
 16 10  1  0  0  0  0
 16 15  2  0  0  0  0
 17  1  1  0  0  0  0
 17 18  1  0  0  0  0
 19 23  1  6  0  0  0
 19  6  1  0  0  0  0
 20 19  1  0  0  0  0
 21 20  1  0  0  0  0
 22 20  1  0  0  0  0
 24 23  1  0  0  0  0
 25 24  1  0  0  0  0
 26 28  1  0  0  0  0
 26 27  2  0  0  0  0
 27 25  1  0  0  0  0
 28 29  2  0  0  0  0
 30 28  1  0  0  0  0
M  END
>  <MODEL>
3

>  <REMARK>
 VINA RESULT:      -8.0      2.708      7.425
  Name = 
  10 active torsions:
  status: ('A' for Active; 'I' for Inactive)
    1  A    between atoms: N_4  and  C_12
    2  A    between atoms: N_4  and  C_21
    3  A    between atoms: C_5  and  C_28
    4  A    between atoms: C_6  and  C_18
    5  A    between atoms: O_7  and  C_8
    6  A    between atoms: C_9  and  C_16
    7  A    between atoms: C_12  and  C_28
    8  A    between atoms: N_13  and  C_17
    9  A    between atoms: C_21  and  C_24
   10  A    between atoms: C_28  and  C_30
                            x       y       z     vdW  Elec       q    Type
                         _______ _______ _______ _____ _____    ______ ____

>  <TORSDO>
F 10

$$$$
=
 OpenBabel11042412063D

 30 31  0  0  1  0  0  0  0  0999 V2000
  183.2270  179.0050  139.5350 C   0  0  0  0  0  0  0  0  0  0  0  0
  184.4030  178.5580  142.0660 C   0  0  0  0  0  0  0  0  0  0  0  0
  184.6230  178.9880  139.6800 C   0  0  0  0  0  3  0  0  0  0  0  0
  183.0080  178.5760  141.9150 C   0  0  0  0  0  3  0  0  0  0  0  0
  185.2030  178.7690  140.9320 C   0  0  0  0  0  3  0  0  0  0  0  0
  182.4150  178.7990  140.6630 C   0  0  0  0  0  0  0  0  0  0  0  0
  185.8560  179.2240  146.1550 C   0  0  0  0  0  2  0  0  0  0  0  0
  184.4750  178.7870  145.8190 C   0  0  0  0  0  3  0  0  0  0  0  0
  184.1200  178.4160  144.5910 C   0  0  0  0  0  3  0  0  0  0  0  0
  186.7780  178.1100  145.9840 N   0  0  0  0  0  0  0  0  0  0  0  0
  187.1220  177.6600  144.6630 C   0  0  0  0  0  0  0  0  0  0  0  0
  185.0110  178.3360  143.4050 C   0  0  0  0  0  0  0  0  0  0  0  0
  186.3080  177.9790  143.4720 C   0  0  0  0  0  3  0  0  0  0  0  0
  188.1740  176.9900  144.4900 O   0  0  0  0  0  0  0  0  0  0  0  0
  187.8030  178.2030  148.1770 C   0  0  0  0  0  2  0  0  0  0  0  0
  187.4070  177.5000  147.1210 C   0  0  0  0  0  3  0  0  0  0  0  0
  182.6340  179.2260  138.2860 O   0  0  0  0  0  0  0  0  0  0  0  0
  182.4540  178.1940  137.3260 C   0  0  0  0  0  1  0  0  0  0  0  0
  180.9170  178.8200  140.5230 C   0  0  1  0  0  3  0  0  0  0  0  0
  180.2320  177.8570  141.5000 C   0  0  0  0  0  3  0  0  0  0  0  0
  179.3180  176.9030  140.7540 C   0  0  0  0  0  1  0  0  0  0  0  0
  179.4500  178.5740  142.5920 C   0  0  0  0  0  1  0  0  0  0  0  0
  180.3440  180.2390  140.5640 C   0  0  0  0  0  2  0  0  0  0  0  0
  179.7480  180.5730  139.2800 N   0  0  0  0  0  2  0  0  0  0  0  0
  180.3210  181.8410  138.8590 C   0  0  0  0  0  2  0  0  0  0  0  0
  180.6820  183.0040  136.6590 C   0  0  0  0  0  3  0  0  0  0  0  0
  180.3580  181.9170  137.3670 C   0  0  0  0  0  3  0  0  0  0  0  0
  181.0280  184.3350  137.1920 C   0  0  0  0  0  0  0  0  0  0  0  0
  182.2340  184.5970  137.4350 O   0  0  0  0  0  0  0  0  0  0  0  0
  180.0420  185.3400  137.4140 N   0  0  0  0  0  1  0  0  0  0  0  0
  1  3  2  0  0  0  0
  1  6  1  0  0  0  0
  2 12  1  0  0  0  0
  3  5  1  0  0  0  0
  4  2  1  0  0  0  0
  5  2  2  0  0  0  0
  6  4  2  0  0  0  0
  8  7  1  0  0  0  0
  9  8  2  0  0  0  0
 10  7  1  0  0  0  0
 10 16  1  0  0  0  0
 11 10  1  0  0  0  0
 12 13  2  0  0  0  0
 12  9  1  0  0  0  0
 13 11  1  0  0  0  0
 14 11  2  0  0  0  0
 16 15  2  0  0  0  0
 17  1  1  0  0  0  0
 18 17  1  0  0  0  0
 19 23  1  1  0  0  0
 19  6  1  0  0  0  0
 19 20  1  0  0  0  0
 20 22  1  0  0  0  0
 21 20  1  0  0  0  0
 24 23  1  0  0  0  0
 25 24  1  0  0  0  0
 26 28  1  0  0  0  0
 26 27  2  0  0  0  0
 27 25  1  0  0  0  0
 28 30  1  0  0  0  0
 28 29  2  0  0  0  0
M  END
>  <MODEL>
4

>  <REMARK>
 VINA RESULT:      -7.7      3.247      8.668
  Name = 
  10 active torsions:
  status: ('A' for Active; 'I' for Inactive)
    1  A    between atoms: N_4  and  C_12
    2  A    between atoms: N_4  and  C_21
    3  A    between atoms: C_5  and  C_28
    4  A    between atoms: C_6  and  C_18
    5  A    between atoms: O_7  and  C_8
    6  A    between atoms: C_9  and  C_16
    7  A    between atoms: C_12  and  C_28
    8  A    between atoms: N_13  and  C_17
    9  A    between atoms: C_21  and  C_24
   10  A    between atoms: C_28  and  C_30
                            x       y       z     vdW  Elec       q    Type
                         _______ _______ _______ _____ _____    ______ ____

>  <TORSDO>
F 10

$$$$
=
 OpenBabel11042412063D

 30 31  0  0  1  0  0  0  0  0999 V2000
  187.6170  178.2670  139.7830 C   0  0  0  0  0  0  0  0  0  0  0  0
  188.9930  177.4560  142.1150 C   0  0  0  0  0  0  0  0  0  0  0  0
  188.9270  177.7700  139.7020 C   0  0  0  0  0  3  0  0  0  0  0  0
  187.6830  177.9540  142.1900 C   0  0  0  0  0  3  0  0  0  0  0  0
  189.6070  177.3720  140.8550 C   0  0  0  0  0  3  0  0  0  0  0  0
  186.9930  178.3610  141.0380 C   0  0  0  0  0  0  0  0  0  0  0  0
  191.3270  177.6000  145.8310 C   0  0  0  0  0  2  0  0  0  0  0  0
  189.8470  177.7200  145.7690 C   0  0  0  0  0  3  0  0  0  0  0  0
  189.1560  177.4880  144.6550 C   0  0  0  0  0  3  0  0  0  0  0  0
  191.7160  176.2140  145.6120 N   0  0  0  0  0  0  0  0  0  0  0  0
  191.6130  175.6380  144.3000 C   0  0  0  0  0  0  0  0  0  0  0  0
  189.7130  177.0460  143.3510 C   0  0  0  0  0  0  0  0  0  0  0  0
  190.7700  176.2200  143.2350 C   0  0  0  0  0  3  0  0  0  0  0  0
  192.2870  174.6120  144.0170 O   0  0  0  0  0  0  0  0  0  0  0  0
  192.4110  175.9110  147.9130 C   0  0  0  0  0  2  0  0  0  0  0  0
  192.2730  175.4330  146.6810 C   0  0  0  0  0  3  0  0  0  0  0  0
  186.9260  178.6710  138.6350 O   0  0  0  0  0  0  0  0  0  0  0  0
  187.0470  178.0010  137.3870 C   0  0  0  0  0  1  0  0  0  0  0  0
  185.5910  178.8970  141.1400 C   0  0  1  0  0  3  0  0  0  0  0  0
  184.7150  178.4520  139.9620 C   0  0  0  0  0  3  0  0  0  0  0  0
  184.0160  179.6460  139.3390 C   0  0  0  0  0  1  0  0  0  0  0  0
  183.6890  177.3960  140.3490 C   0  0  0  0  0  1  0  0  0  0  0  0
  184.9570  178.6260  142.5070 C   0  0  0  0  0  2  0  0  0  0  0  0
  184.8100  179.8700  143.2440 N   0  0  0  0  0  2  0  0  0  0  0  0
  184.8690  179.5390  144.6590 C   0  0  0  0  0  2  0  0  0  0  0  0
  185.9920  177.6810  145.9270 C   0  0  0  0  0  3  0  0  0  0  0  0
  185.3670  178.1420  144.8380 C   0  0  0  0  0  3  0  0  0  0  0  0
  186.3430  178.4480  147.1360 C   0  0  0  0  0  0  0  0  0  0  0  0
  187.2190  177.9890  147.9140 O   0  0  0  0  0  0  0  0  0  0  0  0
  185.7390  179.7040  147.4360 N   0  0  0  0  0  1  0  0  0  0  0  0
  1  6  1  0  0  0  0
  2  4  1  0  0  0  0
  2 12  1  0  0  0  0
  3  1  2  0  0  0  0
  3  5  1  0  0  0  0
  5  2  2  0  0  0  0
  6 19  1  0  0  0  0
  6  4  2  0  0  0  0
  8  7  1  0  0  0  0
  9  8  2  0  0  0  0
 10  7  1  0  0  0  0
 10 16  1  0  0  0  0
 11 10  1  0  0  0  0
 12  9  1  0  0  0  0
 13 12  2  0  0  0  0
 13 11  1  0  0  0  0
 14 11  2  0  0  0  0
 16 15  2  0  0  0  0
 17  1  1  0  0  0  0
 18 17  1  0  0  0  0
 19 23  1  1  0  0  0
 20 22  1  0  0  0  0
 20 19  1  0  0  0  0
 21 20  1  0  0  0  0
 23 24  1  0  0  0  0
 24 25  1  0  0  0  0
 25 27  1  0  0  0  0
 26 28  1  0  0  0  0
 27 26  2  0  0  0  0
 28 30  1  0  0  0  0
 28 29  2  0  0  0  0
M  END
>  <MODEL>
5

>  <REMARK>
 VINA RESULT:      -7.7      2.505      8.327
  Name = 
  10 active torsions:
  status: ('A' for Active; 'I' for Inactive)
    1  A    between atoms: N_4  and  C_12
    2  A    between atoms: N_4  and  C_21
    3  A    between atoms: C_5  and  C_28
    4  A    between atoms: C_6  and  C_18
    5  A    between atoms: O_7  and  C_8
    6  A    between atoms: C_9  and  C_16
    7  A    between atoms: C_12  and  C_28
    8  A    between atoms: N_13  and  C_17
    9  A    between atoms: C_21  and  C_24
   10  A    between atoms: C_28  and  C_30
                            x       y       z     vdW  Elec       q    Type
                         _______ _______ _______ _____ _____    ______ ____

>  <TORSDO>
F 10

$$$$
=
 OpenBabel11042412063D

 30 31  0  0  1  0  0  0  0  0999 V2000
  182.5050  178.9840  143.0920 C   0  0  0  0  0  0  0  0  0  0  0  0
  185.2230  178.2950  143.4470 C   0  0  0  0  0  0  0  0  0  0  0  0
  183.1000  179.0590  144.3610 C   0  0  0  0  0  3  0  0  0  0  0  0
  184.6230  178.2220  142.1800 C   0  0  0  0  0  3  0  0  0  0  0  0
  184.4430  178.7160  144.5350 C   0  0  0  0  0  3  0  0  0  0  0  0
  183.2740  178.5600  141.9940 C   0  0  0  0  0  0  0  0  0  0  0  0
  189.0480  176.1640  143.1300 C   0  0  0  0  0  2  0  0  0  0  0  0
  188.6160  177.2450  142.2070 C   0  0  0  0  0  3  0  0  0  0  0  0
  187.5400  177.9960  142.4370 C   0  0  0  0  0  3  0  0  0  0  0  0
  189.4480  176.7390  144.4070 N   0  0  0  0  0  0  0  0  0  0  0  0
  188.4520  177.2580  145.3030 C   0  0  0  0  0  0  0  0  0  0  0  0
  186.6510  177.9160  143.6240 C   0  0  0  0  0  0  0  0  0  0  0  0
  187.0870  177.6160  144.8620 C   0  0  0  0  0  3  0  0  0  0  0  0
  188.7250  177.3910  146.5250 O   0  0  0  0  0  0  0  0  0  0  0  0
  191.6030  177.8010  144.7190 C   0  0  0  0  0  2  0  0  0  0  0  0
  190.8240  176.7290  144.8150 C   0  0  0  0  0  3  0  0  0  0  0  0
  181.1600  179.3230  142.9050 O   0  0  0  0  0  0  0  0  0  0  0  0
  180.0900  178.5380  143.4140 C   0  0  0  0  0  1  0  0  0  0  0  0
  182.6470  178.4700  140.6300 C   0  0  1  0  0  3  0  0  0  0  0  0
  183.4640  179.2180  139.5680 C   0  0  0  0  0  3  0  0  0  0  0  0
  182.5890  180.2090  138.8240 C   0  0  0  0  0  1  0  0  0  0  0  0
  184.1470  178.2850  138.5770 C   0  0  0  0  0  1  0  0  0  0  0  0
  182.3060  177.0310  140.2340 C   0  0  0  0  0  2  0  0  0  0  0  0
  180.8850  176.9160  139.9490 N   0  0  0  0  0  2  0  0  0  0  0  0
  180.6570  175.5690  139.4500 C   0  0  0  0  0  2  0  0  0  0  0  0
  180.8740  174.4240  137.2220 C   0  0  0  0  0  3  0  0  0  0  0  0
  181.1040  175.4660  138.0280 C   0  0  0  0  0  3  0  0  0  0  0  0
  180.1770  173.1730  137.5720 C   0  0  0  0  0  0  0  0  0  0  0  0
  178.9320  173.2010  137.7490 O   0  0  0  0  0  0  0  0  0  0  0  0
  180.8670  171.9310  137.6900 N   0  0  0  0  0  1  0  0  0  0  0  0
  1  3  1  0  0  0  0
  2 12  1  0  0  0  0
  2  5  1  0  0  0  0
  3  5  2  0  0  0  0
  4  2  2  0  0  0  0
  6  4  1  0  0  0  0
  6  1  2  0  0  0  0
  7 10  1  0  0  0  0
  8  9  2  0  0  0  0
  8  7  1  0  0  0  0
  9 12  1  0  0  0  0
 10 16  1  0  0  0  0
 10 11  1  0  0  0  0
 11 14  2  0  0  0  0
 12 13  2  0  0  0  0
 13 11  1  0  0  0  0
 15 16  2  0  0  0  0
 17  1  1  0  0  0  0
 17 18  1  0  0  0  0
 19 23  1  6  0  0  0
 19  6  1  0  0  0  0
 20 19  1  0  0  0  0
 21 20  1  0  0  0  0
 22 20  1  0  0  0  0
 24 23  1  0  0  0  0
 25 24  1  0  0  0  0
 26 28  1  0  0  0  0
 26 27  2  0  0  0  0
 27 25  1  0  0  0  0
 28 30  1  0  0  0  0
 28 29  2  0  0  0  0
M  END
>  <MODEL>
6

>  <REMARK>
 VINA RESULT:      -7.7      3.129      8.048
  Name = 
  10 active torsions:
  status: ('A' for Active; 'I' for Inactive)
    1  A    between atoms: N_4  and  C_12
    2  A    between atoms: N_4  and  C_21
    3  A    between atoms: C_5  and  C_28
    4  A    between atoms: C_6  and  C_18
    5  A    between atoms: O_7  and  C_8
    6  A    between atoms: C_9  and  C_16
    7  A    between atoms: C_12  and  C_28
    8  A    between atoms: N_13  and  C_17
    9  A    between atoms: C_21  and  C_24
   10  A    between atoms: C_28  and  C_30
                            x       y       z     vdW  Elec       q    Type
                         _______ _______ _______ _____ _____    ______ ____

>  <TORSDO>
F 10

$$$$
=
 OpenBabel11042412063D

 30 31  0  0  1  0  0  0  0  0999 V2000
  187.5500  177.9490  145.1600 C   0  0  0  0  0  0  0  0  0  0  0  0
  185.7820  178.2070  142.9710 C   0  0  0  0  0  0  0  0  0  0  0  0
  186.1810  178.1720  145.3720 C   0  0  0  0  0  3  0  0  0  0  0  0
  187.1520  177.9830  142.7650 C   0  0  0  0  0  3  0  0  0  0  0  0
  185.3080  178.3020  144.2890 C   0  0  0  0  0  3  0  0  0  0  0  0
  188.0380  177.8560  143.8460 C   0  0  0  0  0  0  0  0  0  0  0  0
  183.8140  179.7870  139.3780 C   0  0  0  0  0  2  0  0  0  0  0  0
  184.9920  178.8800  139.3560 C   0  0  0  0  0  3  0  0  0  0  0  0
  185.4490  178.2730  140.4480 C   0  0  0  0  0  3  0  0  0  0  0  0
  182.6200  179.0300  139.7280 N   0  0  0  0  0  0  0  0  0  0  0  0
  182.4320  178.5700  141.0760 C   0  0  0  0  0  0  0  0  0  0  0  0
  184.8630  178.3560  141.8100 C   0  0  0  0  0  0  0  0  0  0  0  0
  183.5410  178.4600  142.0460 C   0  0  0  0  0  3  0  0  0  0  0  0
  181.2750  178.2730  141.4750 O   0  0  0  0  0  0  0  0  0  0  0  0
  181.8480  178.3190  137.5440 C   0  0  0  0  0  2  0  0  0  0  0  0
  181.5890  178.8000  138.7550 C   0  0  0  0  0  3  0  0  0  0  0  0
  188.4350  177.8190  146.2370 O   0  0  0  0  0  0  0  0  0  0  0  0
  188.1180  177.0820  147.4100 C   0  0  0  0  0  1  0  0  0  0  0  0
  189.5040  177.6220  143.6050 C   0  0  1  0  0  3  0  0  0  0  0  0
  190.3780  178.2830  144.6780 C   0  0  0  0  0  3  0  0  0  0  0  0
  191.0500  179.5260  144.1250 C   0  0  0  0  0  1  0  0  0  0  0  0
  191.4280  177.3400  145.2530 C   0  0  0  0  0  1  0  0  0  0  0  0
  189.8330  176.1440  143.3760 C   0  0  0  0  0  2  0  0  0  0  0  0
  189.9230  175.8690  141.9510 N   0  0  0  0  0  2  0  0  0  0  0  0
  190.6630  176.9660  141.3480 C   0  0  0  0  0  2  0  0  0  0  0  0
  190.2650  177.0910  138.8690 C   0  0  0  0  0  3  0  0  0  0  0  0
  189.9590  177.4470  140.1210 C   0  0  0  0  0  3  0  0  0  0  0  0
  191.3580  176.1970  138.4460 C   0  0  0  0  0  0  0  0  0  0  0  0
  192.5290  176.6550  138.3890 O   0  0  0  0  0  0  0  0  0  0  0  0
  191.1330  174.8270  138.1260 N   0  0  0  0  0  1  0  0  0  0  0  0
  1  3  1  0  0  0  0
  1 17  1  0  0  0  0
  2  5  1  0  0  0  0
  4  2  2  0  0  0  0
  4  6  1  0  0  0  0
  5  3  2  0  0  0  0
  6  1  2  0  0  0  0
  7 10  1  0  0  0  0
  8  7  1  0  0  0  0
  8  9  2  0  0  0  0
  9 12  1  0  0  0  0
 10 11  1  0  0  0  0
 11 14  2  0  0  0  0
 11 13  1  0  0  0  0
 12 13  2  0  0  0  0
 12  2  1  0  0  0  0
 15 16  2  0  0  0  0
 16 10  1  0  0  0  0
 17 18  1  0  0  0  0
 19 23  1  1  0  0  0
 19  6  1  0  0  0  0
 19 20  1  0  0  0  0
 20 22  1  0  0  0  0
 21 20  1  0  0  0  0
 24 23  1  0  0  0  0
 25 24  1  0  0  0  0
 26 27  2  0  0  0  0
 27 25  1  0  0  0  0
 28 26  1  0  0  0  0
 29 28  2  0  0  0  0
 30 28  1  0  0  0  0
M  END
>  <MODEL>
7

>  <REMARK>
 VINA RESULT:      -7.5      1.607      2.139
  Name = 
  10 active torsions:
  status: ('A' for Active; 'I' for Inactive)
    1  A    between atoms: N_4  and  C_12
    2  A    between atoms: N_4  and  C_21
    3  A    between atoms: C_5  and  C_28
    4  A    between atoms: C_6  and  C_18
    5  A    between atoms: O_7  and  C_8
    6  A    between atoms: C_9  and  C_16
    7  A    between atoms: C_12  and  C_28
    8  A    between atoms: N_13  and  C_17
    9  A    between atoms: C_21  and  C_24
   10  A    between atoms: C_28  and  C_30
                            x       y       z     vdW  Elec       q    Type
                         _______ _______ _______ _____ _____    ______ ____

>  <TORSDO>
F 10

$$$$
=
 OpenBabel11042412063D

 30 31  0  0  1  0  0  0  0  0999 V2000
  189.8640  177.4940  139.1260 C   0  0  0  0  0  0  0  0  0  0  0  0
  189.2120  177.2880  141.8680 C   0  0  0  0  0  0  0  0  0  0  0  0
  190.8410  177.1330  140.0660 C   0  0  0  0  0  3  0  0  0  0  0  0
  188.2390  177.6490  140.9220 C   0  0  0  0  0  3  0  0  0  0  0  0
  190.5180  177.0340  141.4220 C   0  0  0  0  0  3  0  0  0  0  0  0
  188.5540  177.7560  139.5600 C   0  0  0  0  0  0  0  0  0  0  0  0
  187.3690  178.0740  145.7740 C   0  0  0  0  0  2  0  0  0  0  0  0
  186.8010  177.1560  144.7520 C   0  0  0  0  0  3  0  0  0  0  0  0
  187.4720  176.7970  143.6600 C   0  0  0  0  0  3  0  0  0  0  0  0
  188.5150  177.4450  146.4150 N   0  0  0  0  0  0  0  0  0  0  0  0
  189.7500  177.3030  145.6950 C   0  0  0  0  0  0  0  0  0  0  0  0
  188.8590  177.1970  143.3100 C   0  0  0  0  0  0  0  0  0  0  0  0
  189.8330  177.3850  144.2220 C   0  0  0  0  0  3  0  0  0  0  0  0
  190.8240  177.1310  146.3320 O   0  0  0  0  0  0  0  0  0  0  0  0
  188.1980  177.8810  148.7770 C   0  0  0  0  0  2  0  0  0  0  0  0
  188.4480  177.0300  147.7880 C   0  0  0  0  0  3  0  0  0  0  0  0
  190.1770  177.5990  137.7650 O   0  0  0  0  0  0  0  0  0  0  0  0
  191.0540  176.6970  137.1040 C   0  0  0  0  0  1  0  0  0  0  0  0
  187.4980  178.1490  138.5630 C   0  0  1  0  0  3  0  0  0  0  0  0
  187.6060  177.3460  137.2600 C   0  0  0  0  0  3  0  0  0  0  0  0
  187.3370  178.2370  136.0620 C   0  0  0  0  0  1  0  0  0  0  0  0
  186.6760  176.1400  137.2270 C   0  0  0  0  0  1  0  0  0  0  0  0
  186.0910  178.1470  139.1650 C   0  0  0  0  0  2  0  0  0  0  0  0
  185.3620  179.3290  138.7350 N   0  0  0  0  0  2  0  0  0  0  0  0
  184.1290  179.3750  139.5040 C   0  0  0  0  0  2  0  0  0  0  0  0
  184.0730  177.9650  141.5840 C   0  0  0  0  0  3  0  0  0  0  0  0
  183.9480  178.0990  140.2600 C   0  0  0  0  0  3  0  0  0  0  0  0
  184.4410  179.0170  142.5490 C   0  0  0  0  0  0  0  0  0  0  0  0
  183.6640  179.2610  143.5080 O   0  0  0  0  0  0  0  0  0  0  0  0
  185.6610  179.7470  142.4420 N   0  0  0  0  0  1  0  0  0  0  0  0
  1  6  2  0  0  0  0
  1  3  1  0  0  0  0
  2 12  1  0  0  0  0
  3  5  2  0  0  0  0
  4  2  2  0  0  0  0
  5  2  1  0  0  0  0
  6  4  1  0  0  0  0
  7 10  1  0  0  0  0
  8  7  1  0  0  0  0
  9  8  2  0  0  0  0
 10 16  1  0  0  0  0
 11 14  2  0  0  0  0
 11 10  1  0  0  0  0
 12  9  1  0  0  0  0
 12 13  2  0  0  0  0
 13 11  1  0  0  0  0
 16 15  2  0  0  0  0
 17  1  1  0  0  0  0
 18 17  1  0  0  0  0
 19 23  1  1  0  0  0
 19  6  1  0  0  0  0
 20 19  1  0  0  0  0
 21 20  1  0  0  0  0
 22 20  1  0  0  0  0
 24 23  1  0  0  0  0
 24 25  1  0  0  0  0
 25 27  1  0  0  0  0
 26 28  1  0  0  0  0
 27 26  2  0  0  0  0
 28 29  2  0  0  0  0
 30 28  1  0  0  0  0
M  END
>  <MODEL>
8

>  <REMARK>
 VINA RESULT:      -7.5      2.115      7.409
  Name = 
  10 active torsions:
  status: ('A' for Active; 'I' for Inactive)
    1  A    between atoms: N_4  and  C_12
    2  A    between atoms: N_4  and  C_21
    3  A    between atoms: C_5  and  C_28
    4  A    between atoms: C_6  and  C_18
    5  A    between atoms: O_7  and  C_8
    6  A    between atoms: C_9  and  C_16
    7  A    between atoms: C_12  and  C_28
    8  A    between atoms: N_13  and  C_17
    9  A    between atoms: C_21  and  C_24
   10  A    between atoms: C_28  and  C_30
                            x       y       z     vdW  Elec       q    Type
                         _______ _______ _______ _____ _____    ______ ____

>  <TORSDO>
F 10

$$$$
=
 OpenBabel11042412063D

 30 31  0  0  1  0  0  0  0  0999 V2000
  191.6300  177.0800  139.0770 C   0  0  0  0  0  0  0  0  0  0  0  0
  190.5890  176.9870  141.7030 C   0  0  0  0  0  0  0  0  0  0  0  0
  192.4840  177.1680  140.1870 C   0  0  0  0  0  3  0  0  0  0  0  0
  189.7390  176.9000  140.5890 C   0  0  0  0  0  3  0  0  0  0  0  0
  191.9690  177.1240  141.4840 C   0  0  0  0  0  3  0  0  0  0  0  0
  190.2460  176.9470  139.2820 C   0  0  0  0  0  0  0  0  0  0  0  0
  188.1500  177.8790  145.2420 C   0  0  0  0  0  2  0  0  0  0  0  0
  187.7790  176.8850  144.2010 C   0  0  0  0  0  3  0  0  0  0  0  0
  188.6210  176.5040  143.2430 C   0  0  0  0  0  3  0  0  0  0  0  0
  189.2110  177.3370  146.0810 N   0  0  0  0  0  0  0  0  0  0  0  0
  190.5450  177.2180  145.5610 C   0  0  0  0  0  0  0  0  0  0  0  0
  190.0280  176.9510  143.0800 C   0  0  0  0  0  0  0  0  0  0  0  0
  190.8440  177.2300  144.1140 C   0  0  0  0  0  3  0  0  0  0  0  0
  191.5170  177.1300  146.3580 O   0  0  0  0  0  0  0  0  0  0  0  0
  188.6780  177.8990  148.3770 C   0  0  0  0  0  2  0  0  0  0  0  0
  188.9550  176.9880  147.4500 C   0  0  0  0  0  3  0  0  0  0  0  0
  192.1350  177.1250  137.7720 O   0  0  0  0  0  0  0  0  0  0  0  0
  193.2330  176.3320  137.3430 C   0  0  0  0  0  1  0  0  0  0  0  0
  189.3180  176.8580  138.1010 C   0  0  1  0  0  3  0  0  0  0  0  0
  189.3600  175.4760  137.4370 C   0  0  0  0  0  3  0  0  0  0  0  0
  189.9520  175.5740  136.0430 C   0  0  0  0  0  1  0  0  0  0  0  0
  187.9940  174.8060  137.3730 C   0  0  0  0  0  1  0  0  0  0  0  0
  187.9000  177.3320  138.4320 C   0  0  0  0  0  2  0  0  0  0  0  0
  187.6640  178.6420  137.8450 N   0  0  0  0  0  2  0  0  0  0  0  0
  186.5140  178.5140  136.9640 C   0  0  0  0  0  2  0  0  0  0  0  0
  184.7000  177.9810  138.6220 C   0  0  0  0  0  3  0  0  0  0  0  0
  185.4810  177.6360  137.5920 C   0  0  0  0  0  3  0  0  0  0  0  0
  184.7200  179.2580  139.3570 C   0  0  0  0  0  0  0  0  0  0  0  0
  184.1790  180.2680  138.8360 O   0  0  0  0  0  0  0  0  0  0  0  0
  185.3100  179.3770  140.6490 N   0  0  0  0  0  1  0  0  0  0  0  0
  1  6  2  0  0  0  0
  1  3  1  0  0  0  0
  2 12  1  0  0  0  0
  3  5  2  0  0  0  0
  4  2  2  0  0  0  0
  5  2  1  0  0  0  0
  6  4  1  0  0  0  0
  7 10  1  0  0  0  0
  8  7  1  0  0  0  0
  9  8  2  0  0  0  0
 10 16  1  0  0  0  0
 11 10  1  0  0  0  0
 11 14  2  0  0  0  0
 12  9  1  0  0  0  0
 12 13  2  0  0  0  0
 13 11  1  0  0  0  0
 16 15  2  0  0  0  0
 17  1  1  0  0  0  0
 18 17  1  0  0  0  0
 19 23  1  1  0  0  0
 19  6  1  0  0  0  0
 20 19  1  0  0  0  0
 21 20  1  0  0  0  0
 22 20  1  0  0  0  0
 24 23  1  0  0  0  0
 25 27  1  0  0  0  0
 25 24  1  0  0  0  0
 26 28  1  0  0  0  0
 27 26  2  0  0  0  0
 28 30  1  0  0  0  0
 29 28  2  0  0  0  0
M  END
>  <MODEL>
9

>  <REMARK>
 VINA RESULT:      -7.4      2.429      7.509
  Name = 
  10 active torsions:
  status: ('A' for Active; 'I' for Inactive)
    1  A    between atoms: N_4  and  C_12
    2  A    between atoms: N_4  and  C_21
    3  A    between atoms: C_5  and  C_28
    4  A    between atoms: C_6  and  C_18
    5  A    between atoms: O_7  and  C_8
    6  A    between atoms: C_9  and  C_16
    7  A    between atoms: C_12  and  C_28
    8  A    between atoms: N_13  and  C_17
    9  A    between atoms: C_21  and  C_24
   10  A    between atoms: C_28  and  C_30
                            x       y       z     vdW  Elec       q    Type
                         _______ _______ _______ _____ _____    ______ ____

>  <TORSDO>
F 10

$$$$
