=
 OpenBabel11032419263D

 30 33  0  0  1  0  0  0  0  0999 V2000
  189.4150  177.0490  140.8050 O   0  0  0  0  0  0  0  0  0  0  0  0
  185.8410  177.9270  144.8790 N   0  0  0  0  0  0  0  0  0  0  0  0
  181.4480  179.2580  143.4190 N   0  0  0  0  0  1  0  0  0  0  0  0
  182.8140  178.9840  143.1410 C   0  0  0  0  0  0  0  0  0  0  0  0
  184.5950  178.8750  141.5700 C   0  0  0  0  0  0  0  0  0  0  0  0
  185.4860  178.4410  142.5670 C   0  0  0  0  0  0  0  0  0  0  0  0
  183.2940  179.1340  141.8780 N   0  0  0  0  0  0  0  0  0  0  0  0
  184.3640  179.6190  139.3300 O   0  0  0  0  0  0  0  0  0  0  0  0
  186.8400  178.1440  142.2750 C   0  0  0  0  0  0  0  0  0  0  0  0
  185.0050  178.3110  143.8850 C   0  0  0  0  0  0  0  0  0  0  0  0
  186.4450  178.8630  139.9480 O   0  0  0  0  0  0  0  0  0  0  0  0
  185.1050  179.1250  140.2200 C   0  0  0  0  0  0  0  0  0  0  0  0
  189.5870  176.6490  142.1280 C   0  0  0  0  0  0  0  0  0  0  0  0
  189.1760  177.5340  143.2610 C   0  0  2  0  0  3  0  0  0  0  0  0
  187.1500  177.6650  144.6430 C   0  0  0  0  0  3  0  0  0  0  0  0
  183.6660  178.5770  144.1700 C   0  0  0  0  0  3  0  0  0  0  0  0
  187.6880  177.7580  143.3550 C   0  0  0  0  0  0  0  0  0  0  0  0
  188.7010  178.2300  140.4790 C   0  0  0  0  0  2  0  0  0  0  0  0
  190.1220  175.5380  142.3760 O   0  0  0  0  0  0  0  0  0  0  0  0
  187.2310  178.0290  140.7980 C   0  0  1  0  0  3  0  0  0  0  0  0
  189.9580  178.8450  143.2470 C   0  0  0  0  0  2  0  0  0  0  0  0
  191.7260  178.5600  143.5670 S   0  0  0  0  0  0  0  0  0  0  0  0
  191.4280  178.1250  145.3030 C   0  0  0  0  0  2  0  0  0  0  0  0
  191.7890  176.3660  145.5580 S   0  0  0  0  0  0  0  0  0  0  0  0
  191.9780  176.8810  148.1410 O   0  0  0  0  0  0  0  0  0  0  0  0
  191.2140  176.4240  147.2480 C   0  0  0  0  0  0  0  0  0  0  0  0
  189.8860  175.9720  147.5500 N   0  0  0  0  0  0  0  0  0  0  0  0
  188.8550  176.7050  147.8580 C   0  0  0  0  0  3  0  0  0  0  0  0
  187.5400  178.7020  148.1750 N   0  0  0  0  0  1  0  0  0  0  0  0
  188.8880  178.1940  147.9890 C   0  0  0  0  0  2  0  0  0  0  0  0
  1 13  1  0  0  0  0
  4  3  1  0  0  0  0
  4 16  2  0  0  0  0
  5  7  2  0  0  0  0
  5  6  1  0  0  0  0
  6 10  1  0  0  0  0
  7  4  1  0  0  0  0
  8 12  2  0  0  0  0
  9  6  2  0  0  0  0
  9 17  1  0  0  0  0
 10 16  1  0  0  0  0
 10  2  2  0  0  0  0
 11 12  1  0  0  0  0
 11 20  1  0  0  0  0
 12  5  1  0  0  0  0
 13 19  2  0  0  0  0
 13 14  1  0  0  0  0
 14 21  1  6  0  0  0
 14 17  1  0  0  0  0
 15  2  1  0  0  0  0
 17 15  2  0  0  0  0
 18  1  1  0  0  0  0
 20 18  1  1  0  0  0
 20  9  1  0  0  0  0
 21 22  1  0  0  0  0
 22 23  1  0  0  0  0
 23 24  1  0  0  0  0
 24 26  1  0  0  0  0
 26 27  1  0  0  0  0
 26 25  2  0  0  0  0
 27 28  2  0  0  0  0
 28 30  1  0  0  0  0
 30 29  1  0  0  0  0
M  END
>  <MODEL>
1

>  <REMARK>
 VINA RESULT:      -7.4      0.000      0.000
  Name = 
  7 active torsions:
  status: ('A' for Active; 'I' for Inactive)
    1  A    between atoms: C_1  and  S_8
    2  A    between atoms: C_1  and  S_18
    3  A    between atoms: S_8  and  C_11
    4  A    between atoms: N_9  and  C_21
    5  A    between atoms: C_11  and  C_24
    6  A    between atoms: C_16  and  C_20
    7  A    between atoms: S_18  and  C_21
                            x       y       z     vdW  Elec       q    Type
                         _______ _______ _______ _____ _____    ______ ____

>  <TORSDO>
F 7

$$$$
=
 OpenBabel11032419263D

 30 33  0  0  1  0  0  0  0  0999 V2000
  190.2820  177.9820  138.5960 O   0  0  0  0  0  0  0  0  0  0  0  0
  186.3700  178.4670  142.4180 N   0  0  0  0  0  0  0  0  0  0  0  0
  187.7880  177.3070  146.8740 N   0  0  0  0  0  1  0  0  0  0  0  0
  188.0260  177.3620  145.4730 C   0  0  0  0  0  0  0  0  0  0  0  0
  189.4540  176.9090  143.6280 C   0  0  0  0  0  0  0  0  0  0  0  0
  188.5230  177.4670  142.7340 C   0  0  0  0  0  0  0  0  0  0  0  0
  189.1850  176.8700  144.9620 N   0  0  0  0  0  0  0  0  0  0  0  0
  191.4760  175.6900  143.8510 O   0  0  0  0  0  0  0  0  0  0  0  0
  188.7810  177.5420  141.3440 C   0  0  0  0  0  0  0  0  0  0  0  0
  187.3060  177.9530  143.2510 C   0  0  0  0  0  0  0  0  0  0  0  0
  190.9050  176.3440  141.7230 O   0  0  0  0  0  0  0  0  0  0  0  0
  190.6730  176.2980  143.0950 C   0  0  0  0  0  0  0  0  0  0  0  0
  189.0760  178.6590  138.4330 C   0  0  0  0  0  0  0  0  0  0  0  0
  187.8020  178.1130  138.9950 C   0  0  2  0  0  3  0  0  0  0  0  0
  186.5690  178.5260  141.0780 C   0  0  0  0  0  3  0  0  0  0  0  0
  187.0600  177.9050  144.6240 C   0  0  0  0  0  3  0  0  0  0  0  0
  187.7620  178.0770  140.5010 C   0  0  0  0  0  0  0  0  0  0  0  0
  190.3780  176.8400  139.4320 C   0  0  0  0  0  2  0  0  0  0  0  0
  189.0510  179.7340  137.7810 O   0  0  0  0  0  0  0  0  0  0  0  0
  190.2150  177.2650  140.8790 C   0  0  1  0  0  3  0  0  0  0  0  0
  187.4630  176.7600  138.3760 C   0  0  0  0  0  2  0  0  0  0  0  0
  186.4370  176.9560  136.8860 S   0  0  0  0  0  0  0  0  0  0  0  0
  185.4490  178.2790  137.6390 C   0  0  0  0  0  2  0  0  0  0  0  0
  183.8940  177.5890  138.2680 S   0  0  0  0  0  0  0  0  0  0  0  0
  184.2570  180.0960  139.0160 O   0  0  0  0  0  0  0  0  0  0  0  0
  183.4340  179.1410  139.0230 C   0  0  0  0  0  0  0  0  0  0  0  0
  182.1280  179.2770  139.6020 N   0  0  0  0  0  0  0  0  0  0  0  0
  181.7910  179.0780  140.8440 C   0  0  0  0  0  3  0  0  0  0  0  0
  182.2260  179.0090  143.2150 N   0  0  0  0  0  1  0  0  0  0  0  0
  182.7350  178.6230  141.9110 C   0  0  0  0  0  2  0  0  0  0  0  0
  1 18  1  0  0  0  0
  2 10  1  0  0  0  0
  4  3  1  0  0  0  0
  5  7  2  0  0  0  0
  6 10  2  0  0  0  0
  6  5  1  0  0  0  0
  7  4  1  0  0  0  0
  9  6  1  0  0  0  0
 10 16  1  0  0  0  0
 11 12  1  0  0  0  0
 12  5  1  0  0  0  0
 12  8  2  0  0  0  0
 13  1  1  0  0  0  0
 13 14  1  0  0  0  0
 14 21  1  6  0  0  0
 14 17  1  0  0  0  0
 15  2  2  0  0  0  0
 16  4  2  0  0  0  0
 17 15  1  0  0  0  0
 17  9  2  0  0  0  0
 19 13  2  0  0  0  0
 20 18  1  6  0  0  0
 20  9  1  0  0  0  0
 20 11  1  0  0  0  0
 22 23  1  0  0  0  0
 22 21  1  0  0  0  0
 23 24  1  0  0  0  0
 24 26  1  0  0  0  0
 25 26  2  0  0  0  0
 26 27  1  0  0  0  0
 27 28  2  0  0  0  0
 28 30  1  0  0  0  0
 30 29  1  0  0  0  0
M  END
>  <MODEL>
2

>  <REMARK>
 VINA RESULT:      -7.2      3.174      7.009
  Name = 
  7 active torsions:
  status: ('A' for Active; 'I' for Inactive)
    1  A    between atoms: C_1  and  S_8
    2  A    between atoms: C_1  and  S_18
    3  A    between atoms: S_8  and  C_11
    4  A    between atoms: N_9  and  C_21
    5  A    between atoms: C_11  and  C_24
    6  A    between atoms: C_16  and  C_20
    7  A    between atoms: S_18  and  C_21
                            x       y       z     vdW  Elec       q    Type
                         _______ _______ _______ _____ _____    ______ ____

>  <TORSDO>
F 7

$$$$
=
 OpenBabel11032419263D

 30 33  0  0  1  0  0  0  0  0999 V2000
  190.2100  178.0050  138.4640 O   0  0  0  0  0  0  0  0  0  0  0  0
  185.9990  178.5410  141.9460 N   0  0  0  0  0  0  0  0  0  0  0  0
  187.0420  177.4240  146.5150 N   0  0  0  0  0  1  0  0  0  0  0  0
  187.3950  177.4630  145.1390 C   0  0  0  0  0  0  0  0  0  0  0  0
  188.9680  176.9880  143.4220 C   0  0  0  0  0  0  0  0  0  0  0  0
  188.1160  177.5390  142.4490 C   0  0  0  0  0  0  0  0  0  0  0  0
  188.5910  176.9630  144.7300 N   0  0  0  0  0  0  0  0  0  0  0  0
  190.9610  175.7660  143.8230 O   0  0  0  0  0  0  0  0  0  0  0  0
  188.4870  177.5980  141.0830 C   0  0  0  0  0  0  0  0  0  0  0  0
  186.8620  178.0330  142.8590 C   0  0  0  0  0  0  0  0  0  0  0  0
  190.5690  176.3990  141.6480 O   0  0  0  0  0  0  0  0  0  0  0  0
  190.2250  176.3670  142.9970 C   0  0  0  0  0  0  0  0  0  0  0  0
  189.0240  178.6840  138.1960 C   0  0  0  0  0  0  0  0  0  0  0  0
  187.7070  178.1470  138.6560 C   0  0  2  0  0  3  0  0  0  0  0  0
  186.3080  178.5840  140.6270 C   0  0  0  0  0  3  0  0  0  0  0  0
  186.5040  178.0000  144.2070 C   0  0  0  0  0  3  0  0  0  0  0  0
  187.5430  178.1270  140.1550 C   0  0  0  0  0  0  0  0  0  0  0  0
  190.2340  176.8720  139.3170 C   0  0  0  0  0  2  0  0  0  0  0  0
  189.0570  179.7520  137.5320 O   0  0  0  0  0  0  0  0  0  0  0  0
  189.9530  177.3130  140.7410 C   0  0  1  0  0  3  0  0  0  0  0  0
  187.4160  176.7890  138.0250 C   0  0  0  0  0  2  0  0  0  0  0  0
  187.7520  176.8070  136.2370 S   0  0  0  0  0  0  0  0  0  0  0  0
  188.6700  175.2440  136.3080 C   0  0  0  0  0  2  0  0  0  0  0  0
  190.3270  175.4830  135.6090 S   0  0  0  0  0  0  0  0  0  0  0  0
  190.3090  173.7120  137.5680 O   0  0  0  0  0  0  0  0  0  0  0  0
  191.0280  174.2300  136.6710 C   0  0  0  0  0  0  0  0  0  0  0  0
  192.3880  173.8210  136.4660 N   0  0  0  0  0  0  0  0  0  0  0  0
  193.4540  174.3160  137.0270 C   0  0  0  0  0  3  0  0  0  0  0  0
  193.6560  176.7060  137.2710 N   0  0  0  0  0  1  0  0  0  0  0  0
  193.4460  175.4600  137.9880 C   0  0  0  0  0  2  0  0  0  0  0  0
  1 18  1  0  0  0  0
  2 10  1  0  0  0  0
  4  3  1  0  0  0  0
  5  7  2  0  0  0  0
  6 10  2  0  0  0  0
  6  5  1  0  0  0  0
  7  4  1  0  0  0  0
  9  6  1  0  0  0  0
 10 16  1  0  0  0  0
 11 12  1  0  0  0  0
 12  5  1  0  0  0  0
 12  8  2  0  0  0  0
 13  1  1  0  0  0  0
 13 14  1  0  0  0  0
 14 21  1  1  0  0  0
 14 17  1  0  0  0  0
 15  2  2  0  0  0  0
 16  4  2  0  0  0  0
 17 15  1  0  0  0  0
 17  9  2  0  0  0  0
 19 13  2  0  0  0  0
 20 18  1  6  0  0  0
 20  9  1  0  0  0  0
 20 11  1  0  0  0  0
 22 23  1  0  0  0  0
 22 21  1  0  0  0  0
 24 23  1  0  0  0  0
 24 26  1  0  0  0  0
 26 25  2  0  0  0  0
 27 26  1  0  0  0  0
 27 28  2  0  0  0  0
 28 30  1  0  0  0  0
 29 30  1  0  0  0  0
M  END
>  <MODEL>
3

>  <REMARK>
 VINA RESULT:      -7.2      4.626      7.235
  Name = 
  7 active torsions:
  status: ('A' for Active; 'I' for Inactive)
    1  A    between atoms: C_1  and  S_8
    2  A    between atoms: C_1  and  S_18
    3  A    between atoms: S_8  and  C_11
    4  A    between atoms: N_9  and  C_21
    5  A    between atoms: C_11  and  C_24
    6  A    between atoms: C_16  and  C_20
    7  A    between atoms: S_18  and  C_21
                            x       y       z     vdW  Elec       q    Type
                         _______ _______ _______ _____ _____    ______ ____

>  <TORSDO>
F 7

$$$$
=
 OpenBabel11032419263D

 30 33  0  0  1  0  0  0  0  0999 V2000
  189.8100  178.1910  139.3390 O   0  0  0  0  0  0  0  0  0  0  0  0
  184.6220  179.0170  140.9360 N   0  0  0  0  0  0  0  0  0  0  0  0
  183.9610  178.8700  145.7050 N   0  0  0  0  0  1  0  0  0  0  0  0
  184.7850  178.6790  144.5630 C   0  0  0  0  0  0  0  0  0  0  0  0
  186.8760  178.0230  143.6440 C   0  0  0  0  0  0  0  0  0  0  0  0
  186.4260  178.3080  142.3420 C   0  0  0  0  0  0  0  0  0  0  0  0
  186.0530  178.2130  144.7110 N   0  0  0  0  0  0  0  0  0  0  0  0
  188.6040  177.0690  144.9590 O   0  0  0  0  0  0  0  0  0  0  0  0
  187.2640  178.1400  141.2130 C   0  0  0  0  0  0  0  0  0  0  0  0
  185.1030  178.7630  142.1760 C   0  0  0  0  0  0  0  0  0  0  0  0
  189.0140  177.2470  142.7050 O   0  0  0  0  0  0  0  0  0  0  0  0
  188.2080  177.4410  143.8230 C   0  0  0  0  0  0  0  0  0  0  0  0
  188.7930  178.7050  138.5390 C   0  0  0  0  0  0  0  0  0  0  0  0
  187.4040  178.1560  138.6080 C   0  0  2  0  0  3  0  0  0  0  0  0
  185.3850  178.8380  139.8300 C   0  0  0  0  0  3  0  0  0  0  0  0
  184.2840  178.9550  143.2890 C   0  0  0  0  0  3  0  0  0  0  0  0
  186.7110  178.4040  139.9250 C   0  0  0  0  0  0  0  0  0  0  0  0
  189.5360  177.2440  140.3600 C   0  0  0  0  0  2  0  0  0  0  0  0
  189.0510  179.6290  137.7250 O   0  0  0  0  0  0  0  0  0  0  0  0
  188.7570  177.9200  141.4720 C   0  0  1  0  0  3  0  0  0  0  0  0
  187.3740  176.6840  138.2090 C   0  0  0  0  0  2  0  0  0  0  0  0
  187.3080  176.4930  136.4010 S   0  0  0  0  0  0  0  0  0  0  0  0
  188.6810  175.3070  136.3920 C   0  0  0  0  0  2  0  0  0  0  0  0
  190.2400  176.1880  136.1040 S   0  0  0  0  0  0  0  0  0  0  0  0
  190.7550  174.0970  137.6330 O   0  0  0  0  0  0  0  0  0  0  0  0
  191.0610  175.3010  137.4190 C   0  0  0  0  0  0  0  0  0  0  0  0
  192.0700  175.9700  138.1890 N   0  0  0  0  0  0  0  0  0  0  0  0
  193.3110  176.1780  137.8520 C   0  0  0  0  0  3  0  0  0  0  0  0
  194.7350  176.7670  135.9970 N   0  0  0  0  0  1  0  0  0  0  0  0
  193.9280  175.7070  136.5750 C   0  0  0  0  0  2  0  0  0  0  0  0
  1 18  1  0  0  0  0
  2 10  1  0  0  0  0
  4  7  1  0  0  0  0
  4  3  1  0  0  0  0
  5 12  1  0  0  0  0
  5  7  2  0  0  0  0
  6  5  1  0  0  0  0
  9 20  1  0  0  0  0
  9  6  1  0  0  0  0
 10  6  2  0  0  0  0
 10 16  1  0  0  0  0
 11 12  1  0  0  0  0
 12  8  2  0  0  0  0
 13 14  1  0  0  0  0
 13  1  1  0  0  0  0
 14 21  1  1  0  0  0
 14 17  1  0  0  0  0
 15 17  1  0  0  0  0
 15  2  2  0  0  0  0
 16  4  2  0  0  0  0
 17  9  2  0  0  0  0
 19 13  2  0  0  0  0
 20 18  1  6  0  0  0
 20 11  1  0  0  0  0
 22 21  1  0  0  0  0
 23 22  1  0  0  0  0
 24 23  1  0  0  0  0
 24 26  1  0  0  0  0
 26 25  2  0  0  0  0
 26 27  1  0  0  0  0
 28 27  2  0  0  0  0
 29 30  1  0  0  0  0
 30 28  1  0  0  0  0
M  END
>  <MODEL>
4

>  <REMARK>
 VINA RESULT:      -7.1      4.469      6.816
  Name = 
  7 active torsions:
  status: ('A' for Active; 'I' for Inactive)
    1  A    between atoms: C_1  and  S_8
    2  A    between atoms: C_1  and  S_18
    3  A    between atoms: S_8  and  C_11
    4  A    between atoms: N_9  and  C_21
    5  A    between atoms: C_11  and  C_24
    6  A    between atoms: C_16  and  C_20
    7  A    between atoms: S_18  and  C_21
                            x       y       z     vdW  Elec       q    Type
                         _______ _______ _______ _____ _____    ______ ____

>  <TORSDO>
F 7

$$$$
=
 OpenBabel11032419263D

 30 33  0  0  1  0  0  0  0  0999 V2000
  190.7200  176.1770  141.0950 O   0  0  0  0  0  0  0  0  0  0  0  0
  185.9000  178.2720  142.6840 N   0  0  0  0  0  0  0  0  0  0  0  0
  183.0760  179.7320  139.0640 N   0  0  0  0  0  1  0  0  0  0  0  0
  184.3270  179.2600  139.5450 C   0  0  0  0  0  0  0  0  0  0  0  0
  186.5770  178.6330  139.1040 C   0  0  0  0  0  0  0  0  0  0  0  0
  186.7870  178.3240  140.4600 C   0  0  0  0  0  0  0  0  0  0  0  0
  185.3650  179.0890  138.6840 N   0  0  0  0  0  0  0  0  0  0  0  0
  187.5820  178.9100  136.9740 O   0  0  0  0  0  0  0  0  0  0  0  0
  188.0290  177.8280  140.9250 C   0  0  0  0  0  0  0  0  0  0  0  0
  185.7260  178.5260  141.3650 C   0  0  0  0  0  0  0  0  0  0  0  0
  188.9290  178.0800  138.6410 O   0  0  0  0  0  0  0  0  0  0  0  0
  187.7010  178.5370  138.1710 C   0  0  0  0  0  0  0  0  0  0  0  0
  190.1650  176.0480  142.3660 C   0  0  0  0  0  0  0  0  0  0  0  0
  189.4520  177.1900  143.0160 C   0  0  2  0  0  3  0  0  0  0  0  0
  187.0850  177.8260  143.1690 C   0  0  0  0  0  3  0  0  0  0  0  0
  184.4930  178.9890  140.9050 C   0  0  0  0  0  3  0  0  0  0  0  0
  188.1730  177.5880  142.3230 C   0  0  0  0  0  0  0  0  0  0  0  0
  190.4930  177.3340  140.3060 C   0  0  0  0  0  2  0  0  0  0  0  0
  190.2880  174.9630  142.9890 O   0  0  0  0  0  0  0  0  0  0  0  0
  189.0400  177.3640  139.8710 C   0  0  1  0  0  3  0  0  0  0  0  0
  190.3880  178.3760  143.2250 C   0  0  0  0  0  2  0  0  0  0  0  0
  191.4380  178.1360  144.6910 S   0  0  0  0  0  0  0  0  0  0  0  0
  190.1170  177.2900  145.6020 C   0  0  0  0  0  2  0  0  0  0  0  0
  190.4920  177.3170  147.3770 S   0  0  0  0  0  0  0  0  0  0  0  0
  188.4540  178.0820  148.8720 O   0  0  0  0  0  0  0  0  0  0  0  0
  188.7670  177.4830  147.8070 C   0  0  0  0  0  0  0  0  0  0  0  0
  187.7700  176.9550  146.9190 N   0  0  0  0  0  0  0  0  0  0  0  0
  186.6390  177.5070  146.5850 C   0  0  0  0  0  3  0  0  0  0  0  0
  184.9970  179.2570  146.3530 N   0  0  0  0  0  1  0  0  0  0  0  0
  186.1510  178.8160  147.1170 C   0  0  0  0  0  2  0  0  0  0  0  0
  1 13  1  0  0  0  0
  2 15  1  0  0  0  0
  3  4  1  0  0  0  0
  4 16  2  0  0  0  0
  5  6  1  0  0  0  0
  6  9  2  0  0  0  0
  6 10  1  0  0  0  0
  7  5  2  0  0  0  0
  7  4  1  0  0  0  0
  8 12  2  0  0  0  0
  9 17  1  0  0  0  0
 10  2  2  0  0  0  0
 11 20  1  0  0  0  0
 12 11  1  0  0  0  0
 12  5  1  0  0  0  0
 13 19  2  0  0  0  0
 13 14  1  0  0  0  0
 14 21  1  6  0  0  0
 16 10  1  0  0  0  0
 17 14  1  0  0  0  0
 17 15  2  0  0  0  0
 18  1  1  0  0  0  0
 20 18  1  1  0  0  0
 20  9  1  0  0  0  0
 21 22  1  0  0  0  0
 22 23  1  0  0  0  0
 23 24  1  0  0  0  0
 24 26  1  0  0  0  0
 26 25  2  0  0  0  0
 27 26  1  0  0  0  0
 28 27  2  0  0  0  0
 28 30  1  0  0  0  0
 29 30  1  0  0  0  0
M  END
>  <MODEL>
5

>  <REMARK>
 VINA RESULT:      -6.9      2.117      2.653
  Name = 
  7 active torsions:
  status: ('A' for Active; 'I' for Inactive)
    1  A    between atoms: C_1  and  S_8
    2  A    between atoms: C_1  and  S_18
    3  A    between atoms: S_8  and  C_11
    4  A    between atoms: N_9  and  C_21
    5  A    between atoms: C_11  and  C_24
    6  A    between atoms: C_16  and  C_20
    7  A    between atoms: S_18  and  C_21
                            x       y       z     vdW  Elec       q    Type
                         _______ _______ _______ _____ _____    ______ ____

>  <TORSDO>
F 7

$$$$
=
 OpenBabel11032419263D

 30 33  0  0  1  0  0  0  0  0999 V2000
  185.2940  179.3020  138.6920 O   0  0  0  0  0  0  0  0  0  0  0  0
  184.4960  178.4480  144.0570 N   0  0  0  0  0  0  0  0  0  0  0  0
  188.5250  177.6010  146.5570 N   0  0  0  0  0  1  0  0  0  0  0  0
  187.8510  177.7770  145.3190 C   0  0  0  0  0  0  0  0  0  0  0  0
  187.9310  177.8430  142.9440 C   0  0  0  0  0  0  0  0  0  0  0  0
  186.5550  178.1290  142.8780 C   0  0  0  0  0  0  0  0  0  0  0  0
  188.5390  177.6760  144.1510 N   0  0  0  0  0  0  0  0  0  0  0  0
  189.8820  177.2800  141.7190 O   0  0  0  0  0  0  0  0  0  0  0  0
  185.8980  178.3290  141.6390 C   0  0  0  0  0  0  0  0  0  0  0  0
  185.8280  178.2070  144.0810 C   0  0  0  0  0  0  0  0  0  0  0  0
  188.0160  177.8120  140.4850 O   0  0  0  0  0  0  0  0  0  0  0  0
  188.6770  177.6460  141.7000 C   0  0  0  0  0  0  0  0  0  0  0  0
  184.1230  179.5920  139.3890 C   0  0  0  0  0  0  0  0  0  0  0  0
  183.6040  178.6680  140.4440 C   0  0  2  0  0  3  0  0  0  0  0  0
  183.8270  178.6130  142.8890 C   0  0  0  0  0  3  0  0  0  0  0  0
  186.4790  178.0370  145.3040 C   0  0  0  0  0  3  0  0  0  0  0  0
  184.4910  178.5650  141.6590 C   0  0  0  0  0  0  0  0  0  0  0  0
  186.1210  178.2120  139.0640 C   0  0  0  0  0  2  0  0  0  0  0  0
  183.4760  180.6340  139.1090 O   0  0  0  0  0  0  0  0  0  0  0  0
  186.7770  178.5140  140.3980 C   0  0  1  0  0  3  0  0  0  0  0  0
  183.2660  177.3000  139.8590 C   0  0  0  0  0  2  0  0  0  0  0  0
  181.7650  177.3760  138.8330 S   0  0  0  0  0  0  0  0  0  0  0  0
  180.6740  177.4130  140.2830 C   0  0  0  0  0  2  0  0  0  0  0  0
  179.0790  178.1440  139.8220 S   0  0  0  0  0  0  0  0  0  0  0  0
  179.0040  180.7790  139.9650 O   0  0  0  0  0  0  0  0  0  0  0  0
  179.5630  179.7510  140.4320 C   0  0  0  0  0  0  0  0  0  0  0  0
  180.5620  179.8370  141.4590 N   0  0  0  0  0  0  0  0  0  0  0  0
  180.3710  179.8350  142.7470 C   0  0  0  0  0  3  0  0  0  0  0  0
  178.9600  178.6260  144.2830 N   0  0  0  0  0  1  0  0  0  0  0  0
  179.0280  179.7770  143.3990 C   0  0  0  0  0  2  0  0  0  0  0  0
  1 18  1  0  0  0  0
  1 13  1  0  0  0  0
  2 10  1  0  0  0  0
  4  3  1  0  0  0  0
  5  7  1  0  0  0  0
  6  5  2  0  0  0  0
  6 10  1  0  0  0  0
  7  4  2  0  0  0  0
  9 17  2  0  0  0  0
  9  6  1  0  0  0  0
 10 16  2  0  0  0  0
 11 12  1  0  0  0  0
 12  8  2  0  0  0  0
 12  5  1  0  0  0  0
 13 14  1  0  0  0  0
 14 21  1  6  0  0  0
 14 17  1  0  0  0  0
 15  2  2  0  0  0  0
 16  4  1  0  0  0  0
 17 15  1  0  0  0  0
 19 13  2  0  0  0  0
 20 18  1  6  0  0  0
 20 11  1  0  0  0  0
 20  9  1  0  0  0  0
 22 21  1  0  0  0  0
 22 23  1  0  0  0  0
 24 23  1  0  0  0  0
 24 26  1  0  0  0  0
 25 26  2  0  0  0  0
 26 27  1  0  0  0  0
 27 28  2  0  0  0  0
 28 30  1  0  0  0  0
 30 29  1  0  0  0  0
M  END
>  <MODEL>
6

>  <REMARK>
 VINA RESULT:      -6.8      3.831      7.903
  Name = 
  7 active torsions:
  status: ('A' for Active; 'I' for Inactive)
    1  A    between atoms: C_1  and  S_8
    2  A    between atoms: C_1  and  S_18
    3  A    between atoms: S_8  and  C_11
    4  A    between atoms: N_9  and  C_21
    5  A    between atoms: C_11  and  C_24
    6  A    between atoms: C_16  and  C_20
    7  A    between atoms: S_18  and  C_21
                            x       y       z     vdW  Elec       q    Type
                         _______ _______ _______ _____ _____    ______ ____

>  <TORSDO>
F 7

$$$$
=
 OpenBabel11032419263D

 30 33  0  0  1  0  0  0  0  0999 V2000
  185.8880  179.0340  139.2230 O   0  0  0  0  0  0  0  0  0  0  0  0
  183.8400  178.6540  144.3030 N   0  0  0  0  0  0  0  0  0  0  0  0
  187.1520  178.0060  147.7400 N   0  0  0  0  0  1  0  0  0  0  0  0
  186.7900  178.0760  146.3670 C   0  0  0  0  0  0  0  0  0  0  0  0
  187.4230  177.9360  144.0810 C   0  0  0  0  0  0  0  0  0  0  0  0
  186.1090  178.2230  143.6700 C   0  0  0  0  0  0  0  0  0  0  0  0
  187.7280  177.8700  145.4060 N   0  0  0  0  0  0  0  0  0  0  0  0
  189.5900  177.2570  143.3980 O   0  0  0  0  0  0  0  0  0  0  0  0
  185.7630  178.3180  142.3000 C   0  0  0  0  0  0  0  0  0  0  0  0
  185.1230  178.4090  144.6590 C   0  0  0  0  0  0  0  0  0  0  0  0
  188.0780  177.6900  141.7220 O   0  0  0  0  0  0  0  0  0  0  0  0
  188.4330  177.6270  143.0670 C   0  0  0  0  0  0  0  0  0  0  0  0
  184.5950  179.3900  139.5990 C   0  0  0  0  0  0  0  0  0  0  0  0
  183.8210  178.5650  140.5760 C   0  0  2  0  0  3  0  0  0  0  0  0
  183.4660  178.7210  143.0010 C   0  0  0  0  0  3  0  0  0  0  0  0
  185.4670  178.3420  146.0100 C   0  0  0  0  0  3  0  0  0  0  0  0
  184.3970  178.5630  141.9690 C   0  0  0  0  0  0  0  0  0  0  0  0
  186.5770  177.9750  139.8680 C   0  0  0  0  0  2  0  0  0  0  0  0
  184.0580  180.4070  139.0900 O   0  0  0  0  0  0  0  0  0  0  0  0
  186.9120  178.3890  141.2880 C   0  0  1  0  0  3  0  0  0  0  0  0
  183.5930  177.1530  140.0440 C   0  0  0  0  0  2  0  0  0  0  0  0
  182.7870  177.1860  138.4130 S   0  0  0  0  0  0  0  0  0  0  0  0
  184.1130  176.2140  137.6450 C   0  0  0  0  0  2  0  0  0  0  0  0
  184.8170  177.1420  136.2550 S   0  0  0  0  0  0  0  0  0  0  0  0
  186.5190  175.3920  137.2630 O   0  0  0  0  0  0  0  0  0  0  0  0
  186.3900  176.3100  136.4080 C   0  0  0  0  0  0  0  0  0  0  0  0
  187.4670  176.6850  135.5380 N   0  0  0  0  0  0  0  0  0  0  0  0
  188.5390  177.3550  135.8530 C   0  0  0  0  0  3  0  0  0  0  0  0
  188.7110  179.3470  137.2020 N   0  0  0  0  0  1  0  0  0  0  0  0
  188.8220  177.8990  137.2170 C   0  0  0  0  0  2  0  0  0  0  0  0
  1 13  1  0  0  0  0
  1 18  1  0  0  0  0
  2 10  1  0  0  0  0
  4  3  1  0  0  0  0
  5  7  1  0  0  0  0
  6  5  2  0  0  0  0
  6 10  1  0  0  0  0
  7  4  2  0  0  0  0
  9  6  1  0  0  0  0
 10 16  2  0  0  0  0
 11 12  1  0  0  0  0
 12  8  2  0  0  0  0
 12  5  1  0  0  0  0
 13 14  1  0  0  0  0
 14 21  1  6  0  0  0
 14 17  1  0  0  0  0
 15  2  2  0  0  0  0
 16  4  1  0  0  0  0
 17  9  2  0  0  0  0
 17 15  1  0  0  0  0
 19 13  2  0  0  0  0
 20 18  1  6  0  0  0
 20 11  1  0  0  0  0
 20  9  1  0  0  0  0
 22 21  1  0  0  0  0
 23 22  1  0  0  0  0
 24 26  1  0  0  0  0
 24 23  1  0  0  0  0
 26 25  2  0  0  0  0
 27 28  2  0  0  0  0
 27 26  1  0  0  0  0
 28 30  1  0  0  0  0
 29 30  1  0  0  0  0
M  END
>  <MODEL>
7

>  <REMARK>
 VINA RESULT:      -6.8      3.909      7.444
  Name = 
  7 active torsions:
  status: ('A' for Active; 'I' for Inactive)
    1  A    between atoms: C_1  and  S_8
    2  A    between atoms: C_1  and  S_18
    3  A    between atoms: S_8  and  C_11
    4  A    between atoms: N_9  and  C_21
    5  A    between atoms: C_11  and  C_24
    6  A    between atoms: C_16  and  C_20
    7  A    between atoms: S_18  and  C_21
                            x       y       z     vdW  Elec       q    Type
                         _______ _______ _______ _____ _____    ______ ____

>  <TORSDO>
F 7

$$$$
=
 OpenBabel11032419263D

 30 33  0  0  1  0  0  0  0  0999 V2000
  190.1640  177.9000  138.1880 O   0  0  0  0  0  0  0  0  0  0  0  0
  186.0730  178.5620  141.7910 N   0  0  0  0  0  0  0  0  0  0  0  0
  187.1950  177.3560  146.3180 N   0  0  0  0  0  1  0  0  0  0  0  0
  187.5110  177.3960  144.9330 C   0  0  0  0  0  0  0  0  0  0  0  0
  189.0170  176.8780  143.1690 C   0  0  0  0  0  0  0  0  0  0  0  0
  188.1610  177.4720  142.2250 C   0  0  0  0  0  0  0  0  0  0  0  0
  188.6750  176.8540  144.4860 N   0  0  0  0  0  0  0  0  0  0  0  0
  190.9710  175.5740  143.5020 O   0  0  0  0  0  0  0  0  0  0  0  0
  188.4980  177.5320  140.8500 C   0  0  0  0  0  0  0  0  0  0  0  0
  186.9400  178.0110  142.6740 C   0  0  0  0  0  0  0  0  0  0  0  0
  190.5450  176.2460  141.3460 O   0  0  0  0  0  0  0  0  0  0  0  0
  190.2360  176.2130  142.7030 C   0  0  0  0  0  0  0  0  0  0  0  0
  188.9980  178.6270  137.9600 C   0  0  0  0  0  0  0  0  0  0  0  0
  187.6740  178.1380  138.4510 C   0  0  2  0  0  3  0  0  0  0  0  0
  186.3480  178.6080  140.4640 C   0  0  0  0  0  3  0  0  0  0  0  0
  186.6180  177.9780  144.0310 C   0  0  0  0  0  3  0  0  0  0  0  0
  187.5500  178.1070  139.9530 C   0  0  0  0  0  0  0  0  0  0  0  0
  190.1650  176.7570  139.0290 C   0  0  0  0  0  2  0  0  0  0  0  0
  189.0550  179.7010  137.3060 O   0  0  0  0  0  0  0  0  0  0  0  0
  189.9420  177.1930  140.4650 C   0  0  1  0  0  3  0  0  0  0  0  0
  187.3120  176.7990  137.8150 C   0  0  0  0  0  2  0  0  0  0  0  0
  187.4730  176.8650  136.0040 S   0  0  0  0  0  0  0  0  0  0  0  0
  185.7780  176.2730  135.7470 C   0  0  0  0  0  2  0  0  0  0  0  0
  185.3620  175.0540  137.0240 S   0  0  0  0  0  0  0  0  0  0  0  0
  185.9940  173.7370  134.8250 O   0  0  0  0  0  0  0  0  0  0  0  0
  186.0850  173.7210  136.0820 C   0  0  0  0  0  0  0  0  0  0  0  0
  186.7770  172.6710  136.7740 N   0  0  0  0  0  0  0  0  0  0  0  0
  188.0610  172.5630  136.9620 C   0  0  0  0  0  3  0  0  0  0  0  0
  190.1840  173.6320  137.3690 N   0  0  0  0  0  1  0  0  0  0  0  0
  189.0730  173.5310  136.4380 C   0  0  0  0  0  2  0  0  0  0  0  0
  1 18  1  0  0  0  0
  2 10  1  0  0  0  0
  4  3  1  0  0  0  0
  5  7  2  0  0  0  0
  6 10  2  0  0  0  0
  6  5  1  0  0  0  0
  7  4  1  0  0  0  0
  9  6  1  0  0  0  0
 10 16  1  0  0  0  0
 11 12  1  0  0  0  0
 12  5  1  0  0  0  0
 12  8  2  0  0  0  0
 13  1  1  0  0  0  0
 13 14  1  0  0  0  0
 14 21  1  1  0  0  0
 14 17  1  0  0  0  0
 15  2  2  0  0  0  0
 16  4  2  0  0  0  0
 17 15  1  0  0  0  0
 17  9  2  0  0  0  0
 19 13  2  0  0  0  0
 20 18  1  6  0  0  0
 20  9  1  0  0  0  0
 20 11  1  0  0  0  0
 22 21  1  0  0  0  0
 23 22  1  0  0  0  0
 23 24  1  0  0  0  0
 25 26  2  0  0  0  0
 26 27  1  0  0  0  0
 26 24  1  0  0  0  0
 27 28  2  0  0  0  0
 30 28  1  0  0  0  0
 30 29  1  0  0  0  0
M  END
>  <MODEL>
8

>  <REMARK>
 VINA RESULT:      -6.8      4.620      7.718
  Name = 
  7 active torsions:
  status: ('A' for Active; 'I' for Inactive)
    1  A    between atoms: C_1  and  S_8
    2  A    between atoms: C_1  and  S_18
    3  A    between atoms: S_8  and  C_11
    4  A    between atoms: N_9  and  C_21
    5  A    between atoms: C_11  and  C_24
    6  A    between atoms: C_16  and  C_20
    7  A    between atoms: S_18  and  C_21
                            x       y       z     vdW  Elec       q    Type
                         _______ _______ _______ _____ _____    ______ ____

>  <TORSDO>
F 7

$$$$
=
 OpenBabel11032419263D

 30 33  0  0  1  0  0  0  0  0999 V2000
  185.2980  179.3440  138.8430 O   0  0  0  0  0  0  0  0  0  0  0  0
  183.9890  178.5320  144.1130 N   0  0  0  0  0  0  0  0  0  0  0  0
  187.7600  177.7140  146.9970 N   0  0  0  0  0  1  0  0  0  0  0  0
  187.2080  177.8780  145.6980 C   0  0  0  0  0  0  0  0  0  0  0  0
  187.5160  177.9250  143.3410 C   0  0  0  0  0  0  0  0  0  0  0  0
  186.1530  178.2080  143.1400 C   0  0  0  0  0  0  0  0  0  0  0  0
  188.0050  177.7690  144.6020 N   0  0  0  0  0  0  0  0  0  0  0  0
  189.5760  177.3560  142.3140 O   0  0  0  0  0  0  0  0  0  0  0  0
  185.6170  178.3960  141.8430 C   0  0  0  0  0  0  0  0  0  0  0  0
  185.3130  178.2940  144.2680 C   0  0  0  0  0  0  0  0  0  0  0  0
  187.8380  177.8740  140.9030 O   0  0  0  0  0  0  0  0  0  0  0  0
  188.3790  177.7190  142.1760 C   0  0  0  0  0  0  0  0  0  0  0  0
  184.0660  179.6370  139.4220 C   0  0  0  0  0  0  0  0  0  0  0  0
  183.4490  178.7210  140.4300 C   0  0  2  0  0  3  0  0  0  0  0  0
  183.4360  178.6860  142.8850 C   0  0  0  0  0  3  0  0  0  0  0  0
  185.8440  178.1350  145.5490 C   0  0  0  0  0  3  0  0  0  0  0  0
  184.2150  178.6290  141.7250 C   0  0  0  0  0  0  0  0  0  0  0  0
  186.0880  178.2580  139.3020 C   0  0  0  0  0  2  0  0  0  0  0  0
  183.4470  180.6750  139.0720 O   0  0  0  0  0  0  0  0  0  0  0  0
  186.6110  178.5730  140.6900 C   0  0  1  0  0  3  0  0  0  0  0  0
  183.1700  177.3470  139.8260 C   0  0  0  0  0  2  0  0  0  0  0  0
  181.7660  177.4090  138.6700 S   0  0  0  0  0  0  0  0  0  0  0  0
  180.7660  178.4090  139.8060 C   0  0  0  0  0  2  0  0  0  0  0  0
  179.4590  179.2570  138.8770 S   0  0  0  0  0  0  0  0  0  0  0  0
  180.4290  180.7650  140.8150 O   0  0  0  0  0  0  0  0  0  0  0  0
  179.7090  180.7770  139.7800 C   0  0  0  0  0  0  0  0  0  0  0  0
  179.1060  181.9860  139.2950 N   0  0  0  0  0  0  0  0  0  0  0  0
  179.5590  182.7730  138.3620 C   0  0  0  0  0  3  0  0  0  0  0  0
  181.5790  183.8180  137.5600 N   0  0  0  0  0  1  0  0  0  0  0  0
  180.8490  182.5640  137.6350 C   0  0  0  0  0  2  0  0  0  0  0  0
  1 18  1  0  0  0  0
  1 13  1  0  0  0  0
  2 10  1  0  0  0  0
  4  3  1  0  0  0  0
  5  7  1  0  0  0  0
  6  5  2  0  0  0  0
  6 10  1  0  0  0  0
  7  4  2  0  0  0  0
  9  6  1  0  0  0  0
 10 16  2  0  0  0  0
 11 12  1  0  0  0  0
 12  8  2  0  0  0  0
 12  5  1  0  0  0  0
 13 14  1  0  0  0  0
 14 21  1  6  0  0  0
 14 17  1  0  0  0  0
 15  2  2  0  0  0  0
 16  4  1  0  0  0  0
 17  9  2  0  0  0  0
 17 15  1  0  0  0  0
 19 13  2  0  0  0  0
 20 18  1  6  0  0  0
 20 11  1  0  0  0  0
 20  9  1  0  0  0  0
 22 23  1  0  0  0  0
 22 21  1  0  0  0  0
 24 26  1  0  0  0  0
 24 23  1  0  0  0  0
 26 25  2  0  0  0  0
 27 26  1  0  0  0  0
 28 27  2  0  0  0  0
 29 30  1  0  0  0  0
 30 28  1  0  0  0  0
M  END
>  <MODEL>
9

>  <REMARK>
 VINA RESULT:      -6.7      4.310      8.530
  Name = 
  7 active torsions:
  status: ('A' for Active; 'I' for Inactive)
    1  A    between atoms: C_1  and  S_8
    2  A    between atoms: C_1  and  S_18
    3  A    between atoms: S_8  and  C_11
    4  A    between atoms: N_9  and  C_21
    5  A    between atoms: C_11  and  C_24
    6  A    between atoms: C_16  and  C_20
    7  A    between atoms: S_18  and  C_21
                            x       y       z     vdW  Elec       q    Type
                         _______ _______ _______ _____ _____    ______ ____

>  <TORSDO>
F 7

$$$$
