=
 OpenBabel11042412263D

 26 29  0  0  1  0  0  0  0  0999 V2000
  190.6350  176.5190  143.5440 C   0  0  0  0  0  3  0  0  0  0  0  0
  188.3340  177.9290  146.3300 C   0  0  2  0  0  3  0  0  0  0  0  0
  185.8380  177.5770  143.3880 C   0  0  1  0  0  3  0  0  0  0  0  0
  191.7240  176.0780  144.2950 C   0  0  0  0  0  3  0  0  0  0  0  0
  191.7230  176.2350  145.6810 C   0  0  0  0  0  3  0  0  0  0  0  0
  189.5410  177.1280  144.1700 C   0  0  0  0  0  0  0  0  0  0  0  0
  187.1030  178.2770  143.3020 C   0  0  2  0  0  0  0  0  0  0  0  0
  190.6270  176.8200  146.3190 C   0  0  0  0  0  3  0  0  0  0  0  0
  188.4370  177.5590  143.3720 N   0  0  0  0  0  0  0  0  0  0  0  0
  186.9740  177.4370  145.9030 C   0  0  0  0  0  3  0  0  0  0  0  0
  186.6390  177.6590  144.6410 C   0  0  0  0  0  0  0  0  0  0  0  0
  189.5070  177.2570  145.5910 C   0  0  0  0  0  0  0  0  0  0  0  0
  187.6020  177.6200  142.1760 C   0  0  2  0  0  3  0  0  0  0  0  0
  188.4420  177.8870  147.8260 C   0  0  0  0  0  0  0  0  0  0  0  0
  189.0860  178.7720  148.4480 O   0  0  0  0  0  0  0  0  0  0  0  0
  187.7810  176.8540  148.5460 N   0  0  0  0  0  1  0  0  0  0  0  0
  184.2400  178.9940  144.8460 C   0  0  0  0  0  1  0  0  0  0  0  0
  183.8810  178.8030  142.4890 N   0  0  0  0  0  0  0  0  0  0  0  0
  184.6480  178.5040  143.4970 C   0  0  0  0  0  0  0  0  0  0  0  0
  184.6970  179.1820  140.3010 C   0  0  0  0  0  2  0  0  0  0  0  0
  184.0700  178.3680  141.1390 C   0  0  0  0  0  0  0  0  0  0  0  0
  183.1180  177.3820  140.5460 C   0  0  0  0  0  2  0  0  0  0  0  0
  180.5920  178.2560  140.6580 C   0  0  0  0  0  3  0  0  0  0  0  0
  181.7330  177.8660  140.6070 C   0  0  0  0  0  0  0  0  0  0  0  0
  188.2220  178.6100  141.2100 C   0  0  0  0  0  2  0  0  0  0  0  0
  188.0580  178.1560  139.9020 O   0  0  0  0  0  1  0  0  0  0  0  0
  1  6  2  0  0  0  0
  1  4  1  0  0  0  0
  2 14  1  1  0  0  0
  3 19  1  1  0  0  0
  3 11  1  0  0  0  0
  4  5  2  0  0  0  0
  5  8  1  0  0  0  0
  6 12  1  0  0  0  0
  7  9  1  0  0  0  0
  7  3  1  0  0  0  0
  7 11  1  1  0  0  0
  9  6  1  0  0  0  0
 10  2  1  0  0  0  0
 11 10  2  0  0  0  0
 12  8  2  0  0  0  0
 12  2  1  0  0  0  0
 13 25  1  6  0  0  0
 13  7  1  0  0  0  0
 13  9  1  0  0  0  0
 14 15  2  0  0  0  0
 14 16  1  0  0  0  0
 18 19  2  0  0  0  0
 19 17  1  0  0  0  0
 20 21  2  0  0  0  0
 21 18  1  0  0  0  0
 22 24  1  0  0  0  0
 22 21  1  0  0  0  0
 24 23  3  0  0  0  0
 26 25  1  0  0  0  0
M  END
>  <MODEL>
1

>  <REMARK>
 VINA RESULT:      -8.1      0.000      0.000
  Name = 
  6 active torsions:
  status: ('A' for Active; 'I' for Inactive)
    1  A    between atoms: C_1  and  C_8
    2  A    between atoms: N_4  and  C_25
    3  A    between atoms: C_9  and  C_20
    4  A    between atoms: C_11  and  C_23
    5  A    between atoms: C_14  and  C_26
    6  A    between atoms: C_25  and  C_26
                            x       y       z     vdW  Elec       q    Type
                         _______ _______ _______ _____ _____    ______ ____

>  <TORSDO>
F 6

$$$$
=
 OpenBabel11042412263D

 26 29  0  0  1  0  0  0  0  0999 V2000
  191.7590  176.1000  145.0870 C   0  0  0  0  0  3  0  0  0  0  0  0
  188.4050  177.9580  145.6730 C   0  0  2  0  0  3  0  0  0  0  0  0
  188.2390  177.2730  141.8640 C   0  0  1  0  0  3  0  0  0  0  0  0
  192.0930  175.7360  146.3910 C   0  0  0  0  0  3  0  0  0  0  0  0
  191.2540  176.0860  147.4480 C   0  0  0  0  0  3  0  0  0  0  0  0
  190.5890  176.8240  144.8310 C   0  0  0  0  0  0  0  0  0  0  0  0
  189.3560  177.9140  142.5270 C   0  0  2  0  0  0  0  0  0  0  0  0
  190.0730  176.7880  147.2020 C   0  0  0  0  0  3  0  0  0  0  0  0
  190.2700  177.1730  143.4820 N   0  0  0  0  0  0  0  0  0  0  0  0
  187.5550  177.4530  144.5350 C   0  0  0  0  0  3  0  0  0  0  0  0
  188.0980  177.5050  143.3280 C   0  0  0  0  0  0  0  0  0  0  0  0
  189.6990  177.1530  145.8970 C   0  0  0  0  0  0  0  0  0  0  0  0
  190.3660  177.0910  142.0280 C   0  0  2  0  0  3  0  0  0  0  0  0
  187.5600  178.1240  146.9020 C   0  0  0  0  0  0  0  0  0  0  0  0
  188.0710  178.5160  147.9840 O   0  0  0  0  0  0  0  0  0  0  0  0
  186.1640  177.8650  146.8310 N   0  0  0  0  0  1  0  0  0  0  0  0
  186.1740  178.8280  141.8260 C   0  0  0  0  0  1  0  0  0  0  0  0
  187.4810  178.5020  139.8490 N   0  0  0  0  0  0  0  0  0  0  0  0
  187.3500  178.2420  141.1180 C   0  0  0  0  0  0  0  0  0  0  0  0
  189.3360  178.8320  138.4190 C   0  0  0  0  0  2  0  0  0  0  0  0
  188.4990  177.9770  138.9920 C   0  0  0  0  0  0  0  0  0  0  0  0
  188.2740  176.6750  138.2970 C   0  0  0  0  0  2  0  0  0  0  0  0
  190.5820  175.4380  137.7520 C   0  0  0  0  0  3  0  0  0  0  0  0
  189.5420  175.9960  138.0030 C   0  0  0  0  0  0  0  0  0  0  0  0
  191.5570  177.9150  141.5790 C   0  0  0  0  0  2  0  0  0  0  0  0
  191.9780  177.4870  140.3210 O   0  0  0  0  0  1  0  0  0  0  0  0
  1  4  1  0  0  0  0
  2 12  1  0  0  0  0
  2 14  1  1  0  0  0
  3 19  1  6  0  0  0
  3  7  1  0  0  0  0
  3 11  1  0  0  0  0
  4  5  2  0  0  0  0
  6  1  2  0  0  0  0
  6 12  1  0  0  0  0
  7 11  1  6  0  0  0
  7  9  1  0  0  0  0
  8  5  1  0  0  0  0
  9  6  1  0  0  0  0
 10  2  1  0  0  0  0
 11 10  2  0  0  0  0
 12  8  2  0  0  0  0
 13 25  1  6  0  0  0
 13  7  1  0  0  0  0
 13  9  1  0  0  0  0
 14 15  2  0  0  0  0
 16 14  1  0  0  0  0
 18 19  2  0  0  0  0
 19 17  1  0  0  0  0
 20 21  2  0  0  0  0
 21 18  1  0  0  0  0
 22 21  1  0  0  0  0
 23 24  3  0  0  0  0
 24 22  1  0  0  0  0
 26 25  1  0  0  0  0
M  END
>  <MODEL>
2

>  <REMARK>
 VINA RESULT:      -7.7      2.488      3.918
  Name = 
  6 active torsions:
  status: ('A' for Active; 'I' for Inactive)
    1  A    between atoms: C_1  and  C_8
    2  A    between atoms: N_4  and  C_25
    3  A    between atoms: C_9  and  C_20
    4  A    between atoms: C_11  and  C_23
    5  A    between atoms: C_14  and  C_26
    6  A    between atoms: C_25  and  C_26
                            x       y       z     vdW  Elec       q    Type
                         _______ _______ _______ _____ _____    ______ ____

>  <TORSDO>
F 6

$$$$
=
 OpenBabel11042412263D

 26 29  0  0  1  0  0  0  0  0999 V2000
  189.4970  177.2280  146.7150 C   0  0  0  0  0  3  0  0  0  0  0  0
  186.5400  178.4600  144.5290 C   0  0  2  0  0  3  0  0  0  0  0  0
  188.9630  177.0960  141.8320 C   0  0  1  0  0  3  0  0  0  0  0  0
  188.8950  177.1730  147.9720 C   0  0  0  0  0  3  0  0  0  0  0  0
  187.5550  177.5300  148.1180 C   0  0  0  0  0  3  0  0  0  0  0  0
  188.7680  177.6500  145.5970 C   0  0  0  0  0  0  0  0  0  0  0  0
  189.3380  178.0520  142.8530 C   0  0  2  0  0  0  0  0  0  0  0  0
  186.8120  177.9310  147.0060 C   0  0  0  0  0  3  0  0  0  0  0  0
  189.4130  177.6860  144.3220 N   0  0  0  0  0  0  0  0  0  0  0  0
  186.6750  177.6040  143.2940 C   0  0  0  0  0  3  0  0  0  0  0  0
  187.8800  177.5500  142.7470 C   0  0  0  0  0  0  0  0  0  0  0  0
  187.3860  177.9790  145.7240 C   0  0  0  0  0  0  0  0  0  0  0  0
  190.4510  177.3700  143.3460 C   0  0  2  0  0  3  0  0  0  0  0  0
  185.0880  178.6690  144.8440 C   0  0  0  0  0  0  0  0  0  0  0  0
  184.7370  179.1980  145.9320 O   0  0  0  0  0  0  0  0  0  0  0  0
  184.1040  178.2930  143.8890 N   0  0  0  0  0  1  0  0  0  0  0  0
  187.4930  178.4640  140.2030 C   0  0  0  0  0  1  0  0  0  0  0  0
  189.5800  177.5490  139.4740 N   0  0  0  0  0  0  0  0  0  0  0  0
  188.7600  177.7240  140.4710 C   0  0  0  0  0  0  0  0  0  0  0  0
  191.8690  177.3960  140.0510 C   0  0  0  0  0  2  0  0  0  0  0  0
  190.8030  176.8100  139.5200 C   0  0  0  0  0  0  0  0  0  0  0  0
  191.0480  175.7330  138.5160 C   0  0  0  0  0  2  0  0  0  0  0  0
  193.2120  176.2560  137.0340 C   0  0  0  0  0  3  0  0  0  0  0  0
  192.2350  176.0160  137.7000 C   0  0  0  0  0  0  0  0  0  0  0  0
  191.6120  178.3210  143.5580 C   0  0  0  0  0  2  0  0  0  0  0  0
  191.1300  179.5830  143.9050 O   0  0  0  0  0  1  0  0  0  0  0  0
  1  4  1  0  0  0  0
  2 14  1  1  0  0  0
  2 12  1  0  0  0  0
  3 19  1  6  0  0  0
  3 11  1  0  0  0  0
  3  7  1  0  0  0  0
  4  5  2  0  0  0  0
  6 12  1  0  0  0  0
  6  1  2  0  0  0  0
  7 11  1  6  0  0  0
  7 13  1  0  0  0  0
  7  9  1  0  0  0  0
  8  5  1  0  0  0  0
  9  6  1  0  0  0  0
 10  2  1  0  0  0  0
 11 10  2  0  0  0  0
 12  8  2  0  0  0  0
 13 25  1  1  0  0  0
 13  9  1  0  0  0  0
 14 15  2  0  0  0  0
 16 14  1  0  0  0  0
 17 19  1  0  0  0  0
 18 21  1  0  0  0  0
 18 19  2  0  0  0  0
 21 20  2  0  0  0  0
 22 21  1  0  0  0  0
 23 24  3  0  0  0  0
 24 22  1  0  0  0  0
 25 26  1  0  0  0  0
M  END
>  <MODEL>
3

>  <REMARK>
 VINA RESULT:      -7.7      2.952      5.668
  Name = 
  6 active torsions:
  status: ('A' for Active; 'I' for Inactive)
    1  A    between atoms: C_1  and  C_8
    2  A    between atoms: N_4  and  C_25
    3  A    between atoms: C_9  and  C_20
    4  A    between atoms: C_11  and  C_23
    5  A    between atoms: C_14  and  C_26
    6  A    between atoms: C_25  and  C_26
                            x       y       z     vdW  Elec       q    Type
                         _______ _______ _______ _____ _____    ______ ____

>  <TORSDO>
F 6

$$$$
=
 OpenBabel11042412263D

 26 29  0  0  1  0  0  0  0  0999 V2000
  189.9750  176.8480  145.9040 C   0  0  0  0  0  3  0  0  0  0  0  0
  186.6000  178.6930  145.4070 C   0  0  2  0  0  3  0  0  0  0  0  0
  187.3890  177.5610  141.7870 C   0  0  1  0  0  3  0  0  0  0  0  0
  189.9690  176.6470  147.2840 C   0  0  0  0  0  3  0  0  0  0  0  0
  188.8950  177.1010  148.0480 C   0  0  0  0  0  3  0  0  0  0  0  0
  188.9140  177.5130  145.2790 C   0  0  0  0  0  0  0  0  0  0  0  0
  188.3090  178.2990  142.6270 C   0  0  2  0  0  0  0  0  0  0  0  0
  187.8200  177.7460  147.4330 C   0  0  0  0  0  3  0  0  0  0  0  0
  188.9470  177.6940  143.8620 N   0  0  0  0  0  0  0  0  0  0  0  0
  186.0580  178.0400  144.1600 C   0  0  0  0  0  3  0  0  0  0  0  0
  186.8870  177.9610  143.1300 C   0  0  0  0  0  0  0  0  0  0  0  0
  187.7890  177.9460  146.0420 C   0  0  0  0  0  0  0  0  0  0  0  0
  189.4050  177.4430  142.4980 C   0  0  2  0  0  3  0  0  0  0  0  0
  185.4760  178.9850  146.3560 C   0  0  0  0  0  0  0  0  0  0  0  0
  185.6660  179.6990  147.3760 O   0  0  0  0  0  0  0  0  0  0  0  0
  184.1780  178.4740  146.0810 N   0  0  0  0  0  1  0  0  0  0  0  0
  185.4430  179.1040  141.0680 C   0  0  0  0  0  1  0  0  0  0  0  0
  187.1440  178.4910  139.5020 N   0  0  0  0  0  0  0  0  0  0  0  0
  186.7240  178.4170  140.7320 C   0  0  0  0  0  0  0  0  0  0  0  0
  189.4110  178.5640  138.8290 C   0  0  0  0  0  2  0  0  0  0  0  0
  188.3070  177.8440  138.9780 C   0  0  0  0  0  0  0  0  0  0  0  0
  188.1480  176.6520  138.0940 C   0  0  0  0  0  2  0  0  0  0  0  0
  190.4750  175.3800  137.7440 C   0  0  0  0  0  3  0  0  0  0  0  0
  189.4230  175.9500  137.9000 C   0  0  0  0  0  0  0  0  0  0  0  0
  190.6780  178.2330  142.2670 C   0  0  0  0  0  2  0  0  0  0  0  0
  191.7320  177.6400  142.9600 O   0  0  0  0  0  1  0  0  0  0  0  0
  1  4  1  0  0  0  0
  2 12  1  0  0  0  0
  2 14  1  1  0  0  0
  3 19  1  6  0  0  0
  3  7  1  0  0  0  0
  3 11  1  0  0  0  0
  4  5  2  0  0  0  0
  6  1  2  0  0  0  0
  6 12  1  0  0  0  0
  7 11  1  6  0  0  0
  7  9  1  0  0  0  0
  8  5  1  0  0  0  0
  9  6  1  0  0  0  0
 10  2  1  0  0  0  0
 11 10  2  0  0  0  0
 12  8  2  0  0  0  0
 13 25  1  1  0  0  0
 13  7  1  0  0  0  0
 13  9  1  0  0  0  0
 14 15  2  0  0  0  0
 16 14  1  0  0  0  0
 18 19  2  0  0  0  0
 19 17  1  0  0  0  0
 20 21  2  0  0  0  0
 21 18  1  0  0  0  0
 22 21  1  0  0  0  0
 23 24  3  0  0  0  0
 24 22  1  0  0  0  0
 25 26  1  0  0  0  0
M  END
>  <MODEL>
4

>  <REMARK>
 VINA RESULT:      -7.5      2.513      4.204
  Name = 
  6 active torsions:
  status: ('A' for Active; 'I' for Inactive)
    1  A    between atoms: C_1  and  C_8
    2  A    between atoms: N_4  and  C_25
    3  A    between atoms: C_9  and  C_20
    4  A    between atoms: C_11  and  C_23
    5  A    between atoms: C_14  and  C_26
    6  A    between atoms: C_25  and  C_26
                            x       y       z     vdW  Elec       q    Type
                         _______ _______ _______ _____ _____    ______ ____

>  <TORSDO>
F 6

$$$$
=
 OpenBabel11042412263D

 26 29  0  0  1  0  0  0  0  0999 V2000
  188.8870  177.4430  140.3470 C   0  0  0  0  0  3  0  0  0  0  0  0
  190.1110  178.0280  143.9800 C   0  0  2  0  0  3  0  0  0  0  0  0
  186.3060  177.5440  144.5280 C   0  0  1  0  0  3  0  0  0  0  0  0
  190.0880  177.1390  139.7070 C   0  0  0  0  0  3  0  0  0  0  0  0
  191.2790  177.1250  140.4310 C   0  0  0  0  0  3  0  0  0  0  0  0
  188.8680  177.7440  141.7140 C   0  0  0  0  0  0  0  0  0  0  0  0
  186.8800  178.4850  143.5880 C   0  0  2  0  0  0  0  0  0  0  0  0
  191.2690  177.4030  141.8000 C   0  0  0  0  0  3  0  0  0  0  0  0
  187.6190  178.0410  142.3410 N   0  0  0  0  0  0  0  0  0  0  0  0
  189.0490  177.3320  144.7940 C   0  0  0  0  0  3  0  0  0  0  0  0
  187.7920  177.6330  144.4990 C   0  0  0  0  0  0  0  0  0  0  0  0
  190.0730  177.6940  142.4770 C   0  0  0  0  0  0  0  0  0  0  0  0
  186.1650  178.0790  142.4600 C   0  0  2  0  0  3  0  0  0  0  0  0
  191.4520  177.8310  144.6230 C   0  0  0  0  0  0  0  0  0  0  0  0
  192.3220  178.7400  144.5870 O   0  0  0  0  0  0  0  0  0  0  0  0
  191.7270  176.6140  145.3070 N   0  0  0  0  0  1  0  0  0  0  0  0
  186.4870  177.9110  147.0820 C   0  0  0  0  0  1  0  0  0  0  0  0
  184.7030  178.9070  145.8380 N   0  0  0  0  0  0  0  0  0  0  0  0
  185.7940  178.1990  145.7920 C   0  0  0  0  0  0  0  0  0  0  0  0
  183.9940  180.4240  144.1670 C   0  0  0  0  0  2  0  0  0  0  0  0
  183.8680  179.2260  144.7210 C   0  0  0  0  0  0  0  0  0  0  0  0
  182.5480  178.5430  144.5730 C   0  0  0  0  0  2  0  0  0  0  0  0
  181.5040  178.9520  142.1450 C   0  0  0  0  0  3  0  0  0  0  0  0
  181.9710  178.7680  143.2430 C   0  0  0  0  0  0  0  0  0  0  0  0
  185.6520  179.2800  141.6890 C   0  0  0  0  0  2  0  0  0  0  0  0
  185.6690  179.0030  140.3230 O   0  0  0  0  0  1  0  0  0  0  0  0
  1  6  1  0  0  0  0
  2 14  1  1  0  0  0
  2 10  1  0  0  0  0
  3 19  1  1  0  0  0
  4  1  2  0  0  0  0
  4  5  1  0  0  0  0
  5  8  2  0  0  0  0
  6  9  1  0  0  0  0
  6 12  2  0  0  0  0
  7 11  1  1  0  0  0
  7  3  1  0  0  0  0
  8 12  1  0  0  0  0
  9 13  1  0  0  0  0
  9  7  1  0  0  0  0
 11  3  1  0  0  0  0
 11 10  2  0  0  0  0
 12  2  1  0  0  0  0
 13 25  1  6  0  0  0
 13  7  1  0  0  0  0
 14 16  1  0  0  0  0
 15 14  2  0  0  0  0
 19 18  2  0  0  0  0
 19 17  1  0  0  0  0
 20 21  2  0  0  0  0
 21 18  1  0  0  0  0
 22 21  1  0  0  0  0
 23 24  3  0  0  0  0
 24 22  1  0  0  0  0
 26 25  1  0  0  0  0
M  END
>  <MODEL>
5

>  <REMARK>
 VINA RESULT:      -7.1      2.167      3.406
  Name = 
  6 active torsions:
  status: ('A' for Active; 'I' for Inactive)
    1  A    between atoms: C_1  and  C_8
    2  A    between atoms: N_4  and  C_25
    3  A    between atoms: C_9  and  C_20
    4  A    between atoms: C_11  and  C_23
    5  A    between atoms: C_14  and  C_26
    6  A    between atoms: C_25  and  C_26
                            x       y       z     vdW  Elec       q    Type
                         _______ _______ _______ _____ _____    ______ ____

>  <TORSDO>
F 6

$$$$
=
 OpenBabel11042412263D

 26 29  0  0  1  0  0  0  0  0999 V2000
  185.3170  178.6600  145.7260 C   0  0  0  0  0  3  0  0  0  0  0  0
  187.5550  177.3060  142.8630 C   0  0  2  0  0  3  0  0  0  0  0  0
  184.9300  179.3470  140.8750 C   0  0  1  0  0  3  0  0  0  0  0  0
  186.1480  178.4640  146.8290 C   0  0  0  0  0  3  0  0  0  0  0  0
  187.4110  177.8990  146.6580 C   0  0  0  0  0  3  0  0  0  0  0  0
  185.7390  178.2860  144.4450 C   0  0  0  0  0  0  0  0  0  0  0  0
  184.6000  178.3310  141.8540 C   0  0  2  0  0  0  0  0  0  0  0  0
  187.8510  177.5430  145.3820 C   0  0  0  0  0  3  0  0  0  0  0  0
  184.8680  178.5100  143.3350 N   0  0  0  0  0  0  0  0  0  0  0  0
  187.3350  178.3250  141.7730 C   0  0  0  0  0  3  0  0  0  0  0  0
  186.0750  178.6250  141.4960 C   0  0  0  0  0  0  0  0  0  0  0  0
  187.0450  177.7460  144.2480 C   0  0  0  0  0  0  0  0  0  0  0  0
  183.7320  179.0980  142.6320 C   0  0  2  0  0  3  0  0  0  0  0  0
  188.9840  176.8490  142.8470 C   0  0  0  0  0  0  0  0  0  0  0  0
  189.2670  175.6240  142.9180 O   0  0  0  0  0  0  0  0  0  0  0  0
  190.0250  177.8100  142.7190 N   0  0  0  0  0  1  0  0  0  0  0  0
  185.9260  178.2530  138.7550 C   0  0  0  0  0  1  0  0  0  0  0  0
  183.6900  179.1020  138.7430 N   0  0  0  0  0  0  0  0  0  0  0  0
  184.7620  178.8790  139.4470 C   0  0  0  0  0  0  0  0  0  0  0  0
  181.4930  178.9960  139.6140 C   0  0  0  0  0  2  0  0  0  0  0  0
  182.5050  179.7530  139.2120 C   0  0  0  0  0  0  0  0  0  0  0  0
  182.1760  181.1230  138.7190 C   0  0  0  0  0  2  0  0  0  0  0  0
  180.3590  181.0590  136.7570 C   0  0  0  0  0  3  0  0  0  0  0  0
  181.1800  181.0830  137.6410 C   0  0  0  0  0  0  0  0  0  0  0  0
  182.4880  178.3060  142.9860 C   0  0  0  0  0  2  0  0  0  0  0  0
  182.0780  178.6280  144.2790 O   0  0  0  0  0  1  0  0  0  0  0  0
  1  4  1  0  0  0  0
  2 14  1  1  0  0  0
  2 12  1  0  0  0  0
  3 19  1  6  0  0  0
  3 11  1  0  0  0  0
  3  7  1  0  0  0  0
  5  4  2  0  0  0  0
  6  1  2  0  0  0  0
  7 11  1  6  0  0  0
  7 13  1  0  0  0  0
  7  9  1  0  0  0  0
  8  5  1  0  0  0  0
  9  6  1  0  0  0  0
 10  2  1  0  0  0  0
 11 10  2  0  0  0  0
 12  6  1  0  0  0  0
 12  8  2  0  0  0  0
 13 25  1  1  0  0  0
 13  9  1  0  0  0  0
 14 15  2  0  0  0  0
 16 14  1  0  0  0  0
 17 19  1  0  0  0  0
 18 21  1  0  0  0  0
 18 19  2  0  0  0  0
 21 20  2  0  0  0  0
 22 21  1  0  0  0  0
 23 24  3  0  0  0  0
 24 22  1  0  0  0  0
 25 26  1  0  0  0  0
M  END
>  <MODEL>
6

>  <REMARK>
 VINA RESULT:      -7.1      2.644      4.710
  Name = 
  6 active torsions:
  status: ('A' for Active; 'I' for Inactive)
    1  A    between atoms: C_1  and  C_8
    2  A    between atoms: N_4  and  C_25
    3  A    between atoms: C_9  and  C_20
    4  A    between atoms: C_11  and  C_23
    5  A    between atoms: C_14  and  C_26
    6  A    between atoms: C_25  and  C_26
                            x       y       z     vdW  Elec       q    Type
                         _______ _______ _______ _____ _____    ______ ____

>  <TORSDO>
F 6

$$$$
=
 OpenBabel11042412263D

 26 29  0  0  1  0  0  0  0  0999 V2000
  184.3500  178.7850  145.3910 C   0  0  0  0  0  3  0  0  0  0  0  0
  187.0060  177.5050  142.8720 C   0  0  2  0  0  3  0  0  0  0  0  0
  184.5150  179.2960  140.5060 C   0  0  1  0  0  3  0  0  0  0  0  0
  185.0500  178.6810  146.5930 C   0  0  0  0  0  3  0  0  0  0  0  0
  186.3590  178.2020  146.5960 C   0  0  0  0  0  3  0  0  0  0  0  0
  184.9490  178.4030  144.1860 C   0  0  0  0  0  0  0  0  0  0  0  0
  184.1350  178.2890  141.4760 C   0  0  2  0  0  0  0  0  0  0  0  0
  186.9750  177.8380  145.3970 C   0  0  0  0  0  3  0  0  0  0  0  0
  184.2080  178.5310  142.9710 N   0  0  0  0  0  0  0  0  0  0  0  0
  186.8540  178.4730  141.7250 C   0  0  0  0  0  3  0  0  0  0  0  0
  185.6200  178.6750  141.2870 C   0  0  0  0  0  0  0  0  0  0  0  0
  186.3020  177.9500  144.1680 C   0  0  0  0  0  0  0  0  0  0  0  0
  183.1300  179.0160  142.1140 C   0  0  2  0  0  3  0  0  0  0  0  0
  188.4530  177.1490  143.0460 C   0  0  0  0  0  0  0  0  0  0  0  0
  188.8010  175.9550  143.2440 O   0  0  0  0  0  0  0  0  0  0  0  0
  189.4400  178.1680  142.9550 N   0  0  0  0  0  1  0  0  0  0  0  0
  185.8620  178.3330  138.5200 C   0  0  0  0  0  1  0  0  0  0  0  0
  183.5280  178.8010  138.2870 N   0  0  0  0  0  0  0  0  0  0  0  0
  184.5550  178.7730  139.0870 C   0  0  0  0  0  0  0  0  0  0  0  0
  181.2360  178.3650  138.6750 C   0  0  0  0  0  2  0  0  0  0  0  0
  182.2160  179.2570  138.6290 C   0  0  0  0  0  0  0  0  0  0  0  0
  181.8350  180.6730  138.3480 C   0  0  0  0  0  2  0  0  0  0  0  0
  179.7300  181.4400  139.8080 C   0  0  0  0  0  3  0  0  0  0  0  0
  180.6790  181.0900  139.1510 C   0  0  0  0  0  0  0  0  0  0  0  0
  181.9070  178.1510  142.3470 C   0  0  0  0  0  2  0  0  0  0  0  0
  180.8090  178.9570  142.6440 O   0  0  0  0  0  1  0  0  0  0  0  0
  1  4  1  0  0  0  0
  2 14  1  1  0  0  0
  2 12  1  0  0  0  0
  3 19  1  6  0  0  0
  3 11  1  0  0  0  0
  3  7  1  0  0  0  0
  4  5  2  0  0  0  0
  6  1  2  0  0  0  0
  7 11  1  6  0  0  0
  7 13  1  0  0  0  0
  7  9  1  0  0  0  0
  8  5  1  0  0  0  0
  9  6  1  0  0  0  0
 10  2  1  0  0  0  0
 11 10  2  0  0  0  0
 12  6  1  0  0  0  0
 12  8  2  0  0  0  0
 13 25  1  1  0  0  0
 13  9  1  0  0  0  0
 14 15  2  0  0  0  0
 16 14  1  0  0  0  0
 17 19  1  0  0  0  0
 18 21  1  0  0  0  0
 18 19  2  0  0  0  0
 21 20  2  0  0  0  0
 22 21  1  0  0  0  0
 22 24  1  0  0  0  0
 24 23  3  0  0  0  0
 25 26  1  0  0  0  0
M  END
>  <MODEL>
7

>  <REMARK>
 VINA RESULT:      -6.9      2.607      4.984
  Name = 
  6 active torsions:
  status: ('A' for Active; 'I' for Inactive)
    1  A    between atoms: C_1  and  C_8
    2  A    between atoms: N_4  and  C_25
    3  A    between atoms: C_9  and  C_20
    4  A    between atoms: C_11  and  C_23
    5  A    between atoms: C_14  and  C_26
    6  A    between atoms: C_25  and  C_26
                            x       y       z     vdW  Elec       q    Type
                         _______ _______ _______ _____ _____    ______ ____

>  <TORSDO>
F 6

$$$$
=
 OpenBabel11042412263D

 26 29  0  0  1  0  0  0  0  0999 V2000
  187.6720  177.2430  142.6760 C   0  0  0  0  0  3  0  0  0  0  0  0
  185.1930  178.8640  145.1790 C   0  0  2  0  0  3  0  0  0  0  0  0
  182.8870  178.2200  142.1340 C   0  0  1  0  0  3  0  0  0  0  0  0
  188.7160  176.8850  143.5290 C   0  0  0  0  0  3  0  0  0  0  0  0
  188.6280  177.1630  144.8910 C   0  0  0  0  0  3  0  0  0  0  0  0
  186.5370  177.8900  143.1780 C   0  0  0  0  0  0  0  0  0  0  0  0
  184.1490  178.9260  142.0630 C   0  0  2  0  0  0  0  0  0  0  0  0
  187.4910  177.7880  145.4070 C   0  0  0  0  0  3  0  0  0  0  0  0
  185.4810  178.2350  142.2790 N   0  0  0  0  0  0  0  0  0  0  0  0
  183.8660  178.3180  144.7160 C   0  0  0  0  0  3  0  0  0  0  0  0
  183.6080  178.4230  143.4210 C   0  0  0  0  0  0  0  0  0  0  0  0
  186.4150  178.1440  144.5760 C   0  0  0  0  0  0  0  0  0  0  0  0
  184.7220  178.1790  141.0330 C   0  0  2  0  0  3  0  0  0  0  0  0
  185.2080  178.9560  146.6770 C   0  0  0  0  0  0  0  0  0  0  0  0
  184.5770  178.1220  147.3780 O   0  0  0  0  0  0  0  0  0  0  0  0
  185.9700  179.9780  147.3070 N   0  0  0  0  0  1  0  0  0  0  0  0
  181.0500  179.5560  143.3710 C   0  0  0  0  0  1  0  0  0  0  0  0
  181.0950  179.4860  140.9800 N   0  0  0  0  0  0  0  0  0  0  0  0
  181.6850  179.1380  142.0870 C   0  0  0  0  0  0  0  0  0  0  0  0
  181.9710  180.0760  138.8640 C   0  0  0  0  0  2  0  0  0  0  0  0
  181.5130  179.1210  139.6620 C   0  0  0  0  0  0  0  0  0  0  0  0
  180.9180  177.9170  139.0110 C   0  0  0  0  0  2  0  0  0  0  0  0
  182.5590  175.8090  139.1410 C   0  0  0  0  0  3  0  0  0  0  0  0
  181.8220  176.7630  139.0840 C   0  0  0  0  0  0  0  0  0  0  0  0
  185.3930  179.0870  140.0220 C   0  0  0  0  0  2  0  0  0  0  0  0
  186.5900  178.5130  139.5950 O   0  0  0  0  0  1  0  0  0  0  0  0
  1  6  2  0  0  0  0
  1  4  1  0  0  0  0
  2 14  1  1  0  0  0
  3 19  1  1  0  0  0
  3 11  1  0  0  0  0
  4  5  2  0  0  0  0
  5  8  1  0  0  0  0
  6 12  1  0  0  0  0
  7  3  1  0  0  0  0
  7  9  1  0  0  0  0
  7 11  1  6  0  0  0
  9  6  1  0  0  0  0
 10  2  1  0  0  0  0
 11 10  2  0  0  0  0
 12  2  1  0  0  0  0
 12  8  2  0  0  0  0
 13 25  1  6  0  0  0
 13  7  1  0  0  0  0
 13  9  1  0  0  0  0
 14 16  1  0  0  0  0
 14 15  2  0  0  0  0
 18 19  2  0  0  0  0
 19 17  1  0  0  0  0
 20 21  2  0  0  0  0
 21 18  1  0  0  0  0
 22 24  1  0  0  0  0
 22 21  1  0  0  0  0
 24 23  3  0  0  0  0
 26 25  1  0  0  0  0
M  END
>  <MODEL>
8

>  <REMARK>
 VINA RESULT:      -6.9      2.077      3.284
  Name = 
  6 active torsions:
  status: ('A' for Active; 'I' for Inactive)
    1  A    between atoms: C_1  and  C_8
    2  A    between atoms: N_4  and  C_25
    3  A    between atoms: C_9  and  C_20
    4  A    between atoms: C_11  and  C_23
    5  A    between atoms: C_14  and  C_26
    6  A    between atoms: C_25  and  C_26
                            x       y       z     vdW  Elec       q    Type
                         _______ _______ _______ _____ _____    ______ ____

>  <TORSDO>
F 6

$$$$
=
 OpenBabel11042412263D

 26 29  0  0  1  0  0  0  0  0999 V2000
  189.2160  177.8870  140.6780 C   0  0  0  0  0  3  0  0  0  0  0  0
  185.3820  178.3780  140.3660 C   0  0  2  0  0  3  0  0  0  0  0  0
  185.9200  178.9760  144.1560 C   0  0  1  0  0  3  0  0  0  0  0  0
  189.6100  178.0020  139.3450 C   0  0  0  0  0  3  0  0  0  0  0  0
  188.6550  178.2300  138.3550 C   0  0  0  0  0  3  0  0  0  0  0  0
  187.8660  177.9910  141.0310 C   0  0  0  0  0  0  0  0  0  0  0  0
  186.3930  177.8080  143.4420 C   0  0  2  0  0  0  0  0  0  0  0  0
  187.3070  178.3580  138.6980 C   0  0  0  0  0  3  0  0  0  0  0  0
  187.4990  177.8790  142.4070 N   0  0  0  0  0  0  0  0  0  0  0  0
  185.0760  179.2720  141.5420 C   0  0  0  0  0  3  0  0  0  0  0  0
  185.5670  178.8920  142.7120 C   0  0  0  0  0  0  0  0  0  0  0  0
  186.8830  178.2660  140.0350 C   0  0  0  0  0  0  0  0  0  0  0  0
  187.7260  177.8680  143.8490 C   0  0  2  0  0  3  0  0  0  0  0  0
  184.5190  178.7610  139.2000 C   0  0  0  0  0  0  0  0  0  0  0  0
  184.0660  177.8810  138.4210 O   0  0  0  0  0  0  0  0  0  0  0  0
  184.1860  180.1280  138.9960 N   0  0  0  0  0  1  0  0  0  0  0  0
  183.3560  178.6750  144.3080 C   0  0  0  0  0  1  0  0  0  0  0  0
  184.7000  178.6280  146.2860 N   0  0  0  0  0  0  0  0  0  0  0  0
  184.6840  178.7090  144.9860 C   0  0  0  0  0  0  0  0  0  0  0  0
  186.3710  179.9120  147.3610 C   0  0  0  0  0  2  0  0  0  0  0  0
  185.8650  178.7120  147.1120 C   0  0  0  0  0  0  0  0  0  0  0  0
  186.8010  177.5510  147.1800 C   0  0  0  0  0  2  0  0  0  0  0  0
  189.0560  178.1910  148.4680 C   0  0  0  0  0  3  0  0  0  0  0  0
  188.0410  177.8990  147.8850 C   0  0  0  0  0  0  0  0  0  0  0  0
  188.2280  176.4940  144.2450 C   0  0  0  0  0  2  0  0  0  0  0  0
  189.5980  176.5490  144.5000 O   0  0  0  0  0  1  0  0  0  0  0  0
  1  6  1  0  0  0  0
  2 14  1  6  0  0  0
  2 10  1  0  0  0  0
  3 19  1  1  0  0  0
  4  1  2  0  0  0  0
  5  8  2  0  0  0  0
  5  4  1  0  0  0  0
  6  9  1  0  0  0  0
  7 11  1  1  0  0  0
  7 13  1  0  0  0  0
  7  3  1  0  0  0  0
  8 12  1  0  0  0  0
  9  7  1  0  0  0  0
  9 13  1  0  0  0  0
 10 11  2  0  0  0  0
 11  3  1  0  0  0  0
 12  2  1  0  0  0  0
 12  6  2  0  0  0  0
 13 25  1  6  0  0  0
 15 14  2  0  0  0  0
 16 14  1  0  0  0  0
 17 19  1  0  0  0  0
 18 21  1  0  0  0  0
 19 18  2  0  0  0  0
 21 22  1  0  0  0  0
 21 20  2  0  0  0  0
 22 24  1  0  0  0  0
 24 23  3  0  0  0  0
 25 26  1  0  0  0  0
M  END
>  <MODEL>
9

>  <REMARK>
 VINA RESULT:      -6.7      2.548      6.463
  Name = 
  6 active torsions:
  status: ('A' for Active; 'I' for Inactive)
    1  A    between atoms: C_1  and  C_8
    2  A    between atoms: N_4  and  C_25
    3  A    between atoms: C_9  and  C_20
    4  A    between atoms: C_11  and  C_23
    5  A    between atoms: C_14  and  C_26
    6  A    between atoms: C_25  and  C_26
                            x       y       z     vdW  Elec       q    Type
                         _______ _______ _______ _____ _____    ______ ____

>  <TORSDO>
F 6

$$$$
