=
 OpenBabel11042411143D

 54 62  0  0  1  0  0  0  0  0999 V2000
  183.3220  178.7260  141.6490 C   0  0  2  0  0  3  0  0  0  0  0  0
  183.6370  179.0490  145.4210 C   0  0  0  0  0  3  0  0  0  0  0  0
  189.4730  177.2530  145.4910 C   0  0  0  0  0  3  0  0  0  0  0  0
  187.2370  177.3100  147.1890 N   0  0  0  0  0  0  0  0  0  0  0  0
  188.2630  176.5390  147.4360 C   0  0  0  0  0  3  0  0  0  0  0  0
  188.2680  177.9820  145.1090 C   0  0  2  0  0  3  0  0  0  0  0  0
  187.2980  178.3630  146.1690 C   0  0  1  0  0  3  0  0  0  0  0  0
  184.7980  178.8380  145.9600 N   0  0  0  0  0  0  0  0  0  0  0  0
  186.0460  178.4810  145.3700 C   0  0  1  0  0  3  0  0  0  0  0  0
  184.0210  178.7160  142.9700 C   0  0  0  0  0  0  0  0  0  0  0  0
  189.4520  176.5980  146.6180 N   0  0  0  0  0  0  0  0  0  0  0  0
  186.3230  178.3200  144.0840 C   0  0  0  0  0  0  0  0  0  0  0  0
  187.7210  177.9480  143.9060 C   0  0  0  0  0  3  0  0  0  0  0  0
  183.3150  178.9770  144.0260 N   0  0  0  0  0  0  0  0  0  0  0  0
  185.4160  178.4020  142.9910 N   0  0  0  0  0  2  0  0  0  0  0  0
  181.5080  177.2410  140.8760 O   0  0  0  0  0  0  0  0  0  0  0  0
  180.7890  179.3130  141.7560 C   0  0  2  0  0  3  0  0  0  0  0  0
  181.8750  178.2350  141.8150 C   0  0  2  0  0  3  0  0  0  0  0  0
  179.6290  178.3870  141.6480 C   0  0  0  0  0  2  0  0  0  0  0  0
  180.3590  178.7680  139.4540 C   0  0  0  0  0  2  0  0  0  0  0  0
  180.7830  179.9290  140.3520 C   0  0  0  0  0  2  0  0  0  0  0  0
  180.2160  177.6510  140.4750 C   0  0  1  0  0  0  0  0  0  0  0  0
  179.3660  176.4950  139.9620 C   0  0  0  0  0  2  0  0  0  0  0  0
  180.1410  175.1830  139.9800 C   0  0  0  0  0  2  0  0  0  0  0  0
  179.7390  173.7230  136.3070 C   0  0  1  0  0  0  0  0  0  0  0  0
  179.6730  174.0370  137.7500 N   0  0  0  0  0  0  0  0  0  0  0  0
  180.4830  171.6720  137.5390 C   0  0  0  0  0  1  0  0  0  0  0  0
  179.3810  172.6740  137.1930 C   0  0  2  0  0  0  0  0  0  0  0  0
  182.1410  174.3860  136.7510 C   0  0  0  0  0  0  0  0  0  0  0  0
  180.5190  174.7710  138.6000 C   0  0  0  0  0  0  0  0  0  0  0  0
  179.0590  172.6070  135.8460 O   0  0  0  0  0  0  0  0  0  0  0  0
  181.2090  173.8070  135.9280 C   0  0  0  0  0  3  0  0  0  0  0  0
  181.7560  174.9360  138.1140 C   0  0  0  0  0  3  0  0  0  0  0  0
  184.5700  174.4090  137.4450 C   0  0  0  0  0  2  0  0  0  0  0  0
  183.5770  174.5280  136.2700 C   0  0  0  0  0  0  0  0  0  0  0  0
  184.9680  172.9560  137.7050 C   0  0  0  0  0  2  0  0  0  0  0  0
  185.6960  172.3510  136.4980 C   0  0  0  0  0  2  0  0  0  0  0  0
  183.8860  173.4910  135.1600 C   0  0  0  0  0  2  0  0  0  0  0  0
  183.7430  175.9150  135.6780 C   0  0  0  0  0  1  0  0  0  0  0  0
  185.3430  173.0290  135.1690 C   0  0  0  0  0  2  0  0  0  0  0  0
  184.1210  177.9260  140.6280 C   0  0  0  0  0  2  0  0  0  0  0  0
  184.2630  178.7190  139.3450 C   0  0  0  0  0  2  0  0  0  0  0  0
  184.9490  177.8580  138.3030 C   0  0  0  0  0  2  0  0  0  0  0  0
  186.3070  178.4380  137.9460 C   0  0  0  0  0  2  0  0  0  0  0  0
  187.4240  177.4060  138.1160 C   0  0  1  0  0  3  0  0  0  0  0  0
  187.4310  176.4330  136.9450 C   0  0  0  0  0  1  0  0  0  0  0  0
  188.8120  178.0360  138.3530 C   0  0  1  0  0  0  0  0  0  0  0  0
  189.8800  177.2550  137.6030 C   0  0  0  0  0  1  0  0  0  0  0  0
  188.8010  179.3330  137.8390 O   0  0  0  0  0  1  0  0  0  0  0  0
  189.1790  178.1210  139.8390 C   0  0  0  0  0  2  0  0  0  0  0  0
  190.4430  177.5820  140.0940 O   0  0  0  0  0  0  0  0  0  0  0  0
  191.7160  177.6720  141.9820 O   0  0  0  0  0  1  0  0  0  0  0  0
  190.4600  177.3500  141.4700 C   0  0  0  0  0  3  0  0  0  0  0  0
  190.1820  176.0060  141.7230 O   0  0  0  0  0  1  0  0  0  0  0  0
  1 41  1  6  0  0  0
  1 10  1  0  0  0  0
  2  8  2  0  0  0  0
  3 11  2  0  0  0  0
  4  5  2  0  0  0  0
  6 13  1  6  0  0  0
  6  3  1  0  0  0  0
  6  7  1  0  0  0  0
  7  4  1  1  0  0  0
  9 12  1  6  0  0  0
  9  8  1  0  0  0  0
  9  7  1  0  0  0  0
 10 15  1  0  0  0  0
 10 14  2  0  0  0  0
 11  5  1  0  0  0  0
 13 12  2  0  0  0  0
 14  2  1  0  0  0  0
 15 12  1  0  0  0  0
 16 18  1  0  0  0  0
 17 21  1  6  0  0  0
 17 18  1  0  0  0  0
 18  1  1  6  0  0  0
 19 17  1  0  0  0  0
 20 21  1  0  0  0  0
 20 22  1  0  0  0  0
 22 23  1  6  0  0  0
 22 16  1  0  0  0  0
 22 19  1  0  0  0  0
 23 24  1  0  0  0  0
 25 32  1  6  0  0  0
 25 28  1  0  0  0  0
 25 26  1  0  0  0  0
 26 30  1  0  0  0  0
 28 27  1  1  0  0  0
 28 26  1  0  0  0  0
 29 33  1  0  0  0  0
 30 24  1  0  0  0  0
 31 25  1  0  0  0  0
 31 28  1  0  0  0  0
 32 29  2  0  0  0  0
 33 30  2  0  0  0  0
 34 36  1  0  0  0  0
 35 29  1  0  0  0  0
 35 34  1  0  0  0  0
 37 36  1  0  0  0  0
 38 40  1  0  0  0  0
 38 35  1  0  0  0  0
 39 35  1  0  0  0  0
 40 37  1  0  0  0  0
 42 41  1  0  0  0  0
 43 42  1  0  0  0  0
 44 45  1  0  0  0  0
 44 43  1  0  0  0  0
 45 46  1  6  0  0  0
 45 47  1  0  0  0  0
 47 48  1  6  0  0  0
 47 50  1  0  0  0  0
 49 47  1  0  0  0  0
 50 51  1  0  0  0  0
 51 53  1  0  0  0  0
 53 54  1  0  0  0  0
 53 52  1  0  0  0  0
M  END
>  <MODEL>
1

>  <REMARK>
 VINA RESULT:      -7.6      0.000      0.000
  Name = 
  15 active torsions:
  status: ('A' for Active; 'I' for Inactive)
    1  A    between atoms: C_7  and  C_20
    2  A    between atoms: C_7  and  O_46
    3  A    between atoms: C_15  and  C_17
    4  A    between atoms: C_15  and  C_28
    5  A    between atoms: C_15  and  C_37
    6  A    between atoms: C_18  and  C_36
    7  A    between atoms: C_18  and  C_41
    8  A    between atoms: C_19  and  C_26
    9  A    between atoms: C_20  and  C_24
   10  A    between atoms: C_21  and  O_46
   11  A    between atoms: C_24  and  C_36
   12  A    between atoms: C_28  and  C_41
   13  A    between atoms: C_31  and  C_50
   14  A    between atoms: C_35  and  C_48
   15  A    between atoms: C_48  and  C_50
                            x       y       z     vdW  Elec       q    Type
                         _______ _______ _______ _____ _____    ______ ____

>  <TORSDO>
F 15

$$$$
=
 OpenBabel11042411143D

 54 62  0  0  1  0  0  0  0  0999 V2000
  190.0050  177.1900  139.4650 C   0  0  2  0  0  3  0  0  0  0  0  0
  191.4440  176.6860  142.9450 C   0  0  0  0  0  3  0  0  0  0  0  0
  186.1160  177.7330  145.7380 C   0  0  0  0  0  3  0  0  0  0  0  0
  188.8690  177.8910  146.2660 N   0  0  0  0  0  0  0  0  0  0  0  0
  187.9950  178.5180  147.0070 C   0  0  0  0  0  3  0  0  0  0  0  0
  187.0860  177.1760  144.8010 C   0  0  2  0  0  3  0  0  0  0  0  0
  188.4590  176.8790  145.2860 C   0  0  1  0  0  3  0  0  0  0  0  0
  190.6330  176.7290  143.9560 N   0  0  0  0  0  0  0  0  0  0  0  0
  189.2250  176.9490  144.0110 C   0  0  1  0  0  3  0  0  0  0  0  0
  189.9740  177.0620  140.9550 C   0  0  0  0  0  0  0  0  0  0  0  0
  186.5770  178.3410  146.7940 N   0  0  0  0  0  0  0  0  0  0  0  0
  188.3890  177.1240  142.9980 C   0  0  0  0  0  0  0  0  0  0  0  0
  187.0300  177.3240  143.4880 C   0  0  0  0  0  3  0  0  0  0  0  0
  191.1000  176.8510  141.5630 N   0  0  0  0  0  0  0  0  0  0  0  0
  188.7130  177.1970  141.6150 N   0  0  0  0  0  2  0  0  0  0  0  0
  188.2820  176.2890  137.9450 O   0  0  0  0  0  0  0  0  0  0  0  0
  188.1710  178.6220  138.3000 C   0  0  2  0  0  3  0  0  0  0  0  0
  188.5730  177.2790  138.9140 C   0  0  2  0  0  3  0  0  0  0  0  0
  186.9100  178.1540  137.6630 C   0  0  0  0  0  2  0  0  0  0  0  0
  188.6090  177.7590  136.1000 C   0  0  0  0  0  2  0  0  0  0  0  0
  189.0330  178.8720  137.0560 C   0  0  0  0  0  2  0  0  0  0  0  0
  187.5900  177.0190  136.9500 C   0  0  1  0  0  0  0  0  0  0  0  0
  186.6610  176.1440  136.1200 C   0  0  0  0  0  2  0  0  0  0  0  0
  186.3480  174.8320  136.8300 C   0  0  0  0  0  2  0  0  0  0  0  0
  182.6630  173.3510  136.7360 C   0  0  1  0  0  0  0  0  0  0  0  0
  184.0470  173.7930  136.4660 N   0  0  0  0  0  0  0  0  0  0  0  0
  182.5560  174.9710  134.8280 C   0  0  0  0  0  1  0  0  0  0  0  0
  183.0160  173.6250  135.3890 C   0  0  2  0  0  0  0  0  0  0  0  0
  182.7290  175.5090  138.0560 C   0  0  0  0  0  0  0  0  0  0  0  0
  184.8910  174.7140  137.1120 C   0  0  0  0  0  0  0  0  0  0  0  0
  181.9280  172.8200  135.6880 O   0  0  0  0  0  0  0  0  0  0  0  0
  182.0030  174.4870  137.5010 C   0  0  0  0  0  3  0  0  0  0  0  0
  184.2380  175.5830  137.8950 C   0  0  0  0  0  3  0  0  0  0  0  0
  182.9450  177.1130  139.9970 C   0  0  0  0  0  2  0  0  0  0  0  0
  182.0180  176.5610  138.8930 C   0  0  0  0  0  0  0  0  0  0  0  0
  183.7740  178.2960  139.5000 C   0  0  0  0  0  2  0  0  0  0  0  0
  182.8810  179.4760  139.0970 C   0  0  0  0  0  2  0  0  0  0  0  0
  181.4720  177.6980  137.9920 C   0  0  0  0  0  2  0  0  0  0  0  0
  180.8390  175.9000  139.5830 C   0  0  0  0  0  1  0  0  0  0  0  0
  181.4620  179.0560  138.6920 C   0  0  0  0  0  2  0  0  0  0  0  0
  190.8190  176.0540  138.8590 C   0  0  0  0  0  2  0  0  0  0  0  0
  191.9020  176.6140  137.9620 C   0  0  0  0  0  2  0  0  0  0  0  0
  191.7530  176.0210  136.5740 C   0  0  0  0  0  2  0  0  0  0  0  0
  193.0550  175.3720  136.1320 C   0  0  0  0  0  2  0  0  0  0  0  0
  193.2030  173.9600  136.7010 C   0  0  1  0  0  3  0  0  0  0  0  0
  192.6460  172.9320  135.7250 C   0  0  0  0  0  1  0  0  0  0  0  0
  194.6440  173.6220  137.1380 C   0  0  1  0  0  0  0  0  0  0  0  0
  194.8130  172.1170  137.2750 C   0  0  0  0  0  1  0  0  0  0  0  0
  195.5200  174.0550  136.1430 O   0  0  0  0  0  1  0  0  0  0  0  0
  195.0430  174.3100  138.4490 C   0  0  0  0  0  2  0  0  0  0  0  0
  196.0490  173.6090  139.1190 O   0  0  0  0  0  0  0  0  0  0  0  0
  196.1620  175.5460  140.3120 O   0  0  0  0  0  1  0  0  0  0  0  0
  196.9030  174.5950  139.6120 C   0  0  0  0  0  3  0  0  0  0  0  0
  197.5730  175.2100  138.5530 O   0  0  0  0  0  1  0  0  0  0  0  0
  1 41  1  6  0  0  0
  1 10  1  0  0  0  0
  2  8  2  0  0  0  0
  3 11  2  0  0  0  0
  4  5  2  0  0  0  0
  6 13  1  6  0  0  0
  6  7  1  0  0  0  0
  6  3  1  0  0  0  0
  7  4  1  1  0  0  0
  8  9  1  0  0  0  0
  9 12  1  6  0  0  0
  9  7  1  0  0  0  0
 10 14  2  0  0  0  0
 10 15  1  0  0  0  0
 11  5  1  0  0  0  0
 12 13  2  0  0  0  0
 14  2  1  0  0  0  0
 15 12  1  0  0  0  0
 16 18  1  0  0  0  0
 17 21  1  6  0  0  0
 17 18  1  0  0  0  0
 18  1  1  6  0  0  0
 19 17  1  0  0  0  0
 20 22  1  0  0  0  0
 20 21  1  0  0  0  0
 22 23  1  6  0  0  0
 22 19  1  0  0  0  0
 22 16  1  0  0  0  0
 23 24  1  0  0  0  0
 24 30  1  0  0  0  0
 25 32  1  1  0  0  0
 26 25  1  0  0  0  0
 26 30  1  0  0  0  0
 28 27  1  6  0  0  0
 28 31  1  0  0  0  0
 28 26  1  0  0  0  0
 28 25  1  0  0  0  0
 29 35  1  0  0  0  0
 30 33  2  0  0  0  0
 31 25  1  0  0  0  0
 32 29  2  0  0  0  0
 33 29  1  0  0  0  0
 35 39  1  0  0  0  0
 35 34  1  0  0  0  0
 36 34  1  0  0  0  0
 37 36  1  0  0  0  0
 38 40  1  0  0  0  0
 38 35  1  0  0  0  0
 40 37  1  0  0  0  0
 42 41  1  0  0  0  0
 43 42  1  0  0  0  0
 44 43  1  0  0  0  0
 44 45  1  0  0  0  0
 45 46  1  6  0  0  0
 45 47  1  0  0  0  0
 47 48  1  1  0  0  0
 47 50  1  0  0  0  0
 49 47  1  0  0  0  0
 50 51  1  0  0  0  0
 51 53  1  0  0  0  0
 53 52  1  0  0  0  0
 54 53  1  0  0  0  0
M  END
>  <MODEL>
2

>  <REMARK>
 VINA RESULT:      -7.5      3.289      6.154
  Name = 
  15 active torsions:
  status: ('A' for Active; 'I' for Inactive)
    1  A    between atoms: C_7  and  C_20
    2  A    between atoms: C_7  and  O_46
    3  A    between atoms: C_15  and  C_17
    4  A    between atoms: C_15  and  C_28
    5  A    between atoms: C_15  and  C_37
    6  A    between atoms: C_18  and  C_36
    7  A    between atoms: C_18  and  C_41
    8  A    between atoms: C_19  and  C_26
    9  A    between atoms: C_20  and  C_24
   10  A    between atoms: C_21  and  O_46
   11  A    between atoms: C_24  and  C_36
   12  A    between atoms: C_28  and  C_41
   13  A    between atoms: C_31  and  C_50
   14  A    between atoms: C_35  and  C_48
   15  A    between atoms: C_48  and  C_50
                            x       y       z     vdW  Elec       q    Type
                         _______ _______ _______ _____ _____    ______ ____

>  <TORSDO>
F 15

$$$$
=
 OpenBabel11042411143D

 54 62  0  0  1  0  0  0  0  0999 V2000
  189.3570  177.0760  140.0980 C   0  0  2  0  0  3  0  0  0  0  0  0
  193.1270  177.4920  139.8760 C   0  0  0  0  0  3  0  0  0  0  0  0
  193.8500  172.6570  136.2180 C   0  0  0  0  0  3  0  0  0  0  0  0
  195.3120  174.1530  138.0910 N   0  0  0  0  0  0  0  0  0  0  0  0
  195.6890  172.9560  137.7290 C   0  0  0  0  0  3  0  0  0  0  0  0
  193.3220  173.9120  136.7420 C   0  0  2  0  0  3  0  0  0  0  0  0
  194.2630  174.8780  137.3650 C   0  0  1  0  0  3  0  0  0  0  0  0
  193.7870  176.6950  139.0930 N   0  0  0  0  0  0  0  0  0  0  0  0
  193.3390  175.6290  138.2600 C   0  0  1  0  0  3  0  0  0  0  0  0
  190.7420  176.7800  139.6170 C   0  0  0  0  0  0  0  0  0  0  0  0
  194.9930  172.2400  136.6850 N   0  0  0  0  0  0  0  0  0  0  0  0
  192.0950  175.2230  138.0550 C   0  0  0  0  0  0  0  0  0  0  0  0
  192.0720  174.0940  137.1330 C   0  0  0  0  0  3  0  0  0  0  0  0
  191.7110  177.4960  140.0970 N   0  0  0  0  0  0  0  0  0  0  0  0
  190.9140  175.7180  138.6750 N   0  0  0  0  0  2  0  0  0  0  0  0
  187.2800  178.2220  139.4190 O   0  0  0  0  0  0  0  0  0  0  0  0
  188.7000  177.6010  137.6360 C   0  0  2  0  0  3  0  0  0  0  0  0
  188.6450  178.0120  139.1100 C   0  0  2  0  0  3  0  0  0  0  0  0
  187.6780  178.5650  137.1460 C   0  0  0  0  0  2  0  0  0  0  0  0
  186.4980  176.6520  137.8080 C   0  0  0  0  0  2  0  0  0  0  0  0
  187.9400  176.2800  137.4650 C   0  0  0  0  0  2  0  0  0  0  0  0
  186.6540  178.1230  138.1550 C   0  0  1  0  0  0  0  0  0  0  0  0
  185.3340  178.8810  138.0930 C   0  0  0  0  0  2  0  0  0  0  0  0
  184.6500  178.9230  139.4540 C   0  0  0  0  0  2  0  0  0  0  0  0
  181.2610  176.9090  139.9400 C   0  0  1  0  0  0  0  0  0  0  0  0
  182.6550  177.3630  139.7540 N   0  0  0  0  0  0  0  0  0  0  0  0
  182.0640  175.9420  137.7730 C   0  0  0  0  0  1  0  0  0  0  0  0
  182.1620  176.0220  139.2970 C   0  0  2  0  0  0  0  0  0  0  0  0
  180.8990  178.9280  138.4580 C   0  0  0  0  0  0  0  0  0  0  0  0
  183.2050  178.5870  139.3330 C   0  0  0  0  0  0  0  0  0  0  0  0
  181.0010  175.5490  139.8900 O   0  0  0  0  0  0  0  0  0  0  0  0
  180.4120  177.7800  139.0280 C   0  0  0  0  0  3  0  0  0  0  0  0
  182.3380  179.3660  138.6720 C   0  0  0  0  0  3  0  0  0  0  0  0
  179.0390  180.6360  138.5470 C   0  0  0  0  0  2  0  0  0  0  0  0
  179.9690  179.8070  137.6360 C   0  0  0  0  0  0  0  0  0  0  0  0
  179.6800  181.9640  138.9490 C   0  0  0  0  0  2  0  0  0  0  0  0
  179.9430  182.8520  137.7260 C   0  0  0  0  0  2  0  0  0  0  0  0
  180.7800  180.7150  136.6780 C   0  0  0  0  0  2  0  0  0  0  0  0
  179.0860  178.9030  136.7940 C   0  0  0  0  0  1  0  0  0  0  0  0
  180.1040  182.0610  136.4220 C   0  0  0  0  0  2  0  0  0  0  0  0
  189.4030  177.6170  141.5220 C   0  0  0  0  0  2  0  0  0  0  0  0
  188.6120  176.7130  142.4450 C   0  0  0  0  0  2  0  0  0  0  0  0
  187.6770  177.5590  143.2860 C   0  0  0  0  0  2  0  0  0  0  0  0
  187.4560  176.9140  144.6450 C   0  0  0  0  0  2  0  0  0  0  0  0
  187.4630  177.9520  145.7690 C   0  0  1  0  0  3  0  0  0  0  0  0
  186.0470  178.2030  146.2690 C   0  0  0  0  0  1  0  0  0  0  0  0
  188.4300  177.6050  146.9190 C   0  0  1  0  0  0  0  0  0  0  0  0
  188.2710  178.5990  148.0590 C   0  0  0  0  0  1  0  0  0  0  0  0
  188.0960  176.3440  147.4110 O   0  0  0  0  0  1  0  0  0  0  0  0
  189.8950  177.5620  146.4700 C   0  0  0  0  0  2  0  0  0  0  0  0
  190.6340  176.6210  147.1910 O   0  0  0  0  0  0  0  0  0  0  0  0
  191.6410  176.7950  145.1560 O   0  0  0  0  0  1  0  0  0  0  0  0
  191.8440  176.5160  146.5060 C   0  0  0  0  0  3  0  0  0  0  0  0
  192.3540  175.2250  146.6460 O   0  0  0  0  0  1  0  0  0  0  0  0
  1 41  1  1  0  0  0
  2 14  1  0  0  0  0
  3 11  2  0  0  0  0
  5  4  2  0  0  0  0
  6  3  1  1  0  0  0
  6 13  1  0  0  0  0
  6  7  1  0  0  0  0
  7  4  1  1  0  0  0
  7  9  1  0  0  0  0
  8  2  2  0  0  0  0
  9 12  1  6  0  0  0
  9  8  1  0  0  0  0
 10 14  2  0  0  0  0
 10  1  1  0  0  0  0
 11  5  1  0  0  0  0
 12 15  1  0  0  0  0
 13 12  2  0  0  0  0
 15 10  1  0  0  0  0
 17 19  1  6  0  0  0
 17 18  1  0  0  0  0
 18 16  1  0  0  0  0
 18  1  1  1  0  0  0
 19 22  1  0  0  0  0
 20 22  1  0  0  0  0
 21 17  1  0  0  0  0
 21 20  1  0  0  0  0
 22 23  1  6  0  0  0
 22 16  1  0  0  0  0
 23 24  1  0  0  0  0
 25 32  1  6  0  0  0
 26 25  1  0  0  0  0
 28 27  1  6  0  0  0
 28 26  1  0  0  0  0
 28 31  1  0  0  0  0
 28 25  1  0  0  0  0
 29 33  1  0  0  0  0
 29 32  2  0  0  0  0
 30 24  1  0  0  0  0
 30 26  1  0  0  0  0
 31 25  1  0  0  0  0
 33 30  2  0  0  0  0
 34 36  1  0  0  0  0
 35 29  1  0  0  0  0
 35 34  1  0  0  0  0
 37 36  1  0  0  0  0
 38 35  1  0  0  0  0
 39 35  1  0  0  0  0
 40 38  1  0  0  0  0
 40 37  1  0  0  0  0
 41 42  1  0  0  0  0
 42 43  1  0  0  0  0
 43 44  1  0  0  0  0
 44 45  1  0  0  0  0
 45 46  1  1  0  0  0
 45 47  1  0  0  0  0
 47 49  1  0  0  0  0
 47 48  1  1  0  0  0
 50 47  1  0  0  0  0
 50 51  1  0  0  0  0
 52 53  1  0  0  0  0
 53 54  1  0  0  0  0
 53 51  1  0  0  0  0
M  END
>  <MODEL>
3

>  <REMARK>
 VINA RESULT:      -7.2      4.058      8.229
  Name = 
  15 active torsions:
  status: ('A' for Active; 'I' for Inactive)
    1  A    between atoms: C_7  and  C_20
    2  A    between atoms: C_7  and  O_46
    3  A    between atoms: C_15  and  C_17
    4  A    between atoms: C_15  and  C_28
    5  A    between atoms: C_15  and  C_37
    6  A    between atoms: C_18  and  C_36
    7  A    between atoms: C_18  and  C_41
    8  A    between atoms: C_19  and  C_26
    9  A    between atoms: C_20  and  C_24
   10  A    between atoms: C_21  and  O_46
   11  A    between atoms: C_24  and  C_36
   12  A    between atoms: C_28  and  C_41
   13  A    between atoms: C_31  and  C_50
   14  A    between atoms: C_35  and  C_48
   15  A    between atoms: C_48  and  C_50
                            x       y       z     vdW  Elec       q    Type
                         _______ _______ _______ _____ _____    ______ ____

>  <TORSDO>
F 15

$$$$
=
 OpenBabel11042411143D

 54 62  0  0  1  0  0  0  0  0999 V2000
  189.2190  177.0760  140.0790 C   0  0  2  0  0  3  0  0  0  0  0  0
  192.9820  177.5830  139.9440 C   0  0  0  0  0  3  0  0  0  0  0  0
  193.9070  172.7610  136.3150 C   0  0  0  0  0  3  0  0  0  0  0  0
  195.2880  174.2960  138.2180 N   0  0  0  0  0  0  0  0  0  0  0  0
  195.7030  173.1070  137.8670 C   0  0  0  0  0  3  0  0  0  0  0  0
  193.3360  174.0040  136.8230 C   0  0  2  0  0  3  0  0  0  0  0  0
  194.2390  174.9940  137.4650 C   0  0  1  0  0  3  0  0  0  0  0  0
  193.6790  176.8020  139.1780 N   0  0  0  0  0  0  0  0  0  0  0  0
  193.2770  175.7240  138.3370 C   0  0  1  0  0  3  0  0  0  0  0  0
  190.6210  176.8130  139.6310 C   0  0  0  0  0  0  0  0  0  0  0  0
  195.0480  172.3730  136.8090 N   0  0  0  0  0  0  0  0  0  0  0  0
  192.0480  175.2870  138.1050 C   0  0  0  0  0  0  0  0  0  0  0  0
  192.0740  174.1560  137.1850 C   0  0  0  0  0  3  0  0  0  0  0  0
  191.5610  177.5540  140.1320 N   0  0  0  0  0  0  0  0  0  0  0  0
  190.8410  175.7550  138.6960 N   0  0  0  0  0  2  0  0  0  0  0  0
  187.1280  178.1420  139.3140 O   0  0  0  0  0  0  0  0  0  0  0  0
  188.7070  177.7160  137.6090 C   0  0  2  0  0  3  0  0  0  0  0  0
  188.5230  178.0310  139.0960 C   0  0  2  0  0  3  0  0  0  0  0  0
  187.6640  178.6480  137.1020 C   0  0  0  0  0  2  0  0  0  0  0  0
  186.5620  176.6330  137.5620 C   0  0  0  0  0  2  0  0  0  0  0  0
  188.0440  176.3660  137.3060 C   0  0  0  0  0  2  0  0  0  0  0  0
  186.6010  178.0860  138.0040 C   0  0  1  0  0  0  0  0  0  0  0  0
  185.2450  178.7690  137.8870 C   0  0  0  0  0  2  0  0  0  0  0  0
  184.5790  178.9230  139.2490 C   0  0  0  0  0  2  0  0  0  0  0  0
  180.6480  179.4620  139.4570 C   0  0  1  0  0  0  0  0  0  0  0  0
  182.1160  179.4640  139.6330 N   0  0  0  0  0  0  0  0  0  0  0  0
  181.1130  178.5760  141.7540 C   0  0  0  0  0  1  0  0  0  0  0  0
  181.1560  179.7320  140.7540 C   0  0  2  0  0  0  0  0  0  0  0  0
  181.1940  177.0670  138.8460 C   0  0  0  0  0  0  0  0  0  0  0  0
  183.1270  178.6030  139.1700 C   0  0  0  0  0  0  0  0  0  0  0  0
  179.8740  180.1210  140.3980 O   0  0  0  0  0  0  0  0  0  0  0  0
  180.2630  178.0180  139.1760 C   0  0  0  0  0  3  0  0  0  0  0  0
  182.6760  177.4000  138.7900 C   0  0  0  0  0  3  0  0  0  0  0  0
  179.5380  175.7110  137.5040 C   0  0  0  0  0  2  0  0  0  0  0  0
  180.7330  175.6650  138.4800 C   0  0  0  0  0  0  0  0  0  0  0  0
  179.9990  175.7680  136.0480 C   0  0  0  0  0  2  0  0  0  0  0  0
  180.7890  174.5110  135.6610 C   0  0  0  0  0  2  0  0  0  0  0  0
  181.9070  174.8380  137.8990 C   0  0  0  0  0  2  0  0  0  0  0  0
  180.2540  174.9790  139.7460 C   0  0  0  0  0  1  0  0  0  0  0  0
  181.4540  173.8170  136.8550 C   0  0  0  0  0  2  0  0  0  0  0  0
  189.2160  177.5780  141.5180 C   0  0  0  0  0  2  0  0  0  0  0  0
  189.1140  176.4080  142.4740 C   0  0  0  0  0  2  0  0  0  0  0  0
  188.2640  176.8110  143.6630 C   0  0  0  0  0  2  0  0  0  0  0  0
  189.1460  177.2700  144.8130 C   0  0  0  0  0  2  0  0  0  0  0  0
  188.3240  177.9180  145.9290 C   0  0  1  0  0  3  0  0  0  0  0  0
  186.8350  177.7710  145.6460 C   0  0  0  0  0  1  0  0  0  0  0  0
  188.6980  177.4140  147.3390 C   0  0  1  0  0  0  0  0  0  0  0  0
  189.1310  178.5770  148.2170 C   0  0  0  0  0  1  0  0  0  0  0  0
  187.5630  176.8480  147.9200 O   0  0  0  0  0  1  0  0  0  0  0  0
  189.7970  176.3460  147.3150 C   0  0  0  0  0  2  0  0  0  0  0  0
  191.0530  176.8850  147.6040 O   0  0  0  0  0  0  0  0  0  0  0  0
  193.0470  176.0770  148.3530 O   0  0  0  0  0  1  0  0  0  0  0  0
  191.9240  175.7960  147.5770 C   0  0  0  0  0  3  0  0  0  0  0  0
  192.3150  175.5380  146.2630 O   0  0  0  0  0  1  0  0  0  0  0  0
  1 41  1  1  0  0  0
  2 14  1  0  0  0  0
  3 11  2  0  0  0  0
  5  4  2  0  0  0  0
  6  3  1  1  0  0  0
  6 13  1  0  0  0  0
  6  7  1  0  0  0  0
  7  4  1  1  0  0  0
  7  9  1  0  0  0  0
  8  2  2  0  0  0  0
  9 12  1  6  0  0  0
  9  8  1  0  0  0  0
 10  1  1  0  0  0  0
 10 14  2  0  0  0  0
 11  5  1  0  0  0  0
 12 15  1  0  0  0  0
 13 12  2  0  0  0  0
 15 10  1  0  0  0  0
 17 19  1  6  0  0  0
 17 18  1  0  0  0  0
 18 16  1  0  0  0  0
 18  1  1  1  0  0  0
 19 22  1  0  0  0  0
 20 22  1  0  0  0  0
 21 20  1  0  0  0  0
 21 17  1  0  0  0  0
 22 23  1  6  0  0  0
 22 16  1  0  0  0  0
 23 24  1  0  0  0  0
 25 32  1  6  0  0  0
 25 26  1  0  0  0  0
 25 31  1  0  0  0  0
 25 28  1  0  0  0  0
 26 28  1  0  0  0  0
 28 27  1  1  0  0  0
 29 32  2  0  0  0  0
 30 24  1  0  0  0  0
 30 26  1  0  0  0  0
 31 28  1  0  0  0  0
 33 29  1  0  0  0  0
 33 30  2  0  0  0  0
 34 35  1  0  0  0  0
 35 29  1  0  0  0  0
 35 39  1  0  0  0  0
 36 34  1  0  0  0  0
 37 36  1  0  0  0  0
 37 40  1  0  0  0  0
 38 35  1  0  0  0  0
 40 38  1  0  0  0  0
 41 42  1  0  0  0  0
 42 43  1  0  0  0  0
 43 44  1  0  0  0  0
 44 45  1  0  0  0  0
 45 46  1  6  0  0  0
 45 47  1  0  0  0  0
 47 49  1  0  0  0  0
 47 48  1  1  0  0  0
 50 47  1  0  0  0  0
 50 51  1  0  0  0  0
 53 51  1  0  0  0  0
 53 52  1  0  0  0  0
 54 53  1  0  0  0  0
M  END
>  <MODEL>
4

>  <REMARK>
 VINA RESULT:      -7.1      3.998      7.992
  Name = 
  15 active torsions:
  status: ('A' for Active; 'I' for Inactive)
    1  A    between atoms: C_7  and  C_20
    2  A    between atoms: C_7  and  O_46
    3  A    between atoms: C_15  and  C_17
    4  A    between atoms: C_15  and  C_28
    5  A    between atoms: C_15  and  C_37
    6  A    between atoms: C_18  and  C_36
    7  A    between atoms: C_18  and  C_41
    8  A    between atoms: C_19  and  C_26
    9  A    between atoms: C_20  and  C_24
   10  A    between atoms: C_21  and  O_46
   11  A    between atoms: C_24  and  C_36
   12  A    between atoms: C_28  and  C_41
   13  A    between atoms: C_31  and  C_50
   14  A    between atoms: C_35  and  C_48
   15  A    between atoms: C_48  and  C_50
                            x       y       z     vdW  Elec       q    Type
                         _______ _______ _______ _____ _____    ______ ____

>  <TORSDO>
F 15

$$$$
=
 OpenBabel11042411143D

 54 62  0  0  1  0  0  0  0  0999 V2000
  189.7830  175.5690  137.3130 C   0  0  2  0  0  3  0  0  0  0  0  0
  192.4180  175.9450  134.6020 C   0  0  0  0  0  3  0  0  0  0  0  0
  196.8340  173.4260  137.9830 C   0  0  0  0  0  3  0  0  0  0  0  0
  196.5460  175.2200  135.8420 N   0  0  0  0  0  0  0  0  0  0  0  0
  197.6510  175.1560  136.5370 C   0  0  0  0  0  3  0  0  0  0  0  0
  195.5400  173.6070  137.3350 C   0  0  2  0  0  3  0  0  0  0  0  0
  195.5000  174.1980  135.9720 C   0  0  1  0  0  3  0  0  0  0  0  0
  193.5970  175.4510  134.8210 N   0  0  0  0  0  0  0  0  0  0  0  0
  194.1220  174.7620  135.9530 C   0  0  1  0  0  3  0  0  0  0  0  0
  191.1250  175.4030  136.6760 C   0  0  0  0  0  0  0  0  0  0  0  0
  197.8290  174.1560  137.5630 N   0  0  0  0  0  0  0  0  0  0  0  0
  193.4860  174.4190  137.0640 C   0  0  0  0  0  0  0  0  0  0  0  0
  194.3910  173.7310  137.9770 C   0  0  0  0  0  3  0  0  0  0  0  0
  191.2950  175.9070  135.4930 N   0  0  0  0  0  0  0  0  0  0  0  0
  192.1400  174.7180  137.4140 N   0  0  0  0  0  2  0  0  0  0  0  0
  187.4630  176.0910  136.6500 O   0  0  0  0  0  0  0  0  0  0  0  0
  188.3280  174.0890  135.7430 C   0  0  2  0  0  3  0  0  0  0  0  0
  188.6800  175.4920  136.2460 C   0  0  2  0  0  3  0  0  0  0  0  0
  187.0850  174.4680  135.0190 C   0  0  0  0  0  2  0  0  0  0  0  0
  186.4370  174.0210  137.2250 C   0  0  0  0  0  2  0  0  0  0  0  0
  187.7360  173.2830  136.9060 C   0  0  0  0  0  2  0  0  0  0  0  0
  186.4940  175.1570  136.2180 C   0  0  1  0  0  0  0  0  0  0  0  0
  185.1320  175.7940  135.9760 C   0  0  0  0  0  2  0  0  0  0  0  0
  184.0090  174.9470  136.5630 C   0  0  0  0  0  2  0  0  0  0  0  0
  181.3860  175.6930  139.4520 C   0  0  1  0  0  0  0  0  0  0  0  0
  182.0990  175.3260  138.2100 N   0  0  0  0  0  0  0  0  0  0  0  0
  180.5030  177.1750  137.6360 C   0  0  0  0  0  1  0  0  0  0  0  0
  180.6680  175.7760  138.2320 C   0  0  2  0  0  0  0  0  0  0  0  0
  183.2260  177.4300  139.4410 C   0  0  0  0  0  0  0  0  0  0  0  0
  183.3880  175.6250  137.7340 C   0  0  0  0  0  0  0  0  0  0  0  0
  180.0000  175.6760  139.4430 O   0  0  0  0  0  0  0  0  0  0  0  0
  182.0310  176.9800  139.9400 C   0  0  0  0  0  3  0  0  0  0  0  0
  183.9490  176.6830  138.3330 C   0  0  0  0  0  3  0  0  0  0  0  0
  183.2750  178.9840  141.4330 C   0  0  0  0  0  2  0  0  0  0  0  0
  183.8660  178.6720  140.0410 C   0  0  0  0  0  0  0  0  0  0  0  0
  184.0290  178.2530  142.5430 C   0  0  0  0  0  2  0  0  0  0  0  0
  185.4930  178.7030  142.6170 C   0  0  0  0  0  2  0  0  0  0  0  0
  185.4060  178.5190  140.1020 C   0  0  0  0  0  2  0  0  0  0  0  0
  183.5450  179.8520  139.1410 C   0  0  0  0  0  1  0  0  0  0  0  0
  186.0290  179.2520  141.2890 C   0  0  0  0  0  2  0  0  0  0  0  0
  189.7470  176.8540  138.1310 C   0  0  0  0  0  2  0  0  0  0  0  0
  190.1870  176.5750  139.5530 C   0  0  0  0  0  2  0  0  0  0  0  0
  189.4090  177.4690  140.4980 C   0  0  0  0  0  2  0  0  0  0  0  0
  190.1770  177.6670  141.7950 C   0  0  0  0  0  2  0  0  0  0  0  0
  189.2560  177.5820  143.0130 C   0  0  1  0  0  3  0  0  0  0  0  0
  188.3290  176.3800  142.8960 C   0  0  0  0  0  1  0  0  0  0  0  0
  190.0130  177.6000  144.3580 C   0  0  1  0  0  0  0  0  0  0  0  0
  191.3370  176.8660  144.2260 C   0  0  0  0  0  1  0  0  0  0  0  0
  190.2970  178.9250  144.6860 O   0  0  0  0  0  1  0  0  0  0  0  0
  189.1960  176.9940  145.5060 C   0  0  0  0  0  2  0  0  0  0  0  0
  188.7120  177.9770  146.3740 O   0  0  0  0  0  0  0  0  0  0  0  0
  188.9400  178.5770  148.5600 O   0  0  0  0  0  1  0  0  0  0  0  0
  189.0640  177.5300  147.6480 C   0  0  0  0  0  3  0  0  0  0  0  0
  190.3810  177.0700  147.6390 O   0  0  0  0  0  1  0  0  0  0  0  0
  1 41  1  6  0  0  0
  2  8  2  0  0  0  0
  2 14  1  0  0  0  0
  4  5  2  0  0  0  0
  5 11  1  0  0  0  0
  6 13  1  1  0  0  0
  6  3  1  0  0  0  0
  7  4  1  1  0  0  0
  7  6  1  0  0  0  0
  9  8  1  6  0  0  0
  9  7  1  0  0  0  0
  9 12  1  0  0  0  0
 10  1  1  0  0  0  0
 10 15  1  0  0  0  0
 11  3  2  0  0  0  0
 12 15  1  0  0  0  0
 12 13  2  0  0  0  0
 14 10  2  0  0  0  0
 17 19  1  6  0  0  0
 17 18  1  0  0  0  0
 17 21  1  0  0  0  0
 18 16  1  0  0  0  0
 18  1  1  1  0  0  0
 19 22  1  0  0  0  0
 21 20  1  0  0  0  0
 22 23  1  6  0  0  0
 22 16  1  0  0  0  0
 22 20  1  0  0  0  0
 23 24  1  0  0  0  0
 24 30  1  0  0  0  0
 25 32  1  1  0  0  0
 26 28  1  0  0  0  0
 26 25  1  0  0  0  0
 28 27  1  6  0  0  0
 28 31  1  0  0  0  0
 28 25  1  0  0  0  0
 29 32  2  0  0  0  0
 29 35  1  0  0  0  0
 30 26  1  0  0  0  0
 30 33  2  0  0  0  0
 31 25  1  0  0  0  0
 33 29  1  0  0  0  0
 34 36  1  0  0  0  0
 35 38  1  0  0  0  0
 35 34  1  0  0  0  0
 36 37  1  0  0  0  0
 38 40  1  0  0  0  0
 39 35  1  0  0  0  0
 40 37  1  0  0  0  0
 41 42  1  0  0  0  0
 42 43  1  0  0  0  0
 43 44  1  0  0  0  0
 44 45  1  0  0  0  0
 45 46  1  6  0  0  0
 45 47  1  0  0  0  0
 47 48  1  6  0  0  0
 47 49  1  0  0  0  0
 47 50  1  0  0  0  0
 50 51  1  0  0  0  0
 51 53  1  0  0  0  0
 53 52  1  0  0  0  0
 54 53  1  0  0  0  0
M  END
>  <MODEL>
5

>  <REMARK>
 VINA RESULT:      -6.9      4.751      8.569
  Name = 
  15 active torsions:
  status: ('A' for Active; 'I' for Inactive)
    1  A    between atoms: C_7  and  C_20
    2  A    between atoms: C_7  and  O_46
    3  A    between atoms: C_15  and  C_17
    4  A    between atoms: C_15  and  C_28
    5  A    between atoms: C_15  and  C_37
    6  A    between atoms: C_18  and  C_36
    7  A    between atoms: C_18  and  C_41
    8  A    between atoms: C_19  and  C_26
    9  A    between atoms: C_20  and  C_24
   10  A    between atoms: C_21  and  O_46
   11  A    between atoms: C_24  and  C_36
   12  A    between atoms: C_28  and  C_41
   13  A    between atoms: C_31  and  C_50
   14  A    between atoms: C_35  and  C_48
   15  A    between atoms: C_48  and  C_50
                            x       y       z     vdW  Elec       q    Type
                         _______ _______ _______ _____ _____    ______ ____

>  <TORSDO>
F 15

$$$$
=
 OpenBabel11042411143D

 54 62  0  0  1  0  0  0  0  0999 V2000
  181.8400  178.1270  141.0640 C   0  0  2  0  0  3  0  0  0  0  0  0
  179.2530  180.8990  141.3120 C   0  0  0  0  0  3  0  0  0  0  0  0
  180.7850  183.3600  135.9380 C   0  0  0  0  0  3  0  0  0  0  0  0
  179.6220  184.1180  138.3780 N   0  0  0  0  0  0  0  0  0  0  0  0
  180.1020  185.0040  137.5460 C   0  0  0  0  0  3  0  0  0  0  0  0
  180.4170  182.3550  136.9290 C   0  0  2  0  0  3  0  0  0  0  0  0
  179.4320  182.7180  137.9820 C   0  0  1  0  0  3  0  0  0  0  0  0
  179.1180  181.7030  140.3030 N   0  0  0  0  0  0  0  0  0  0  0  0
  179.8000  181.7490  139.0520 C   0  0  1  0  0  3  0  0  0  0  0  0
  181.0470  179.3060  140.5980 C   0  0  0  0  0  0  0  0  0  0  0  0
  180.5980  184.6110  136.2460 N   0  0  0  0  0  0  0  0  0  0  0  0
  180.7320  180.9230  138.6020 C   0  0  0  0  0  0  0  0  0  0  0  0
  181.1750  181.3280  137.2730 C   0  0  0  0  0  3  0  0  0  0  0  0
  180.1670  179.7990  141.4130 N   0  0  0  0  0  0  0  0  0  0  0  0
  181.3200  179.8280  139.2950 N   0  0  0  0  0  2  0  0  0  0  0  0
  184.0500  177.5220  141.9810 O   0  0  0  0  0  0  0  0  0  0  0  0
  183.3950  179.7590  142.3630 C   0  0  2  0  0  3  0  0  0  0  0  0
  183.2710  178.5610  141.4190 C   0  0  2  0  0  3  0  0  0  0  0  0
  184.8470  179.6090  142.6480 C   0  0  0  0  0  2  0  0  0  0  0  0
  183.7400  178.2720  144.2200 C   0  0  0  0  0  2  0  0  0  0  0  0
  182.8050  179.3740  143.7260 C   0  0  0  0  0  2  0  0  0  0  0  0
  184.7070  178.1680  143.0530 C   0  0  1  0  0  0  0  0  0  0  0  0
  186.0150  177.4870  143.4360 C   0  0  0  0  0  2  0  0  0  0  0  0
  187.1910  178.0580  142.6520 C   0  0  0  0  0  2  0  0  0  0  0  0
  191.0890  178.0490  143.4180 C   0  0  1  0  0  0  0  0  0  0  0  0
  189.7300  177.9200  142.8520 N   0  0  0  0  0  0  0  0  0  0  0  0
  190.6960  175.6100  143.0060 C   0  0  0  0  0  1  0  0  0  0  0  0
  190.8700  177.0270  142.4590 C   0  0  2  0  0  0  0  0  0  0  0  0
  189.7640  177.5110  145.5060 C   0  0  0  0  0  0  0  0  0  0  0  0
  188.4520  177.9570  143.4380 C   0  0  0  0  0  0  0  0  0  0  0  0
  192.1490  177.4990  142.7150 O   0  0  0  0  0  0  0  0  0  0  0  0
  190.9760  177.6350  144.8770 C   0  0  0  0  0  3  0  0  0  0  0  0
  188.4600  177.7390  144.7590 C   0  0  0  0  0  3  0  0  0  0  0  0
  189.8210  178.4760  147.8410 C   0  0  0  0  0  2  0  0  0  0  0  0
  189.7230  177.1910  146.9920 C   0  0  0  0  0  0  0  0  0  0  0  0
  188.4440  179.0900  148.0980 C   0  0  0  0  0  2  0  0  0  0  0  0
  187.5500  178.1400  148.9050 C   0  0  0  0  0  2  0  0  0  0  0  0
  188.4510  176.3770  147.3410 C   0  0  0  0  0  2  0  0  0  0  0  0
  190.9340  176.3380  147.3250 C   0  0  0  0  0  1  0  0  0  0  0  0
  187.9320  176.6630  148.7490 C   0  0  0  0  0  2  0  0  0  0  0  0
  181.7830  177.0150  140.0240 C   0  0  0  0  0  2  0  0  0  0  0  0
  183.0530  177.0120  139.1990 C   0  0  0  0  0  2  0  0  0  0  0  0
  182.6940  177.1510  137.7330 C   0  0  0  0  0  2  0  0  0  0  0  0
  183.9480  177.3370  136.8950 C   0  0  0  0  0  2  0  0  0  0  0  0
  185.0840  176.4280  137.3690 C   0  0  1  0  0  3  0  0  0  0  0  0
  184.9290  175.0330  136.7800 C   0  0  0  0  0  1  0  0  0  0  0  0
  186.4880  177.0130  137.1100 C   0  0  1  0  0  0  0  0  0  0  0  0
  187.4800  175.8960  136.8320 C   0  0  0  0  0  1  0  0  0  0  0  0
  186.4280  177.8160  135.9710 O   0  0  0  0  0  1  0  0  0  0  0  0
  186.9930  177.8780  138.2710 C   0  0  0  0  0  2  0  0  0  0  0  0
  188.1010  177.3060  138.9020 O   0  0  0  0  0  0  0  0  0  0  0  0
  188.9840  179.2070  138.0070 O   0  0  0  0  0  1  0  0  0  0  0  0
  188.9740  178.3720  139.1240 C   0  0  0  0  0  3  0  0  0  0  0  0
  190.2610  177.8850  139.3550 O   0  0  0  0  0  1  0  0  0  0  0  0
  1 41  1  6  0  0  0
  2 14  1  0  0  0  0
  3 11  2  0  0  0  0
  5  4  2  0  0  0  0
  6  3  1  1  0  0  0
  6 13  1  0  0  0  0
  6  7  1  0  0  0  0
  7  4  1  1  0  0  0
  7  9  1  0  0  0  0
  8  2  2  0  0  0  0
  9 12  1  6  0  0  0
  9  8  1  0  0  0  0
 10  1  1  0  0  0  0
 10 14  2  0  0  0  0
 11  5  1  0  0  0  0
 12 15  1  0  0  0  0
 13 12  2  0  0  0  0
 15 10  1  0  0  0  0
 16 22  1  0  0  0  0
 17 19  1  1  0  0  0
 17 21  1  0  0  0  0
 18  1  1  1  0  0  0
 18 16  1  0  0  0  0
 18 17  1  0  0  0  0
 19 22  1  0  0  0  0
 21 20  1  0  0  0  0
 22 23  1  1  0  0  0
 22 20  1  0  0  0  0
 24 23  1  0  0  0  0
 24 30  1  0  0  0  0
 25 32  1  1  0  0  0
 26 25  1  0  0  0  0
 26 30  1  0  0  0  0
 28 31  1  0  0  0  0
 28 26  1  0  0  0  0
 28 27  1  1  0  0  0
 28 25  1  0  0  0  0
 29 35  1  0  0  0  0
 30 33  2  0  0  0  0
 31 25  1  0  0  0  0
 32 29  2  0  0  0  0
 33 29  1  0  0  0  0
 34 36  1  0  0  0  0
 35 39  1  0  0  0  0
 35 38  1  0  0  0  0
 35 34  1  0  0  0  0
 36 37  1  0  0  0  0
 38 40  1  0  0  0  0
 40 37  1  0  0  0  0
 42 41  1  0  0  0  0
 43 42  1  0  0  0  0
 44 45  1  0  0  0  0
 44 43  1  0  0  0  0
 45 46  1  6  0  0  0
 47 48  1  6  0  0  0
 47 45  1  0  0  0  0
 47 50  1  0  0  0  0
 49 47  1  0  0  0  0
 50 51  1  0  0  0  0
 51 53  1  0  0  0  0
 52 53  1  0  0  0  0
 53 54  1  0  0  0  0
M  END
>  <MODEL>
6

>  <REMARK>
 VINA RESULT:      -6.6      3.042      9.274
  Name = 
  15 active torsions:
  status: ('A' for Active; 'I' for Inactive)
    1  A    between atoms: C_7  and  C_20
    2  A    between atoms: C_7  and  O_46
    3  A    between atoms: C_15  and  C_17
    4  A    between atoms: C_15  and  C_28
    5  A    between atoms: C_15  and  C_37
    6  A    between atoms: C_18  and  C_36
    7  A    between atoms: C_18  and  C_41
    8  A    between atoms: C_19  and  C_26
    9  A    between atoms: C_20  and  C_24
   10  A    between atoms: C_21  and  O_46
   11  A    between atoms: C_24  and  C_36
   12  A    between atoms: C_28  and  C_41
   13  A    between atoms: C_31  and  C_50
   14  A    between atoms: C_35  and  C_48
   15  A    between atoms: C_48  and  C_50
                            x       y       z     vdW  Elec       q    Type
                         _______ _______ _______ _____ _____    ______ ____

>  <TORSDO>
F 15

$$$$
=
 OpenBabel11042411143D

 54 62  0  0  1  0  0  0  0  0999 V2000
  186.2670  176.3180  136.3660 C   0  0  2  0  0  3  0  0  0  0  0  0
  185.4940  172.7980  137.5680 C   0  0  0  0  0  3  0  0  0  0  0  0
  179.8840  172.7720  135.1590 C   0  0  0  0  0  3  0  0  0  0  0  0
  181.3210  171.5410  137.2330 N   0  0  0  0  0  0  0  0  0  0  0  0
  180.0150  171.5340  137.2090 C   0  0  0  0  0  3  0  0  0  0  0  0
  181.3300  172.9420  135.2640 C   0  0  2  0  0  3  0  0  0  0  0  0
  182.1070  171.9620  136.0670 C   0  0  1  0  0  3  0  0  0  0  0  0
  184.3660  172.2630  137.2160 N   0  0  0  0  0  0  0  0  0  0  0  0
  183.2990  172.7800  136.4250 C   0  0  1  0  0  3  0  0  0  0  0  0
  185.4660  175.0630  136.5030 C   0  0  0  0  0  0  0  0  0  0  0  0
  179.2880  172.0740  136.0830 N   0  0  0  0  0  0  0  0  0  0  0  0
  183.2340  173.9520  135.8110 C   0  0  0  0  0  0  0  0  0  0  0  0
  181.9620  174.0920  135.1120 C   0  0  0  0  0  3  0  0  0  0  0  0
  185.9680  174.1050  137.2200 N   0  0  0  0  0  0  0  0  0  0  0  0
  184.1950  175.0010  135.8530 N   0  0  0  0  0  2  0  0  0  0  0  0
  187.5920  177.2160  138.2450 O   0  0  0  0  0  0  0  0  0  0  0  0
  188.8670  176.3030  136.4770 C   0  0  2  0  0  3  0  0  0  0  0  0
  187.5350  176.2310  137.2300 C   0  0  2  0  0  3  0  0  0  0  0  0
  189.7330  176.4910  137.6720 C   0  0  0  0  0  2  0  0  0  0  0  0
  189.0580  178.6370  137.0190 C   0  0  0  0  0  2  0  0  0  0  0  0
  188.9900  177.6860  135.8260 C   0  0  0  0  0  2  0  0  0  0  0  0
  188.9330  177.6590  138.1760 C   0  0  1  0  0  0  0  0  0  0  0  0
  189.4260  178.2450  139.4930 C   0  0  0  0  0  2  0  0  0  0  0  0
  189.9430  177.1580  140.4270 C   0  0  0  0  0  2  0  0  0  0  0  0
  190.9050  178.6350  143.9880 C   0  0  1  0  0  0  0  0  0  0  0  0
  190.8560  177.9870  142.6610 N   0  0  0  0  0  0  0  0  0  0  0  0
  191.4420  176.2120  144.3340 C   0  0  0  0  0  1  0  0  0  0  0  0
  191.8110  177.5720  143.7400 C   0  0  2  0  0  0  0  0  0  0  0  0
  188.5470  177.7140  144.0060 C   0  0  0  0  0  0  0  0  0  0  0  0
  189.7860  177.5640  141.8510 C   0  0  0  0  0  0  0  0  0  0  0  0
  192.0580  178.4960  144.7440 O   0  0  0  0  0  0  0  0  0  0  0  0
  189.6060  178.2600  144.6850 C   0  0  0  0  0  3  0  0  0  0  0  0
  188.6350  177.4110  142.5200 C   0  0  0  0  0  3  0  0  0  0  0  0
  187.5060  176.9170  146.1660 C   0  0  0  0  0  2  0  0  0  0  0  0
  187.2430  177.4540  144.7430 C   0  0  0  0  0  0  0  0  0  0  0  0
  187.6660  178.0520  147.1770 C   0  0  0  0  0  2  0  0  0  0  0  0
  186.3830  178.8850  147.2910 C   0  0  0  0  0  2  0  0  0  0  0  0
  186.3670  178.7320  144.7720 C   0  0  0  0  0  2  0  0  0  0  0  0
  186.4810  176.3780  143.9890 C   0  0  0  0  0  1  0  0  0  0  0  0
  185.5090  178.8330  146.0320 C   0  0  0  0  0  2  0  0  0  0  0  0
  185.3980  177.5290  136.6830 C   0  0  0  0  0  2  0  0  0  0  0  0
  184.7640  177.3670  138.0490 C   0  0  0  0  0  2  0  0  0  0  0  0
  183.3900  178.0080  138.0370 C   0  0  0  0  0  2  0  0  0  0  0  0
  183.0420  178.5420  139.4170 C   0  0  0  0  0  2  0  0  0  0  0  0
  181.7670  179.3870  139.3890 C   0  0  1  0  0  3  0  0  0  0  0  0
  181.1970  179.4420  137.9780 C   0  0  0  0  0  1  0  0  0  0  0  0
  180.7120  178.9420  140.4230 C   0  0  1  0  0  0  0  0  0  0  0  0
  181.3600  178.7340  141.7820 C   0  0  0  0  0  1  0  0  0  0  0  0
  179.7690  179.9620  140.5580 O   0  0  0  0  0  1  0  0  0  0  0  0
  179.9700  177.6680  140.0020 C   0  0  0  0  0  2  0  0  0  0  0  0
  180.7310  176.5200  140.2410 O   0  0  0  0  0  0  0  0  0  0  0  0
  179.7090  174.4900  140.0920 O   0  0  0  0  0  1  0  0  0  0  0  0
  180.2180  175.5640  139.3650 C   0  0  0  0  0  3  0  0  0  0  0  0
  181.2290  175.1160  138.5130 O   0  0  0  0  0  1  0  0  0  0  0  0
  1 10  1  0  0  0  0
  1 41  1  1  0  0  0
  3  6  1  0  0  0  0
  3 11  2  0  0  0  0
  5  4  2  0  0  0  0
  6 13  1  1  0  0  0
  6  7  1  0  0  0  0
  7  9  1  0  0  0  0
  7  4  1  1  0  0  0
  8  2  2  0  0  0  0
  9 12  1  6  0  0  0
  9  8  1  0  0  0  0
 10 14  2  0  0  0  0
 11  5  1  0  0  0  0
 12 15  1  0  0  0  0
 13 12  2  0  0  0  0
 14  2  1  0  0  0  0
 15 10  1  0  0  0  0
 17 21  1  6  0  0  0
 17 18  1  0  0  0  0
 17 19  1  0  0  0  0
 18  1  1  6  0  0  0
 18 16  1  0  0  0  0
 19 22  1  0  0  0  0
 20 22  1  0  0  0  0
 21 20  1  0  0  0  0
 22 16  1  0  0  0  0
 22 23  1  1  0  0  0
 23 24  1  0  0  0  0
 24 30  1  0  0  0  0
 25 32  1  1  0  0  0
 25 31  1  0  0  0  0
 26 28  1  0  0  0  0
 26 25  1  0  0  0  0
 28 25  1  0  0  0  0
 28 27  1  1  0  0  0
 28 31  1  0  0  0  0
 29 32  2  0  0  0  0
 29 35  1  0  0  0  0
 30 33  2  0  0  0  0
 30 26  1  0  0  0  0
 33 29  1  0  0  0  0
 34 36  1  0  0  0  0
 35 38  1  0  0  0  0
 35 34  1  0  0  0  0
 36 37  1  0  0  0  0
 38 40  1  0  0  0  0
 39 35  1  0  0  0  0
 40 37  1  0  0  0  0
 41 42  1  0  0  0  0
 43 42  1  0  0  0  0
 43 44  1  0  0  0  0
 45 46  1  6  0  0  0
 45 44  1  0  0  0  0
 45 47  1  0  0  0  0
 47 49  1  0  0  0  0
 47 48  1  1  0  0  0
 50 51  1  0  0  0  0
 50 47  1  0  0  0  0
 53 52  1  0  0  0  0
 53 51  1  0  0  0  0
 54 53  1  0  0  0  0
M  END
>  <MODEL>
7

>  <REMARK>
 VINA RESULT:      -6.6      2.500     10.544
  Name = 
  15 active torsions:
  status: ('A' for Active; 'I' for Inactive)
    1  A    between atoms: C_7  and  C_20
    2  A    between atoms: C_7  and  O_46
    3  A    between atoms: C_15  and  C_17
    4  A    between atoms: C_15  and  C_28
    5  A    between atoms: C_15  and  C_37
    6  A    between atoms: C_18  and  C_36
    7  A    between atoms: C_18  and  C_41
    8  A    between atoms: C_19  and  C_26
    9  A    between atoms: C_20  and  C_24
   10  A    between atoms: C_21  and  O_46
   11  A    between atoms: C_24  and  C_36
   12  A    between atoms: C_28  and  C_41
   13  A    between atoms: C_31  and  C_50
   14  A    between atoms: C_35  and  C_48
   15  A    between atoms: C_48  and  C_50
                            x       y       z     vdW  Elec       q    Type
                         _______ _______ _______ _____ _____    ______ ____

>  <TORSDO>
F 15

$$$$
=
 OpenBabel11042411143D

 54 62  0  0  1  0  0  0  0  0999 V2000
  192.1840  176.3230  138.1170 C   0  0  2  0  0  3  0  0  0  0  0  0
  195.0900  176.3730  135.6700 C   0  0  0  0  0  3  0  0  0  0  0  0
  197.1030  170.8510  137.3240 C   0  0  0  0  0  3  0  0  0  0  0  0
  198.0810  173.2300  136.1980 N   0  0  0  0  0  0  0  0  0  0  0  0
  198.8840  172.3410  136.7210 C   0  0  0  0  0  3  0  0  0  0  0  0
  196.1870  171.9070  136.9060 C   0  0  2  0  0  3  0  0  0  0  0  0
  196.6680  172.9290  135.9400 C   0  0  1  0  0  3  0  0  0  0  0  0
  195.8300  175.3120  135.5740 N   0  0  0  0  0  0  0  0  0  0  0  0
  195.7580  174.0630  136.2580 C   0  0  1  0  0  3  0  0  0  0  0  0
  193.3670  175.7760  137.3840 C   0  0  0  0  0  0  0  0  0  0  0  0
  198.3810  171.0740  137.1980 N   0  0  0  0  0  0  0  0  0  0  0  0
  194.8580  173.6740  137.1490 C   0  0  0  0  0  0  0  0  0  0  0  0
  195.1500  172.3230  137.6120 C   0  0  0  0  0  3  0  0  0  0  0  0
  193.9560  176.5520  136.5280 N   0  0  0  0  0  0  0  0  0  0  0  0
  193.7850  174.4410  137.6830 N   0  0  0  0  0  2  0  0  0  0  0  0
  190.1460  177.6560  137.7150 O   0  0  0  0  0  0  0  0  0  0  0  0
  190.4030  175.7820  136.2990 C   0  0  2  0  0  3  0  0  0  0  0  0
  191.1400  176.8450  137.1170 C   0  0  2  0  0  3  0  0  0  0  0  0
  189.3500  176.6800  135.7520 C   0  0  0  0  0  2  0  0  0  0  0  0
  188.5340  175.9050  137.8070 C   0  0  0  0  0  2  0  0  0  0  0  0
  189.5640  174.9220  137.2530 C   0  0  0  0  0  2  0  0  0  0  0  0
  188.9560  177.1880  137.1110 C   0  0  1  0  0  0  0  0  0  0  0  0
  187.8520  178.2380  137.1000 C   0  0  0  0  0  2  0  0  0  0  0  0
  187.0880  178.2580  138.4180 C   0  0  0  0  0  2  0  0  0  0  0  0
  183.2820  179.3560  138.7200 C   0  0  1  0  0  0  0  0  0  0  0  0
  184.7100  179.0330  138.9200 N   0  0  0  0  0  0  0  0  0  0  0  0
  183.3920  177.5870  140.4900 C   0  0  0  0  0  1  0  0  0  0  0  0
  183.7020  179.0120  140.0310 C   0  0  2  0  0  0  0  0  0  0  0  0
  183.5140  177.3260  137.2250 C   0  0  0  0  0  0  0  0  0  0  0  0
  185.6180  178.2530  138.1810 C   0  0  0  0  0  0  0  0  0  0  0  0
  182.5320  179.7270  139.8240 O   0  0  0  0  0  0  0  0  0  0  0  0
  182.7110  178.2250  137.8800 C   0  0  0  0  0  3  0  0  0  0  0  0
  185.0280  177.3900  137.3450 C   0  0  0  0  0  3  0  0  0  0  0  0
  182.9010  174.8870  136.9890 C   0  0  0  0  0  2  0  0  0  0  0  0
  182.8820  176.2790  136.3230 C   0  0  0  0  0  0  0  0  0  0  0  0
  181.6620  174.6580  137.8550 C   0  0  0  0  0  2  0  0  0  0  0  0
  180.3790  174.6860  137.0150 C   0  0  0  0  0  2  0  0  0  0  0  0
  181.4440  176.6960  135.9240 C   0  0  0  0  0  2  0  0  0  0  0  0
  183.7130  176.1830  135.0560 C   0  0  0  0  0  1  0  0  0  0  0  0
  180.5140  175.5010  135.7230 C   0  0  0  0  0  2  0  0  0  0  0  0
  192.6350  177.3710  139.1270 C   0  0  0  0  0  2  0  0  0  0  0  0
  192.2950  176.9160  140.5310 C   0  0  0  0  0  2  0  0  0  0  0  0
  190.8180  177.1420  140.7820 C   0  0  0  0  0  2  0  0  0  0  0  0
  190.3940  176.4840  142.0860 C   0  0  0  0  0  2  0  0  0  0  0  0
  189.6140  177.4500  142.9780 C   0  0  1  0  0  3  0  0  0  0  0  0
  188.2440  176.8740  143.3140 C   0  0  0  0  0  1  0  0  0  0  0  0
  190.3860  177.8790  144.2430 C   0  0  1  0  0  0  0  0  0  0  0  0
  191.2480  179.0960  143.9460 C   0  0  0  0  0  1  0  0  0  0  0  0
  189.4620  178.2460  145.2210 O   0  0  0  0  0  1  0  0  0  0  0  0
  191.2570  176.7550  144.8160 C   0  0  0  0  0  2  0  0  0  0  0  0
  191.9810  177.1760  145.9340 O   0  0  0  0  0  0  0  0  0  0  0  0
  190.6570  176.7560  147.7410 O   0  0  0  0  0  1  0  0  0  0  0  0
  191.6700  176.2480  146.9290 C   0  0  0  0  0  3  0  0  0  0  0  0
  192.8030  175.9900  147.7010 O   0  0  0  0  0  1  0  0  0  0  0  0
  1 41  1  1  0  0  0
  2 14  1  0  0  0  0
  4  5  2  0  0  0  0
  5 11  1  0  0  0  0
  6  3  1  1  0  0  0
  6 13  1  0  0  0  0
  7  4  1  1  0  0  0
  7  9  1  0  0  0  0
  7  6  1  0  0  0  0
  8  2  2  0  0  0  0
  9  8  1  6  0  0  0
  9 12  1  0  0  0  0
 10 15  1  0  0  0  0
 10  1  1  0  0  0  0
 11  3  2  0  0  0  0
 12 13  2  0  0  0  0
 12 15  1  0  0  0  0
 14 10  2  0  0  0  0
 17 19  1  6  0  0  0
 17 18  1  0  0  0  0
 17 21  1  0  0  0  0
 18 16  1  0  0  0  0
 18  1  1  1  0  0  0
 19 22  1  0  0  0  0
 21 20  1  0  0  0  0
 22 23  1  6  0  0  0
 22 16  1  0  0  0  0
 22 20  1  0  0  0  0
 23 24  1  0  0  0  0
 25 32  1  6  0  0  0
 25 26  1  0  0  0  0
 25 31  1  0  0  0  0
 25 28  1  0  0  0  0
 26 28  1  0  0  0  0
 28 27  1  1  0  0  0
 29 33  1  0  0  0  0
 29 32  2  0  0  0  0
 30 24  1  0  0  0  0
 30 26  1  0  0  0  0
 31 28  1  0  0  0  0
 33 30  2  0  0  0  0
 34 36  1  0  0  0  0
 35 34  1  0  0  0  0
 35 29  1  0  0  0  0
 37 36  1  0  0  0  0
 38 35  1  0  0  0  0
 39 35  1  0  0  0  0
 40 38  1  0  0  0  0
 40 37  1  0  0  0  0
 41 42  1  0  0  0  0
 42 43  1  0  0  0  0
 43 44  1  0  0  0  0
 44 45  1  0  0  0  0
 45 46  1  1  0  0  0
 45 47  1  0  0  0  0
 47 48  1  6  0  0  0
 47 50  1  0  0  0  0
 47 49  1  0  0  0  0
 50 51  1  0  0  0  0
 51 53  1  0  0  0  0
 53 54  1  0  0  0  0
 53 52  1  0  0  0  0
M  END
>  <MODEL>
8

>  <REMARK>
 VINA RESULT:      -6.5      5.326      9.323
  Name = 
  15 active torsions:
  status: ('A' for Active; 'I' for Inactive)
    1  A    between atoms: C_7  and  C_20
    2  A    between atoms: C_7  and  O_46
    3  A    between atoms: C_15  and  C_17
    4  A    between atoms: C_15  and  C_28
    5  A    between atoms: C_15  and  C_37
    6  A    between atoms: C_18  and  C_36
    7  A    between atoms: C_18  and  C_41
    8  A    between atoms: C_19  and  C_26
    9  A    between atoms: C_20  and  C_24
   10  A    between atoms: C_21  and  O_46
   11  A    between atoms: C_24  and  C_36
   12  A    between atoms: C_28  and  C_41
   13  A    between atoms: C_31  and  C_50
   14  A    between atoms: C_35  and  C_48
   15  A    between atoms: C_48  and  C_50
                            x       y       z     vdW  Elec       q    Type
                         _______ _______ _______ _____ _____    ______ ____

>  <TORSDO>
F 15

$$$$
=
 OpenBabel11042411143D

 54 62  0  0  1  0  0  0  0  0999 V2000
  188.8350  178.1550  139.1730 C   0  0  2  0  0  3  0  0  0  0  0  0
  190.8120  177.1010  142.2410 C   0  0  0  0  0  3  0  0  0  0  0  0
  186.0790  177.8100  146.0330 C   0  0  0  0  0  3  0  0  0  0  0  0
  188.8860  177.8350  146.0960 N   0  0  0  0  0  0  0  0  0  0  0  0
  188.1760  178.3570  147.0610 C   0  0  0  0  0  3  0  0  0  0  0  0
  186.8520  177.3840  144.8710 C   0  0  2  0  0  3  0  0  0  0  0  0
  188.2720  176.9910  145.0640 C   0  0  1  0  0  3  0  0  0  0  0  0
  190.1840  177.0040  143.3720 N   0  0  0  0  0  0  0  0  0  0  0  0
  188.8170  177.2400  143.7000 C   0  0  1  0  0  3  0  0  0  0  0  0
  189.0480  177.8020  140.6110 C   0  0  0  0  0  0  0  0  0  0  0  0
  186.7360  178.2420  147.0720 N   0  0  0  0  0  0  0  0  0  0  0  0
  187.8310  177.5820  142.8840 C   0  0  0  0  0  0  0  0  0  0  0  0
  186.5840  177.7310  143.6240 C   0  0  0  0  0  3  0  0  0  0  0  0
  190.2490  177.4810  140.9790 N   0  0  0  0  0  0  0  0  0  0  0  0
  187.9230  177.8590  141.4910 N   0  0  0  0  0  2  0  0  0  0  0  0
  187.7990  176.2820  137.9440 O   0  0  0  0  0  0  0  0  0  0  0  0
  186.6630  178.3450  137.7520 C   0  0  2  0  0  3  0  0  0  0  0  0
  187.5540  177.4840  138.6510 C   0  0  2  0  0  3  0  0  0  0  0  0
  185.7840  177.2450  137.2710 C   0  0  0  0  0  2  0  0  0  0  0  0
  187.6080  177.3040  135.8020 C   0  0  0  0  0  2  0  0  0  0  0  0
  187.4300  178.6700  136.4640 C   0  0  0  0  0  2  0  0  0  0  0  0
  186.9430  176.3980  136.8240 C   0  0  1  0  0  0  0  0  0  0  0  0
  186.5530  175.0460  136.2410 C   0  0  0  0  0  2  0  0  0  0  0  0
  186.2710  174.0260  137.3380 C   0  0  0  0  0  2  0  0  0  0  0  0
  183.2130  171.5170  136.9660 C   0  0  1  0  0  0  0  0  0  0  0  0
  184.4900  172.2570  136.8850 N   0  0  0  0  0  0  0  0  0  0  0  0
  183.4650  172.2910  134.5960 C   0  0  0  0  0  1  0  0  0  0  0  0
  183.9520  171.4250  135.7580 C   0  0  2  0  0  0  0  0  0  0  0  0
  182.3930  173.8960  137.2450 C   0  0  0  0  0  0  0  0  0  0  0  0
  184.8600  173.5560  137.2770 C   0  0  0  0  0  0  0  0  0  0  0  0
  183.0070  170.4660  136.0870 O   0  0  0  0  0  0  0  0  0  0  0  0
  182.1200  172.5740  137.0030 C   0  0  0  0  0  3  0  0  0  0  0  0
  183.8190  174.3830  137.4430 C   0  0  0  0  0  3  0  0  0  0  0  0
  179.9650  174.1900  137.8770 C   0  0  0  0  0  2  0  0  0  0  0  0
  181.2450  174.8850  137.3680 C   0  0  0  0  0  0  0  0  0  0  0  0
  179.9010  174.1700  139.4040 C   0  0  0  0  0  2  0  0  0  0  0  0
  179.8460  175.5900  139.9810 C   0  0  0  0  0  2  0  0  0  0  0  0
  181.6440  176.0740  138.2780 C   0  0  0  0  0  2  0  0  0  0  0  0
  180.9420  175.4320  135.9840 C   0  0  0  0  0  1  0  0  0  0  0  0
  180.4600  176.6480  139.0560 C   0  0  0  0  0  2  0  0  0  0  0  0
  190.0760  177.8090  138.3610 C   0  0  0  0  0  2  0  0  0  0  0  0
  190.4620  176.3640  138.5950 C   0  0  0  0  0  2  0  0  0  0  0  0
  191.3340  175.8910  137.4480 C   0  0  0  0  0  2  0  0  0  0  0  0
  192.7970  175.8910  137.8590 C   0  0  0  0  0  2  0  0  0  0  0  0
  193.5650  174.7370  137.2130 C   0  0  1  0  0  3  0  0  0  0  0  0
  192.6010  173.7720  136.5340 C   0  0  0  0  0  1  0  0  0  0  0  0
  194.6860  175.2010  136.2610 C   0  0  1  0  0  0  0  0  0  0  0  0
  194.4390  174.6700  134.8580 C   0  0  0  0  0  1  0  0  0  0  0  0
  194.6600  176.5940  136.1940 O   0  0  0  0  0  1  0  0  0  0  0  0
  196.0810  174.7780  136.7370 C   0  0  0  0  0  2  0  0  0  0  0  0
  196.0200  173.9810  137.8830 O   0  0  0  0  0  0  0  0  0  0  0  0
  196.5120  174.7780  139.9600 O   0  0  0  0  0  1  0  0  0  0  0  0
  197.0370  174.4640  138.7070 C   0  0  0  0  0  3  0  0  0  0  0  0
  197.6020  175.6050  138.1370 O   0  0  0  0  0  1  0  0  0  0  0  0
  1 41  1  6  0  0  0
  1 10  1  0  0  0  0
  2  8  2  0  0  0  0
  3 11  2  0  0  0  0
  4  5  2  0  0  0  0
  5 11  1  0  0  0  0
  6 13  1  6  0  0  0
  6  7  1  0  0  0  0
  6  3  1  0  0  0  0
  7  4  1  1  0  0  0
  8  9  1  0  0  0  0
  9 12  1  6  0  0  0
  9  7  1  0  0  0  0
 10 14  2  0  0  0  0
 10 15  1  0  0  0  0
 12 13  2  0  0  0  0
 14  2  1  0  0  0  0
 15 12  1  0  0  0  0
 16 18  1  0  0  0  0
 17 21  1  6  0  0  0
 17 18  1  0  0  0  0
 18  1  1  6  0  0  0
 19 17  1  0  0  0  0
 20 21  1  0  0  0  0
 20 22  1  0  0  0  0
 22 23  1  6  0  0  0
 22 19  1  0  0  0  0
 22 16  1  0  0  0  0
 23 24  1  0  0  0  0
 25 32  1  6  0  0  0
 26 25  1  0  0  0  0
 26 30  1  0  0  0  0
 28 27  1  6  0  0  0
 28 31  1  0  0  0  0
 28 26  1  0  0  0  0
 28 25  1  0  0  0  0
 29 35  1  0  0  0  0
 29 33  1  0  0  0  0
 30 24  1  0  0  0  0
 30 33  2  0  0  0  0
 31 25  1  0  0  0  0
 32 29  2  0  0  0  0
 34 36  1  0  0  0  0
 35 34  1  0  0  0  0
 35 38  1  0  0  0  0
 36 37  1  0  0  0  0
 38 40  1  0  0  0  0
 39 35  1  0  0  0  0
 40 37  1  0  0  0  0
 41 42  1  0  0  0  0
 43 44  1  0  0  0  0
 43 42  1  0  0  0  0
 45 46  1  6  0  0  0
 45 44  1  0  0  0  0
 47 48  1  6  0  0  0
 47 50  1  0  0  0  0
 47 45  1  0  0  0  0
 49 47  1  0  0  0  0
 50 51  1  0  0  0  0
 51 53  1  0  0  0  0
 53 52  1  0  0  0  0
 54 53  1  0  0  0  0
M  END
>  <MODEL>
9

>  <REMARK>
 VINA RESULT:      -6.4      3.222      5.774
  Name = 
  15 active torsions:
  status: ('A' for Active; 'I' for Inactive)
    1  A    between atoms: C_7  and  C_20
    2  A    between atoms: C_7  and  O_46
    3  A    between atoms: C_15  and  C_17
    4  A    between atoms: C_15  and  C_28
    5  A    between atoms: C_15  and  C_37
    6  A    between atoms: C_18  and  C_36
    7  A    between atoms: C_18  and  C_41
    8  A    between atoms: C_19  and  C_26
    9  A    between atoms: C_20  and  C_24
   10  A    between atoms: C_21  and  O_46
   11  A    between atoms: C_24  and  C_36
   12  A    between atoms: C_28  and  C_41
   13  A    between atoms: C_31  and  C_50
   14  A    between atoms: C_35  and  C_48
   15  A    between atoms: C_48  and  C_50
                            x       y       z     vdW  Elec       q    Type
                         _______ _______ _______ _____ _____    ______ ____

>  <TORSDO>
F 15

$$$$
