=
 OpenBabel11032419203D

 25 27  0  0  1  0  0  0  0  0999 V2000
  188.1610  176.9960  143.7650 C   0  0  1  0  0  3  0  0  0  0  0  0
  185.4500  178.8880  146.8130 N   0  0  0  0  0  1  0  0  0  0  0  0
  189.3580  178.7480  149.1100 O   0  0  0  0  0  0  0  0  0  0  0  0
  189.1920  176.7100  146.0510 C   0  0  0  0  0  2  0  0  0  0  0  0
  188.2000  177.5150  145.2150 C   0  0  2  0  0  3  0  0  0  0  0  0
  188.8310  178.1230  148.1540 C   0  0  0  0  0  0  0  0  0  0  0  0
  186.8380  178.4770  146.7090 C   0  0  2  0  0  3  0  0  0  0  0  0
  186.9360  177.4060  145.8140 O   0  0  0  0  0  0  0  0  0  0  0  0
  189.6770  177.5070  147.1730 N   0  0  0  0  0  2  0  0  0  0  0  0
  187.3380  178.0420  148.0800 C   0  0  0  0  0  2  0  0  0  0  0  0
  186.6030  178.8250  140.7280 C   0  0  0  0  0  3  0  0  0  0  0  0
  187.4720  178.2300  141.5810 C   0  0  0  0  0  3  0  0  0  0  0  0
  185.1340  179.1760  140.8610 C   0  0  0  0  0  0  0  0  0  0  0  0
  183.8260  178.1080  144.2090 F   0  0  0  0  0  0  0  0  0  0  0  0
  187.1580  177.7610  142.9390 C   0  0  0  0  0  0  0  0  0  0  0  0
  185.9350  177.9350  143.2940 C   0  0  0  0  0  0  0  0  0  0  0  0
  184.3330  178.9400  141.9310 C   0  0  0  0  0  3  0  0  0  0  0  0
  184.7100  178.2980  143.2000 C   0  0  0  0  0  0  0  0  0  0  0  0
  183.2310  179.4280  139.2950 C   0  0  0  0  0  1  0  0  0  0  0  0
  184.5110  179.8080  139.7800 O   0  0  0  0  0  0  0  0  0  0  0  0
  189.5500  177.0290  143.0970 C   0  0  1  0  0  3  0  0  0  0  0  0
  191.6860  176.0320  143.3690 C   0  0  0  0  0  2  0  0  0  0  0  0
  190.3890  177.9800  143.7010 O   0  0  0  0  0  0  0  0  0  0  0  0
  191.6930  177.5410  143.4280 C   0  0  0  0  0  2  0  0  0  0  0  0
  190.2390  175.6830  143.1950 C   0  0  0  0  0  2  0  0  0  0  0  0
  1 15  1  6  0  0  0
  4  9  1  0  0  0  0
  5  1  1  6  0  0  0
  5  8  1  0  0  0  0
  5  4  1  0  0  0  0
  6  3  2  0  0  0  0
  7  2  1  1  0  0  0
  7 10  1  0  0  0  0
  8  7  1  0  0  0  0
  9  6  1  0  0  0  0
 10  6  1  0  0  0  0
 11 13  1  0  0  0  0
 11 12  2  0  0  0  0
 12 15  1  0  0  0  0
 13 17  2  0  0  0  0
 15 16  2  0  0  0  0
 17 18  1  0  0  0  0
 18 16  2  0  0  0  0
 18 14  1  0  0  0  0
 19 20  1  0  0  0  0
 20 13  1  0  0  0  0
 21 25  1  0  0  0  0
 21 23  1  0  0  0  0
 21  1  1  1  0  0  0
 22 24  1  0  0  0  0
 24 23  1  0  0  0  0
 25 22  1  0  0  0  0
M  END
>  <MODEL>
1

>  <REMARK>
 VINA RESULT:      -8.5      0.000      0.000
  Name = 
  4 active torsions:
  status: ('A' for Active; 'I' for Inactive)
    1  A    between atoms: C_1  and  C_6
    2  A    between atoms: C_1  and  C_13
    3  A    between atoms: C_1  and  C_14
    4  A    between atoms: C_11  and  O_17
                            x       y       z     vdW  Elec       q    Type
                         _______ _______ _______ _____ _____    ______ ____

>  <TORSDO>
F 4

$$$$
=
 OpenBabel11032419203D

 25 27  0  0  1  0  0  0  0  0999 V2000
  187.0610  177.5390  144.1470 C   0  0  1  0  0  3  0  0  0  0  0  0
  190.5850  176.0990  141.7540 N   0  0  0  0  0  1  0  0  0  0  0  0
  188.8010  179.1460  138.9060 O   0  0  0  0  0  0  0  0  0  0  0  0
  186.6700  178.0980  141.7170 C   0  0  0  0  0  2  0  0  0  0  0  0
  187.7190  177.7590  142.7720 C   0  0  2  0  0  3  0  0  0  0  0  0
  188.3950  178.4280  139.8560 C   0  0  0  0  0  0  0  0  0  0  0  0
  189.4940  177.0450  141.6070 C   0  0  2  0  0  3  0  0  0  0  0  0
  188.3970  176.6030  142.3570 O   0  0  0  0  0  0  0  0  0  0  0  0
  187.2690  178.8640  140.6300 N   0  0  0  0  0  2  0  0  0  0  0  0
  189.1020  177.1380  140.1380 C   0  0  0  0  0  2  0  0  0  0  0  0
  190.4910  176.8620  145.8110 C   0  0  0  0  0  3  0  0  0  0  0  0
  189.4680  176.9340  144.9250 C   0  0  0  0  0  3  0  0  0  0  0  0
  190.5750  177.1840  147.2900 C   0  0  0  0  0  0  0  0  0  0  0  0
  187.2670  178.4170  148.5530 F   0  0  0  0  0  0  0  0  0  0  0  0
  188.0980  177.3710  145.2290 C   0  0  0  0  0  0  0  0  0  0  0  0
  187.9100  177.7230  146.4510 C   0  0  0  0  0  0  0  0  0  0  0  0
  189.5750  177.6520  148.0800 C   0  0  0  0  0  3  0  0  0  0  0  0
  188.1900  177.9480  147.6800 C   0  0  0  0  0  0  0  0  0  0  0  0
  192.5180  175.7640  147.8790 C   0  0  0  0  0  1  0  0  0  0  0  0
  191.8000  176.9890  147.9350 O   0  0  0  0  0  0  0  0  0  0  0  0
  186.0780  178.6690  144.5100 C   0  0  1  0  0  3  0  0  0  0  0  0
  183.8460  178.9170  145.2730 C   0  0  0  0  0  2  0  0  0  0  0  0
  185.2920  179.0400  143.4080 O   0  0  0  0  0  0  0  0  0  0  0  0
  184.1330  179.6070  143.9600 C   0  0  0  0  0  2  0  0  0  0  0  0
  185.1390  178.2460  145.6210 C   0  0  0  0  0  2  0  0  0  0  0  0
  1 15  1  1  0  0  0
  3  6  2  0  0  0  0
  4  5  1  0  0  0  0
  5  1  1  1  0  0  0
  6 10  1  0  0  0  0
  6  9  1  0  0  0  0
  7  2  1  6  0  0  0
  7  8  1  0  0  0  0
  8  5  1  0  0  0  0
  9  4  1  0  0  0  0
 10  7  1  0  0  0  0
 11 13  1  0  0  0  0
 12 15  1  0  0  0  0
 12 11  2  0  0  0  0
 13 20  1  0  0  0  0
 13 17  2  0  0  0  0
 15 16  2  0  0  0  0
 16 18  2  0  0  0  0
 18 17  1  0  0  0  0
 18 14  1  0  0  0  0
 19 20  1  0  0  0  0
 21  1  1  6  0  0  0
 21 25  1  0  0  0  0
 22 25  1  0  0  0  0
 23 24  1  0  0  0  0
 23 21  1  0  0  0  0
 24 22  1  0  0  0  0
M  END
>  <MODEL>
2

>  <REMARK>
 VINA RESULT:      -8.3      2.918      7.046
  Name = 
  4 active torsions:
  status: ('A' for Active; 'I' for Inactive)
    1  A    between atoms: C_1  and  C_6
    2  A    between atoms: C_1  and  C_13
    3  A    between atoms: C_1  and  C_14
    4  A    between atoms: C_11  and  O_17
                            x       y       z     vdW  Elec       q    Type
                         _______ _______ _______ _____ _____    ______ ____

>  <TORSDO>
F 4

$$$$
=
 OpenBabel11032419203D

 25 27  0  0  1  0  0  0  0  0999 V2000
  187.3700  178.4120  145.1900 C   0  0  1  0  0  3  0  0  0  0  0  0
  191.5950  179.2760  143.9150 N   0  0  0  0  0  1  0  0  0  0  0  0
  190.3760  176.1980  140.8150 O   0  0  0  0  0  0  0  0  0  0  0  0
  188.1890  176.5010  143.7590 C   0  0  0  0  0  2  0  0  0  0  0  0
  188.3940  177.9670  144.1280 C   0  0  2  0  0  3  0  0  0  0  0  0
  190.0330  176.5100  141.9850 C   0  0  0  0  0  0  0  0  0  0  0  0
  190.4920  178.4310  143.4970 C   0  0  2  0  0  3  0  0  0  0  0  0
  189.7030  178.1180  144.6100 O   0  0  0  0  0  0  0  0  0  0  0  0
  188.6920  176.2390  142.4150 N   0  0  0  0  0  2  0  0  0  0  0  0
  191.0440  177.1490  142.8870 C   0  0  0  0  0  2  0  0  0  0  0  0
  183.5280  178.8640  145.0290 C   0  0  0  0  0  3  0  0  0  0  0  0
  184.8000  178.6990  145.4670 C   0  0  0  0  0  3  0  0  0  0  0  0
  182.9280  178.8630  143.6370 C   0  0  0  0  0  0  0  0  0  0  0  0
  185.5950  178.3180  141.0590 F   0  0  0  0  0  0  0  0  0  0  0  0
  185.9760  178.4560  144.6180 C   0  0  0  0  0  0  0  0  0  0  0  0
  185.7260  178.4250  143.3570 C   0  0  0  0  0  0  0  0  0  0  0  0
  183.5900  178.6950  142.4640 C   0  0  0  0  0  3  0  0  0  0  0  0
  185.0330  178.4720  142.2810 C   0  0  0  0  0  0  0  0  0  0  0  0
  180.8750  179.0800  142.2670 C   0  0  0  0  0  1  0  0  0  0  0  0
  181.5480  179.0560  143.5180 O   0  0  0  0  0  0  0  0  0  0  0  0
  187.4120  177.5220  146.4480 C   0  0  1  0  0  3  0  0  0  0  0  0
  187.9970  177.6980  148.7400 C   0  0  0  0  0  2  0  0  0  0  0  0
  188.6700  176.9220  146.6120 O   0  0  0  0  0  0  0  0  0  0  0  0
  188.7640  176.6400  147.9830 C   0  0  0  0  0  2  0  0  0  0  0  0
  187.1210  178.3260  147.6990 C   0  0  0  0  0  2  0  0  0  0  0  0
  1 15  1  6  0  0  0
  3  6  2  0  0  0  0
  4  5  1  0  0  0  0
  5  8  1  0  0  0  0
  5  1  1  1  0  0  0
  6  9  1  0  0  0  0
  6 10  1  0  0  0  0
  7  2  1  1  0  0  0
  7  8  1  0  0  0  0
  9  4  1  0  0  0  0
 10  7  1  0  0  0  0
 11 12  2  0  0  0  0
 13 11  1  0  0  0  0
 14 18  1  0  0  0  0
 15 12  1  0  0  0  0
 16 15  2  0  0  0  0
 17 13  2  0  0  0  0
 18 17  1  0  0  0  0
 18 16  2  0  0  0  0
 19 20  1  0  0  0  0
 20 13  1  0  0  0  0
 21  1  1  6  0  0  0
 21 23  1  0  0  0  0
 21 25  1  0  0  0  0
 23 24  1  0  0  0  0
 24 22  1  0  0  0  0
 25 22  1  0  0  0  0
M  END
>  <MODEL>
3

>  <REMARK>
 VINA RESULT:      -8.2      2.450      4.643
  Name = 
  4 active torsions:
  status: ('A' for Active; 'I' for Inactive)
    1  A    between atoms: C_1  and  C_6
    2  A    between atoms: C_1  and  C_13
    3  A    between atoms: C_1  and  C_14
    4  A    between atoms: C_11  and  O_17
                            x       y       z     vdW  Elec       q    Type
                         _______ _______ _______ _____ _____    ______ ____

>  <TORSDO>
F 4

$$$$
=
 OpenBabel11032419203D

 25 27  0  0  1  0  0  0  0  0999 V2000
  188.4610  178.5930  141.2650 C   0  0  1  0  0  3  0  0  0  0  0  0
  184.4200  179.6580  139.6070 N   0  0  0  0  0  1  0  0  0  0  0  0
  183.3780  178.8360  143.9440 O   0  0  0  0  0  0  0  0  0  0  0  0
  186.6880  177.6890  142.8170 C   0  0  0  0  0  2  0  0  0  0  0  0
  186.9940  178.7060  141.7210 C   0  0  2  0  0  3  0  0  0  0  0  0
  184.2810  178.4980  143.1350 C   0  0  0  0  0  0  0  0  0  0  0  0
  184.9950  179.2630  140.8790 C   0  0  2  0  0  3  0  0  0  0  0  0
  186.1230  178.4670  140.6470 O   0  0  0  0  0  0  0  0  0  0  0  0
  185.5760  178.1490  143.6420 N   0  0  0  0  0  2  0  0  0  0  0  0
  183.9650  178.4680  141.6720 C   0  0  0  0  0  2  0  0  0  0  0  0
  190.3330  175.9550  143.3930 C   0  0  0  0  0  3  0  0  0  0  0  0
  189.4940  176.5610  142.5190 C   0  0  0  0  0  3  0  0  0  0  0  0
  191.3110  176.5100  144.4100 C   0  0  0  0  0  0  0  0  0  0  0  0
  191.2930  180.2580  144.3370 F   0  0  0  0  0  0  0  0  0  0  0  0
  189.3280  178.0130  142.3540 C   0  0  0  0  0  0  0  0  0  0  0  0
  190.0810  178.7250  143.1160 C   0  0  0  0  0  0  0  0  0  0  0  0
  191.5700  177.8180  144.6620 C   0  0  0  0  0  3  0  0  0  0  0  0
  190.9590  178.9870  144.0100 C   0  0  0  0  0  0  0  0  0  0  0  0
  192.0910  175.6580  146.6020 C   0  0  0  0  0  1  0  0  0  0  0  0
  192.0390  175.6000  145.1840 O   0  0  0  0  0  0  0  0  0  0  0  0
  188.6070  177.7780  139.9650 C   0  0  1  0  0  3  0  0  0  0  0  0
  190.1720  177.4860  138.2070 C   0  0  0  0  0  2  0  0  0  0  0  0
  188.1340  178.4940  138.8540 O   0  0  0  0  0  0  0  0  0  0  0  0
  188.8060  177.9420  137.7530 C   0  0  0  0  0  2  0  0  0  0  0  0
  190.0550  177.4220  139.6990 C   0  0  0  0  0  2  0  0  0  0  0  0
  1 15  1  1  0  0  0
  4  9  1  0  0  0  0
  5  1  1  6  0  0  0
  5  4  1  0  0  0  0
  6  9  1  0  0  0  0
  6  3  2  0  0  0  0
  7  2  1  6  0  0  0
  7 10  1  0  0  0  0
  8  7  1  0  0  0  0
  8  5  1  0  0  0  0
 10  6  1  0  0  0  0
 11 13  1  0  0  0  0
 12 11  2  0  0  0  0
 13 17  2  0  0  0  0
 13 20  1  0  0  0  0
 15 12  1  0  0  0  0
 15 16  2  0  0  0  0
 16 18  2  0  0  0  0
 18 14  1  0  0  0  0
 18 17  1  0  0  0  0
 20 19  1  0  0  0  0
 21  1  1  1  0  0  0
 22 25  1  0  0  0  0
 23 21  1  0  0  0  0
 24 22  1  0  0  0  0
 24 23  1  0  0  0  0
 25 21  1  0  0  0  0
M  END
>  <MODEL>
4

>  <REMARK>
 VINA RESULT:      -8.1      3.237      6.352
  Name = 
  4 active torsions:
  status: ('A' for Active; 'I' for Inactive)
    1  A    between atoms: C_1  and  C_6
    2  A    between atoms: C_1  and  C_13
    3  A    between atoms: C_1  and  C_14
    4  A    between atoms: C_11  and  O_17
                            x       y       z     vdW  Elec       q    Type
                         _______ _______ _______ _____ _____    ______ ____

>  <TORSDO>
F 4

$$$$
=
 OpenBabel11032419203D

 25 27  0  0  1  0  0  0  0  0999 V2000
  187.3830  177.4820  144.0540 C   0  0  1  0  0  3  0  0  0  0  0  0
  190.6460  176.3380  141.1790 N   0  0  0  0  0  1  0  0  0  0  0  0
  188.0830  179.0040  138.5520 O   0  0  0  0  0  0  0  0  0  0  0  0
  186.5560  177.8640  141.7000 C   0  0  0  0  0  2  0  0  0  0  0  0
  187.7900  177.7050  142.5840 C   0  0  2  0  0  3  0  0  0  0  0  0
  187.9200  178.2930  139.5780 C   0  0  0  0  0  0  0  0  0  0  0  0
  189.4370  177.1410  141.1760 C   0  0  2  0  0  3  0  0  0  0  0  0
  188.5330  176.6150  142.1060 O   0  0  0  0  0  0  0  0  0  0  0  0
  186.8820  178.6360  140.5060 N   0  0  0  0  0  2  0  0  0  0  0  0
  188.8150  177.1110  139.7870 C   0  0  0  0  0  2  0  0  0  0  0  0
  189.5480  176.7790  147.1860 C   0  0  0  0  0  3  0  0  0  0  0  0
  188.5030  176.9620  146.3430 C   0  0  0  0  0  3  0  0  0  0  0  0
  191.0410  176.9690  147.0050 C   0  0  0  0  0  0  0  0  0  0  0  0
  191.8010  178.1370  143.5230 F   0  0  0  0  0  0  0  0  0  0  0  0
  188.5920  177.4310  144.9530 C   0  0  0  0  0  0  0  0  0  0  0  0
  189.7900  177.6550  144.5420 C   0  0  0  0  0  0  0  0  0  0  0  0
  191.6790  177.3810  145.8800 C   0  0  0  0  0  3  0  0  0  0  0  0
  191.0670  177.7380  144.5900 C   0  0  0  0  0  0  0  0  0  0  0  0
  192.8080  175.6270  148.1060 C   0  0  0  0  0  1  0  0  0  0  0  0
  191.8740  176.6970  148.0950 O   0  0  0  0  0  0  0  0  0  0  0  0
  186.3850  178.5460  144.5490 C   0  0  1  0  0  3  0  0  0  0  0  0
  184.9310  178.9100  146.3880 C   0  0  0  0  0  2  0  0  0  0  0  0
  185.0780  178.2650  144.1190 O   0  0  0  0  0  0  0  0  0  0  0  0
  184.2430  178.9110  145.0430 C   0  0  0  0  0  2  0  0  0  0  0  0
  186.3630  178.6170  146.0630 C   0  0  0  0  0  2  0  0  0  0  0  0
  1 15  1  1  0  0  0
  3  6  2  0  0  0  0
  4  5  1  0  0  0  0
  5  1  1  1  0  0  0
  6 10  1  0  0  0  0
  6  9  1  0  0  0  0
  7  2  1  6  0  0  0
  7  8  1  0  0  0  0
  8  5  1  0  0  0  0
  9  4  1  0  0  0  0
 10  7  1  0  0  0  0
 12 11  2  0  0  0  0
 13 11  1  0  0  0  0
 13 20  1  0  0  0  0
 14 18  1  0  0  0  0
 15 12  1  0  0  0  0
 16 18  2  0  0  0  0
 16 15  2  0  0  0  0
 17 13  2  0  0  0  0
 18 17  1  0  0  0  0
 20 19  1  0  0  0  0
 21  1  1  1  0  0  0
 21 25  1  0  0  0  0
 23 21  1  0  0  0  0
 23 24  1  0  0  0  0
 24 22  1  0  0  0  0
 25 22  1  0  0  0  0
M  END
>  <MODEL>
5

>  <REMARK>
 VINA RESULT:      -7.9      3.169      7.329
  Name = 
  4 active torsions:
  status: ('A' for Active; 'I' for Inactive)
    1  A    between atoms: C_1  and  C_6
    2  A    between atoms: C_1  and  C_13
    3  A    between atoms: C_1  and  C_14
    4  A    between atoms: C_11  and  O_17
                            x       y       z     vdW  Elec       q    Type
                         _______ _______ _______ _____ _____    ______ ____

>  <TORSDO>
F 4

$$$$
=
 OpenBabel11032419203D

 25 27  0  0  1  0  0  0  0  0999 V2000
  187.8370  177.1280  144.9680 C   0  0  1  0  0  3  0  0  0  0  0  0
  183.9290  179.0030  146.1660 N   0  0  0  0  0  1  0  0  0  0  0  0
  183.3250  178.5420  141.6940 O   0  0  0  0  0  0  0  0  0  0  0  0
  186.7720  178.1520  142.9220 C   0  0  0  0  0  2  0  0  0  0  0  0
  186.5240  177.6230  144.3320 C   0  0  2  0  0  3  0  0  0  0  0  0
  184.2990  178.6430  142.4850 C   0  0  0  0  0  0  0  0  0  0  0  0
  184.5760  178.5350  144.9540 C   0  0  2  0  0  3  0  0  0  0  0  0
  185.9630  178.6580  145.0950 O   0  0  0  0  0  0  0  0  0  0  0  0
  185.5570  178.0570  142.1210 N   0  0  0  0  0  2  0  0  0  0  0  0
  184.1080  179.3780  143.7750 C   0  0  0  0  0  2  0  0  0  0  0  0
  190.0130  176.3760  141.8550 C   0  0  0  0  0  3  0  0  0  0  0  0
  189.0840  176.3050  142.8390 C   0  0  0  0  0  3  0  0  0  0  0  0
  191.1640  177.3340  141.6150 C   0  0  0  0  0  0  0  0  0  0  0  0
  191.2980  179.9260  144.3210 F   0  0  0  0  0  0  0  0  0  0  0  0
  188.9830  177.2120  143.9920 C   0  0  0  0  0  0  0  0  0  0  0  0
  189.8630  178.1490  144.0120 C   0  0  0  0  0  0  0  0  0  0  0  0
  191.5160  178.3940  142.3870 C   0  0  0  0  0  3  0  0  0  0  0  0
  190.8650  178.8470  143.6260 C   0  0  0  0  0  0  0  0  0  0  0  0
  191.4340  176.7530  139.2220 C   0  0  0  0  0  1  0  0  0  0  0  0
  191.9630  177.1290  140.4860 O   0  0  0  0  0  0  0  0  0  0  0  0
  188.1760  177.8860  146.2670 C   0  0  1  0  0  3  0  0  0  0  0  0
  189.3910  177.5330  148.2740 C   0  0  0  0  0  2  0  0  0  0  0  0
  187.2470  177.6080  147.2820 O   0  0  0  0  0  0  0  0  0  0  0  0
  187.9310  177.8590  148.4810 C   0  0  0  0  0  2  0  0  0  0  0  0
  189.5480  177.5030  146.7850 C   0  0  0  0  0  2  0  0  0  0  0  0
  1 15  1  6  0  0  0
  3  6  2  0  0  0  0
  4  5  1  0  0  0  0
  5  1  1  1  0  0  0
  5  8  1  0  0  0  0
  6 10  1  0  0  0  0
  7  8  1  0  0  0  0
  7  2  1  1  0  0  0
  9  6  1  0  0  0  0
  9  4  1  0  0  0  0
 10  7  1  0  0  0  0
 11 12  2  0  0  0  0
 12 15  1  0  0  0  0
 13 11  1  0  0  0  0
 13 17  2  0  0  0  0
 15 16  2  0  0  0  0
 17 18  1  0  0  0  0
 18 16  2  0  0  0  0
 18 14  1  0  0  0  0
 19 20  1  0  0  0  0
 20 13  1  0  0  0  0
 21  1  1  6  0  0  0
 21 25  1  0  0  0  0
 21 23  1  0  0  0  0
 22 24  1  0  0  0  0
 23 24  1  0  0  0  0
 25 22  1  0  0  0  0
M  END
>  <MODEL>
6

>  <REMARK>
 VINA RESULT:      -7.9      2.614      5.490
  Name = 
  4 active torsions:
  status: ('A' for Active; 'I' for Inactive)
    1  A    between atoms: C_1  and  C_6
    2  A    between atoms: C_1  and  C_13
    3  A    between atoms: C_1  and  C_14
    4  A    between atoms: C_11  and  O_17
                            x       y       z     vdW  Elec       q    Type
                         _______ _______ _______ _____ _____    ______ ____

>  <TORSDO>
F 4

$$$$
=
 OpenBabel11032419203D

 25 27  0  0  1  0  0  0  0  0999 V2000
  188.1430  178.4310  141.6560 C   0  0  1  0  0  3  0  0  0  0  0  0
  185.9060  177.5840  145.4640 N   0  0  0  0  0  1  0  0  0  0  0  0
  182.4700  178.3370  142.6000 O   0  0  0  0  0  0  0  0  0  0  0  0
  185.8090  179.3700  141.4480 C   0  0  0  0  0  2  0  0  0  0  0  0
  186.6970  178.3700  142.1840 C   0  0  2  0  0  3  0  0  0  0  0  0
  183.6850  178.6570  142.6840 C   0  0  0  0  0  0  0  0  0  0  0  0
  185.6030  177.9210  144.0850 C   0  0  2  0  0  3  0  0  0  0  0  0
  186.6560  178.6740  143.5530 O   0  0  0  0  0  0  0  0  0  0  0  0
  184.4160  178.9360  141.4820 N   0  0  0  0  0  2  0  0  0  0  0  0
  184.3180  178.7380  144.0380 C   0  0  0  0  0  2  0  0  0  0  0  0
  190.1190  175.9150  143.8380 C   0  0  0  0  0  3  0  0  0  0  0  0
  189.2030  176.4840  143.0160 C   0  0  0  0  0  3  0  0  0  0  0  0
  191.2780  176.4990  144.6210 C   0  0  0  0  0  0  0  0  0  0  0  0
  191.5220  180.1960  144.0410 F   0  0  0  0  0  0  0  0  0  0  0  0
  189.1200  177.9120  142.6800 C   0  0  0  0  0  0  0  0  0  0  0  0
  190.0300  178.6410  143.2240 C   0  0  0  0  0  0  0  0  0  0  0  0
  191.6660  177.8000  144.6530 C   0  0  0  0  0  3  0  0  0  0  0  0
  191.0500  178.9300  143.9410 C   0  0  0  0  0  0  0  0  0  0  0  0
  192.0700  175.6790  146.8210 C   0  0  0  0  0  1  0  0  0  0  0  0
  192.0460  175.6290  145.4010 O   0  0  0  0  0  0  0  0  0  0  0  0
  188.3080  177.6790  140.3210 C   0  0  1  0  0  3  0  0  0  0  0  0
  189.7860  177.6390  138.4660 C   0  0  0  0  0  2  0  0  0  0  0  0
  187.6830  178.3610  139.2660 O   0  0  0  0  0  0  0  0  0  0  0  0
  188.3480  177.9310  138.1080 C   0  0  0  0  0  2  0  0  0  0  0  0
  189.7700  177.5170  139.9580 C   0  0  0  0  0  2  0  0  0  0  0  0
  1 15  1  1  0  0  0
  3  6  2  0  0  0  0
  4  9  1  0  0  0  0
  4  5  1  0  0  0  0
  5  1  1  6  0  0  0
  5  8  1  0  0  0  0
  6 10  1  0  0  0  0
  7  2  1  1  0  0  0
  8  7  1  0  0  0  0
  9  6  1  0  0  0  0
 10  7  1  0  0  0  0
 11 13  1  0  0  0  0
 12 11  2  0  0  0  0
 13 17  2  0  0  0  0
 13 20  1  0  0  0  0
 15 12  1  0  0  0  0
 15 16  2  0  0  0  0
 16 18  2  0  0  0  0
 18 14  1  0  0  0  0
 18 17  1  0  0  0  0
 20 19  1  0  0  0  0
 21  1  1  1  0  0  0
 22 25  1  0  0  0  0
 23 21  1  0  0  0  0
 24 22  1  0  0  0  0
 24 23  1  0  0  0  0
 25 21  1  0  0  0  0
M  END
>  <MODEL>
7

>  <REMARK>
 VINA RESULT:      -7.8      3.028      6.242
  Name = 
  4 active torsions:
  status: ('A' for Active; 'I' for Inactive)
    1  A    between atoms: C_1  and  C_6
    2  A    between atoms: C_1  and  C_13
    3  A    between atoms: C_1  and  C_14
    4  A    between atoms: C_11  and  O_17
                            x       y       z     vdW  Elec       q    Type
                         _______ _______ _______ _____ _____    ______ ____

>  <TORSDO>
F 4

$$$$
=
 OpenBabel11032419203D

 25 27  0  0  1  0  0  0  0  0999 V2000
  187.6030  177.5090  145.2980 C   0  0  1  0  0  3  0  0  0  0  0  0
  185.9700  178.6280  141.2610 N   0  0  0  0  0  1  0  0  0  0  0  0
  182.6580  180.1280  143.9720 O   0  0  0  0  0  0  0  0  0  0  0  0
  185.1110  177.8520  145.5020 C   0  0  0  0  0  2  0  0  0  0  0  0
  186.3540  178.1580  144.6720 C   0  0  2  0  0  3  0  0  0  0  0  0
  183.5660  179.2590  144.0250 C   0  0  0  0  0  0  0  0  0  0  0  0
  185.5710  178.7280  142.6530 C   0  0  2  0  0  3  0  0  0  0  0  0
  186.1430  177.6720  143.3730 O   0  0  0  0  0  0  0  0  0  0  0  0
  184.0980  178.8830  145.3020 N   0  0  0  0  0  2  0  0  0  0  0  0
  184.0530  178.6460  142.7490 C   0  0  0  0  0  2  0  0  0  0  0  0
  189.6570  176.2920  142.2500 C   0  0  0  0  0  3  0  0  0  0  0  0
  188.7490  176.3850  143.2510 C   0  0  0  0  0  3  0  0  0  0  0  0
  190.8570  177.1450  141.8880 C   0  0  0  0  0  0  0  0  0  0  0  0
  191.2110  180.0000  144.2930 F   0  0  0  0  0  0  0  0  0  0  0  0
  188.7290  177.4160  144.3000 C   0  0  0  0  0  0  0  0  0  0  0  0
  189.6650  178.2930  144.2030 C   0  0  0  0  0  0  0  0  0  0  0  0
  191.2900  178.2580  142.5340 C   0  0  0  0  0  3  0  0  0  0  0  0
  190.6970  178.8810  143.7270 C   0  0  0  0  0  0  0  0  0  0  0  0
  191.1490  176.9040  139.4400 C   0  0  0  0  0  1  0  0  0  0  0  0
  191.6160  176.7700  140.7750 O   0  0  0  0  0  0  0  0  0  0  0  0
  188.0670  178.2470  146.5700 C   0  0  1  0  0  3  0  0  0  0  0  0
  189.3530  177.8140  148.5160 C   0  0  0  0  0  2  0  0  0  0  0  0
  187.1730  178.0500  147.6340 O   0  0  0  0  0  0  0  0  0  0  0  0
  187.9350  178.2550  148.7940 C   0  0  0  0  0  2  0  0  0  0  0  0
  189.4300  177.7610  147.0210 C   0  0  0  0  0  2  0  0  0  0  0  0
  1 15  1  6  0  0  0
  3  6  2  0  0  0  0
  5  1  1  1  0  0  0
  5  4  1  0  0  0  0
  6  9  1  0  0  0  0
  7  2  1  6  0  0  0
  7 10  1  0  0  0  0
  7  8  1  0  0  0  0
  8  5  1  0  0  0  0
  9  4  1  0  0  0  0
 10  6  1  0  0  0  0
 11 12  2  0  0  0  0
 12 15  1  0  0  0  0
 13 11  1  0  0  0  0
 13 17  2  0  0  0  0
 16 15  2  0  0  0  0
 17 18  1  0  0  0  0
 18 16  2  0  0  0  0
 18 14  1  0  0  0  0
 19 20  1  0  0  0  0
 20 13  1  0  0  0  0
 21  1  1  6  0  0  0
 21 25  1  0  0  0  0
 21 23  1  0  0  0  0
 22 24  1  0  0  0  0
 23 24  1  0  0  0  0
 25 22  1  0  0  0  0
M  END
>  <MODEL>
8

>  <REMARK>
 VINA RESULT:      -7.7      2.750      5.561
  Name = 
  4 active torsions:
  status: ('A' for Active; 'I' for Inactive)
    1  A    between atoms: C_1  and  C_6
    2  A    between atoms: C_1  and  C_13
    3  A    between atoms: C_1  and  C_14
    4  A    between atoms: C_11  and  O_17
                            x       y       z     vdW  Elec       q    Type
                         _______ _______ _______ _____ _____    ______ ____

>  <TORSDO>
F 4

$$$$
=
 OpenBabel11032419203D

 25 27  0  0  1  0  0  0  0  0999 V2000
  189.0750  177.9810  140.7050 C   0  0  1  0  0  3  0  0  0  0  0  0
  184.9300  179.1360  142.0120 N   0  0  0  0  0  1  0  0  0  0  0  0
  184.1460  177.8060  137.7470 O   0  0  0  0  0  0  0  0  0  0  0  0
  187.6650  178.3890  138.6520 C   0  0  0  0  0  2  0  0  0  0  0  0
  187.6430  178.0640  140.1430 C   0  0  2  0  0  3  0  0  0  0  0  0
  185.1210  178.2480  138.4070 C   0  0  0  0  0  0  0  0  0  0  0  0
  185.5830  178.6220  140.8220 C   0  0  2  0  0  3  0  0  0  0  0  0
  186.9110  179.0650  140.7980 O   0  0  0  0  0  0  0  0  0  0  0  0
  186.4530  177.8980  138.0060 N   0  0  0  0  0  2  0  0  0  0  0  0
  184.8530  179.1310  139.5860 C   0  0  0  0  0  2  0  0  0  0  0  0
  188.1350  176.7470  144.2530 C   0  0  0  0  0  3  0  0  0  0  0  0
  188.1400  176.9850  142.9190 C   0  0  0  0  0  3  0  0  0  0  0  0
  189.0050  177.2700  145.3780 C   0  0  0  0  0  0  0  0  0  0  0  0
  191.6130  179.6090  144.0420 F   0  0  0  0  0  0  0  0  0  0  0  0
  189.0660  177.8800  142.2100 C   0  0  0  0  0  0  0  0  0  0  0  0
  189.9380  178.4500  142.9630 C   0  0  0  0  0  0  0  0  0  0  0  0
  190.0470  178.1340  145.2690 C   0  0  0  0  0  3  0  0  0  0  0  0
  190.5590  178.7580  144.0390 C   0  0  0  0  0  0  0  0  0  0  0  0
  188.8810  177.6590  147.8220 C   0  0  0  0  0  1  0  0  0  0  0  0
  188.7310  176.8310  146.6770 O   0  0  0  0  0  0  0  0  0  0  0  0
  189.8760  176.8180  140.0890 C   0  0  1  0  0  3  0  0  0  0  0  0
  191.6950  176.4940  138.6010 C   0  0  0  0  0  2  0  0  0  0  0  0
  189.3460  176.4270  138.8500 O   0  0  0  0  0  0  0  0  0  0  0  0
  190.4130  175.8210  138.1710 C   0  0  0  0  0  2  0  0  0  0  0  0
  191.3240  177.2060  139.8660 C   0  0  0  0  0  2  0  0  0  0  0  0
  1 15  1  1  0  0  0
  3  6  2  0  0  0  0
  4  5  1  0  0  0  0
  5  1  1  1  0  0  0
  5  8  1  0  0  0  0
  6 10  1  0  0  0  0
  7  2  1  1  0  0  0
  8  7  1  0  0  0  0
  9  6  1  0  0  0  0
  9  4  1  0  0  0  0
 10  7  1  0  0  0  0
 11 13  1  0  0  0  0
 12 11  2  0  0  0  0
 13 20  1  0  0  0  0
 15 12  1  0  0  0  0
 15 16  2  0  0  0  0
 16 18  2  0  0  0  0
 17 13  2  0  0  0  0
 18 14  1  0  0  0  0
 18 17  1  0  0  0  0
 20 19  1  0  0  0  0
 21  1  1  6  0  0  0
 22 25  1  0  0  0  0
 23 21  1  0  0  0  0
 24 22  1  0  0  0  0
 24 23  1  0  0  0  0
 25 21  1  0  0  0  0
M  END
>  <MODEL>
9

>  <REMARK>
 VINA RESULT:      -7.6      3.548      6.747
  Name = 
  4 active torsions:
  status: ('A' for Active; 'I' for Inactive)
    1  A    between atoms: C_1  and  C_6
    2  A    between atoms: C_1  and  C_13
    3  A    between atoms: C_1  and  C_14
    4  A    between atoms: C_11  and  O_17
                            x       y       z     vdW  Elec       q    Type
                         _______ _______ _______ _____ _____    ______ ____

>  <TORSDO>
F 4

$$$$
