=
 OpenBabel11042411453D

 25 26  0  0  1  0  0  0  0  0999 V2000
  189.3370  177.9280  144.1030 C   0  0  0  0  0  0  0  0  0  0  0  0
  190.9240  177.6640  142.4810 C   0  0  0  0  0  0  0  0  0  0  0  0
  190.8240  177.9070  143.9550 C   0  0  2  0  0  3  0  0  0  0  0  0
  189.7750  177.5500  141.9030 N   0  0  0  0  0  0  0  0  0  0  0  0
  188.7840  177.7160  142.9090 C   0  0  0  0  0  0  0  0  0  0  0  0
  192.2560  175.6380  146.2900 C   0  0  0  0  0  3  0  0  0  0  0  0
  191.4260  176.7740  144.7300 C   0  0  0  0  0  0  0  0  0  0  0  0
  192.2040  174.8460  145.2020 N   0  0  0  0  0  2  0  0  0  0  0  0
  191.6820  175.5570  144.2190 N   0  0  0  0  0  0  0  0  0  0  0  0
  191.7700  176.8680  146.0260 N   0  0  0  0  0  0  0  0  0  0  0  0
  188.6500  178.1730  145.3850 C   0  0  0  0  0  3  0  0  0  0  0  0
  188.3380  177.2140  146.1930 N   0  0  0  0  0  0  0  0  0  0  0  0
  186.5270  178.4690  147.2350 C   0  0  0  0  0  1  0  0  0  0  0  0
  187.6630  177.4850  147.4510 C   0  0  0  0  0  3  0  0  0  0  0  0
  188.6510  178.0760  148.4330 C   0  0  0  0  0  1  0  0  0  0  0  0
  186.7280  178.6390  141.9640 C   0  0  0  0  0  3  0  0  0  0  0  0
  187.3440  177.6660  142.6320 C   0  0  0  0  0  3  0  0  0  0  0  0
  184.8710  178.8450  140.3330 C   0  0  0  0  0  1  0  0  0  0  0  0
  184.3380  178.3250  142.7220 C   0  0  0  0  0  1  0  0  0  0  0  0
  185.3250  178.6010  141.6880 N   0  0  0  0  0  0  0  0  0  0  0  0
  192.2120  177.5490  141.7380 C   0  0  0  0  0  2  0  0  0  0  0  0
  191.9470  177.3660  140.2540 C   0  0  0  0  0  2  0  0  0  0  0  0
  193.2160  177.0370  139.5510 C   0  0  0  0  0  0  0  0  0  0  0  0
  193.2050  176.7540  138.1580 N   0  0  0  0  0  1  0  0  0  0  0  0
  194.3050  177.0390  140.1840 O   0  0  0  0  0  0  0  0  0  0  0  0
  1 11  1  0  0  0  0
  2  3  1  0  0  0  0
  3  1  1  0  0  0  0
  3  7  1  1  0  0  0
  4  2  2  0  0  0  0
  4  5  1  0  0  0  0
  5  1  2  0  0  0  0
  7 10  1  0  0  0  0
  8  6  1  0  0  0  0
  9  7  2  0  0  0  0
  9  8  1  0  0  0  0
 10  6  2  0  0  0  0
 11 12  2  0  0  0  0
 12 14  1  0  0  0  0
 13 14  1  0  0  0  0
 14 15  1  0  0  0  0
 16 17  2  0  0  0  0
 17  5  1  0  0  0  0
 18 20  1  0  0  0  0
 20 16  1  0  0  0  0
 20 19  1  0  0  0  0
 21  2  1  0  0  0  0
 22 21  1  0  0  0  0
 23 25  2  0  0  0  0
 23 22  1  0  0  0  0
 24 23  1  0  0  0  0
M  END
>  <MODEL>
1

>  <REMARK>
 VINA RESULT:      -6.8      0.000      0.000
  Name = 
  8 active torsions:
  status: ('A' for Active; 'I' for Inactive)
    1  A    between atoms: C_2  and  C_5
    2  A    between atoms: C_3  and  N_23
    3  A    between atoms: C_4  and  C_21
    4  A    between atoms: C_6  and  C_11
    5  A    between atoms: C_7  and  C_24
    6  A    between atoms: C_8  and  C_9
    7  A    between atoms: C_8  and  C_21
    8  A    between atoms: C_18  and  N_25
                            x       y       z     vdW  Elec       q    Type
                         _______ _______ _______ _____ _____    ______ ____

>  <TORSDO>
F 8

$$$$
=
 OpenBabel11042411453D

 25 26  0  0  1  0  0  0  0  0999 V2000
  187.4980  177.5680  143.7820 C   0  0  0  0  0  0  0  0  0  0  0  0
  185.3030  178.1740  143.5970 C   0  0  0  0  0  0  0  0  0  0  0  0
  186.2210  177.4750  144.5510 C   0  0  2  0  0  3  0  0  0  0  0  0
  185.8990  178.5960  142.5310 N   0  0  0  0  0  0  0  0  0  0  0  0
  187.2660  178.2180  142.6420 C   0  0  0  0  0  0  0  0  0  0  0  0
  186.8770  178.7800  147.7950 C   0  0  0  0  0  3  0  0  0  0  0  0
  186.3180  178.2210  145.8480 C   0  0  0  0  0  0  0  0  0  0  0  0
  185.9870  179.6920  147.3560 N   0  0  0  0  0  0  0  0  0  0  0  0
  185.6340  179.3430  146.1330 N   0  0  0  0  0  0  0  0  0  0  0  0
  187.1100  177.8330  146.8630 N   0  0  0  0  0  2  0  0  0  0  0  0
  188.7730  176.9930  144.2490 C   0  0  0  0  0  3  0  0  0  0  0  0
  189.8110  177.7250  144.4900 N   0  0  0  0  0  0  0  0  0  0  0  0
  191.4430  175.9670  144.0580 C   0  0  0  0  0  1  0  0  0  0  0  0
  191.0550  177.1320  144.9520 C   0  0  0  0  0  3  0  0  0  0  0  0
  190.8750  176.6310  146.3690 C   0  0  0  0  0  1  0  0  0  0  0  0
  188.5480  177.6380  140.6440 C   0  0  0  0  0  3  0  0  0  0  0  0
  188.2650  178.5110  141.6070 C   0  0  0  0  0  3  0  0  0  0  0  0
  190.8650  177.3990  139.7920 C   0  0  0  0  0  1  0  0  0  0  0  0
  189.2030  178.6930  138.4430 C   0  0  0  0  0  1  0  0  0  0  0  0
  189.5200  177.9140  139.6310 N   0  0  0  0  0  0  0  0  0  0  0  0
  183.8470  178.3860  143.8390 C   0  0  0  0  0  2  0  0  0  0  0  0
  183.1300  178.6520  142.5280 C   0  0  0  0  0  2  0  0  0  0  0  0
  181.6920  178.9310  142.7850 C   0  0  0  0  0  0  0  0  0  0  0  0
  180.8710  179.4520  141.7480 N   0  0  0  0  0  1  0  0  0  0  0  0
  181.1940  178.6760  143.9130 O   0  0  0  0  0  0  0  0  0  0  0  0
  1 11  1  0  0  0  0
  1  3  1  0  0  0  0
  2 21  1  0  0  0  0
  2  3  1  0  0  0  0
  3  7  1  1  0  0  0
  4  5  1  0  0  0  0
  4  2  2  0  0  0  0
  5  1  2  0  0  0  0
  7  9  2  0  0  0  0
  7 10  1  0  0  0  0
  8  6  2  0  0  0  0
  9  8  1  0  0  0  0
 10  6  1  0  0  0  0
 11 12  2  0  0  0  0
 12 14  1  0  0  0  0
 13 14  1  0  0  0  0
 14 15  1  0  0  0  0
 16 17  2  0  0  0  0
 17  5  1  0  0  0  0
 19 20  1  0  0  0  0
 20 18  1  0  0  0  0
 20 16  1  0  0  0  0
 22 23  1  0  0  0  0
 22 21  1  0  0  0  0
 23 25  2  0  0  0  0
 24 23  1  0  0  0  0
M  END
>  <MODEL>
2

>  <REMARK>
 VINA RESULT:      -6.7      3.444      6.780
  Name = 
  8 active torsions:
  status: ('A' for Active; 'I' for Inactive)
    1  A    between atoms: C_2  and  C_5
    2  A    between atoms: C_3  and  N_23
    3  A    between atoms: C_4  and  C_21
    4  A    between atoms: C_6  and  C_11
    5  A    between atoms: C_7  and  C_24
    6  A    between atoms: C_8  and  C_9
    7  A    between atoms: C_8  and  C_21
    8  A    between atoms: C_18  and  N_25
                            x       y       z     vdW  Elec       q    Type
                         _______ _______ _______ _____ _____    ______ ____

>  <TORSDO>
F 8

$$$$
=
 OpenBabel11042411453D

 25 26  0  0  1  0  0  0  0  0999 V2000
  188.1740  178.0140  143.6670 C   0  0  0  0  0  0  0  0  0  0  0  0
  188.8450  177.9060  141.4860 C   0  0  0  0  0  0  0  0  0  0  0  0
  189.4310  178.0040  142.8600 C   0  0  2  0  0  3  0  0  0  0  0  0
  187.5540  177.8510  141.4840 N   0  0  0  0  0  0  0  0  0  0  0  0
  187.1330  177.9210  142.8400 C   0  0  0  0  0  0  0  0  0  0  0  0
  191.8070  175.5690  143.9020 C   0  0  0  0  0  3  0  0  0  0  0  0
  190.2640  176.7980  143.1770 C   0  0  0  0  0  0  0  0  0  0  0  0
  190.9180  174.7710  143.2780 N   0  0  0  0  0  2  0  0  0  0  0  0
  189.9470  175.5410  142.8210 N   0  0  0  0  0  0  0  0  0  0  0  0
  191.4230  176.8620  143.8570 N   0  0  0  0  0  0  0  0  0  0  0  0
  188.1510  178.1350  145.1360 C   0  0  0  0  0  3  0  0  0  0  0  0
  188.1330  177.1000  145.9120 N   0  0  0  0  0  0  0  0  0  0  0  0
  187.1390  178.3430  147.7580 C   0  0  0  0  0  1  0  0  0  0  0  0
  188.1130  177.2490  147.3570 C   0  0  0  0  0  3  0  0  0  0  0  0
  189.4980  177.6170  147.8430 C   0  0  0  0  0  1  0  0  0  0  0  0
  184.8810  178.8680  142.8810 C   0  0  0  0  0  3  0  0  0  0  0  0
  185.7210  177.9020  143.2420 C   0  0  0  0  0  3  0  0  0  0  0  0
  183.1710  178.9210  144.6770 C   0  0  0  0  0  1  0  0  0  0  0  0
  182.4240  178.7930  142.2920 C   0  0  0  0  0  1  0  0  0  0  0  0
  183.5030  178.8600  143.2670 N   0  0  0  0  0  0  0  0  0  0  0  0
  189.6530  177.8600  140.2330 C   0  0  0  0  0  2  0  0  0  0  0  0
  188.8200  177.3040  139.0920 C   0  0  0  0  0  2  0  0  0  0  0  0
  188.2940  178.4190  138.2600 C   0  0  0  0  0  0  0  0  0  0  0  0
  186.9130  178.4660  137.9230 N   0  0  0  0  0  1  0  0  0  0  0  0
  189.0650  179.3390  137.8800 O   0  0  0  0  0  0  0  0  0  0  0  0
  1 11  1  0  0  0  0
  2  3  1  0  0  0  0
  3  7  1  1  0  0  0
  3  1  1  0  0  0  0
  4  2  2  0  0  0  0
  4  5  1  0  0  0  0
  5 17  1  0  0  0  0
  5  1  2  0  0  0  0
  7 10  1  0  0  0  0
  8  6  1  0  0  0  0
  9  7  2  0  0  0  0
  9  8  1  0  0  0  0
 10  6  2  0  0  0  0
 11 12  2  0  0  0  0
 12 14  1  0  0  0  0
 14 13  1  0  0  0  0
 14 15  1  0  0  0  0
 16 17  2  0  0  0  0
 16 20  1  0  0  0  0
 19 20  1  0  0  0  0
 20 18  1  0  0  0  0
 21  2  1  0  0  0  0
 22 21  1  0  0  0  0
 23 22  1  0  0  0  0
 24 23  1  0  0  0  0
 25 23  2  0  0  0  0
M  END
>  <MODEL>
3

>  <REMARK>
 VINA RESULT:      -6.7      2.414      2.919
  Name = 
  8 active torsions:
  status: ('A' for Active; 'I' for Inactive)
    1  A    between atoms: C_2  and  C_5
    2  A    between atoms: C_3  and  N_23
    3  A    between atoms: C_4  and  C_21
    4  A    between atoms: C_6  and  C_11
    5  A    between atoms: C_7  and  C_24
    6  A    between atoms: C_8  and  C_9
    7  A    between atoms: C_8  and  C_21
    8  A    between atoms: C_18  and  N_25
                            x       y       z     vdW  Elec       q    Type
                         _______ _______ _______ _____ _____    ______ ____

>  <TORSDO>
F 8

$$$$
=
 OpenBabel11042411453D

 25 26  0  0  1  0  0  0  0  0999 V2000
  188.1740  177.2400  143.3940 C   0  0  0  0  0  0  0  0  0  0  0  0
  188.3890  177.5370  145.6480 C   0  0  0  0  0  0  0  0  0  0  0  0
  189.1880  177.0600  144.4760 C   0  0  2  0  0  3  0  0  0  0  0  0
  187.1980  177.9240  145.3320 N   0  0  0  0  0  0  0  0  0  0  0  0
  187.0590  177.7370  143.9290 C   0  0  0  0  0  0  0  0  0  0  0  0
  192.3400  178.5820  143.8380 C   0  0  0  0  0  3  0  0  0  0  0  0
  190.3820  177.9380  144.2450 C   0  0  0  0  0  0  0  0  0  0  0  0
  191.5910  179.6820  144.0440 N   0  0  0  0  0  0  0  0  0  0  0  0
  190.3590  179.2810  144.3000 N   0  0  0  0  0  0  0  0  0  0  0  0
  191.6050  177.4570  143.9580 N   0  0  0  0  0  2  0  0  0  0  0  0
  188.4170  176.8830  141.9840 C   0  0  0  0  0  3  0  0  0  0  0  0
  188.8470  177.7430  141.1200 N   0  0  0  0  0  0  0  0  0  0  0  0
  190.4250  176.6720  139.6030 C   0  0  0  0  0  1  0  0  0  0  0  0
  189.0800  177.3630  139.7370 C   0  0  0  0  0  3  0  0  0  0  0  0
  189.0700  178.6020  138.8680 C   0  0  0  0  0  1  0  0  0  0  0  0
  184.6940  178.3430  143.8300 C   0  0  0  0  0  3  0  0  0  0  0  0
  185.8270  178.0520  143.1960 C   0  0  0  0  0  3  0  0  0  0  0  0
  183.4790  178.5660  141.6800 C   0  0  0  0  0  1  0  0  0  0  0  0
  182.2670  179.0480  143.8150 C   0  0  0  0  0  1  0  0  0  0  0  0
  183.4870  178.6520  143.1270 N   0  0  0  0  0  0  0  0  0  0  0  0
  188.9020  177.5830  147.0480 C   0  0  0  0  0  2  0  0  0  0  0  0
  189.6540  176.3050  147.3730 C   0  0  0  0  0  2  0  0  0  0  0  0
  191.1090  176.5900  147.4880 C   0  0  0  0  0  0  0  0  0  0  0  0
  192.0540  175.7390  146.8500 N   0  0  0  0  0  1  0  0  0  0  0  0
  191.5050  177.6020  148.1240 O   0  0  0  0  0  0  0  0  0  0  0  0
  1  5  2  0  0  0  0
  1  3  1  0  0  0  0
  2 21  1  0  0  0  0
  3  7  1  6  0  0  0
  3  2  1  0  0  0  0
  4  2  2  0  0  0  0
  5  4  1  0  0  0  0
  6 10  1  0  0  0  0
  6  8  2  0  0  0  0
  7  9  2  0  0  0  0
  8  9  1  0  0  0  0
 10  7  1  0  0  0  0
 11  1  1  0  0  0  0
 12 11  2  0  0  0  0
 13 14  1  0  0  0  0
 14 12  1  0  0  0  0
 15 14  1  0  0  0  0
 17 16  2  0  0  0  0
 17  5  1  0  0  0  0
 18 20  1  0  0  0  0
 20 19  1  0  0  0  0
 20 16  1  0  0  0  0
 21 22  1  0  0  0  0
 22 23  1  0  0  0  0
 23 25  2  0  0  0  0
 24 23  1  0  0  0  0
M  END
>  <MODEL>
4

>  <REMARK>
 VINA RESULT:      -6.7      2.588      5.352
  Name = 
  8 active torsions:
  status: ('A' for Active; 'I' for Inactive)
    1  A    between atoms: C_2  and  C_5
    2  A    between atoms: C_3  and  N_23
    3  A    between atoms: C_4  and  C_21
    4  A    between atoms: C_6  and  C_11
    5  A    between atoms: C_7  and  C_24
    6  A    between atoms: C_8  and  C_9
    7  A    between atoms: C_8  and  C_21
    8  A    between atoms: C_18  and  N_25
                            x       y       z     vdW  Elec       q    Type
                         _______ _______ _______ _____ _____    ______ ____

>  <TORSDO>
F 8

$$$$
=
 OpenBabel11042411453D

 25 26  0  0  1  0  0  0  0  0999 V2000
  187.7470  177.5860  142.0920 C   0  0  0  0  0  0  0  0  0  0  0  0
  187.4390  177.2680  144.3330 C   0  0  0  0  0  0  0  0  0  0  0  0
  188.4310  176.9510  143.2580 C   0  0  2  0  0  3  0  0  0  0  0  0
  186.4230  177.9440  143.9080 N   0  0  0  0  0  0  0  0  0  0  0  0
  186.6100  178.1410  142.5120 C   0  0  0  0  0  0  0  0  0  0  0  0
  191.2130  179.0670  143.9230 C   0  0  0  0  0  3  0  0  0  0  0  0
  189.7500  177.6110  143.5320 C   0  0  0  0  0  0  0  0  0  0  0  0
  191.8380  177.8740  143.8710 N   0  0  0  0  0  0  0  0  0  0  0  0
  190.9210  176.9570  143.6250 N   0  0  0  0  0  0  0  0  0  0  0  0
  189.8870  178.9360  143.7120 N   0  0  0  0  0  2  0  0  0  0  0  0
  188.2790  177.5500  140.7170 C   0  0  0  0  0  3  0  0  0  0  0  0
  188.5430  178.6270  140.0530 N   0  0  0  0  0  0  0  0  0  0  0  0
  187.9460  178.2910  137.7140 C   0  0  0  0  0  1  0  0  0  0  0  0
  189.0690  178.5620  138.7000 C   0  0  0  0  0  3  0  0  0  0  0  0
  190.0870  177.4450  138.6110 C   0  0  0  0  0  1  0  0  0  0  0  0
  184.5450  178.2720  141.2120 C   0  0  0  0  0  3  0  0  0  0  0  0
  185.6480  178.8600  141.6690 C   0  0  0  0  0  3  0  0  0  0  0  0
  182.2000  178.9490  140.7670 C   0  0  0  0  0  1  0  0  0  0  0  0
  183.9970  179.6800  139.1860 C   0  0  0  0  0  1  0  0  0  0  0  0
  183.6000  178.9630  140.3890 N   0  0  0  0  0  0  0  0  0  0  0  0
  187.5940  176.8660  145.7610 C   0  0  0  0  0  2  0  0  0  0  0  0
  187.8610  178.0860  146.6240 C   0  0  0  0  0  2  0  0  0  0  0  0
  188.9890  177.8090  147.5540 C   0  0  0  0  0  0  0  0  0  0  0  0
  190.1190  177.0730  147.1040 N   0  0  0  0  0  1  0  0  0  0  0  0
  188.9570  178.2530  148.7320 O   0  0  0  0  0  0  0  0  0  0  0  0
  1  5  2  0  0  0  0
  1  3  1  0  0  0  0
  2 21  1  0  0  0  0
  3  7  1  1  0  0  0
  3  2  1  0  0  0  0
  4  2  2  0  0  0  0
  5  4  1  0  0  0  0
  7  9  2  0  0  0  0
  7 10  1  0  0  0  0
  8  6  2  0  0  0  0
  9  8  1  0  0  0  0
 10  6  1  0  0  0  0
 11  1  1  0  0  0  0
 12 11  2  0  0  0  0
 13 14  1  0  0  0  0
 14 12  1  0  0  0  0
 15 14  1  0  0  0  0
 16 17  2  0  0  0  0
 17  5  1  0  0  0  0
 19 20  1  0  0  0  0
 20 18  1  0  0  0  0
 20 16  1  0  0  0  0
 21 22  1  0  0  0  0
 22 23  1  0  0  0  0
 23 25  2  0  0  0  0
 24 23  1  0  0  0  0
M  END
>  <MODEL>
5

>  <REMARK>
 VINA RESULT:      -6.6      2.995      5.804
  Name = 
  8 active torsions:
  status: ('A' for Active; 'I' for Inactive)
    1  A    between atoms: C_2  and  C_5
    2  A    between atoms: C_3  and  N_23
    3  A    between atoms: C_4  and  C_21
    4  A    between atoms: C_6  and  C_11
    5  A    between atoms: C_7  and  C_24
    6  A    between atoms: C_8  and  C_9
    7  A    between atoms: C_8  and  C_21
    8  A    between atoms: C_18  and  N_25
                            x       y       z     vdW  Elec       q    Type
                         _______ _______ _______ _____ _____    ______ ____

>  <TORSDO>
F 8

$$$$
=
 OpenBabel11042411453D

 25 26  0  0  1  0  0  0  0  0999 V2000
  187.8910  177.6900  141.9160 C   0  0  0  0  0  0  0  0  0  0  0  0
  187.5410  177.4890  144.1640 C   0  0  0  0  0  0  0  0  0  0  0  0
  188.5600  177.1280  143.1280 C   0  0  2  0  0  3  0  0  0  0  0  0
  186.5260  178.1270  143.6830 N   0  0  0  0  0  0  0  0  0  0  0  0
  186.7400  178.2520  142.2830 C   0  0  0  0  0  0  0  0  0  0  0  0
  191.9220  178.2100  143.5450 C   0  0  0  0  0  3  0  0  0  0  0  0
  189.8640  177.8190  143.3910 C   0  0  0  0  0  0  0  0  0  0  0  0
  191.2720  179.3150  143.9590 N   0  0  0  0  0  0  0  0  0  0  0  0
  189.9780  179.0720  143.8630 N   0  0  0  0  0  0  0  0  0  0  0  0
  191.0590  177.2410  143.1780 N   0  0  0  0  0  2  0  0  0  0  0  0
  188.4510  177.5870  140.5560 C   0  0  0  0  0  3  0  0  0  0  0  0
  188.6630  178.6270  139.8180 N   0  0  0  0  0  0  0  0  0  0  0  0
  188.1020  178.3820  137.4590 C   0  0  0  0  0  1  0  0  0  0  0  0
  189.2190  178.4970  138.4810 C   0  0  0  0  0  3  0  0  0  0  0  0
  190.0800  177.2540  138.4160 C   0  0  0  0  0  1  0  0  0  0  0  0
  184.5690  178.4170  141.1720 C   0  0  0  0  0  3  0  0  0  0  0  0
  185.7860  178.9120  141.3830 C   0  0  0  0  0  3  0  0  0  0  0  0
  182.2210  179.0040  140.6290 C   0  0  0  0  0  1  0  0  0  0  0  0
  184.0470  179.7430  139.0850 C   0  0  0  0  0  1  0  0  0  0  0  0
  183.6320  179.0510  140.2970 N   0  0  0  0  0  0  0  0  0  0  0  0
  187.6720  177.1660  145.6140 C   0  0  0  0  0  2  0  0  0  0  0  0
  186.3540  177.4070  146.3270 C   0  0  0  0  0  2  0  0  0  0  0  0
  186.4920  178.5460  147.2740 C   0  0  0  0  0  0  0  0  0  0  0  0
  187.5700  178.5740  148.2010 N   0  0  0  0  0  1  0  0  0  0  0  0
  185.6730  179.5010  147.2340 O   0  0  0  0  0  0  0  0  0  0  0  0
  1  5  2  0  0  0  0
  1  3  1  0  0  0  0
  2 21  1  0  0  0  0
  3  7  1  1  0  0  0
  3  2  1  0  0  0  0
  4  2  2  0  0  0  0
  5  4  1  0  0  0  0
  6  8  2  0  0  0  0
  7  9  2  0  0  0  0
  9  8  1  0  0  0  0
 10  7  1  0  0  0  0
 10  6  1  0  0  0  0
 11  1  1  0  0  0  0
 12 11  2  0  0  0  0
 13 14  1  0  0  0  0
 14 12  1  0  0  0  0
 15 14  1  0  0  0  0
 16 17  2  0  0  0  0
 17  5  1  0  0  0  0
 19 20  1  0  0  0  0
 20 18  1  0  0  0  0
 20 16  1  0  0  0  0
 21 22  1  0  0  0  0
 22 23  1  0  0  0  0
 23 24  1  0  0  0  0
 25 23  2  0  0  0  0
M  END
>  <MODEL>
6

>  <REMARK>
 VINA RESULT:      -6.6      3.199      6.260
  Name = 
  8 active torsions:
  status: ('A' for Active; 'I' for Inactive)
    1  A    between atoms: C_2  and  C_5
    2  A    between atoms: C_3  and  N_23
    3  A    between atoms: C_4  and  C_21
    4  A    between atoms: C_6  and  C_11
    5  A    between atoms: C_7  and  C_24
    6  A    between atoms: C_8  and  C_9
    7  A    between atoms: C_8  and  C_21
    8  A    between atoms: C_18  and  N_25
                            x       y       z     vdW  Elec       q    Type
                         _______ _______ _______ _____ _____    ______ ____

>  <TORSDO>
F 8

$$$$
=
 OpenBabel11042411453D

 25 26  0  0  1  0  0  0  0  0999 V2000
  189.6710  177.5980  140.7550 C   0  0  0  0  0  0  0  0  0  0  0  0
  189.0750  178.4670  138.7280 C   0  0  0  0  0  0  0  0  0  0  0  0
  190.2720  177.8910  139.4190 C   0  0  2  0  0  3  0  0  0  0  0  0
  188.0190  178.4910  139.4710 N   0  0  0  0  0  0  0  0  0  0  0  0
  188.3860  177.9530  140.7340 C   0  0  0  0  0  0  0  0  0  0  0  0
  191.9310  175.1950  137.7960 C   0  0  0  0  0  3  0  0  0  0  0  0
  190.7260  176.6300  138.7460 C   0  0  0  0  0  0  0  0  0  0  0  0
  190.6920  174.6750  137.8980 N   0  0  0  0  0  2  0  0  0  0  0  0
  189.9320  175.5750  138.4940 N   0  0  0  0  0  0  0  0  0  0  0  0
  191.9880  176.4340  138.3240 N   0  0  0  0  0  0  0  0  0  0  0  0
  190.4330  177.0310  141.8830 C   0  0  0  0  0  3  0  0  0  0  0  0
  190.8570  177.7600  142.8630 N   0  0  0  0  0  0  0  0  0  0  0  0
  191.6840  175.6670  143.7970 C   0  0  0  0  0  1  0  0  0  0  0  0
  191.6030  177.1750  143.9630 C   0  0  0  0  0  3  0  0  0  0  0  0
  190.9050  177.4930  145.2680 C   0  0  0  0  0  1  0  0  0  0  0  0
  186.3500  178.5770  141.9330 C   0  0  0  0  0  3  0  0  0  0  0  0
  187.4480  177.8300  141.8570 C   0  0  0  0  0  3  0  0  0  0  0  0
  184.0140  178.6440  142.7630 C   0  0  0  0  0  1  0  0  0  0  0  0
  185.8650  178.1780  144.3810 C   0  0  0  0  0  1  0  0  0  0  0  0
  185.4290  178.4650  143.0220 N   0  0  0  0  0  0  0  0  0  0  0  0
  189.0780  178.9580  137.3200 C   0  0  0  0  0  2  0  0  0  0  0  0
  187.7860  178.5670  136.6250 C   0  0  0  0  0  2  0  0  0  0  0  0
  187.8680  177.1550  136.1640 C   0  0  0  0  0  0  0  0  0  0  0  0
  186.9150  176.2020  136.6150 N   0  0  0  0  0  1  0  0  0  0  0  0
  188.7640  176.8100  135.3480 O   0  0  0  0  0  0  0  0  0  0  0  0
  1 11  1  0  0  0  0
  2  3  1  0  0  0  0
  2  4  2  0  0  0  0
  3  7  1  6  0  0  0
  3  1  1  0  0  0  0
  4  5  1  0  0  0  0
  5  1  2  0  0  0  0
  5 17  1  0  0  0  0
  6  8  1  0  0  0  0
  6 10  2  0  0  0  0
  8  9  1  0  0  0  0
  9  7  2  0  0  0  0
 10  7  1  0  0  0  0
 11 12  2  0  0  0  0
 12 14  1  0  0  0  0
 13 14  1  0  0  0  0
 14 15  1  0  0  0  0
 16 20  1  0  0  0  0
 17 16  2  0  0  0  0
 18 20  1  0  0  0  0
 20 19  1  0  0  0  0
 21  2  1  0  0  0  0
 22 21  1  0  0  0  0
 23 24  1  0  0  0  0
 23 22  1  0  0  0  0
 25 23  2  0  0  0  0
M  END
>  <MODEL>
7

>  <REMARK>
 VINA RESULT:      -6.5      3.136      5.150
  Name = 
  8 active torsions:
  status: ('A' for Active; 'I' for Inactive)
    1  A    between atoms: C_2  and  C_5
    2  A    between atoms: C_3  and  N_23
    3  A    between atoms: C_4  and  C_21
    4  A    between atoms: C_6  and  C_11
    5  A    between atoms: C_7  and  C_24
    6  A    between atoms: C_8  and  C_9
    7  A    between atoms: C_8  and  C_21
    8  A    between atoms: C_18  and  N_25
                            x       y       z     vdW  Elec       q    Type
                         _______ _______ _______ _____ _____    ______ ____

>  <TORSDO>
F 8

$$$$
=
 OpenBabel11042411453D

 25 26  0  0  1  0  0  0  0  0999 V2000
  186.7110  178.6690  142.4160 C   0  0  0  0  0  0  0  0  0  0  0  0
  184.8070  179.2020  143.5610 C   0  0  0  0  0  0  0  0  0  0  0  0
  185.4480  179.4450  142.2300 C   0  0  2  0  0  3  0  0  0  0  0  0
  185.5130  178.4480  144.3380 N   0  0  0  0  0  0  0  0  0  0  0  0
  186.7000  178.1170  143.6290 C   0  0  0  0  0  0  0  0  0  0  0  0
  183.3320  177.6140  140.0330 C   0  0  0  0  0  3  0  0  0  0  0  0
  184.6200  178.8680  141.1210 C   0  0  0  0  0  0  0  0  0  0  0  0
  183.7090  178.6120  139.2110 N   0  0  0  0  0  2  0  0  0  0  0  0
  184.5190  179.4020  139.8910 N   0  0  0  0  0  0  0  0  0  0  0  0
  183.8920  177.7450  141.2540 N   0  0  0  0  0  0  0  0  0  0  0  0
  187.7720  178.5860  141.3960 C   0  0  0  0  0  3  0  0  0  0  0  0
  188.2420  177.4540  140.9820 N   0  0  0  0  0  0  0  0  0  0  0  0
  190.6530  177.5000  140.6290 C   0  0  0  0  0  1  0  0  0  0  0  0
  189.2860  177.4010  139.9730 C   0  0  0  0  0  3  0  0  0  0  0  0
  189.1140  178.5570  139.0110 C   0  0  0  0  0  1  0  0  0  0  0  0
  188.8050  177.8110  144.8330 C   0  0  0  0  0  3  0  0  0  0  0  0
  187.7650  177.2800  144.1960 C   0  0  0  0  0  3  0  0  0  0  0  0
  190.8320  176.4210  144.4990 C   0  0  0  0  0  1  0  0  0  0  0  0
  189.9540  176.7520  146.8190 C   0  0  0  0  0  1  0  0  0  0  0  0
  189.8480  177.0050  145.3890 N   0  0  0  0  0  0  0  0  0  0  0  0
  183.4820  179.7530  143.9650 C   0  0  0  0  0  2  0  0  0  0  0  0
  182.5380  178.6260  144.3440 C   0  0  0  0  0  2  0  0  0  0  0  0
  181.2470  178.7850  143.6220 C   0  0  0  0  0  0  0  0  0  0  0  0
  180.0550  178.2320  144.1660 N   0  0  0  0  0  1  0  0  0  0  0  0
  181.2030  179.4360  142.5460 O   0  0  0  0  0  0  0  0  0  0  0  0
  1  5  2  0  0  0  0
  2 21  1  0  0  0  0
  2  4  2  0  0  0  0
  3  7  1  6  0  0  0
  3  1  1  0  0  0  0
  3  2  1  0  0  0  0
  5 17  1  0  0  0  0
  5  4  1  0  0  0  0
  6 10  2  0  0  0  0
  7 10  1  0  0  0  0
  8  9  1  0  0  0  0
  8  6  1  0  0  0  0
  9  7  2  0  0  0  0
 11  1  1  0  0  0  0
 12 11  2  0  0  0  0
 14 13  1  0  0  0  0
 14 12  1  0  0  0  0
 15 14  1  0  0  0  0
 16 20  1  0  0  0  0
 17 16  2  0  0  0  0
 18 20  1  0  0  0  0
 20 19  1  0  0  0  0
 21 22  1  0  0  0  0
 23 24  1  0  0  0  0
 23 22  1  0  0  0  0
 25 23  2  0  0  0  0
M  END
>  <MODEL>
8

>  <REMARK>
 VINA RESULT:      -6.4      3.515      8.391
  Name = 
  8 active torsions:
  status: ('A' for Active; 'I' for Inactive)
    1  A    between atoms: C_2  and  C_5
    2  A    between atoms: C_3  and  N_23
    3  A    between atoms: C_4  and  C_21
    4  A    between atoms: C_6  and  C_11
    5  A    between atoms: C_7  and  C_24
    6  A    between atoms: C_8  and  C_9
    7  A    between atoms: C_8  and  C_21
    8  A    between atoms: C_18  and  N_25
                            x       y       z     vdW  Elec       q    Type
                         _______ _______ _______ _____ _____    ______ ____

>  <TORSDO>
F 8

$$$$
=
 OpenBabel11042411453D

 25 26  0  0  1  0  0  0  0  0999 V2000
  189.4470  177.1820  141.2920 C   0  0  0  0  0  0  0  0  0  0  0  0
  187.9910  177.2220  143.0520 C   0  0  0  0  0  0  0  0  0  0  0  0
  189.3750  176.7570  142.7230 C   0  0  2  0  0  3  0  0  0  0  0  0
  187.3970  177.8000  142.0600 N   0  0  0  0  0  0  0  0  0  0  0  0
  188.3000  177.7740  140.9620 C   0  0  0  0  0  0  0  0  0  0  0  0
  191.6320  178.9880  144.3290 C   0  0  0  0  0  3  0  0  0  0  0  0
  190.3960  177.4780  143.5500 C   0  0  0  0  0  0  0  0  0  0  0  0
  191.9030  177.8570  145.0100 N   0  0  0  0  0  0  0  0  0  0  0  0
  191.1280  176.9060  144.5220 N   0  0  0  0  0  0  0  0  0  0  0  0
  190.6810  178.7840  143.3950 N   0  0  0  0  0  2  0  0  0  0  0  0
  190.6160  176.9350  140.4280 C   0  0  0  0  0  3  0  0  0  0  0  0
  190.5600  176.1550  139.3990 N   0  0  0  0  0  0  0  0  0  0  0  0
  192.8610  176.8450  138.9940 C   0  0  0  0  0  1  0  0  0  0  0  0
  191.7270  175.9320  138.5630 C   0  0  0  0  0  3  0  0  0  0  0  0
  191.3750  176.2250  137.1210 C   0  0  0  0  0  1  0  0  0  0  0  0
  187.5280  177.5570  138.6540 C   0  0  0  0  0  3  0  0  0  0  0  0
  187.9730  178.3280  139.6430 C   0  0  0  0  0  3  0  0  0  0  0  0
  188.1640  178.9500  136.7030 C   0  0  0  0  0  1  0  0  0  0  0  0
  185.9500  177.7850  136.6930 C   0  0  0  0  0  1  0  0  0  0  0  0
  187.2070  178.0860  137.3640 N   0  0  0  0  0  0  0  0  0  0  0  0
  187.3480  177.0580  144.3870 C   0  0  0  0  0  2  0  0  0  0  0  0
  186.1750  178.0120  144.5250 C   0  0  0  0  0  2  0  0  0  0  0  0
  185.9220  178.2960  145.9640 C   0  0  0  0  0  0  0  0  0  0  0  0
  184.6290  178.7040  146.3920 N   0  0  0  0  0  1  0  0  0  0  0  0
  186.8440  178.1450  146.8070 O   0  0  0  0  0  0  0  0  0  0  0  0
  1  3  1  0  0  0  0
  2 21  1  0  0  0  0
  3  2  1  0  0  0  0
  3  7  1  1  0  0  0
  4  2  2  0  0  0  0
  5  1  2  0  0  0  0
  5  4  1  0  0  0  0
  6  8  2  0  0  0  0
  7  9  2  0  0  0  0
  9  8  1  0  0  0  0
 10  7  1  0  0  0  0
 10  6  1  0  0  0  0
 11  1  1  0  0  0  0
 12 11  2  0  0  0  0
 14 13  1  0  0  0  0
 14 12  1  0  0  0  0
 15 14  1  0  0  0  0
 16 17  2  0  0  0  0
 17  5  1  0  0  0  0
 18 20  1  0  0  0  0
 19 20  1  0  0  0  0
 20 16  1  0  0  0  0
 21 22  1  0  0  0  0
 22 23  1  0  0  0  0
 23 24  1  0  0  0  0
 23 25  2  0  0  0  0
M  END
>  <MODEL>
9

>  <REMARK>
 VINA RESULT:      -6.4      3.220      6.439
  Name = 
  8 active torsions:
  status: ('A' for Active; 'I' for Inactive)
    1  A    between atoms: C_2  and  C_5
    2  A    between atoms: C_3  and  N_23
    3  A    between atoms: C_4  and  C_21
    4  A    between atoms: C_6  and  C_11
    5  A    between atoms: C_7  and  C_24
    6  A    between atoms: C_8  and  C_9
    7  A    between atoms: C_8  and  C_21
    8  A    between atoms: C_18  and  N_25
                            x       y       z     vdW  Elec       q    Type
                         _______ _______ _______ _____ _____    ______ ____

>  <TORSDO>
F 8

$$$$
