=
 OpenBabel11042413293D

 56 63  0  0  1  0  0  0  0  0999 V2000
  189.0670  177.1950  141.6910 C   0  0  0  0  0  0  0  0  0  0  0  0
  187.0040  177.9150  142.7180 C   0  0  0  0  0  0  0  0  0  0  0  0
  187.4210  177.7820  140.2160 N   0  0  0  0  0  0  0  0  0  0  0  0
  189.6780  176.9930  142.9280 C   0  0  0  0  0  3  0  0  0  0  0  0
  187.5950  177.7080  143.9760 C   0  0  0  0  0  3  0  0  0  0  0  0
  188.5960  177.3940  139.4250 C   0  0  0  0  0  3  0  0  0  0  0  0
  189.6330  177.0360  140.4010 N   0  0  0  0  0  0  0  0  0  0  0  0
  188.9250  177.2500  144.0930 C   0  0  0  0  0  0  0  0  0  0  0  0
  187.7860  177.6470  141.5820 C   0  0  0  0  0  0  0  0  0  0  0  0
  192.0200  177.5520  140.1680 C   0  0  0  0  0  2  0  0  0  0  0  0
  190.9430  176.4550  140.1060 C   0  0  2  0  0  3  0  0  0  0  0  0
  192.8450  177.0330  137.8270 C   0  0  2  0  0  3  0  0  0  0  0  0
  190.9290  175.7010  138.7610 C   0  0  0  0  0  2  0  0  0  0  0  0
  193.2300  177.2000  139.3060 C   0  0  0  0  0  2  0  0  0  0  0  0
  191.3890  176.6010  137.6190 C   0  0  0  0  0  2  0  0  0  0  0  0
  193.7260  176.0650  137.1960 N   0  0  0  0  0  2  0  0  0  0  0  0
  193.7030  175.7920  135.7940 C   0  0  0  0  0  0  0  0  0  0  0  0
  192.8800  176.3840  135.0430 O   0  0  0  0  0  0  0  0  0  0  0  0
  195.7090  172.0810  138.3910 O   0  0  0  0  0  1  0  0  0  0  0  0
  196.4270  173.6170  136.6830 C   0  0  1  0  0  3  0  0  0  0  0  0
  195.2960  173.1660  137.6190 C   0  0  1  0  0  3  0  0  0  0  0  0
  194.0130  172.7860  136.8670 C   0  0  0  0  0  2  0  0  0  0  0  0
  194.5740  174.6940  135.2630 C   0  0  2  0  0  3  0  0  0  0  0  0
  193.9640  173.2960  135.4220 C   0  0  0  0  0  2  0  0  0  0  0  0
  195.9890  174.8150  135.8400 C   0  0  0  0  0  2  0  0  0  0  0  0
  197.9160  174.0890  137.5990 S   0  0  2  0  0  3  0  0  0  0  0  0
  198.7260  172.8030  137.6780 O   0  0  0  0  0  1  0  0  0  0  0  0
  197.3780  174.3290  139.2260 O   0  0  0  0  0  0  0  0  0  0  0  0
  197.3450  176.1360  140.6690 O   0  0  0  0  0  0  0  0  0  0  0  0
  198.0010  175.2360  140.0830 C   0  0  0  0  0  3  0  0  0  0  0  0
  189.5250  177.0950  145.4300 C   0  0  0  0  0  0  0  0  0  0  0  0
  190.9220  176.7790  147.1040 C   0  0  0  0  0  0  0  0  0  0  0  0
  190.7880  176.7660  145.6600 C   0  0  0  0  0  3  0  0  0  0  0  0
  192.1310  176.4910  147.7920 N   0  0  0  0  0  1  0  0  0  0  0  0
  189.8360  177.1070  147.7160 N   0  0  0  0  0  0  0  0  0  0  0  0
  188.8080  177.3480  146.7170 C   0  0  0  0  0  2  0  0  0  0  0  0
  185.6570  178.3990  142.6460 N   0  0  0  0  0  2  0  0  0  0  0  0
  185.2160  179.4260  141.7150 C   0  0  0  0  0  2  0  0  0  0  0  0
  183.8710  179.3730  139.5700 C   0  0  0  0  0  0  0  0  0  0  0  0
  184.1160  178.9260  140.9060 N   0  0  0  0  0  2  0  0  0  0  0  0
  184.5980  180.2610  139.0510 O   0  0  0  0  0  0  0  0  0  0  0  0
  182.2680  177.4600  139.3140 C   0  0  2  0  0  3  0  0  0  0  0  0
  182.3020  177.4670  136.6610 C   0  0  0  0  0  2  0  0  0  0  0  0
  182.7160  178.8260  138.7840 C   0  0  2  0  0  3  0  0  0  0  0  0
  180.4640  175.7790  136.2150 C   0  0  0  0  0  2  0  0  0  0  0  0
  180.0830  177.6020  140.5140 C   0  0  0  0  0  2  0  0  0  0  0  0
  183.0450  177.5530  137.9990 C   0  0  1  0  0  0  0  0  0  0  0  0
  179.6580  176.2940  137.4110 C   0  0  0  0  0  2  0  0  0  0  0  0
  179.5810  174.0450  139.8260 C   0  0  0  0  0  1  0  0  0  0  0  0
  180.3490  176.0510  138.6730 N   0  0  2  0  0  0  0  0  0  0  0  0
  181.9700  176.0140  136.3330 C   0  0  0  0  0  2  0  0  0  0  0  0
  179.3650  175.5310  139.6170 C   0  0  2  0  0  3  0  0  0  0  0  0
  179.5500  176.2620  140.9240 C   0  0  0  0  0  2  0  0  0  0  0  0
  180.7490  177.3680  139.1700 C   0  0  2  0  0  3  0  0  0  0  0  0
  185.2800  177.4350  136.8270 C   0  0  0  0  0  1  0  0  0  0  0  0
  184.4880  177.0390  138.0610 C   0  0  0  0  0  2  0  0  0  0  0  0
  1  4  1  0  0  0  0
  2  5  2  0  0  0  0
  3  9  1  0  0  0  0
  4  8  2  0  0  0  0
  5  8  1  0  0  0  0
  6  3  2  0  0  0  0
  6  7  1  0  0  0  0
  7  1  1  0  0  0  0
  8 31  1  0  0  0  0
  9  1  2  0  0  0  0
  9  2  1  0  0  0  0
 11 10  1  0  0  0  0
 11  7  1  0  0  0  0
 12 14  1  0  0  0  0
 13 11  1  0  0  0  0
 14 10  1  0  0  0  0
 15 12  1  0  0  0  0
 15 13  1  0  0  0  0
 16 12  1  0  0  0  0
 17 16  1  0  0  0  0
 18 17  2  0  0  0  0
 20 26  1  1  0  0  0
 20 21  1  0  0  0  0
 21 19  1  6  0  0  0
 22 21  1  0  0  0  0
 23 24  1  0  0  0  0
 23 17  1  1  0  0  0
 23 25  1  0  0  0  0
 24 22  1  0  0  0  0
 25 20  1  0  0  0  0
 26 27  1  1  0  0  0
 26 28  1  0  0  0  0
 28 30  1  0  0  0  0
 30 29  2  0  0  0  0
 31 33  2  0  0  0  0
 31 36  1  0  0  0  0
 32 35  2  0  0  0  0
 32 34  1  0  0  0  0
 33 32  1  0  0  0  0
 36 35  1  0  0  0  0
 37  2  1  0  0  0  0
 38 37  1  0  0  0  0
 39 40  1  0  0  0  0
 40 38  1  0  0  0  0
 41 39  2  0  0  0  0
 43 47  1  0  0  0  0
 44 42  1  0  0  0  0
 44 39  1  0  0  0  0
 45 51  1  0  0  0  0
 45 48  1  0  0  0  0
 46 53  1  0  0  0  0
 47 56  1  0  0  0  0
 47 44  1  0  0  0  0
 47 42  1  0  0  0  0
 48 50  1  0  0  0  0
 50 54  1  0  0  0  0
 50 52  1  0  0  0  0
 51 43  1  0  0  0  0
 52 49  1  0  0  0  0
 52 53  1  0  0  0  0
 54 42  1  0  0  0  0
 54 46  1  0  0  0  0
 55 56  1  0  0  0  0
M  END
>  <MODEL>
1

>  <REMARK>
 VINA RESULT:      -8.8      0.000      0.000
  Name = 
  12 active torsions:
  status: ('A' for Active; 'I' for Inactive)
    1  A    between atoms: N_3  and  C_32
    2  A    between atoms: C_4  and  C_26
    3  A    between atoms: C_5  and  C_22
    4  A    between atoms: N_8  and  C_46
    5  A    between atoms: C_9  and  S_21
    6  A    between atoms: C_11  and  C_42
    7  A    between atoms: C_13  and  N_17
    8  A    between atoms: N_17  and  C_46
    9  A    between atoms: C_18  and  O_56
   10  A    between atoms: S_21  and  O_56
   11  A    between atoms: C_29  and  N_39
   12  A    between atoms: C_31  and  C_40
                            x       y       z     vdW  Elec       q    Type
                         _______ _______ _______ _____ _____    ______ ____

>  <TORSDO>
F 12

$$$$
=
 OpenBabel11042413293D

 56 63  0  0  1  0  0  0  0  0999 V2000
  189.1580  177.5940  140.5490 C   0  0  0  0  0  0  0  0  0  0  0  0
  187.2730  177.9160  142.0230 C   0  0  0  0  0  0  0  0  0  0  0  0
  187.2230  178.2210  139.5020 N   0  0  0  0  0  0  0  0  0  0  0  0
  190.0030  177.2700  141.6080 C   0  0  0  0  0  3  0  0  0  0  0  0
  188.1030  177.5820  143.1060 C   0  0  0  0  0  3  0  0  0  0  0  0
  188.2560  178.0910  138.4660 C   0  0  0  0  0  3  0  0  0  0  0  0
  189.4820  177.7000  139.1720 N   0  0  0  0  0  0  0  0  0  0  0  0
  189.4640  177.2590  142.9120 C   0  0  0  0  0  0  0  0  0  0  0  0
  187.8480  177.9150  140.7410 C   0  0  0  0  0  0  0  0  0  0  0  0
  190.6130  177.3120  137.0300 C   0  0  0  0  0  2  0  0  0  0  0  0
  190.7560  177.3190  138.5610 C   0  0  2  0  0  3  0  0  0  0  0  0
  191.4380  174.9210  136.8500 C   0  0  2  0  0  3  0  0  0  0  0  0
  191.2650  175.9770  139.1250 C   0  0  0  0  0  2  0  0  0  0  0  0
  191.6230  176.3720  136.3750 C   0  0  0  0  0  2  0  0  0  0  0  0
  190.8230  174.8080  138.2490 C   0  0  0  0  0  2  0  0  0  0  0  0
  192.7180  174.2320  136.8330 N   0  0  0  0  0  2  0  0  0  0  0  0
  193.2350  173.5840  135.6700 C   0  0  0  0  0  0  0  0  0  0  0  0
  192.5680  173.5710  134.5980 O   0  0  0  0  0  0  0  0  0  0  0  0
  197.2820  174.8970  138.2070 O   0  0  0  0  0  1  0  0  0  0  0  0
  196.7930  173.9600  136.0450 C   0  0  1  0  0  3  0  0  0  0  0  0
  196.2380  174.5230  137.3620 C   0  0  1  0  0  3  0  0  0  0  0  0
  195.3270  173.5310  138.0990 C   0  0  0  0  0  2  0  0  0  0  0  0
  194.5100  172.8050  135.7900 C   0  0  2  0  0  3  0  0  0  0  0  0
  194.8320  172.3730  137.2260 C   0  0  0  0  0  2  0  0  0  0  0  0
  195.6560  173.5580  135.1040 C   0  0  0  0  0  2  0  0  0  0  0  0
  197.8360  175.1620  135.1820 S   0  0  2  0  0  3  0  0  0  0  0  0
  199.1800  175.0610  135.8890 O   0  0  0  0  0  1  0  0  0  0  0  0
  197.2350  176.7070  135.6750 O   0  0  0  0  0  0  0  0  0  0  0  0
  195.5480  178.2610  135.3750 O   0  0  0  0  0  0  0  0  0  0  0  0
  196.3720  177.4540  134.8720 C   0  0  0  0  0  3  0  0  0  0  0  0
  190.3140  176.9650  144.0790 C   0  0  0  0  0  0  0  0  0  0  0  0
  191.1520  176.8320  146.1120 C   0  0  0  0  0  0  0  0  0  0  0  0
  190.0920  177.4090  145.3080 C   0  0  0  0  0  2  0  0  0  0  0  0
  191.2930  177.0400  147.5100 N   0  0  0  0  0  1  0  0  0  0  0  0
  191.9530  176.0780  145.4390 N   0  0  0  0  0  0  0  0  0  0  0  0
  191.5130  176.0740  144.0540 C   0  0  0  0  0  3  0  0  0  0  0  0
  185.9020  178.2560  142.2680 N   0  0  0  0  0  2  0  0  0  0  0  0
  185.2440  179.4220  141.6980 C   0  0  0  0  0  2  0  0  0  0  0  0
  183.8230  179.3660  139.6030 C   0  0  0  0  0  0  0  0  0  0  0  0
  184.0530  179.0150  140.9700 N   0  0  0  0  0  2  0  0  0  0  0  0
  184.6500  180.0840  138.9810 O   0  0  0  0  0  0  0  0  0  0  0  0
  182.0780  177.5710  139.4290 C   0  0  2  0  0  3  0  0  0  0  0  0
  181.8900  177.6700  136.7840 C   0  0  0  0  0  2  0  0  0  0  0  0
  182.5730  178.9230  138.9030 C   0  0  2  0  0  3  0  0  0  0  0  0
  179.9120  176.1210  136.4480 C   0  0  0  0  0  2  0  0  0  0  0  0
  180.0170  177.8120  140.8160 C   0  0  0  0  0  2  0  0  0  0  0  0
  182.7470  177.6600  138.0550 C   0  0  1  0  0  0  0  0  0  0  0  0
  179.2450  176.6450  137.7240 C   0  0  0  0  0  2  0  0  0  0  0  0
  179.2200  174.3220  140.0690 C   0  0  0  0  0  1  0  0  0  0  0  0
  180.0210  176.3130  138.9140 N   0  0  2  0  0  0  0  0  0  0  0  0
  181.4350  176.2530  136.4430 C   0  0  0  0  0  2  0  0  0  0  0  0
  179.0880  175.8250  139.9230 C   0  0  2  0  0  3  0  0  0  0  0  0
  179.4310  176.4950  141.2310 C   0  0  0  0  0  2  0  0  0  0  0  0
  180.5500  177.5830  139.4130 C   0  0  2  0  0  3  0  0  0  0  0  0
  184.8020  177.3050  136.6280 C   0  0  0  0  0  1  0  0  0  0  0  0
  184.1520  177.0520  137.9780 C   0  0  0  0  0  2  0  0  0  0  0  0
  1  9  2  0  0  0  0
  1  4  1  0  0  0  0
  2 37  1  0  0  0  0
  2  5  2  0  0  0  0
  3  9  1  0  0  0  0
  4  8  2  0  0  0  0
  6  7  1  0  0  0  0
  6  3  2  0  0  0  0
  7  1  1  0  0  0  0
  8  5  1  0  0  0  0
  8 31  1  0  0  0  0
  9  2  1  0  0  0  0
 10 11  1  0  0  0  0
 11 13  1  0  0  0  0
 11  7  1  0  0  0  0
 12 15  1  0  0  0  0
 14 12  1  0  0  0  0
 14 10  1  0  0  0  0
 15 13  1  0  0  0  0
 16 12  1  0  0  0  0
 17 16  1  0  0  0  0
 18 17  2  0  0  0  0
 20 26  1  6  0  0  0
 20 21  1  0  0  0  0
 21 22  1  0  0  0  0
 21 19  1  1  0  0  0
 23 17  1  1  0  0  0
 23 24  1  0  0  0  0
 24 22  1  0  0  0  0
 25 23  1  0  0  0  0
 25 20  1  0  0  0  0
 26 28  1  0  0  0  0
 26 27  1  1  0  0  0
 30 29  2  0  0  0  0
 30 28  1  0  0  0  0
 31 33  1  0  0  0  0
 32 34  1  0  0  0  0
 33 32  1  0  0  0  0
 35 32  2  0  0  0  0
 36 31  2  0  0  0  0
 36 35  1  0  0  0  0
 38 37  1  0  0  0  0
 39 40  1  0  0  0  0
 40 38  1  0  0  0  0
 41 39  2  0  0  0  0
 43 47  1  0  0  0  0
 44 42  1  0  0  0  0
 44 39  1  0  0  0  0
 45 48  1  0  0  0  0
 46 53  1  0  0  0  0
 47 44  1  0  0  0  0
 47 42  1  0  0  0  0
 48 50  1  0  0  0  0
 50 54  1  0  0  0  0
 50 52  1  0  0  0  0
 51 45  1  0  0  0  0
 51 43  1  0  0  0  0
 52 49  1  0  0  0  0
 52 53  1  0  0  0  0
 54 42  1  0  0  0  0
 54 46  1  0  0  0  0
 55 56  1  0  0  0  0
 56 47  1  0  0  0  0
M  END
>  <MODEL>
2

>  <REMARK>
 VINA RESULT:      -8.6      1.394      2.057
  Name = 
  12 active torsions:
  status: ('A' for Active; 'I' for Inactive)
    1  A    between atoms: N_3  and  C_32
    2  A    between atoms: C_4  and  C_26
    3  A    between atoms: C_5  and  C_22
    4  A    between atoms: N_8  and  C_46
    5  A    between atoms: C_9  and  S_21
    6  A    between atoms: C_11  and  C_42
    7  A    between atoms: C_13  and  N_17
    8  A    between atoms: N_17  and  C_46
    9  A    between atoms: C_18  and  O_56
   10  A    between atoms: S_21  and  O_56
   11  A    between atoms: C_29  and  N_39
   12  A    between atoms: C_31  and  C_40
                            x       y       z     vdW  Elec       q    Type
                         _______ _______ _______ _____ _____    ______ ____

>  <TORSDO>
F 12

$$$$
=
 OpenBabel11042413293D

 56 63  0  0  1  0  0  0  0  0999 V2000
  187.1450  178.1360  141.8220 C   0  0  0  0  0  0  0  0  0  0  0  0
  185.4240  178.1860  143.5140 C   0  0  0  0  0  0  0  0  0  0  0  0
  185.0560  178.6540  141.0450 N   0  0  0  0  0  0  0  0  0  0  0  0
  188.1310  177.8190  142.7550 C   0  0  0  0  0  3  0  0  0  0  0  0
  186.3980  177.8560  144.4710 C   0  0  0  0  0  3  0  0  0  0  0  0
  185.9700  178.6880  139.8950 C   0  0  0  0  0  3  0  0  0  0  0  0
  187.2980  178.3640  140.4310 N   0  0  0  0  0  0  0  0  0  0  0  0
  187.7490  177.6720  144.1040 C   0  0  0  0  0  0  0  0  0  0  0  0
  185.8440  178.3240  142.1810 C   0  0  0  0  0  0  0  0  0  0  0  0
  188.6510  179.2300  138.5770 C   0  0  0  0  0  2  0  0  0  0  0  0
  188.5200  178.1420  139.6560 C   0  0  2  0  0  3  0  0  0  0  0  0
  188.8580  177.5190  136.7160 C   0  0  2  0  0  3  0  0  0  0  0  0
  188.5620  176.7130  139.0790 C   0  0  0  0  0  2  0  0  0  0  0  0
  189.4870  178.7480  137.3930 C   0  0  0  0  0  2  0  0  0  0  0  0
  187.9980  176.6730  137.6620 C   0  0  0  0  0  2  0  0  0  0  0  0
  189.9020  176.6850  136.1440 N   0  0  0  0  0  2  0  0  0  0  0  0
  189.6610  175.7560  135.0860 C   0  0  0  0  0  0  0  0  0  0  0  0
  188.4980  175.6130  134.6170 O   0  0  0  0  0  0  0  0  0  0  0  0
  193.4220  174.1320  137.8700 O   0  0  0  0  0  1  0  0  0  0  0  0
  193.1390  175.0370  135.6590 C   0  0  1  0  0  3  0  0  0  0  0  0
  192.4760  174.6550  136.9900 C   0  0  1  0  0  3  0  0  0  0  0  0
  191.3350  173.6430  136.8220 C   0  0  0  0  0  2  0  0  0  0  0  0
  190.7810  174.8640  134.6470 C   0  0  2  0  0  3  0  0  0  0  0  0
  190.8200  173.5190  135.3840 C   0  0  0  0  0  2  0  0  0  0  0  0
  192.1120  175.6240  134.6900 C   0  0  0  0  0  2  0  0  0  0  0  0
  194.4580  176.2550  135.8840 S   0  0  2  0  0  3  0  0  0  0  0  0
  194.4170  177.0870  134.6110 O   0  0  0  0  0  1  0  0  0  0  0  0
  195.9270  175.3540  135.7310 O   0  0  0  0  0  0  0  0  0  0  0  0
  198.2240  175.3770  135.9970 O   0  0  0  0  0  0  0  0  0  0  0  0
  197.1720  175.9770  135.6560 C   0  0  0  0  0  3  0  0  0  0  0  0
  188.7500  177.3780  145.1450 C   0  0  0  0  0  0  0  0  0  0  0  0
  190.6110  176.9010  146.2230 C   0  0  0  0  0  0  0  0  0  0  0  0
  190.0130  177.0520  144.9110 C   0  0  0  0  0  3  0  0  0  0  0  0
  191.9740  176.5630  146.4420 N   0  0  0  0  0  1  0  0  0  0  0  0
  189.7910  177.1330  147.1890 N   0  0  0  0  0  0  0  0  0  0  0  0
  188.4970  177.4650  146.6150 C   0  0  0  0  0  2  0  0  0  0  0  0
  184.0670  178.3820  143.9330 N   0  0  0  0  0  2  0  0  0  0  0  0
  183.1550  179.3250  143.3040 C   0  0  0  0  0  2  0  0  0  0  0  0
  181.1380  179.1220  141.7850 C   0  0  0  0  0  0  0  0  0  0  0  0
  182.4170  178.6680  142.2370 N   0  0  0  0  0  2  0  0  0  0  0  0
  180.5830  180.1110  142.3330 O   0  0  0  0  0  0  0  0  0  0  0  0
  181.3640  178.0470  139.5290 C   0  0  2  0  0  3  0  0  0  0  0  0
  179.0450  178.9430  138.6000 C   0  0  0  0  0  2  0  0  0  0  0  0
  180.4200  178.4010  140.6830 C   0  0  2  0  0  3  0  0  0  0  0  0
  178.9540  177.6730  136.4080 C   0  0  0  0  0  2  0  0  0  0  0  0
  181.8550  175.6010  139.4490 C   0  0  0  0  0  2  0  0  0  0  0  0
  180.3490  179.1820  139.3690 C   0  0  1  0  0  0  0  0  0  0  0  0
  179.5990  176.4440  137.0580 C   0  0  0  0  0  2  0  0  0  0  0  0
  182.6530  175.9740  135.8990 C   0  0  0  0  0  1  0  0  0  0  0  0
  180.9640  176.7170  137.4920 N   0  0  2  0  0  0  0  0  0  0  0  0
  179.3010  178.9940  137.0960 C   0  0  0  0  0  2  0  0  0  0  0  0
  181.7880  175.5850  137.0810 C   0  0  2  0  0  3  0  0  0  0  0  0
  182.6630  175.2030  138.2490 C   0  0  0  0  0  2  0  0  0  0  0  0
  180.9290  176.6980  138.9550 C   0  0  2  0  0  3  0  0  0  0  0  0
  182.3410  180.6030  138.7390 C   0  0  0  0  0  1  0  0  0  0  0  0
  180.9520  180.5910  139.3540 C   0  0  0  0  0  2  0  0  0  0  0  0
  1  9  2  0  0  0  0
  1  4  1  0  0  0  0
  2 37  1  0  0  0  0
  2  5  2  0  0  0  0
  3  9  1  0  0  0  0
  4  8  2  0  0  0  0
  6  7  1  0  0  0  0
  6  3  2  0  0  0  0
  7  1  1  0  0  0  0
  8  5  1  0  0  0  0
  8 31  1  0  0  0  0
  9  2  1  0  0  0  0
 10 11  1  0  0  0  0
 11  7  1  0  0  0  0
 12 14  1  0  0  0  0
 12 15  1  0  0  0  0
 13 11  1  0  0  0  0
 14 10  1  0  0  0  0
 15 13  1  0  0  0  0
 16 12  1  0  0  0  0
 17 16  1  0  0  0  0
 18 17  2  0  0  0  0
 20 26  1  1  0  0  0
 20 21  1  0  0  0  0
 21 19  1  1  0  0  0
 22 21  1  0  0  0  0
 23 25  1  0  0  0  0
 23 17  1  1  0  0  0
 23 24  1  0  0  0  0
 24 22  1  0  0  0  0
 25 20  1  0  0  0  0
 26 27  1  6  0  0  0
 28 26  1  0  0  0  0
 30 28  1  0  0  0  0
 30 29  2  0  0  0  0
 31 36  1  0  0  0  0
 32 34  1  0  0  0  0
 32 35  2  0  0  0  0
 33 31  2  0  0  0  0
 33 32  1  0  0  0  0
 36 35  1  0  0  0  0
 38 37  1  0  0  0  0
 39 40  1  0  0  0  0
 39 41  2  0  0  0  0
 40 38  1  0  0  0  0
 42 44  1  0  0  0  0
 43 47  1  0  0  0  0
 44 39  1  0  0  0  0
 45 48  1  0  0  0  0
 45 51  1  0  0  0  0
 47 42  1  0  0  0  0
 47 44  1  0  0  0  0
 48 50  1  0  0  0  0
 49 52  1  0  0  0  0
 50 54  1  0  0  0  0
 51 43  1  0  0  0  0
 52 50  1  0  0  0  0
 52 53  1  0  0  0  0
 53 46  1  0  0  0  0
 54 46  1  0  0  0  0
 54 42  1  0  0  0  0
 55 56  1  0  0  0  0
 56 47  1  0  0  0  0
M  END
>  <MODEL>
3

>  <REMARK>
 VINA RESULT:      -8.5      2.344      3.342
  Name = 
  12 active torsions:
  status: ('A' for Active; 'I' for Inactive)
    1  A    between atoms: N_3  and  C_32
    2  A    between atoms: C_4  and  C_26
    3  A    between atoms: C_5  and  C_22
    4  A    between atoms: N_8  and  C_46
    5  A    between atoms: C_9  and  S_21
    6  A    between atoms: C_11  and  C_42
    7  A    between atoms: C_13  and  N_17
    8  A    between atoms: N_17  and  C_46
    9  A    between atoms: C_18  and  O_56
   10  A    between atoms: S_21  and  O_56
   11  A    between atoms: C_29  and  N_39
   12  A    between atoms: C_31  and  C_40
                            x       y       z     vdW  Elec       q    Type
                         _______ _______ _______ _____ _____    ______ ____

>  <TORSDO>
F 12

$$$$
=
 OpenBabel11042413293D

 56 63  0  0  1  0  0  0  0  0999 V2000
  188.3130  178.0370  140.3120 C   0  0  0  0  0  0  0  0  0  0  0  0
  186.5740  178.6070  141.8870 C   0  0  0  0  0  0  0  0  0  0  0  0
  186.3470  178.7150  139.3590 N   0  0  0  0  0  0  0  0  0  0  0  0
  189.2150  177.7380  141.3310 C   0  0  0  0  0  3  0  0  0  0  0  0
  187.4620  178.3010  142.9310 C   0  0  0  0  0  3  0  0  0  0  0  0
  187.2860  178.4310  138.2660 C   0  0  0  0  0  3  0  0  0  0  0  0
  188.5350  178.0110  138.9120 N   0  0  0  0  0  0  0  0  0  0  0  0
  188.7800  177.8680  142.6660 C   0  0  0  0  0  0  0  0  0  0  0  0
  187.0450  178.4640  140.5710 C   0  0  0  0  0  0  0  0  0  0  0  0
  189.6110  177.7160  136.7270 C   0  0  0  0  0  2  0  0  0  0  0  0
  189.7300  177.4930  138.2440 C   0  0  2  0  0  3  0  0  0  0  0  0
  190.0000  175.2620  136.2210 C   0  0  2  0  0  3  0  0  0  0  0  0
  189.9830  176.0190  138.6180 C   0  0  0  0  0  2  0  0  0  0  0  0
  190.4480  176.7070  135.9440 C   0  0  0  0  0  2  0  0  0  0  0  0
  189.3540  175.0750  137.5980 C   0  0  0  0  0  2  0  0  0  0  0  0
  191.1370  174.3640  136.1010 N   0  0  0  0  0  2  0  0  0  0  0  0
  192.4330  174.8030  135.6890 C   0  0  0  0  0  0  0  0  0  0  0  0
  192.6300  176.0130  135.3890 O   0  0  0  0  0  0  0  0  0  0  0  0
  196.9100  174.7440  137.8070 O   0  0  0  0  0  1  0  0  0  0  0  0
  196.0040  174.3780  135.6080 C   0  0  1  0  0  3  0  0  0  0  0  0
  195.7280  174.7640  137.0680 C   0  0  1  0  0  3  0  0  0  0  0  0
  194.7000  173.8480  137.7460 C   0  0  0  0  0  2  0  0  0  0  0  0
  193.5060  173.7780  135.4870 C   0  0  2  0  0  3  0  0  0  0  0  0
  193.8700  173.0110  136.7650 C   0  0  0  0  0  2  0  0  0  0  0  0
  194.7150  174.4080  134.7860 C   0  0  0  0  0  2  0  0  0  0  0  0
  197.1950  175.4940  134.8260 S   0  0  2  0  0  3  0  0  0  0  0  0
  198.5460  175.0040  135.3250 O   0  0  0  0  0  1  0  0  0  0  0  0
  196.9870  177.0060  135.6410 O   0  0  0  0  0  0  0  0  0  0  0  0
  195.1350  177.9130  134.5940 O   0  0  0  0  0  0  0  0  0  0  0  0
  196.2940  178.0680  135.0620 C   0  0  0  0  0  3  0  0  0  0  0  0
  189.6970  177.6070  143.7890 C   0  0  0  0  0  0  0  0  0  0  0  0
  190.5510  177.1270  145.7630 C   0  0  0  0  0  0  0  0  0  0  0  0
  189.3180  177.3610  145.0360 C   0  0  0  0  0  2  0  0  0  0  0  0
  190.6090  176.8120  147.1470 N   0  0  0  0  0  1  0  0  0  0  0  0
  191.6040  177.2040  145.0240 N   0  0  0  0  0  0  0  0  0  0  0  0
  191.1840  177.5230  143.6700 C   0  0  0  0  0  3  0  0  0  0  0  0
  185.2510  179.0610  142.2010 N   0  0  0  0  0  2  0  0  0  0  0  0
  184.1230  178.1710  142.4270 C   0  0  0  0  0  2  0  0  0  0  0  0
  182.2670  178.1840  140.7030 C   0  0  0  0  0  0  0  0  0  0  0  0
  183.5540  177.7550  141.1540 N   0  0  0  0  0  2  0  0  0  0  0  0
  181.5530  178.9270  141.4280 O   0  0  0  0  0  0  0  0  0  0  0  0
  182.8430  177.5510  138.3450 C   0  0  2  0  0  3  0  0  0  0  0  0
  180.7190  178.7100  137.2560 C   0  0  0  0  0  2  0  0  0  0  0  0
  181.7280  177.7190  139.3830 C   0  0  2  0  0  3  0  0  0  0  0  0
  180.9700  177.8870  134.8720 C   0  0  0  0  0  2  0  0  0  0  0  0
  183.3100  175.1460  137.8660 C   0  0  0  0  0  2  0  0  0  0  0  0
  181.8830  178.7400  138.2520 C   0  0  1  0  0  0  0  0  0  0  0  0
  181.4840  176.5300  135.3610 C   0  0  0  0  0  2  0  0  0  0  0  0
  184.6810  176.1550  134.6280 C   0  0  0  0  0  1  0  0  0  0  0  0
  182.7640  176.6540  136.0500 N   0  0  2  0  0  0  0  0  0  0  0  0
  181.2170  179.0350  135.8500 C   0  0  0  0  0  2  0  0  0  0  0  0
  183.6300  175.5860  135.5600 C   0  0  2  0  0  3  0  0  0  0  0  0
  184.2980  174.9500  136.7540 C   0  0  0  0  0  2  0  0  0  0  0  0
  182.4910  176.3580  137.4570 C   0  0  2  0  0  3  0  0  0  0  0  0
  181.4540  181.2020  138.6240 C   0  0  0  0  0  1  0  0  0  0  0  0
  182.4980  180.0980  138.6080 C   0  0  0  0  0  2  0  0  0  0  0  0
  1  9  2  0  0  0  0
  1  4  1  0  0  0  0
  2 37  1  0  0  0  0
  2  5  2  0  0  0  0
  3  9  1  0  0  0  0
  4  8  2  0  0  0  0
  6  7  1  0  0  0  0
  6  3  2  0  0  0  0
  7  1  1  0  0  0  0
  8  5  1  0  0  0  0
  8 31  1  0  0  0  0
  9  2  1  0  0  0  0
 10 11  1  0  0  0  0
 11 13  1  0  0  0  0
 11  7  1  0  0  0  0
 12 15  1  0  0  0  0
 14 12  1  0  0  0  0
 14 10  1  0  0  0  0
 15 13  1  0  0  0  0
 16 12  1  0  0  0  0
 17 16  1  0  0  0  0
 18 17  2  0  0  0  0
 20 26  1  6  0  0  0
 20 21  1  0  0  0  0
 21 22  1  0  0  0  0
 21 19  1  1  0  0  0
 23 17  1  1  0  0  0
 23 24  1  0  0  0  0
 24 22  1  0  0  0  0
 25 23  1  0  0  0  0
 25 20  1  0  0  0  0
 26 27  1  1  0  0  0
 26 28  1  0  0  0  0
 29 30  2  0  0  0  0
 30 28  1  0  0  0  0
 31 33  1  0  0  0  0
 32 34  1  0  0  0  0
 33 32  1  0  0  0  0
 35 32  2  0  0  0  0
 36 31  2  0  0  0  0
 36 35  1  0  0  0  0
 37 38  1  0  0  0  0
 39 40  1  0  0  0  0
 39 41  2  0  0  0  0
 40 38  1  0  0  0  0
 42 44  1  0  0  0  0
 43 47  1  0  0  0  0
 44 39  1  0  0  0  0
 45 48  1  0  0  0  0
 45 51  1  0  0  0  0
 47 42  1  0  0  0  0
 47 56  1  0  0  0  0
 47 44  1  0  0  0  0
 48 50  1  0  0  0  0
 49 52  1  0  0  0  0
 50 54  1  0  0  0  0
 51 43  1  0  0  0  0
 52 50  1  0  0  0  0
 52 53  1  0  0  0  0
 53 46  1  0  0  0  0
 54 46  1  0  0  0  0
 54 42  1  0  0  0  0
 56 55  1  0  0  0  0
M  END
>  <MODEL>
4

>  <REMARK>
 VINA RESULT:      -8.3      2.065      3.191
  Name = 
  12 active torsions:
  status: ('A' for Active; 'I' for Inactive)
    1  A    between atoms: N_3  and  C_32
    2  A    between atoms: C_4  and  C_26
    3  A    between atoms: C_5  and  C_22
    4  A    between atoms: N_8  and  C_46
    5  A    between atoms: C_9  and  S_21
    6  A    between atoms: C_11  and  C_42
    7  A    between atoms: C_13  and  N_17
    8  A    between atoms: N_17  and  C_46
    9  A    between atoms: C_18  and  O_56
   10  A    between atoms: S_21  and  O_56
   11  A    between atoms: C_29  and  N_39
   12  A    between atoms: C_31  and  C_40
                            x       y       z     vdW  Elec       q    Type
                         _______ _______ _______ _____ _____    ______ ____

>  <TORSDO>
F 12

$$$$
=
 OpenBabel11042413293D

 56 63  0  0  1  0  0  0  0  0999 V2000
  188.5700  177.9790  141.4530 C   0  0  0  0  0  0  0  0  0  0  0  0
  190.8230  177.1140  141.3700 C   0  0  0  0  0  0  0  0  0  0  0  0
  189.4230  177.7350  139.3440 N   0  0  0  0  0  0  0  0  0  0  0  0
  188.5370  177.9160  142.8450 C   0  0  0  0  0  3  0  0  0  0  0  0
  190.8170  177.0510  142.7740 C   0  0  0  0  0  3  0  0  0  0  0  0
  188.0530  178.2470  139.2040 C   0  0  0  0  0  3  0  0  0  0  0  0
  187.5350  178.3810  140.5710 N   0  0  0  0  0  0  0  0  0  0  0  0
  189.6840  177.4480  143.5180 C   0  0  0  0  0  0  0  0  0  0  0  0
  189.6610  177.5860  140.7370 C   0  0  0  0  0  0  0  0  0  0  0  0
  185.7010  178.2440  142.1940 C   0  0  0  0  0  2  0  0  0  0  0  0
  186.2590  178.9800  140.9640 C   0  0  2  0  0  3  0  0  0  0  0  0
  183.4940  177.7590  141.0440 C   0  0  2  0  0  3  0  0  0  0  0  0
  185.2700  179.0120  139.7820 C   0  0  0  0  0  2  0  0  0  0  0  0
  184.1810  178.3650  142.2790 C   0  0  0  0  0  2  0  0  0  0  0  0
  184.3670  177.7830  139.7840 C   0  0  0  0  0  2  0  0  0  0  0  0
  182.2510  178.4640  140.7780 N   0  0  0  0  0  2  0  0  0  0  0  0
  181.0710  177.8090  140.3120 C   0  0  0  0  0  0  0  0  0  0  0  0
  181.0780  176.5660  140.0910 O   0  0  0  0  0  0  0  0  0  0  0  0
  179.9230  179.6030  135.8400 O   0  0  0  0  0  1  0  0  0  0  0  0
  179.9580  180.4200  138.1020 C   0  0  1  0  0  3  0  0  0  0  0  0
  180.2480  179.2520  137.1490 C   0  0  1  0  0  3  0  0  0  0  0  0
  179.4910  177.9710  137.5260 C   0  0  0  0  0  2  0  0  0  0  0  0
  179.8780  178.6440  139.9600 C   0  0  2  0  0  3  0  0  0  0  0  0
  178.9340  177.9740  138.9540 C   0  0  0  0  0  2  0  0  0  0  0  0
  180.3220  180.0510  139.5410 C   0  0  0  0  0  2  0  0  0  0  0  0
  180.8880  181.9070  137.6530 S   0  0  2  0  0  3  0  0  0  0  0  0
  181.9770  181.9980  138.7110 O   0  0  0  0  0  1  0  0  0  0  0  0
  179.8350  183.2230  138.0410 O   0  0  0  0  0  0  0  0  0  0  0  0
  181.1450  185.0360  137.4530 O   0  0  0  0  0  0  0  0  0  0  0  0
  180.0100  184.4950  137.4950 C   0  0  0  0  0  3  0  0  0  0  0  0
  189.6990  177.3190  144.9860 C   0  0  0  0  0  0  0  0  0  0  0  0
  189.1280  177.2060  147.1110 C   0  0  0  0  0  0  0  0  0  0  0  0
  188.6400  177.4650  145.7700 C   0  0  0  0  0  3  0  0  0  0  0  0
  188.3130  177.2430  148.2740 N   0  0  0  0  0  1  0  0  0  0  0  0
  190.3810  176.9070  147.1510 N   0  0  0  0  0  0  0  0  0  0  0  0
  190.8990  176.9450  145.7940 C   0  0  0  0  0  2  0  0  0  0  0  0
  191.9870  176.6830  140.6530 N   0  0  0  0  0  2  0  0  0  0  0  0
  193.0240  177.5870  140.1790 C   0  0  0  0  0  2  0  0  0  0  0  0
  193.3600  175.9830  138.2480 C   0  0  0  0  0  0  0  0  0  0  0  0
  193.8710  176.9080  139.2110 N   0  0  0  0  0  2  0  0  0  0  0  0
  192.1340  175.6940  138.2300 O   0  0  0  0  0  0  0  0  0  0  0  0
  194.1720  173.7810  137.3590 C   0  0  2  0  0  3  0  0  0  0  0  0
  196.7100  174.5250  137.1480 C   0  0  0  0  0  2  0  0  0  0  0  0
  194.2820  175.3070  137.2760 C   0  0  2  0  0  3  0  0  0  0  0  0
  197.6420  172.4970  135.9470 C   0  0  0  0  0  2  0  0  0  0  0  0
  193.0040  172.8260  135.3700 C   0  0  0  0  0  2  0  0  0  0  0  0
  195.3970  174.4930  137.9380 C   0  0  1  0  0  0  0  0  0  0  0  0
  196.3560  172.3540  135.1270 C   0  0  0  0  0  2  0  0  0  0  0  0
  194.6920  169.6480  136.0240 C   0  0  0  0  0  1  0  0  0  0  0  0
  195.2110  172.0290  135.9700 N   0  0  2  0  0  0  0  0  0  0  0  0
  197.4460  173.1960  137.2930 C   0  0  0  0  0  2  0  0  0  0  0  0
  194.4670  170.9640  135.3060 C   0  0  2  0  0  3  0  0  0  0  0  0
  193.0030  171.3260  135.3540 C   0  0  0  0  0  2  0  0  0  0  0  0
  194.3520  173.2140  135.9510 C   0  0  2  0  0  3  0  0  0  0  0  0
  196.8310  174.9780  139.9610 C   0  0  0  0  0  1  0  0  0  0  0  0
  195.4710  174.5130  139.4690 C   0  0  0  0  0  2  0  0  0  0  0  0
  1  4  1  0  0  0  0
  2  5  2  0  0  0  0
  3  9  1  0  0  0  0
  4  8  2  0  0  0  0
  5  8  1  0  0  0  0
  6  3  2  0  0  0  0
  6  7  1  0  0  0  0
  7 11  1  0  0  0  0
  7  1  1  0  0  0  0
  8 31  1  0  0  0  0
  9  2  1  0  0  0  0
  9  1  2  0  0  0  0
 10 14  1  0  0  0  0
 11 10  1  0  0  0  0
 12 14  1  0  0  0  0
 13 15  1  0  0  0  0
 13 11  1  0  0  0  0
 15 12  1  0  0  0  0
 16 12  1  0  0  0  0
 17 16  1  0  0  0  0
 18 17  2  0  0  0  0
 20 26  1  6  0  0  0
 20 25  1  0  0  0  0
 21 19  1  6  0  0  0
 21 22  1  0  0  0  0
 21 20  1  0  0  0  0
 22 24  1  0  0  0  0
 23 17  1  6  0  0  0
 24 23  1  0  0  0  0
 25 23  1  0  0  0  0
 26 28  1  0  0  0  0
 26 27  1  1  0  0  0
 29 30  2  0  0  0  0
 30 28  1  0  0  0  0
 31 33  2  0  0  0  0
 31 36  1  0  0  0  0
 32 35  2  0  0  0  0
 32 34  1  0  0  0  0
 33 32  1  0  0  0  0
 36 35  1  0  0  0  0
 37  2  1  0  0  0  0
 38 37  1  0  0  0  0
 39 40  1  0  0  0  0
 40 38  1  0  0  0  0
 41 39  2  0  0  0  0
 42 47  1  0  0  0  0
 43 51  1  0  0  0  0
 43 47  1  0  0  0  0
 44 42  1  0  0  0  0
 44 47  1  0  0  0  0
 44 39  1  0  0  0  0
 45 51  1  0  0  0  0
 46 54  1  0  0  0  0
 47 56  1  0  0  0  0
 48 45  1  0  0  0  0
 48 50  1  0  0  0  0
 52 53  1  0  0  0  0
 52 50  1  0  0  0  0
 52 49  1  0  0  0  0
 53 46  1  0  0  0  0
 54 50  1  0  0  0  0
 54 42  1  0  0  0  0
 56 55  1  0  0  0  0
M  END
>  <MODEL>
5

>  <REMARK>
 VINA RESULT:      -7.9      3.515     12.251
  Name = 
  12 active torsions:
  status: ('A' for Active; 'I' for Inactive)
    1  A    between atoms: N_3  and  C_32
    2  A    between atoms: C_4  and  C_26
    3  A    between atoms: C_5  and  C_22
    4  A    between atoms: N_8  and  C_46
    5  A    between atoms: C_9  and  S_21
    6  A    between atoms: C_11  and  C_42
    7  A    between atoms: C_13  and  N_17
    8  A    between atoms: N_17  and  C_46
    9  A    between atoms: C_18  and  O_56
   10  A    between atoms: S_21  and  O_56
   11  A    between atoms: C_29  and  N_39
   12  A    between atoms: C_31  and  C_40
                            x       y       z     vdW  Elec       q    Type
                         _______ _______ _______ _____ _____    ______ ____

>  <TORSDO>
F 12

$$$$
=
 OpenBabel11042413293D

 56 63  0  0  1  0  0  0  0  0999 V2000
  188.9360  175.9300  137.1820 C   0  0  0  0  0  0  0  0  0  0  0  0
  190.8510  176.0460  138.6480 C   0  0  0  0  0  0  0  0  0  0  0  0
  188.8090  177.5490  138.7930 N   0  0  0  0  0  0  0  0  0  0  0  0
  189.4930  174.8850  136.4470 C   0  0  0  0  0  3  0  0  0  0  0  0
  191.4280  174.9870  137.9280 C   0  0  0  0  0  3  0  0  0  0  0  0
  187.5810  177.6350  137.9910 C   0  0  0  0  0  3  0  0  0  0  0  0
  187.7020  176.5930  136.9640 N   0  0  0  0  0  0  0  0  0  0  0  0
  190.7610  174.4010  136.8300 C   0  0  0  0  0  0  0  0  0  0  0  0
  189.5870  176.5000  138.2350 C   0  0  0  0  0  0  0  0  0  0  0  0
  186.1760  177.4260  135.2330 C   0  0  0  0  0  2  0  0  0  0  0  0
  186.6720  176.1910  136.0040 C   0  0  2  0  0  3  0  0  0  0  0  0
  183.7580  176.9820  135.8530 C   0  0  2  0  0  3  0  0  0  0  0  0
  185.5340  175.4180  136.7000 C   0  0  0  0  0  2  0  0  0  0  0  0
  184.7560  177.2270  134.7090 C   0  0  0  0  0  2  0  0  0  0  0  0
  184.3950  176.3510  137.0960 C   0  0  0  0  0  2  0  0  0  0  0  0
  182.6750  176.1320  135.3870 N   0  0  0  0  0  2  0  0  0  0  0  0
  181.3350  176.2460  135.8700 C   0  0  0  0  0  0  0  0  0  0  0  0
  181.0480  177.0980  136.7550 O   0  0  0  0  0  0  0  0  0  0  0  0
  180.3530  171.8500  137.9320 O   0  0  0  0  0  1  0  0  0  0  0  0
  180.6630  172.7150  135.7080 C   0  0  1  0  0  3  0  0  0  0  0  0
  180.6640  173.0050  137.2160 C   0  0  1  0  0  3  0  0  0  0  0  0
  179.6850  174.1190  137.6110 C   0  0  0  0  0  2  0  0  0  0  0  0
  180.3190  175.2460  135.4080 C   0  0  2  0  0  3  0  0  0  0  0  0
  179.2110  174.9790  136.4340 C   0  0  0  0  0  2  0  0  0  0  0  0
  181.0160  173.9730  134.9130 C   0  0  0  0  0  2  0  0  0  0  0  0
  181.8500  171.4220  135.2670 S   0  0  2  0  0  3  0  0  0  0  0  0
  181.0590  170.1290  135.4050 O   0  0  0  0  0  1  0  0  0  0  0  0
  182.9560  171.3630  136.5950 O   0  0  0  0  0  0  0  0  0  0  0  0
  184.7360  172.3760  137.6710 O   0  0  0  0  0  0  0  0  0  0  0  0
  184.1490  172.0860  136.5960 C   0  0  0  0  0  3  0  0  0  0  0  0
  191.4220  173.3270  136.0680 C   0  0  0  0  0  0  0  0  0  0  0  0
  192.8460  171.8140  135.3360 C   0  0  0  0  0  0  0  0  0  0  0  0
  192.6540  172.8900  136.2890 C   0  0  0  0  0  2  0  0  0  0  0  0
  194.0380  171.0490  135.2310 N   0  0  0  0  0  1  0  0  0  0  0  0
  191.8120  171.5920  134.5990 N   0  0  0  0  0  0  0  0  0  0  0  0
  190.7750  172.5360  134.9780 C   0  0  0  0  0  3  0  0  0  0  0  0
  191.5720  176.6240  139.7450 N   0  0  0  0  0  2  0  0  0  0  0  0
  191.1730  177.8510  140.4170 C   0  0  0  0  0  2  0  0  0  0  0  0
  190.9520  176.8770  142.7440 C   0  0  0  0  0  0  0  0  0  0  0  0
  190.3950  177.5380  141.6050 N   0  0  0  0  0  2  0  0  0  0  0  0
  192.1560  176.5050  142.7400 O   0  0  0  0  0  0  0  0  0  0  0  0
  189.1370  177.7240  144.2550 C   0  0  2  0  0  3  0  0  0  0  0  0
  190.2120  176.7700  146.4850 C   0  0  0  0  0  2  0  0  0  0  0  0
  190.1000  176.5750  143.9410 C   0  0  2  0  0  3  0  0  0  0  0  0
  188.3240  177.2640  148.1040 C   0  0  0  0  0  2  0  0  0  0  0  0
  186.7780  177.1420  143.6820 C   0  0  0  0  0  2  0  0  0  0  0  0
  190.3640  177.4890  145.1400 C   0  0  1  0  0  0  0  0  0  0  0  0
  187.2790  176.9350  147.0330 C   0  0  0  0  0  2  0  0  0  0  0  0
  185.6710  179.6600  146.0920 C   0  0  0  0  0  1  0  0  0  0  0  0
  187.3280  177.8800  145.9230 N   0  0  2  0  0  0  0  0  0  0  0  0
  189.6670  177.7300  147.5390 C   0  0  0  0  0  2  0  0  0  0  0  0
  185.9530  178.2530  145.6050 C   0  0  2  0  0  3  0  0  0  0  0  0
  185.7940  178.1920  144.1050 C   0  0  0  0  0  2  0  0  0  0  0  0
  187.8320  177.1240  144.7750 C   0  0  2  0  0  3  0  0  0  0  0  0
  191.0080  179.7500  144.2140 C   0  0  0  0  0  1  0  0  0  0  0  0
  191.4750  178.5350  144.9980 C   0  0  0  0  0  2  0  0  0  0  0  0
  1  9  1  0  0  0  0
  2 37  1  0  0  0  0
  4  8  1  0  0  0  0
  4  1  2  0  0  0  0
  5  2  1  0  0  0  0
  6  3  2  0  0  0  0
  7  1  1  0  0  0  0
  7  6  1  0  0  0  0
  8  5  2  0  0  0  0
  9  2  2  0  0  0  0
  9  3  1  0  0  0  0
 10 11  1  0  0  0  0
 11 13  1  0  0  0  0
 11  7  1  0  0  0  0
 12 15  1  0  0  0  0
 13 15  1  0  0  0  0
 14 10  1  0  0  0  0
 14 12  1  0  0  0  0
 16 12  1  0  0  0  0
 16 17  1  0  0  0  0
 17 18  2  0  0  0  0
 20 26  1  1  0  0  0
 20 21  1  0  0  0  0
 21 22  1  0  0  0  0
 21 19  1  1  0  0  0
 23 17  1  1  0  0  0
 23 24  1  0  0  0  0
 24 22  1  0  0  0  0
 25 23  1  0  0  0  0
 25 20  1  0  0  0  0
 26 27  1  1  0  0  0
 26 28  1  0  0  0  0
 28 30  1  0  0  0  0
 30 29  2  0  0  0  0
 31 33  1  0  0  0  0
 31  8  1  0  0  0  0
 32 33  1  0  0  0  0
 34 32  1  0  0  0  0
 35 36  1  0  0  0  0
 35 32  2  0  0  0  0
 36 31  2  0  0  0  0
 37 38  1  0  0  0  0
 38 40  1  0  0  0  0
 39 44  1  0  0  0  0
 40 39  1  0  0  0  0
 41 39  2  0  0  0  0
 42 54  1  0  0  0  0
 42 47  1  0  0  0  0
 43 51  1  0  0  0  0
 44 42  1  0  0  0  0
 44 47  1  0  0  0  0
 46 53  1  0  0  0  0
 46 54  1  0  0  0  0
 47 43  1  0  0  0  0
 48 45  1  0  0  0  0
 50 48  1  0  0  0  0
 51 45  1  0  0  0  0
 52 50  1  0  0  0  0
 52 49  1  0  0  0  0
 53 52  1  0  0  0  0
 54 50  1  0  0  0  0
 55 56  1  0  0  0  0
 56 47  1  0  0  0  0
M  END
>  <MODEL>
6

>  <REMARK>
 VINA RESULT:      -7.6      4.190     10.925
  Name = 
  12 active torsions:
  status: ('A' for Active; 'I' for Inactive)
    1  A    between atoms: N_3  and  C_32
    2  A    between atoms: C_4  and  C_26
    3  A    between atoms: C_5  and  C_22
    4  A    between atoms: N_8  and  C_46
    5  A    between atoms: C_9  and  S_21
    6  A    between atoms: C_11  and  C_42
    7  A    between atoms: C_13  and  N_17
    8  A    between atoms: N_17  and  C_46
    9  A    between atoms: C_18  and  O_56
   10  A    between atoms: S_21  and  O_56
   11  A    between atoms: C_29  and  N_39
   12  A    between atoms: C_31  and  C_40
                            x       y       z     vdW  Elec       q    Type
                         _______ _______ _______ _____ _____    ______ ____

>  <TORSDO>
F 12

$$$$
=
 OpenBabel11042413293D

 56 63  0  0  1  0  0  0  0  0999 V2000
  187.2270  177.3020  137.7240 C   0  0  0  0  0  0  0  0  0  0  0  0
  185.4750  178.4970  138.8780 C   0  0  0  0  0  0  0  0  0  0  0  0
  187.9460  178.6150  139.4540 N   0  0  0  0  0  0  0  0  0  0  0  0
  186.3200  176.6980  136.8550 C   0  0  0  0  0  3  0  0  0  0  0  0
  184.5430  177.9080  138.0070 C   0  0  0  0  0  3  0  0  0  0  0  0
  189.1300  177.9560  138.8870 C   0  0  0  0  0  3  0  0  0  0  0  0
  188.6310  177.1160  137.7910 N   0  0  0  0  0  0  0  0  0  0  0  0
  184.9520  177.0110  136.9970 C   0  0  0  0  0  0  0  0  0  0  0  0
  186.8280  178.1600  138.7050 C   0  0  0  0  0  0  0  0  0  0  0  0
  189.2760  174.8560  137.0860 C   0  0  0  0  0  2  0  0  0  0  0  0
  189.4420  176.3640  136.8310 C   0  0  2  0  0  3  0  0  0  0  0  0
  191.7770  174.5040  137.3130 C   0  0  2  0  0  3  0  0  0  0  0  0
  190.9140  176.8220  136.8650 C   0  0  0  0  0  2  0  0  0  0  0  0
  190.4890  174.0670  136.5960 C   0  0  0  0  0  2  0  0  0  0  0  0
  191.7400  175.9540  137.8090 C   0  0  0  0  0  2  0  0  0  0  0  0
  192.9160  174.3310  136.4260 N   0  0  0  0  0  2  0  0  0  0  0  0
  193.3230  173.0560  135.9260 C   0  0  0  0  0  0  0  0  0  0  0  0
  192.7020  172.0110  136.2660 O   0  0  0  0  0  0  0  0  0  0  0  0
  197.8770  172.0390  137.5900 O   0  0  0  0  0  1  0  0  0  0  0  0
  196.8730  173.6160  136.0740 C   0  0  1  0  0  3  0  0  0  0  0  0
  196.6560  172.4660  137.0680 C   0  0  1  0  0  3  0  0  0  0  0  0
  195.9320  171.2650  136.4440 C   0  0  0  0  0  2  0  0  0  0  0  0
  194.5770  172.9730  135.1110 C   0  0  2  0  0  3  0  0  0  0  0  0
  195.2250  171.5830  135.1210 C   0  0  0  0  0  2  0  0  0  0  0  0
  195.5390  174.1000  135.5040 C   0  0  0  0  0  2  0  0  0  0  0  0
  197.7000  175.0300  136.8450 S   0  0  2  0  0  3  0  0  0  0  0  0
  199.1770  174.6690  136.7940 O   0  0  0  0  0  1  0  0  0  0  0  0
  197.3120  174.9080  138.5260 O   0  0  0  0  0  0  0  0  0  0  0  0
  197.8450  175.4880  140.7010 O   0  0  0  0  0  0  0  0  0  0  0  0
  198.2230  175.2620  139.5220 C   0  0  0  0  0  3  0  0  0  0  0  0
  183.9390  176.3740  136.1380 C   0  0  0  0  0  0  0  0  0  0  0  0
  182.5970  174.9300  135.1540 C   0  0  0  0  0  0  0  0  0  0  0  0
  183.6860  175.0730  136.1000 C   0  0  0  0  0  2  0  0  0  0  0  0
  181.9960  173.6880  134.8150 N   0  0  0  0  0  1  0  0  0  0  0  0
  182.1960  176.0510  134.6600 N   0  0  0  0  0  0  0  0  0  0  0  0
  183.0090  177.1130  135.2300 C   0  0  0  0  0  3  0  0  0  0  0  0
  185.0140  179.3880  139.9020 N   0  0  0  0  0  2  0  0  0  0  0  0
  184.7180  178.9710  141.2640 C   0  0  0  0  0  2  0  0  0  0  0  0
  185.9810  179.0170  143.4580 C   0  0  0  0  0  0  0  0  0  0  0  0
  185.9480  178.8830  142.0350 N   0  0  0  0  0  2  0  0  0  0  0  0
  184.9240  179.2550  144.1010 O   0  0  0  0  0  0  0  0  0  0  0  0
  187.9820  177.5830  143.9460 C   0  0  2  0  0  3  0  0  0  0  0  0
  188.1340  178.2430  146.5120 C   0  0  0  0  0  2  0  0  0  0  0  0
  187.2800  178.9210  144.2020 C   0  0  2  0  0  3  0  0  0  0  0  0
  190.3260  177.1170  147.1040 C   0  0  0  0  0  2  0  0  0  0  0  0
  189.9900  177.8510  142.4880 C   0  0  0  0  0  2  0  0  0  0  0  0
  187.2980  177.8450  145.2910 C   0  0  1  0  0  0  0  0  0  0  0  0
  190.9120  177.4670  145.7320 C   0  0  0  0  0  2  0  0  0  0  0  0
  191.3140  174.7490  143.9030 C   0  0  0  0  0  1  0  0  0  0  0  0
  190.2050  176.7860  144.6530 N   0  0  2  0  0  0  0  0  0  0  0  0
  188.8010  177.0120  147.1200 C   0  0  0  0  0  2  0  0  0  0  0  0
  191.2100  176.2520  143.7400 C   0  0  2  0  0  3  0  0  0  0  0  0
  190.7770  176.5840  142.3330 C   0  0  0  0  0  2  0  0  0  0  0  0
  189.4890  177.8320  143.9220 C   0  0  2  0  0  3  0  0  0  0  0  0
  185.1810  177.6470  146.6570 C   0  0  0  0  0  1  0  0  0  0  0  0
  186.0040  177.0570  145.5230 C   0  0  0  0  0  2  0  0  0  0  0  0
  1  7  1  0  0  0  0
  1  9  1  0  0  0  0
  2 37  1  0  0  0  0
  4  8  1  0  0  0  0
  4  1  2  0  0  0  0
  5  2  1  0  0  0  0
  6  3  2  0  0  0  0
  7  6  1  0  0  0  0
  8  5  2  0  0  0  0
  9  2  2  0  0  0  0
  9  3  1  0  0  0  0
 11 13  1  0  0  0  0
 11 10  1  0  0  0  0
 11  7  1  0  0  0  0
 12 15  1  0  0  0  0
 13 15  1  0  0  0  0
 14 10  1  0  0  0  0
 14 12  1  0  0  0  0
 16 12  1  0  0  0  0
 17 18  2  0  0  0  0
 17 16  1  0  0  0  0
 20 26  1  1  0  0  0
 20 21  1  0  0  0  0
 21 19  1  6  0  0  0
 22 21  1  0  0  0  0
 23 24  1  0  0  0  0
 23 25  1  0  0  0  0
 23 17  1  1  0  0  0
 24 22  1  0  0  0  0
 25 20  1  0  0  0  0
 26 27  1  1  0  0  0
 26 28  1  0  0  0  0
 28 30  1  0  0  0  0
 30 29  2  0  0  0  0
 31  8  1  0  0  0  0
 32 33  1  0  0  0  0
 33 31  1  0  0  0  0
 34 32  1  0  0  0  0
 35 32  2  0  0  0  0
 35 36  1  0  0  0  0
 36 31  2  0  0  0  0
 37 38  1  0  0  0  0
 38 40  1  0  0  0  0
 39 41  2  0  0  0  0
 39 44  1  0  0  0  0
 40 39  1  0  0  0  0
 42 44  1  0  0  0  0
 42 47  1  0  0  0  0
 43 51  1  0  0  0  0
 44 47  1  0  0  0  0
 45 51  1  0  0  0  0
 46 54  1  0  0  0  0
 47 56  1  0  0  0  0
 47 43  1  0  0  0  0
 48 45  1  0  0  0  0
 50 48  1  0  0  0  0
 52 49  1  0  0  0  0
 52 50  1  0  0  0  0
 53 46  1  0  0  0  0
 53 52  1  0  0  0  0
 54 42  1  0  0  0  0
 54 50  1  0  0  0  0
 56 55  1  0  0  0  0
M  END
>  <MODEL>
7

>  <REMARK>
 VINA RESULT:      -7.5      2.505      7.774
  Name = 
  12 active torsions:
  status: ('A' for Active; 'I' for Inactive)
    1  A    between atoms: N_3  and  C_32
    2  A    between atoms: C_4  and  C_26
    3  A    between atoms: C_5  and  C_22
    4  A    between atoms: N_8  and  C_46
    5  A    between atoms: C_9  and  S_21
    6  A    between atoms: C_11  and  C_42
    7  A    between atoms: C_13  and  N_17
    8  A    between atoms: N_17  and  C_46
    9  A    between atoms: C_18  and  O_56
   10  A    between atoms: S_21  and  O_56
   11  A    between atoms: C_29  and  N_39
   12  A    between atoms: C_31  and  C_40
                            x       y       z     vdW  Elec       q    Type
                         _______ _______ _______ _____ _____    ______ ____

>  <TORSDO>
F 12

$$$$
=
 OpenBabel11042413293D

 56 63  0  0  1  0  0  0  0  0999 V2000
  188.6320  177.3760  139.9510 C   0  0  0  0  0  0  0  0  0  0  0  0
  186.7250  178.6180  140.7580 C   0  0  0  0  0  0  0  0  0  0  0  0
  187.1950  178.0860  138.3190 N   0  0  0  0  0  0  0  0  0  0  0  0
  189.1430  177.2160  141.2380 C   0  0  0  0  0  3  0  0  0  0  0  0
  187.2150  178.4600  142.0650 C   0  0  0  0  0  3  0  0  0  0  0  0
  188.2930  177.3740  137.6530 C   0  0  0  0  0  3  0  0  0  0  0  0
  189.1980  176.9430  138.7250 N   0  0  0  0  0  0  0  0  0  0  0  0
  188.4170  177.7650  142.3160 C   0  0  0  0  0  0  0  0  0  0  0  0
  187.4760  178.0570  139.7120 C   0  0  0  0  0  0  0  0  0  0  0  0
  191.6510  176.9290  138.6770 C   0  0  0  0  0  2  0  0  0  0  0  0
  190.3720  176.0810  138.5820 C   0  0  2  0  0  3  0  0  0  0  0  0
  192.5180  176.0760  136.4520 C   0  0  2  0  0  3  0  0  0  0  0  0
  190.2960  175.2480  137.2860 C   0  0  0  0  0  2  0  0  0  0  0  0
  192.8190  176.2680  137.9480 C   0  0  0  0  0  2  0  0  0  0  0  0
  191.0230  175.9440  136.1400 C   0  0  0  0  0  2  0  0  0  0  0  0
  193.2150  174.9000  135.9580 N   0  0  0  0  0  2  0  0  0  0  0  0
  194.5440  174.9470  135.4360 C   0  0  0  0  0  0  0  0  0  0  0  0
  195.1620  176.0450  135.3670 O   0  0  0  0  0  0  0  0  0  0  0  0
  196.3700  171.0720  137.9230 O   0  0  0  0  0  1  0  0  0  0  0  0
  197.0100  172.3930  136.0170 C   0  0  1  0  0  3  0  0  0  0  0  0
  196.0030  172.1760  137.1550 C   0  0  1  0  0  3  0  0  0  0  0  0
  194.5650  171.9810  136.6530 C   0  0  0  0  0  2  0  0  0  0  0  0
  195.1280  173.6990  134.8480 C   0  0  2  0  0  3  0  0  0  0  0  0
  194.3460  172.4290  135.2030 C   0  0  0  0  0  2  0  0  0  0  0  0
  196.6240  173.6100  135.1740 C   0  0  0  0  0  2  0  0  0  0  0  0
  198.6900  172.6520  136.6400 S   0  0  2  0  0  3  0  0  0  0  0  0
  199.1800  171.2520  136.9770 O   0  0  0  0  0  1  0  0  0  0  0  0
  198.4790  173.3920  138.1890 O   0  0  0  0  0  0  0  0  0  0  0  0
  198.9090  175.5160  138.9970 O   0  0  0  0  0  0  0  0  0  0  0  0
  198.1740  174.7460  138.3250 C   0  0  0  0  0  3  0  0  0  0  0  0
  188.9240  177.6660  143.6960 C   0  0  0  0  0  0  0  0  0  0  0  0
  189.0950  177.5560  145.8900 C   0  0  0  0  0  0  0  0  0  0  0  0
  188.1750  177.7530  144.7860 C   0  0  0  0  0  2  0  0  0  0  0  0
  188.7080  177.5600  147.2570 N   0  0  0  0  0  1  0  0  0  0  0  0
  190.3090  177.3460  145.5130 N   0  0  0  0  0  0  0  0  0  0  0  0
  190.3480  177.3930  144.0610 C   0  0  0  0  0  3  0  0  0  0  0  0
  185.5090  179.3470  140.5470 N   0  0  0  0  0  2  0  0  0  0  0  0
  184.7800  179.3570  139.2880 C   0  0  0  0  0  2  0  0  0  0  0  0
  183.0630  177.6630  140.0590 C   0  0  0  0  0  0  0  0  0  0  0  0
  184.0500  178.1100  139.1260 N   0  0  0  0  0  2  0  0  0  0  0  0
  182.8140  178.3360  141.0950 O   0  0  0  0  0  0  0  0  0  0  0  0
  182.1450  176.0690  138.3530 C   0  0  2  0  0  3  0  0  0  0  0  0
  179.9490  175.4850  139.7230 C   0  0  0  0  0  2  0  0  0  0  0  0
  182.3440  176.3650  139.8440 C   0  0  2  0  0  3  0  0  0  0  0  0
  179.0370  173.6150  138.2740 C   0  0  0  0  0  2  0  0  0  0  0  0
  183.6300  174.2220  137.5680 C   0  0  0  0  0  2  0  0  0  0  0  0
  180.9580  176.5170  139.2100 C   0  0  1  0  0  0  0  0  0  0  0  0
  180.4530  173.1030  137.9910 C   0  0  0  0  0  2  0  0  0  0  0  0
  181.2750  173.6180  134.8350 C   0  0  0  0  0  1  0  0  0  0  0  0
  181.2360  174.0710  137.2300 N   0  0  2  0  0  0  0  0  0  0  0  0
  178.9720  175.1040  138.6140 C   0  0  0  0  0  2  0  0  0  0  0  0
  181.9290  173.3410  136.1740 C   0  0  2  0  0  3  0  0  0  0  0  0
  183.3610  173.8150  136.1490 C   0  0  0  0  0  2  0  0  0  0  0  0
  182.2670  174.5590  138.1470 C   0  0  2  0  0  3  0  0  0  0  0  0
  180.6830  178.3440  137.4860 C   0  0  0  0  0  1  0  0  0  0  0  0
  180.4630  177.9410  138.9340 C   0  0  0  0  0  2  0  0  0  0  0  0
  1  4  1  0  0  0  0
  2  5  2  0  0  0  0
  3  9  1  0  0  0  0
  4  8  2  0  0  0  0
  5  8  1  0  0  0  0
  6  3  2  0  0  0  0
  6  7  1  0  0  0  0
  7  1  1  0  0  0  0
  8 31  1  0  0  0  0
  9  1  2  0  0  0  0
  9  2  1  0  0  0  0
 11 10  1  0  0  0  0
 11  7  1  0  0  0  0
 12 14  1  0  0  0  0
 13 11  1  0  0  0  0
 14 10  1  0  0  0  0
 15 12  1  0  0  0  0
 15 13  1  0  0  0  0
 16 12  1  0  0  0  0
 17 16  1  0  0  0  0
 18 17  2  0  0  0  0
 20 26  1  1  0  0  0
 20 21  1  0  0  0  0
 21 19  1  6  0  0  0
 22 21  1  0  0  0  0
 23 25  1  0  0  0  0
 23 24  1  0  0  0  0
 23 17  1  1  0  0  0
 24 22  1  0  0  0  0
 25 20  1  0  0  0  0
 26 27  1  1  0  0  0
 26 28  1  0  0  0  0
 28 30  1  0  0  0  0
 30 29  2  0  0  0  0
 31 36  2  0  0  0  0
 31 33  1  0  0  0  0
 32 34  1  0  0  0  0
 33 32  1  0  0  0  0
 35 32  2  0  0  0  0
 36 35  1  0  0  0  0
 37  2  1  0  0  0  0
 38 37  1  0  0  0  0
 39 41  2  0  0  0  0
 40 38  1  0  0  0  0
 40 39  1  0  0  0  0
 42 47  1  0  0  0  0
 42 44  1  0  0  0  0
 44 39  1  0  0  0  0
 45 51  1  0  0  0  0
 46 54  1  0  0  0  0
 47 43  1  0  0  0  0
 47 44  1  0  0  0  0
 48 45  1  0  0  0  0
 49 52  1  0  0  0  0
 50 48  1  0  0  0  0
 50 54  1  0  0  0  0
 51 43  1  0  0  0  0
 52 50  1  0  0  0  0
 53 52  1  0  0  0  0
 53 46  1  0  0  0  0
 54 42  1  0  0  0  0
 55 56  1  0  0  0  0
 56 47  1  0  0  0  0
M  END
>  <MODEL>
8

>  <REMARK>
 VINA RESULT:      -7.5      1.694      2.751
  Name = 
  12 active torsions:
  status: ('A' for Active; 'I' for Inactive)
    1  A    between atoms: N_3  and  C_32
    2  A    between atoms: C_4  and  C_26
    3  A    between atoms: C_5  and  C_22
    4  A    between atoms: N_8  and  C_46
    5  A    between atoms: C_9  and  S_21
    6  A    between atoms: C_11  and  C_42
    7  A    between atoms: C_13  and  N_17
    8  A    between atoms: N_17  and  C_46
    9  A    between atoms: C_18  and  O_56
   10  A    between atoms: S_21  and  O_56
   11  A    between atoms: C_29  and  N_39
   12  A    between atoms: C_31  and  C_40
                            x       y       z     vdW  Elec       q    Type
                         _______ _______ _______ _____ _____    ______ ____

>  <TORSDO>
F 12

$$$$
=
 OpenBabel11042413293D

 56 63  0  0  1  0  0  0  0  0999 V2000
  182.2370  178.4990  141.6800 C   0  0  0  0  0  0  0  0  0  0  0  0
  183.6060  179.0880  143.5790 C   0  0  0  0  0  0  0  0  0  0  0  0
  181.0770  178.8590  143.6180 N   0  0  0  0  0  0  0  0  0  0  0  0
  183.3440  178.4170  140.8360 C   0  0  0  0  0  3  0  0  0  0  0  0
  184.7380  179.0020  142.7510 C   0  0  0  0  0  3  0  0  0  0  0  0
  180.0940  178.5350  142.5760 C   0  0  0  0  0  3  0  0  0  0  0  0
  180.8700  178.3210  141.3480 N   0  0  0  0  0  0  0  0  0  0  0  0
  184.6190  178.6690  141.3840 C   0  0  0  0  0  0  0  0  0  0  0  0
  182.3540  178.8300  142.9970 C   0  0  0  0  0  0  0  0  0  0  0  0
  179.1330  176.9400  140.3020 C   0  0  0  0  0  2  0  0  0  0  0  0
  180.3550  177.8430  140.0640 C   0  0  2  0  0  3  0  0  0  0  0  0
  180.1540  175.0230  138.9920 C   0  0  2  0  0  3  0  0  0  0  0  0
  181.4630  177.1550  139.2420 C   0  0  0  0  0  2  0  0  0  0  0  0
  178.9370  175.9490  139.1560 C   0  0  0  0  0  2  0  0  0  0  0  0
  181.4680  175.6470  139.4750 C   0  0  0  0  0  2  0  0  0  0  0  0
  180.2930  174.6380  137.5970 N   0  0  0  0  0  2  0  0  0  0  0  0
  180.4680  173.2830  137.1790 C   0  0  0  0  0  0  0  0  0  0  0  0
  180.5290  172.3570  138.0330 O   0  0  0  0  0  0  0  0  0  0  0  0
  183.5960  169.9390  135.2910 O   0  0  0  0  0  1  0  0  0  0  0  0
  183.0080  172.2320  134.8590 C   0  0  1  0  0  3  0  0  0  0  0  0
  182.8000  170.9920  135.7400 C   0  0  1  0  0  3  0  0  0  0  0  0
  181.3380  170.5290  135.7860 C   0  0  0  0  0  2  0  0  0  0  0  0
  180.7150  173.0070  135.7280 C   0  0  2  0  0  3  0  0  0  0  0  0
  180.3360  171.5830  135.3010 C   0  0  0  0  0  2  0  0  0  0  0  0
  182.1490  173.3980  135.3510 C   0  0  0  0  0  2  0  0  0  0  0  0
  184.7360  172.7740  134.8500 S   0  0  2  0  0  3  0  0  0  0  0  0
  185.2170  172.5030  136.2670 O   0  0  0  0  0  1  0  0  0  0  0  0
  184.6590  174.5000  134.7710 O   0  0  0  0  0  0  0  0  0  0  0  0
  186.4850  175.9180  134.6970 O   0  0  0  0  0  0  0  0  0  0  0  0
  185.6190  175.3100  135.3780 C   0  0  0  0  0  3  0  0  0  0  0  0
  185.8240  178.6400  140.5370 C   0  0  0  0  0  0  0  0  0  0  0  0
  187.9020  178.5700  139.8070 C   0  0  0  0  0  0  0  0  0  0  0  0
  187.0700  178.6540  140.9910 C   0  0  0  0  0  2  0  0  0  0  0  0
  189.3220  178.5440  139.8330 N   0  0  0  0  0  1  0  0  0  0  0  0
  187.2270  178.4910  138.7120 N   0  0  0  0  0  0  0  0  0  0  0  0
  185.8130  178.5290  139.0470 C   0  0  0  0  0  3  0  0  0  0  0  0
  183.7700  179.4470  144.9580 N   0  0  0  0  0  2  0  0  0  0  0  0
  184.2370  178.5270  145.9830 C   0  0  0  0  0  2  0  0  0  0  0  0
  186.5920  178.8840  146.8430 C   0  0  0  0  0  0  0  0  0  0  0  0
  185.6770  178.3540  145.8790 N   0  0  0  0  0  2  0  0  0  0  0  0
  186.1700  179.5610  147.8170 O   0  0  0  0  0  0  0  0  0  0  0  0
  188.3800  177.4900  145.7680 C   0  0  2  0  0  3  0  0  0  0  0  0
  189.9920  177.4940  147.8750 C   0  0  0  0  0  2  0  0  0  0  0  0
  188.0690  178.6790  146.6820 C   0  0  2  0  0  3  0  0  0  0  0  0
  192.0260  176.3830  146.8490 C   0  0  0  0  0  2  0  0  0  0  0  0
  189.2560  178.2280  143.5500 C   0  0  0  0  0  2  0  0  0  0  0  0
  188.5860  177.3680  147.2800 C   0  0  1  0  0  0  0  0  0  0  0  0
  191.7820  177.0970  145.5160 C   0  0  0  0  0  2  0  0  0  0  0  0
  190.8400  174.9510  143.1910 C   0  0  0  0  0  1  0  0  0  0  0  0
  190.5340  176.6690  144.8930 N   0  0  2  0  0  0  0  0  0  0  0  0
  190.7640  176.1910  147.6910 C   0  0  0  0  0  2  0  0  0  0  0  0
  190.8070  176.4390  143.4780 C   0  0  2  0  0  3  0  0  0  0  0  0
  189.7000  177.0860  142.6840 C   0  0  0  0  0  2  0  0  0  0  0  0
  189.6360  177.8230  144.9630 C   0  0  2  0  0  3  0  0  0  0  0  0
  187.3970  176.8800  149.4550 C   0  0  0  0  0  1  0  0  0  0  0  0
  187.5700  176.4740  148.0010 C   0  0  0  0  0  2  0  0  0  0  0  0
  1  9  1  0  0  0  0
  2 37  1  0  0  0  0
  4  8  1  0  0  0  0
  4  1  2  0  0  0  0
  5  2  1  0  0  0  0
  6  3  2  0  0  0  0
  7  1  1  0  0  0  0
  7  6  1  0  0  0  0
  8  5  2  0  0  0  0
  9  2  2  0  0  0  0
  9  3  1  0  0  0  0
 11 10  1  0  0  0  0
 11  7  1  0  0  0  0
 12 14  1  0  0  0  0
 12 15  1  0  0  0  0
 13 15  1  0  0  0  0
 13 11  1  0  0  0  0
 14 10  1  0  0  0  0
 16 12  1  0  0  0  0
 17 16  1  0  0  0  0
 17 18  2  0  0  0  0
 20 26  1  1  0  0  0
 20 25  1  0  0  0  0
 20 21  1  0  0  0  0
 21 19  1  6  0  0  0
 21 22  1  0  0  0  0
 23 17  1  1  0  0  0
 24 23  1  0  0  0  0
 24 22  1  0  0  0  0
 25 23  1  0  0  0  0
 26 27  1  1  0  0  0
 28 26  1  0  0  0  0
 28 30  1  0  0  0  0
 29 30  2  0  0  0  0
 31 33  1  0  0  0  0
 31  8  1  0  0  0  0
 32 34  1  0  0  0  0
 32 33  1  0  0  0  0
 35 36  1  0  0  0  0
 35 32  2  0  0  0  0
 36 31  2  0  0  0  0
 37 38  1  0  0  0  0
 39 41  2  0  0  0  0
 40 38  1  0  0  0  0
 40 39  1  0  0  0  0
 42 44  1  0  0  0  0
 42 47  1  0  0  0  0
 44 39  1  0  0  0  0
 44 47  1  0  0  0  0
 45 51  1  0  0  0  0
 46 54  1  0  0  0  0
 47 43  1  0  0  0  0
 47 56  1  0  0  0  0
 48 45  1  0  0  0  0
 49 52  1  0  0  0  0
 50 54  1  0  0  0  0
 50 48  1  0  0  0  0
 51 43  1  0  0  0  0
 52 50  1  0  0  0  0
 53 52  1  0  0  0  0
 53 46  1  0  0  0  0
 54 42  1  0  0  0  0
 56 55  1  0  0  0  0
M  END
>  <MODEL>
9

>  <REMARK>
 VINA RESULT:      -6.9      5.418     10.898
  Name = 
  12 active torsions:
  status: ('A' for Active; 'I' for Inactive)
    1  A    between atoms: N_3  and  C_32
    2  A    between atoms: C_4  and  C_26
    3  A    between atoms: C_5  and  C_22
    4  A    between atoms: N_8  and  C_46
    5  A    between atoms: C_9  and  S_21
    6  A    between atoms: C_11  and  C_42
    7  A    between atoms: C_13  and  N_17
    8  A    between atoms: N_17  and  C_46
    9  A    between atoms: C_18  and  O_56
   10  A    between atoms: S_21  and  O_56
   11  A    between atoms: C_29  and  N_39
   12  A    between atoms: C_31  and  C_40
                            x       y       z     vdW  Elec       q    Type
                         _______ _______ _______ _____ _____    ______ ____

>  <TORSDO>
F 12

$$$$
