=
 OpenBabel11032421303D

 26 27  0  0  1  0  0  0  0  0999 V2000
  189.6440  177.0490  141.7720 C   0  0  1  0  0  3  0  0  0  0  0  0
  190.6800  176.9730  140.6880 C   0  0  0  0  0  0  0  0  0  0  0  0
  191.9790  177.4690  140.8820 C   0  0  0  0  0  3  0  0  0  0  0  0
  192.9220  177.3860  139.8540 C   0  0  0  0  0  3  0  0  0  0  0  0
  190.3360  176.3970  139.4600 C   0  0  0  0  0  3  0  0  0  0  0  0
  191.2800  176.3160  138.4320 C   0  0  0  0  0  3  0  0  0  0  0  0
  192.5730  176.8110  138.6280 C   0  0  0  0  0  0  0  0  0  0  0  0
  193.5100  176.7290  137.6080 O   0  0  0  0  0  1  0  0  0  0  0  0
  190.2570  177.1690  143.1330 C   0  0  0  0  0  0  0  0  0  0  0  0
  190.0690  177.4430  146.1810 C   0  0  0  0  0  3  0  0  0  0  0  0
  191.7140  176.1050  144.8710 C   0  0  0  0  0  3  0  0  0  0  0  0
  191.3190  176.6700  146.0260 C   0  0  0  0  0  0  0  0  0  0  0  0
  189.5040  178.2050  145.2450 C   0  0  0  0  0  3  0  0  0  0  0  0
  191.0370  176.1750  143.5600 C   0  0  0  0  0  3  0  0  0  0  0  0
  190.1210  178.4430  143.9090 C   0  0  0  0  0  2  0  0  0  0  0  0
  192.0790  176.4670  147.1800 O   0  0  0  0  0  0  0  0  0  0  0  0
  192.8460  175.3780  147.3340 O   0  0  0  0  0  1  0  0  0  0  0  0
  188.6060  178.1420  141.5190 C   0  0  0  0  0  2  0  0  0  0  0  0
  186.2110  178.6500  142.1680 C   0  0  0  0  0  0  0  0  0  0  0  0
  186.0750  179.4420  141.1980 O   0  0  0  0  0  0  0  0  0  0  0  0
  187.4370  177.9420  142.3650 N   0  0  0  0  0  2  0  0  0  0  0  0
  185.0990  178.4780  143.1400 C   0  0  0  0  0  2  0  0  0  0  0  0
  185.6620  178.1060  144.4990 C   0  0  0  0  0  2  0  0  0  0  0  0
  183.6960  179.0440  145.4600 O   0  0  0  0  0  0  0  0  0  0  0  0
  185.6260  179.2780  146.7300 N   0  0  0  0  0  1  0  0  0  0  0  0
  184.9320  178.8390  145.5680 C   0  0  0  0  0  0  0  0  0  0  0  0
  1 18  1  6  0  0  0
  1  9  1  0  0  0  0
  2  3  1  0  0  0  0
  2  1  1  0  0  0  0
  4  3  2  0  0  0  0
  5  2  2  0  0  0  0
  6  7  2  0  0  0  0
  6  5  1  0  0  0  0
  7  4  1  0  0  0  0
  8  7  1  0  0  0  0
  9 14  2  0  0  0  0
  9 15  1  0  0  0  0
 11 12  2  0  0  0  0
 12 10  1  0  0  0  0
 12 16  1  0  0  0  0
 13 10  2  0  0  0  0
 14 11  1  0  0  0  0
 15 13  1  0  0  0  0
 16 17  1  0  0  0  0
 18 21  1  0  0  0  0
 19 21  1  0  0  0  0
 19 22  1  0  0  0  0
 20 19  2  0  0  0  0
 22 23  1  0  0  0  0
 23 26  1  0  0  0  0
 24 26  2  0  0  0  0
 26 25  1  0  0  0  0
M  END
>  <MODEL>
1

>  <REMARK>
 VINA RESULT:      -8.4      0.000      0.000
  Name = 
  8 active torsions:
  status: ('A' for Active; 'I' for Inactive)
    1  A    between atoms: C_1  and  C_3
    2  A    between atoms: C_2  and  C_5
    3  A    between atoms: C_3  and  C_10
    4  A    between atoms: C_3  and  C_11
    5  A    between atoms: O_4  and  C_19
    6  A    between atoms: C_5  and  C_20
    7  A    between atoms: C_11  and  N_24
    8  A    between atoms: C_20  and  C_25
                            x       y       z     vdW  Elec       q    Type
                         _______ _______ _______ _____ _____    ______ ____

>  <TORSDO>
F 8

$$$$
=
 OpenBabel11032421303D

 26 27  0  0  1  0  0  0  0  0999 V2000
  188.5210  177.1750  143.4700 C   0  0  1  0  0  3  0  0  0  0  0  0
  189.4460  177.0720  144.6480 C   0  0  0  0  0  0  0  0  0  0  0  0
  189.0390  177.4620  145.9330 C   0  0  0  0  0  3  0  0  0  0  0  0
  189.9240  177.3570  147.0110 C   0  0  0  0  0  3  0  0  0  0  0  0
  190.7410  176.5790  144.4520 C   0  0  0  0  0  3  0  0  0  0  0  0
  191.6240  176.4750  145.5300 C   0  0  0  0  0  3  0  0  0  0  0  0
  191.2170  176.8650  146.8090 C   0  0  0  0  0  0  0  0  0  0  0  0
  192.0940  176.7610  147.8790 O   0  0  0  0  0  1  0  0  0  0  0  0
  187.1130  177.4830  143.8810 C   0  0  0  0  0  0  0  0  0  0  0  0
  185.0490  178.9030  145.6470 C   0  0  0  0  0  3  0  0  0  0  0  0
  184.8990  178.4380  143.2030 C   0  0  0  0  0  3  0  0  0  0  0  0
  184.3220  178.7950  144.3650 C   0  0  0  0  0  0  0  0  0  0  0  0
  186.0800  178.1480  146.0230 C   0  0  0  0  0  3  0  0  0  0  0  0
  186.3070  178.0490  142.9820 C   0  0  0  0  0  3  0  0  0  0  0  0
  186.5980  177.0130  145.2060 C   0  0  0  0  0  2  0  0  0  0  0  0
  182.9750  179.1620  144.3730 O   0  0  0  0  0  0  0  0  0  0  0  0
  182.2250  179.1090  143.2630 O   0  0  0  0  0  1  0  0  0  0  0  0
  189.0270  178.1480  142.4060 C   0  0  0  0  0  2  0  0  0  0  0  0
  188.6780  177.7070  139.9360 C   0  0  0  0  0  0  0  0  0  0  0  0
  187.8220  178.6270  139.8530 O   0  0  0  0  0  0  0  0  0  0  0  0
  189.3420  177.4390  141.1730 N   0  0  0  0  0  2  0  0  0  0  0  0
  188.9730  176.8650  138.7470 C   0  0  0  0  0  2  0  0  0  0  0  0
  190.2950  177.2920  138.1350 C   0  0  0  0  0  2  0  0  0  0  0  0
  190.9490  175.0190  138.4030 O   0  0  0  0  0  0  0  0  0  0  0  0
  192.6920  176.5540  138.3760 N   0  0  0  0  0  1  0  0  0  0  0  0
  191.3100  176.2210  138.3220 C   0  0  0  0  0  0  0  0  0  0  0  0
  1 18  1  6  0  0  0
  1  9  1  0  0  0  0
  1  2  1  0  0  0  0
  2  3  1  0  0  0  0
  3  4  2  0  0  0  0
  5  2  2  0  0  0  0
  5  6  1  0  0  0  0
  6  7  2  0  0  0  0
  7  4  1  0  0  0  0
  7  8  1  0  0  0  0
  9 15  1  0  0  0  0
 10 13  2  0  0  0  0
 11 12  2  0  0  0  0
 12 16  1  0  0  0  0
 12 10  1  0  0  0  0
 14 11  1  0  0  0  0
 14  9  2  0  0  0  0
 15 13  1  0  0  0  0
 17 16  1  0  0  0  0
 19 21  1  0  0  0  0
 20 19  2  0  0  0  0
 21 18  1  0  0  0  0
 22 19  1  0  0  0  0
 23 26  1  0  0  0  0
 23 22  1  0  0  0  0
 26 25  1  0  0  0  0
 26 24  2  0  0  0  0
M  END
>  <MODEL>
2

>  <REMARK>
 VINA RESULT:      -8.1      2.093      7.021
  Name = 
  8 active torsions:
  status: ('A' for Active; 'I' for Inactive)
    1  A    between atoms: C_1  and  C_3
    2  A    between atoms: C_2  and  C_5
    3  A    between atoms: C_3  and  C_10
    4  A    between atoms: C_3  and  C_11
    5  A    between atoms: O_4  and  C_19
    6  A    between atoms: C_5  and  C_20
    7  A    between atoms: C_11  and  N_24
    8  A    between atoms: C_20  and  C_25
                            x       y       z     vdW  Elec       q    Type
                         _______ _______ _______ _____ _____    ______ ____

>  <TORSDO>
F 8

$$$$
=
 OpenBabel11032421303D

 26 27  0  0  1  0  0  0  0  0999 V2000
  188.5580  177.1570  143.7020 C   0  0  1  0  0  3  0  0  0  0  0  0
  189.5080  177.0220  144.8570 C   0  0  0  0  0  0  0  0  0  0  0  0
  189.1140  177.3330  146.1670 C   0  0  0  0  0  3  0  0  0  0  0  0
  190.0220  177.2000  147.2220 C   0  0  0  0  0  3  0  0  0  0  0  0
  190.8120  176.5770  144.6130 C   0  0  0  0  0  3  0  0  0  0  0  0
  191.7190  176.4450  145.6690 C   0  0  0  0  0  3  0  0  0  0  0  0
  191.3240  176.7570  146.9730 C   0  0  0  0  0  0  0  0  0  0  0  0
  192.2240  176.6250  148.0210 O   0  0  0  0  0  1  0  0  0  0  0  0
  187.1630  177.4690  144.1500 C   0  0  0  0  0  0  0  0  0  0  0  0
  185.1480  178.9320  145.9380 C   0  0  0  0  0  3  0  0  0  0  0  0
  184.9200  178.3870  143.5170 C   0  0  0  0  0  3  0  0  0  0  0  0
  184.3800  178.7780  144.6850 C   0  0  0  0  0  0  0  0  0  0  0  0
  186.1970  178.1960  146.3040 C   0  0  0  0  0  3  0  0  0  0  0  0
  186.3230  178.0010  143.2610 C   0  0  0  0  0  3  0  0  0  0  0  0
  186.6960  177.0380  145.5060 C   0  0  0  0  0  2  0  0  0  0  0  0
  183.0310  179.1370  144.7270 O   0  0  0  0  0  0  0  0  0  0  0  0
  182.2700  179.1390  143.6240 O   0  0  0  0  0  1  0  0  0  0  0  0
  189.0500  178.1470  142.6470 C   0  0  0  0  0  2  0  0  0  0  0  0
  190.3770  177.2690  140.6770 C   0  0  0  0  0  0  0  0  0  0  0  0
  191.4700  177.5570  141.2340 O   0  0  0  0  0  0  0  0  0  0  0  0
  189.1350  177.5040  141.3420 N   0  0  0  0  0  2  0  0  0  0  0  0
  190.3780  176.7120  139.2980 C   0  0  0  0  0  2  0  0  0  0  0  0
  189.0280  176.9520  138.6500 C   0  0  0  0  0  2  0  0  0  0  0  0
  189.0000  179.3010  138.2580 O   0  0  0  0  0  0  0  0  0  0  0  0
  189.2990  177.9860  136.3670 N   0  0  0  0  0  1  0  0  0  0  0  0
  189.0940  178.1460  137.7660 C   0  0  0  0  0  0  0  0  0  0  0  0
  1 18  1  6  0  0  0
  1  9  1  0  0  0  0
  1  2  1  0  0  0  0
  2  3  1  0  0  0  0
  3  4  2  0  0  0  0
  5  2  2  0  0  0  0
  5  6  1  0  0  0  0
  6  7  2  0  0  0  0
  7  4  1  0  0  0  0
  7  8  1  0  0  0  0
  9 15  1  0  0  0  0
 10 13  2  0  0  0  0
 11 12  2  0  0  0  0
 12 16  1  0  0  0  0
 12 10  1  0  0  0  0
 14 11  1  0  0  0  0
 14  9  2  0  0  0  0
 15 13  1  0  0  0  0
 17 16  1  0  0  0  0
 19 20  2  0  0  0  0
 19 21  1  0  0  0  0
 21 18  1  0  0  0  0
 22 19  1  0  0  0  0
 23 22  1  0  0  0  0
 25 26  1  0  0  0  0
 26 24  2  0  0  0  0
 26 23  1  0  0  0  0
M  END
>  <MODEL>
3

>  <REMARK>
 VINA RESULT:      -8.1      2.169      6.935
  Name = 
  8 active torsions:
  status: ('A' for Active; 'I' for Inactive)
    1  A    between atoms: C_1  and  C_3
    2  A    between atoms: C_2  and  C_5
    3  A    between atoms: C_3  and  C_10
    4  A    between atoms: C_3  and  C_11
    5  A    between atoms: O_4  and  C_19
    6  A    between atoms: C_5  and  C_20
    7  A    between atoms: C_11  and  N_24
    8  A    between atoms: C_20  and  C_25
                            x       y       z     vdW  Elec       q    Type
                         _______ _______ _______ _____ _____    ______ ____

>  <TORSDO>
F 8

$$$$
=
 OpenBabel11032421303D

 26 27  0  0  1  0  0  0  0  0999 V2000
  189.4400  177.8030  142.0970 C   0  0  1  0  0  3  0  0  0  0  0  0
  187.9680  177.9670  142.3420 C   0  0  0  0  0  0  0  0  0  0  0  0
  187.3270  177.3160  143.4080 C   0  0  0  0  0  3  0  0  0  0  0  0
  185.9540  177.4860  143.6100 C   0  0  0  0  0  3  0  0  0  0  0  0
  187.2240  178.7860  141.4840 C   0  0  0  0  0  3  0  0  0  0  0  0
  185.8520  178.9540  141.6880 C   0  0  0  0  0  3  0  0  0  0  0  0
  185.2160  178.3050  142.7500 C   0  0  0  0  0  0  0  0  0  0  0  0
  183.8540  178.4730  142.9520 O   0  0  0  0  0  1  0  0  0  0  0  0
  190.2000  177.5520  143.3620 C   0  0  0  0  0  0  0  0  0  0  0  0
  190.3560  177.0380  146.3810 C   0  0  0  0  0  3  0  0  0  0  0  0
  191.7740  176.0390  144.5910 C   0  0  0  0  0  3  0  0  0  0  0  0
  191.5360  176.2980  145.8900 C   0  0  0  0  0  0  0  0  0  0  0  0
  189.7370  178.0300  145.7410 C   0  0  0  0  0  3  0  0  0  0  0  0
  190.9650  176.4610  143.4300 C   0  0  0  0  0  3  0  0  0  0  0  0
  190.2200  178.5870  144.4450 C   0  0  0  0  0  2  0  0  0  0  0  0
  192.4030  175.7850  146.8570 O   0  0  0  0  0  0  0  0  0  0  0  0
  192.4820  176.3170  148.0850 O   0  0  0  0  0  1  0  0  0  0  0  0
  189.7460  176.7500  141.0330 C   0  0  0  0  0  2  0  0  0  0  0  0
  189.9990  176.6410  138.5150 C   0  0  0  0  0  0  0  0  0  0  0  0
  190.5610  175.5160  138.5800 O   0  0  0  0  0  0  0  0  0  0  0  0
  189.5360  177.2950  139.6980 N   0  0  0  0  0  2  0  0  0  0  0  0
  189.8480  177.3130  137.1970 C   0  0  0  0  0  2  0  0  0  0  0  0
  189.0970  178.6200  137.3730 C   0  0  0  0  0  2  0  0  0  0  0  0
  187.4490  178.1280  135.7260 O   0  0  0  0  0  0  0  0  0  0  0  0
  186.6190  178.6550  137.8300 N   0  0  0  0  0  1  0  0  0  0  0  0
  187.6900  178.4620  136.9150 C   0  0  0  0  0  0  0  0  0  0  0  0
  1 18  1  6  0  0  0
  1  2  1  0  0  0  0
  1  9  1  0  0  0  0
  2  3  1  0  0  0  0
  3  4  2  0  0  0  0
  5  6  1  0  0  0  0
  5  2  2  0  0  0  0
  6  7  2  0  0  0  0
  7  8  1  0  0  0  0
  7  4  1  0  0  0  0
  9 14  2  0  0  0  0
  9 15  1  0  0  0  0
 11 12  2  0  0  0  0
 12 10  1  0  0  0  0
 12 16  1  0  0  0  0
 13 10  2  0  0  0  0
 14 11  1  0  0  0  0
 15 13  1  0  0  0  0
 16 17  1  0  0  0  0
 19 20  2  0  0  0  0
 19 21  1  0  0  0  0
 21 18  1  0  0  0  0
 22 23  1  0  0  0  0
 22 19  1  0  0  0  0
 24 26  2  0  0  0  0
 26 23  1  0  0  0  0
 26 25  1  0  0  0  0
M  END
>  <MODEL>
4

>  <REMARK>
 VINA RESULT:      -7.9      2.381      5.736
  Name = 
  8 active torsions:
  status: ('A' for Active; 'I' for Inactive)
    1  A    between atoms: C_1  and  C_3
    2  A    between atoms: C_2  and  C_5
    3  A    between atoms: C_3  and  C_10
    4  A    between atoms: C_3  and  C_11
    5  A    between atoms: O_4  and  C_19
    6  A    between atoms: C_5  and  C_20
    7  A    between atoms: C_11  and  N_24
    8  A    between atoms: C_20  and  C_25
                            x       y       z     vdW  Elec       q    Type
                         _______ _______ _______ _____ _____    ______ ____

>  <TORSDO>
F 8

$$$$
=
 OpenBabel11032421303D

 26 27  0  0  1  0  0  0  0  0999 V2000
  188.8880  177.6750  144.3940 C   0  0  1  0  0  3  0  0  0  0  0  0
  189.9050  177.2230  145.4020 C   0  0  0  0  0  0  0  0  0  0  0  0
  191.0080  176.4400  145.0270 C   0  0  0  0  0  3  0  0  0  0  0  0
  191.9380  176.0320  145.9880 C   0  0  0  0  0  3  0  0  0  0  0  0
  189.7420  177.5910  146.7420 C   0  0  0  0  0  3  0  0  0  0  0  0
  190.6720  177.1810  147.7020 C   0  0  0  0  0  3  0  0  0  0  0  0
  191.7690  176.4020  147.3250 C   0  0  0  0  0  0  0  0  0  0  0  0
  192.6920  175.9960  148.2780 O   0  0  0  0  0  1  0  0  0  0  0  0
  189.4630  177.7760  143.0150 C   0  0  0  0  0  0  0  0  0  0  0  0
  191.6760  177.2770  140.9520 C   0  0  0  0  0  3  0  0  0  0  0  0
  189.2120  177.1770  140.5950 C   0  0  0  0  0  3  0  0  0  0  0  0
  190.4640  177.2320  140.1080 C   0  0  0  0  0  0  0  0  0  0  0  0
  191.7730  177.8640  142.1450 C   0  0  0  0  0  3  0  0  0  0  0  0
  188.7980  177.1980  142.0140 C   0  0  0  0  0  3  0  0  0  0  0  0
  190.6590  178.6410  142.7610 C   0  0  0  0  0  2  0  0  0  0  0  0
  190.6620  177.1690  138.7280 O   0  0  0  0  0  0  0  0  0  0  0  0
  191.8370  176.7930  138.2020 O   0  0  0  0  0  1  0  0  0  0  0  0
  187.6170  176.8270  144.4180 C   0  0  0  0  0  2  0  0  0  0  0  0
  185.8060  178.1000  145.6490 C   0  0  0  0  0  0  0  0  0  0  0  0
  186.2980  177.7970  146.7680 O   0  0  0  0  0  0  0  0  0  0  0  0
  186.4340  177.6780  144.4370 N   0  0  0  0  0  2  0  0  0  0  0  0
  184.5370  178.8730  145.5880 C   0  0  0  0  0  2  0  0  0  0  0  0
  184.3900  179.5050  144.2160 C   0  0  0  0  0  2  0  0  0  0  0  0
  182.1330  178.7480  144.1580 O   0  0  0  0  0  0  0  0  0  0  0  0
  183.2620  178.6520  142.1310 N   0  0  0  0  0  1  0  0  0  0  0  0
  183.2020  178.9410  143.5220 C   0  0  0  0  0  0  0  0  0  0  0  0
  1 18  1  6  0  0  0
  1  2  1  0  0  0  0
  2  5  1  0  0  0  0
  3  2  2  0  0  0  0
  3  4  1  0  0  0  0
  4  7  2  0  0  0  0
  5  6  2  0  0  0  0
  7  6  1  0  0  0  0
  7  8  1  0  0  0  0
  9  1  1  0  0  0  0
 10 13  2  0  0  0  0
 11 14  1  0  0  0  0
 12 11  2  0  0  0  0
 12 10  1  0  0  0  0
 13 15  1  0  0  0  0
 14  9  2  0  0  0  0
 15  9  1  0  0  0  0
 16 12  1  0  0  0  0
 17 16  1  0  0  0  0
 18 21  1  0  0  0  0
 19 20  2  0  0  0  0
 21 19  1  0  0  0  0
 22 19  1  0  0  0  0
 23 22  1  0  0  0  0
 25 26  1  0  0  0  0
 26 24  2  0  0  0  0
 26 23  1  0  0  0  0
M  END
>  <MODEL>
5

>  <REMARK>
 VINA RESULT:      -7.7      1.826      5.593
  Name = 
  8 active torsions:
  status: ('A' for Active; 'I' for Inactive)
    1  A    between atoms: C_1  and  C_3
    2  A    between atoms: C_2  and  C_5
    3  A    between atoms: C_3  and  C_10
    4  A    between atoms: C_3  and  C_11
    5  A    between atoms: O_4  and  C_19
    6  A    between atoms: C_5  and  C_20
    7  A    between atoms: C_11  and  N_24
    8  A    between atoms: C_20  and  C_25
                            x       y       z     vdW  Elec       q    Type
                         _______ _______ _______ _____ _____    ______ ____

>  <TORSDO>
F 8

$$$$
=
 OpenBabel11032421303D

 26 27  0  0  1  0  0  0  0  0999 V2000
  188.2480  177.3860  142.9070 C   0  0  1  0  0  3  0  0  0  0  0  0
  189.2670  177.2040  143.9940 C   0  0  0  0  0  0  0  0  0  0  0  0
  190.4080  176.4100  143.8020 C   0  0  0  0  0  3  0  0  0  0  0  0
  191.3380  176.2570  144.8350 C   0  0  0  0  0  3  0  0  0  0  0  0
  189.0660  177.8400  145.2250 C   0  0  0  0  0  3  0  0  0  0  0  0
  189.9960  177.6850  146.2560 C   0  0  0  0  0  3  0  0  0  0  0  0
  191.1320  176.8930  146.0620 C   0  0  0  0  0  0  0  0  0  0  0  0
  192.0550  176.7400  147.0860 O   0  0  0  0  0  1  0  0  0  0  0  0
  186.8770  177.6410  143.4520 C   0  0  0  0  0  0  0  0  0  0  0  0
  184.9430  178.9590  145.4320 C   0  0  0  0  0  3  0  0  0  0  0  0
  184.5800  178.5350  143.0030 C   0  0  0  0  0  3  0  0  0  0  0  0
  184.1040  178.8520  144.2200 C   0  0  0  0  0  0  0  0  0  0  0  0
  186.0270  178.2310  145.6950 C   0  0  0  0  0  3  0  0  0  0  0  0
  185.9730  178.1970  142.6440 C   0  0  0  0  0  3  0  0  0  0  0  0
  186.5010  177.1290  144.8090 C   0  0  0  0  0  2  0  0  0  0  0  0
  182.7530  179.1750  144.3600 O   0  0  0  0  0  0  0  0  0  0  0  0
  181.9260  179.2140  143.3060 O   0  0  0  0  0  1  0  0  0  0  0  0
  188.6590  178.4470  141.8870 C   0  0  0  0  0  2  0  0  0  0  0  0
  188.2480  177.9270  139.4420 C   0  0  0  0  0  0  0  0  0  0  0  0
  187.1990  178.6250  139.4300 O   0  0  0  0  0  0  0  0  0  0  0  0
  189.0410  177.8250  140.6260 N   0  0  0  0  0  2  0  0  0  0  0  0
  188.6440  177.1710  138.2250 C   0  0  0  0  0  2  0  0  0  0  0  0
  189.2300  178.1250  137.2000 C   0  0  0  0  0  2  0  0  0  0  0  0
  189.4130  177.4930  134.9120 O   0  0  0  0  0  0  0  0  0  0  0  0
  187.2540  177.9260  135.6490 N   0  0  0  0  0  1  0  0  0  0  0  0
  188.6580  177.8400  135.8570 C   0  0  0  0  0  0  0  0  0  0  0  0
  1 18  1  6  0  0  0
  1  9  1  0  0  0  0
  1  2  1  0  0  0  0
  2  5  1  0  0  0  0
  3  2  2  0  0  0  0
  3  4  1  0  0  0  0
  4  7  2  0  0  0  0
  5  6  2  0  0  0  0
  7  6  1  0  0  0  0
  7  8  1  0  0  0  0
  9 15  1  0  0  0  0
 10 13  2  0  0  0  0
 11 12  2  0  0  0  0
 12 16  1  0  0  0  0
 12 10  1  0  0  0  0
 14 11  1  0  0  0  0
 14  9  2  0  0  0  0
 15 13  1  0  0  0  0
 17 16  1  0  0  0  0
 19 21  1  0  0  0  0
 20 19  2  0  0  0  0
 21 18  1  0  0  0  0
 22 19  1  0  0  0  0
 23 22  1  0  0  0  0
 24 26  2  0  0  0  0
 25 26  1  0  0  0  0
 26 23  1  0  0  0  0
M  END
>  <MODEL>
6

>  <REMARK>
 VINA RESULT:      -7.6      2.554      7.045
  Name = 
  8 active torsions:
  status: ('A' for Active; 'I' for Inactive)
    1  A    between atoms: C_1  and  C_3
    2  A    between atoms: C_2  and  C_5
    3  A    between atoms: C_3  and  C_10
    4  A    between atoms: C_3  and  C_11
    5  A    between atoms: O_4  and  C_19
    6  A    between atoms: C_5  and  C_20
    7  A    between atoms: C_11  and  N_24
    8  A    between atoms: C_20  and  C_25
                            x       y       z     vdW  Elec       q    Type
                         _______ _______ _______ _____ _____    ______ ____

>  <TORSDO>
F 8

$$$$
=
 OpenBabel11032421303D

 26 27  0  0  1  0  0  0  0  0999 V2000
  187.4760  177.6400  142.8440 C   0  0  1  0  0  3  0  0  0  0  0  0
  188.0540  177.6370  144.2290 C   0  0  0  0  0  0  0  0  0  0  0  0
  187.2420  177.4610  145.3600 C   0  0  0  0  0  3  0  0  0  0  0  0
  187.8090  177.4640  146.6380 C   0  0  0  0  0  3  0  0  0  0  0  0
  189.4330  177.8160  144.3890 C   0  0  0  0  0  3  0  0  0  0  0  0
  189.9980  177.8200  145.6680 C   0  0  0  0  0  3  0  0  0  0  0  0
  189.1860  177.6450  146.7920 C   0  0  0  0  0  0  0  0  0  0  0  0
  189.7470  177.6480  148.0610 O   0  0  0  0  0  1  0  0  0  0  0  0
  186.1140  178.2630  142.8000 C   0  0  0  0  0  0  0  0  0  0  0  0
  183.3060  178.5720  141.6090 C   0  0  0  0  0  3  0  0  0  0  0  0
  183.9600  178.6670  144.0130 C   0  0  0  0  0  3  0  0  0  0  0  0
  183.0640  178.8840  143.0330 C   0  0  0  0  0  0  0  0  0  0  0  0
  184.4820  178.6420  140.9860 C   0  0  0  0  0  3  0  0  0  0  0  0
  185.3320  178.1370  143.8730 C   0  0  0  0  0  3  0  0  0  0  0  0
  185.7240  179.1350  141.6470 C   0  0  0  0  0  2  0  0  0  0  0  0
  181.7950  179.3650  143.3640 O   0  0  0  0  0  0  0  0  0  0  0  0
  180.8490  178.5610  143.8710 O   0  0  0  0  0  1  0  0  0  0  0  0
  188.4170  178.2630  141.8140 C   0  0  0  0  0  2  0  0  0  0  0  0
  188.7440  177.8000  139.3450 C   0  0  0  0  0  0  0  0  0  0  0  0
  188.7290  179.0300  139.0730 O   0  0  0  0  0  0  0  0  0  0  0  0
  188.6280  177.3520  140.6960 N   0  0  0  0  0  2  0  0  0  0  0  0
  188.8430  176.8040  138.2460 C   0  0  0  0  0  2  0  0  0  0  0  0
  190.1720  176.9650  137.5300 C   0  0  0  0  0  2  0  0  0  0  0  0
  192.0710  176.7160  138.9450 O   0  0  0  0  0  0  0  0  0  0  0  0
  191.2290  174.7400  138.0630 N   0  0  0  0  0  1  0  0  0  0  0  0
  191.2160  176.1540  138.2120 C   0  0  0  0  0  0  0  0  0  0  0  0
  1 18  1  6  0  0  0
  1  2  1  0  0  0  0
  2  5  2  0  0  0  0
  2  3  1  0  0  0  0
  3  4  2  0  0  0  0
  4  7  1  0  0  0  0
  5  6  1  0  0  0  0
  6  7  2  0  0  0  0
  7  8  1  0  0  0  0
  9  1  1  0  0  0  0
  9 14  2  0  0  0  0
 10 12  1  0  0  0  0
 12 16  1  0  0  0  0
 12 11  2  0  0  0  0
 13 10  2  0  0  0  0
 13 15  1  0  0  0  0
 14 11  1  0  0  0  0
 15  9  1  0  0  0  0
 16 17  1  0  0  0  0
 19 21  1  0  0  0  0
 20 19  2  0  0  0  0
 21 18  1  0  0  0  0
 22 19  1  0  0  0  0
 23 26  1  0  0  0  0
 23 22  1  0  0  0  0
 25 26  1  0  0  0  0
 26 24  2  0  0  0  0
M  END
>  <MODEL>
7

>  <REMARK>
 VINA RESULT:      -7.6      2.455      7.724
  Name = 
  8 active torsions:
  status: ('A' for Active; 'I' for Inactive)
    1  A    between atoms: C_1  and  C_3
    2  A    between atoms: C_2  and  C_5
    3  A    between atoms: C_3  and  C_10
    4  A    between atoms: C_3  and  C_11
    5  A    between atoms: O_4  and  C_19
    6  A    between atoms: C_5  and  C_20
    7  A    between atoms: C_11  and  N_24
    8  A    between atoms: C_20  and  C_25
                            x       y       z     vdW  Elec       q    Type
                         _______ _______ _______ _____ _____    ______ ____

>  <TORSDO>
F 8

$$$$
=
 OpenBabel11032421303D

 26 27  0  0  1  0  0  0  0  0999 V2000
  186.6420  178.5720  145.0140 C   0  0  1  0  0  3  0  0  0  0  0  0
  187.6870  177.9140  144.1600 C   0  0  0  0  0  0  0  0  0  0  0  0
  188.9030  178.5530  143.8690 C   0  0  0  0  0  3  0  0  0  0  0  0
  189.8560  177.9160  143.0700 C   0  0  0  0  0  3  0  0  0  0  0  0
  187.4360  176.6370  143.6450 C   0  0  0  0  0  3  0  0  0  0  0  0
  188.3910  176.0020  142.8450 C   0  0  0  0  0  3  0  0  0  0  0  0
  189.6000  176.6410  142.5570 C   0  0  0  0  0  0  0  0  0  0  0  0
  190.5470  176.0100  141.7630 O   0  0  0  0  0  1  0  0  0  0  0  0
  185.3830  178.8520  144.2520 C   0  0  0  0  0  0  0  0  0  0  0  0
  183.3920  178.2800  141.9920 C   0  0  0  0  0  3  0  0  0  0  0  0
  182.8830  178.9950  144.3240 C   0  0  0  0  0  3  0  0  0  0  0  0
  182.5030  178.8070  143.0470 C   0  0  0  0  0  0  0  0  0  0  0  0
  184.7060  178.4870  141.9050 C   0  0  0  0  0  3  0  0  0  0  0  0
  184.2230  178.7700  144.9040 C   0  0  0  0  0  3  0  0  0  0  0  0
  185.4540  179.3670  142.8470 C   0  0  0  0  0  2  0  0  0  0  0  0
  181.1750  179.0460  142.6890 O   0  0  0  0  0  0  0  0  0  0  0  0
  180.8540  179.6110  141.5160 O   0  0  0  0  0  1  0  0  0  0  0  0
  186.3650  177.8030  146.3040 C   0  0  0  0  0  2  0  0  0  0  0  0
  188.4550  177.7760  147.7340 C   0  0  0  0  0  0  0  0  0  0  0  0
  188.1700  178.8930  148.2410 O   0  0  0  0  0  0  0  0  0  0  0  0
  187.5800  177.1600  146.7880 N   0  0  0  0  0  2  0  0  0  0  0  0
  189.7340  177.1090  148.0940 C   0  0  0  0  0  2  0  0  0  0  0  0
  190.5080  176.7730  146.8330 C   0  0  0  0  0  2  0  0  0  0  0  0
  192.2920  175.2510  146.4190 O   0  0  0  0  0  0  0  0  0  0  0  0
  192.4800  176.4880  148.3760 N   0  0  0  0  0  1  0  0  0  0  0  0
  191.7940  176.1150  147.1870 C   0  0  0  0  0  0  0  0  0  0  0  0
  1 18  1  1  0  0  0
  2  1  1  0  0  0  0
  3  2  1  0  0  0  0
  4  3  2  0  0  0  0
  5  2  2  0  0  0  0
  6  5  1  0  0  0  0
  7  6  2  0  0  0  0
  7  4  1  0  0  0  0
  8  7  1  0  0  0  0
  9 14  2  0  0  0  0
  9  1  1  0  0  0  0
 10 12  1  0  0  0  0
 11 14  1  0  0  0  0
 12 11  2  0  0  0  0
 13 10  2  0  0  0  0
 13 15  1  0  0  0  0
 15  9  1  0  0  0  0
 16 12  1  0  0  0  0
 17 16  1  0  0  0  0
 18 21  1  0  0  0  0
 19 22  1  0  0  0  0
 19 20  2  0  0  0  0
 21 19  1  0  0  0  0
 23 26  1  0  0  0  0
 23 22  1  0  0  0  0
 24 26  2  0  0  0  0
 26 25  1  0  0  0  0
M  END
>  <MODEL>
8

>  <REMARK>
 VINA RESULT:      -7.5      2.843      7.159
  Name = 
  8 active torsions:
  status: ('A' for Active; 'I' for Inactive)
    1  A    between atoms: C_1  and  C_3
    2  A    between atoms: C_2  and  C_5
    3  A    between atoms: C_3  and  C_10
    4  A    between atoms: C_3  and  C_11
    5  A    between atoms: O_4  and  C_19
    6  A    between atoms: C_5  and  C_20
    7  A    between atoms: C_11  and  N_24
    8  A    between atoms: C_20  and  C_25
                            x       y       z     vdW  Elec       q    Type
                         _______ _______ _______ _____ _____    ______ ____

>  <TORSDO>
F 8

$$$$
=
 OpenBabel11032421303D

 26 27  0  0  1  0  0  0  0  0999 V2000
  189.2580  177.6570  142.2900 C   0  0  1  0  0  3  0  0  0  0  0  0
  187.8200  177.9300  142.6220 C   0  0  0  0  0  0  0  0  0  0  0  0
  187.2560  177.5060  143.8360 C   0  0  0  0  0  3  0  0  0  0  0  0
  185.9130  177.7730  144.1160 C   0  0  0  0  0  3  0  0  0  0  0  0
  187.0290  178.6200  141.6960 C   0  0  0  0  0  3  0  0  0  0  0  0
  185.6860  178.8850  141.9780 C   0  0  0  0  0  3  0  0  0  0  0  0
  185.1280  178.4610  143.1880 C   0  0  0  0  0  0  0  0  0  0  0  0
  183.7940  178.7250  143.4680 O   0  0  0  0  0  1  0  0  0  0  0  0
  190.0920  177.4480  143.5160 C   0  0  0  0  0  0  0  0  0  0  0  0
  190.4350  177.1200  146.5450 C   0  0  0  0  0  3  0  0  0  0  0  0
  191.6730  175.9350  144.7360 C   0  0  0  0  0  3  0  0  0  0  0  0
  191.5410  176.2880  146.0270 C   0  0  0  0  0  0  0  0  0  0  0  0
  189.8210  178.1000  145.8830 C   0  0  0  0  0  3  0  0  0  0  0  0
  190.8060  176.3250  143.6050 C   0  0  0  0  0  3  0  0  0  0  0  0
  190.2380  178.5470  144.5220 C   0  0  0  0  0  2  0  0  0  0  0  0
  192.4470  175.7930  146.9660 O   0  0  0  0  0  0  0  0  0  0  0  0
  192.6300  176.3930  148.1510 O   0  0  0  0  0  1  0  0  0  0  0  0
  189.4250  176.5160  141.2880 C   0  0  0  0  0  2  0  0  0  0  0  0
  189.8410  176.7790  138.8030 C   0  0  0  0  0  0  0  0  0  0  0  0
  188.7040  176.3160  138.5240 O   0  0  0  0  0  0  0  0  0  0  0  0
  190.2490  176.9380  140.1630 N   0  0  0  0  0  2  0  0  0  0  0  0
  190.7830  177.1290  137.7070 C   0  0  0  0  0  2  0  0  0  0  0  0
  191.7870  176.0070  137.5190 C   0  0  0  0  0  2  0  0  0  0  0  0
  193.5740  176.7570  138.9030 O   0  0  0  0  0  0  0  0  0  0  0  0
  194.0380  176.7050  136.6280 N   0  0  0  0  0  1  0  0  0  0  0  0
  193.1670  176.5180  137.7360 C   0  0  0  0  0  0  0  0  0  0  0  0
  1 18  1  6  0  0  0
  1  2  1  0  0  0  0
  1  9  1  0  0  0  0
  2  3  1  0  0  0  0
  3  4  2  0  0  0  0
  5  6  1  0  0  0  0
  5  2  2  0  0  0  0
  6  7  2  0  0  0  0
  7  8  1  0  0  0  0
  7  4  1  0  0  0  0
  9 14  2  0  0  0  0
  9 15  1  0  0  0  0
 11 12  2  0  0  0  0
 12 10  1  0  0  0  0
 12 16  1  0  0  0  0
 13 10  2  0  0  0  0
 14 11  1  0  0  0  0
 15 13  1  0  0  0  0
 16 17  1  0  0  0  0
 19 21  1  0  0  0  0
 20 19  2  0  0  0  0
 21 18  1  0  0  0  0
 22 19  1  0  0  0  0
 23 22  1  0  0  0  0
 23 26  1  0  0  0  0
 25 26  1  0  0  0  0
 26 24  2  0  0  0  0
M  END
>  <MODEL>
9

>  <REMARK>
 VINA RESULT:      -7.5      2.302      6.452
  Name = 
  8 active torsions:
  status: ('A' for Active; 'I' for Inactive)
    1  A    between atoms: C_1  and  C_3
    2  A    between atoms: C_2  and  C_5
    3  A    between atoms: C_3  and  C_10
    4  A    between atoms: C_3  and  C_11
    5  A    between atoms: O_4  and  C_19
    6  A    between atoms: C_5  and  C_20
    7  A    between atoms: C_11  and  N_24
    8  A    between atoms: C_20  and  C_25
                            x       y       z     vdW  Elec       q    Type
                         _______ _______ _______ _____ _____    ______ ____

>  <TORSDO>
F 8

$$$$
