=
 OpenBabel11042412393D

 43 46  0  0  1  0  0  0  0  0999 V2000
  186.9410  178.4740  140.7100 C   0  0  0  0  0  0  0  0  0  0  0  0
  186.9680  178.2920  142.0300 C   0  0  0  0  0  3  0  0  0  0  0  0
  183.1040  178.8180  140.2110 C   0  0  0  0  0  0  0  0  0  0  0  0
  182.0970  178.7140  141.0300 N   0  0  0  0  0  0  0  0  0  0  0  0
  185.6810  179.0970  138.8060 O   0  0  0  0  0  0  0  0  0  0  0  0
  185.6680  178.7560  140.0200 C   0  0  0  0  0  0  0  0  0  0  0  0
  182.8870  179.1250  138.7640 C   0  0  0  0  0  1  0  0  0  0  0  0
  184.4240  178.6370  140.7410 N   0  0  0  0  0  2  0  0  0  0  0  0
  179.4320  178.7630  143.7490 C   0  0  0  0  0  1  0  0  0  0  0  0
  179.7270  177.5090  141.3480 S   0  0  0  0  0  0  0  0  0  0  0  0
  179.0430  178.8980  142.2940 C   0  0  2  0  0  3  0  0  0  0  0  0
  180.6970  178.8800  140.6500 C   0  0  1  0  0  3  0  0  0  0  0  0
  179.9690  180.2760  141.5610 S   0  0  0  0  0  0  0  0  0  0  0  0
  188.1960  178.0270  142.7070 N   0  0  0  0  0  2  0  0  0  0  0  0
  188.2740  177.2710  143.9440 C   0  0  1  0  0  3  0  0  0  0  0  0
  190.4300  176.8910  145.1050 O   0  0  0  0  0  0  0  0  0  0  0  0
  191.5790  175.7860  143.5940 C   0  0  0  0  0  3  0  0  0  0  0  0
  190.3210  176.0270  143.0700 C   0  0  0  0  0  3  0  0  0  0  0  0
  191.5960  176.3450  144.8630 C   0  0  0  0  0  3  0  0  0  0  0  0
  189.6580  176.7160  144.0610 C   0  0  0  0  0  0  0  0  0  0  0  0
  187.9470  178.1770  145.1330 C   0  0  0  0  0  2  0  0  0  0  0  0
  186.5220  178.0200  145.5460 C   0  0  0  0  0  0  0  0  0  0  0  0
  185.5290  178.8870  144.9950 N   0  0  0  0  0  2  0  0  0  0  0  0
  186.2070  177.1570  146.4070 O   0  0  0  0  0  0  0  0  0  0  0  0
  184.1430  178.8480  145.4320 C   0  0  0  0  0  1  0  0  0  0  0  0
  188.2230  178.3860  139.9220 C   0  0  0  0  0  2  0  0  0  0  0  0
  190.5000  176.8440  138.0290 C   0  0  2  0  0  3  0  0  0  0  0  0
  188.1380  177.0410  137.7570 C   0  0  0  0  0  2  0  0  0  0  0  0
  189.8920  176.6380  139.3990 C   0  0  0  0  0  2  0  0  0  0  0  0
  189.3910  176.5700  137.0460 C   0  0  0  0  0  2  0  0  0  0  0  0
  188.4310  177.0170  139.2600 C   0  0  1  0  0  3  0  0  0  0  0  0
  193.0220  176.4270  137.9060 C   0  0  0  0  0  0  0  0  0  0  0  0
  193.4140  177.1240  138.8760 O   0  0  0  0  0  0  0  0  0  0  0  0
  191.6610  175.9810  137.8510 N   0  0  0  0  0  2  0  0  0  0  0  0
  193.9490  176.0060  136.8300 C   0  0  0  0  0  0  0  0  0  0  0  0
  195.8890  174.6980  135.9230 C   0  0  0  0  0  2  0  0  0  0  0  0
  197.7290  174.3000  137.6020 N   0  0  0  0  0  0  0  0  0  0  0  0
  198.1760  175.2940  138.3980 O   0  0  0  0  0  1  0  0  0  0  0  0
  196.6140  173.6400  138.3090 C   0  0  0  0  0  2  0  0  0  0  0  0
  197.3530  174.9160  136.3140 C   0  0  0  0  0  2  0  0  0  0  0  0
  195.3600  174.5290  138.3730 C   0  0  0  0  0  2  0  0  0  0  0  0
  195.0320  175.0690  137.0520 N   0  0  0  0  0  0  0  0  0  0  0  0
  193.8050  176.5250  135.6800 O   0  0  0  0  0  0  0  0  0  0  0  0
  1  2  2  0  0  0  0
  2 14  1  0  0  0  0
  3  8  1  0  0  0  0
  3  4  2  0  0  0  0
  5  6  2  0  0  0  0
  6  1  1  0  0  0  0
  6  8  1  0  0  0  0
  7  3  1  0  0  0  0
 10 11  1  0  0  0  0
 11  9  1  1  0  0  0
 12  4  1  1  0  0  0
 12 10  1  0  0  0  0
 12 13  1  0  0  0  0
 13 11  1  0  0  0  0
 14 15  1  0  0  0  0
 15 20  1  0  0  0  0
 15 21  1  1  0  0  0
 17 19  2  0  0  0  0
 18 17  1  0  0  0  0
 18 20  2  0  0  0  0
 19 16  1  0  0  0  0
 20 16  1  0  0  0  0
 21 22  1  0  0  0  0
 22 24  2  0  0  0  0
 23 25  1  0  0  0  0
 23 22  1  0  0  0  0
 26  1  1  0  0  0  0
 27 34  1  6  0  0  0
 27 29  1  0  0  0  0
 28 31  1  0  0  0  0
 30 28  1  0  0  0  0
 30 27  1  0  0  0  0
 31 29  1  0  0  0  0
 31 26  1  6  0  0  0
 32 33  2  0  0  0  0
 34 32  1  0  0  0  0
 35 42  1  0  0  0  0
 35 32  1  0  0  0  0
 36 40  1  0  0  0  0
 36 42  1  0  0  0  0
 37 39  1  0  0  0  0
 37 38  1  0  0  0  0
 39 41  1  0  0  0  0
 40 37  1  0  0  0  0
 42 41  1  0  0  0  0
 43 35  2  0  0  0  0
M  END
>  <MODEL>
1

>  <REMARK>
 VINA RESULT:      -8.2      0.000      0.000
  Name = 
  11 active torsions:
  status: ('A' for Active; 'I' for Inactive)
    1  A    between atoms: C_1  and  C_11
    2  A    between atoms: C_6  and  C_23
    3  A    between atoms: C_7  and  C_11
    4  A    between atoms: C_7  and  N_13
    5  A    between atoms: C_7  and  C_38
    6  A    between atoms: C_8  and  N_40
    7  A    between atoms: N_10  and  C_24
    8  A    between atoms: N_13  and  C_43
    9  A    between atoms: C_17  and  C_32
   10  A    between atoms: C_17  and  C_37
   11  A    between atoms: C_36  and  C_37
                            x       y       z     vdW  Elec       q    Type
                         _______ _______ _______ _____ _____    ______ ____

>  <TORSDO>
F 11

$$$$
=
 OpenBabel11042412393D

 43 46  0  0  1  0  0  0  0  0999 V2000
  186.4230  178.3650  141.4590 C   0  0  0  0  0  0  0  0  0  0  0  0
  186.2980  177.8680  142.6900 C   0  0  0  0  0  3  0  0  0  0  0  0
  182.8750  178.0270  139.9150 C   0  0  0  0  0  0  0  0  0  0  0  0
  181.9300  177.1430  140.0620 N   0  0  0  0  0  0  0  0  0  0  0  0
  185.2170  179.8150  140.0300 O   0  0  0  0  0  0  0  0  0  0  0  0
  185.2270  178.7330  140.6780 C   0  0  0  0  0  0  0  0  0  0  0  0
  182.6950  179.1950  138.9980 C   0  0  0  0  0  1  0  0  0  0  0  0
  184.0860  177.8500  140.6610 N   0  0  0  0  0  2  0  0  0  0  0  0
  179.4980  174.2500  140.5240 C   0  0  0  0  0  1  0  0  0  0  0  0
  180.4370  175.6710  138.3970 S   0  0  0  0  0  0  0  0  0  0  0  0
  179.1360  175.4200  139.6360 C   0  0  2  0  0  3  0  0  0  0  0  0
  180.6390  177.1850  139.3840 C   0  0  1  0  0  3  0  0  0  0  0  0
  179.2970  176.9550  140.5900 S   0  0  0  0  0  0  0  0  0  0  0  0
  187.4510  177.5170  143.4560 N   0  0  0  0  0  2  0  0  0  0  0  0
  187.4400  177.4130  144.9040 C   0  0  1  0  0  3  0  0  0  0  0  0
  189.1860  176.9040  146.5870 O   0  0  0  0  0  0  0  0  0  0  0  0
  191.0340  177.2740  145.4590 C   0  0  0  0  0  3  0  0  0  0  0  0
  189.9710  177.4900  144.6020 C   0  0  0  0  0  3  0  0  0  0  0  0
  190.4920  176.9120  146.6840 C   0  0  0  0  0  3  0  0  0  0  0  0
  188.8510  177.2420  145.3660 C   0  0  0  0  0  0  0  0  0  0  0  0
  186.8150  178.6700  145.5140 C   0  0  0  0  0  2  0  0  0  0  0  0
  185.3410  178.5070  145.6750 C   0  0  0  0  0  0  0  0  0  0  0  0
  184.4670  178.9290  144.6270 N   0  0  0  0  0  2  0  0  0  0  0  0
  184.8720  178.0410  146.7460 O   0  0  0  0  0  0  0  0  0  0  0  0
  183.0200  178.8880  144.7660 C   0  0  0  0  0  1  0  0  0  0  0  0
  187.7970  178.5450  140.8660 C   0  0  0  0  0  2  0  0  0  0  0  0
  190.3990  177.3390  139.1570 C   0  0  2  0  0  3  0  0  0  0  0  0
  188.4170  178.4280  138.3950 C   0  0  0  0  0  2  0  0  0  0  0  0
  189.2560  176.7640  139.9650 C   0  0  0  0  0  2  0  0  0  0  0  0
  189.7680  177.9290  137.9220 C   0  0  0  0  0  2  0  0  0  0  0  0
  188.0560  177.6380  139.6560 C   0  0  1  0  0  3  0  0  0  0  0  0
  192.7770  176.5610  138.6240 C   0  0  0  0  0  0  0  0  0  0  0  0
  193.4350  177.2790  139.4190 O   0  0  0  0  0  0  0  0  0  0  0  0
  191.3890  176.3080  138.8690 N   0  0  0  0  0  2  0  0  0  0  0  0
  193.4170  175.9200  137.4510 C   0  0  0  0  0  0  0  0  0  0  0  0
  195.0890  174.4020  136.3570 C   0  0  0  0  0  2  0  0  0  0  0  0
  197.2890  174.2510  137.5830 N   0  0  0  0  0  0  0  0  0  0  0  0
  197.9060  175.3560  138.0490 O   0  0  0  0  0  1  0  0  0  0  0  0
  196.3880  173.7690  138.6480 C   0  0  0  0  0  2  0  0  0  0  0  0
  196.6020  174.6360  136.3330 C   0  0  0  0  0  2  0  0  0  0  0  0
  195.1790  174.6980  138.8500 C   0  0  0  0  0  2  0  0  0  0  0  0
  194.5310  175.0010  137.5720 N   0  0  0  0  0  0  0  0  0  0  0  0
  192.9900  176.2270  136.2950 O   0  0  0  0  0  0  0  0  0  0  0  0
  1  2  2  0  0  0  0
  2 14  1  0  0  0  0
  3  4  2  0  0  0  0
  3  8  1  0  0  0  0
  5  6  2  0  0  0  0
  6  1  1  0  0  0  0
  7  3  1  0  0  0  0
  8  6  1  0  0  0  0
 10 12  1  0  0  0  0
 10 11  1  0  0  0  0
 11  9  1  1  0  0  0
 11 13  1  0  0  0  0
 12  4  1  1  0  0  0
 12 13  1  0  0  0  0
 14 15  1  0  0  0  0
 15 20  1  0  0  0  0
 15 21  1  1  0  0  0
 16 19  1  0  0  0  0
 17 19  2  0  0  0  0
 18 20  2  0  0  0  0
 18 17  1  0  0  0  0
 20 16  1  0  0  0  0
 21 22  1  0  0  0  0
 22 24  2  0  0  0  0
 23 25  1  0  0  0  0
 23 22  1  0  0  0  0
 26  1  1  0  0  0  0
 27 34  1  6  0  0  0
 27 29  1  0  0  0  0
 28 31  1  0  0  0  0
 30 28  1  0  0  0  0
 30 27  1  0  0  0  0
 31 29  1  0  0  0  0
 31 26  1  1  0  0  0
 32 34  1  0  0  0  0
 32 33  2  0  0  0  0
 35 42  1  0  0  0  0
 35 32  1  0  0  0  0
 36 42  1  0  0  0  0
 37 38  1  0  0  0  0
 37 39  1  0  0  0  0
 39 41  1  0  0  0  0
 40 36  1  0  0  0  0
 40 37  1  0  0  0  0
 42 41  1  0  0  0  0
 43 35  2  0  0  0  0
M  END
>  <MODEL>
2

>  <REMARK>
 VINA RESULT:      -7.8      1.547      1.799
  Name = 
  11 active torsions:
  status: ('A' for Active; 'I' for Inactive)
    1  A    between atoms: C_1  and  C_11
    2  A    between atoms: C_6  and  C_23
    3  A    between atoms: C_7  and  C_11
    4  A    between atoms: C_7  and  N_13
    5  A    between atoms: C_7  and  C_38
    6  A    between atoms: C_8  and  N_40
    7  A    between atoms: N_10  and  C_24
    8  A    between atoms: N_13  and  C_43
    9  A    between atoms: C_17  and  C_32
   10  A    between atoms: C_17  and  C_37
   11  A    between atoms: C_36  and  C_37
                            x       y       z     vdW  Elec       q    Type
                         _______ _______ _______ _____ _____    ______ ____

>  <TORSDO>
F 11

$$$$
=
 OpenBabel11042412393D

 43 46  0  0  1  0  0  0  0  0999 V2000
  184.4820  178.6150  140.6730 C   0  0  0  0  0  0  0  0  0  0  0  0
  185.4620  179.0470  139.8790 C   0  0  0  0  0  3  0  0  0  0  0  0
  181.4560  180.2080  138.8290 C   0  0  0  0  0  0  0  0  0  0  0  0
  181.3680  180.9800  137.7840 N   0  0  0  0  0  0  0  0  0  0  0  0
  182.1550  178.3620  141.0200 O   0  0  0  0  0  0  0  0  0  0  0  0
  183.0730  178.8980  140.3410 C   0  0  0  0  0  0  0  0  0  0  0  0
  180.2300  179.7720  139.5660 C   0  0  0  0  0  1  0  0  0  0  0  0
  182.7600  179.7840  139.2460 N   0  0  0  0  0  2  0  0  0  0  0  0
  181.2490  184.5380  136.4350 C   0  0  0  0  0  1  0  0  0  0  0  0
  179.6770  183.0350  138.0770 S   0  0  0  0  0  0  0  0  0  0  0  0
  180.0110  183.6680  136.4100 C   0  0  2  0  0  3  0  0  0  0  0  0
  180.1170  181.4870  137.2290 C   0  0  1  0  0  3  0  0  0  0  0  0
  180.3970  182.1190  135.5470 S   0  0  0  0  0  0  0  0  0  0  0  0
  186.8280  178.7710  140.1880 N   0  0  0  0  0  2  0  0  0  0  0  0
  187.6470  177.8550  139.4160 C   0  0  1  0  0  3  0  0  0  0  0  0
  186.2220  177.0700  137.5470 O   0  0  0  0  0  0  0  0  0  0  0  0
  186.9580  178.2780  135.8670 C   0  0  0  0  0  3  0  0  0  0  0  0
  187.6610  178.6590  136.9960 C   0  0  0  0  0  3  0  0  0  0  0  0
  186.0750  177.2850  136.2630 C   0  0  0  0  0  3  0  0  0  0  0  0
  187.1530  177.8690  138.0040 C   0  0  0  0  0  0  0  0  0  0  0  0
  189.1150  178.2800  139.4830 C   0  0  0  0  0  2  0  0  0  0  0  0
  190.0170  177.0960  139.3830 C   0  0  0  0  0  0  0  0  0  0  0  0
  190.6610  176.8030  138.1420 N   0  0  0  0  0  2  0  0  0  0  0  0
  190.1730  176.3370  140.3750 O   0  0  0  0  0  0  0  0  0  0  0  0
  191.4710  175.6100  137.9560 C   0  0  0  0  0  1  0  0  0  0  0  0
  184.8230  177.8350  141.9160 C   0  0  0  0  0  2  0  0  0  0  0  0
  185.2180  177.6490  145.2260 C   0  0  2  0  0  3  0  0  0  0  0  0
  184.1730  179.3220  143.8840 C   0  0  0  0  0  2  0  0  0  0  0  0
  186.1150  177.8560  144.0250 C   0  0  0  0  0  2  0  0  0  0  0  0
  184.3740  178.8930  145.3240 C   0  0  0  0  0  2  0  0  0  0  0  0
  185.3200  178.7220  143.0660 C   0  0  1  0  0  3  0  0  0  0  0  0
  187.0220  178.2730  146.9290 C   0  0  0  0  0  0  0  0  0  0  0  0
  186.7640  179.4910  147.0980 O   0  0  0  0  0  0  0  0  0  0  0  0
  186.0150  177.3920  146.4200 N   0  0  0  0  0  2  0  0  0  0  0  0
  188.3410  177.7040  147.2940 C   0  0  0  0  0  0  0  0  0  0  0  0
  190.7680  177.2190  146.8800 C   0  0  0  0  0  2  0  0  0  0  0  0
  191.3410  176.8730  144.4470 N   0  0  0  0  0  0  0  0  0  0  0  0
  190.5750  176.0990  143.6520 O   0  0  0  0  0  1  0  0  0  0  0  0
  190.8040  178.2460  144.3730 C   0  0  0  0  0  2  0  0  0  0  0  0
  191.3020  176.2760  145.7970 C   0  0  0  0  0  2  0  0  0  0  0  0
  189.4460  178.3760  145.0840 C   0  0  0  0  0  2  0  0  0  0  0  0
  189.5000  177.7970  146.4280 N   0  0  0  0  0  0  0  0  0  0  0  0
  188.4380  177.0770  148.3930 O   0  0  0  0  0  0  0  0  0  0  0  0
  1 26  1  0  0  0  0
  2 14  1  0  0  0  0
  2  1  2  0  0  0  0
  3  8  1  0  0  0  0
  3  7  1  0  0  0  0
  4  3  2  0  0  0  0
  6  1  1  0  0  0  0
  6  5  2  0  0  0  0
  8  6  1  0  0  0  0
 11  9  1  1  0  0  0
 11 10  1  0  0  0  0
 12  4  1  1  0  0  0
 12 10  1  0  0  0  0
 13 11  1  0  0  0  0
 13 12  1  0  0  0  0
 15 21  1  6  0  0  0
 15 14  1  0  0  0  0
 16 20  1  0  0  0  0
 17 19  2  0  0  0  0
 17 18  1  0  0  0  0
 18 20  2  0  0  0  0
 19 16  1  0  0  0  0
 20 15  1  0  0  0  0
 22 21  1  0  0  0  0
 22 24  2  0  0  0  0
 23 22  1  0  0  0  0
 25 23  1  0  0  0  0
 27 30  1  0  0  0  0
 27 34  1  1  0  0  0
 28 30  1  0  0  0  0
 29 27  1  0  0  0  0
 31 26  1  6  0  0  0
 31 28  1  0  0  0  0
 31 29  1  0  0  0  0
 32 33  2  0  0  0  0
 32 35  1  0  0  0  0
 34 32  1  0  0  0  0
 35 43  2  0  0  0  0
 37 40  1  0  0  0  0
 38 37  1  0  0  0  0
 39 37  1  0  0  0  0
 39 41  1  0  0  0  0
 40 36  1  0  0  0  0
 41 42  1  0  0  0  0
 42 36  1  0  0  0  0
 42 35  1  0  0  0  0
M  END
>  <MODEL>
3

>  <REMARK>
 VINA RESULT:      -7.8      3.399      8.103
  Name = 
  11 active torsions:
  status: ('A' for Active; 'I' for Inactive)
    1  A    between atoms: C_1  and  C_11
    2  A    between atoms: C_6  and  C_23
    3  A    between atoms: C_7  and  C_11
    4  A    between atoms: C_7  and  N_13
    5  A    between atoms: C_7  and  C_38
    6  A    between atoms: C_8  and  N_40
    7  A    between atoms: N_10  and  C_24
    8  A    between atoms: N_13  and  C_43
    9  A    between atoms: C_17  and  C_32
   10  A    between atoms: C_17  and  C_37
   11  A    between atoms: C_36  and  C_37
                            x       y       z     vdW  Elec       q    Type
                         _______ _______ _______ _____ _____    ______ ____

>  <TORSDO>
F 11

$$$$
=
 OpenBabel11042412393D

 43 46  0  0  1  0  0  0  0  0999 V2000
  187.7360  177.8210  137.8030 C   0  0  0  0  0  0  0  0  0  0  0  0
  186.4330  178.0990  137.7550 C   0  0  0  0  0  3  0  0  0  0  0  0
  190.5570  176.0430  135.8110 C   0  0  0  0  0  0  0  0  0  0  0  0
  191.8370  175.9160  136.0180 N   0  0  0  0  0  0  0  0  0  0  0  0
  187.6410  176.4740  135.8600 O   0  0  0  0  0  0  0  0  0  0  0  0
  188.3610  176.9880  136.7590 C   0  0  0  0  0  0  0  0  0  0  0  0
  189.9120  175.4370  134.6050 C   0  0  0  0  0  1  0  0  0  0  0  0
  189.7880  176.7730  136.7750 N   0  0  0  0  0  2  0  0  0  0  0  0
  194.9720  174.3420  137.4980 C   0  0  0  0  0  1  0  0  0  0  0  0
  194.4230  175.8930  135.3260 S   0  0  0  0  0  0  0  0  0  0  0  0
  194.6890  174.2360  136.0160 C   0  0  2  0  0  3  0  0  0  0  0  0
  192.7530  175.1970  135.1390 C   0  0  1  0  0  3  0  0  0  0  0  0
  193.0390  173.5180  135.7800 S   0  0  0  0  0  0  0  0  0  0  0  0
  185.8220  178.9110  138.7570 N   0  0  0  0  0  2  0  0  0  0  0  0
  184.5240  178.6140  139.3360 C   0  0  1  0  0  3  0  0  0  0  0  0
  185.3880  179.6340  141.4230 O   0  0  0  0  0  0  0  0  0  0  0  0
  184.4930  178.3520  142.9660 C   0  0  0  0  0  3  0  0  0  0  0  0
  184.0470  177.9010  141.7370 C   0  0  0  0  0  3  0  0  0  0  0  0
  185.3260  179.4330  142.7170 C   0  0  0  0  0  3  0  0  0  0  0  0
  184.6400  178.7420  140.8220 C   0  0  0  0  0  0  0  0  0  0  0  0
  183.4720  179.5800  138.7870 C   0  0  0  0  0  2  0  0  0  0  0  0
  182.0960  179.0420  138.9940 C   0  0  0  0  0  0  0  0  0  0  0  0
  181.1870  179.7410  139.8460 N   0  0  0  0  0  2  0  0  0  0  0  0
  181.7560  177.9570  138.4550 O   0  0  0  0  0  0  0  0  0  0  0  0
  179.8700  179.2150  140.1650 C   0  0  0  0  0  1  0  0  0  0  0  0
  188.5700  178.3620  138.9360 C   0  0  0  0  0  2  0  0  0  0  0  0
  189.8900  178.3090  142.0020 C   0  0  2  0  0  3  0  0  0  0  0  0
  189.9160  176.6610  140.2770 C   0  0  0  0  0  2  0  0  0  0  0  0
  188.4980  178.2890  141.4070 C   0  0  0  0  0  2  0  0  0  0  0  0
  190.5090  176.9850  141.6340 C   0  0  0  0  0  2  0  0  0  0  0  0
  188.6000  177.4340  140.1590 C   0  0  1  0  0  3  0  0  0  0  0  0
  190.9200  178.3470  144.3440 C   0  0  0  0  0  0  0  0  0  0  0  0
  192.0420  178.8540  144.0910 O   0  0  0  0  0  0  0  0  0  0  0  0
  189.8260  178.5410  143.4400 N   0  0  0  0  0  2  0  0  0  0  0  0
  190.6800  177.5840  145.5920 C   0  0  0  0  0  0  0  0  0  0  0  0
  189.2110  176.5640  147.3520 C   0  0  0  0  0  2  0  0  0  0  0  0
  187.0880  177.8560  147.7870 N   0  0  0  0  0  0  0  0  0  0  0  0
  187.1020  179.1980  147.9200 O   0  0  0  0  0  1  0  0  0  0  0  0
  186.8980  177.5590  146.3530 C   0  0  0  0  0  2  0  0  0  0  0  0
  188.3580  177.3540  148.3490 C   0  0  0  0  0  2  0  0  0  0  0  0
  188.1420  177.9080  145.5180 C   0  0  0  0  0  2  0  0  0  0  0  0
  189.3520  177.3430  146.1190 N   0  0  0  0  0  0  0  0  0  0  0  0
  191.6890  177.1650  146.2390 O   0  0  0  0  0  0  0  0  0  0  0  0
  1 26  1  0  0  0  0
  2  1  2  0  0  0  0
  2 14  1  0  0  0  0
  3  4  2  0  0  0  0
  3  8  1  0  0  0  0
  5  6  2  0  0  0  0
  6  8  1  0  0  0  0
  6  1  1  0  0  0  0
  7  3  1  0  0  0  0
 10 11  1  0  0  0  0
 11  9  1  1  0  0  0
 12 10  1  0  0  0  0
 12 13  1  0  0  0  0
 12  4  1  1  0  0  0
 13 11  1  0  0  0  0
 14 15  1  0  0  0  0
 15 21  1  6  0  0  0
 15 20  1  0  0  0  0
 16 19  1  0  0  0  0
 18 17  1  0  0  0  0
 19 17  2  0  0  0  0
 20 16  1  0  0  0  0
 20 18  2  0  0  0  0
 21 22  1  0  0  0  0
 22 23  1  0  0  0  0
 23 25  1  0  0  0  0
 24 22  2  0  0  0  0
 27 34  1  1  0  0  0
 28 30  1  0  0  0  0
 29 27  1  0  0  0  0
 30 27  1  0  0  0  0
 31 26  1  6  0  0  0
 31 28  1  0  0  0  0
 31 29  1  0  0  0  0
 32 35  1  0  0  0  0
 33 32  2  0  0  0  0
 34 32  1  0  0  0  0
 35 42  1  0  0  0  0
 35 43  2  0  0  0  0
 36 40  1  0  0  0  0
 37 38  1  0  0  0  0
 37 40  1  0  0  0  0
 39 37  1  0  0  0  0
 41 42  1  0  0  0  0
 41 39  1  0  0  0  0
 42 36  1  0  0  0  0
M  END
>  <MODEL>
4

>  <REMARK>
 VINA RESULT:      -7.7      4.360      9.617
  Name = 
  11 active torsions:
  status: ('A' for Active; 'I' for Inactive)
    1  A    between atoms: C_1  and  C_11
    2  A    between atoms: C_6  and  C_23
    3  A    between atoms: C_7  and  C_11
    4  A    between atoms: C_7  and  N_13
    5  A    between atoms: C_7  and  C_38
    6  A    between atoms: C_8  and  N_40
    7  A    between atoms: N_10  and  C_24
    8  A    between atoms: N_13  and  C_43
    9  A    between atoms: C_17  and  C_32
   10  A    between atoms: C_17  and  C_37
   11  A    between atoms: C_36  and  C_37
                            x       y       z     vdW  Elec       q    Type
                         _______ _______ _______ _____ _____    ______ ____

>  <TORSDO>
F 11

$$$$
=
 OpenBabel11042412393D

 43 46  0  0  1  0  0  0  0  0999 V2000
  186.4700  178.4320  141.4620 C   0  0  0  0  0  0  0  0  0  0  0  0
  186.3300  177.8740  142.6640 C   0  0  0  0  0  3  0  0  0  0  0  0
  182.7760  178.4910  140.2620 C   0  0  0  0  0  0  0  0  0  0  0  0
  181.7080  177.8670  140.6690 N   0  0  0  0  0  0  0  0  0  0  0  0
  185.4020  179.7540  139.8150 O   0  0  0  0  0  0  0  0  0  0  0  0
  185.2850  178.8570  140.6930 C   0  0  0  0  0  0  0  0  0  0  0  0
  182.7150  179.4470  139.1140 C   0  0  0  0  0  1  0  0  0  0  0  0
  184.0070  178.2390  140.9520 N   0  0  0  0  0  2  0  0  0  0  0  0
  179.3790  174.8570  140.5330 C   0  0  0  0  0  1  0  0  0  0  0  0
  180.1650  176.7800  138.7690 S   0  0  0  0  0  0  0  0  0  0  0  0
  178.9400  176.1910  139.9700 C   0  0  2  0  0  3  0  0  0  0  0  0
  180.3810  178.0220  140.0810 C   0  0  1  0  0  3  0  0  0  0  0  0
  179.1120  177.4590  141.2570 S   0  0  0  0  0  0  0  0  0  0  0  0
  187.4720  177.4680  143.4190 N   0  0  0  0  0  2  0  0  0  0  0  0
  187.9420  178.1800  144.5930 C   0  0  1  0  0  3  0  0  0  0  0  0
  185.6340  178.7440  145.2950 O   0  0  0  0  0  0  0  0  0  0  0  0
  185.6530  178.1990  147.4220 C   0  0  0  0  0  3  0  0  0  0  0  0
  186.8960  177.8890  146.9000 C   0  0  0  0  0  3  0  0  0  0  0  0
  184.9040  178.7290  146.3830 C   0  0  0  0  0  3  0  0  0  0  0  0
  186.8150  178.2520  145.5730 C   0  0  0  0  0  0  0  0  0  0  0  0
  189.1450  177.4540  145.1980 C   0  0  0  0  0  2  0  0  0  0  0  0
  190.3700  177.6750  144.3750 C   0  0  0  0  0  0  0  0  0  0  0  0
  190.7410  176.7080  143.3900 N   0  0  0  0  0  2  0  0  0  0  0  0
  191.0930  178.6850  144.5790 O   0  0  0  0  0  0  0  0  0  0  0  0
  191.9740  176.8190  142.6280 C   0  0  0  0  0  1  0  0  0  0  0  0
  187.8500  178.6260  140.8890 C   0  0  0  0  0  2  0  0  0  0  0  0
  190.4870  177.4520  139.2110 C   0  0  2  0  0  3  0  0  0  0  0  0
  188.4990  178.5130  138.4250 C   0  0  0  0  0  2  0  0  0  0  0  0
  189.3430  176.8630  140.0070 C   0  0  0  0  0  2  0  0  0  0  0  0
  189.8620  178.0310  137.9680 C   0  0  0  0  0  2  0  0  0  0  0  0
  188.1350  177.7190  139.6830 C   0  0  1  0  0  3  0  0  0  0  0  0
  192.8680  176.7110  138.6380 C   0  0  0  0  0  0  0  0  0  0  0  0
  193.5300  177.4780  139.3830 O   0  0  0  0  0  0  0  0  0  0  0  0
  191.4950  176.4350  138.9350 N   0  0  0  0  0  2  0  0  0  0  0  0
  193.4900  176.0380  137.4740 C   0  0  0  0  0  0  0  0  0  0  0  0
  195.1030  174.4430  136.4010 C   0  0  0  0  0  2  0  0  0  0  0  0
  197.2830  174.2000  137.6490 N   0  0  0  0  0  0  0  0  0  0  0  0
  197.9440  175.2780  138.1170 O   0  0  0  0  0  1  0  0  0  0  0  0
  196.3510  173.7620  138.7080 C   0  0  0  0  0  2  0  0  0  0  0  0
  196.6260  174.6090  136.3920 C   0  0  0  0  0  2  0  0  0  0  0  0
  195.1830  174.7450  138.8940 C   0  0  0  0  0  2  0  0  0  0  0  0
  194.5610  175.0710  137.6090 N   0  0  0  0  0  0  0  0  0  0  0  0
  193.0880  176.3590  136.3130 O   0  0  0  0  0  0  0  0  0  0  0  0
  1  2  2  0  0  0  0
  2 14  1  0  0  0  0
  3  4  2  0  0  0  0
  3  8  1  0  0  0  0
  5  6  2  0  0  0  0
  6  8  1  0  0  0  0
  6  1  1  0  0  0  0
  7  3  1  0  0  0  0
 10 11  1  0  0  0  0
 10 12  1  0  0  0  0
 11  9  1  1  0  0  0
 11 13  1  0  0  0  0
 12  4  1  1  0  0  0
 12 13  1  0  0  0  0
 14 15  1  0  0  0  0
 15 21  1  1  0  0  0
 15 20  1  0  0  0  0
 16 20  1  0  0  0  0
 16 19  1  0  0  0  0
 18 17  1  0  0  0  0
 19 17  2  0  0  0  0
 20 18  2  0  0  0  0
 22 24  2  0  0  0  0
 22 21  1  0  0  0  0
 23 22  1  0  0  0  0
 25 23  1  0  0  0  0
 26  1  1  0  0  0  0
 27 34  1  6  0  0  0
 27 29  1  0  0  0  0
 28 31  1  0  0  0  0
 30 28  1  0  0  0  0
 30 27  1  0  0  0  0
 31 29  1  0  0  0  0
 31 26  1  1  0  0  0
 32 34  1  0  0  0  0
 32 33  2  0  0  0  0
 35 42  1  0  0  0  0
 35 32  1  0  0  0  0
 36 42  1  0  0  0  0
 37 38  1  0  0  0  0
 37 39  1  0  0  0  0
 39 41  1  0  0  0  0
 40 36  1  0  0  0  0
 40 37  1  0  0  0  0
 42 41  1  0  0  0  0
 43 35  2  0  0  0  0
M  END
>  <MODEL>
5

>  <REMARK>
 VINA RESULT:      -7.5      1.442      3.105
  Name = 
  11 active torsions:
  status: ('A' for Active; 'I' for Inactive)
    1  A    between atoms: C_1  and  C_11
    2  A    between atoms: C_6  and  C_23
    3  A    between atoms: C_7  and  C_11
    4  A    between atoms: C_7  and  N_13
    5  A    between atoms: C_7  and  C_38
    6  A    between atoms: C_8  and  N_40
    7  A    between atoms: N_10  and  C_24
    8  A    between atoms: N_13  and  C_43
    9  A    between atoms: C_17  and  C_32
   10  A    between atoms: C_17  and  C_37
   11  A    between atoms: C_36  and  C_37
                            x       y       z     vdW  Elec       q    Type
                         _______ _______ _______ _____ _____    ______ ____

>  <TORSDO>
F 11

$$$$
=
 OpenBabel11042412393D

 43 46  0  0  1  0  0  0  0  0999 V2000
  187.2650  178.2960  140.0400 C   0  0  0  0  0  0  0  0  0  0  0  0
  187.0200  177.8560  138.8050 C   0  0  0  0  0  3  0  0  0  0  0  0
  183.6210  178.6340  141.3460 C   0  0  0  0  0  0  0  0  0  0  0  0
  182.4630  178.5570  140.7550 N   0  0  0  0  0  0  0  0  0  0  0  0
  186.4310  178.5680  142.2380 O   0  0  0  0  0  0  0  0  0  0  0  0
  186.1650  178.4430  141.0110 C   0  0  0  0  0  0  0  0  0  0  0  0
  183.7170  178.9030  142.8130 C   0  0  0  0  0  1  0  0  0  0  0  0
  184.7980  178.4450  140.5480 N   0  0  0  0  0  2  0  0  0  0  0  0
  179.2780  178.5850  138.6700 C   0  0  0  0  0  1  0  0  0  0  0  0
  180.2890  180.1180  140.6830 S   0  0  0  0  0  0  0  0  0  0  0  0
  179.2110  178.7510  140.1720 C   0  0  2  0  0  3  0  0  0  0  0  0
  181.1770  178.7150  141.4260 C   0  0  1  0  0  3  0  0  0  0  0  0
  180.0630  177.3550  140.9580 S   0  0  0  0  0  0  0  0  0  0  0  0
  188.0790  177.7030  137.8610 N   0  0  0  0  0  2  0  0  0  0  0  0
  188.6830  176.4210  137.5460 C   0  0  1  0  0  3  0  0  0  0  0  0
  187.2520  176.0640  135.5550 O   0  0  0  0  0  0  0  0  0  0  0  0
  186.2700  174.1580  136.0290 C   0  0  0  0  0  3  0  0  0  0  0  0
  187.1390  174.4500  137.0650 C   0  0  0  0  0  3  0  0  0  0  0  0
  186.3760  175.1950  135.1140 C   0  0  0  0  0  3  0  0  0  0  0  0
  187.7170  175.6480  136.7060 C   0  0  0  0  0  0  0  0  0  0  0  0
  190.0040  176.6320  136.8030 C   0  0  0  0  0  2  0  0  0  0  0  0
  191.1070  175.8610  137.4480 C   0  0  0  0  0  0  0  0  0  0  0  0
  192.4370  176.3820  137.4270 N   0  0  0  0  0  2  0  0  0  0  0  0
  190.8700  174.7390  137.9670 O   0  0  0  0  0  0  0  0  0  0  0  0
  193.5670  175.6320  137.9500 C   0  0  0  0  0  1  0  0  0  0  0  0
  188.6750  178.6450  140.4380 C   0  0  0  0  0  2  0  0  0  0  0  0
  190.9370  178.3210  142.8720 C   0  0  2  0  0  3  0  0  0  0  0  0
  190.8140  177.2870  140.7260 C   0  0  0  0  0  2  0  0  0  0  0  0
  189.4880  177.9380  142.6640 C   0  0  0  0  0  2  0  0  0  0  0  0
  191.7280  177.4580  141.9230 C   0  0  0  0  0  2  0  0  0  0  0  0
  189.3800  177.5210  141.2100 C   0  0  1  0  0  3  0  0  0  0  0  0
  191.1240  176.9410  145.0180 C   0  0  0  0  0  0  0  0  0  0  0  0
  191.5140  175.8420  144.5480 O   0  0  0  0  0  0  0  0  0  0  0  0
  191.3140  178.1470  144.2700 N   0  0  0  0  0  2  0  0  0  0  0  0
  190.5110  177.0320  146.3640 C   0  0  0  0  0  0  0  0  0  0  0  0
  188.5610  177.1050  147.9410 C   0  0  0  0  0  2  0  0  0  0  0  0
  186.5080  178.2140  146.9800 N   0  0  0  0  0  0  0  0  0  0  0  0
  186.5950  179.3760  146.3010 O   0  0  0  0  0  1  0  0  0  0  0  0
  186.6710  177.1200  146.0010 C   0  0  0  0  0  2  0  0  0  0  0  0
  187.5460  178.2490  148.0290 C   0  0  0  0  0  2  0  0  0  0  0  0
  188.1120  177.0250  145.4710 C   0  0  0  0  0  2  0  0  0  0  0  0
  189.0770  177.0280  146.5730 N   0  0  0  0  0  0  0  0  0  0  0  0
  191.2820  177.1610  147.3650 O   0  0  0  0  0  0  0  0  0  0  0  0
  1 26  1  0  0  0  0
  1  6  1  0  0  0  0
  2  1  2  0  0  0  0
  3  7  1  0  0  0  0
  4  3  2  0  0  0  0
  6  5  2  0  0  0  0
  8  6  1  0  0  0  0
  8  3  1  0  0  0  0
 10 12  1  0  0  0  0
 11  9  1  6  0  0  0
 11 10  1  0  0  0  0
 11 13  1  0  0  0  0
 12  4  1  6  0  0  0
 13 12  1  0  0  0  0
 14  2  1  0  0  0  0
 15 21  1  6  0  0  0
 15 14  1  0  0  0  0
 16 20  1  0  0  0  0
 17 18  1  0  0  0  0
 19 16  1  0  0  0  0
 19 17  2  0  0  0  0
 20 18  2  0  0  0  0
 20 15  1  0  0  0  0
 21 22  1  0  0  0  0
 22 24  2  0  0  0  0
 23 22  1  0  0  0  0
 23 25  1  0  0  0  0
 27 34  1  1  0  0  0
 28 31  1  0  0  0  0
 28 30  1  0  0  0  0
 29 27  1  0  0  0  0
 30 27  1  0  0  0  0
 31 26  1  6  0  0  0
 31 29  1  0  0  0  0
 32 35  1  0  0  0  0
 33 32  2  0  0  0  0
 34 32  1  0  0  0  0
 35 42  1  0  0  0  0
 35 43  2  0  0  0  0
 36 40  1  0  0  0  0
 37 40  1  0  0  0  0
 38 37  1  0  0  0  0
 39 37  1  0  0  0  0
 41 39  1  0  0  0  0
 41 42  1  0  0  0  0
 42 36  1  0  0  0  0
M  END
>  <MODEL>
6

>  <REMARK>
 VINA RESULT:      -7.5      2.521      8.193
  Name = 
  11 active torsions:
  status: ('A' for Active; 'I' for Inactive)
    1  A    between atoms: C_1  and  C_11
    2  A    between atoms: C_6  and  C_23
    3  A    between atoms: C_7  and  C_11
    4  A    between atoms: C_7  and  N_13
    5  A    between atoms: C_7  and  C_38
    6  A    between atoms: C_8  and  N_40
    7  A    between atoms: N_10  and  C_24
    8  A    between atoms: N_13  and  C_43
    9  A    between atoms: C_17  and  C_32
   10  A    between atoms: C_17  and  C_37
   11  A    between atoms: C_36  and  C_37
                            x       y       z     vdW  Elec       q    Type
                         _______ _______ _______ _____ _____    ______ ____

>  <TORSDO>
F 11

$$$$
=
 OpenBabel11042412393D

 43 46  0  0  1  0  0  0  0  0999 V2000
  186.8620  178.4340  140.6340 C   0  0  0  0  0  0  0  0  0  0  0  0
  186.9430  178.0290  141.9010 C   0  0  0  0  0  3  0  0  0  0  0  0
  183.8030  178.2760  138.2440 C   0  0  0  0  0  0  0  0  0  0  0  0
  183.4540  177.4340  137.3150 N   0  0  0  0  0  0  0  0  0  0  0  0
  184.9300  179.7940  140.5070 O   0  0  0  0  0  0  0  0  0  0  0  0
  185.5590  178.8020  140.0490 C   0  0  0  0  0  0  0  0  0  0  0  0
  182.9540  179.4660  138.5580 C   0  0  0  0  0  1  0  0  0  0  0  0
  185.0200  178.0240  138.9590 N   0  0  0  0  0  2  0  0  0  0  0  0
  181.8810  174.2700  135.8950 C   0  0  0  0  0  1  0  0  0  0  0  0
  182.5250  176.7260  134.9060 S   0  0  0  0  0  0  0  0  0  0  0  0
  181.2680  175.6230  135.6110 C   0  0  2  0  0  3  0  0  0  0  0  0
  182.2440  177.5430  136.5060 C   0  0  1  0  0  3  0  0  0  0  0  0
  180.9450  176.4660  137.1850 S   0  0  0  0  0  0  0  0  0  0  0  0
  188.2010  177.6790  142.4780 N   0  0  0  0  0  2  0  0  0  0  0  0
  188.3440  177.2020  143.8410 C   0  0  1  0  0  3  0  0  0  0  0  0
  190.4840  176.8690  145.0460 O   0  0  0  0  0  0  0  0  0  0  0  0
  191.6570  175.7160  143.5900 C   0  0  0  0  0  3  0  0  0  0  0  0
  190.4060  175.9340  143.0410 C   0  0  0  0  0  3  0  0  0  0  0  0
  191.6550  176.3190  144.8390 C   0  0  0  0  0  3  0  0  0  0  0  0
  189.7270  176.6560  143.9980 C   0  0  0  0  0  0  0  0  0  0  0  0
  188.0950  178.3470  144.8250 C   0  0  0  0  0  2  0  0  0  0  0  0
  187.0130  177.9940  145.7900 C   0  0  0  0  0  0  0  0  0  0  0  0
  185.7190  178.5830  145.6440 N   0  0  0  0  0  2  0  0  0  0  0  0
  187.2530  177.2160  146.7500 O   0  0  0  0  0  0  0  0  0  0  0  0
  184.6550  178.3560  146.6080 C   0  0  0  0  0  1  0  0  0  0  0  0
  188.1130  178.5110  139.7970 C   0  0  0  0  0  2  0  0  0  0  0  0
  190.5070  177.0790  137.9630 C   0  0  2  0  0  3  0  0  0  0  0  0
  188.2990  177.7580  137.3680 C   0  0  0  0  0  2  0  0  0  0  0  0
  189.6080  176.6660  139.1090 C   0  0  0  0  0  2  0  0  0  0  0  0
  189.5990  177.2520  136.7740 C   0  0  0  0  0  2  0  0  0  0  0  0
  188.2700  177.3250  138.8360 C   0  0  1  0  0  3  0  0  0  0  0  0
  192.9580  176.3460  137.8950 C   0  0  0  0  0  0  0  0  0  0  0  0
  193.3920  176.9080  138.9330 O   0  0  0  0  0  0  0  0  0  0  0  0
  191.5560  176.0880  137.7550 N   0  0  0  0  0  2  0  0  0  0  0  0
  193.8720  175.8920  136.8210 C   0  0  0  0  0  0  0  0  0  0  0  0
  195.8260  174.5900  135.9380 C   0  0  0  0  0  2  0  0  0  0  0  0
  197.7150  174.3320  137.5920 N   0  0  0  0  0  0  0  0  0  0  0  0
  198.1510  175.3790  138.3220 O   0  0  0  0  0  1  0  0  0  0  0  0
  196.6340  173.6810  138.3590 C   0  0  0  0  0  2  0  0  0  0  0  0
  197.2930  174.8670  136.2820 C   0  0  0  0  0  2  0  0  0  0  0  0
  195.3580  174.5390  138.4060 C   0  0  0  0  0  2  0  0  0  0  0  0
  194.9850  174.9980  137.0660 N   0  0  0  0  0  0  0  0  0  0  0  0
  193.6880  176.3450  135.6490 O   0  0  0  0  0  0  0  0  0  0  0  0
  1  2  2  0  0  0  0
  2 14  1  0  0  0  0
  3  7  1  0  0  0  0
  3  8  1  0  0  0  0
  4  3  2  0  0  0  0
  6  5  2  0  0  0  0
  6  1  1  0  0  0  0
  8  6  1  0  0  0  0
 10 11  1  0  0  0  0
 10 12  1  0  0  0  0
 11  9  1  1  0  0  0
 11 13  1  0  0  0  0
 12 13  1  0  0  0  0
 12  4  1  1  0  0  0
 14 15  1  0  0  0  0
 15 20  1  0  0  0  0
 15 21  1  1  0  0  0
 17 19  2  0  0  0  0
 18 17  1  0  0  0  0
 18 20  2  0  0  0  0
 19 16  1  0  0  0  0
 20 16  1  0  0  0  0
 21 22  1  0  0  0  0
 22 24  2  0  0  0  0
 23 22  1  0  0  0  0
 23 25  1  0  0  0  0
 26  1  1  0  0  0  0
 27 34  1  6  0  0  0
 27 29  1  0  0  0  0
 28 31  1  0  0  0  0
 30 28  1  0  0  0  0
 30 27  1  0  0  0  0
 31 29  1  0  0  0  0
 31 26  1  1  0  0  0
 32 33  2  0  0  0  0
 34 32  1  0  0  0  0
 35 42  1  0  0  0  0
 35 32  1  0  0  0  0
 36 40  1  0  0  0  0
 36 42  1  0  0  0  0
 37 38  1  0  0  0  0
 37 39  1  0  0  0  0
 39 41  1  0  0  0  0
 40 37  1  0  0  0  0
 42 41  1  0  0  0  0
 43 35  2  0  0  0  0
M  END
>  <MODEL>
7

>  <REMARK>
 VINA RESULT:      -7.4      1.965      2.600
  Name = 
  11 active torsions:
  status: ('A' for Active; 'I' for Inactive)
    1  A    between atoms: C_1  and  C_11
    2  A    between atoms: C_6  and  C_23
    3  A    between atoms: C_7  and  C_11
    4  A    between atoms: C_7  and  N_13
    5  A    between atoms: C_7  and  C_38
    6  A    between atoms: C_8  and  N_40
    7  A    between atoms: N_10  and  C_24
    8  A    between atoms: N_13  and  C_43
    9  A    between atoms: C_17  and  C_32
   10  A    between atoms: C_17  and  C_37
   11  A    between atoms: C_36  and  C_37
                            x       y       z     vdW  Elec       q    Type
                         _______ _______ _______ _____ _____    ______ ____

>  <TORSDO>
F 11

$$$$
=
 OpenBabel11042412393D

 43 46  0  0  1  0  0  0  0  0999 V2000
  189.4330  176.8660  138.6100 C   0  0  0  0  0  0  0  0  0  0  0  0
  188.1700  177.1280  138.2750 C   0  0  0  0  0  3  0  0  0  0  0  0
  192.4660  174.7690  137.3870 C   0  0  0  0  0  0  0  0  0  0  0  0
  193.7490  174.8820  137.5790 N   0  0  0  0  0  0  0  0  0  0  0  0
  189.5190  174.8510  137.3730 O   0  0  0  0  0  0  0  0  0  0  0  0
  190.1640  175.7600  137.9620 C   0  0  0  0  0  0  0  0  0  0  0  0
  191.9100  173.6620  136.5500 C   0  0  0  0  0  1  0  0  0  0  0  0
  191.6050  175.7330  138.0080 N   0  0  0  0  0  2  0  0  0  0  0  0
  197.2230  174.8000  139.1350 C   0  0  0  0  0  1  0  0  0  0  0  0
  196.2400  174.9370  136.5980 S   0  0  0  0  0  0  0  0  0  0  0  0
  196.8950  173.9190  137.9500 C   0  0  2  0  0  3  0  0  0  0  0  0
  194.7540  173.9790  137.0260 C   0  0  1  0  0  3  0  0  0  0  0  0
  195.4300  172.9230  138.3440 S   0  0  0  0  0  0  0  0  0  0  0  0
  187.4570  178.2010  138.8910 N   0  0  0  0  0  2  0  0  0  0  0  0
  186.1350  178.6230  138.4670 C   0  0  1  0  0  3  0  0  0  0  0  0
  186.4130  177.9340  136.1030 O   0  0  0  0  0  0  0  0  0  0  0  0
  184.7070  176.5820  135.8130 C   0  0  0  0  0  3  0  0  0  0  0  0
  184.6830  177.0090  137.1280 C   0  0  0  0  0  3  0  0  0  0  0  0
  185.8030  177.1870  135.2160 C   0  0  0  0  0  3  0  0  0  0  0  0
  185.7720  177.8460  137.2420 C   0  0  0  0  0  0  0  0  0  0  0  0
  185.1230  178.3770  139.5870 C   0  0  0  0  0  2  0  0  0  0  0  0
  183.9850  179.3380  139.4970 C   0  0  0  0  0  0  0  0  0  0  0  0
  182.6660  178.9030  139.8330 N   0  0  0  0  0  2  0  0  0  0  0  0
  184.1830  180.5120  139.0860 O   0  0  0  0  0  0  0  0  0  0  0  0
  181.5060  179.7640  139.6700 C   0  0  0  0  0  1  0  0  0  0  0  0
  190.1130  177.7070  139.6590 C   0  0  0  0  0  2  0  0  0  0  0  0
  190.5210  178.3980  142.9000 C   0  0  2  0  0  3  0  0  0  0  0  0
  191.8110  177.0260  141.4360 C   0  0  0  0  0  2  0  0  0  0  0  0
  189.5320  177.6180  142.0610 C   0  0  0  0  0  2  0  0  0  0  0  0
  191.8140  177.6280  142.8270 C   0  0  0  0  0  2  0  0  0  0  0  0
  190.3530  176.9530  140.9740 C   0  0  1  0  0  3  0  0  0  0  0  0
  189.3490  177.5430  145.0080 C   0  0  0  0  0  0  0  0  0  0  0  0
  189.8580  176.3970  145.1010 O   0  0  0  0  0  0  0  0  0  0  0  0
  190.0190  178.5640  144.2590 N   0  0  0  0  0  2  0  0  0  0  0  0
  188.0850  177.8880  145.7000 C   0  0  0  0  0  0  0  0  0  0  0  0
  185.6040  178.2440  145.7960 C   0  0  0  0  0  2  0  0  0  0  0  0
  184.6130  179.1230  143.6470 N   0  0  0  0  0  0  0  0  0  0  0  0
  185.1980  180.1320  142.9700 O   0  0  0  0  0  1  0  0  0  0  0  0
  185.1950  177.8620  143.1450 C   0  0  0  0  0  2  0  0  0  0  0  0
  184.8510  179.3730  145.0830 C   0  0  0  0  0  2  0  0  0  0  0  0
  186.6580  177.6820  143.5860 C   0  0  0  0  0  2  0  0  0  0  0  0
  186.8030  177.9080  145.0250 N   0  0  0  0  0  0  0  0  0  0  0  0
  188.1450  178.2160  146.9250 O   0  0  0  0  0  0  0  0  0  0  0  0
  1 26  1  0  0  0  0
  2  1  2  0  0  0  0
  2 14  1  0  0  0  0
  3  4  2  0  0  0  0
  3  8  1  0  0  0  0
  5  6  2  0  0  0  0
  6  8  1  0  0  0  0
  6  1  1  0  0  0  0
  7  3  1  0  0  0  0
 10 12  1  0  0  0  0
 10 11  1  0  0  0  0
 11 13  1  0  0  0  0
 11  9  1  1  0  0  0
 12  4  1  1  0  0  0
 12 13  1  0  0  0  0
 15 14  1  0  0  0  0
 15 21  1  1  0  0  0
 16 20  1  0  0  0  0
 17 18  1  0  0  0  0
 18 20  2  0  0  0  0
 19 17  2  0  0  0  0
 19 16  1  0  0  0  0
 20 15  1  0  0  0  0
 22 21  1  0  0  0  0
 22 23  1  0  0  0  0
 24 22  2  0  0  0  0
 25 23  1  0  0  0  0
 27 34  1  1  0  0  0
 28 30  1  0  0  0  0
 29 27  1  0  0  0  0
 30 27  1  0  0  0  0
 31 26  1  6  0  0  0
 31 28  1  0  0  0  0
 31 29  1  0  0  0  0
 32 33  2  0  0  0  0
 32 35  1  0  0  0  0
 34 32  1  0  0  0  0
 35 43  2  0  0  0  0
 37 40  1  0  0  0  0
 38 37  1  0  0  0  0
 39 41  1  0  0  0  0
 39 37  1  0  0  0  0
 40 36  1  0  0  0  0
 41 42  1  0  0  0  0
 42 35  1  0  0  0  0
 42 36  1  0  0  0  0
M  END
>  <MODEL>
8

>  <REMARK>
 VINA RESULT:      -7.3      4.426     10.513
  Name = 
  11 active torsions:
  status: ('A' for Active; 'I' for Inactive)
    1  A    between atoms: C_1  and  C_11
    2  A    between atoms: C_6  and  C_23
    3  A    between atoms: C_7  and  C_11
    4  A    between atoms: C_7  and  N_13
    5  A    between atoms: C_7  and  C_38
    6  A    between atoms: C_8  and  N_40
    7  A    between atoms: N_10  and  C_24
    8  A    between atoms: N_13  and  C_43
    9  A    between atoms: C_17  and  C_32
   10  A    between atoms: C_17  and  C_37
   11  A    between atoms: C_36  and  C_37
                            x       y       z     vdW  Elec       q    Type
                         _______ _______ _______ _____ _____    ______ ____

>  <TORSDO>
F 11

$$$$
=
 OpenBabel11042412393D

 43 46  0  0  1  0  0  0  0  0999 V2000
  190.3040  178.0360  142.3960 C   0  0  0  0  0  0  0  0  0  0  0  0
  190.8760  177.9020  143.5920 C   0  0  0  0  0  3  0  0  0  0  0  0
  190.6920  176.7930  138.7360 C   0  0  0  0  0  0  0  0  0  0  0  0
  189.8660  176.7420  137.7300 N   0  0  0  0  0  0  0  0  0  0  0  0
  192.2040  177.2490  141.2260 O   0  0  0  0  0  0  0  0  0  0  0  0
  190.9730  177.5210  141.1860 C   0  0  0  0  0  0  0  0  0  0  0  0
  192.0990  176.3080  138.5960 C   0  0  0  0  0  1  0  0  0  0  0  0
  190.2130  177.3330  139.9740 N   0  0  0  0  0  2  0  0  0  0  0  0
  187.0540  175.7190  135.3750 C   0  0  0  0  0  1  0  0  0  0  0  0
  189.4100  174.6090  136.1780 S   0  0  0  0  0  0  0  0  0  0  0  0
  188.4990  175.5820  134.9470 C   0  0  2  0  0  3  0  0  0  0  0  0
  190.2000  176.2310  136.4050 C   0  0  1  0  0  3  0  0  0  0  0  0
  189.3220  177.1890  135.1320 S   0  0  0  0  0  0  0  0  0  0  0  0
  190.2320  178.3900  144.7690 N   0  0  0  0  0  2  0  0  0  0  0  0
  189.7300  177.5210  145.8180 C   0  0  1  0  0  3  0  0  0  0  0  0
  191.5820  175.8820  145.6710 O   0  0  0  0  0  0  0  0  0  0  0  0
  192.3340  175.8500  147.7340 C   0  0  0  0  0  3  0  0  0  0  0  0
  191.3050  176.7730  147.6780 C   0  0  0  0  0  3  0  0  0  0  0  0
  192.4670  175.3220  146.4590 C   0  0  0  0  0  3  0  0  0  0  0  0
  190.8830  176.7440  146.3670 C   0  0  0  0  0  0  0  0  0  0  0  0
  189.0640  178.3550  146.9140 C   0  0  0  0  0  2  0  0  0  0  0  0
  187.6760  177.8740  147.1790 C   0  0  0  0  0  0  0  0  0  0  0  0
  186.5670  178.5760  146.6150 N   0  0  0  0  0  2  0  0  0  0  0  0
  187.4860  176.8830  147.9320 O   0  0  0  0  0  0  0  0  0  0  0  0
  185.1920  178.2160  146.9180 C   0  0  0  0  0  1  0  0  0  0  0  0
  188.9660  178.7210  142.2840 C   0  0  0  0  0  2  0  0  0  0  0  0
  185.7150  178.7610  141.5260 C   0  0  2  0  0  3  0  0  0  0  0  0
  186.8510  177.8680  143.4250 C   0  0  0  0  0  2  0  0  0  0  0  0
  186.9560  178.0730  140.9990 C   0  0  0  0  0  2  0  0  0  0  0  0
  185.4650  178.1630  142.8870 C   0  0  0  0  0  2  0  0  0  0  0  0
  187.7890  177.7390  142.2210 C   0  0  1  0  0  3  0  0  0  0  0  0
  184.5320  179.1700  139.2950 C   0  0  0  0  0  0  0  0  0  0  0  0
  185.4980  179.0480  138.5000 O   0  0  0  0  0  0  0  0  0  0  0  0
  184.6030  178.5860  140.6010 N   0  0  0  0  0  2  0  0  0  0  0  0
  183.2860  179.8670  138.8970 C   0  0  0  0  0  0  0  0  0  0  0  0
  180.9050  179.9330  138.1100 C   0  0  0  0  0  2  0  0  0  0  0  0
  180.2870  178.0400  136.5600 N   0  0  0  0  0  0  0  0  0  0  0  0
  181.0970  177.6750  135.5450 O   0  0  0  0  0  1  0  0  0  0  0  0
  180.6880  177.2570  137.7460 C   0  0  0  0  0  2  0  0  0  0  0  0
  180.4280  179.5010  136.7200 C   0  0  0  0  0  2  0  0  0  0  0  0
  182.0500  177.7050  138.3030 C   0  0  0  0  0  2  0  0  0  0  0  0
  182.0960  179.1600  138.4690 N   0  0  0  0  0  0  0  0  0  0  0  0
  183.2860  181.1360  138.8970 O   0  0  0  0  0  0  0  0  0  0  0  0
  1  2  2  0  0  0  0
  2 14  1  0  0  0  0
  3  8  1  0  0  0  0
  4  3  2  0  0  0  0
  6  5  2  0  0  0  0
  6  1  1  0  0  0  0
  7  3  1  0  0  0  0
  8  6  1  0  0  0  0
 10 12  1  0  0  0  0
 11 13  1  0  0  0  0
 11  9  1  1  0  0  0
 11 10  1  0  0  0  0
 12  4  1  1  0  0  0
 13 12  1  0  0  0  0
 14 15  1  0  0  0  0
 15 20  1  0  0  0  0
 15 21  1  1  0  0  0
 16 20  1  0  0  0  0
 16 19  1  0  0  0  0
 18 17  1  0  0  0  0
 19 17  2  0  0  0  0
 20 18  2  0  0  0  0
 21 22  1  0  0  0  0
 22 24  2  0  0  0  0
 23 25  1  0  0  0  0
 23 22  1  0  0  0  0
 26  1  1  0  0  0  0
 27 34  1  6  0  0  0
 27 30  1  0  0  0  0
 29 27  1  0  0  0  0
 29 31  1  0  0  0  0
 30 28  1  0  0  0  0
 31 26  1  1  0  0  0
 31 28  1  0  0  0  0
 32 34  1  0  0  0  0
 33 32  2  0  0  0  0
 35 43  2  0  0  0  0
 35 32  1  0  0  0  0
 36 42  1  0  0  0  0
 37 40  1  0  0  0  0
 37 39  1  0  0  0  0
 38 37  1  0  0  0  0
 39 41  1  0  0  0  0
 40 36  1  0  0  0  0
 41 42  1  0  0  0  0
 42 35  1  0  0  0  0
M  END
>  <MODEL>
9

>  <REMARK>
 VINA RESULT:      -7.2      4.063      9.172
  Name = 
  11 active torsions:
  status: ('A' for Active; 'I' for Inactive)
    1  A    between atoms: C_1  and  C_11
    2  A    between atoms: C_6  and  C_23
    3  A    between atoms: C_7  and  C_11
    4  A    between atoms: C_7  and  N_13
    5  A    between atoms: C_7  and  C_38
    6  A    between atoms: C_8  and  N_40
    7  A    between atoms: N_10  and  C_24
    8  A    between atoms: N_13  and  C_43
    9  A    between atoms: C_17  and  C_32
   10  A    between atoms: C_17  and  C_37
   11  A    between atoms: C_36  and  C_37
                            x       y       z     vdW  Elec       q    Type
                         _______ _______ _______ _____ _____    ______ ____

>  <TORSDO>
F 11

$$$$
