=
 OpenBabel11032419203D

 25 28  0  0  1  0  0  0  0  0999 V2000
  188.1970  177.8740  145.8200 C   0  0  1  0  0  3  0  0  0  0  0  0
  190.0010  176.9900  144.2140 N   0  0  0  0  0  0  0  0  0  0  0  0
  188.6390  177.3590  144.4730 C   0  0  0  0  0  0  0  0  0  0  0  0
  191.7100  178.6930  144.6430 C   0  0  0  0  0  1  0  0  0  0  0  0
  192.0280  177.0170  147.2470 O   0  0  0  0  0  1  0  0  0  0  0  0
  191.1710  177.3280  145.0340 C   0  0  1  0  0  3  0  0  0  0  0  0
  190.9420  176.9650  141.9560 C   0  0  0  0  0  2  0  0  0  0  0  0
  188.6830  176.7060  142.2880 N   0  0  0  0  0  0  0  0  0  0  0  0
  190.2300  177.1460  140.6900 C   0  0  0  0  0  0  0  0  0  0  0  0
  190.7900  177.3590  139.5840 O   0  0  0  0  0  0  0  0  0  0  0  0
  189.7720  176.3100  146.9040 C   0  0  0  0  0  2  0  0  0  0  0  0
  187.8990  177.2280  143.3600 C   0  0  0  0  0  0  0  0  0  0  0  0
  189.9840  176.6830  142.8270 C   0  0  2  0  0  3  0  0  0  0  0  0
  186.8580  178.2690  145.8200 O   0  0  0  0  0  1  0  0  0  0  0  0
  190.8650  177.3190  146.5400 C   0  0  1  0  0  3  0  0  0  0  0  0
  188.7510  177.1190  140.8990 C   0  0  0  0  0  2  0  0  0  0  0  0
  188.4190  176.8920  146.8900 N   0  0  0  0  0  2  0  0  0  0  0  0
  186.5450  177.5550  143.2610 O   0  0  0  0  0  0  0  0  0  0  0  0
  186.0860  178.6030  142.4230 C   0  0  0  0  0  2  0  0  0  0  0  0
  183.7990  178.5920  141.4150 C   0  0  0  0  0  3  0  0  0  0  0  0
  181.8810  178.8890  142.7400 N   0  0  0  0  0  0  0  0  0  0  0  0
  184.0160  178.9340  143.7860 C   0  0  0  0  0  3  0  0  0  0  0  0
  182.4490  178.6810  141.5500 N   0  0  0  0  0  0  0  0  0  0  0  0
  182.6270  179.0180  143.8680 C   0  0  0  0  0  3  0  0  0  0  0  0
  184.6080  178.7260  142.5420 C   0  0  0  0  0  0  0  0  0  0  0  0
  1 14  1  6  0  0  0
  1 17  1  0  0  0  0
  2  3  1  0  0  0  0
  2  6  1  0  0  0  0
  3  1  1  0  0  0  0
  6  4  1  6  0  0  0
  6 15  1  0  0  0  0
  8 13  1  0  0  0  0
  8 12  1  0  0  0  0
  9 16  1  0  0  0  0
  9  7  1  0  0  0  0
 10  9  2  0  0  0  0
 12  3  2  0  0  0  0
 13  7  1  6  0  0  0
 13  2  1  0  0  0  0
 15 11  1  0  0  0  0
 15  5  1  1  0  0  0
 16  8  1  0  0  0  0
 17 11  1  0  0  0  0
 18 12  1  0  0  0  0
 19 25  1  0  0  0  0
 19 18  1  0  0  0  0
 20 23  2  0  0  0  0
 20 25  1  0  0  0  0
 21 24  2  0  0  0  0
 22 24  1  0  0  0  0
 23 21  1  0  0  0  0
 25 22  2  0  0  0  0
M  END
>  <MODEL>
1

>  <REMARK>
 VINA RESULT:      -7.8      0.000      0.000
  Name = 
  3 active torsions:
  status: ('A' for Active; 'I' for Inactive)
    1  A    between atoms: O_6  and  C_17
    2  A    between atoms: O_6  and  C_19
    3  A    between atoms: C_19  and  C_24
                            x       y       z     vdW  Elec       q    Type
                         _______ _______ _______ _____ _____    ______ ____

>  <TORSDO>
F 3

$$$$
=
 OpenBabel11032419203D

 25 28  0  0  1  0  0  0  0  0999 V2000
  190.2000  176.2120  144.1280 C   0  0  1  0  0  3  0  0  0  0  0  0
  188.9480  177.6050  145.8900 N   0  0  0  0  0  0  0  0  0  0  0  0
  189.0510  177.0920  144.5540 C   0  0  0  0  0  0  0  0  0  0  0  0
  188.9800  175.9680  147.7130 C   0  0  0  0  0  1  0  0  0  0  0  0
  191.9410  176.9190  147.8590 O   0  0  0  0  0  1  0  0  0  0  0  0
  189.6930  177.1430  147.0670 C   0  0  1  0  0  3  0  0  0  0  0  0
  186.8100  178.2860  146.8670 C   0  0  0  0  0  2  0  0  0  0  0  0
  187.1150  178.2970  144.5900 N   0  0  0  0  0  0  0  0  0  0  0  0
  185.5160  178.3970  146.1930 C   0  0  0  0  0  0  0  0  0  0  0  0
  184.4140  178.5200  146.7880 O   0  0  0  0  0  0  0  0  0  0  0  0
  191.7110  177.5390  145.5630 C   0  0  0  0  0  2  0  0  0  0  0  0
  187.9840  177.4600  143.8270 C   0  0  0  0  0  0  0  0  0  0  0  0
  187.6880  178.2650  145.8760 C   0  0  2  0  0  3  0  0  0  0  0  0
  190.0470  175.7420  142.8220 O   0  0  0  0  0  1  0  0  0  0  0  0
  191.1370  176.7360  146.7340 C   0  0  1  0  0  3  0  0  0  0  0  0
  185.6700  178.2690  144.7130 C   0  0  0  0  0  2  0  0  0  0  0  0
  191.4960  176.8910  144.2570 N   0  0  0  0  0  2  0  0  0  0  0  0
  187.7530  177.0810  142.5030 O   0  0  0  0  0  0  0  0  0  0  0  0
  188.2590  177.8300  141.4100 C   0  0  0  0  0  2  0  0  0  0  0  0
  187.2310  178.2470  139.1700 C   0  0  0  0  0  3  0  0  0  0  0  0
  185.0480  179.0920  138.9690 N   0  0  0  0  0  0  0  0  0  0  0  0
  185.9490  178.7450  141.1420 C   0  0  0  0  0  3  0  0  0  0  0  0
  186.1780  178.6520  138.4110 N   0  0  0  0  0  0  0  0  0  0  0  0
  184.9000  179.1500  140.3190 C   0  0  0  0  0  3  0  0  0  0  0  0
  187.1320  178.2960  140.5590 C   0  0  0  0  0  0  0  0  0  0  0  0
  1 14  1  6  0  0  0
  1 17  1  0  0  0  0
  1  3  1  0  0  0  0
  2  6  1  0  0  0  0
  3  2  1  0  0  0  0
  6  4  1  6  0  0  0
  8 16  1  0  0  0  0
  8 13  1  0  0  0  0
  9 10  2  0  0  0  0
  9  7  1  0  0  0  0
 11 15  1  0  0  0  0
 12  3  2  0  0  0  0
 12  8  1  0  0  0  0
 13  2  1  0  0  0  0
 13  7  1  1  0  0  0
 15  6  1  0  0  0  0
 15  5  1  1  0  0  0
 16  9  1  0  0  0  0
 17 11  1  0  0  0  0
 18 12  1  0  0  0  0
 19 18  1  0  0  0  0
 20 25  1  0  0  0  0
 21 24  2  0  0  0  0
 23 21  1  0  0  0  0
 23 20  2  0  0  0  0
 24 22  1  0  0  0  0
 25 22  2  0  0  0  0
 25 19  1  0  0  0  0
M  END
>  <MODEL>
2

>  <REMARK>
 VINA RESULT:      -7.8      2.161      4.248
  Name = 
  3 active torsions:
  status: ('A' for Active; 'I' for Inactive)
    1  A    between atoms: O_6  and  C_17
    2  A    between atoms: O_6  and  C_19
    3  A    between atoms: C_19  and  C_24
                            x       y       z     vdW  Elec       q    Type
                         _______ _______ _______ _____ _____    ______ ____

>  <TORSDO>
F 3

$$$$
=
 OpenBabel11032419203D

 25 28  0  0  1  0  0  0  0  0999 V2000
  185.5650  177.8090  144.3860 C   0  0  1  0  0  3  0  0  0  0  0  0
  185.4640  178.7660  142.0010 N   0  0  0  0  0  0  0  0  0  0  0  0
  186.2130  178.1810  143.0750 C   0  0  0  0  0  0  0  0  0  0  0  0
  183.5050  177.5230  141.2120 C   0  0  0  0  0  1  0  0  0  0  0  0
  182.0620  179.6200  143.0050 O   0  0  0  0  0  1  0  0  0  0  0  0
  184.0020  178.7990  141.8680 C   0  0  1  0  0  3  0  0  0  0  0  0
  186.1910  178.6180  139.6690 C   0  0  0  0  0  2  0  0  0  0  0  0
  187.7140  178.4760  141.3840 N   0  0  0  0  0  0  0  0  0  0  0  0
  187.4640  178.1020  139.1620 C   0  0  0  0  0  0  0  0  0  0  0  0
  187.6900  177.8320  137.9540 O   0  0  0  0  0  0  0  0  0  0  0  0
  184.1190  179.8040  144.2050 C   0  0  0  0  0  2  0  0  0  0  0  0
  187.4890  177.9850  142.7060 C   0  0  0  0  0  0  0  0  0  0  0  0
  186.4230  178.8400  140.9540 C   0  0  2  0  0  3  0  0  0  0  0  0
  186.4520  177.1620  145.2480 O   0  0  0  0  0  1  0  0  0  0  0  0
  183.2870  178.9860  143.2150 C   0  0  1  0  0  3  0  0  0  0  0  0
  188.4300  177.8700  140.2770 C   0  0  0  0  0  2  0  0  0  0  0  0
  184.9790  178.9720  145.0650 N   0  0  0  0  0  2  0  0  0  0  0  0
  188.4660  177.3870  143.5020 O   0  0  0  0  0  0  0  0  0  0  0  0
  189.6860  178.0410  143.8120 C   0  0  0  0  0  2  0  0  0  0  0  0
  191.4840  176.9810  145.1860 C   0  0  0  0  0  3  0  0  0  0  0  0
  191.2200  176.6550  147.4980 N   0  0  0  0  0  0  0  0  0  0  0  0
  189.4460  177.6550  146.2690 C   0  0  0  0  0  3  0  0  0  0  0  0
  191.9540  176.5510  146.3870 N   0  0  0  0  0  0  0  0  0  0  0  0
  189.9740  177.1980  147.4760 C   0  0  0  0  0  3  0  0  0  0  0  0
  190.2090  177.5360  145.1090 C   0  0  0  0  0  0  0  0  0  0  0  0
  1 17  1  0  0  0  0
  1 14  1  1  0  0  0
  2  3  1  0  0  0  0
  3  1  1  0  0  0  0
  6  4  1  1  0  0  0
  6  2  1  0  0  0  0
  6 15  1  0  0  0  0
  8 12  1  0  0  0  0
  9  7  1  0  0  0  0
  9 16  1  0  0  0  0
 10  9  2  0  0  0  0
 11 17  1  0  0  0  0
 12  3  2  0  0  0  0
 12 18  1  0  0  0  0
 13  7  1  6  0  0  0
 13  8  1  0  0  0  0
 13  2  1  0  0  0  0
 15  5  1  6  0  0  0
 15 11  1  0  0  0  0
 16  8  1  0  0  0  0
 18 19  1  0  0  0  0
 19 25  1  0  0  0  0
 20 23  1  0  0  0  0
 22 24  2  0  0  0  0
 23 21  2  0  0  0  0
 24 21  1  0  0  0  0
 25 20  2  0  0  0  0
 25 22  1  0  0  0  0
M  END
>  <MODEL>
3

>  <REMARK>
 VINA RESULT:      -7.7      2.196      6.372
  Name = 
  3 active torsions:
  status: ('A' for Active; 'I' for Inactive)
    1  A    between atoms: O_6  and  C_17
    2  A    between atoms: O_6  and  C_19
    3  A    between atoms: C_19  and  C_24
                            x       y       z     vdW  Elec       q    Type
                         _______ _______ _______ _____ _____    ______ ____

>  <TORSDO>
F 3

$$$$
=
 OpenBabel11032419203D

 25 28  0  0  1  0  0  0  0  0999 V2000
  185.3990  179.1870  141.6610 C   0  0  1  0  0  3  0  0  0  0  0  0
  185.8360  177.9170  143.8540 N   0  0  0  0  0  0  0  0  0  0  0  0
  186.2720  178.3430  142.5560 C   0  0  0  0  0  0  0  0  0  0  0  0
  185.1300  179.6680  145.4160 C   0  0  0  0  0  1  0  0  0  0  0  0
  182.3270  178.7150  144.4530 O   0  0  0  0  0  1  0  0  0  0  0  0
  184.7010  178.4510  144.6160 C   0  0  1  0  0  3  0  0  0  0  0  0
  187.4090  177.3110  145.6280 C   0  0  0  0  0  2  0  0  0  0  0  0
  188.0160  177.1520  143.4170 N   0  0  0  0  0  0  0  0  0  0  0  0
  188.8610  177.1630  145.5200 C   0  0  0  0  0  0  0  0  0  0  0  0
  189.6420  177.0840  146.5040 O   0  0  0  0  0  0  0  0  0  0  0  0
  183.4200  177.9490  142.4720 C   0  0  0  0  0  2  0  0  0  0  0  0
  187.5300  177.9330  142.3260 C   0  0  0  0  0  0  0  0  0  0  0  0
  186.9870  177.2640  144.3730 C   0  0  2  0  0  3  0  0  0  0  0  0
  186.0580  179.5720  140.4930 O   0  0  0  0  0  1  0  0  0  0  0  0
  183.5090  178.8280  143.7220 C   0  0  1  0  0  3  0  0  0  0  0  0
  189.2990  177.1940  144.0930 C   0  0  0  0  0  2  0  0  0  0  0  0
  184.1410  178.5110  141.3160 N   0  0  0  0  0  2  0  0  0  0  0  0
  188.2660  178.2270  141.1770 O   0  0  0  0  0  0  0  0  0  0  0  0
  189.0160  177.2360  140.4930 C   0  0  0  0  0  2  0  0  0  0  0  0
  188.9720  178.8800  138.6110 C   0  0  0  0  0  3  0  0  0  0  0  0
  189.2050  178.1840  136.3780 N   0  0  0  0  0  0  0  0  0  0  0  0
  189.2400  176.5450  138.1010 C   0  0  0  0  0  3  0  0  0  0  0  0
  189.0440  179.1550  137.2810 N   0  0  0  0  0  0  0  0  0  0  0  0
  189.3070  176.8810  136.7500 C   0  0  0  0  0  3  0  0  0  0  0  0
  189.0620  177.5570  139.0410 C   0  0  0  0  0  0  0  0  0  0  0  0
  1 14  1  6  0  0  0
  1  3  1  0  0  0  0
  2 13  1  0  0  0  0
  2  6  1  0  0  0  0
  3  2  1  0  0  0  0
  6  4  1  6  0  0  0
  8 16  1  0  0  0  0
  8 13  1  0  0  0  0
  9  7  1  0  0  0  0
  9 10  2  0  0  0  0
 11 15  1  0  0  0  0
 12  3  2  0  0  0  0
 12  8  1  0  0  0  0
 13  7  1  1  0  0  0
 15  5  1  1  0  0  0
 15  6  1  0  0  0  0
 16  9  1  0  0  0  0
 17  1  1  0  0  0  0
 17 11  1  0  0  0  0
 18 12  1  0  0  0  0
 19 18  1  0  0  0  0
 20 25  1  0  0  0  0
 21 24  2  0  0  0  0
 21 23  1  0  0  0  0
 22 25  2  0  0  0  0
 23 20  2  0  0  0  0
 24 22  1  0  0  0  0
 25 19  1  0  0  0  0
M  END
>  <MODEL>
4

>  <REMARK>
 VINA RESULT:      -7.5      2.716      6.313
  Name = 
  3 active torsions:
  status: ('A' for Active; 'I' for Inactive)
    1  A    between atoms: O_6  and  C_17
    2  A    between atoms: O_6  and  C_19
    3  A    between atoms: C_19  and  C_24
                            x       y       z     vdW  Elec       q    Type
                         _______ _______ _______ _____ _____    ______ ____

>  <TORSDO>
F 3

$$$$
=
 OpenBabel11032419203D

 25 28  0  0  1  0  0  0  0  0999 V2000
  190.1020  176.2880  144.0340 C   0  0  1  0  0  3  0  0  0  0  0  0
  188.9490  177.6090  145.9160 N   0  0  0  0  0  0  0  0  0  0  0  0
  188.9770  177.1470  144.5580 C   0  0  0  0  0  0  0  0  0  0  0  0
  189.0850  175.9030  147.6700 C   0  0  0  0  0  1  0  0  0  0  0  0
  192.0490  176.8570  147.6860 O   0  0  0  0  0  1  0  0  0  0  0  0
  189.7600  177.1040  147.0300 C   0  0  1  0  0  3  0  0  0  0  0  0
  186.8690  178.2450  147.0370 C   0  0  0  0  0  2  0  0  0  0  0  0
  187.0460  178.3440  144.7480 N   0  0  0  0  0  0  0  0  0  0  0  0
  185.5390  178.3770  146.4410 C   0  0  0  0  0  0  0  0  0  0  0  0
  184.4720  178.4740  147.1010 O   0  0  0  0  0  0  0  0  0  0  0  0
  191.6900  177.5630  145.4320 C   0  0  0  0  0  2  0  0  0  0  0  0
  187.8710  177.5390  143.9060 C   0  0  0  0  0  0  0  0  0  0  0  0
  187.6900  178.2640  145.9980 C   0  0  2  0  0  3  0  0  0  0  0  0
  189.8760  175.8680  142.7220 O   0  0  0  0  0  1  0  0  0  0  0  0
  191.1840  176.7150  146.6020 C   0  0  1  0  0  3  0  0  0  0  0  0
  185.6090  178.3070  144.9510 C   0  0  0  0  0  2  0  0  0  0  0  0
  191.4020  176.9660  144.1160 N   0  0  0  0  0  2  0  0  0  0  0  0
  187.5670  177.2110  142.5840 O   0  0  0  0  0  0  0  0  0  0  0  0
  187.0460  178.1660  141.6740 C   0  0  0  0  0  2  0  0  0  0  0  0
  187.1860  178.3540  139.1860 C   0  0  0  0  0  3  0  0  0  0  0  0
  189.2320  178.1040  138.0570 N   0  0  0  0  0  0  0  0  0  0  0  0
  189.1930  177.8890  140.4250 C   0  0  0  0  0  3  0  0  0  0  0  0
  187.9170  178.3360  138.0400 N   0  0  0  0  0  0  0  0  0  0  0  0
  189.8960  177.8800  139.2210 C   0  0  0  0  0  3  0  0  0  0  0  0
  187.8200  178.1210  140.4050 C   0  0  0  0  0  0  0  0  0  0  0  0
  1 14  1  6  0  0  0
  1 17  1  0  0  0  0
  1  3  1  0  0  0  0
  2 13  1  0  0  0  0
  2  6  1  0  0  0  0
  3  2  1  0  0  0  0
  6  4  1  6  0  0  0
  8 16  1  0  0  0  0
  8 13  1  0  0  0  0
  9  7  1  0  0  0  0
  9 10  2  0  0  0  0
 11 15  1  0  0  0  0
 12  3  2  0  0  0  0
 12  8  1  0  0  0  0
 13  7  1  1  0  0  0
 15  6  1  0  0  0  0
 15  5  1  1  0  0  0
 16  9  1  0  0  0  0
 17 11  1  0  0  0  0
 18 12  1  0  0  0  0
 19 18  1  0  0  0  0
 20 25  1  0  0  0  0
 21 24  2  0  0  0  0
 23 21  1  0  0  0  0
 23 20  2  0  0  0  0
 24 22  1  0  0  0  0
 25 22  2  0  0  0  0
 25 19  1  0  0  0  0
M  END
>  <MODEL>
5

>  <REMARK>
 VINA RESULT:      -7.4      2.431      4.970
  Name = 
  3 active torsions:
  status: ('A' for Active; 'I' for Inactive)
    1  A    between atoms: O_6  and  C_17
    2  A    between atoms: O_6  and  C_19
    3  A    between atoms: C_19  and  C_24
                            x       y       z     vdW  Elec       q    Type
                         _______ _______ _______ _____ _____    ______ ____

>  <TORSDO>
F 3

$$$$
=
 OpenBabel11032419203D

 25 28  0  0  1  0  0  0  0  0999 V2000
  187.6300  176.9150  143.2270 C   0  0  1  0  0  3  0  0  0  0  0  0
  190.0220  177.2490  144.1130 N   0  0  0  0  0  0  0  0  0  0  0  0
  188.6060  177.2100  144.3400 C   0  0  0  0  0  0  0  0  0  0  0  0
  191.0400  175.2530  143.1200 C   0  0  0  0  0  1  0  0  0  0  0  0
  190.8490  177.0250  140.5670 O   0  0  0  0  0  1  0  0  0  0  0  0
  190.7360  176.7300  142.9400 C   0  0  1  0  0  3  0  0  0  0  0  0
  191.6440  176.8830  145.9080 C   0  0  0  0  0  2  0  0  0  0  0  0
  189.5310  177.6570  146.3760 N   0  0  0  0  0  0  0  0  0  0  0  0
  191.3760  176.7610  147.3410 C   0  0  0  0  0  0  0  0  0  0  0  0
  192.2080  176.3410  148.1860 O   0  0  0  0  0  0  0  0  0  0  0  0
  189.0700  178.1790  141.6680 C   0  0  0  0  0  2  0  0  0  0  0  0
  188.3340  177.4080  145.6400 C   0  0  0  0  0  0  0  0  0  0  0  0
  190.5440  177.4380  145.4210 C   0  0  2  0  0  3  0  0  0  0  0  0
  186.3160  176.8240  143.6890 O   0  0  0  0  0  1  0  0  0  0  0  0
  189.9540  176.9290  141.6320 C   0  0  1  0  0  3  0  0  0  0  0  0
  189.9630  177.1280  147.6560 C   0  0  0  0  0  2  0  0  0  0  0  0
  187.7040  177.9090  142.1480 N   0  0  0  0  0  2  0  0  0  0  0  0
  187.0560  177.3790  146.1990 O   0  0  0  0  0  0  0  0  0  0  0  0
  186.4270  178.5500  146.6960 C   0  0  0  0  0  2  0  0  0  0  0  0
  185.6800  179.7530  144.6360 C   0  0  0  0  0  3  0  0  0  0  0  0
  183.4270  179.7450  143.9690 N   0  0  0  0  0  0  0  0  0  0  0  0
  184.0410  178.5880  145.9540 C   0  0  0  0  0  3  0  0  0  0  0  0
  184.6950  180.1150  143.7720 N   0  0  0  0  0  0  0  0  0  0  0  0
  183.0680  178.9870  145.0380 C   0  0  0  0  0  3  0  0  0  0  0  0
  185.3610  178.9830  145.7540 C   0  0  0  0  0  0  0  0  0  0  0  0
  1 14  1  1  0  0  0
  1  3  1  0  0  0  0
  2  3  1  0  0  0  0
  2 13  1  0  0  0  0
  3 12  2  0  0  0  0
  6  4  1  1  0  0  0
  6  2  1  0  0  0  0
  7  9  1  0  0  0  0
  8 16  1  0  0  0  0
  9 16  1  0  0  0  0
  9 10  2  0  0  0  0
 11 17  1  0  0  0  0
 12 18  1  0  0  0  0
 12  8  1  0  0  0  0
 13  7  1  1  0  0  0
 13  8  1  0  0  0  0
 15  5  1  6  0  0  0
 15 11  1  0  0  0  0
 15  6  1  0  0  0  0
 17  1  1  0  0  0  0
 18 19  1  0  0  0  0
 20 25  1  0  0  0  0
 21 24  2  0  0  0  0
 23 21  1  0  0  0  0
 23 20  2  0  0  0  0
 24 22  1  0  0  0  0
 25 22  2  0  0  0  0
 25 19  1  0  0  0  0
M  END
>  <MODEL>
6

>  <REMARK>
 VINA RESULT:      -7.4      1.590      4.266
  Name = 
  3 active torsions:
  status: ('A' for Active; 'I' for Inactive)
    1  A    between atoms: O_6  and  C_17
    2  A    between atoms: O_6  and  C_19
    3  A    between atoms: C_19  and  C_24
                            x       y       z     vdW  Elec       q    Type
                         _______ _______ _______ _____ _____    ______ ____

>  <TORSDO>
F 3

$$$$
=
 OpenBabel11032419203D

 25 28  0  0  1  0  0  0  0  0999 V2000
  191.6570  177.2000  139.3740 C   0  0  1  0  0  3  0  0  0  0  0  0
  189.1090  177.3010  139.0390 N   0  0  0  0  0  0  0  0  0  0  0  0
  190.2490  177.2870  139.9090 C   0  0  0  0  0  0  0  0  0  0  0  0
  189.0550  179.0400  137.3120 C   0  0  0  0  0  1  0  0  0  0  0  0
  190.0240  176.6500  135.5680 O   0  0  0  0  0  1  0  0  0  0  0  0
  189.1140  177.5480  137.5920 C   0  0  1  0  0  3  0  0  0  0  0  0
  186.9590  178.2530  139.7170 C   0  0  0  0  0  2  0  0  0  0  0  0
  188.4400  177.4650  141.2870 N   0  0  0  0  0  0  0  0  0  0  0  0
  186.5720  178.7260  141.0470 C   0  0  0  0  0  0  0  0  0  0  0  0
  185.5480  179.4180  141.2840 O   0  0  0  0  0  0  0  0  0  0  0  0
  190.8560  175.6890  137.5910 C   0  0  0  0  0  2  0  0  0  0  0  0
  189.8630  177.4160  141.1890 C   0  0  0  0  0  0  0  0  0  0  0  0
  188.0290  177.5040  139.9410 C   0  0  2  0  0  3  0  0  0  0  0  0
  192.6130  177.3050  140.3850 O   0  0  0  0  0  1  0  0  0  0  0  0
  190.3450  176.9510  136.8910 C   0  0  1  0  0  3  0  0  0  0  0  0
  187.5920  178.3440  142.0690 C   0  0  0  0  0  2  0  0  0  0  0  0
  191.8840  175.9670  138.6090 N   0  0  0  0  0  2  0  0  0  0  0  0
  190.7320  177.4900  142.2790 O   0  0  0  0  0  0  0  0  0  0  0  0
  190.6070  178.4960  143.2710 C   0  0  0  0  0  2  0  0  0  0  0  0
  191.6800  177.2980  145.1840 C   0  0  0  0  0  3  0  0  0  0  0  0
  190.4630  176.7530  147.1190 N   0  0  0  0  0  0  0  0  0  0  0  0
  189.3520  177.8780  145.3410 C   0  0  0  0  0  3  0  0  0  0  0  0
  191.6050  176.7520  146.4270 N   0  0  0  0  0  0  0  0  0  0  0  0
  189.3280  177.3040  146.6110 C   0  0  0  0  0  3  0  0  0  0  0  0
  190.5410  177.8670  144.6160 C   0  0  0  0  0  0  0  0  0  0  0  0
  1  3  1  0  0  0  0
  1 14  1  1  0  0  0
  2  3  1  0  0  0  0
  2 13  1  0  0  0  0
  3 12  2  0  0  0  0
  6  4  1  1  0  0  0
  6  2  1  0  0  0  0
  7  9  1  0  0  0  0
  8 16  1  0  0  0  0
  9 10  2  0  0  0  0
  9 16  1  0  0  0  0
 11 17  1  0  0  0  0
 12  8  1  0  0  0  0
 12 18  1  0  0  0  0
 13  7  1  6  0  0  0
 13  8  1  0  0  0  0
 15  5  1  6  0  0  0
 15 11  1  0  0  0  0
 15  6  1  0  0  0  0
 17  1  1  0  0  0  0
 18 19  1  0  0  0  0
 19 25  1  0  0  0  0
 20 23  1  0  0  0  0
 22 24  2  0  0  0  0
 23 21  2  0  0  0  0
 24 21  1  0  0  0  0
 25 20  2  0  0  0  0
 25 22  1  0  0  0  0
M  END
>  <MODEL>
7

>  <REMARK>
 VINA RESULT:      -7.3      3.056      7.064
  Name = 
  3 active torsions:
  status: ('A' for Active; 'I' for Inactive)
    1  A    between atoms: O_6  and  C_17
    2  A    between atoms: O_6  and  C_19
    3  A    between atoms: C_19  and  C_24
                            x       y       z     vdW  Elec       q    Type
                         _______ _______ _______ _____ _____    ______ ____

>  <TORSDO>
F 3

$$$$
=
 OpenBabel11032419203D

 25 28  0  0  1  0  0  0  0  0999 V2000
  186.9880  178.2500  138.6150 C   0  0  1  0  0  3  0  0  0  0  0  0
  189.4000  177.7950  139.3820 N   0  0  0  0  0  0  0  0  0  0  0  0
  188.0570  178.2050  139.6780 C   0  0  0  0  0  0  0  0  0  0  0  0
  189.6830  175.5930  138.3450 C   0  0  0  0  0  1  0  0  0  0  0  0
  189.9470  177.3680  135.8010 O   0  0  0  0  0  1  0  0  0  0  0  0
  189.8560  177.0920  138.1770 C   0  0  1  0  0  3  0  0  0  0  0  0
  190.9030  176.9090  141.0980 C   0  0  0  0  0  2  0  0  0  0  0  0
  189.1700  178.3080  141.6660 N   0  0  0  0  0  0  0  0  0  0  0  0
  190.6770  176.8590  142.5430 C   0  0  0  0  0  0  0  0  0  0  0  0
  191.3710  176.1850  143.3470 O   0  0  0  0  0  0  0  0  0  0  0  0
  188.6800  179.0120  136.9850 C   0  0  0  0  0  2  0  0  0  0  0  0
  187.9230  178.4620  140.9890 C   0  0  0  0  0  0  0  0  0  0  0  0
  190.0150  177.7920  140.6640 C   0  0  2  0  0  3  0  0  0  0  0  0
  185.7360  178.5750  139.1400 O   0  0  0  0  0  1  0  0  0  0  0  0
  189.1180  177.5470  136.9080 C   0  0  1  0  0  3  0  0  0  0  0  0
  189.4700  177.6520  142.9240 C   0  0  0  0  0  2  0  0  0  0  0  0
  187.3230  179.1830  137.5300 N   0  0  0  0  0  2  0  0  0  0  0  0
  186.7290  178.8330  141.6100 O   0  0  0  0  0  0  0  0  0  0  0  0
  185.8560  177.8770  142.1890 C   0  0  0  0  0  2  0  0  0  0  0  0
  184.3500  179.0090  143.8310 C   0  0  0  0  0  3  0  0  0  0  0  0
  184.8310  179.0030  146.1310 N   0  0  0  0  0  0  0  0  0  0  0  0
  186.3330  177.9160  144.6420 C   0  0  0  0  0  3  0  0  0  0  0  0
  184.0430  179.3500  145.1110 N   0  0  0  0  0  0  0  0  0  0  0  0
  185.9720  178.2920  145.9350 C   0  0  0  0  0  3  0  0  0  0  0  0
  185.5150  178.2870  143.5770 C   0  0  0  0  0  0  0  0  0  0  0  0
  1 14  1  1  0  0  0
  1  3  1  0  0  0  0
  2  3  1  0  0  0  0
  2 13  1  0  0  0  0
  3 12  2  0  0  0  0
  6  4  1  1  0  0  0
  6  2  1  0  0  0  0
  7  9  1  0  0  0  0
  8 16  1  0  0  0  0
  9 16  1  0  0  0  0
  9 10  2  0  0  0  0
 11 17  1  0  0  0  0
 12 18  1  0  0  0  0
 12  8  1  0  0  0  0
 13  7  1  1  0  0  0
 13  8  1  0  0  0  0
 15  5  1  6  0  0  0
 15 11  1  0  0  0  0
 15  6  1  0  0  0  0
 17  1  1  0  0  0  0
 18 19  1  0  0  0  0
 19 25  1  0  0  0  0
 20 23  1  0  0  0  0
 22 24  2  0  0  0  0
 23 21  2  0  0  0  0
 24 21  1  0  0  0  0
 25 20  2  0  0  0  0
 25 22  1  0  0  0  0
M  END
>  <MODEL>
8

>  <REMARK>
 VINA RESULT:      -7.2      2.870      5.644
  Name = 
  3 active torsions:
  status: ('A' for Active; 'I' for Inactive)
    1  A    between atoms: O_6  and  C_17
    2  A    between atoms: O_6  and  C_19
    3  A    between atoms: C_19  and  C_24
                            x       y       z     vdW  Elec       q    Type
                         _______ _______ _______ _____ _____    ______ ____

>  <TORSDO>
F 3

$$$$
=
 OpenBabel11032419203D

 25 28  0  0  1  0  0  0  0  0999 V2000
  189.7700  176.2770  143.3210 C   0  0  1  0  0  3  0  0  0  0  0  0
  187.9680  178.1120  143.3160 N   0  0  0  0  0  0  0  0  0  0  0  0
  188.8670  177.2500  142.6040 C   0  0  0  0  0  0  0  0  0  0  0  0
  186.3770  177.0380  144.8390 C   0  0  0  0  0  1  0  0  0  0  0  0
  188.4960  177.9670  146.9230 O   0  0  0  0  0  1  0  0  0  0  0  0
  187.5590  177.9840  144.7200 C   0  0  1  0  0  3  0  0  0  0  0  0
  185.9630  179.0540  142.2770 C   0  0  0  0  0  2  0  0  0  0  0  0
  187.7680  178.4350  140.9960 N   0  0  0  0  0  0  0  0  0  0  0  0
  185.5730  178.9870  140.8680 C   0  0  0  0  0  0  0  0  0  0  0  0
  184.4280  179.2780  140.4340 O   0  0  0  0  0  0  0  0  0  0  0  0
  190.0730  177.9330  145.1290 C   0  0  0  0  0  2  0  0  0  0  0  0
  188.7230  177.4130  141.2790 C   0  0  0  0  0  0  0  0  0  0  0  0
  187.2530  178.7530  142.2680 C   0  0  2  0  0  3  0  0  0  0  0  0
  190.4820  175.4680  142.4340 O   0  0  0  0  0  1  0  0  0  0  0  0
  188.6950  177.4890  145.6280 C   0  0  1  0  0  3  0  0  0  0  0  0
  186.6870  178.4560  140.0280 C   0  0  0  0  0  2  0  0  0  0  0  0
  190.7060  176.9540  144.2280 N   0  0  0  0  0  2  0  0  0  0  0  0
  189.4130  176.6870  140.3070 O   0  0  0  0  0  0  0  0  0  0  0  0
  189.9290  177.3010  139.1370 C   0  0  0  0  0  2  0  0  0  0  0  0
  192.3070  177.4200  139.8950 C   0  0  0  0  0  3  0  0  0  0  0  0
  194.0100  176.2740  138.7510 N   0  0  0  0  0  0  0  0  0  0  0  0
  191.7780  176.1170  137.9440 C   0  0  0  0  0  3  0  0  0  0  0  0
  193.6120  177.0660  139.7490 N   0  0  0  0  0  0  0  0  0  0  0  0
  193.1280  175.7850  137.8400 C   0  0  0  0  0  3  0  0  0  0  0  0
  191.3660  176.9520  138.9810 C   0  0  0  0  0  0  0  0  0  0  0  0
  1 14  1  6  0  0  0
  1 17  1  0  0  0  0
  2  6  1  0  0  0  0
  3  2  1  0  0  0  0
  3  1  1  0  0  0  0
  6  4  1  6  0  0  0
  6 15  1  0  0  0  0
  8 12  1  0  0  0  0
  8 13  1  0  0  0  0
  9  7  1  0  0  0  0
 10  9  2  0  0  0  0
 11 15  1  0  0  0  0
 12  3  2  0  0  0  0
 13  7  1  6  0  0  0
 13  2  1  0  0  0  0
 15  5  1  1  0  0  0
 16  9  1  0  0  0  0
 16  8  1  0  0  0  0
 17 11  1  0  0  0  0
 18 12  1  0  0  0  0
 19 18  1  0  0  0  0
 21 23  2  0  0  0  0
 22 25  1  0  0  0  0
 23 20  1  0  0  0  0
 24 22  2  0  0  0  0
 24 21  1  0  0  0  0
 25 19  1  0  0  0  0
 25 20  2  0  0  0  0
M  END
>  <MODEL>
9

>  <REMARK>
 VINA RESULT:      -7.2      2.666      6.345
  Name = 
  3 active torsions:
  status: ('A' for Active; 'I' for Inactive)
    1  A    between atoms: O_6  and  C_17
    2  A    between atoms: O_6  and  C_19
    3  A    between atoms: C_19  and  C_24
                            x       y       z     vdW  Elec       q    Type
                         _______ _______ _______ _____ _____    ______ ____

>  <TORSDO>
F 3

$$$$
