=
 OpenBabel11042411233D

 57 63  0  0  1  0  0  0  0  0999 V2000
  189.9350  178.0560  139.9870 C   0  0  0  0  0  2  0  0  0  0  0  0
  187.5070  177.0930  146.3590 C   0  0  0  0  0  0  0  0  0  0  0  0
  187.4270  178.1140  140.0350 C   0  0  0  0  0  2  0  0  0  0  0  0
  188.3200  177.3750  145.1490 C   0  0  1  0  0  3  0  0  0  0  0  0
  188.9320  176.2880  142.0490 C   0  0  0  0  0  2  0  0  0  0  0  0
  190.6950  176.8400  140.4710 C   0  0  0  0  0  0  0  0  0  0  0  0
  191.9910  176.5610  139.9350 N   0  0  0  0  0  2  0  0  0  0  0  0
  185.9020  177.9260  144.9350 C   0  0  1  0  0  3  0  0  0  0  0  0
  190.2350  176.0830  141.4230 N   0  0  0  0  0  0  0  0  0  0  0  0
  188.0360  176.9170  147.5300 N   0  0  0  0  0  0  0  0  0  0  0  0
  187.2450  177.9150  144.2380 C   0  0  0  0  0  0  0  0  0  0  0  0
  186.2050  178.2660  142.1330 O   0  0  0  0  0  0  0  0  0  0  0  0
  189.4430  178.3450  145.5670 C   0  0  1  0  0  3  0  0  0  0  0  0
  190.1490  177.7870  146.7790 C   0  0  0  0  0  3  0  0  0  0  0  0
  187.3560  178.0220  142.9010 C   0  0  0  0  0  0  0  0  0  0  0  0
  186.1490  177.2440  146.1570 O   0  0  0  0  0  0  0  0  0  0  0  0
  186.2500  178.7200  140.7800 C   0  0  0  0  0  2  0  0  0  0  0  0
  189.4480  177.1250  147.7100 C   0  0  0  0  0  3  0  0  0  0  0  0
  188.6710  177.7810  142.2010 C   0  0  2  0  0  3  0  0  0  0  0  0
  188.6970  178.4360  140.8120 C   0  0  1  0  0  3  0  0  0  0  0  0
  190.4680  178.5410  144.4670 C   0  0  0  0  0  1  0  0  0  0  0  0
  185.4770  179.3570  145.2670 C   0  0  0  0  0  2  0  0  0  0  0  0
  184.2710  179.8190  144.4650 C   0  0  0  0  0  2  0  0  0  0  0  0
  183.1960  178.7500  144.4570 C   0  0  0  0  0  2  0  0  0  0  0  0
  182.2040  179.0470  143.3480 C   0  0  0  0  0  2  0  0  0  0  0  0
  180.8080  178.6460  143.7930 C   0  0  0  0  0  2  0  0  0  0  0  0
  180.1680  179.0680  140.3110 C   0  0  1  0  0  3  0  0  0  0  0  0
  179.8010  180.2440  142.2040 C   0  0  0  0  0  2  0  0  0  0  0  0
  179.8200  178.8080  142.6510 C   0  0  1  0  0  3  0  0  0  0  0  0
  180.3100  178.0750  141.4420 C   0  0  1  0  0  3  0  0  0  0  0  0
  179.2650  176.6230  141.1230 S   0  0  0  0  0  1  0  0  0  0  0  0
  179.6640  180.2850  140.8070 O   0  0  0  0  0  0  0  0  0  0  0  0
  181.5230  179.2890  139.6570 C   0  0  0  0  0  2  0  0  0  0  0  0
  182.5300  177.7680  136.4030 C   0  0  0  0  0  2  0  0  0  0  0  0
  183.0840  177.6440  139.1660 C   0  0  0  0  0  2  0  0  0  0  0  0
  183.5870  176.6100  138.1660 C   0  0  0  0  0  2  0  0  0  0  0  0
  183.8110  177.2580  136.8790 N   0  0  0  0  0  2  0  0  0  0  0  0
  181.9790  178.8120  137.3770 C   0  0  2  0  0  3  0  0  0  0  0  0
  181.8130  178.2160  138.7160 N   0  0  0  0  0  0  0  0  0  0  0  0
  180.8370  180.1440  135.7530 O   0  0  0  0  0  1  0  0  0  0  0  0
  180.6380  179.2770  136.8240 C   0  0  0  0  0  2  0  0  0  0  0  0
  192.5530  177.3370  138.8470 C   0  0  0  0  0  2  0  0  0  0  0  0
  192.6370  176.4770  137.5990 C   0  0  0  0  0  2  0  0  0  0  0  0
  194.6170  176.0740  136.2260 N   0  0  0  0  0  1  0  0  0  0  0  0
  194.0040  175.8180  137.5220 C   0  0  2  0  0  3  0  0  0  0  0  0
  193.8950  174.3180  137.7980 C   0  0  2  0  0  3  0  0  0  0  0  0
  195.8460  174.7720  139.3310 N   0  0  0  0  0  1  0  0  0  0  0  0
  195.3330  172.6090  138.6690 O   0  0  0  0  0  0  0  0  0  0  0  0
  195.0510  173.8340  138.6160 C   0  0  0  0  0  0  0  0  0  0  0  0
  193.7850  173.5840  136.6060 O   0  0  0  0  0  0  0  0  0  0  0  0
  192.5400  173.1430  136.5880 O   0  0  0  0  0  0  0  0  0  0  0  0
  192.0360  173.5420  135.3450 C   0  0  0  0  0  2  0  0  0  0  0  0
  190.2830  175.0570  135.0300 C   0  0  0  0  0  2  0  0  0  0  0  0
  189.2370  175.5800  135.9810 C   0  0  0  0  0  2  0  0  0  0  0  0
  190.2330  173.5880  136.8460 C   0  0  0  0  0  2  0  0  0  0  0  0
  190.5930  173.6950  135.4350 N   0  0  0  0  0  0  0  0  0  0  0  0
  189.5390  174.8680  137.2670 C   0  0  0  0  0  2  0  0  0  0  0  0
  1  6  1  0  0  0  0
  2 10  2  0  0  0  0
  3 17  1  0  0  0  0
  3 20  1  0  0  0  0
  4 11  1  6  0  0  0
  4 13  1  0  0  0  0
  4  2  1  0  0  0  0
  6  9  2  0  0  0  0
  7  6  1  0  0  0  0
  8 22  1  1  0  0  0
  8 16  1  0  0  0  0
  9  5  1  0  0  0  0
 10 18  1  0  0  0  0
 11  8  1  0  0  0  0
 12 15  1  0  0  0  0
 13 21  1  6  0  0  0
 13 14  1  0  0  0  0
 14 18  2  0  0  0  0
 15 11  2  0  0  0  0
 16  2  1  0  0  0  0
 17 12  1  0  0  0  0
 19  5  1  6  0  0  0
 19 15  1  0  0  0  0
 20  1  1  6  0  0  0
 20 19  1  0  0  0  0
 23 22  1  0  0  0  0
 24 23  1  0  0  0  0
 25 26  1  0  0  0  0
 25 24  1  0  0  0  0
 27 33  1  1  0  0  0
 27 32  1  0  0  0  0
 27 30  1  0  0  0  0
 28 29  1  0  0  0  0
 29 26  1  1  0  0  0
 30 31  1  6  0  0  0
 30 29  1  0  0  0  0
 32 28  1  0  0  0  0
 34 37  1  0  0  0  0
 34 38  1  0  0  0  0
 36 35  1  0  0  0  0
 37 36  1  0  0  0  0
 38 41  1  6  0  0  0
 38 39  1  0  0  0  0
 39 35  1  0  0  0  0
 39 33  1  0  0  0  0
 40 41  1  0  0  0  0
 42  7  1  0  0  0  0
 43 42  1  0  0  0  0
 45 44  1  6  0  0  0
 45 43  1  0  0  0  0
 45 46  1  0  0  0  0
 46 50  1  6  0  0  0
 46 49  1  0  0  0  0
 49 48  2  0  0  0  0
 49 47  1  0  0  0  0
 51 50  1  0  0  0  0
 52 56  1  0  0  0  0
 52 51  1  0  0  0  0
 53 56  1  0  0  0  0
 53 54  1  0  0  0  0
 54 57  1  0  0  0  0
 55 57  1  0  0  0  0
 56 55  1  0  0  0  0
M  END
>  <MODEL>
1

>  <REMARK>
 VINA RESULT:      -7.5      0.000      0.000
  Name = 
  18 active torsions:
  status: ('A' for Active; 'I' for Inactive)
    1  A    between atoms: C_6  and  C_28
    2  A    between atoms: C_10  and  C_14
    3  A    between atoms: C_10  and  C_24
    4  A    between atoms: C_12  and  C_18
    5  A    between atoms: C_12  and  C_20
    6  A    between atoms: C_14  and  C_53
    7  A    between atoms: O_15  and  O_19
    8  A    between atoms: O_15  and  C_23
    9  A    between atoms: C_18  and  C_23
   10  A    between atoms: O_19  and  C_42
   11  A    between atoms: C_20  and  N_30
   12  A    between atoms: C_22  and  C_57
   13  A    between atoms: C_23  and  C_56
   14  A    between atoms: C_24  and  C_57
   15  A    between atoms: C_28  and  N_38
   16  A    between atoms: C_31  and  C_53
   17  A    between atoms: C_35  and  C_41
   18  A    between atoms: C_42  and  N_49
                            x       y       z     vdW  Elec       q    Type
                         _______ _______ _______ _____ _____    ______ ____

>  <TORSDO>
F 18

$$$$
=
 OpenBabel11042411233D

 57 63  0  0  1  0  0  0  0  0999 V2000
  189.7030  178.0620  139.9690 C   0  0  0  0  0  2  0  0  0  0  0  0
  187.5390  177.1010  146.4360 C   0  0  0  0  0  0  0  0  0  0  0  0
  187.1990  178.1020  140.1160 C   0  0  0  0  0  2  0  0  0  0  0  0
  188.3010  177.3850  145.1930 C   0  0  1  0  0  3  0  0  0  0  0  0
  188.7960  176.2940  142.0740 C   0  0  0  0  0  2  0  0  0  0  0  0
  190.4910  176.8530  140.4260 C   0  0  0  0  0  0  0  0  0  0  0  0
  191.7660  176.5820  139.8390 N   0  0  0  0  0  2  0  0  0  0  0  0
  185.8720  177.9180  145.0740 C   0  0  1  0  0  3  0  0  0  0  0  0
  190.0750  176.0960  141.3970 N   0  0  0  0  0  0  0  0  0  0  0  0
  188.1160  176.9320  147.5850 N   0  0  0  0  0  0  0  0  0  0  0  0
  187.1860  177.9140  144.3250 C   0  0  0  0  0  0  0  0  0  0  0  0
  186.0610  178.2520  142.2620 O   0  0  0  0  0  0  0  0  0  0  0  0
  189.4320  178.3650  145.5630 C   0  0  1  0  0  3  0  0  0  0  0  0
  190.1900  177.8150  146.7470 C   0  0  0  0  0  3  0  0  0  0  0  0
  187.2430  178.0190  142.9840 C   0  0  0  0  0  0  0  0  0  0  0  0
  186.1730  177.2410  146.2870 O   0  0  0  0  0  0  0  0  0  0  0  0
  186.0490  178.7020  140.9070 C   0  0  0  0  0  2  0  0  0  0  0  0
  189.5310  177.1500  147.7070 C   0  0  0  0  0  3  0  0  0  0  0  0
  188.5300  177.7850  142.2320 C   0  0  2  0  0  3  0  0  0  0  0  0
  188.4970  178.4360  140.8420 C   0  0  1  0  0  3  0  0  0  0  0  0
  190.4110  178.5640  144.4230 C   0  0  0  0  0  1  0  0  0  0  0  0
  185.4500  179.3470  145.4190 C   0  0  0  0  0  2  0  0  0  0  0  0
  184.2640  179.8300  144.6010 C   0  0  0  0  0  2  0  0  0  0  0  0
  183.1480  178.8040  144.6240 C   0  0  0  0  0  2  0  0  0  0  0  0
  182.3090  178.9490  143.3680 C   0  0  0  0  0  2  0  0  0  0  0  0
  180.8460  178.7150  143.7050 C   0  0  0  0  0  2  0  0  0  0  0  0
  180.5670  179.3660  140.2100 C   0  0  1  0  0  3  0  0  0  0  0  0
  179.9050  180.3630  142.1260 C   0  0  0  0  0  2  0  0  0  0  0  0
  179.9810  178.9000  142.4700 C   0  0  1  0  0  3  0  0  0  0  0  0
  180.6570  178.2980  141.2770 C   0  0  1  0  0  3  0  0  0  0  0  0
  179.7650  176.8100  140.7380 S   0  0  0  0  0  1  0  0  0  0  0  0
  179.9220  180.5040  140.7280 O   0  0  0  0  0  0  0  0  0  0  0  0
  181.9660  179.7260  139.7360 C   0  0  0  0  0  2  0  0  0  0  0  0
  181.9290  177.8630  136.5050 C   0  0  0  0  0  2  0  0  0  0  0  0
  180.8700  180.1670  137.7390 C   0  0  0  0  0  2  0  0  0  0  0  0
  180.7780  179.9050  136.2400 C   0  0  0  0  0  2  0  0  0  0  0  0
  180.6980  178.4680  136.0100 N   0  0  0  0  0  2  0  0  0  0  0  0
  182.0700  178.1010  138.0100 C   0  0  2  0  0  3  0  0  0  0  0  0
  182.0750  179.5470  138.2950 N   0  0  0  0  0  0  0  0  0  0  0  0
  183.1460  176.4940  139.4160 O   0  0  0  0  0  1  0  0  0  0  0  0
  183.3830  177.4620  138.4430 C   0  0  0  0  0  2  0  0  0  0  0  0
  192.2790  177.3590  138.7270 C   0  0  0  0  0  2  0  0  0  0  0  0
  193.2730  176.5250  137.9400 C   0  0  0  0  0  2  0  0  0  0  0  0
  191.2590  176.5170  136.5560 N   0  0  0  0  0  1  0  0  0  0  0  0
  192.6080  175.9830  136.6860 C   0  0  2  0  0  3  0  0  0  0  0  0
  192.6010  174.4540  136.6980 C   0  0  2  0  0  3  0  0  0  0  0  0
  190.6530  173.3230  135.5640 N   0  0  0  0  0  1  0  0  0  0  0  0
  190.5070  174.0040  137.7770 O   0  0  0  0  0  0  0  0  0  0  0  0
  191.2040  173.9200  136.7310 C   0  0  0  0  0  0  0  0  0  0  0  0
  193.3550  173.9470  137.7700 O   0  0  0  0  0  0  0  0  0  0  0  0
  194.4010  173.3650  137.2100 O   0  0  0  0  0  0  0  0  0  0  0  0
  195.4270  173.4870  138.1530 C   0  0  0  0  0  2  0  0  0  0  0  0
  196.3850  174.6620  136.3710 C   0  0  0  0  0  2  0  0  0  0  0  0
  197.8200  174.9940  136.0560 C   0  0  0  0  0  2  0  0  0  0  0  0
  197.5890  174.3770  138.3530 C   0  0  0  0  0  2  0  0  0  0  0  0
  196.2550  174.6360  137.8200 N   0  0  0  0  0  0  0  0  0  0  0  0
  198.5820  174.4060  137.2080 C   0  0  0  0  0  2  0  0  0  0  0  0
  1  6  1  0  0  0  0
  2 10  2  0  0  0  0
  3 20  1  0  0  0  0
  3 17  1  0  0  0  0
  4 11  1  6  0  0  0
  4 13  1  0  0  0  0
  4  2  1  0  0  0  0
  6  9  2  0  0  0  0
  7  6  1  0  0  0  0
  8 22  1  1  0  0  0
  8 16  1  0  0  0  0
  9  5  1  0  0  0  0
 10 18  1  0  0  0  0
 11  8  1  0  0  0  0
 12 15  1  0  0  0  0
 13 21  1  6  0  0  0
 13 14  1  0  0  0  0
 14 18  2  0  0  0  0
 15 11  2  0  0  0  0
 16  2  1  0  0  0  0
 17 12  1  0  0  0  0
 19  5  1  6  0  0  0
 19 15  1  0  0  0  0
 20  1  1  6  0  0  0
 20 19  1  0  0  0  0
 23 24  1  0  0  0  0
 23 22  1  0  0  0  0
 25 26  1  0  0  0  0
 25 24  1  0  0  0  0
 27 33  1  1  0  0  0
 27 32  1  0  0  0  0
 27 30  1  0  0  0  0
 28 29  1  0  0  0  0
 29 26  1  1  0  0  0
 30 31  1  6  0  0  0
 30 29  1  0  0  0  0
 32 28  1  0  0  0  0
 34 38  1  0  0  0  0
 35 39  1  0  0  0  0
 36 35  1  0  0  0  0
 37 36  1  0  0  0  0
 37 34  1  0  0  0  0
 38 39  1  0  0  0  0
 38 41  1  6  0  0  0
 39 33  1  0  0  0  0
 41 40  1  0  0  0  0
 42  7  1  0  0  0  0
 43 42  1  0  0  0  0
 45 44  1  1  0  0  0
 45 46  1  0  0  0  0
 45 43  1  0  0  0  0
 46 49  1  1  0  0  0
 46 50  1  0  0  0  0
 47 49  1  0  0  0  0
 49 48  2  0  0  0  0
 51 50  1  0  0  0  0
 51 52  1  0  0  0  0
 53 56  1  0  0  0  0
 54 53  1  0  0  0  0
 54 57  1  0  0  0  0
 56 52  1  0  0  0  0
 56 55  1  0  0  0  0
 57 55  1  0  0  0  0
M  END
>  <MODEL>
2

>  <REMARK>
 VINA RESULT:      -7.2      1.382      3.020
  Name = 
  18 active torsions:
  status: ('A' for Active; 'I' for Inactive)
    1  A    between atoms: C_6  and  C_28
    2  A    between atoms: C_10  and  C_14
    3  A    between atoms: C_10  and  C_24
    4  A    between atoms: C_12  and  C_18
    5  A    between atoms: C_12  and  C_20
    6  A    between atoms: C_14  and  C_53
    7  A    between atoms: O_15  and  O_19
    8  A    between atoms: O_15  and  C_23
    9  A    between atoms: C_18  and  C_23
   10  A    between atoms: O_19  and  C_42
   11  A    between atoms: C_20  and  N_30
   12  A    between atoms: C_22  and  C_57
   13  A    between atoms: C_23  and  C_56
   14  A    between atoms: C_24  and  C_57
   15  A    between atoms: C_28  and  N_38
   16  A    between atoms: C_31  and  C_53
   17  A    between atoms: C_35  and  C_41
   18  A    between atoms: C_42  and  N_49
                            x       y       z     vdW  Elec       q    Type
                         _______ _______ _______ _____ _____    ______ ____

>  <TORSDO>
F 18

$$$$
=
 OpenBabel11042411233D

 57 63  0  0  1  0  0  0  0  0999 V2000
  189.9490  178.0600  140.0430 C   0  0  0  0  0  2  0  0  0  0  0  0
  187.3250  177.1220  146.3410 C   0  0  0  0  0  0  0  0  0  0  0  0
  187.4400  178.0740  140.0060 C   0  0  0  0  0  2  0  0  0  0  0  0
  188.1740  177.4060  145.1560 C   0  0  1  0  0  3  0  0  0  0  0  0
  188.9090  176.2970  142.0900 C   0  0  0  0  0  2  0  0  0  0  0  0
  190.7140  176.8640  140.5660 C   0  0  0  0  0  0  0  0  0  0  0  0
  192.0310  176.6020  140.0770 N   0  0  0  0  0  2  0  0  0  0  0  0
  185.7550  177.9100  144.8540 C   0  0  1  0  0  3  0  0  0  0  0  0
  190.2360  176.1090  141.5100 N   0  0  0  0  0  0  0  0  0  0  0  0
  187.8180  176.9670  147.5310 N   0  0  0  0  0  0  0  0  0  0  0  0
  187.1200  177.9160  144.2030 C   0  0  0  0  0  0  0  0  0  0  0  0
  186.1460  178.2260  142.0610 O   0  0  0  0  0  0  0  0  0  0  0  0
  189.2640  178.4000  145.6000 C   0  0  1  0  0  3  0  0  0  0  0  0
  189.9390  177.8670  146.8410 C   0  0  0  0  0  3  0  0  0  0  0  0
  187.2750  178.0110  142.8700 C   0  0  0  0  0  0  0  0  0  0  0  0
  185.9730  177.2450  146.0920 O   0  0  0  0  0  0  0  0  0  0  0  0
  186.2290  178.6670  140.7050 C   0  0  0  0  0  2  0  0  0  0  0  0
  189.2190  177.2020  147.7550 C   0  0  0  0  0  3  0  0  0  0  0  0
  188.6160  177.7860  142.2160 C   0  0  2  0  0  3  0  0  0  0  0  0
  188.6780  178.4270  140.8220 C   0  0  1  0  0  3  0  0  0  0  0  0
  190.3220  178.6020  144.5330 C   0  0  0  0  0  1  0  0  0  0  0  0
  185.2940  179.3360  145.1560 C   0  0  0  0  0  2  0  0  0  0  0  0
  184.2180  179.8270  144.2010 C   0  0  0  0  0  2  0  0  0  0  0  0
  183.2170  178.7260  143.9150 C   0  0  0  0  0  2  0  0  0  0  0  0
  181.8570  179.3430  143.6450 C   0  0  0  0  0  2  0  0  0  0  0  0
  181.1020  178.4900  142.6400 C   0  0  0  0  0  2  0  0  0  0  0  0
  180.4290  178.3530  139.1410 C   0  0  1  0  0  3  0  0  0  0  0  0
  182.1350  177.7900  140.5100 C   0  0  0  0  0  2  0  0  0  0  0  0
  181.4380  178.9180  141.2220 C   0  0  1  0  0  3  0  0  0  0  0  0
  180.1800  179.1010  140.4310 C   0  0  1  0  0  3  0  0  0  0  0  0
  179.9140  180.8640  140.0800 S   0  0  0  0  0  1  0  0  0  0  0  0
  181.7040  177.7590  139.1730 O   0  0  0  0  0  0  0  0  0  0  0  0
  179.3590  177.2880  138.9600 C   0  0  0  0  0  2  0  0  0  0  0  0
  179.7170  173.5890  138.6400 C   0  0  0  0  0  2  0  0  0  0  0  0
  179.6450  175.9440  137.0900 C   0  0  0  0  0  2  0  0  0  0  0  0
  180.0780  174.5920  136.5360 C   0  0  0  0  0  2  0  0  0  0  0  0
  179.3520  173.5350  137.2290 N   0  0  0  0  0  2  0  0  0  0  0  0
  179.3050  174.9320  139.2450 C   0  0  2  0  0  3  0  0  0  0  0  0
  179.9580  176.0360  138.5180 N   0  0  0  0  0  0  0  0  0  0  0  0
  179.7080  173.6160  141.2000 O   0  0  0  0  0  1  0  0  0  0  0  0
  179.7380  174.9180  140.7050 C   0  0  0  0  0  2  0  0  0  0  0  0
  192.6160  177.3770  139.0000 C   0  0  0  0  0  2  0  0  0  0  0  0
  192.5940  176.5640  137.7190 C   0  0  0  0  0  2  0  0  0  0  0  0
  194.4370  176.4100  136.1200 N   0  0  0  0  0  1  0  0  0  0  0  0
  193.9810  176.0050  137.4430 C   0  0  2  0  0  3  0  0  0  0  0  0
  193.9870  174.4830  137.5900 C   0  0  2  0  0  3  0  0  0  0  0  0
  195.2620  172.6770  138.8040 N   0  0  0  0  0  1  0  0  0  0  0  0
  196.1660  174.7970  138.5390 O   0  0  0  0  0  0  0  0  0  0  0  0
  195.2020  174.0160  138.3270 C   0  0  0  0  0  0  0  0  0  0  0  0
  193.8850  173.8470  136.3410 O   0  0  0  0  0  0  0  0  0  0  0  0
  192.6880  173.2870  136.3370 O   0  0  0  0  0  0  0  0  0  0  0  0
  192.0750  173.7620  135.1720 C   0  0  0  0  0  2  0  0  0  0  0  0
  190.2390  175.2100  135.1110 C   0  0  0  0  0  2  0  0  0  0  0  0
  189.2480  175.6050  136.1740 C   0  0  0  0  0  2  0  0  0  0  0  0
  190.3910  173.6030  136.7990 C   0  0  0  0  0  2  0  0  0  0  0  0
  190.6370  173.8360  135.3790 N   0  0  0  0  0  0  0  0  0  0  0  0
  189.6770  174.8100  137.3730 C   0  0  0  0  0  2  0  0  0  0  0  0
  1  6  1  0  0  0  0
  1 20  1  0  0  0  0
  2 10  2  0  0  0  0
  3 17  1  0  0  0  0
  4 11  1  6  0  0  0
  4 13  1  0  0  0  0
  4  2  1  0  0  0  0
  6  9  2  0  0  0  0
  7  6  1  0  0  0  0
  8 22  1  1  0  0  0
  8 16  1  0  0  0  0
  9  5  1  0  0  0  0
 10 18  1  0  0  0  0
 11  8  1  0  0  0  0
 12 15  1  0  0  0  0
 13 21  1  6  0  0  0
 13 14  1  0  0  0  0
 14 18  2  0  0  0  0
 15 11  2  0  0  0  0
 16  2  1  0  0  0  0
 17 12  1  0  0  0  0
 19  5  1  6  0  0  0
 19 15  1  0  0  0  0
 20  3  1  6  0  0  0
 20 19  1  0  0  0  0
 23 22  1  0  0  0  0
 24 23  1  0  0  0  0
 25 24  1  0  0  0  0
 26 25  1  0  0  0  0
 27 33  1  1  0  0  0
 27 32  1  0  0  0  0
 27 30  1  0  0  0  0
 28 29  1  0  0  0  0
 29 26  1  1  0  0  0
 30 31  1  6  0  0  0
 30 29  1  0  0  0  0
 32 28  1  0  0  0  0
 34 38  1  0  0  0  0
 35 39  1  0  0  0  0
 36 35  1  0  0  0  0
 36 37  1  0  0  0  0
 37 34  1  0  0  0  0
 38 41  1  1  0  0  0
 39 33  1  0  0  0  0
 39 38  1  0  0  0  0
 41 40  1  0  0  0  0
 42  7  1  0  0  0  0
 43 42  1  0  0  0  0
 45 44  1  6  0  0  0
 45 46  1  0  0  0  0
 45 43  1  0  0  0  0
 46 50  1  6  0  0  0
 46 49  1  0  0  0  0
 49 48  2  0  0  0  0
 49 47  1  0  0  0  0
 51 50  1  0  0  0  0
 52 56  1  0  0  0  0
 52 51  1  0  0  0  0
 53 56  1  0  0  0  0
 53 54  1  0  0  0  0
 54 57  1  0  0  0  0
 55 57  1  0  0  0  0
 56 55  1  0  0  0  0
M  END
>  <MODEL>
3

>  <REMARK>
 VINA RESULT:      -7.0      1.970      2.383
  Name = 
  18 active torsions:
  status: ('A' for Active; 'I' for Inactive)
    1  A    between atoms: C_6  and  C_28
    2  A    between atoms: C_10  and  C_14
    3  A    between atoms: C_10  and  C_24
    4  A    between atoms: C_12  and  C_18
    5  A    between atoms: C_12  and  C_20
    6  A    between atoms: C_14  and  C_53
    7  A    between atoms: O_15  and  O_19
    8  A    between atoms: O_15  and  C_23
    9  A    between atoms: C_18  and  C_23
   10  A    between atoms: O_19  and  C_42
   11  A    between atoms: C_20  and  N_30
   12  A    between atoms: C_22  and  C_57
   13  A    between atoms: C_23  and  C_56
   14  A    between atoms: C_24  and  C_57
   15  A    between atoms: C_28  and  N_38
   16  A    between atoms: C_31  and  C_53
   17  A    between atoms: C_35  and  C_41
   18  A    between atoms: C_42  and  N_49
                            x       y       z     vdW  Elec       q    Type
                         _______ _______ _______ _____ _____    ______ ____

>  <TORSDO>
F 18

$$$$
=
 OpenBabel11042411233D

 57 63  0  0  1  0  0  0  0  0999 V2000
  189.3940  175.3670  136.6400 C   0  0  0  0  0  2  0  0  0  0  0  0
  182.5730  174.4690  136.3260 C   0  0  0  0  0  0  0  0  0  0  0  0
  188.1780  177.5600  136.5890 C   0  0  0  0  0  2  0  0  0  0  0  0
  184.0420  174.3380  136.5010 C   0  0  1  0  0  3  0  0  0  0  0  0
  186.9640  175.1280  135.0850 C   0  0  0  0  0  2  0  0  0  0  0  0
  189.2250  174.3560  135.5270 C   0  0  0  0  0  0  0  0  0  0  0  0
  190.2810  173.4350  135.2450 N   0  0  0  0  0  2  0  0  0  0  0  0
  183.1400  176.6220  136.9110 C   0  0  1  0  0  3  0  0  0  0  0  0
  188.1090  174.2490  134.8670 N   0  0  0  0  0  0  0  0  0  0  0  0
  181.7780  173.4440  136.3130 N   0  0  0  0  0  0  0  0  0  0  0  0
  184.3820  175.7590  136.8790 C   0  0  0  0  0  0  0  0  0  0  0  0
  185.7720  177.6820  136.9320 O   0  0  0  0  0  0  0  0  0  0  0  0
  184.2830  173.2480  137.5630 C   0  0  1  0  0  3  0  0  0  0  0  0
  183.5030  172.0120  137.1840 C   0  0  0  0  0  3  0  0  0  0  0  0
  185.6180  176.2890  136.8330 C   0  0  0  0  0  0  0  0  0  0  0  0
  182.1250  175.7740  136.3900 O   0  0  0  0  0  0  0  0  0  0  0  0
  187.0200  178.3110  137.2250 C   0  0  0  0  0  2  0  0  0  0  0  0
  182.3010  172.1370  136.6050 C   0  0  0  0  0  3  0  0  0  0  0  0
  186.8320  175.4310  136.5710 C   0  0  2  0  0  3  0  0  0  0  0  0
  188.1180  176.1120  137.0590 C   0  0  1  0  0  3  0  0  0  0  0  0
  185.7470  172.8720  137.6740 C   0  0  0  0  0  1  0  0  0  0  0  0
  182.7670  176.9800  138.3500 C   0  0  0  0  0  2  0  0  0  0  0  0
  181.2660  176.9990  138.5870 C   0  0  0  0  0  2  0  0  0  0  0  0
  180.9610  176.9500  140.0720 C   0  0  0  0  0  2  0  0  0  0  0  0
  181.4230  178.2410  140.7200 C   0  0  0  0  0  2  0  0  0  0  0  0
  182.2510  177.9230  141.9540 C   0  0  0  0  0  2  0  0  0  0  0  0
  185.4380  178.8430  143.2620 C   0  0  1  0  0  3  0  0  0  0  0  0
  183.2920  179.4830  143.5590 C   0  0  0  0  0  2  0  0  0  0  0  0
  183.3380  178.9660  142.1470 C   0  0  1  0  0  3  0  0  0  0  0  0
  184.6860  178.3210  142.0580 C   0  0  1  0  0  3  0  0  0  0  0  0
  185.5280  178.8400  140.5330 S   0  0  0  0  0  1  0  0  0  0  0  0
  184.6050  179.6960  144.0100 O   0  0  0  0  0  0  0  0  0  0  0  0
  185.8950  177.6730  144.1190 C   0  0  0  0  0  2  0  0  0  0  0  0
  188.1050  177.9640  147.1100 C   0  0  0  0  0  2  0  0  0  0  0  0
  188.1120  177.0680  144.4350 C   0  0  0  0  0  2  0  0  0  0  0  0
  189.3790  177.2270  145.2670 C   0  0  0  0  0  2  0  0  0  0  0  0
  189.0700  176.9640  146.6660 N   0  0  0  0  0  2  0  0  0  0  0  0
  186.8110  177.8470  146.3020 C   0  0  2  0  0  3  0  0  0  0  0  0
  187.0930  178.0280  144.8660 N   0  0  0  0  0  0  0  0  0  0  0  0
  184.6810  178.3630  147.2570 O   0  0  0  0  0  1  0  0  0  0  0  0
  185.8690  178.9330  146.8060 C   0  0  0  0  0  2  0  0  0  0  0  0
  191.5660  173.5170  135.9130 C   0  0  0  0  0  2  0  0  0  0  0  0
  192.5270  174.3330  135.0680 C   0  0  0  0  0  2  0  0  0  0  0  0
  193.8840  173.6390  136.9780 N   0  0  0  0  0  1  0  0  0  0  0  0
  193.8390  174.5130  135.8140 C   0  0  2  0  0  3  0  0  0  0  0  0
  194.0360  175.9770  136.2100 C   0  0  2  0  0  3  0  0  0  0  0  0
  195.1520  177.6070  134.6430 N   0  0  0  0  0  1  0  0  0  0  0  0
  196.4070  176.0860  135.8640 O   0  0  0  0  0  0  0  0  0  0  0  0
  195.2690  176.5450  135.5810 C   0  0  0  0  0  0  0  0  0  0  0  0
  194.0720  176.1300  137.6060 O   0  0  0  0  0  0  0  0  0  0  0  0
  193.1770  177.0650  137.8720 O   0  0  0  0  0  0  0  0  0  0  0  0
  192.3060  176.4750  138.7950 C   0  0  0  0  0  2  0  0  0  0  0  0
  192.2750  177.2760  140.9930 C   0  0  0  0  0  2  0  0  0  0  0  0
  191.1400  177.4730  141.9640 C   0  0  0  0  0  2  0  0  0  0  0  0
  190.3070  177.2700  139.7340 C   0  0  0  0  0  2  0  0  0  0  0  0
  191.7460  177.5050  139.6570 N   0  0  0  0  0  0  0  0  0  0  0  0
  189.9290  177.0500  141.1850 C   0  0  0  0  0  2  0  0  0  0  0  0
  1 20  1  0  0  0  0
  2 16  1  0  0  0  0
  3 17  1  0  0  0  0
  4  2  1  1  0  0  0
  4 11  1  0  0  0  0
  4 13  1  0  0  0  0
  6  1  1  0  0  0  0
  7  6  1  0  0  0  0
  7 42  1  0  0  0  0
  8 22  1  1  0  0  0
  9  5  1  0  0  0  0
  9  6  2  0  0  0  0
 10  2  2  0  0  0  0
 10 18  1  0  0  0  0
 11  8  1  0  0  0  0
 12 17  1  0  0  0  0
 13 21  1  6  0  0  0
 14 13  1  0  0  0  0
 15 11  2  0  0  0  0
 15 12  1  0  0  0  0
 16  8  1  0  0  0  0
 18 14  2  0  0  0  0
 19  5  1  6  0  0  0
 19 15  1  0  0  0  0
 19 20  1  0  0  0  0
 20  3  1  6  0  0  0
 22 23  1  0  0  0  0
 23 24  1  0  0  0  0
 24 25  1  0  0  0  0
 25 26  1  0  0  0  0
 27 32  1  0  0  0  0
 27 33  1  1  0  0  0
 28 32  1  0  0  0  0
 29 26  1  1  0  0  0
 29 28  1  0  0  0  0
 30 31  1  6  0  0  0
 30 29  1  0  0  0  0
 30 27  1  0  0  0  0
 33 39  1  0  0  0  0
 35 39  1  0  0  0  0
 35 36  1  0  0  0  0
 36 37  1  0  0  0  0
 37 34  1  0  0  0  0
 38 41  1  1  0  0  0
 38 34  1  0  0  0  0
 39 38  1  0  0  0  0
 41 40  1  0  0  0  0
 43 45  1  0  0  0  0
 43 42  1  0  0  0  0
 45 46  1  0  0  0  0
 45 44  1  1  0  0  0
 46 49  1  6  0  0  0
 46 50  1  0  0  0  0
 47 49  1  0  0  0  0
 49 48  2  0  0  0  0
 50 51  1  0  0  0  0
 51 52  1  0  0  0  0
 52 56  1  0  0  0  0
 53 54  1  0  0  0  0
 55 57  1  0  0  0  0
 56 55  1  0  0  0  0
 56 53  1  0  0  0  0
 57 54  1  0  0  0  0
M  END
>  <MODEL>
4

>  <REMARK>
 VINA RESULT:      -7.0      2.590      7.424
  Name = 
  18 active torsions:
  status: ('A' for Active; 'I' for Inactive)
    1  A    between atoms: C_6  and  C_28
    2  A    between atoms: C_10  and  C_14
    3  A    between atoms: C_10  and  C_24
    4  A    between atoms: C_12  and  C_18
    5  A    between atoms: C_12  and  C_20
    6  A    between atoms: C_14  and  C_53
    7  A    between atoms: O_15  and  O_19
    8  A    between atoms: O_15  and  C_23
    9  A    between atoms: C_18  and  C_23
   10  A    between atoms: O_19  and  C_42
   11  A    between atoms: C_20  and  N_30
   12  A    between atoms: C_22  and  C_57
   13  A    between atoms: C_23  and  C_56
   14  A    between atoms: C_24  and  C_57
   15  A    between atoms: C_28  and  N_38
   16  A    between atoms: C_31  and  C_53
   17  A    between atoms: C_35  and  C_41
   18  A    between atoms: C_42  and  N_49
                            x       y       z     vdW  Elec       q    Type
                         _______ _______ _______ _____ _____    ______ ____

>  <TORSDO>
F 18

$$$$
=
 OpenBabel11042411233D

 57 63  0  0  1  0  0  0  0  0999 V2000
  189.1390  176.5230  137.1440 C   0  0  0  0  0  2  0  0  0  0  0  0
  182.7910  178.8850  138.3940 C   0  0  0  0  0  0  0  0  0  0  0  0
  189.0840  177.9800  139.1860 C   0  0  0  0  0  2  0  0  0  0  0  0
  183.9940  178.1460  137.9340 C   0  0  1  0  0  3  0  0  0  0  0  0
  187.1250  178.5830  136.8510 C   0  0  0  0  0  2  0  0  0  0  0  0
  188.6900  177.0510  135.7980 C   0  0  0  0  0  0  0  0  0  0  0  0
  189.2370  176.4880  134.6030 N   0  0  0  0  0  2  0  0  0  0  0  0
  184.1880  179.1490  140.2040 C   0  0  1  0  0  3  0  0  0  0  0  0
  187.7590  177.9540  135.6960 N   0  0  0  0  0  0  0  0  0  0  0  0
  181.6270  178.7350  137.8420 N   0  0  0  0  0  0  0  0  0  0  0  0
  184.8870  178.3390  139.1350 C   0  0  0  0  0  0  0  0  0  0  0  0
  186.9800  178.6350  140.2160 O   0  0  0  0  0  0  0  0  0  0  0  0
  183.5520  176.7070  137.6080 C   0  0  1  0  0  3  0  0  0  0  0  0
  182.3570  176.7570  136.6850 C   0  0  0  0  0  3  0  0  0  0  0  0
  186.2210  178.1570  139.1340 C   0  0  0  0  0  0  0  0  0  0  0  0
  182.9870  179.5730  139.5750 O   0  0  0  0  0  0  0  0  0  0  0  0
  188.3190  178.2150  140.4770 C   0  0  0  0  0  2  0  0  0  0  0  0
  181.4440  177.7270  136.8330 C   0  0  0  0  0  3  0  0  0  0  0  0
  186.9310  177.5480  137.9510 C   0  0  2  0  0  3  0  0  0  0  0  0
  188.3000  176.9780  138.3470 C   0  0  1  0  0  3  0  0  0  0  0  0
  184.6470  175.9130  136.9240 C   0  0  0  0  0  1  0  0  0  0  0  0
  183.8150  178.2650  141.3950 C   0  0  0  0  0  2  0  0  0  0  0  0
  183.3600  179.0620  142.6060 C   0  0  0  0  0  2  0  0  0  0  0  0
  184.5340  179.3650  143.5160 C   0  0  0  0  0  2  0  0  0  0  0  0
  184.2660  178.7790  144.8900 C   0  0  0  0  0  2  0  0  0  0  0  0
  185.4350  179.0870  145.8100 C   0  0  0  0  0  2  0  0  0  0  0  0
  188.6180  177.4830  145.9270 C   0  0  1  0  0  3  0  0  0  0  0  0
  186.7160  177.2770  144.7260 C   0  0  0  0  0  2  0  0  0  0  0  0
  186.2670  177.8390  146.0480 C   0  0  1  0  0  3  0  0  0  0  0  0
  187.5510  178.2010  146.7250 C   0  0  1  0  0  3  0  0  0  0  0  0
  187.5480  177.5940  148.4380 S   0  0  0  0  0  1  0  0  0  0  0  0
  188.0240  176.7820  144.8620 O   0  0  0  0  0  0  0  0  0  0  0  0
  189.6190  178.4960  145.3960 C   0  0  0  0  0  2  0  0  0  0  0  0
  192.0580  175.6970  145.0320 C   0  0  0  0  0  2  0  0  0  0  0  0
  190.5610  177.5370  143.5050 C   0  0  0  0  0  2  0  0  0  0  0  0
  191.6800  176.6810  142.9220 C   0  0  0  0  0  2  0  0  0  0  0  0
  191.7360  175.4130  143.6380 N   0  0  0  0  0  2  0  0  0  0  0  0
  190.9630  176.5580  145.6650 C   0  0  2  0  0  3  0  0  0  0  0  0
  190.8180  177.8220  144.9190 N   0  0  0  0  0  0  0  0  0  0  0  0
  192.5540  176.1370  147.3990 O   0  0  0  0  0  1  0  0  0  0  0  0
  191.3820  176.8280  147.1050 C   0  0  0  0  0  2  0  0  0  0  0  0
  190.3030  175.5060  134.6380 C   0  0  0  0  0  2  0  0  0  0  0  0
  191.6180  176.1960  134.9520 C   0  0  0  0  0  2  0  0  0  0  0  0
  192.3370  173.8870  134.5940 N   0  0  0  0  0  1  0  0  0  0  0  0
  192.6920  175.1530  135.2210 C   0  0  2  0  0  3  0  0  0  0  0  0
  192.9140  174.9860  136.7250 C   0  0  2  0  0  3  0  0  0  0  0  0
  192.5760  176.7310  138.5130 N   0  0  0  0  0  1  0  0  0  0  0  0
  194.2110  176.9950  136.8890 O   0  0  0  0  0  0  0  0  0  0  0  0
  193.2860  176.2860  137.3640 C   0  0  0  0  0  0  0  0  0  0  0  0
  193.8800  174.0020  136.9940 O   0  0  0  0  0  0  0  0  0  0  0  0
  194.3620  174.3110  138.1850 O   0  0  0  0  0  0  0  0  0  0  0  0
  195.6380  173.7380  138.2140 C   0  0  0  0  0  2  0  0  0  0  0  0
  197.1390  174.2920  136.5080 C   0  0  0  0  0  2  0  0  0  0  0  0
  198.6290  174.5120  136.5250 C   0  0  0  0  0  2  0  0  0  0  0  0
  197.7360  174.6520  138.7370 C   0  0  0  0  0  2  0  0  0  0  0  0
  196.6210  174.7250  137.7960 N   0  0  0  0  0  0  0  0  0  0  0  0
  198.9980  174.3200  137.9680 C   0  0  0  0  0  2  0  0  0  0  0  0
  2 16  1  0  0  0  0
  3 17  1  0  0  0  0
  4  2  1  1  0  0  0
  4 11  1  0  0  0  0
  6  1  1  0  0  0  0
  7 42  1  0  0  0  0
  7  6  1  0  0  0  0
  8 22  1  1  0  0  0
  9  6  2  0  0  0  0
  9  5  1  0  0  0  0
 10  2  2  0  0  0  0
 11  8  1  0  0  0  0
 12 17  1  0  0  0  0
 13 21  1  6  0  0  0
 13  4  1  0  0  0  0
 14 18  2  0  0  0  0
 14 13  1  0  0  0  0
 15 11  2  0  0  0  0
 15 12  1  0  0  0  0
 16  8  1  0  0  0  0
 18 10  1  0  0  0  0
 19  5  1  6  0  0  0
 19 20  1  0  0  0  0
 19 15  1  0  0  0  0
 20  1  1  6  0  0  0
 20  3  1  0  0  0  0
 22 23  1  0  0  0  0
 23 24  1  0  0  0  0
 24 25  1  0  0  0  0
 25 26  1  0  0  0  0
 27 33  1  6  0  0  0
 27 30  1  0  0  0  0
 28 32  1  0  0  0  0
 28 29  1  0  0  0  0
 29 26  1  6  0  0  0
 29 30  1  0  0  0  0
 30 31  1  1  0  0  0
 32 27  1  0  0  0  0
 34 38  1  0  0  0  0
 35 39  1  0  0  0  0
 36 35  1  0  0  0  0
 36 37  1  0  0  0  0
 37 34  1  0  0  0  0
 38 41  1  1  0  0  0
 39 33  1  0  0  0  0
 39 38  1  0  0  0  0
 41 40  1  0  0  0  0
 42 43  1  0  0  0  0
 43 45  1  0  0  0  0
 45 44  1  1  0  0  0
 45 46  1  0  0  0  0
 46 50  1  6  0  0  0
 46 49  1  0  0  0  0
 48 49  2  0  0  0  0
 49 47  1  0  0  0  0
 50 51  1  0  0  0  0
 51 52  1  0  0  0  0
 53 54  1  0  0  0  0
 53 56  1  0  0  0  0
 54 57  1  0  0  0  0
 56 52  1  0  0  0  0
 56 55  1  0  0  0  0
 57 55  1  0  0  0  0
M  END
>  <MODEL>
5

>  <REMARK>
 VINA RESULT:      -7.0      2.700      7.898
  Name = 
  18 active torsions:
  status: ('A' for Active; 'I' for Inactive)
    1  A    between atoms: C_6  and  C_28
    2  A    between atoms: C_10  and  C_14
    3  A    between atoms: C_10  and  C_24
    4  A    between atoms: C_12  and  C_18
    5  A    between atoms: C_12  and  C_20
    6  A    between atoms: C_14  and  C_53
    7  A    between atoms: O_15  and  O_19
    8  A    between atoms: O_15  and  C_23
    9  A    between atoms: C_18  and  C_23
   10  A    between atoms: O_19  and  C_42
   11  A    between atoms: C_20  and  N_30
   12  A    between atoms: C_22  and  C_57
   13  A    between atoms: C_23  and  C_56
   14  A    between atoms: C_24  and  C_57
   15  A    between atoms: C_28  and  N_38
   16  A    between atoms: C_31  and  C_53
   17  A    between atoms: C_35  and  C_41
   18  A    between atoms: C_42  and  N_49
                            x       y       z     vdW  Elec       q    Type
                         _______ _______ _______ _____ _____    ______ ____

>  <TORSDO>
F 18

$$$$
=
 OpenBabel11042411233D

 57 63  0  0  1  0  0  0  0  0999 V2000
  189.7200  177.9930  139.9460 C   0  0  0  0  0  2  0  0  0  0  0  0
  187.4920  177.1270  146.4050 C   0  0  0  0  0  0  0  0  0  0  0  0
  187.2170  178.1000  140.0780 C   0  0  0  0  0  2  0  0  0  0  0  0
  188.2690  177.3840  145.1660 C   0  0  1  0  0  3  0  0  0  0  0  0
  188.7540  176.2610  142.0550 C   0  0  0  0  0  2  0  0  0  0  0  0
  190.4730  176.7670  140.4140 C   0  0  0  0  0  0  0  0  0  0  0  0
  191.7440  176.4580  139.8370 N   0  0  0  0  0  2  0  0  0  0  0  0
  185.8560  177.9800  145.0290 C   0  0  1  0  0  3  0  0  0  0  0  0
  190.0310  176.0260  141.3870 N   0  0  0  0  0  0  0  0  0  0  0  0
  188.0580  176.9490  147.5590 N   0  0  0  0  0  0  0  0  0  0  0  0
  187.1740  177.9370  144.2870 C   0  0  0  0  0  0  0  0  0  0  0  0
  186.0700  178.2920  142.2160 O   0  0  0  0  0  0  0  0  0  0  0  0
  189.4240  178.3350  145.5360 C   0  0  1  0  0  3  0  0  0  0  0  0
  190.1600  177.7720  146.7290 C   0  0  0  0  0  3  0  0  0  0  0  0
  187.2420  178.0320  142.9460 C   0  0  0  0  0  0  0  0  0  0  0  0
  186.1320  177.3020  146.2470 O   0  0  0  0  0  0  0  0  0  0  0  0
  186.0780  178.7350  140.8580 C   0  0  0  0  0  2  0  0  0  0  0  0
  189.4780  177.1310  147.6880 C   0  0  0  0  0  3  0  0  0  0  0  0
  188.5270  177.7600  142.2030 C   0  0  2  0  0  3  0  0  0  0  0  0
  188.5180  178.4040  140.8090 C   0  0  1  0  0  3  0  0  0  0  0  0
  190.4140  178.5020  144.4010 C   0  0  0  0  0  1  0  0  0  0  0  0
  185.4700  179.4210  145.3630 C   0  0  0  0  0  2  0  0  0  0  0  0
  184.2460  179.9000  144.6020 C   0  0  0  0  0  2  0  0  0  0  0  0
  183.1950  178.8080  144.5420 C   0  0  0  0  0  2  0  0  0  0  0  0
  182.3320  179.0110  143.3100 C   0  0  0  0  0  2  0  0  0  0  0  0
  180.8780  178.7470  143.6610 C   0  0  0  0  0  2  0  0  0  0  0  0
  180.5750  179.1770  140.1330 C   0  0  1  0  0  3  0  0  0  0  0  0
  179.9460  180.3040  141.9870 C   0  0  0  0  0  2  0  0  0  0  0  0
  180.0040  178.8650  142.4230 C   0  0  1  0  0  3  0  0  0  0  0  0
  180.6600  178.1780  141.2660 C   0  0  1  0  0  3  0  0  0  0  0  0
  179.7410  176.6720  140.8310 S   0  0  0  0  0  1  0  0  0  0  0  0
  179.9510  180.3550  140.5830 O   0  0  0  0  0  0  0  0  0  0  0  0
  181.9750  179.4850  139.6250 C   0  0  0  0  0  2  0  0  0  0  0  0
  182.0620  177.2990  136.6040 C   0  0  0  0  0  2  0  0  0  0  0  0
  180.8190  179.6190  137.6180 C   0  0  0  0  0  2  0  0  0  0  0  0
  180.7330  179.1960  136.1560 C   0  0  0  0  0  2  0  0  0  0  0  0
  180.7770  177.7410  136.0760 N   0  0  0  0  0  2  0  0  0  0  0  0
  182.2010  177.7040  138.0730 C   0  0  2  0  0  3  0  0  0  0  0  0
  182.0820  179.1670  138.2080 N   0  0  0  0  0  0  0  0  0  0  0  0
  184.5530  177.6490  137.6480 O   0  0  0  0  0  1  0  0  0  0  0  0
  183.5700  177.2290  138.5410 C   0  0  0  0  0  2  0  0  0  0  0  0
  192.2830  177.2150  138.7240 C   0  0  0  0  0  2  0  0  0  0  0  0
  192.9500  176.2690  137.7420 C   0  0  0  0  0  2  0  0  0  0  0  0
  190.7990  176.7840  136.7020 N   0  0  0  0  0  1  0  0  0  0  0  0
  191.9960  175.9600  136.6000 C   0  0  2  0  0  3  0  0  0  0  0  0
  191.6460  174.4710  136.5790 C   0  0  2  0  0  3  0  0  0  0  0  0
  192.6980  172.2660  135.9550 N   0  0  0  0  0  1  0  0  0  0  0  0
  193.5390  174.2610  135.1230 O   0  0  0  0  0  0  0  0  0  0  0  0
  192.6790  173.6830  135.8390 C   0  0  0  0  0  0  0  0  0  0  0  0
  190.3680  174.2520  136.0380 O   0  0  0  0  0  0  0  0  0  0  0  0
  189.6450  173.7840  137.0390 O   0  0  0  0  0  0  0  0  0  0  0  0
  188.3200  173.8830  136.6020 C   0  0  0  0  0  2  0  0  0  0  0  0
  187.2910  172.0890  135.5090 C   0  0  0  0  0  2  0  0  0  0  0  0
  185.8960  171.5310  135.6090 C   0  0  0  0  0  2  0  0  0  0  0  0
  186.3850  172.9050  137.5010 C   0  0  0  0  0  2  0  0  0  0  0  0
  187.6430  172.6140  136.8190 N   0  0  0  0  0  0  0  0  0  0  0  0
  185.2410  172.3960  136.6480 C   0  0  0  0  0  2  0  0  0  0  0  0
  1  6  1  0  0  0  0
  2 10  2  0  0  0  0
  3 20  1  0  0  0  0
  3 17  1  0  0  0  0
  4 11  1  6  0  0  0
  4 13  1  0  0  0  0
  4  2  1  0  0  0  0
  6  9  2  0  0  0  0
  7  6  1  0  0  0  0
  8 22  1  1  0  0  0
  8 16  1  0  0  0  0
  9  5  1  0  0  0  0
 10 18  1  0  0  0  0
 11  8  1  0  0  0  0
 12 15  1  0  0  0  0
 13 21  1  6  0  0  0
 13 14  1  0  0  0  0
 14 18  2  0  0  0  0
 15 11  2  0  0  0  0
 16  2  1  0  0  0  0
 17 12  1  0  0  0  0
 19  5  1  6  0  0  0
 19 15  1  0  0  0  0
 20  1  1  6  0  0  0
 20 19  1  0  0  0  0
 23 22  1  0  0  0  0
 24 23  1  0  0  0  0
 25 26  1  0  0  0  0
 25 24  1  0  0  0  0
 27 33  1  1  0  0  0
 27 32  1  0  0  0  0
 27 30  1  0  0  0  0
 28 29  1  0  0  0  0
 29 26  1  1  0  0  0
 30 31  1  6  0  0  0
 30 29  1  0  0  0  0
 32 28  1  0  0  0  0
 34 38  1  0  0  0  0
 35 39  1  0  0  0  0
 36 35  1  0  0  0  0
 37 36  1  0  0  0  0
 37 34  1  0  0  0  0
 38 39  1  0  0  0  0
 38 41  1  6  0  0  0
 39 33  1  0  0  0  0
 40 41  1  0  0  0  0
 42  7  1  0  0  0  0
 43 42  1  0  0  0  0
 45 44  1  1  0  0  0
 45 43  1  0  0  0  0
 46 49  1  6  0  0  0
 46 45  1  0  0  0  0
 48 49  2  0  0  0  0
 49 47  1  0  0  0  0
 50 46  1  0  0  0  0
 50 51  1  0  0  0  0
 52 56  1  0  0  0  0
 52 51  1  0  0  0  0
 53 54  1  0  0  0  0
 53 56  1  0  0  0  0
 54 57  1  0  0  0  0
 56 55  1  0  0  0  0
 57 55  1  0  0  0  0
M  END
>  <MODEL>
6

>  <REMARK>
 VINA RESULT:      -6.9      1.718      2.319
  Name = 
  18 active torsions:
  status: ('A' for Active; 'I' for Inactive)
    1  A    between atoms: C_6  and  C_28
    2  A    between atoms: C_10  and  C_14
    3  A    between atoms: C_10  and  C_24
    4  A    between atoms: C_12  and  C_18
    5  A    between atoms: C_12  and  C_20
    6  A    between atoms: C_14  and  C_53
    7  A    between atoms: O_15  and  O_19
    8  A    between atoms: O_15  and  C_23
    9  A    between atoms: C_18  and  C_23
   10  A    between atoms: O_19  and  C_42
   11  A    between atoms: C_20  and  N_30
   12  A    between atoms: C_22  and  C_57
   13  A    between atoms: C_23  and  C_56
   14  A    between atoms: C_24  and  C_57
   15  A    between atoms: C_28  and  N_38
   16  A    between atoms: C_31  and  C_53
   17  A    between atoms: C_35  and  C_41
   18  A    between atoms: C_42  and  N_49
                            x       y       z     vdW  Elec       q    Type
                         _______ _______ _______ _____ _____    ______ ____

>  <TORSDO>
F 18

$$$$
=
 OpenBabel11042411233D

 57 63  0  0  1  0  0  0  0  0999 V2000
  189.9680  177.9670  139.9910 C   0  0  0  0  0  2  0  0  0  0  0  0
  187.5410  177.0960  146.3760 C   0  0  0  0  0  0  0  0  0  0  0  0
  187.4600  178.0140  140.0360 C   0  0  0  0  0  2  0  0  0  0  0  0
  188.3540  177.3620  145.1620 C   0  0  1  0  0  3  0  0  0  0  0  0
  188.9730  176.2290  142.0800 C   0  0  0  0  0  2  0  0  0  0  0  0
  190.7340  176.7640  140.4950 C   0  0  0  0  0  0  0  0  0  0  0  0
  192.0320  176.4820  139.9640 N   0  0  0  0  0  2  0  0  0  0  0  0
  185.9330  177.8970  144.9380 C   0  0  1  0  0  3  0  0  0  0  0  0
  190.2780  176.0200  141.4580 N   0  0  0  0  0  0  0  0  0  0  0  0
  188.0710  176.9410  147.5500 N   0  0  0  0  0  0  0  0  0  0  0  0
  187.2760  177.8820  144.2420 C   0  0  0  0  0  0  0  0  0  0  0  0
  186.2360  178.1940  142.1310 O   0  0  0  0  0  0  0  0  0  0  0  0
  189.4710  178.3450  145.5650 C   0  0  1  0  0  3  0  0  0  0  0  0
  190.1790  177.8090  146.7860 C   0  0  0  0  0  3  0  0  0  0  0  0
  187.3880  177.9680  142.9040 C   0  0  0  0  0  0  0  0  0  0  0  0
  186.1830  177.2360  146.1710 O   0  0  0  0  0  0  0  0  0  0  0  0
  186.2800  178.6260  140.7710 C   0  0  0  0  0  2  0  0  0  0  0  0
  189.4810  177.1590  147.7270 C   0  0  0  0  0  3  0  0  0  0  0  0
  188.7040  177.7220  142.2080 C   0  0  2  0  0  3  0  0  0  0  0  0
  188.7280  178.3550  140.8090 C   0  0  1  0  0  3  0  0  0  0  0  0
  190.4960  178.5270  144.4630 C   0  0  0  0  0  1  0  0  0  0  0  0
  185.5000  179.3310  145.2460 C   0  0  0  0  0  2  0  0  0  0  0  0
  184.2990  179.7780  144.4290 C   0  0  0  0  0  2  0  0  0  0  0  0
  183.1100  178.8750  144.6930 C   0  0  0  0  0  2  0  0  0  0  0  0
  182.1120  179.0190  143.5600 C   0  0  0  0  0  2  0  0  0  0  0  0
  182.7640  178.6050  142.2520 C   0  0  0  0  0  2  0  0  0  0  0  0
  180.9120  177.4280  139.4410 C   0  0  1  0  0  3  0  0  0  0  0  0
  182.6200  178.8620  139.8010 C   0  0  0  0  0  2  0  0  0  0  0  0
  181.8330  178.8830  141.0840 C   0  0  1  0  0  3  0  0  0  0  0  0
  180.8680  177.7520  140.9180 C   0  0  1  0  0  3  0  0  0  0  0  0
  179.1940  178.2850  141.3820 S   0  0  0  0  0  1  0  0  0  0  0  0
  181.8360  178.2700  138.7960 O   0  0  0  0  0  0  0  0  0  0  0  0
  181.3100  175.9720  139.2540 C   0  0  0  0  0  2  0  0  0  0  0  0
  182.4140  174.1870  136.1710 C   0  0  0  0  0  2  0  0  0  0  0  0
  180.0930  174.8420  137.6340 C   0  0  0  0  0  2  0  0  0  0  0  0
  180.0570  174.2730  136.2210 C   0  0  0  0  0  2  0  0  0  0  0  0
  181.2010  173.3890  136.0300 N   0  0  0  0  0  2  0  0  0  0  0  0
  182.4970  174.7840  137.5770 C   0  0  2  0  0  3  0  0  0  0  0  0
  181.3140  175.6240  137.8400 N   0  0  0  0  0  0  0  0  0  0  0  0
  183.7740  176.5620  136.6140 O   0  0  0  0  0  1  0  0  0  0  0  0
  183.7720  175.6160  137.6360 C   0  0  0  0  0  2  0  0  0  0  0  0
  192.5900  177.2440  138.8640 C   0  0  0  0  0  2  0  0  0  0  0  0
  192.2640  176.5550  137.5520 C   0  0  0  0  0  2  0  0  0  0  0  0
  194.3100  176.7180  136.2250 N   0  0  0  0  0  1  0  0  0  0  0  0
  193.4940  175.8250  137.0370 C   0  0  2  0  0  3  0  0  0  0  0  0
  193.0900  174.5760  136.2520 C   0  0  2  0  0  3  0  0  0  0  0  0
  190.9080  173.7480  137.2100 N   0  0  0  0  0  1  0  0  0  0  0  0
  190.9570  174.9280  135.2130 O   0  0  0  0  0  0  0  0  0  0  0  0
  191.6010  174.4430  136.1800 C   0  0  0  0  0  0  0  0  0  0  0  0
  193.6690  173.4180  136.7960 O   0  0  0  0  0  0  0  0  0  0  0  0
  194.5960  173.8560  137.6290 O   0  0  0  0  0  0  0  0  0  0  0  0
  195.0610  172.7100  138.2840 C   0  0  0  0  0  2  0  0  0  0  0  0
  196.8910  174.1590  138.4260 C   0  0  0  0  0  2  0  0  0  0  0  0
  198.0910  174.3370  137.5330 C   0  0  0  0  0  2  0  0  0  0  0  0
  197.0360  172.2360  137.1090 C   0  0  0  0  0  2  0  0  0  0  0  0
  196.5120  172.7560  138.3680 N   0  0  0  0  0  0  0  0  0  0  0  0
  197.8910  173.3060  136.4600 C   0  0  0  0  0  2  0  0  0  0  0  0
  1  6  1  0  0  0  0
  2 10  2  0  0  0  0
  3 17  1  0  0  0  0
  3 20  1  0  0  0  0
  4 11  1  6  0  0  0
  4 13  1  0  0  0  0
  4  2  1  0  0  0  0
  6  9  2  0  0  0  0
  7  6  1  0  0  0  0
  8 22  1  1  0  0  0
  8 16  1  0  0  0  0
  9  5  1  0  0  0  0
 10 18  1  0  0  0  0
 11  8  1  0  0  0  0
 12 15  1  0  0  0  0
 13 21  1  6  0  0  0
 13 14  1  0  0  0  0
 14 18  2  0  0  0  0
 15 11  2  0  0  0  0
 16  2  1  0  0  0  0
 17 12  1  0  0  0  0
 19  5  1  6  0  0  0
 19 15  1  0  0  0  0
 20  1  1  6  0  0  0
 20 19  1  0  0  0  0
 23 24  1  0  0  0  0
 23 22  1  0  0  0  0
 25 24  1  0  0  0  0
 26 25  1  0  0  0  0
 27 33  1  1  0  0  0
 27 30  1  0  0  0  0
 28 29  1  0  0  0  0
 29 26  1  1  0  0  0
 30 29  1  0  0  0  0
 30 31  1  6  0  0  0
 32 27  1  0  0  0  0
 32 28  1  0  0  0  0
 34 38  1  0  0  0  0
 35 39  1  0  0  0  0
 36 35  1  0  0  0  0
 37 34  1  0  0  0  0
 37 36  1  0  0  0  0
 38 41  1  6  0  0  0
 38 39  1  0  0  0  0
 39 33  1  0  0  0  0
 40 41  1  0  0  0  0
 42  7  1  0  0  0  0
 43 42  1  0  0  0  0
 45 44  1  6  0  0  0
 45 43  1  0  0  0  0
 46 49  1  1  0  0  0
 46 50  1  0  0  0  0
 46 45  1  0  0  0  0
 48 49  2  0  0  0  0
 49 47  1  0  0  0  0
 50 51  1  0  0  0  0
 51 52  1  0  0  0  0
 52 56  1  0  0  0  0
 54 53  1  0  0  0  0
 55 56  1  0  0  0  0
 56 53  1  0  0  0  0
 57 55  1  0  0  0  0
 57 54  1  0  0  0  0
M  END
>  <MODEL>
7

>  <REMARK>
 VINA RESULT:      -6.7      1.859      3.308
  Name = 
  18 active torsions:
  status: ('A' for Active; 'I' for Inactive)
    1  A    between atoms: C_6  and  C_28
    2  A    between atoms: C_10  and  C_14
    3  A    between atoms: C_10  and  C_24
    4  A    between atoms: C_12  and  C_18
    5  A    between atoms: C_12  and  C_20
    6  A    between atoms: C_14  and  C_53
    7  A    between atoms: O_15  and  O_19
    8  A    between atoms: O_15  and  C_23
    9  A    between atoms: C_18  and  C_23
   10  A    between atoms: O_19  and  C_42
   11  A    between atoms: C_20  and  N_30
   12  A    between atoms: C_22  and  C_57
   13  A    between atoms: C_23  and  C_56
   14  A    between atoms: C_24  and  C_57
   15  A    between atoms: C_28  and  N_38
   16  A    between atoms: C_31  and  C_53
   17  A    between atoms: C_35  and  C_41
   18  A    between atoms: C_42  and  N_49
                            x       y       z     vdW  Elec       q    Type
                         _______ _______ _______ _____ _____    ______ ____

>  <TORSDO>
F 18

$$$$
=
 OpenBabel11042411233D

 57 63  0  0  1  0  0  0  0  0999 V2000
  189.4460  176.8200  142.4480 C   0  0  0  0  0  2  0  0  0  0  0  0
  189.0920  177.6100  135.6150 C   0  0  0  0  0  0  0  0  0  0  0  0
  187.6290  178.4240  141.8000 C   0  0  0  0  0  2  0  0  0  0  0  0
  189.3400  177.1560  137.0080 C   0  0  1  0  0  3  0  0  0  0  0  0
  190.1890  178.2560  140.0470 C   0  0  0  0  0  2  0  0  0  0  0  0
  190.8840  177.0700  142.0490 C   0  0  0  0  0  0  0  0  0  0  0  0
  191.9400  176.5390  142.8550 N   0  0  0  0  0  2  0  0  0  0  0  0
  187.2160  178.4120  136.6810 C   0  0  1  0  0  3  0  0  0  0  0  0
  191.1880  177.6890  140.9470 N   0  0  0  0  0  0  0  0  0  0  0  0
  189.7200  177.1100  134.5960 N   0  0  0  0  0  0  0  0  0  0  0  0
  188.1010  177.6970  137.6780 C   0  0  0  0  0  0  0  0  0  0  0  0
  186.8860  178.6290  139.4920 O   0  0  0  0  0  0  0  0  0  0  0  0
  189.5090  175.6250  136.9680 C   0  0  1  0  0  3  0  0  0  0  0  0
  190.5330  175.2710  135.9160 C   0  0  0  0  0  3  0  0  0  0  0  0
  187.9580  177.8610  139.0060 C   0  0  0  0  0  0  0  0  0  0  0  0
  188.0000  178.4470  135.4960 O   0  0  0  0  0  0  0  0  0  0  0  0
  186.4540  178.5940  140.8520 C   0  0  0  0  0  2  0  0  0  0  0  0
  190.5970  175.9870  134.7850 C   0  0  0  0  0  3  0  0  0  0  0  0
  188.9820  177.3300  139.9780 C   0  0  2  0  0  3  0  0  0  0  0  0
  188.3930  177.1720  141.3870 C   0  0  1  0  0  3  0  0  0  0  0  0
  189.9810  175.0670  138.2960 C   0  0  0  0  0  1  0  0  0  0  0  0
  185.9560  177.5950  136.3930 C   0  0  0  0  0  2  0  0  0  0  0  0
  186.0400  176.1690  136.9130 C   0  0  0  0  0  2  0  0  0  0  0  0
  185.6480  175.1830  135.8300 C   0  0  0  0  0  2  0  0  0  0  0  0
  184.3410  175.6260  135.1990 C   0  0  0  0  0  2  0  0  0  0  0  0
  183.4590  174.4140  134.9530 C   0  0  0  0  0  2  0  0  0  0  0  0
  181.6700  175.5490  137.8220 C   0  0  1  0  0  3  0  0  0  0  0  0
  182.1420  173.5610  136.8580 C   0  0  0  0  0  2  0  0  0  0  0  0
  182.1540  174.5430  135.7180 C   0  0  1  0  0  3  0  0  0  0  0  0
  182.0920  175.8720  136.4050 C   0  0  1  0  0  3  0  0  0  0  0  0
  180.8430  176.9280  135.6150 S   0  0  0  0  0  1  0  0  0  0  0  0
  181.5200  174.1570  137.9680 O   0  0  0  0  0  0  0  0  0  0  0  0
  182.7180  176.0690  138.7930 C   0  0  0  0  0  2  0  0  0  0  0  0
  181.3150  179.4220  139.6290 C   0  0  0  0  0  2  0  0  0  0  0  0
  180.7820  176.6680  139.9210 C   0  0  0  0  0  2  0  0  0  0  0  0
  180.0180  177.7510  140.6740 C   0  0  0  0  0  2  0  0  0  0  0  0
  179.9530  178.9510  139.8490 N   0  0  0  0  0  2  0  0  0  0  0  0
  182.1280  178.3660  138.8770 C   0  0  2  0  0  3  0  0  0  0  0  0
  182.1520  177.1060  139.6430 N   0  0  0  0  0  0  0  0  0  0  0  0
  183.6190  180.1940  139.2640 O   0  0  0  0  0  1  0  0  0  0  0  0
  183.5360  178.9200  138.7070 C   0  0  0  0  0  2  0  0  0  0  0  0
  191.6790  175.8710  144.1140 C   0  0  0  0  0  2  0  0  0  0  0  0
  191.7670  176.8740  145.2500 C   0  0  0  0  0  2  0  0  0  0  0  0
  190.2690  178.7990  145.0940 N   0  0  0  0  0  1  0  0  0  0  0  0
  190.3830  177.4220  145.5570 C   0  0  2  0  0  3  0  0  0  0  0  0
  190.0810  177.3130  147.0530 C   0  0  2  0  0  3  0  0  0  0  0  0
  191.4930  175.3430  147.7500 N   0  0  0  0  0  1  0  0  0  0  0  0
  192.0030  177.4860  148.4760 O   0  0  0  0  0  0  0  0  0  0  0  0
  191.2460  176.7430  147.7980 C   0  0  0  0  0  0  0  0  0  0  0  0
  188.9200  176.5580  147.2880 O   0  0  0  0  0  0  0  0  0  0  0  0
  188.2410  177.2430  148.1900 O   0  0  0  0  0  0  0  0  0  0  0  0
  187.5520  178.2160  147.4580 C   0  0  0  0  0  2  0  0  0  0  0  0
  186.8150  177.8620  145.2670 C   0  0  0  0  0  2  0  0  0  0  0  0
  185.5140  178.1990  144.5880 C   0  0  0  0  0  2  0  0  0  0  0  0
  185.2590  178.2580  146.9620 C   0  0  0  0  0  2  0  0  0  0  0  0
  186.5160  177.5790  146.6620 N   0  0  0  0  0  0  0  0  0  0  0  0
  184.7000  178.8350  145.6770 C   0  0  0  0  0  2  0  0  0  0  0  0
  4  2  1  6  0  0  0
  4 11  1  0  0  0  0
  5  9  1  0  0  0  0
  6  1  1  0  0  0  0
  6  7  1  0  0  0  0
  7 42  1  0  0  0  0
  8 22  1  6  0  0  0
  8 11  1  0  0  0  0
  9  6  2  0  0  0  0
 10 18  1  0  0  0  0
 10  2  2  0  0  0  0
 11 15  2  0  0  0  0
 12 17  1  0  0  0  0
 13  4  1  0  0  0  0
 13 21  1  1  0  0  0
 14 13  1  0  0  0  0
 15 12  1  0  0  0  0
 15 19  1  0  0  0  0
 16  2  1  0  0  0  0
 16  8  1  0  0  0  0
 17  3  1  0  0  0  0
 18 14  2  0  0  0  0
 19  5  1  1  0  0  0
 19 20  1  0  0  0  0
 20  3  1  1  0  0  0
 20  1  1  0  0  0  0
 22 23  1  0  0  0  0
 24 23  1  0  0  0  0
 25 24  1  0  0  0  0
 26 25  1  0  0  0  0
 27 32  1  0  0  0  0
 27 33  1  1  0  0  0
 28 32  1  0  0  0  0
 29 26  1  1  0  0  0
 29 30  1  0  0  0  0
 29 28  1  0  0  0  0
 30 31  1  6  0  0  0
 30 27  1  0  0  0  0
 33 39  1  0  0  0  0
 34 37  1  0  0  0  0
 35 36  1  0  0  0  0
 37 36  1  0  0  0  0
 38 41  1  1  0  0  0
 38 34  1  0  0  0  0
 38 39  1  0  0  0  0
 39 35  1  0  0  0  0
 41 40  1  0  0  0  0
 42 43  1  0  0  0  0
 43 45  1  0  0  0  0
 45 44  1  1  0  0  0
 45 46  1  0  0  0  0
 46 50  1  6  0  0  0
 46 49  1  0  0  0  0
 47 49  1  0  0  0  0
 49 48  2  0  0  0  0
 50 51  1  0  0  0  0
 52 51  1  0  0  0  0
 53 56  1  0  0  0  0
 54 53  1  0  0  0  0
 54 57  1  0  0  0  0
 56 55  1  0  0  0  0
 56 52  1  0  0  0  0
 57 55  1  0  0  0  0
M  END
>  <MODEL>
8

>  <REMARK>
 VINA RESULT:      -6.7      3.130      8.136
  Name = 
  18 active torsions:
  status: ('A' for Active; 'I' for Inactive)
    1  A    between atoms: C_6  and  C_28
    2  A    between atoms: C_10  and  C_14
    3  A    between atoms: C_10  and  C_24
    4  A    between atoms: C_12  and  C_18
    5  A    between atoms: C_12  and  C_20
    6  A    between atoms: C_14  and  C_53
    7  A    between atoms: O_15  and  O_19
    8  A    between atoms: O_15  and  C_23
    9  A    between atoms: C_18  and  C_23
   10  A    between atoms: O_19  and  C_42
   11  A    between atoms: C_20  and  N_30
   12  A    between atoms: C_22  and  C_57
   13  A    between atoms: C_23  and  C_56
   14  A    between atoms: C_24  and  C_57
   15  A    between atoms: C_28  and  N_38
   16  A    between atoms: C_31  and  C_53
   17  A    between atoms: C_35  and  C_41
   18  A    between atoms: C_42  and  N_49
                            x       y       z     vdW  Elec       q    Type
                         _______ _______ _______ _____ _____    ______ ____

>  <TORSDO>
F 18

$$$$
=
 OpenBabel11042411233D

 57 63  0  0  1  0  0  0  0  0999 V2000
  190.0680  177.9670  139.8970 C   0  0  0  0  0  2  0  0  0  0  0  0
  187.6350  177.0690  146.2770 C   0  0  0  0  0  0  0  0  0  0  0  0
  187.5620  178.0680  139.9490 C   0  0  0  0  0  2  0  0  0  0  0  0
  188.4510  177.3330  145.0640 C   0  0  1  0  0  3  0  0  0  0  0  0
  189.0390  176.2240  141.9670 C   0  0  0  0  0  2  0  0  0  0  0  0
  190.8080  176.7400  140.3840 C   0  0  0  0  0  0  0  0  0  0  0  0
  192.0980  176.4360  139.8470 N   0  0  0  0  0  2  0  0  0  0  0  0
  186.0430  177.9240  144.8520 C   0  0  1  0  0  3  0  0  0  0  0  0
  190.3370  175.9940  141.3390 N   0  0  0  0  0  0  0  0  0  0  0  0
  188.1640  176.8880  147.4480 N   0  0  0  0  0  0  0  0  0  0  0  0
  187.3840  177.8870  144.1530 C   0  0  0  0  0  0  0  0  0  0  0  0
  186.3470  178.2490  142.0490 O   0  0  0  0  0  0  0  0  0  0  0  0
  189.5910  178.2850  145.4760 C   0  0  1  0  0  3  0  0  0  0  0  0
  190.2900  177.7180  146.6890 C   0  0  0  0  0  3  0  0  0  0  0  0
  187.4950  177.9880  142.8160 C   0  0  0  0  0  0  0  0  0  0  0  0
  186.2800  177.2420  146.0760 O   0  0  0  0  0  0  0  0  0  0  0  0
  186.3970  178.6970  140.6940 C   0  0  0  0  0  2  0  0  0  0  0  0
  189.5790  177.0720  147.6240 C   0  0  0  0  0  3  0  0  0  0  0  0
  188.8030  177.7220  142.1140 C   0  0  2  0  0  3  0  0  0  0  0  0
  188.8380  178.3720  140.7230 C   0  0  1  0  0  3  0  0  0  0  0  0
  190.6170  178.4580  144.3740 C   0  0  0  0  0  1  0  0  0  0  0  0
  185.6430  179.3630  145.1800 C   0  0  0  0  0  2  0  0  0  0  0  0
  184.3730  179.8030  144.4700 C   0  0  0  0  0  2  0  0  0  0  0  0
  183.4460  178.6220  144.2560 C   0  0  0  0  0  2  0  0  0  0  0  0
  182.4230  178.9760  143.1940 C   0  0  0  0  0  2  0  0  0  0  0  0
  182.9880  178.6640  141.8190 C   0  0  0  0  0  2  0  0  0  0  0  0
  180.9320  177.0610  139.3850 C   0  0  1  0  0  3  0  0  0  0  0  0
  182.5160  178.6710  139.3960 C   0  0  0  0  0  2  0  0  0  0  0  0
  181.8970  178.7440  140.7650 C   0  0  1  0  0  3  0  0  0  0  0  0
  181.0380  177.5200  140.8230 C   0  0  1  0  0  3  0  0  0  0  0  0
  179.3900  177.9420  141.4600 S   0  0  0  0  0  1  0  0  0  0  0  0
  181.6790  177.9180  138.5560 O   0  0  0  0  0  0  0  0  0  0  0  0
  181.4500  175.6360  139.2700 C   0  0  0  0  0  2  0  0  0  0  0  0
  181.0970  173.0880  136.5680 C   0  0  0  0  0  2  0  0  0  0  0  0
  179.6870  174.2280  138.7300 C   0  0  0  0  0  2  0  0  0  0  0  0
  179.0320  173.3360  137.6810 C   0  0  0  0  0  2  0  0  0  0  0  0
  180.0050  172.3610  137.2050 N   0  0  0  0  0  2  0  0  0  0  0  0
  181.7890  174.0030  137.5810 C   0  0  2  0  0  3  0  0  0  0  0  0
  180.8170  174.9560  138.1480 N   0  0  0  0  0  0  0  0  0  0  0  0
  182.4100  175.2390  135.6310 O   0  0  0  0  0  1  0  0  0  0  0  0
  182.8950  174.7390  136.8370 C   0  0  0  0  0  2  0  0  0  0  0  0
  192.6710  177.1990  138.7550 C   0  0  0  0  0  2  0  0  0  0  0  0
  192.6090  176.3820  137.4770 C   0  0  0  0  0  2  0  0  0  0  0  0
  194.2660  174.7080  138.1300 N   0  0  0  0  0  1  0  0  0  0  0  0
  192.8650  174.9170  137.7930 C   0  0  2  0  0  3  0  0  0  0  0  0
  192.4380  174.0320  136.6210 C   0  0  2  0  0  3  0  0  0  0  0  0
  193.8740  174.9170  134.7450 N   0  0  0  0  0  1  0  0  0  0  0  0
  191.5760  175.2300  134.7310 O   0  0  0  0  0  0  0  0  0  0  0  0
  192.5820  174.7550  135.3180 C   0  0  0  0  0  0  0  0  0  0  0  0
  191.1260  173.5590  136.7860 O   0  0  0  0  0  0  0  0  0  0  0  0
  190.5370  174.4450  137.5690 O   0  0  0  0  0  0  0  0  0  0  0  0
  189.1780  174.3630  137.2440 C   0  0  0  0  0  2  0  0  0  0  0  0
  187.1570  175.5300  137.0910 C   0  0  0  0  0  2  0  0  0  0  0  0
  186.8180  176.8550  136.4600 C   0  0  0  0  0  2  0  0  0  0  0  0
  189.1760  176.6670  136.7980 C   0  0  0  0  0  2  0  0  0  0  0  0
  188.5250  175.6190  137.5780 N   0  0  0  0  0  0  0  0  0  0  0  0
  188.1350  177.3410  135.9270 C   0  0  0  0  0  2  0  0  0  0  0  0
  1  6  1  0  0  0  0
  2 10  2  0  0  0  0
  3 17  1  0  0  0  0
  3 20  1  0  0  0  0
  4 11  1  6  0  0  0
  4 13  1  0  0  0  0
  4  2  1  0  0  0  0
  6  9  2  0  0  0  0
  7  6  1  0  0  0  0
  8 22  1  1  0  0  0
  8 16  1  0  0  0  0
  9  5  1  0  0  0  0
 10 18  1  0  0  0  0
 11  8  1  0  0  0  0
 12 15  1  0  0  0  0
 13 21  1  6  0  0  0
 13 14  1  0  0  0  0
 14 18  2  0  0  0  0
 15 11  2  0  0  0  0
 16  2  1  0  0  0  0
 17 12  1  0  0  0  0
 19  5  1  6  0  0  0
 19 15  1  0  0  0  0
 20  1  1  6  0  0  0
 20 19  1  0  0  0  0
 23 22  1  0  0  0  0
 24 23  1  0  0  0  0
 25 24  1  0  0  0  0
 26 25  1  0  0  0  0
 27 33  1  1  0  0  0
 27 30  1  0  0  0  0
 28 29  1  0  0  0  0
 29 30  1  0  0  0  0
 29 26  1  1  0  0  0
 30 31  1  6  0  0  0
 32 27  1  0  0  0  0
 32 28  1  0  0  0  0
 34 37  1  0  0  0  0
 34 38  1  0  0  0  0
 36 35  1  0  0  0  0
 37 36  1  0  0  0  0
 38 41  1  6  0  0  0
 38 39  1  0  0  0  0
 39 35  1  0  0  0  0
 39 33  1  0  0  0  0
 40 41  1  0  0  0  0
 42  7  1  0  0  0  0
 43 45  1  0  0  0  0
 43 42  1  0  0  0  0
 45 44  1  6  0  0  0
 46 49  1  6  0  0  0
 46 50  1  0  0  0  0
 46 45  1  0  0  0  0
 47 49  1  0  0  0  0
 48 49  2  0  0  0  0
 50 51  1  0  0  0  0
 52 51  1  0  0  0  0
 52 56  1  0  0  0  0
 53 56  1  0  0  0  0
 54 53  1  0  0  0  0
 55 56  1  0  0  0  0
 57 54  1  0  0  0  0
 57 55  1  0  0  0  0
M  END
>  <MODEL>
9

>  <REMARK>
 VINA RESULT:      -6.6      2.160      2.806
  Name = 
  18 active torsions:
  status: ('A' for Active; 'I' for Inactive)
    1  A    between atoms: C_6  and  C_28
    2  A    between atoms: C_10  and  C_14
    3  A    between atoms: C_10  and  C_24
    4  A    between atoms: C_12  and  C_18
    5  A    between atoms: C_12  and  C_20
    6  A    between atoms: C_14  and  C_53
    7  A    between atoms: O_15  and  O_19
    8  A    between atoms: O_15  and  C_23
    9  A    between atoms: C_18  and  C_23
   10  A    between atoms: O_19  and  C_42
   11  A    between atoms: C_20  and  N_30
   12  A    between atoms: C_22  and  C_57
   13  A    between atoms: C_23  and  C_56
   14  A    between atoms: C_24  and  C_57
   15  A    between atoms: C_28  and  N_38
   16  A    between atoms: C_31  and  C_53
   17  A    between atoms: C_35  and  C_41
   18  A    between atoms: C_42  and  N_49
                            x       y       z     vdW  Elec       q    Type
                         _______ _______ _______ _____ _____    ______ ____

>  <TORSDO>
F 18

$$$$
