=
 OpenBabel11042411513D

 68 77  0  0  1  0  0  0  0  0999 V2000
  183.0160  176.7890  139.6210 O   0  0  0  0  0  0  0  0  0  0  0  0
  183.1180  178.0780  139.0440 C   0  0  2  0  0  3  0  0  0  0  0  0
  182.5030  176.4240  137.3210 C   0  0  1  0  0  3  0  0  0  0  0  0
  182.6530  175.8540  138.6810 C   0  0  0  0  0  0  0  0  0  0  0  0
  182.9100  177.8850  137.5330 C   0  0  1  0  0  3  0  0  0  0  0  0
  182.4100  174.6580  138.9770 O   0  0  0  0  0  0  0  0  0  0  0  0
  185.2620  178.9320  138.4090 O   0  0  0  0  0  0  0  0  0  0  0  0
  184.4600  178.6570  139.3450 C   0  0  0  0  0  0  0  0  0  0  0  0
  184.8430  178.8350  140.7110 N   0  0  0  0  0  0  0  0  0  0  0  0
  186.0890  178.9820  141.0590 C   0  0  0  0  0  3  0  0  0  0  0  0
  186.4680  179.1640  142.4860 C   0  0  0  0  0  2  0  0  0  0  0  0
  187.6030  178.3980  142.7460 O   0  0  0  0  0  0  0  0  0  0  0  0
  191.0820  176.4960  144.2960 C   0  0  2  0  0  0  0  0  0  0  0  0
  190.5940  177.6290  146.6440 C   0  0  1  0  0  3  0  0  0  0  0  0
  189.6780  176.6650  143.7730 C   0  0  1  0  0  0  0  0  0  0  0  0
  188.7420  176.8610  144.8090 O   0  0  0  0  0  0  0  0  0  0  0  0
  191.9650  175.4900  143.5720 C   0  0  0  0  0  1  0  0  0  0  0  0
  186.2070  178.1080  146.4510 C   0  0  1  0  0  3  0  0  0  0  0  0
  188.2970  178.3530  149.0730 O   0  0  0  0  0  1  0  0  0  0  0  0
  188.4130  177.9540  147.7410 C   0  0  1  0  0  3  0  0  0  0  0  0
  191.3080  176.5350  145.8440 C   0  0  0  0  0  2  0  0  0  0  0  0
  189.5740  176.9850  147.5680 C   0  0  2  0  0  3  0  0  0  0  0  0
  190.8870  177.5140  148.1250 C   0  0  0  0  0  2  0  0  0  0  0  0
  190.1860  179.0390  144.0170 C   0  0  0  0  0  2  0  0  0  0  0  0
  186.2410  176.5580  144.0720 O   0  0  0  0  0  0  0  0  0  0  0  0
  190.7570  177.7440  143.4020 C   0  0  0  0  0  0  0  0  0  0  0  0
  186.8780  178.7690  145.4000 O   0  0  0  0  0  0  0  0  0  0  0  0
  187.3190  177.6090  144.2290 P   0  0  2  0  0  0  0  0  0  0  0  0
  187.1380  177.2440  147.3180 C   0  0  0  0  0  2  0  0  0  0  0  0
  185.5610  179.0490  147.2490 O   0  0  0  0  0  1  0  0  0  0  0  0
  189.2690  175.6970  142.6620 C   0  0  0  0  0  1  0  0  0  0  0  0
  191.6370  178.8000  144.1000 C   0  0  0  0  0  2  0  0  0  0  0  0
  181.7900  178.7910  137.0540 C   0  0  0  0  0  2  0  0  0  0  0  0
  180.5570  177.9590  136.7570 C   0  0  0  0  0  2  0  0  0  0  0  0
  179.4010  178.5760  137.3900 N   0  0  0  0  0  2  0  0  0  0  0  0
  179.6310  180.9880  139.9950 N   0  0  0  0  0  0  0  0  0  0  0  0
  179.5660  178.7490  139.9010 C   0  0  0  0  0  0  0  0  0  0  0  0
  179.4410  179.2830  138.6310 C   0  0  0  0  0  0  0  0  0  0  0  0
  179.6790  179.8560  140.7240 C   0  0  0  0  0  0  0  0  0  0  0  0
  179.4760  180.6290  138.7300 N   0  0  0  0  0  0  0  0  0  0  0  0
  180.0250  179.8140  143.3500 C   0  0  0  0  0  3  0  0  0  0  0  0
  179.8680  179.8390  142.1530 C   0  0  0  0  0  0  0  0  0  0  0  0
  179.6190  176.2070  140.6300 C   0  0  0  0  0  3  0  0  0  0  0  0
  179.5980  177.3650  140.2980 C   0  0  0  0  0  0  0  0  0  0  0  0
  179.4340  181.5630  137.6830 N   0  0  0  0  0  2  0  0  0  0  0  0
  180.4860  182.5420  137.4500 C   0  0  0  0  0  2  0  0  0  0  0  0
  181.1530  184.3860  135.9080 C   0  0  0  0  0  2  0  0  0  0  0  0
  179.9870  183.6450  136.5360 C   0  0  0  0  0  3  0  0  0  0  0  0
  180.4290  184.9840  137.1030 C   0  0  0  0  0  2  0  0  0  0  0  0
  183.4500  175.7700  136.3190 C   0  0  0  0  0  2  0  0  0  0  0  0
  184.9770  175.2650  137.1320 S   0  0  0  0  0  0  0  0  0  0  0  0
  186.0680  175.2040  135.9370 C   0  0  0  0  0  2  0  0  0  0  0  0
  192.0000  176.3300  138.1070 C   0  0  0  0  0  3  0  0  0  0  0  0
  188.2970  173.8750  136.0350 C   0  0  2  0  0  0  0  0  0  0  0  0
  189.3080  172.8620  135.5480 C   0  0  0  0  0  0  0  0  0  0  0  0
  188.9870  171.8450  134.7550 C   0  0  0  0  0  2  0  0  0  0  0  0
  192.8670  175.2810  137.8070 C   0  0  0  0  0  3  0  0  0  0  0  0
  190.1760  175.1440  137.0290 C   0  0  0  0  0  0  0  0  0  0  0  0
  192.4020  174.1710  137.1060 C   0  0  0  0  0  3  0  0  0  0  0  0
  186.2560  172.9950  134.5970 C   0  0  0  0  0  1  0  0  0  0  0  0
  186.8170  173.9390  135.6470 C   0  0  2  0  0  0  0  0  0  0  0  0
  188.8340  175.0430  136.6440 O   0  0  0  0  0  0  0  0  0  0  0  0
  187.2450  173.2230  136.9230 C   0  0  0  0  0  2  0  0  0  0  0  0
  190.6330  172.9970  135.9670 O   0  0  0  0  0  0  0  0  0  0  0  0
  191.0670  174.1010  136.7060 C   0  0  0  0  0  0  0  0  0  0  0  0
  190.6560  176.2810  137.7270 C   0  0  0  0  0  0  0  0  0  0  0  0
  189.8540  177.3820  138.0540 O   0  0  0  0  0  0  0  0  0  0  0  0
  188.6900  177.3310  138.8680 C   0  0  0  0  0  1  0  0  0  0  0  0
  2  8  1  6  0  0  0
  2  1  1  0  0  0  0
  3 50  1  6  0  0  0
  3  5  1  0  0  0  0
  3  4  1  0  0  0  0
  4  6  2  0  0  0  0
  4  1  1  0  0  0  0
  5 33  1  1  0  0  0
  5  2  1  0  0  0  0
  7  8  2  0  0  0  0
  8  9  1  0  0  0  0
  9 10  2  0  0  0  0
 10 11  1  0  0  0  0
 11 12  1  0  0  0  0
 12 28  1  0  0  0  0
 13 17  1  6  0  0  0
 13 21  1  0  0  0  0
 14 21  1  6  0  0  0
 14 22  1  0  0  0  0
 14 23  1  0  0  0  0
 15 31  1  6  0  0  0
 15 13  1  0  0  0  0
 15 16  1  0  0  0  0
 18 30  1  1  0  0  0
 18 29  1  0  0  0  0
 20 19  1  1  0  0  0
 22 20  1  0  0  0  0
 22 23  1  1  0  0  0
 24 32  1  0  0  0  0
 26 15  1  0  0  0  0
 26 24  1  0  0  0  0
 26 32  1  0  0  0  0
 26 13  1  0  0  0  0
 27 18  1  0  0  0  0
 28 25  2  6  0  0  0
 28 16  1  0  0  0  0
 28 27  1  0  0  0  0
 29 20  1  0  0  0  0
 34 33  1  0  0  0  0
 34 35  1  0  0  0  0
 35 38  1  0  0  0  0
 36 39  2  0  0  0  0
 37 44  1  0  0  0  0
 37 39  1  0  0  0  0
 38 40  1  0  0  0  0
 38 37  2  0  0  0  0
 39 42  1  0  0  0  0
 40 36  1  0  0  0  0
 42 41  3  0  0  0  0
 44 43  3  0  0  0  0
 45 40  1  0  0  0  0
 46 45  1  0  0  0  0
 47 48  1  0  0  0  0
 47 49  1  0  0  0  0
 48 49  1  0  0  0  0
 48 46  1  0  0  0  0
 50 51  1  0  0  0  0
 52 51  1  0  0  0  0
 54 62  1  0  0  0  0
 54 63  1  1  0  0  0
 55 64  1  0  0  0  0
 55 54  1  0  0  0  0
 56 55  2  0  0  0  0
 57 53  1  0  0  0  0
 58 66  1  0  0  0  0
 59 57  2  0  0  0  0
 61 60  1  6  0  0  0
 61 52  1  0  0  0  0
 61 54  1  0  0  0  0
 61 63  1  0  0  0  0
 62 58  1  0  0  0  0
 64 65  1  0  0  0  0
 65 58  2  0  0  0  0
 65 59  1  0  0  0  0
 66 67  1  0  0  0  0
 66 53  2  0  0  0  0
 67 68  1  0  0  0  0
M  END
>  <MODEL>
1

>  <REMARK>
 VINA RESULT:      -7.7      0.000      0.000
  Name = 
  18 active torsions:
  status: ('A' for Active; 'I' for Inactive)
    1  A    between atoms: O_4  and  C_66
    2  A    between atoms: C_6  and  C_22
    3  A    between atoms: C_6  and  S_29
    4  A    between atoms: C_14  and  C_56
    5  A    between atoms: C_15  and  C_25
    6  A    between atoms: C_15  and  N_47
    7  A    between atoms: C_19  and  C_48
    8  A    between atoms: C_20  and  C_26
    9  A    between atoms: C_25  and  C_31
   10  A    between atoms: C_34  and  O_35
   11  A    between atoms: C_34  and  C_57
   12  A    between atoms: O_35  and  P_54
   13  A    between atoms: C_38  and  C_42
   14  A    between atoms: N_44  and  C_56
   15  A    between atoms: N_47  and  C_58
   16  A    between atoms: C_48  and  N_51
   17  A    between atoms: N_51  and  N_68
   18  A    between atoms: C_62  and  C_65
                            x       y       z     vdW  Elec       q    Type
                         _______ _______ _______ _____ _____    ______ ____

>  <TORSDO>
F 18

$$$$
=
 OpenBabel11042411513D

 68 77  0  0  1  0  0  0  0  0999 V2000
  187.1810  175.7900  137.6830 O   0  0  0  0  0  0  0  0  0  0  0  0
  186.4090  176.8840  137.2220 C   0  0  2  0  0  3  0  0  0  0  0  0
  187.4730  175.7350  135.3170 C   0  0  1  0  0  3  0  0  0  0  0  0
  187.7670  175.1220  136.6340 C   0  0  0  0  0  0  0  0  0  0  0  0
  186.6530  176.9690  135.7060 C   0  0  1  0  0  3  0  0  0  0  0  0
  188.4220  174.0620  136.7900 O   0  0  0  0  0  0  0  0  0  0  0  0
  187.5690  178.9760  137.3260 O   0  0  0  0  0  0  0  0  0  0  0  0
  186.8410  178.1310  137.9190 C   0  0  0  0  0  0  0  0  0  0  0  0
  186.4680  178.3200  139.2860 N   0  0  0  0  0  0  0  0  0  0  0  0
  187.3580  178.3900  140.2350 C   0  0  0  0  0  3  0  0  0  0  0  0
  186.9510  178.5850  141.6520 C   0  0  0  0  0  2  0  0  0  0  0  0
  188.0760  178.4370  142.4620 O   0  0  0  0  0  0  0  0  0  0  0  0
  191.2020  176.4330  144.5450 C   0  0  2  0  0  0  0  0  0  0  0  0
  190.4090  177.6250  146.7780 C   0  0  1  0  0  3  0  0  0  0  0  0
  189.9010  176.6450  143.8130 C   0  0  1  0  0  0  0  0  0  0  0  0
  188.8270  176.8950  144.6920 O   0  0  0  0  0  0  0  0  0  0  0  0
  192.1430  175.3820  143.9760 C   0  0  0  0  0  1  0  0  0  0  0  0
  186.1240  178.2660  145.9150 C   0  0  1  0  0  3  0  0  0  0  0  0
  187.8020  178.4780  148.8210 O   0  0  0  0  0  1  0  0  0  0  0  0
  188.1020  178.0510  147.5270 C   0  0  1  0  0  3  0  0  0  0  0  0
  191.1920  176.4910  146.1090 C   0  0  0  0  0  2  0  0  0  0  0  0
  189.2360  177.0360  147.5440 C   0  0  2  0  0  3  0  0  0  0  0  0
  190.4700  177.5250  148.2870 C   0  0  0  0  0  2  0  0  0  0  0  0
  190.4600  179.0030  144.1030 C   0  0  0  0  0  2  0  0  0  0  0  0
  186.4560  176.6740  143.5870 O   0  0  0  0  0  0  0  0  0  0  0  0
  191.0660  177.6760  143.5970 C   0  0  0  0  0  0  0  0  0  0  0  0
  186.9730  178.8820  144.9700 O   0  0  0  0  0  0  0  0  0  0  0  0
  187.5390  177.6850  143.8930 P   0  0  2  0  0  0  0  0  0  0  0  0
  186.8780  177.3820  146.9240 C   0  0  0  0  0  2  0  0  0  0  0  0
  185.4030  179.2440  146.5940 O   0  0  0  0  0  1  0  0  0  0  0  0
  189.6260  175.6740  142.6640 C   0  0  0  0  0  1  0  0  0  0  0  0
  191.8710  178.7100  144.4090 C   0  0  0  0  0  2  0  0  0  0  0  0
  185.3240  176.9380  134.9740 C   0  0  0  0  0  2  0  0  0  0  0  0
  184.2470  177.5460  135.8530 C   0  0  0  0  0  2  0  0  0  0  0  0
  183.0770  176.6800  135.8430 N   0  0  0  0  0  2  0  0  0  0  0  0
  181.3680  174.8730  138.3880 N   0  0  0  0  0  0  0  0  0  0  0  0
  181.7550  177.0400  137.9610 C   0  0  0  0  0  0  0  0  0  0  0  0
  182.3810  176.2490  137.0150 C   0  0  0  0  0  0  0  0  0  0  0  0
  181.1360  176.1340  138.8040 C   0  0  0  0  0  0  0  0  0  0  0  0
  182.1320  174.9540  137.3090 N   0  0  0  0  0  0  0  0  0  0  0  0
  179.6350  176.7270  140.9050 C   0  0  0  0  0  3  0  0  0  0  0  0
  180.3150  176.4550  139.9440 C   0  0  0  0  0  0  0  0  0  0  0  0
  181.7000  179.6790  138.1370 C   0  0  0  0  0  3  0  0  0  0  0  0
  181.7220  178.4760  138.0560 C   0  0  0  0  0  0  0  0  0  0  0  0
  182.5310  173.8220  136.5820 N   0  0  0  0  0  2  0  0  0  0  0  0
  181.5980  172.7980  136.1340 C   0  0  0  0  0  2  0  0  0  0  0  0
  183.2390  170.9220  136.2460 C   0  0  0  0  0  2  0  0  0  0  0  0
  181.9270  171.4660  136.7820 C   0  0  0  0  0  3  0  0  0  0  0  0
  181.9210  170.3890  135.7100 C   0  0  0  0  0  2  0  0  0  0  0  0
  188.7430  176.1730  134.5940 C   0  0  0  0  0  2  0  0  0  0  0  0
  190.1730  176.0060  135.6770 S   0  0  0  0  0  0  0  0  0  0  0  0
  191.2080  175.0860  134.8370 C   0  0  0  0  0  2  0  0  0  0  0  0
  197.5360  175.9630  135.4280 C   0  0  0  0  0  3  0  0  0  0  0  0
  193.2160  173.6560  135.6560 C   0  0  2  0  0  0  0  0  0  0  0  0
  193.9730  172.3690  135.8910 C   0  0  0  0  0  0  0  0  0  0  0  0
  193.3760  171.1850  135.9700 C   0  0  0  0  0  2  0  0  0  0  0  0
  198.1830  174.7980  135.8370 C   0  0  0  0  0  3  0  0  0  0  0  0
  195.4010  174.8080  135.4820 C   0  0  0  0  0  0  0  0  0  0  0  0
  197.4500  173.6340  136.0520 C   0  0  0  0  0  3  0  0  0  0  0  0
  190.8440  172.5540  135.2490 C   0  0  0  0  0  1  0  0  0  0  0  0
  191.7130  173.7910  135.4000 C   0  0  2  0  0  0  0  0  0  0  0  0
  194.0100  174.7910  135.3280 O   0  0  0  0  0  0  0  0  0  0  0  0
  192.2690  173.9600  136.8090 C   0  0  0  0  0  2  0  0  0  0  0  0
  195.3590  172.4380  136.0490 O   0  0  0  0  0  0  0  0  0  0  0  0
  196.0670  173.6290  135.8680 C   0  0  0  0  0  0  0  0  0  0  0  0
  196.1510  175.9880  135.2450 C   0  0  0  0  0  0  0  0  0  0  0  0
  195.5790  177.1950  134.8200 O   0  0  0  0  0  0  0  0  0  0  0  0
  196.1900  178.4730  134.9360 C   0  0  0  0  0  1  0  0  0  0  0  0
  2  1  1  0  0  0  0
  2  8  1  1  0  0  0
  3 50  1  1  0  0  0
  3  5  1  0  0  0  0
  3  4  1  0  0  0  0
  4  6  2  0  0  0  0
  4  1  1  0  0  0  0
  5 33  1  6  0  0  0
  5  2  1  0  0  0  0
  7  8  2  0  0  0  0
  8  9  1  0  0  0  0
  9 10  2  0  0  0  0
 10 11  1  0  0  0  0
 11 12  1  0  0  0  0
 12 28  1  0  0  0  0
 13 17  1  6  0  0  0
 13 21  1  0  0  0  0
 14 21  1  6  0  0  0
 14 22  1  0  0  0  0
 14 23  1  0  0  0  0
 15 31  1  6  0  0  0
 15 13  1  0  0  0  0
 15 16  1  0  0  0  0
 18 30  1  1  0  0  0
 18 29  1  0  0  0  0
 20 22  1  0  0  0  0
 20 19  1  1  0  0  0
 22 23  1  1  0  0  0
 24 32  1  0  0  0  0
 26 15  1  0  0  0  0
 26 24  1  0  0  0  0
 26 32  1  0  0  0  0
 26 13  1  0  0  0  0
 27 18  1  0  0  0  0
 28 25  2  6  0  0  0
 28 16  1  0  0  0  0
 28 27  1  0  0  0  0
 29 20  1  0  0  0  0
 33 34  1  0  0  0  0
 35 34  1  0  0  0  0
 35 38  1  0  0  0  0
 36 39  2  0  0  0  0
 37 44  1  0  0  0  0
 37 39  1  0  0  0  0
 38 40  1  0  0  0  0
 38 37  2  0  0  0  0
 39 42  1  0  0  0  0
 40 36  1  0  0  0  0
 42 41  3  0  0  0  0
 44 43  3  0  0  0  0
 45 40  1  0  0  0  0
 46 45  1  0  0  0  0
 46 48  1  0  0  0  0
 47 48  1  0  0  0  0
 49 47  1  0  0  0  0
 49 48  1  0  0  0  0
 50 51  1  0  0  0  0
 52 61  1  0  0  0  0
 52 51  1  0  0  0  0
 53 57  1  0  0  0  0
 54 55  1  0  0  0  0
 54 63  1  1  0  0  0
 55 56  2  0  0  0  0
 55 64  1  0  0  0  0
 57 59  2  0  0  0  0
 58 65  2  0  0  0  0
 61 60  1  6  0  0  0
 61 54  1  0  0  0  0
 61 63  1  0  0  0  0
 62 58  1  0  0  0  0
 62 54  1  0  0  0  0
 65 64  1  0  0  0  0
 65 59  1  0  0  0  0
 66 53  2  0  0  0  0
 66 58  1  0  0  0  0
 67 68  1  0  0  0  0
 67 66  1  0  0  0  0
M  END
>  <MODEL>
2

>  <REMARK>
 VINA RESULT:      -6.9      2.813      5.071
  Name = 
  18 active torsions:
  status: ('A' for Active; 'I' for Inactive)
    1  A    between atoms: O_4  and  C_66
    2  A    between atoms: C_6  and  C_22
    3  A    between atoms: C_6  and  S_29
    4  A    between atoms: C_14  and  C_56
    5  A    between atoms: C_15  and  C_25
    6  A    between atoms: C_15  and  N_47
    7  A    between atoms: C_19  and  C_48
    8  A    between atoms: C_20  and  C_26
    9  A    between atoms: C_25  and  C_31
   10  A    between atoms: C_34  and  O_35
   11  A    between atoms: C_34  and  C_57
   12  A    between atoms: O_35  and  P_54
   13  A    between atoms: C_38  and  C_42
   14  A    between atoms: N_44  and  C_56
   15  A    between atoms: N_47  and  C_58
   16  A    between atoms: C_48  and  N_51
   17  A    between atoms: N_51  and  N_68
   18  A    between atoms: C_62  and  C_65
                            x       y       z     vdW  Elec       q    Type
                         _______ _______ _______ _____ _____    ______ ____

>  <TORSDO>
F 18

$$$$
=
 OpenBabel11042411513D

 68 77  0  0  1  0  0  0  0  0999 V2000
  187.0510  175.7590  137.7000 O   0  0  0  0  0  0  0  0  0  0  0  0
  186.2550  176.8040  137.1720 C   0  0  2  0  0  3  0  0  0  0  0  0
  187.3490  175.5640  135.3420 C   0  0  1  0  0  3  0  0  0  0  0  0
  187.6540  175.0400  136.6950 C   0  0  0  0  0  0  0  0  0  0  0  0
  186.5000  176.8000  135.6540 C   0  0  1  0  0  3  0  0  0  0  0  0
  188.3330  174.0070  136.9170 O   0  0  0  0  0  0  0  0  0  0  0  0
  187.2880  178.9630  137.1160 O   0  0  0  0  0  0  0  0  0  0  0  0
  186.6570  178.1020  137.7900 C   0  0  0  0  0  0  0  0  0  0  0  0
  186.3710  178.3230  139.1730 N   0  0  0  0  0  0  0  0  0  0  0  0
  187.3180  178.4280  140.0610 C   0  0  0  0  0  3  0  0  0  0  0  0
  187.0010  178.6570  141.4950 C   0  0  0  0  0  2  0  0  0  0  0  0
  188.1130  178.3060  142.2590 O   0  0  0  0  0  0  0  0  0  0  0  0
  191.1410  176.4180  144.5820 C   0  0  2  0  0  0  0  0  0  0  0  0
  190.2400  177.7120  146.7150 C   0  0  1  0  0  3  0  0  0  0  0  0
  189.8760  176.5890  143.7790 C   0  0  1  0  0  0  0  0  0  0  0  0
  188.7610  176.8760  144.5930 O   0  0  0  0  0  0  0  0  0  0  0  0
  192.1110  175.3460  144.1090 C   0  0  0  0  0  1  0  0  0  0  0  0
  186.0000  178.2900  145.6190 C   0  0  1  0  0  3  0  0  0  0  0  0
  187.5350  178.6480  148.5880 O   0  0  0  0  0  1  0  0  0  0  0  0
  187.8980  178.1620  147.3320 C   0  0  1  0  0  3  0  0  0  0  0  0
  191.0560  176.5510  146.1390 C   0  0  0  0  0  2  0  0  0  0  0  0
  189.0320  177.1540  147.4510 C   0  0  2  0  0  3  0  0  0  0  0  0
  190.2290  177.6840  148.2280 C   0  0  0  0  0  2  0  0  0  0  0  0
  190.4150  178.9600  143.9820 C   0  0  0  0  0  2  0  0  0  0  0  0
  186.4460  176.5910  143.3890 O   0  0  0  0  0  0  0  0  0  0  0  0
  191.0470  177.6140  143.5710 C   0  0  0  0  0  0  0  0  0  0  0  0
  186.8900  178.8650  144.6870 O   0  0  0  0  0  0  0  0  0  0  0  0
  187.5110  177.6210  143.6970 P   0  0  2  0  0  0  0  0  0  0  0  0
  186.7060  177.4600  146.7040 C   0  0  0  0  0  2  0  0  0  0  0  0
  185.2440  179.2970  146.2150 O   0  0  0  0  0  1  0  0  0  0  0  0
  189.6590  175.5630  142.6660 C   0  0  0  0  0  1  0  0  0  0  0  0
  191.8110  178.6900  144.3690 C   0  0  0  0  0  2  0  0  0  0  0  0
  185.1740  176.6930  134.9250 C   0  0  0  0  0  2  0  0  0  0  0  0
  184.0950  177.3940  135.7300 C   0  0  0  0  0  2  0  0  0  0  0  0
  182.9300  176.5270  135.8230 N   0  0  0  0  0  2  0  0  0  0  0  0
  181.0980  177.0430  138.8290 N   0  0  0  0  0  0  0  0  0  0  0  0
  181.5360  175.2800  137.5150 C   0  0  0  0  0  0  0  0  0  0  0  0
  182.0880  176.4270  136.9740 C   0  0  0  0  0  0  0  0  0  0  0  0
  180.9210  175.7160  138.6770 C   0  0  0  0  0  0  0  0  0  0  0  0
  181.7970  177.4650  137.7870 N   0  0  0  0  0  0  0  0  0  0  0  0
  179.6350  174.2100  140.4360 C   0  0  0  0  0  3  0  0  0  0  0  0
  180.2250  174.8930  139.6320 C   0  0  0  0  0  0  0  0  0  0  0  0
  181.6440  172.8010  136.6000 C   0  0  0  0  0  3  0  0  0  0  0  0
  181.5920  173.9300  137.0180 C   0  0  0  0  0  0  0  0  0  0  0  0
  182.2050  178.8010  137.6440 N   0  0  0  0  0  2  0  0  0  0  0  0
  181.3710  179.9300  138.0300 C   0  0  0  0  0  2  0  0  0  0  0  0
  180.7140  182.1240  137.0400 C   0  0  0  0  0  2  0  0  0  0  0  0
  180.8300  180.6300  136.7970 C   0  0  0  0  0  3  0  0  0  0  0  0
  179.4810  181.2420  137.1380 C   0  0  0  0  0  2  0  0  0  0  0  0
  188.6100  175.9850  134.5940 C   0  0  0  0  0  2  0  0  0  0  0  0
  190.0530  175.8460  135.6640 S   0  0  0  0  0  0  0  0  0  0  0  0
  191.0960  174.9420  134.8170 C   0  0  0  0  0  2  0  0  0  0  0  0
  197.4030  175.9540  135.4120 C   0  0  0  0  0  3  0  0  0  0  0  0
  193.1340  173.5540  135.6330 C   0  0  2  0  0  0  0  0  0  0  0  0
  193.9190  172.2840  135.8660 C   0  0  0  0  0  0  0  0  0  0  0  0
  193.3480  171.0860  135.9430 C   0  0  0  0  0  2  0  0  0  0  0  0
  198.0750  174.8030  135.8190 C   0  0  0  0  0  3  0  0  0  0  0  0
  195.2930  174.7540  135.4630 C   0  0  0  0  0  0  0  0  0  0  0  0
  197.3680  173.6220  136.0320 C   0  0  0  0  0  3  0  0  0  0  0  0
  190.7870  172.4020  135.2230 C   0  0  0  0  0  1  0  0  0  0  0  0
  191.6280  173.6570  135.3770 C   0  0  2  0  0  0  0  0  0  0  0  0
  193.9030  174.7070  135.3080 O   0  0  0  0  0  0  0  0  0  0  0  0
  192.1800  173.8350  136.7870 C   0  0  0  0  0  2  0  0  0  0  0  0
  195.3020  172.3810  136.0250 O   0  0  0  0  0  0  0  0  0  0  0  0
  195.9850  173.5880  135.8460 C   0  0  0  0  0  0  0  0  0  0  0  0
  196.0180  175.9500  135.2290 C   0  0  0  0  0  0  0  0  0  0  0  0
  195.4210  177.1450  134.8050 O   0  0  0  0  0  0  0  0  0  0  0  0
  195.9890  178.4380  134.9540 C   0  0  0  0  0  1  0  0  0  0  0  0
  2  1  1  0  0  0  0
  2  8  1  1  0  0  0
  3 50  1  1  0  0  0
  3  5  1  0  0  0  0
  3  4  1  0  0  0  0
  4  6  2  0  0  0  0
  4  1  1  0  0  0  0
  5 33  1  6  0  0  0
  5  2  1  0  0  0  0
  7  8  2  0  0  0  0
  8  9  1  0  0  0  0
  9 10  2  0  0  0  0
 10 11  1  0  0  0  0
 11 12  1  0  0  0  0
 12 28  1  0  0  0  0
 13 17  1  6  0  0  0
 13 21  1  0  0  0  0
 14 21  1  6  0  0  0
 14 22  1  0  0  0  0
 14 23  1  0  0  0  0
 15 31  1  6  0  0  0
 15 13  1  0  0  0  0
 15 16  1  0  0  0  0
 18 30  1  1  0  0  0
 18 29  1  0  0  0  0
 20 22  1  0  0  0  0
 20 19  1  1  0  0  0
 22 23  1  1  0  0  0
 24 32  1  0  0  0  0
 26 15  1  0  0  0  0
 26 24  1  0  0  0  0
 26 32  1  0  0  0  0
 26 13  1  0  0  0  0
 27 18  1  0  0  0  0
 28 25  2  6  0  0  0
 28 16  1  0  0  0  0
 28 27  1  0  0  0  0
 29 20  1  0  0  0  0
 33 34  1  0  0  0  0
 34 35  1  0  0  0  0
 35 38  1  0  0  0  0
 37 39  1  0  0  0  0
 38 37  2  0  0  0  0
 38 40  1  0  0  0  0
 39 36  2  0  0  0  0
 39 42  1  0  0  0  0
 40 36  1  0  0  0  0
 42 41  3  0  0  0  0
 43 44  3  0  0  0  0
 44 37  1  0  0  0  0
 45 40  1  0  0  0  0
 45 46  1  0  0  0  0
 47 49  1  0  0  0  0
 48 47  1  0  0  0  0
 48 49  1  0  0  0  0
 48 46  1  0  0  0  0
 50 51  1  0  0  0  0
 52 61  1  0  0  0  0
 52 51  1  0  0  0  0
 53 57  1  0  0  0  0
 54 55  1  0  0  0  0
 54 63  1  1  0  0  0
 55 56  2  0  0  0  0
 55 64  1  0  0  0  0
 57 59  2  0  0  0  0
 58 65  2  0  0  0  0
 61 60  1  6  0  0  0
 61 54  1  0  0  0  0
 61 63  1  0  0  0  0
 62 58  1  0  0  0  0
 62 54  1  0  0  0  0
 65 64  1  0  0  0  0
 65 59  1  0  0  0  0
 66 53  2  0  0  0  0
 66 58  1  0  0  0  0
 67 68  1  0  0  0  0
 67 66  1  0  0  0  0
M  END
>  <MODEL>
3

>  <REMARK>
 VINA RESULT:      -6.7      2.533      3.988
  Name = 
  18 active torsions:
  status: ('A' for Active; 'I' for Inactive)
    1  A    between atoms: O_4  and  C_66
    2  A    between atoms: C_6  and  C_22
    3  A    between atoms: C_6  and  S_29
    4  A    between atoms: C_14  and  C_56
    5  A    between atoms: C_15  and  C_25
    6  A    between atoms: C_15  and  N_47
    7  A    between atoms: C_19  and  C_48
    8  A    between atoms: C_20  and  C_26
    9  A    between atoms: C_25  and  C_31
   10  A    between atoms: C_34  and  O_35
   11  A    between atoms: C_34  and  C_57
   12  A    between atoms: O_35  and  P_54
   13  A    between atoms: C_38  and  C_42
   14  A    between atoms: N_44  and  C_56
   15  A    between atoms: N_47  and  C_58
   16  A    between atoms: C_48  and  N_51
   17  A    between atoms: N_51  and  N_68
   18  A    between atoms: C_62  and  C_65
                            x       y       z     vdW  Elec       q    Type
                         _______ _______ _______ _____ _____    ______ ____

>  <TORSDO>
F 18

$$$$
=
 OpenBabel11042411513D

 68 77  0  0  1  0  0  0  0  0999 V2000
  188.3370  176.7790  139.7210 O   0  0  0  0  0  0  0  0  0  0  0  0
  189.2180  177.0930  138.6570 C   0  0  2  0  0  3  0  0  0  0  0  0
  190.4940  176.7470  140.7390 C   0  0  1  0  0  3  0  0  0  0  0  0
  189.0310  176.5620  140.8880 C   0  0  0  0  0  0  0  0  0  0  0  0
  190.6190  177.2000  139.2820 C   0  0  1  0  0  3  0  0  0  0  0  0
  188.4700  176.1770  141.9440 O   0  0  0  0  0  0  0  0  0  0  0  0
  189.2290  179.4790  138.4630 O   0  0  0  0  0  0  0  0  0  0  0  0
  188.7990  178.3770  138.0210 C   0  0  0  0  0  0  0  0  0  0  0  0
  187.8560  178.3380  136.9480 N   0  0  0  0  0  0  0  0  0  0  0  0
  187.6440  177.2520  136.2620 C   0  0  0  0  0  3  0  0  0  0  0  0
  186.6590  177.2320  135.1470 C   0  0  0  0  0  2  0  0  0  0  0  0
  185.3760  177.3110  135.6860 O   0  0  0  0  0  0  0  0  0  0  0  0
  181.9340  177.3420  138.1910 C   0  0  2  0  0  0  0  0  0  0  0  0
  181.0750  175.1600  136.9530 C   0  0  1  0  0  3  0  0  0  0  0  0
  183.3710  177.1780  137.7660 C   0  0  1  0  0  0  0  0  0  0  0  0
  183.6670  175.8540  137.3810 O   0  0  0  0  0  0  0  0  0  0  0  0
  181.6690  178.2840  139.3570 C   0  0  0  0  0  1  0  0  0  0  0  0
  184.8980  173.3700  135.6520 C   0  0  1  0  0  3  0  0  0  0  0  0
  181.8140  172.0370  135.7710 O   0  0  0  0  0  1  0  0  0  0  0  0
  182.4020  173.2250  136.2040 C   0  0  1  0  0  3  0  0  0  0  0  0
  181.0060  176.0820  138.1740 C   0  0  0  0  0  2  0  0  0  0  0  0
  181.6310  173.8110  137.3780 C   0  0  2  0  0  3  0  0  0  0  0  0
  180.1440  173.9750  137.1000 C   0  0  0  0  0  2  0  0  0  0  0  0
  182.4330  177.4360  135.5290 C   0  0  0  0  0  2  0  0  0  0  0  0
  186.2340  175.3290  137.2140 O   0  0  0  0  0  0  0  0  0  0  0  0
  182.4340  178.1090  136.9180 C   0  0  0  0  0  0  0  0  0  0  0  0
  184.7010  174.6730  135.1460 O   0  0  0  0  0  0  0  0  0  0  0  0
  185.0550  175.7920  136.3850 P   0  0  2  0  0  0  0  0  0  0  0  0
  183.8220  172.9430  136.6650 C   0  0  0  0  0  2  0  0  0  0  0  0
  184.9330  172.4650  134.5940 O   0  0  0  0  0  1  0  0  0  0  0  0
  184.4040  177.8740  138.6550 C   0  0  0  0  0  1  0  0  0  0  0  0
  181.1720  178.0030  136.0380 C   0  0  0  0  0  2  0  0  0  0  0  0
  191.5740  176.2760  138.5500 C   0  0  0  0  0  2  0  0  0  0  0  0
  192.9820  176.8360  138.6300 C   0  0  0  0  0  2  0  0  0  0  0  0
  193.6510  176.6300  137.3540 N   0  0  0  0  0  2  0  0  0  0  0  0
  193.5170  173.6660  135.3890 N   0  0  0  0  0  0  0  0  0  0  0  0
  194.6380  174.3130  137.2200 C   0  0  0  0  0  0  0  0  0  0  0  0
  193.8580  175.3520  136.7470 C   0  0  0  0  0  0  0  0  0  0  0  0
  194.3950  173.2770  136.3340 C   0  0  0  0  0  0  0  0  0  0  0  0
  193.2060  174.9290  135.6430 N   0  0  0  0  0  0  0  0  0  0  0  0
  195.4060  170.8310  136.4570 C   0  0  0  0  0  3  0  0  0  0  0  0
  194.9460  171.9470  136.4060 C   0  0  0  0  0  0  0  0  0  0  0  0
  196.2180  174.2590  139.3410 C   0  0  0  0  0  3  0  0  0  0  0  0
  195.4960  174.2810  138.3750 C   0  0  0  0  0  0  0  0  0  0  0  0
  192.2720  175.6430  134.8770 N   0  0  0  0  0  2  0  0  0  0  0  0
  190.8340  175.5060  135.0500 C   0  0  0  0  0  2  0  0  0  0  0  0
  188.9640  173.8990  135.4360 C   0  0  0  0  0  2  0  0  0  0  0  0
  190.4680  174.0540  135.2970 C   0  0  0  0  0  3  0  0  0  0  0  0
  189.8420  173.9380  136.6770 C   0  0  0  0  0  2  0  0  0  0  0  0
  191.0280  177.8380  141.6620 C   0  0  0  0  0  2  0  0  0  0  0  0
  189.7210  178.4460  142.7430 S   0  0  0  0  0  0  0  0  0  0  0  0
  190.4500  178.6610  144.1730 C   0  0  0  0  0  2  0  0  0  0  0  0
  184.0720  179.3140  143.9170 C   0  0  0  0  0  3  0  0  0  0  0  0
  188.4440  177.9350  145.6550 C   0  0  2  0  0  0  0  0  0  0  0  0
  187.7600  177.5910  146.9580 C   0  0  0  0  0  0  0  0  0  0  0  0
  188.4240  177.1910  148.0380 C   0  0  0  0  0  2  0  0  0  0  0  0
  183.4540  178.8070  145.0590 C   0  0  0  0  0  3  0  0  0  0  0  0
  186.2450  178.6860  144.8000 C   0  0  0  0  0  0  0  0  0  0  0  0
  184.2250  178.2560  146.0800 C   0  0  0  0  0  3  0  0  0  0  0  0
  190.9300  177.7240  146.5400 C   0  0  0  0  0  1  0  0  0  0  0  0
  189.9540  177.9560  145.3990 C   0  0  2  0  0  0  0  0  0  0  0  0
  187.6380  178.6000  144.6890 O   0  0  0  0  0  0  0  0  0  0  0  0
  189.1350  176.7180  145.0540 C   0  0  0  0  0  2  0  0  0  0  0  0
  186.3690  177.6830  147.0190 O   0  0  0  0  0  0  0  0  0  0  0  0
  185.6140  178.2020  145.9630 C   0  0  0  0  0  0  0  0  0  0  0  0
  185.4610  179.2640  143.7700 C   0  0  0  0  0  0  0  0  0  0  0  0
  186.0040  179.8080  142.5980 O   0  0  0  0  0  0  0  0  0  0  0  0
  186.2600  179.0820  141.4030 C   0  0  0  0  0  1  0  0  0  0  0  0
  1  4  1  0  0  0  0
  2  8  1  1  0  0  0
  2  5  1  0  0  0  0
  2  1  1  0  0  0  0
  3  4  1  0  0  0  0
  3 50  1  1  0  0  0
  4  6  2  0  0  0  0
  5 33  1  6  0  0  0
  5  3  1  0  0  0  0
  8  7  2  0  0  0  0
  9  8  1  0  0  0  0
 10  9  2  0  0  0  0
 11 12  1  0  0  0  0
 11 10  1  0  0  0  0
 12 28  1  0  0  0  0
 13 17  1  1  0  0  0
 14 23  1  1  0  0  0
 14 22  1  0  0  0  0
 14 21  1  0  0  0  0
 15 13  1  0  0  0  0
 15 31  1  1  0  0  0
 16 15  1  0  0  0  0
 18 30  1  6  0  0  0
 18 29  1  0  0  0  0
 20 19  1  1  0  0  0
 20 29  1  0  0  0  0
 20 22  1  0  0  0  0
 21 13  1  0  0  0  0
 22 23  1  6  0  0  0
 24 32  1  0  0  0  0
 24 26  1  0  0  0  0
 26 15  1  0  0  0  0
 26 13  1  0  0  0  0
 27 18  1  0  0  0  0
 27 28  1  0  0  0  0
 28 25  2  1  0  0  0
 28 16  1  0  0  0  0
 32 26  1  0  0  0  0
 33 34  1  0  0  0  0
 35 34  1  0  0  0  0
 36 40  1  0  0  0  0
 36 39  2  0  0  0  0
 37 44  1  0  0  0  0
 38 37  2  0  0  0  0
 38 35  1  0  0  0  0
 39 42  1  0  0  0  0
 39 37  1  0  0  0  0
 40 38  1  0  0  0  0
 42 41  3  0  0  0  0
 44 43  3  0  0  0  0
 45 46  1  0  0  0  0
 45 40  1  0  0  0  0
 46 48  1  0  0  0  0
 47 49  1  0  0  0  0
 48 47  1  0  0  0  0
 48 49  1  0  0  0  0
 50 51  1  0  0  0  0
 51 52  1  0  0  0  0
 52 61  1  0  0  0  0
 53 57  1  0  0  0  0
 54 63  1  6  0  0  0
 54 55  1  0  0  0  0
 55 64  1  0  0  0  0
 55 56  2  0  0  0  0
 57 59  2  0  0  0  0
 58 65  2  0  0  0  0
 61 54  1  0  0  0  0
 61 60  1  1  0  0  0
 62 58  1  0  0  0  0
 62 54  1  0  0  0  0
 63 61  1  0  0  0  0
 65 59  1  0  0  0  0
 65 64  1  0  0  0  0
 66 53  2  0  0  0  0
 66 58  1  0  0  0  0
 67 66  1  0  0  0  0
 68 67  1  0  0  0  0
M  END
>  <MODEL>
4

>  <REMARK>
 VINA RESULT:      -5.9      3.650     11.750
  Name = 
  18 active torsions:
  status: ('A' for Active; 'I' for Inactive)
    1  A    between atoms: O_4  and  C_66
    2  A    between atoms: C_6  and  C_22
    3  A    between atoms: C_6  and  S_29
    4  A    between atoms: C_14  and  C_56
    5  A    between atoms: C_15  and  C_25
    6  A    between atoms: C_15  and  N_47
    7  A    between atoms: C_19  and  C_48
    8  A    between atoms: C_20  and  C_26
    9  A    between atoms: C_25  and  C_31
   10  A    between atoms: C_34  and  O_35
   11  A    between atoms: C_34  and  C_57
   12  A    between atoms: O_35  and  P_54
   13  A    between atoms: C_38  and  C_42
   14  A    between atoms: N_44  and  C_56
   15  A    between atoms: N_47  and  C_58
   16  A    between atoms: C_48  and  N_51
   17  A    between atoms: N_51  and  N_68
   18  A    between atoms: C_62  and  C_65
                            x       y       z     vdW  Elec       q    Type
                         _______ _______ _______ _____ _____    ______ ____

>  <TORSDO>
F 18

$$$$
=
 OpenBabel11042411513D

 68 77  0  0  1  0  0  0  0  0999 V2000
  187.7950  178.6420  136.2520 O   0  0  0  0  0  0  0  0  0  0  0  0
  189.0050  178.2040  136.8440 C   0  0  2  0  0  3  0  0  0  0  0  0
  188.1630  176.4970  135.2760 C   0  0  1  0  0  3  0  0  0  0  0  0
  187.3180  177.7130  135.3580 C   0  0  0  0  0  0  0  0  0  0  0  0
  189.2330  176.7710  136.3360 C   0  0  1  0  0  3  0  0  0  0  0  0
  186.3080  177.9220  134.6410 O   0  0  0  0  0  0  0  0  0  0  0  0
  187.7830  178.5600  138.8710 O   0  0  0  0  0  0  0  0  0  0  0  0
  188.8810  178.2490  138.3300 C   0  0  0  0  0  0  0  0  0  0  0  0
  190.0410  177.9940  139.1260 N   0  0  0  0  0  0  0  0  0  0  0  0
  190.0080  177.1860  140.1470 C   0  0  0  0  0  3  0  0  0  0  0  0
  191.2250  176.9360  140.9640 C   0  0  0  0  0  2  0  0  0  0  0  0
  191.0170  177.4540  142.2420 O   0  0  0  0  0  0  0  0  0  0  0  0
  190.9440  176.4900  146.3880 C   0  0  2  0  0  0  0  0  0  0  0  0
  188.6890  177.8690  146.6160 C   0  0  1  0  0  3  0  0  0  0  0  0
  190.8400  176.3150  144.8940 C   0  0  1  0  0  0  0  0  0  0  0  0
  189.5230  176.4960  144.4240 O   0  0  0  0  0  0  0  0  0  0  0  0
  191.9010  175.5630  147.1210 C   0  0  0  0  0  1  0  0  0  0  0  0
  187.0580  177.4990  142.5280 C   0  0  1  0  0  3  0  0  0  0  0  0
  185.5760  178.5310  145.3630 O   0  0  0  0  0  1  0  0  0  0  0  0
  186.8040  177.9560  145.0340 C   0  0  1  0  0  3  0  0  0  0  0  0
  189.6390  176.8130  147.1890 C   0  0  0  0  0  2  0  0  0  0  0  0
  187.3820  177.2010  146.2230 C   0  0  2  0  0  3  0  0  0  0  0  0
  187.4640  178.0430  147.4880 C   0  0  0  0  0  2  0  0  0  0  0  0
  190.9920  178.7500  144.8910 C   0  0  0  0  0  2  0  0  0  0  0  0
  189.1220  175.6280  141.9790 O   0  0  0  0  0  0  0  0  0  0  0  0
  191.7010  177.5010  145.4570 C   0  0  0  0  0  0  0  0  0  0  0  0
  188.3350  178.0980  142.5570 O   0  0  0  0  0  0  0  0  0  0  0  0
  189.5030  176.8690  142.7560 P   0  0  2  0  0  0  0  0  0  0  0  0
  186.6050  176.9670  143.8980 C   0  0  0  0  0  2  0  0  0  0  0  0
  186.1280  178.4190  142.0500 O   0  0  0  0  0  1  0  0  0  0  0  0
  191.6100  175.1260  144.3160 C   0  0  0  0  0  1  0  0  0  0  0  0
  191.5080  178.7970  146.2700 C   0  0  0  0  0  2  0  0  0  0  0  0
  190.6070  176.6690  135.6990 C   0  0  0  0  0  2  0  0  0  0  0  0
  191.6020  176.1500  136.7200 C   0  0  0  0  0  2  0  0  0  0  0  0
  191.4030  174.7190  136.8970 N   0  0  0  0  0  2  0  0  0  0  0  0
  192.6920  171.9590  135.0600 N   0  0  0  0  0  0  0  0  0  0  0  0
  193.5060  173.3570  136.6120 C   0  0  0  0  0  0  0  0  0  0  0  0
  192.2090  173.7090  136.2860 C   0  0  0  0  0  0  0  0  0  0  0  0
  193.7680  172.2560  135.8150 C   0  0  0  0  0  0  0  0  0  0  0  0
  191.7570  172.8520  135.3460 N   0  0  0  0  0  0  0  0  0  0  0  0
  196.0060  170.8390  135.7980 C   0  0  0  0  0  3  0  0  0  0  0  0
  194.9850  171.4850  135.8000 C   0  0  0  0  0  0  0  0  0  0  0  0
  195.1380  174.4730  138.3680 C   0  0  0  0  0  3  0  0  0  0  0  0
  194.3920  173.9640  137.5700 C   0  0  0  0  0  0  0  0  0  0  0  0
  190.4770  172.8130  134.7710 N   0  0  0  0  0  2  0  0  0  0  0  0
  189.7050  171.5860  134.6360 C   0  0  0  0  0  2  0  0  0  0  0  0
  187.7650  171.5560  136.2050 C   0  0  0  0  0  2  0  0  0  0  0  0
  188.2240  171.8750  134.7930 C   0  0  0  0  0  3  0  0  0  0  0  0
  187.5020  170.5680  135.0800 C   0  0  0  0  0  2  0  0  0  0  0  0
  187.3870  175.2360  135.6460 C   0  0  0  0  0  2  0  0  0  0  0  0
  185.7150  175.6570  136.1690 S   0  0  0  0  0  0  0  0  0  0  0  0
  185.2490  174.3980  137.0760 C   0  0  0  0  0  2  0  0  0  0  0  0
  180.5120  177.4130  140.1790 C   0  0  0  0  0  3  0  0  0  0  0  0
  182.6840  174.0700  137.3260 C   0  0  2  0  0  0  0  0  0  0  0  0
  181.4080  173.2630  137.3880 C   0  0  0  0  0  0  0  0  0  0  0  0
  181.2920  172.0550  136.8460 C   0  0  0  0  0  2  0  0  0  0  0  0
  179.2990  176.7380  140.0520 C   0  0  0  0  0  3  0  0  0  0  0  0
  181.6050  175.7280  138.8150 C   0  0  0  0  0  0  0  0  0  0  0  0
  179.2360  175.5520  139.3250 C   0  0  0  0  0  3  0  0  0  0  0  0
  184.1890  172.1940  136.2190 C   0  0  0  0  0  1  0  0  0  0  0  0
  184.0180  173.6160  136.7270 C   0  0  2  0  0  0  0  0  0  0  0  0
  182.7380  175.2110  138.1760 O   0  0  0  0  0  0  0  0  0  0  0  0
  183.0410  174.4340  135.8900 C   0  0  0  0  0  2  0  0  0  0  0  0
  180.3020  173.8240  138.0280 O   0  0  0  0  0  0  0  0  0  0  0  0
  180.3810  175.0380  138.7160 C   0  0  0  0  0  0  0  0  0  0  0  0
  181.6720  176.9260  139.5710 C   0  0  0  0  0  0  0  0  0  0  0  0
  182.8530  177.6560  139.7580 O   0  0  0  0  0  0  0  0  0  0  0  0
  183.0570  178.6320  140.7710 C   0  0  0  0  0  1  0  0  0  0  0  0
  1  2  1  0  0  0  0
  2  8  1  1  0  0  0
  3  4  1  0  0  0  0
  3 50  1  1  0  0  0
  3  5  1  0  0  0  0
  4  1  1  0  0  0  0
  5 33  1  6  0  0  0
  5  2  1  0  0  0  0
  6  4  2  0  0  0  0
  8  7  2  0  0  0  0
  8  9  1  0  0  0  0
  9 10  2  0  0  0  0
 10 11  1  0  0  0  0
 11 12  1  0  0  0  0
 12 28  1  0  0  0  0
 13 17  1  1  0  0  0
 13 21  1  0  0  0  0
 14 21  1  1  0  0  0
 14 23  1  0  0  0  0
 15 31  1  6  0  0  0
 15 26  1  0  0  0  0
 15 13  1  0  0  0  0
 16 15  1  0  0  0  0
 18 30  1  1  0  0  0
 18 27  1  0  0  0  0
 18 29  1  0  0  0  0
 20 19  1  1  0  0  0
 20 22  1  0  0  0  0
 22 14  1  0  0  0  0
 22 23  1  1  0  0  0
 24 26  1  0  0  0  0
 24 32  1  0  0  0  0
 26 32  1  0  0  0  0
 26 13  1  0  0  0  0
 27 28  1  0  0  0  0
 28 25  2  6  0  0  0
 28 16  1  0  0  0  0
 29 20  1  0  0  0  0
 33 34  1  0  0  0  0
 34 35  1  0  0  0  0
 36 40  1  0  0  0  0
 36 39  2  0  0  0  0
 37 44  1  0  0  0  0
 38 37  2  0  0  0  0
 38 35  1  0  0  0  0
 39 37  1  0  0  0  0
 40 38  1  0  0  0  0
 41 42  3  0  0  0  0
 42 39  1  0  0  0  0
 44 43  3  0  0  0  0
 45 40  1  0  0  0  0
 46 45  1  0  0  0  0
 46 48  1  0  0  0  0
 48 49  1  0  0  0  0
 48 47  1  0  0  0  0
 49 47  1  0  0  0  0
 50 51  1  0  0  0  0
 51 52  1  0  0  0  0
 54 63  1  6  0  0  0
 54 55  1  0  0  0  0
 54 62  1  0  0  0  0
 55 64  1  0  0  0  0
 56 55  2  0  0  0  0
 57 53  1  0  0  0  0
 58 66  1  0  0  0  0
 59 57  2  0  0  0  0
 61 60  1  6  0  0  0
 61 52  1  0  0  0  0
 61 54  1  0  0  0  0
 62 58  1  0  0  0  0
 63 61  1  0  0  0  0
 64 65  1  0  0  0  0
 65 58  2  0  0  0  0
 65 59  1  0  0  0  0
 66 67  1  0  0  0  0
 66 53  2  0  0  0  0
 67 68  1  0  0  0  0
M  END
>  <MODEL>
5

>  <REMARK>
 VINA RESULT:      -5.4      3.802      9.151
  Name = 
  18 active torsions:
  status: ('A' for Active; 'I' for Inactive)
    1  A    between atoms: O_4  and  C_66
    2  A    between atoms: C_6  and  C_22
    3  A    between atoms: C_6  and  S_29
    4  A    between atoms: C_14  and  C_56
    5  A    between atoms: C_15  and  C_25
    6  A    between atoms: C_15  and  N_47
    7  A    between atoms: C_19  and  C_48
    8  A    between atoms: C_20  and  C_26
    9  A    between atoms: C_25  and  C_31
   10  A    between atoms: C_34  and  O_35
   11  A    between atoms: C_34  and  C_57
   12  A    between atoms: O_35  and  P_54
   13  A    between atoms: C_38  and  C_42
   14  A    between atoms: N_44  and  C_56
   15  A    between atoms: N_47  and  C_58
   16  A    between atoms: C_48  and  N_51
   17  A    between atoms: N_51  and  N_68
   18  A    between atoms: C_62  and  C_65
                            x       y       z     vdW  Elec       q    Type
                         _______ _______ _______ _____ _____    ______ ____

>  <TORSDO>
F 18

$$$$
=
 OpenBabel11042411513D

 68 77  0  0  1  0  0  0  0  0999 V2000
  183.0560  176.3270  139.3710 O   0  0  0  0  0  0  0  0  0  0  0  0
  183.2770  177.6750  138.9970 C   0  0  2  0  0  3  0  0  0  0  0  0
  183.0510  176.2640  136.9870 C   0  0  1  0  0  3  0  0  0  0  0  0
  182.9060  175.5260  138.2640 C   0  0  0  0  0  0  0  0  0  0  0  0
  183.3990  177.6770  137.4640 C   0  0  1  0  0  3  0  0  0  0  0  0
  182.6060  174.3090  138.3470 O   0  0  0  0  0  0  0  0  0  0  0  0
  185.5190  178.5140  138.9500 O   0  0  0  0  0  0  0  0  0  0  0  0
  184.5220  178.1780  139.6490 C   0  0  0  0  0  0  0  0  0  0  0  0
  184.5870  178.2110  141.0770 N   0  0  0  0  0  0  0  0  0  0  0  0
  185.3290  179.0740  141.7090 C   0  0  0  0  0  3  0  0  0  0  0  0
  185.3840  179.0920  143.1950 C   0  0  0  0  0  2  0  0  0  0  0  0
  186.7190  179.0110  143.5910 O   0  0  0  0  0  0  0  0  0  0  0  0
  190.1870  176.6050  144.1410 C   0  0  2  0  0  0  0  0  0  0  0  0
  190.4890  177.6780  146.5470 C   0  0  1  0  0  3  0  0  0  0  0  0
  188.7330  176.9780  144.0110 C   0  0  1  0  0  0  0  0  0  0  0  0
  188.1350  177.2440  145.2600 O   0  0  0  0  0  0  0  0  0  0  0  0
  190.7040  175.5290  143.1970 C   0  0  0  0  0  1  0  0  0  0  0  0
  186.3120  178.7280  147.5300 C   0  0  1  0  0  3  0  0  0  0  0  0
  189.0270  178.5760  149.5070 O   0  0  0  0  0  1  0  0  0  0  0  0
  188.7360  178.2290  148.1870 C   0  0  1  0  0  3  0  0  0  0  0  0
  190.8120  176.5410  145.5740 C   0  0  0  0  0  2  0  0  0  0  0  0
  189.6670  177.1280  147.7010 C   0  0  2  0  0  3  0  0  0  0  0  0
  191.1400  177.4560  147.8960 C   0  0  0  0  0  2  0  0  0  0  0  0
  189.6060  179.2530  144.1390 C   0  0  0  0  0  2  0  0  0  0  0  0
  185.5110  177.3020  145.2090 O   0  0  0  0  0  0  0  0  0  0  0  0
  189.8150  177.9250  143.3800 C   0  0  0  0  0  0  0  0  0  0  0  0
  186.7690  179.3460  146.3470 O   0  0  0  0  0  0  0  0  0  0  0  0
  186.7260  178.1950  145.0860 P   0  0  2  0  0  0  0  0  0  0  0  0
  187.3100  177.7100  148.1090 C   0  0  0  0  0  2  0  0  0  0  0  0
  186.0320  179.7050  148.4820 O   0  0  0  0  0  1  0  0  0  0  0  0
  187.9190  176.1250  143.0360 C   0  0  0  0  0  1  0  0  0  0  0  0
  190.9820  178.8240  143.8320 C   0  0  0  0  0  2  0  0  0  0  0  0
  182.4070  178.6640  136.8770 C   0  0  0  0  0  2  0  0  0  0  0  0
  181.1880  177.9160  136.3700 C   0  0  0  0  0  2  0  0  0  0  0  0
  180.0500  178.2270  137.2220 N   0  0  0  0  0  2  0  0  0  0  0  0
  179.7860  177.4480  140.6830 N   0  0  0  0  0  0  0  0  0  0  0  0
  179.5120  176.3100  138.7710 C   0  0  0  0  0  0  0  0  0  0  0  0
  179.8110  177.6330  138.5000 C   0  0  0  0  0  0  0  0  0  0  0  0
  179.5040  176.2420  140.1530 C   0  0  0  0  0  0  0  0  0  0  0  0
  179.9600  178.2860  139.6720 N   0  0  0  0  0  0  0  0  0  0  0  0
  179.0930  174.0650  141.6070 C   0  0  0  0  0  3  0  0  0  0  0  0
  179.2760  175.0600  140.9460 C   0  0  0  0  0  0  0  0  0  0  0  0
  179.0900  174.3220  137.0780 C   0  0  0  0  0  3  0  0  0  0  0  0
  179.2810  175.2300  137.8480 C   0  0  0  0  0  0  0  0  0  0  0  0
  180.3180  179.6300  139.8610 N   0  0  0  0  0  2  0  0  0  0  0  0
  179.8480  180.7040  138.9980 C   0  0  0  0  0  2  0  0  0  0  0  0
  180.3820  182.9810  138.1290 C   0  0  0  0  0  2  0  0  0  0  0  0
  180.9380  181.7410  138.8060 C   0  0  0  0  0  3  0  0  0  0  0  0
  181.1510  181.9530  137.3160 C   0  0  0  0  0  2  0  0  0  0  0  0
  184.1920  175.7160  136.1360 C   0  0  0  0  0  2  0  0  0  0  0  0
  185.6140  175.3200  137.1690 S   0  0  0  0  0  0  0  0  0  0  0  0
  186.8470  176.1110  136.4770 C   0  0  0  0  0  2  0  0  0  0  0  0
  191.4690  177.9670  140.5210 C   0  0  0  0  0  3  0  0  0  0  0  0
  189.3770  175.6040  136.7690 C   0  0  2  0  0  0  0  0  0  0  0  0
  190.7640  175.2440  136.2880 C   0  0  0  0  0  0  0  0  0  0  0  0
  190.9890  174.6050  135.1460 C   0  0  0  0  0  2  0  0  0  0  0  0
  192.7120  177.4540  140.1550 C   0  0  0  0  0  3  0  0  0  0  0  0
  190.4380  176.8460  138.6290 C   0  0  0  0  0  0  0  0  0  0  0  0
  192.8290  176.6540  139.0210 C   0  0  0  0  0  3  0  0  0  0  0  0
  188.0820  174.8310  134.5940 C   0  0  0  0  0  1  0  0  0  0  0  0
  188.0660  175.3730  136.0130 C   0  0  2  0  0  0  0  0  0  0  0  0
  189.3160  176.5150  137.8600 O   0  0  0  0  0  0  0  0  0  0  0  0
  188.5460  174.3580  137.0430 C   0  0  0  0  0  2  0  0  0  0  0  0
  191.8520  175.5870  137.0940 O   0  0  0  0  0  0  0  0  0  0  0  0
  191.7030  176.3570  138.2510 C   0  0  0  0  0  0  0  0  0  0  0  0
  190.3240  177.6760  139.7730 C   0  0  0  0  0  0  0  0  0  0  0  0
  189.1150  178.2420  140.2010 O   0  0  0  0  0  0  0  0  0  0  0  0
  187.9300  178.3200  139.4210 C   0  0  0  0  0  1  0  0  0  0  0  0
  2  1  1  0  0  0  0
  2  8  1  1  0  0  0
  3 50  1  6  0  0  0
  3  5  1  0  0  0  0
  3  4  1  0  0  0  0
  4  6  2  0  0  0  0
  4  1  1  0  0  0  0
  5 33  1  6  0  0  0
  5  2  1  0  0  0  0
  7  8  2  0  0  0  0
  8  9  1  0  0  0  0
  9 10  2  0  0  0  0
 10 11  1  0  0  0  0
 11 12  1  0  0  0  0
 12 28  1  0  0  0  0
 13 17  1  6  0  0  0
 13 21  1  0  0  0  0
 14 21  1  6  0  0  0
 14 22  1  0  0  0  0
 14 23  1  0  0  0  0
 15 31  1  6  0  0  0
 15 13  1  0  0  0  0
 15 16  1  0  0  0  0
 18 29  1  0  0  0  0
 18 30  1  1  0  0  0
 20 19  1  1  0  0  0
 22 23  1  1  0  0  0
 22 20  1  0  0  0  0
 26 32  1  0  0  0  0
 26 15  1  0  0  0  0
 26 24  1  0  0  0  0
 26 13  1  0  0  0  0
 27 18  1  0  0  0  0
 28 25  2  1  0  0  0
 28 16  1  0  0  0  0
 28 27  1  0  0  0  0
 29 20  1  0  0  0  0
 32 24  1  0  0  0  0
 34 33  1  0  0  0  0
 34 35  1  0  0  0  0
 35 38  1  0  0  0  0
 37 39  1  0  0  0  0
 38 37  2  0  0  0  0
 38 40  1  0  0  0  0
 39 36  2  0  0  0  0
 39 42  1  0  0  0  0
 40 45  1  0  0  0  0
 40 36  1  0  0  0  0
 42 41  3  0  0  0  0
 43 44  3  0  0  0  0
 44 37  1  0  0  0  0
 46 45  1  0  0  0  0
 47 48  1  0  0  0  0
 48 46  1  0  0  0  0
 49 47  1  0  0  0  0
 49 48  1  0  0  0  0
 50 51  1  0  0  0  0
 52 51  1  0  0  0  0
 54 63  1  1  0  0  0
 54 62  1  0  0  0  0
 55 54  1  0  0  0  0
 55 64  1  0  0  0  0
 56 55  2  0  0  0  0
 57 53  1  0  0  0  0
 58 66  1  0  0  0  0
 59 57  2  0  0  0  0
 61 60  1  6  0  0  0
 61 52  1  0  0  0  0
 61 54  1  0  0  0  0
 61 63  1  0  0  0  0
 62 58  1  0  0  0  0
 64 65  1  0  0  0  0
 65 58  2  0  0  0  0
 65 59  1  0  0  0  0
 66 67  1  0  0  0  0
 66 53  2  0  0  0  0
 68 67  1  0  0  0  0
M  END
>  <MODEL>
6

>  <REMARK>
 VINA RESULT:      -5.0      1.535      2.150
  Name = 
  18 active torsions:
  status: ('A' for Active; 'I' for Inactive)
    1  A    between atoms: O_4  and  C_66
    2  A    between atoms: C_6  and  C_22
    3  A    between atoms: C_6  and  S_29
    4  A    between atoms: C_14  and  C_56
    5  A    between atoms: C_15  and  C_25
    6  A    between atoms: C_15  and  N_47
    7  A    between atoms: C_19  and  C_48
    8  A    between atoms: C_20  and  C_26
    9  A    between atoms: C_25  and  C_31
   10  A    between atoms: C_34  and  O_35
   11  A    between atoms: C_34  and  C_57
   12  A    between atoms: O_35  and  P_54
   13  A    between atoms: C_38  and  C_42
   14  A    between atoms: N_44  and  C_56
   15  A    between atoms: N_47  and  C_58
   16  A    between atoms: C_48  and  N_51
   17  A    between atoms: N_51  and  N_68
   18  A    between atoms: C_62  and  C_65
                            x       y       z     vdW  Elec       q    Type
                         _______ _______ _______ _____ _____    ______ ____

>  <TORSDO>
F 18

$$$$
=
 OpenBabel11042411513D

 68 77  0  0  1  0  0  0  0  0999 V2000
  188.1280  176.9200  140.0280 O   0  0  0  0  0  0  0  0  0  0  0  0
  189.0410  177.0460  138.9530 C   0  0  2  0  0  3  0  0  0  0  0  0
  190.2590  176.6190  141.0550 C   0  0  1  0  0  3  0  0  0  0  0  0
  188.7860  176.6600  141.2070 C   0  0  0  0  0  0  0  0  0  0  0  0
  190.4450  176.9760  139.5770 C   0  0  1  0  0  3  0  0  0  0  0  0
  188.1780  176.4150  142.2790 O   0  0  0  0  0  0  0  0  0  0  0  0
  189.2960  179.4150  138.7210 O   0  0  0  0  0  0  0  0  0  0  0  0
  188.8150  178.3450  138.2540 C   0  0  0  0  0  0  0  0  0  0  0  0
  187.9930  178.3630  137.0850 N   0  0  0  0  0  0  0  0  0  0  0  0
  187.7520  177.2810  136.4000 C   0  0  0  0  0  3  0  0  0  0  0  0
  186.8950  177.3200  135.1850 C   0  0  0  0  0  2  0  0  0  0  0  0
  185.5590  177.2930  135.5820 O   0  0  0  0  0  0  0  0  0  0  0  0
  181.9190  177.0940  137.7800 C   0  0  2  0  0  0  0  0  0  0  0  0
  181.3500  174.8220  136.5350 C   0  0  1  0  0  3  0  0  0  0  0  0
  183.3960  177.0400  137.4850 C   0  0  1  0  0  0  0  0  0  0  0  0
  183.8310  175.7370  137.1650 O   0  0  0  0  0  0  0  0  0  0  0  0
  181.4770  178.0350  138.8910 C   0  0  0  0  0  1  0  0  0  0  0  0
  185.4050  173.3270  135.6190 C   0  0  1  0  0  3  0  0  0  0  0  0
  182.4400  171.7460  135.5120 O   0  0  0  0  0  1  0  0  0  0  0  0
  182.8890  172.9880  135.9590 C   0  0  1  0  0  3  0  0  0  0  0  0
  181.1000  175.7610  137.7190 C   0  0  0  0  0  2  0  0  0  0  0  0
  181.9740  173.5340  137.0450 C   0  0  2  0  0  3  0  0  0  0  0  0
  180.5090  173.5680  136.6360 C   0  0  0  0  0  2  0  0  0  0  0  0
  182.6410  177.1720  135.1690 C   0  0  0  0  0  2  0  0  0  0  0  0
  186.4360  175.4230  137.2340 O   0  0  0  0  0  0  0  0  0  0  0  0
  182.4660  177.8720  136.5330 C   0  0  0  0  0  0  0  0  0  0  0  0
  185.1490  174.5970  135.0610 O   0  0  0  0  0  0  0  0  0  0  0  0
  185.3010  175.7680  136.2940 P   0  0  2  0  0  0  0  0  0  0  0  0
  184.2820  172.8340  136.5480 C   0  0  0  0  0  2  0  0  0  0  0  0
  185.6060  172.4050  134.5950 O   0  0  0  0  0  1  0  0  0  0  0  0
  184.2870  177.8380  138.4390 C   0  0  0  0  0  1  0  0  0  0  0  0
  181.2990  177.6430  135.5510 C   0  0  0  0  0  2  0  0  0  0  0  0
  191.2500  175.8850  138.8960 C   0  0  0  0  0  2  0  0  0  0  0  0
  192.4140  176.5060  138.1470 C   0  0  0  0  0  2  0  0  0  0  0  0
  192.6620  175.7450  136.9320 N   0  0  0  0  0  2  0  0  0  0  0  0
  194.6250  172.7830  137.1110 N   0  0  0  0  0  0  0  0  0  0  0  0
  192.5990  173.3030  136.3040 C   0  0  0  0  0  0  0  0  0  0  0  0
  193.1710  174.4100  136.9050 C   0  0  0  0  0  0  0  0  0  0  0  0
  193.5460  172.3050  136.4610 C   0  0  0  0  0  0  0  0  0  0  0  0
  194.3830  174.0560  137.3840 N   0  0  0  0  0  0  0  0  0  0  0  0
  193.3720  169.8160  135.5710 C   0  0  0  0  0  3  0  0  0  0  0  0
  193.4480  170.9530  135.9730 C   0  0  0  0  0  0  0  0  0  0  0  0
  190.2580  173.1050  135.0890 C   0  0  0  0  0  3  0  0  0  0  0  0
  191.3260  173.1930  135.6410 C   0  0  0  0  0  0  0  0  0  0  0  0
  195.3230  174.8820  138.0210 N   0  0  0  0  0  2  0  0  0  0  0  0
  196.7060  174.4870  138.2390 C   0  0  0  0  0  2  0  0  0  0  0  0
  198.8530  173.9990  137.0640 C   0  0  0  0  0  2  0  0  0  0  0  0
  197.3410  174.0470  136.9330 C   0  0  0  0  0  3  0  0  0  0  0  0
  198.1870  175.1890  136.3940 C   0  0  0  0  0  2  0  0  0  0  0  0
  190.9540  177.6630  141.9240 C   0  0  0  0  0  2  0  0  0  0  0  0
  189.7660  178.4630  143.0180 S   0  0  0  0  0  0  0  0  0  0  0  0
  190.5530  178.6140  144.4250 C   0  0  0  0  0  2  0  0  0  0  0  0
  184.1990  179.3040  143.8690 C   0  0  0  0  0  3  0  0  0  0  0  0
  188.4830  178.0210  145.8780 C   0  0  2  0  0  0  0  0  0  0  0  0
  187.7460  177.7840  147.1750 C   0  0  0  0  0  0  0  0  0  0  0  0
  188.3620  177.4610  148.3080 C   0  0  0  0  0  2  0  0  0  0  0  0
  183.5320  178.8910  145.0210 C   0  0  0  0  0  3  0  0  0  0  0  0
  186.3290  178.7250  144.8820 C   0  0  0  0  0  0  0  0  0  0  0  0
  184.2550  178.4120  146.1100 C   0  0  0  0  0  3  0  0  0  0  0  0
  190.9300  177.8550  146.8730 C   0  0  0  0  0  1  0  0  0  0  0  0
  190.0020  178.0090  145.6810 C   0  0  2  0  0  0  0  0  0  0  0  0
  187.7230  178.6180  144.8330 O   0  0  0  0  0  0  0  0  0  0  0  0
  189.1820  176.7550  145.3990 C   0  0  0  0  0  2  0  0  0  0  0  0
  186.3540  177.8930  147.1740 O   0  0  0  0  0  0  0  0  0  0  0  0
  185.6470  178.3370  146.0520 C   0  0  0  0  0  0  0  0  0  0  0  0
  185.5920  179.2300  143.7810 C   0  0  0  0  0  0  0  0  0  0  0  0
  186.1870  179.6780  142.5940 O   0  0  0  0  0  0  0  0  0  0  0  0
  185.8100  179.2670  141.2870 C   0  0  0  0  0  1  0  0  0  0  0  0
  1  4  1  0  0  0  0
  2  8  1  1  0  0  0
  2  5  1  0  0  0  0
  2  1  1  0  0  0  0
  3  4  1  0  0  0  0
  3 50  1  1  0  0  0
  4  6  2  0  0  0  0
  5 33  1  6  0  0  0
  5  3  1  0  0  0  0
  8  7  2  0  0  0  0
  9  8  1  0  0  0  0
 10  9  2  0  0  0  0
 11 12  1  0  0  0  0
 11 10  1  0  0  0  0
 12 28  1  0  0  0  0
 13 17  1  1  0  0  0
 14 23  1  1  0  0  0
 14 22  1  0  0  0  0
 14 21  1  0  0  0  0
 15 13  1  0  0  0  0
 15 31  1  1  0  0  0
 16 15  1  0  0  0  0
 18 30  1  6  0  0  0
 18 29  1  0  0  0  0
 20 19  1  1  0  0  0
 20 29  1  0  0  0  0
 20 22  1  0  0  0  0
 21 13  1  0  0  0  0
 22 23  1  6  0  0  0
 24 32  1  0  0  0  0
 24 26  1  0  0  0  0
 26 15  1  0  0  0  0
 26 13  1  0  0  0  0
 27 18  1  0  0  0  0
 27 28  1  0  0  0  0
 28 16  1  0  0  0  0
 28 25  2  1  0  0  0
 32 26  1  0  0  0  0
 34 33  1  0  0  0  0
 35 34  1  0  0  0  0
 36 40  1  0  0  0  0
 37 39  1  0  0  0  0
 37 38  2  0  0  0  0
 38 35  1  0  0  0  0
 38 40  1  0  0  0  0
 39 36  2  0  0  0  0
 40 45  1  0  0  0  0
 41 42  3  0  0  0  0
 42 39  1  0  0  0  0
 43 44  3  0  0  0  0
 44 37  1  0  0  0  0
 45 46  1  0  0  0  0
 48 47  1  0  0  0  0
 48 46  1  0  0  0  0
 49 48  1  0  0  0  0
 49 47  1  0  0  0  0
 50 51  1  0  0  0  0
 51 52  1  0  0  0  0
 52 61  1  0  0  0  0
 53 57  1  0  0  0  0
 54 63  1  6  0  0  0
 54 55  1  0  0  0  0
 55 56  2  0  0  0  0
 57 59  2  0  0  0  0
 58 65  2  0  0  0  0
 61 54  1  0  0  0  0
 61 60  1  1  0  0  0
 62 58  1  0  0  0  0
 62 54  1  0  0  0  0
 63 61  1  0  0  0  0
 64 55  1  0  0  0  0
 65 59  1  0  0  0  0
 65 64  1  0  0  0  0
 66 53  2  0  0  0  0
 66 58  1  0  0  0  0
 67 66  1  0  0  0  0
 68 67  1  0  0  0  0
M  END
>  <MODEL>
7

>  <REMARK>
 VINA RESULT:      -4.9      3.894     12.187
  Name = 
  18 active torsions:
  status: ('A' for Active; 'I' for Inactive)
    1  A    between atoms: O_4  and  C_66
    2  A    between atoms: C_6  and  C_22
    3  A    between atoms: C_6  and  S_29
    4  A    between atoms: C_14  and  C_56
    5  A    between atoms: C_15  and  C_25
    6  A    between atoms: C_15  and  N_47
    7  A    between atoms: C_19  and  C_48
    8  A    between atoms: C_20  and  C_26
    9  A    between atoms: C_25  and  C_31
   10  A    between atoms: C_34  and  O_35
   11  A    between atoms: C_34  and  C_57
   12  A    between atoms: O_35  and  P_54
   13  A    between atoms: C_38  and  C_42
   14  A    between atoms: N_44  and  C_56
   15  A    between atoms: N_47  and  C_58
   16  A    between atoms: C_48  and  N_51
   17  A    between atoms: N_51  and  N_68
   18  A    between atoms: C_62  and  C_65
                            x       y       z     vdW  Elec       q    Type
                         _______ _______ _______ _____ _____    ______ ____

>  <TORSDO>
F 18

$$$$
=
 OpenBabel11042411513D

 68 77  0  0  1  0  0  0  0  0999 V2000
  190.4480  178.6570  139.2270 O   0  0  0  0  0  0  0  0  0  0  0  0
  189.1480  178.1900  139.5420 C   0  0  2  0  0  3  0  0  0  0  0  0
  190.8130  176.4240  139.9790 C   0  0  1  0  0  3  0  0  0  0  0  0
  191.3950  177.6940  139.4840 C   0  0  0  0  0  0  0  0  0  0  0  0
  189.3090  176.7100  139.9250 C   0  0  1  0  0  3  0  0  0  0  0  0
  192.6270  177.9110  139.3710 O   0  0  0  0  0  0  0  0  0  0  0  0
  188.7200  178.2600  137.1880 O   0  0  0  0  0  0  0  0  0  0  0  0
  188.2550  178.3580  138.3580 C   0  0  0  0  0  0  0  0  0  0  0  0
  186.8830  178.6940  138.5730 N   0  0  0  0  0  0  0  0  0  0  0  0
  185.9290  178.1690  137.8590 C   0  0  0  0  0  3  0  0  0  0  0  0
  184.5060  178.5330  138.0970 C   0  0  0  0  0  2  0  0  0  0  0  0
  183.6960  177.6480  137.3860 O   0  0  0  0  0  0  0  0  0  0  0  0
  180.9940  174.6480  136.0370 C   0  0  2  0  0  0  0  0  0  0  0  0
  180.1480  174.3580  138.5340 C   0  0  1  0  0  3  0  0  0  0  0  0
  181.5940  176.0130  136.2580 C   0  0  1  0  0  0  0  0  0  0  0  0
  181.0660  176.6510  137.3990 O   0  0  0  0  0  0  0  0  0  0  0  0
  180.7400  174.2380  134.5940 C   0  0  0  0  0  1  0  0  0  0  0  0
  180.9620  178.3800  140.1700 C   0  0  1  0  0  3  0  0  0  0  0  0
  179.1000  175.8740  141.4150 O   0  0  0  0  0  1  0  0  0  0  0  0
  179.7620  176.1180  140.2120 C   0  0  1  0  0  3  0  0  0  0  0  0
  179.9000  174.1470  137.0370 C   0  0  0  0  0  2  0  0  0  0  0  0
  179.1200  175.3380  139.0750 C   0  0  2  0  0  3  0  0  0  0  0  0
  178.9890  173.8500  139.3650 C   0  0  0  0  0  2  0  0  0  0  0  0
  183.0350  174.8060  137.8140 C   0  0  0  0  0  2  0  0  0  0  0  0
  181.5760  179.2230  137.5280 O   0  0  0  0  0  0  0  0  0  0  0  0
  182.5260  174.7530  136.3580 C   0  0  0  0  0  0  0  0  0  0  0  0
  182.1190  177.7470  139.6690 O   0  0  0  0  0  0  0  0  0  0  0  0
  182.1120  177.8770  137.9670 P   0  0  2  0  0  0  0  0  0  0  0  0
  179.6690  177.5990  139.8820 C   0  0  0  0  0  2  0  0  0  0  0  0
  181.1000  178.5730  141.5420 O   0  0  0  0  0  1  0  0  0  0  0  0
  181.7440  176.8770  135.0040 C   0  0  0  0  0  1  0  0  0  0  0  0
  182.6960  173.4950  137.2330 C   0  0  0  0  0  2  0  0  0  0  0  0
  188.7040  176.4700  141.2960 C   0  0  0  0  0  2  0  0  0  0  0  0
  188.8460  177.7240  142.1390 C   0  0  0  0  0  2  0  0  0  0  0  0
  188.0420  177.5830  143.3440 N   0  0  0  0  0  2  0  0  0  0  0  0
  188.6680  177.2880  146.8340 N   0  0  0  0  0  0  0  0  0  0  0  0
  189.8740  176.9800  144.9690 C   0  0  0  0  0  0  0  0  0  0  0  0
  188.5740  177.3220  144.6440 C   0  0  0  0  0  0  0  0  0  0  0  0
  189.8850  176.9670  146.3530 C   0  0  0  0  0  0  0  0  0  0  0  0
  187.8790  177.4910  145.7900 N   0  0  0  0  0  0  0  0  0  0  0  0
  191.9820  176.4650  147.8930 C   0  0  0  0  0  3  0  0  0  0  0  0
  191.0250  176.6990  147.1930 C   0  0  0  0  0  0  0  0  0  0  0  0
  191.9160  176.4960  143.3580 C   0  0  0  0  0  3  0  0  0  0  0  0
  190.9840  176.7150  144.0900 C   0  0  0  0  0  0  0  0  0  0  0  0
  186.5410  177.8920  145.9240 N   0  0  0  0  0  2  0  0  0  0  0  0
  185.9090  178.8560  145.0350 C   0  0  0  0  0  2  0  0  0  0  0  0
  184.4620  178.4950  143.0340 C   0  0  0  0  0  2  0  0  0  0  0  0
  184.5780  178.3220  144.5380 C   0  0  0  0  0  3  0  0  0  0  0  0
  183.7730  179.4780  143.9670 C   0  0  0  0  0  2  0  0  0  0  0  0
  191.1430  175.2480  139.0640 C   0  0  0  0  0  2  0  0  0  0  0  0
  191.3330  175.8090  137.3630 S   0  0  0  0  0  0  0  0  0  0  0  0
  192.4370  174.8060  136.7300 C   0  0  0  0  0  2  0  0  0  0  0  0
  196.1550  169.6280  136.0090 C   0  0  0  0  0  3  0  0  0  0  0  0
  194.8360  174.3470  135.8480 C   0  0  2  0  0  0  0  0  0  0  0  0
  196.2840  174.6900  135.5790 C   0  0  0  0  0  0  0  0  0  0  0  0
  196.7260  175.9400  135.4980 C   0  0  0  0  0  2  0  0  0  0  0  0
  197.4340  169.9670  135.5710 C   0  0  0  0  0  3  0  0  0  0  0  0
  195.5150  171.9700  135.9880 C   0  0  0  0  0  0  0  0  0  0  0  0
  197.7650  171.3030  135.3570 C   0  0  0  0  0  3  0  0  0  0  0  0
  194.0070  176.8210  136.2940 C   0  0  0  0  0  1  0  0  0  0  0  0
  193.7070  175.3390  136.1400 C   0  0  2  0  0  0  0  0  0  0  0  0
  194.5720  172.9870  136.1740 O   0  0  0  0  0  0  0  0  0  0  0  0
  193.9340  174.8300  134.7200 C   0  0  0  0  0  2  0  0  0  0  0  0
  197.1870  173.6410  135.3910 O   0  0  0  0  0  0  0  0  0  0  0  0
  196.8190  172.3050  135.5720 C   0  0  0  0  0  0  0  0  0  0  0  0
  195.1860  170.6110  136.2240 C   0  0  0  0  0  0  0  0  0  0  0  0
  193.9290  170.1880  136.6770 O   0  0  0  0  0  0  0  0  0  0  0  0
  192.8520  169.7870  135.8420 C   0  0  0  0  0  1  0  0  0  0  0  0
  1  4  1  0  0  0  0
  1  2  1  0  0  0  0
  2  8  1  6  0  0  0
  2  5  1  0  0  0  0
  3 50  1  6  0  0  0
  4  3  1  0  0  0  0
  5  3  1  0  0  0  0
  5 33  1  1  0  0  0
  6  4  2  0  0  0  0
  7  8  2  0  0  0  0
  8  9  1  0  0  0  0
 10 11  1  0  0  0  0
 10  9  2  0  0  0  0
 12 28  1  0  0  0  0
 12 11  1  0  0  0  0
 13 17  1  6  0  0  0
 13 15  1  0  0  0  0
 13 26  1  0  0  0  0
 13 21  1  0  0  0  0
 14 21  1  6  0  0  0
 14 22  1  0  0  0  0
 14 23  1  0  0  0  0
 15 31  1  6  0  0  0
 15 26  1  0  0  0  0
 15 16  1  0  0  0  0
 16 28  1  0  0  0  0
 18 30  1  1  0  0  0
 20 19  1  1  0  0  0
 22 23  1  1  0  0  0
 22 20  1  0  0  0  0
 26 32  1  0  0  0  0
 26 24  1  0  0  0  0
 27 18  1  0  0  0  0
 28 25  2  6  0  0  0
 28 27  1  0  0  0  0
 29 18  1  0  0  0  0
 29 20  1  0  0  0  0
 32 24  1  0  0  0  0
 33 34  1  0  0  0  0
 34 35  1  0  0  0  0
 35 38  1  0  0  0  0
 37 39  1  0  0  0  0
 38 37  2  0  0  0  0
 38 40  1  0  0  0  0
 39 36  2  0  0  0  0
 39 42  1  0  0  0  0
 40 45  1  0  0  0  0
 40 36  1  0  0  0  0
 42 41  3  0  0  0  0
 43 44  3  0  0  0  0
 44 37  1  0  0  0  0
 46 45  1  0  0  0  0
 47 49  1  0  0  0  0
 47 48  1  0  0  0  0
 48 46  1  0  0  0  0
 49 48  1  0  0  0  0
 51 50  1  0  0  0  0
 52 51  1  0  0  0  0
 53 66  1  0  0  0  0
 54 63  1  6  0  0  0
 54 61  1  0  0  0  0
 54 62  1  0  0  0  0
 55 54  1  0  0  0  0
 56 55  2  0  0  0  0
 57 53  2  0  0  0  0
 58 62  1  0  0  0  0
 58 66  2  0  0  0  0
 59 57  1  0  0  0  0
 59 65  2  0  0  0  0
 61 60  1  1  0  0  0
 61 52  1  0  0  0  0
 63 61  1  0  0  0  0
 64 65  1  0  0  0  0
 64 55  1  0  0  0  0
 65 58  1  0  0  0  0
 66 67  1  0  0  0  0
 68 67  1  0  0  0  0
M  END
>  <MODEL>
8

>  <REMARK>
 VINA RESULT:      -4.8      4.059      9.650
  Name = 
  18 active torsions:
  status: ('A' for Active; 'I' for Inactive)
    1  A    between atoms: O_4  and  C_66
    2  A    between atoms: C_6  and  C_22
    3  A    between atoms: C_6  and  S_29
    4  A    between atoms: C_14  and  C_56
    5  A    between atoms: C_15  and  C_25
    6  A    between atoms: C_15  and  N_47
    7  A    between atoms: C_19  and  C_48
    8  A    between atoms: C_20  and  C_26
    9  A    between atoms: C_25  and  C_31
   10  A    between atoms: C_34  and  O_35
   11  A    between atoms: C_34  and  C_57
   12  A    between atoms: O_35  and  P_54
   13  A    between atoms: C_38  and  C_42
   14  A    between atoms: N_44  and  C_56
   15  A    between atoms: N_47  and  C_58
   16  A    between atoms: C_48  and  N_51
   17  A    between atoms: N_51  and  N_68
   18  A    between atoms: C_62  and  C_65
                            x       y       z     vdW  Elec       q    Type
                         _______ _______ _______ _____ _____    ______ ____

>  <TORSDO>
F 18

$$$$
=
 OpenBabel11042411513D

 68 77  0  0  1  0  0  0  0  0999 V2000
  188.1320  175.1370  137.7780 O   0  0  0  0  0  0  0  0  0  0  0  0
  187.9370  176.3920  137.1510 C   0  0  2  0  0  3  0  0  0  0  0  0
  188.0190  174.6010  135.4570 C   0  0  1  0  0  3  0  0  0  0  0  0
  188.1600  174.1210  136.8520 C   0  0  0  0  0  0  0  0  0  0  0  0
  187.9720  176.1210  135.6380 C   0  0  1  0  0  3  0  0  0  0  0  0
  188.2260  172.9100  137.1800 O   0  0  0  0  0  0  0  0  0  0  0  0
  189.9800  177.5860  136.7890 O   0  0  0  0  0  0  0  0  0  0  0  0
  189.0190  177.3330  137.5670 C   0  0  0  0  0  0  0  0  0  0  0  0
  188.9780  177.8900  138.8830 N   0  0  0  0  0  0  0  0  0  0  0  0
  190.0200  177.8780  139.6650 C   0  0  0  0  0  3  0  0  0  0  0  0
  189.9570  178.4610  141.0310 C   0  0  0  0  0  2  0  0  0  0  0  0
  190.3880  177.5000  141.9450 O   0  0  0  0  0  0  0  0  0  0  0  0
  191.0980  176.8190  146.0870 C   0  0  2  0  0  0  0  0  0  0  0  0
  188.9280  178.2400  146.6410 C   0  0  1  0  0  3  0  0  0  0  0  0
  190.7150  176.5440  144.6550 C   0  0  1  0  0  0  0  0  0  0  0  0
  189.3320  176.7110  144.4310 O   0  0  0  0  0  0  0  0  0  0  0  0
  192.1770  175.9310  146.6890 C   0  0  0  0  0  1  0  0  0  0  0  0
  186.5540  177.6160  142.9680 C   0  0  1  0  0  3  0  0  0  0  0  0
  185.6340  178.8570  145.9540 O   0  0  0  0  0  1  0  0  0  0  0  0
  186.7780  178.2450  145.4400 C   0  0  1  0  0  3  0  0  0  0  0  0
  189.9680  177.2120  147.0960 C   0  0  0  0  0  2  0  0  0  0  0  0
  187.5700  177.5650  146.5480 C   0  0  2  0  0  3  0  0  0  0  0  0
  187.8890  178.4890  147.7140 C   0  0  0  0  0  2  0  0  0  0  0  0
  190.8630  178.9720  144.4560 C   0  0  0  0  0  2  0  0  0  0  0  0
  188.4770  175.6850  142.1710 O   0  0  0  0  0  0  0  0  0  0  0  0
  191.6660  177.7550  144.9630 C   0  0  0  0  0  0  0  0  0  0  0  0
  187.8140  178.1990  142.7150 O   0  0  0  0  0  0  0  0  0  0  0  0
  188.9980  176.9710  142.7750 P   0  0  2  0  0  0  0  0  0  0  0  0
  186.3680  177.1840  144.4330 C   0  0  0  0  0  2  0  0  0  0  0  0
  185.5510  178.5140  142.6120 O   0  0  0  0  0  1  0  0  0  0  0  0
  191.3610  175.3090  144.0260 C   0  0  0  0  0  1  0  0  0  0  0  0
  191.6310  179.1050  145.7070 C   0  0  0  0  0  2  0  0  0  0  0  0
  186.7100  176.6640  134.9950 C   0  0  0  0  0  2  0  0  0  0  0  0
  185.5680  176.6090  135.9930 C   0  0  0  0  0  2  0  0  0  0  0  0
  184.3740  176.1120  135.3260 N   0  0  0  0  0  2  0  0  0  0  0  0
  181.4420  175.8270  137.3210 N   0  0  0  0  0  0  0  0  0  0  0  0
  182.7120  174.4010  136.1450 C   0  0  0  0  0  0  0  0  0  0  0  0
  183.1870  175.6920  136.0010 C   0  0  0  0  0  0  0  0  0  0  0  0
  181.6150  174.5350  136.9780 C   0  0  0  0  0  0  0  0  0  0  0  0
  182.3940  176.5200  136.7150 N   0  0  0  0  0  0  0  0  0  0  0  0
  180.0890  172.5680  137.8840 C   0  0  0  0  0  3  0  0  0  0  0  0
  180.7810  173.4660  137.4670 C   0  0  0  0  0  0  0  0  0  0  0  0
  183.6730  172.1590  135.1230 C   0  0  0  0  0  3  0  0  0  0  0  0
  183.2330  173.1810  135.5860 C   0  0  0  0  0  0  0  0  0  0  0  0
  182.5440  177.9050  136.8900 N   0  0  0  0  0  2  0  0  0  0  0  0
  182.6450  178.5320  138.1990 C   0  0  0  0  0  2  0  0  0  0  0  0
  185.0990  178.5460  138.6480 C   0  0  0  0  0  2  0  0  0  0  0  0
  183.8940  179.3910  138.2780 C   0  0  0  0  0  3  0  0  0  0  0  0
  184.4020  179.3790  139.7100 C   0  0  0  0  0  2  0  0  0  0  0  0
  189.2230  174.2250  134.5990 C   0  0  0  0  0  2  0  0  0  0  0  0
  190.7510  174.4320  135.5310 S   0  0  0  0  0  0  0  0  0  0  0  0
  191.8160  173.4740  134.7760 C   0  0  0  0  0  2  0  0  0  0  0  0
  197.7130  175.7900  135.7890 C   0  0  0  0  0  3  0  0  0  0  0  0
  193.9860  172.6070  135.9110 C   0  0  2  0  0  0  0  0  0  0  0  0
  194.9710  171.5480  136.3480 C   0  0  0  0  0  0  0  0  0  0  0  0
  194.6360  170.2720  136.5070 C   0  0  0  0  0  2  0  0  0  0  0  0
  198.5470  174.8400  136.3760 C   0  0  0  0  0  3  0  0  0  0  0  0
  195.8790  174.1980  135.7930 C   0  0  0  0  0  0  0  0  0  0  0  0
  198.0610  173.5650  136.6570 C   0  0  0  0  0  3  0  0  0  0  0  0
  191.9600  170.9720  135.4330 C   0  0  0  0  0  1  0  0  0  0  0  0
  192.5230  172.3800  135.5180 C   0  0  2  0  0  0  0  0  0  0  0  0
  194.5480  173.8570  135.5260 O   0  0  0  0  0  0  0  0  0  0  0  0
  192.8790  172.7940  136.9410 C   0  0  0  0  0  2  0  0  0  0  0  0
  196.2850  171.9370  136.6120 O   0  0  0  0  0  0  0  0  0  0  0  0
  196.7380  173.2350  136.3600 C   0  0  0  0  0  0  0  0  0  0  0  0
  196.3810  175.4890  135.4900 C   0  0  0  0  0  0  0  0  0  0  0  0
  195.6130  176.4940  134.8890 O   0  0  0  0  0  0  0  0  0  0  0  0
  195.7930  177.8900  135.0900 C   0  0  0  0  0  1  0  0  0  0  0  0
  2  8  1  6  0  0  0
  2  1  1  0  0  0  0
  3 50  1  6  0  0  0
  3  5  1  0  0  0  0
  3  4  1  0  0  0  0
  4  6  2  0  0  0  0
  4  1  1  0  0  0  0
  5 33  1  6  0  0  0
  5  2  1  0  0  0  0
  7  8  2  0  0  0  0
  8  9  1  0  0  0  0
  9 10  2  0  0  0  0
 10 11  1  0  0  0  0
 11 12  1  0  0  0  0
 12 28  1  0  0  0  0
 13 17  1  1  0  0  0
 13 21  1  0  0  0  0
 14 21  1  1  0  0  0
 14 23  1  0  0  0  0
 15 31  1  6  0  0  0
 15 26  1  0  0  0  0
 15 13  1  0  0  0  0
 16 15  1  0  0  0  0
 18 30  1  1  0  0  0
 18 29  1  0  0  0  0
 20 19  1  1  0  0  0
 20 22  1  0  0  0  0
 22 14  1  0  0  0  0
 22 23  1  1  0  0  0
 24 26  1  0  0  0  0
 24 32  1  0  0  0  0
 26 32  1  0  0  0  0
 26 13  1  0  0  0  0
 27 28  1  0  0  0  0
 27 18  1  0  0  0  0
 28 25  2  6  0  0  0
 28 16  1  0  0  0  0
 29 20  1  0  0  0  0
 33 34  1  0  0  0  0
 35 34  1  0  0  0  0
 35 38  1  0  0  0  0
 37 39  1  0  0  0  0
 38 37  2  0  0  0  0
 38 40  1  0  0  0  0
 39 36  2  0  0  0  0
 39 42  1  0  0  0  0
 40 45  1  0  0  0  0
 40 36  1  0  0  0  0
 42 41  3  0  0  0  0
 43 44  3  0  0  0  0
 44 37  1  0  0  0  0
 45 46  1  0  0  0  0
 46 48  1  0  0  0  0
 47 49  1  0  0  0  0
 48 47  1  0  0  0  0
 48 49  1  0  0  0  0
 50 51  1  0  0  0  0
 52 61  1  0  0  0  0
 52 51  1  0  0  0  0
 53 57  1  0  0  0  0
 54 55  1  0  0  0  0
 54 63  1  1  0  0  0
 55 56  2  0  0  0  0
 55 64  1  0  0  0  0
 57 59  2  0  0  0  0
 58 65  2  0  0  0  0
 61 60  1  6  0  0  0
 61 54  1  0  0  0  0
 61 63  1  0  0  0  0
 62 58  1  0  0  0  0
 62 54  1  0  0  0  0
 65 64  1  0  0  0  0
 65 59  1  0  0  0  0
 66 53  2  0  0  0  0
 66 58  1  0  0  0  0
 67 68  1  0  0  0  0
 67 66  1  0  0  0  0
M  END
>  <MODEL>
9

>  <REMARK>
 VINA RESULT:      -4.8      3.038      5.312
  Name = 
  18 active torsions:
  status: ('A' for Active; 'I' for Inactive)
    1  A    between atoms: O_4  and  C_66
    2  A    between atoms: C_6  and  C_22
    3  A    between atoms: C_6  and  S_29
    4  A    between atoms: C_14  and  C_56
    5  A    between atoms: C_15  and  C_25
    6  A    between atoms: C_15  and  N_47
    7  A    between atoms: C_19  and  C_48
    8  A    between atoms: C_20  and  C_26
    9  A    between atoms: C_25  and  C_31
   10  A    between atoms: C_34  and  O_35
   11  A    between atoms: C_34  and  C_57
   12  A    between atoms: O_35  and  P_54
   13  A    between atoms: C_38  and  C_42
   14  A    between atoms: N_44  and  C_56
   15  A    between atoms: N_47  and  C_58
   16  A    between atoms: C_48  and  N_51
   17  A    between atoms: N_51  and  N_68
   18  A    between atoms: C_62  and  C_65
                            x       y       z     vdW  Elec       q    Type
                         _______ _______ _______ _____ _____    ______ ____

>  <TORSDO>
F 18

$$$$
