=
 OpenBabel11032421243D

 34 37  0  0  1  0  0  0  0  0999 V2000
  183.8050  177.0430  138.1670 C   0  0  0  0  0  0  0  0  0  0  0  0
  183.4710  176.0200  135.8740 C   0  0  1  0  0  3  0  0  0  0  0  0
  180.3750  175.4870  137.5710 C   0  0  0  0  0  0  0  0  0  0  0  0
  179.6290  174.7730  139.8830 C   0  0  2  0  0  3  0  0  0  0  0  0
  182.3910  176.6260  138.5430 C   0  0  1  0  0  3  0  0  0  0  0  0
  179.5030  173.2060  137.8990 C   0  0  0  0  0  1  0  0  0  0  0  0
  180.0600  177.2870  139.9650 C   0  0  2  0  0  3  0  0  0  0  0  0
  181.8620  175.3740  137.8130 C   0  0  2  0  0  3  0  0  0  0  0  0
  179.4040  174.6520  138.3620 C   0  0  2  0  0  3  0  0  0  0  0  0
  185.6190  179.5840  141.6370 O   0  0  0  0  0  0  0  0  0  0  0  0
  178.9310  173.7700  140.5600 O   0  0  0  0  0  1  0  0  0  0  0  0
  179.9470  176.2740  136.7420 O   0  0  0  0  0  0  0  0  0  0  0  0
  182.1800  176.4020  140.0440 C   0  0  0  0  0  2  0  0  0  0  0  0
  179.1830  176.1260  140.4400 C   0  0  0  0  0  2  0  0  0  0  0  0
  185.8540  178.2630  138.6080 C   0  0  0  0  0  0  0  0  0  0  0  0
  184.6170  177.8340  138.9990 C   0  0  0  0  0  0  0  0  0  0  0  0
  184.3060  176.7640  136.8680 C   0  0  0  0  0  0  0  0  0  0  0  0
  185.4720  178.9890  140.5370 C   0  0  0  0  0  0  0  0  0  0  0  0
  186.4230  179.0010  139.5720 N   0  0  0  0  0  2  0  0  0  0  0  0
  181.3080  177.3470  140.6230 O   0  0  0  0  0  0  0  0  0  0  0  0
  185.5850  177.2170  136.4780 C   0  0  0  0  0  3  0  0  0  0  0  0
  184.3500  178.2930  140.2330 N   0  0  0  0  0  2  0  0  0  0  0  0
  182.6970  174.9150  136.5960 C   0  0  1  0  0  3  0  0  0  0  0  0
  186.3800  177.9720  137.3540 C   0  0  0  0  0  3  0  0  0  0  0  0
  181.2650  174.2340  134.7990 O   0  0  0  0  0  0  0  0  0  0  0  0
  183.2440  172.0050  136.9190 C   0  0  0  0  0  1  0  0  0  0  0  0
  182.3470  172.4930  135.8840 N   0  0  0  0  0  2  0  0  0  0  0  0
  182.0670  173.8820  135.7040 C   0  0  0  0  0  0  0  0  0  0  0  0
  182.5850  176.9490  135.1570 C   0  0  0  0  0  0  0  0  0  0  0  0
  181.8870  177.6800  134.5930 N   0  0  0  0  0  0  0  0  0  0  0  0
  179.3220  178.6190  140.0890 C   0  0  0  0  0  2  0  0  0  0  0  0
  180.1620  179.7010  140.7570 C   0  0  0  0  0  2  0  0  0  0  0  0
  180.0340  180.7930  142.8640 O   0  0  0  0  0  1  0  0  0  0  0  0
  179.3100  180.5250  141.7040 C   0  0  0  0  0  2  0  0  0  0  0  0
  1  5  1  0  0  0  0
  1 16  1  0  0  0  0
  2 29  1  1  0  0  0
  2 23  1  0  0  0  0
  2 17  1  0  0  0  0
  3  9  1  0  0  0  0
  4 14  1  0  0  0  0
  4 11  1  1  0  0  0
  5 13  1  1  0  0  0
  7 31  1  1  0  0  0
  7 14  1  0  0  0  0
  7 20  1  0  0  0  0
  8  3  1  6  0  0  0
  8  5  1  0  0  0  0
  9  6  1  6  0  0  0
  9  4  1  0  0  0  0
 12  3  2  0  0  0  0
 13 20  1  0  0  0  0
 15 16  2  0  0  0  0
 15 19  1  0  0  0  0
 16 22  1  0  0  0  0
 17  1  2  0  0  0  0
 18 10  2  0  0  0  0
 19 18  1  0  0  0  0
 21 17  1  0  0  0  0
 21 24  2  0  0  0  0
 22 18  1  0  0  0  0
 23 28  1  6  0  0  0
 23  8  1  0  0  0  0
 24 15  1  0  0  0  0
 25 28  2  0  0  0  0
 27 26  1  0  0  0  0
 28 27  1  0  0  0  0
 30 29  3  0  0  0  0
 31 32  1  0  0  0  0
 32 34  1  0  0  0  0
 34 33  1  0  0  0  0
M  END
>  <MODEL>
1

>  <REMARK>
 VINA RESULT:      -5.0      0.000      0.000
  Name = 
  5 active torsions:
  status: ('A' for Active; 'I' for Inactive)
    1  A    between atoms: C_2  and  C_8
    2  A    between atoms: C_9  and  C_11
    3  A    between atoms: C_9  and  C_29
    4  A    between atoms: C_16  and  C_32
    5  A    between atoms: C_29  and  C_33
                            x       y       z     vdW  Elec       q    Type
                         _______ _______ _______ _____ _____    ______ ____

>  <TORSDO>
F 5

$$$$
=
 OpenBabel11032421243D

 34 37  0  0  1  0  0  0  0  0999 V2000
  185.5070  177.9140  139.3950 C   0  0  0  0  0  0  0  0  0  0  0  0
  187.4330  177.5700  137.7860 C   0  0  1  0  0  3  0  0  0  0  0  0
  184.5010  176.9350  135.8500 C   0  0  0  0  0  0  0  0  0  0  0  0
  182.3020  175.7200  136.1630 C   0  0  2  0  0  3  0  0  0  0  0  0
  184.5330  177.5620  138.2810 C   0  0  1  0  0  3  0  0  0  0  0  0
  184.1710  174.7510  134.7570 C   0  0  0  0  0  1  0  0  0  0  0  0
  182.0200  178.0650  137.1300 C   0  0  2  0  0  3  0  0  0  0  0  0
  185.0880  176.6080  137.2030 C   0  0  2  0  0  3  0  0  0  0  0  0
  183.4810  176.0270  135.2170 C   0  0  2  0  0  3  0  0  0  0  0  0
  183.0990  179.2500  143.1630 O   0  0  0  0  0  0  0  0  0  0  0  0
  181.5470  174.6530  135.6700 O   0  0  0  0  0  1  0  0  0  0  0  0
  184.8370  177.9530  135.2650 O   0  0  0  0  0  0  0  0  0  0  0  0
  183.2050  176.9750  138.7710 C   0  0  0  0  0  2  0  0  0  0  0  0
  181.3690  176.9180  136.3530 C   0  0  0  0  0  2  0  0  0  0  0  0
  185.9880  178.7550  141.6180 C   0  0  0  0  0  0  0  0  0  0  0  0
  185.0940  178.3690  140.6600 C   0  0  0  0  0  0  0  0  0  0  0  0
  186.9040  177.9360  139.1370 C   0  0  0  0  0  0  0  0  0  0  0  0
  184.0470  178.9840  142.3790 C   0  0  0  0  0  0  0  0  0  0  0  0
  185.3470  179.1500  142.7280 N   0  0  0  0  0  2  0  0  0  0  0  0
  182.1040  177.8200  138.5180 O   0  0  0  0  0  0  0  0  0  0  0  0
  187.8140  178.3400  140.1370 C   0  0  0  0  0  3  0  0  0  0  0  0
  183.8430  178.5130  141.1250 N   0  0  0  0  0  2  0  0  0  0  0  0
  186.6190  176.4010  137.2280 C   0  0  1  0  0  3  0  0  0  0  0  0
  187.3610  178.7510  141.4000 C   0  0  0  0  0  3  0  0  0  0  0  0
  187.6220  176.3860  135.0500 O   0  0  0  0  0  0  0  0  0  0  0  0
  186.8590  173.4360  137.0750 C   0  0  0  0  0  1  0  0  0  0  0  0
  187.3190  174.2860  135.9890 N   0  0  0  0  0  2  0  0  0  0  0  0
  187.2190  175.7100  136.0340 C   0  0  0  0  0  0  0  0  0  0  0  0
  187.4140  178.7420  136.8970 C   0  0  0  0  0  0  0  0  0  0  0  0
  187.3980  179.6650  136.1990 N   0  0  0  0  0  0  0  0  0  0  0  0
  181.3030  179.3860  136.8600 C   0  0  0  0  0  2  0  0  0  0  0  0
  180.9090  180.1190  138.1370 C   0  0  0  0  0  2  0  0  0  0  0  0
  183.0220  180.9750  138.8080 O   0  0  0  0  0  1  0  0  0  0  0  0
  181.7700  181.3530  138.3280 C   0  0  0  0  0  2  0  0  0  0  0  0
  1 16  1  0  0  0  0
  2 29  1  6  0  0  0
  2 17  1  0  0  0  0
  4 11  1  6  0  0  0
  4 14  1  0  0  0  0
  5 13  1  1  0  0  0
  5  1  1  0  0  0  0
  7 31  1  1  0  0  0
  7 20  1  0  0  0  0
  8  3  1  6  0  0  0
  8 23  1  0  0  0  0
  8  5  1  0  0  0  0
  9  6  1  1  0  0  0
  9  3  1  0  0  0  0
  9  4  1  0  0  0  0
 12  3  2  0  0  0  0
 14  7  1  0  0  0  0
 15 19  1  0  0  0  0
 16 22  1  0  0  0  0
 16 15  2  0  0  0  0
 17  1  2  0  0  0  0
 17 21  1  0  0  0  0
 18 19  1  0  0  0  0
 18 10  2  0  0  0  0
 20 13  1  0  0  0  0
 21 24  2  0  0  0  0
 22 18  1  0  0  0  0
 23 28  1  6  0  0  0
 23  2  1  0  0  0  0
 24 15  1  0  0  0  0
 25 28  2  0  0  0  0
 27 28  1  0  0  0  0
 27 26  1  0  0  0  0
 30 29  3  0  0  0  0
 31 32  1  0  0  0  0
 32 34  1  0  0  0  0
 34 33  1  0  0  0  0
M  END
>  <MODEL>
2

>  <REMARK>
 VINA RESULT:      -4.5      2.912      4.246
  Name = 
  5 active torsions:
  status: ('A' for Active; 'I' for Inactive)
    1  A    between atoms: C_2  and  C_8
    2  A    between atoms: C_9  and  C_11
    3  A    between atoms: C_9  and  C_29
    4  A    between atoms: C_16  and  C_32
    5  A    between atoms: C_29  and  C_33
                            x       y       z     vdW  Elec       q    Type
                         _______ _______ _______ _____ _____    ______ ____

>  <TORSDO>
F 5

$$$$
=
 OpenBabel11032421243D

 34 37  0  0  1  0  0  0  0  0999 V2000
  187.1620  177.5590  138.8380 C   0  0  0  0  0  0  0  0  0  0  0  0
  187.4100  176.1560  136.7450 C   0  0  1  0  0  3  0  0  0  0  0  0
  190.5420  175.8430  138.4290 C   0  0  0  0  0  0  0  0  0  0  0  0
  192.1440  177.3710  139.6600 C   0  0  2  0  0  3  0  0  0  0  0  0
  188.5880  177.2030  139.2280 C   0  0  1  0  0  3  0  0  0  0  0  0
  192.6330  176.5300  137.3220 C   0  0  0  0  0  1  0  0  0  0  0  0
  190.3620  176.6320  141.3310 C   0  0  2  0  0  3  0  0  0  0  0  0
  189.5330  176.9010  138.0480 C   0  0  2  0  0  3  0  0  0  0  0  0
  191.9840  176.2060  138.6600 C   0  0  2  0  0  3  0  0  0  0  0  0
  185.2020  180.0110  142.2930 O   0  0  0  0  0  0  0  0  0  0  0  0
  193.4450  177.8750  139.6150 O   0  0  0  0  0  1  0  0  0  0  0  0
  190.1890  174.6830  138.5740 O   0  0  0  0  0  0  0  0  0  0  0  0
  189.2780  178.2500  140.1100 C   0  0  0  0  0  2  0  0  0  0  0  0
  191.8400  176.9570  141.1010 C   0  0  0  0  0  2  0  0  0  0  0  0
  184.9940  178.5250  139.3390 C   0  0  0  0  0  0  0  0  0  0  0  0
  186.2960  178.2850  139.6760 C   0  0  0  0  0  0  0  0  0  0  0  0
  186.5970  177.0290  137.6480 C   0  0  0  0  0  0  0  0  0  0  0  0
  185.3720  179.3880  141.2130 C   0  0  0  0  0  0  0  0  0  0  0  0
  184.3810  179.2300  140.3010 N   0  0  0  0  0  2  0  0  0  0  0  0
  189.5460  177.7810  141.4130 O   0  0  0  0  0  0  0  0  0  0  0  0
  185.2490  177.2840  137.3150 C   0  0  0  0  0  3  0  0  0  0  0  0
  186.5580  178.8260  140.8770 N   0  0  0  0  0  2  0  0  0  0  0  0
  188.8410  176.6920  136.6820 C   0  0  1  0  0  3  0  0  0  0  0  0
  184.4290  178.0460  138.1630 C   0  0  0  0  0  3  0  0  0  0  0  0
  189.9200  174.8890  135.5300 O   0  0  0  0  0  0  0  0  0  0  0  0
  190.0750  178.4220  134.5940 C   0  0  0  0  0  1  0  0  0  0  0  0
  190.2730  176.9810  134.5940 N   0  0  0  0  0  2  0  0  0  0  0  0
  189.6930  176.1260  135.5800 C   0  0  0  0  0  0  0  0  0  0  0  0
  187.3540  174.7580  137.2020 C   0  0  0  0  0  0  0  0  0  0  0  0
  187.3110  173.6590  137.5600 N   0  0  0  0  0  0  0  0  0  0  0  0
  190.1800  175.7540  142.5670 C   0  0  0  0  0  2  0  0  0  0  0  0
  189.0480  176.2300  143.4700 C   0  0  0  0  0  2  0  0  0  0  0  0
  188.6600  177.9200  145.0960 O   0  0  0  0  0  1  0  0  0  0  0  0
  189.6030  176.9900  144.6590 C   0  0  0  0  0  2  0  0  0  0  0  0
  1  5  1  0  0  0  0
  1 16  1  0  0  0  0
  2 29  1  1  0  0  0
  2 17  1  0  0  0  0
  3 12  2  0  0  0  0
  3  9  1  0  0  0  0
  4 11  1  1  0  0  0
  4 14  1  0  0  0  0
  5 13  1  6  0  0  0
  7 20  1  0  0  0  0
  7 31  1  1  0  0  0
  8  3  1  1  0  0  0
  8  5  1  0  0  0  0
  9  6  1  6  0  0  0
  9  4  1  0  0  0  0
 13 20  1  0  0  0  0
 14  7  1  0  0  0  0
 15 16  2  0  0  0  0
 15 19  1  0  0  0  0
 16 22  1  0  0  0  0
 17  1  2  0  0  0  0
 18 10  2  0  0  0  0
 19 18  1  0  0  0  0
 21 17  1  0  0  0  0
 21 24  2  0  0  0  0
 22 18  1  0  0  0  0
 23 28  1  6  0  0  0
 23  2  1  0  0  0  0
 23  8  1  0  0  0  0
 24 15  1  0  0  0  0
 25 28  2  0  0  0  0
 27 26  1  0  0  0  0
 27 28  1  0  0  0  0
 29 30  3  0  0  0  0
 31 32  1  0  0  0  0
 32 34  1  0  0  0  0
 34 33  1  0  0  0  0
M  END
>  <MODEL>
3

>  <REMARK>
 VINA RESULT:      -4.5      4.770      8.383
  Name = 
  5 active torsions:
  status: ('A' for Active; 'I' for Inactive)
    1  A    between atoms: C_2  and  C_8
    2  A    between atoms: C_9  and  C_11
    3  A    between atoms: C_9  and  C_29
    4  A    between atoms: C_16  and  C_32
    5  A    between atoms: C_29  and  C_33
                            x       y       z     vdW  Elec       q    Type
                         _______ _______ _______ _____ _____    ______ ____

>  <TORSDO>
F 5

$$$$
=
 OpenBabel11032421243D

 34 37  0  0  1  0  0  0  0  0999 V2000
  181.4080  174.5670  137.1900 C   0  0  0  0  0  0  0  0  0  0  0  0
  179.4010  176.1070  137.3120 C   0  0  1  0  0  3  0  0  0  0  0  0
  182.2280  178.2670  137.6090 C   0  0  0  0  0  0  0  0  0  0  0  0
  184.4470  178.2560  138.8290 C   0  0  2  0  0  3  0  0  0  0  0  0
  182.3230  175.7700  137.3570 C   0  0  1  0  0  3  0  0  0  0  0  0
  182.5100  179.6940  139.5980 C   0  0  0  0  0  1  0  0  0  0  0  0
  184.7690  176.9610  136.6530 C   0  0  2  0  0  3  0  0  0  0  0  0
  181.7160  176.9500  138.1430 C   0  0  2  0  0  3  0  0  0  0  0  0
  183.2180  179.0820  138.3970 C   0  0  2  0  0  3  0  0  0  0  0  0
  184.0070  170.7700  136.4070 O   0  0  0  0  0  0  0  0  0  0  0  0
  185.1790  178.9440  139.7990 O   0  0  0  0  0  1  0  0  0  0  0  0
  181.8560  178.6730  136.5190 O   0  0  0  0  0  0  0  0  0  0  0  0
  183.6780  175.4460  137.9940 C   0  0  0  0  0  2  0  0  0  0  0  0
  185.3830  177.9360  137.6620 C   0  0  0  0  0  2  0  0  0  0  0  0
  181.0430  172.2200  136.7010 C   0  0  0  0  0  0  0  0  0  0  0  0
  181.8860  173.2710  136.9250 C   0  0  0  0  0  0  0  0  0  0  0  0
  180.0000  174.7460  137.1470 C   0  0  0  0  0  0  0  0  0  0  0  0
  183.0200  171.5350  136.5640 C   0  0  0  0  0  0  0  0  0  0  0  0
  181.7400  171.0980  136.4690 N   0  0  0  0  0  2  0  0  0  0  0  0
  184.7600  175.6240  137.1060 O   0  0  0  0  0  0  0  0  0  0  0  0
  179.1420  173.6500  136.9110 C   0  0  0  0  0  3  0  0  0  0  0  0
  183.1600  172.8550  136.8370 N   0  0  0  0  0  2  0  0  0  0  0  0
  180.1900  176.8780  138.3720 C   0  0  1  0  0  3  0  0  0  0  0  0
  179.6600  172.3640  136.6890 C   0  0  0  0  0  3  0  0  0  0  0  0
  179.1600  179.0220  138.0750 O   0  0  0  0  0  0  0  0  0  0  0  0
  179.7520  177.3590  141.2790 C   0  0  0  0  0  1  0  0  0  0  0  0
  179.3350  178.3330  140.2830 N   0  0  0  0  0  2  0  0  0  0  0  0
  179.5300  178.1290  138.8820 C   0  0  0  0  0  0  0  0  0  0  0  0
  179.3670  176.8080  136.0180 C   0  0  0  0  0  0  0  0  0  0  0  0
  179.3410  177.3580  135.0010 N   0  0  0  0  0  0  0  0  0  0  0  0
  185.4640  177.0650  135.2970 C   0  0  0  0  0  2  0  0  0  0  0  0
  186.7670  177.8540  135.3590 C   0  0  0  0  0  2  0  0  0  0  0  0
  188.1930  176.1290  136.1590 O   0  0  0  0  0  1  0  0  0  0  0  0
  187.9480  176.9510  135.0600 C   0  0  0  0  0  2  0  0  0  0  0  0
  1  5  1  0  0  0  0
  2 29  1  6  0  0  0
  2 23  1  0  0  0  0
  3  9  1  0  0  0  0
  4 11  1  1  0  0  0
  5 13  1  1  0  0  0
  5  8  1  0  0  0  0
  7 31  1  6  0  0  0
  7 20  1  0  0  0  0
  7 14  1  0  0  0  0
  8  3  1  6  0  0  0
  8 23  1  0  0  0  0
  9  4  1  0  0  0  0
  9  6  1  1  0  0  0
 10 18  2  0  0  0  0
 12  3  2  0  0  0  0
 14  4  1  0  0  0  0
 15 16  1  0  0  0  0
 16  1  2  0  0  0  0
 17  1  1  0  0  0  0
 17  2  1  0  0  0  0
 18 22  1  0  0  0  0
 19 18  1  0  0  0  0
 19 15  1  0  0  0  0
 20 13  1  0  0  0  0
 21 17  2  0  0  0  0
 22 16  1  0  0  0  0
 23 28  1  6  0  0  0
 24 15  2  0  0  0  0
 24 21  1  0  0  0  0
 25 28  2  0  0  0  0
 27 26  1  0  0  0  0
 28 27  1  0  0  0  0
 30 29  3  0  0  0  0
 31 32  1  0  0  0  0
 34 32  1  0  0  0  0
 34 33  1  0  0  0  0
M  END
>  <MODEL>
4

>  <REMARK>
 VINA RESULT:      -4.3      2.738      6.789
  Name = 
  5 active torsions:
  status: ('A' for Active; 'I' for Inactive)
    1  A    between atoms: C_2  and  C_8
    2  A    between atoms: C_9  and  C_11
    3  A    between atoms: C_9  and  C_29
    4  A    between atoms: C_16  and  C_32
    5  A    between atoms: C_29  and  C_33
                            x       y       z     vdW  Elec       q    Type
                         _______ _______ _______ _____ _____    ______ ____

>  <TORSDO>
F 5

$$$$
=
 OpenBabel11032421243D

 34 37  0  0  1  0  0  0  0  0999 V2000
  183.1020  178.2990  140.9190 C   0  0  0  0  0  0  0  0  0  0  0  0
  180.5920  178.5870  140.7410 C   0  0  1  0  0  3  0  0  0  0  0  0
  181.5970  177.3460  137.5480 C   0  0  0  0  0  0  0  0  0  0  0  0
  183.4830  177.7610  135.9090 C   0  0  2  0  0  3  0  0  0  0  0  0
  183.1340  177.8150  139.4780 C   0  0  1  0  0  3  0  0  0  0  0  0
  181.1440  178.6420  135.5020 C   0  0  0  0  0  1  0  0  0  0  0  0
  184.3240  176.0690  137.6250 C   0  0  2  0  0  3  0  0  0  0  0  0
  182.0150  178.3720  138.5750 C   0  0  2  0  0  3  0  0  0  0  0  0
  181.9720  177.5130  136.1000 C   0  0  2  0  0  3  0  0  0  0  0  0
  187.3700  177.8850  142.7630 O   0  0  0  0  0  0  0  0  0  0  0  0
  183.7420  178.2100  134.6130 O   0  0  0  0  0  1  0  0  0  0  0  0
  180.9660  176.3580  137.8900 O   0  0  0  0  0  0  0  0  0  0  0  0
  184.4650  178.0630  138.7610 C   0  0  0  0  0  2  0  0  0  0  0  0
  184.3220  176.5060  136.1580 C   0  0  0  0  0  2  0  0  0  0  0  0
  184.1620  178.6530  143.0710 C   0  0  0  0  0  0  0  0  0  0  0  0
  184.2320  178.2880  141.7570 C   0  0  0  0  0  0  0  0  0  0  0  0
  181.8650  178.6480  141.5240 C   0  0  0  0  0  0  0  0  0  0  0  0
  186.1390  178.1120  142.6290 C   0  0  0  0  0  0  0  0  0  0  0  0
  185.3670  178.5530  143.6530 N   0  0  0  0  0  2  0  0  0  0  0  0
  185.1490  176.8710  138.4440 O   0  0  0  0  0  0  0  0  0  0  0  0
  181.8100  179.0210  142.8850 C   0  0  0  0  0  3  0  0  0  0  0  0
  185.4910  177.9320  141.4530 N   0  0  0  0  0  2  0  0  0  0  0  0
  180.8560  179.0760  139.3160 C   0  0  1  0  0  3  0  0  0  0  0  0
  182.9690  179.0320  143.6760 C   0  0  0  0  0  3  0  0  0  0  0  0
  178.9380  178.4400  138.0250 O   0  0  0  0  0  0  0  0  0  0  0  0
  179.9960  181.8690  138.7360 C   0  0  0  0  0  1  0  0  0  0  0  0
  179.2420  180.7300  138.2390 N   0  0  0  0  0  2  0  0  0  0  0  0
  179.6280  179.3800  138.5020 C   0  0  0  0  0  0  0  0  0  0  0  0
  180.0390  177.2250  140.7740 C   0  0  0  0  0  0  0  0  0  0  0  0
  179.6040  176.1530  140.7980 N   0  0  0  0  0  0  0  0  0  0  0  0
  184.7030  174.5960  137.7580 C   0  0  0  0  0  2  0  0  0  0  0  0
  183.6310  173.6580  137.2140 C   0  0  0  0  0  2  0  0  0  0  0  0
  183.1160  171.3520  136.9560 O   0  0  0  0  0  1  0  0  0  0  0  0
  184.1760  172.2480  137.0860 C   0  0  0  0  0  2  0  0  0  0  0  0
  1 17  2  0  0  0  0
  1 16  1  0  0  0  0
  2 29  1  6  0  0  0
  2 17  1  0  0  0  0
  3 12  2  0  0  0  0
  4 11  1  6  0  0  0
  4  9  1  0  0  0  0
  4 14  1  0  0  0  0
  5 13  1  6  0  0  0
  5  1  1  0  0  0  0
  7 31  1  6  0  0  0
  7 20  1  0  0  0  0
  8  3  1  1  0  0  0
  8 23  1  0  0  0  0
  8  5  1  0  0  0  0
  9  6  1  1  0  0  0
  9  3  1  0  0  0  0
 14  7  1  0  0  0  0
 15 19  1  0  0  0  0
 15 24  1  0  0  0  0
 16 15  2  0  0  0  0
 17 21  1  0  0  0  0
 18 10  2  0  0  0  0
 18 19  1  0  0  0  0
 20 13  1  0  0  0  0
 21 24  2  0  0  0  0
 22 16  1  0  0  0  0
 22 18  1  0  0  0  0
 23 28  1  6  0  0  0
 23  2  1  0  0  0  0
 25 28  2  0  0  0  0
 27 28  1  0  0  0  0
 27 26  1  0  0  0  0
 29 30  3  0  0  0  0
 32 31  1  0  0  0  0
 33 34  1  0  0  0  0
 34 32  1  0  0  0  0
M  END
>  <MODEL>
5

>  <REMARK>
 VINA RESULT:      -4.3      2.736      6.166
  Name = 
  5 active torsions:
  status: ('A' for Active; 'I' for Inactive)
    1  A    between atoms: C_2  and  C_8
    2  A    between atoms: C_9  and  C_11
    3  A    between atoms: C_9  and  C_29
    4  A    between atoms: C_16  and  C_32
    5  A    between atoms: C_29  and  C_33
                            x       y       z     vdW  Elec       q    Type
                         _______ _______ _______ _____ _____    ______ ____

>  <TORSDO>
F 5

$$$$
=
 OpenBabel11032421243D

 34 37  0  0  1  0  0  0  0  0999 V2000
  185.8770  177.7240  139.0380 C   0  0  0  0  0  0  0  0  0  0  0  0
  187.2240  176.8090  137.0970 C   0  0  1  0  0  3  0  0  0  0  0  0
  183.8270  176.6460  136.0090 C   0  0  0  0  0  0  0  0  0  0  0  0
  181.5940  175.9800  137.0020 C   0  0  2  0  0  3  0  0  0  0  0  0
  184.6010  177.4870  138.2460 C   0  0  1  0  0  3  0  0  0  0  0  0
  182.8210  174.4920  135.3620 C   0  0  0  0  0  1  0  0  0  0  0  0
  182.0180  178.4140  137.6450 C   0  0  2  0  0  3  0  0  0  0  0  0
  184.6700  176.3340  137.2230 C   0  0  2  0  0  3  0  0  0  0  0  0
  182.5260  175.9270  135.7730 C   0  0  2  0  0  3  0  0  0  0  0  0
  184.8170  179.9210  143.0170 O   0  0  0  0  0  0  0  0  0  0  0  0
  180.5510  175.0620  136.8620 O   0  0  0  0  0  1  0  0  0  0  0  0
  184.1870  177.5030  135.2170 O   0  0  0  0  0  0  0  0  0  0  0  0
  183.3580  177.2570  139.1110 C   0  0  0  0  0  2  0  0  0  0  0  0
  180.9850  177.3670  137.2210 C   0  0  0  0  0  2  0  0  0  0  0  0
  187.0640  178.6540  140.9380 C   0  0  0  0  0  0  0  0  0  0  0  0
  185.8970  178.3810  140.2810 C   0  0  0  0  0  0  0  0  0  0  0  0
  187.1390  177.4130  138.4630 C   0  0  0  0  0  0  0  0  0  0  0  0
  185.4640  179.3770  142.0840 C   0  0  0  0  0  0  0  0  0  0  0  0
  186.8160  179.2870  142.0940 N   0  0  0  0  0  2  0  0  0  0  0  0
  182.4090  178.2940  138.9960 O   0  0  0  0  0  0  0  0  0  0  0  0
  188.3350  177.7040  139.1540 C   0  0  0  0  0  3  0  0  0  0  0  0
  184.8580  178.8410  140.9970 N   0  0  0  0  0  2  0  0  0  0  0  0
  186.0880  175.7990  136.9240 C   0  0  1  0  0  3  0  0  0  0  0  0
  188.3080  178.3270  140.4110 C   0  0  0  0  0  3  0  0  0  0  0  0
  186.4320  175.3520  134.5940 O   0  0  0  0  0  0  0  0  0  0  0  0
  185.8180  172.8440  137.1840 C   0  0  0  0  0  1  0  0  0  0  0  0
  186.0830  173.4660  135.8970 N   0  0  0  0  0  2  0  0  0  0  0  0
  186.2200  174.8790  135.7410 C   0  0  0  0  0  0  0  0  0  0  0  0
  187.1980  177.8640  136.0720 C   0  0  0  0  0  0  0  0  0  0  0  0
  187.1780  178.6920  135.2640 N   0  0  0  0  0  0  0  0  0  0  0  0
  181.5170  179.8270  137.3530 C   0  0  0  0  0  2  0  0  0  0  0  0
  181.9710  180.8430  138.3950 C   0  0  0  0  0  2  0  0  0  0  0  0
  181.5880  183.1450  137.9470 O   0  0  0  0  0  1  0  0  0  0  0  0
  180.9920  181.9990  138.4700 C   0  0  0  0  0  2  0  0  0  0  0  0
  1 16  1  0  0  0  0
  2 29  1  6  0  0  0
  2 17  1  0  0  0  0
  4 11  1  6  0  0  0
  4 14  1  0  0  0  0
  5  1  1  0  0  0  0
  5 13  1  1  0  0  0
  7 31  1  1  0  0  0
  7 20  1  0  0  0  0
  8  3  1  6  0  0  0
  8  5  1  0  0  0  0
  9  6  1  1  0  0  0
  9  3  1  0  0  0  0
  9  4  1  0  0  0  0
 12  3  2  0  0  0  0
 14  7  1  0  0  0  0
 15 19  1  0  0  0  0
 16 15  2  0  0  0  0
 16 22  1  0  0  0  0
 17  1  2  0  0  0  0
 17 21  1  0  0  0  0
 18 19  1  0  0  0  0
 18 10  2  0  0  0  0
 20 13  1  0  0  0  0
 21 24  2  0  0  0  0
 22 18  1  0  0  0  0
 23 28  1  6  0  0  0
 23  2  1  0  0  0  0
 23  8  1  0  0  0  0
 24 15  1  0  0  0  0
 25 28  2  0  0  0  0
 27 26  1  0  0  0  0
 28 27  1  0  0  0  0
 30 29  3  0  0  0  0
 31 32  1  0  0  0  0
 32 34  1  0  0  0  0
 33 34  1  0  0  0  0
M  END
>  <MODEL>
6

>  <REMARK>
 VINA RESULT:      -4.1      2.602      3.613
  Name = 
  5 active torsions:
  status: ('A' for Active; 'I' for Inactive)
    1  A    between atoms: C_2  and  C_8
    2  A    between atoms: C_9  and  C_11
    3  A    between atoms: C_9  and  C_29
    4  A    between atoms: C_16  and  C_32
    5  A    between atoms: C_29  and  C_33
                            x       y       z     vdW  Elec       q    Type
                         _______ _______ _______ _____ _____    ______ ____

>  <TORSDO>
F 5

$$$$
=
 OpenBabel11032421243D

 34 37  0  0  1  0  0  0  0  0999 V2000
  184.4200  177.1900  138.4600 C   0  0  0  0  0  0  0  0  0  0  0  0
  184.3760  176.0910  136.1780 C   0  0  1  0  0  3  0  0  0  0  0  0
  181.0080  175.9010  137.3480 C   0  0  0  0  0  0  0  0  0  0  0  0
  179.8310  175.3620  139.5250 C   0  0  2  0  0  3  0  0  0  0  0  0
  182.9320  176.9120  138.6060 C   0  0  1  0  0  3  0  0  0  0  0  0
  179.8910  173.7190  137.6000 C   0  0  0  0  0  1  0  0  0  0  0  0
  180.4690  177.8330  139.5960 C   0  0  2  0  0  3  0  0  0  0  0  0
  182.4190  175.6750  137.8400 C   0  0  2  0  0  3  0  0  0  0  0  0
  179.8490  175.1890  137.9920 C   0  0  2  0  0  3  0  0  0  0  0  0
  185.8630  179.7310  142.0990 O   0  0  0  0  0  0  0  0  0  0  0  0
  178.9430  174.4550  140.1070 O   0  0  0  0  0  1  0  0  0  0  0  0
  180.7950  176.6810  136.4330 O   0  0  0  0  0  0  0  0  0  0  0  0
  182.4580  176.7780  140.0580 C   0  0  0  0  0  2  0  0  0  0  0  0
  179.4240  176.7730  139.9540 C   0  0  0  0  0  2  0  0  0  0  0  0
  186.4710  178.2530  139.1970 C   0  0  0  0  0  0  0  0  0  0  0  0
  185.1530  177.9490  139.3900 C   0  0  0  0  0  0  0  0  0  0  0  0
  185.1010  176.8090  137.2730 C   0  0  0  0  0  0  0  0  0  0  0  0
  185.8450  179.1000  141.0110 C   0  0  0  0  0  0  0  0  0  0  0  0
  186.9390  178.9860  140.2180 N   0  0  0  0  0  2  0  0  0  0  0  0
  181.5920  177.8190  140.4510 O   0  0  0  0  0  0  0  0  0  0  0  0
  186.4620  177.1340  137.0880 C   0  0  0  0  0  3  0  0  0  0  0  0
  184.7300  178.4860  140.5450 N   0  0  0  0  0  2  0  0  0  0  0  0
  183.3970  175.0910  136.7960 C   0  0  1  0  0  3  0  0  0  0  0  0
  187.1670  177.8600  138.0600 C   0  0  0  0  0  3  0  0  0  0  0  0
  182.0740  174.4380  134.9060 O   0  0  0  0  0  0  0  0  0  0  0  0
  183.9680  172.1800  137.0740 C   0  0  0  0  0  1  0  0  0  0  0  0
  183.1200  172.6840  136.0050 N   0  0  0  0  0  2  0  0  0  0  0  0
  182.8300  174.0730  135.8450 C   0  0  0  0  0  0  0  0  0  0  0  0
  183.7070  177.0560  135.2920 C   0  0  0  0  0  0  0  0  0  0  0  0
  183.1820  177.8150  134.5940 N   0  0  0  0  0  0  0  0  0  0  0  0
  179.8440  179.2260  139.5500 C   0  0  0  0  0  2  0  0  0  0  0  0
  179.6010  179.7190  138.1280 C   0  0  0  0  0  2  0  0  0  0  0  0
  179.7420  181.8610  137.1080 O   0  0  0  0  0  1  0  0  0  0  0  0
  180.4770  180.9190  137.8260 C   0  0  0  0  0  2  0  0  0  0  0  0
  1  5  1  0  0  0  0
  1 16  1  0  0  0  0
  2 29  1  1  0  0  0
  2 23  1  0  0  0  0
  2 17  1  0  0  0  0
  3  9  1  0  0  0  0
  4 14  1  0  0  0  0
  4 11  1  1  0  0  0
  5 13  1  1  0  0  0
  7 31  1  1  0  0  0
  7 14  1  0  0  0  0
  7 20  1  0  0  0  0
  8  3  1  6  0  0  0
  8  5  1  0  0  0  0
  9  6  1  1  0  0  0
  9  4  1  0  0  0  0
 12  3  2  0  0  0  0
 13 20  1  0  0  0  0
 15 16  2  0  0  0  0
 15 19  1  0  0  0  0
 16 22  1  0  0  0  0
 17  1  2  0  0  0  0
 18 10  2  0  0  0  0
 19 18  1  0  0  0  0
 21 17  1  0  0  0  0
 21 24  2  0  0  0  0
 22 18  1  0  0  0  0
 23 28  1  6  0  0  0
 23  8  1  0  0  0  0
 24 15  1  0  0  0  0
 25 28  2  0  0  0  0
 27 26  1  0  0  0  0
 28 27  1  0  0  0  0
 30 29  3  0  0  0  0
 32 31  1  0  0  0  0
 33 34  1  0  0  0  0
 34 32  1  0  0  0  0
M  END
>  <MODEL>
7

>  <REMARK>
 VINA RESULT:      -4.0      1.405      1.525
  Name = 
  5 active torsions:
  status: ('A' for Active; 'I' for Inactive)
    1  A    between atoms: C_2  and  C_8
    2  A    between atoms: C_9  and  C_11
    3  A    between atoms: C_9  and  C_29
    4  A    between atoms: C_16  and  C_32
    5  A    between atoms: C_29  and  C_33
                            x       y       z     vdW  Elec       q    Type
                         _______ _______ _______ _____ _____    ______ ____

>  <TORSDO>
F 5

$$$$
=
 OpenBabel11032421243D

 34 37  0  0  1  0  0  0  0  0999 V2000
  183.7290  177.8640  139.8340 C   0  0  0  0  0  0  0  0  0  0  0  0
  182.9440  176.5680  137.8050 C   0  0  1  0  0  3  0  0  0  0  0  0
  186.4410  177.0550  137.2800 C   0  0  0  0  0  0  0  0  0  0  0  0
  188.1130  178.9370  137.5610 C   0  0  2  0  0  3  0  0  0  0  0  0
  185.1380  177.8790  139.2620 C   0  0  1  0  0  3  0  0  0  0  0  0
  187.2540  178.2460  135.2820 C   0  0  0  0  0  1  0  0  0  0  0  0
  187.8890  177.7730  139.8220 C   0  0  2  0  0  3  0  0  0  0  0  0
  185.2190  177.8240  137.7220 C   0  0  2  0  0  3  0  0  0  0  0  0
  187.6220  177.7690  136.6800 C   0  0  2  0  0  3  0  0  0  0  0  0
  183.7990  179.7420  144.1070 O   0  0  0  0  0  0  0  0  0  0  0  0
  188.9900  179.7530  136.8450 O   0  0  0  0  0  1  0  0  0  0  0  0
  186.4890  175.8430  137.4250 O   0  0  0  0  0  0  0  0  0  0  0  0
  185.9910  179.0650  139.7230 C   0  0  0  0  0  2  0  0  0  0  0  0
  188.8280  178.4600  138.8270 C   0  0  0  0  0  2  0  0  0  0  0  0
  182.1600  178.2520  141.6430 C   0  0  0  0  0  0  0  0  0  0  0  0
  183.4180  178.3480  141.1180 C   0  0  0  0  0  0  0  0  0  0  0  0
  182.6830  177.2080  139.1320 C   0  0  0  0  0  0  0  0  0  0  0  0
  183.4060  179.1830  143.0500 C   0  0  0  0  0  0  0  0  0  0  0  0
  182.1230  178.7790  142.8760 N   0  0  0  0  0  2  0  0  0  0  0  0
  187.0760  178.6790  140.5370 O   0  0  0  0  0  0  0  0  0  0  0  0
  181.3900  177.1150  139.6900 C   0  0  0  0  0  3  0  0  0  0  0  0
  184.2340  178.9370  142.0070 N   0  0  0  0  0  2  0  0  0  0  0  0
  183.9040  177.4480  137.0030 C   0  0  1  0  0  3  0  0  0  0  0  0
  181.1130  177.6460  140.9590 C   0  0  0  0  0  3  0  0  0  0  0  0
  184.9260  176.3480  135.1340 O   0  0  0  0  0  0  0  0  0  0  0  0
  182.0400  178.5900  134.9800 C   0  0  0  0  0  1  0  0  0  0  0  0
  183.1060  177.6800  134.5940 N   0  0  0  0  0  2  0  0  0  0  0  0
  184.0140  177.1150  135.5400 C   0  0  0  0  0  0  0  0  0  0  0  0
  183.4570  175.2020  137.9910 C   0  0  0  0  0  0  0  0  0  0  0  0
  183.8610  174.1280  138.1360 N   0  0  0  0  0  0  0  0  0  0  0  0
  188.6680  176.8760  140.7820 C   0  0  0  0  0  2  0  0  0  0  0  0
  188.7430  177.4450  142.1950 C   0  0  0  0  0  2  0  0  0  0  0  0
  187.4730  176.8900  144.1260 O   0  0  0  0  0  1  0  0  0  0  0  0
  188.3950  176.3780  143.2150 C   0  0  0  0  0  2  0  0  0  0  0  0
  1 16  1  0  0  0  0
  2 29  1  1  0  0  0
  2 17  1  0  0  0  0
  3 12  2  0  0  0  0
  4 11  1  6  0  0  0
  4 14  1  0  0  0  0
  5 13  1  6  0  0  0
  5  1  1  0  0  0  0
  7 20  1  0  0  0  0
  7 31  1  1  0  0  0
  8  3  1  1  0  0  0
  8  5  1  0  0  0  0
  9  6  1  6  0  0  0
  9  3  1  0  0  0  0
  9  4  1  0  0  0  0
 13 20  1  0  0  0  0
 14  7  1  0  0  0  0
 15 19  1  0  0  0  0
 16 15  2  0  0  0  0
 16 22  1  0  0  0  0
 17 21  1  0  0  0  0
 17  1  2  0  0  0  0
 18 10  2  0  0  0  0
 19 18  1  0  0  0  0
 21 24  2  0  0  0  0
 22 18  1  0  0  0  0
 23 28  1  6  0  0  0
 23  8  1  0  0  0  0
 23  2  1  0  0  0  0
 24 15  1  0  0  0  0
 25 28  2  0  0  0  0
 27 26  1  0  0  0  0
 27 28  1  0  0  0  0
 29 30  3  0  0  0  0
 31 32  1  0  0  0  0
 32 34  1  0  0  0  0
 34 33  1  0  0  0  0
M  END
>  <MODEL>
8

>  <REMARK>
 VINA RESULT:      -4.0      2.987      6.459
  Name = 
  5 active torsions:
  status: ('A' for Active; 'I' for Inactive)
    1  A    between atoms: C_2  and  C_8
    2  A    between atoms: C_9  and  C_11
    3  A    between atoms: C_9  and  C_29
    4  A    between atoms: C_16  and  C_32
    5  A    between atoms: C_29  and  C_33
                            x       y       z     vdW  Elec       q    Type
                         _______ _______ _______ _____ _____    ______ ____

>  <TORSDO>
F 5

$$$$
=
 OpenBabel11032421243D

 34 37  0  0  1  0  0  0  0  0999 V2000
  184.8650  176.5240  137.9510 C   0  0  0  0  0  0  0  0  0  0  0  0
  186.8020  177.9310  137.1250 C   0  0  1  0  0  3  0  0  0  0  0  0
  187.3300  174.7110  135.6760 C   0  0  0  0  0  0  0  0  0  0  0  0
  187.1710  172.2960  136.4220 C   0  0  2  0  0  3  0  0  0  0  0  0
  185.4250  175.3330  137.1890 C   0  0  1  0  0  3  0  0  0  0  0  0
  189.4020  173.4580  136.1320 C   0  0  0  0  0  1  0  0  0  0  0  0
  184.8340  173.0250  135.6990 C   0  0  2  0  0  3  0  0  0  0  0  0
  186.9550  175.3380  136.9980 C   0  0  2  0  0  3  0  0  0  0  0  0
  187.9700  173.3500  135.6270 C   0  0  2  0  0  3  0  0  0  0  0  0
  180.7400  175.3540  139.7940 O   0  0  0  0  0  0  0  0  0  0  0  0
  187.9380  171.1440  136.6090 O   0  0  0  0  0  1  0  0  0  0  0  0
  187.0980  175.2980  134.6310 O   0  0  0  0  0  0  0  0  0  0  0  0
  185.0440  173.9720  137.7830 C   0  0  0  0  0  2  0  0  0  0  0  0
  185.8680  171.8960  135.7270 C   0  0  0  0  0  2  0  0  0  0  0  0
  183.1030  177.6040  139.2200 C   0  0  0  0  0  0  0  0  0  0  0  0
  183.6230  176.4970  138.6100 C   0  0  0  0  0  0  0  0  0  0  0  0
  185.5270  177.7790  137.8930 C   0  0  0  0  0  0  0  0  0  0  0  0
  181.7560  176.0140  139.4540 C   0  0  0  0  0  0  0  0  0  0  0  0
  181.9120  177.3230  139.7700 N   0  0  0  0  0  2  0  0  0  0  0  0
  184.1940  173.2240  136.9420 O   0  0  0  0  0  0  0  0  0  0  0  0
  184.9750  178.9130  138.5270 C   0  0  0  0  0  3  0  0  0  0  0  0
  182.7720  175.4670  138.7430 N   0  0  0  0  0  2  0  0  0  0  0  0
  187.6570  176.6770  137.3180 C   0  0  1  0  0  3  0  0  0  0  0  0
  183.7500  178.8340  139.2070 C   0  0  0  0  0  3  0  0  0  0  0  0
  189.3650  177.0050  135.6690 O   0  0  0  0  0  0  0  0  0  0  0  0
  189.9210  176.4140  139.2350 C   0  0  0  0  0  1  0  0  0  0  0  0
  190.1550  176.6690  137.8230 N   0  0  0  0  0  2  0  0  0  0  0  0
  189.0910  176.8020  136.8810 C   0  0  0  0  0  0  0  0  0  0  0  0
  186.5130  178.2010  135.7080 C   0  0  0  0  0  0  0  0  0  0  0  0
  186.2850  178.4130  134.5940 N   0  0  0  0  0  0  0  0  0  0  0  0
  183.8050  172.7990  134.5940 C   0  0  0  0  0  2  0  0  0  0  0  0
  182.4100  172.5060  135.1340 C   0  0  0  0  0  2  0  0  0  0  0  0
  181.0440  174.2210  136.0510 O   0  0  0  0  0  1  0  0  0  0  0  0
  181.4760  173.6670  134.8480 C   0  0  0  0  0  2  0  0  0  0  0  0
  1 16  1  0  0  0  0
  2 29  1  6  0  0  0
  2 23  1  0  0  0  0
  2 17  1  0  0  0  0
  4 11  1  6  0  0  0
  5 13  1  1  0  0  0
  5  1  1  0  0  0  0
  7 31  1  6  0  0  0
  7 14  1  0  0  0  0
  7 20  1  0  0  0  0
  8  3  1  6  0  0  0
  8  5  1  0  0  0  0
  8 23  1  0  0  0  0
  9  3  1  0  0  0  0
  9  6  1  1  0  0  0
  9  4  1  0  0  0  0
 12  3  2  0  0  0  0
 14  4  1  0  0  0  0
 15 19  1  0  0  0  0
 16 22  1  0  0  0  0
 16 15  2  0  0  0  0
 17  1  2  0  0  0  0
 17 21  1  0  0  0  0
 18 19  1  0  0  0  0
 18 10  2  0  0  0  0
 20 13  1  0  0  0  0
 21 24  2  0  0  0  0
 22 18  1  0  0  0  0
 23 28  1  6  0  0  0
 24 15  1  0  0  0  0
 25 28  2  0  0  0  0
 27 26  1  0  0  0  0
 28 27  1  0  0  0  0
 30 29  3  0  0  0  0
 31 32  1  0  0  0  0
 34 32  1  0  0  0  0
 34 33  1  0  0  0  0
M  END
>  <MODEL>
9

>  <REMARK>
 VINA RESULT:      -3.9      3.381      6.819
  Name = 
  5 active torsions:
  status: ('A' for Active; 'I' for Inactive)
    1  A    between atoms: C_2  and  C_8
    2  A    between atoms: C_9  and  C_11
    3  A    between atoms: C_9  and  C_29
    4  A    between atoms: C_16  and  C_32
    5  A    between atoms: C_29  and  C_33
                            x       y       z     vdW  Elec       q    Type
                         _______ _______ _______ _____ _____    ______ ____

>  <TORSDO>
F 5

$$$$
