=
 OpenBabel11042412283D

 27 31  0  0  1  0  0  0  0  0999 V2000
  184.2970  179.3490  142.9820 C   0  0  0  0  0  3  0  0  0  0  0  0
  188.6390  177.9610  144.7860 N   0  0  0  0  0  0  0  0  0  0  0  0
  186.3530  178.5310  144.1370 C   0  0  2  0  0  3  0  0  0  0  0  0
  189.3720  177.8500  143.5280 C   0  0  0  0  0  2  0  0  0  0  0  0
  185.4710  178.4100  142.8900 C   0  0  2  0  0  3  0  0  0  0  0  0
  186.0570  178.3900  146.4930 O   0  0  0  0  0  0  0  0  0  0  0  0
  187.7260  178.3110  141.7520 N   0  0  0  0  0  0  0  0  0  0  0  0
  184.0180  178.5920  145.3200 C   0  0  0  0  0  2  0  0  0  0  0  0
  186.3230  178.6470  141.6830 C   0  0  0  0  0  0  0  0  0  0  0  0
  185.8010  179.0350  140.6020 O   0  0  0  0  0  0  0  0  0  0  0  0
  187.4490  177.4590  144.1090 C   0  0  1  0  0  3  0  0  0  0  0  0
  183.6130  179.4290  144.1330 C   0  0  0  0  0  3  0  0  0  0  0  0
  185.5200  178.4860  145.4010 C   0  0  0  0  0  0  0  0  0  0  0  0
  188.1710  177.3330  142.7580 C   0  0  2  0  0  3  0  0  0  0  0  0
  188.2960  177.0110  138.5510 C   0  0  2  0  0  0  0  0  0  0  0  0
  189.3740  177.9100  138.1740 C   0  0  1  0  0  0  0  0  0  0  0  0
  188.7510  178.0630  139.5580 C   0  0  0  0  0  0  0  0  0  0  0  0
  188.6650  178.6860  140.7290 C   0  0  0  0  0  3  0  0  0  0  0  0
  189.2290  176.6580  137.5760 O   0  0  0  0  0  0  0  0  0  0  0  0
  188.9690  179.0380  137.2280 C   0  0  0  0  0  1  0  0  0  0  0  0
  187.0160  177.3660  137.9490 N   0  0  0  0  0  1  0  0  0  0  0  0
  189.1130  176.9030  145.6640 C   0  0  0  0  0  2  0  0  0  0  0  0
  189.3430  177.4600  147.0580 C   0  0  0  0  0  2  0  0  0  0  0  0
  190.7420  177.1190  147.5340 C   0  0  0  0  0  2  0  0  0  0  0  0
  191.5920  176.8080  146.3980 N   0  0  0  0  0  2  0  0  0  0  0  0
  192.7010  175.6550  148.2160 C   0  0  0  0  0  1  0  0  0  0  0  0
  192.3360  175.6120  146.7470 C   0  0  0  0  0  2  0  0  0  0  0  0
  1 12  2  0  0  0  0
  2 22  1  0  0  0  0
  3 13  1  1  0  0  0
  4  2  1  0  0  0  0
  5  1  1  1  0  0  0
  5  3  1  0  0  0  0
  7 14  1  0  0  0  0
  8 13  1  0  0  0  0
  9  7  1  0  0  0  0
  9  5  1  0  0  0  0
 10  9  2  0  0  0  0
 11  3  1  0  0  0  0
 11  2  1  1  0  0  0
 12  8  1  0  0  0  0
 13  6  2  0  0  0  0
 14  4  1  1  0  0  0
 14 11  1  0  0  0  0
 15 21  1  6  0  0  0
 15 17  1  0  0  0  0
 16 20  1  6  0  0  0
 16 15  1  0  0  0  0
 16 17  1  0  0  0  0
 17 18  2  0  0  0  0
 18  7  1  0  0  0  0
 19 16  1  0  0  0  0
 19 15  1  0  0  0  0
 22 23  1  0  0  0  0
 23 24  1  0  0  0  0
 25 27  1  0  0  0  0
 25 24  1  0  0  0  0
 27 26  1  0  0  0  0
M  END
>  <MODEL>
1

>  <REMARK>
 VINA RESULT:      -8.4      0.000      0.000
  Name = 
  6 active torsions:
  status: ('A' for Active; 'I' for Inactive)
    1  A    between atoms: N_2  and  C_25
    2  A    between atoms: C_6  and  N_14
    3  A    between atoms: C_6  and  C_21
    4  A    between atoms: N_10  and  C_18
    5  A    between atoms: N_14  and  C_15
    6  A    between atoms: C_21  and  C_25
                            x       y       z     vdW  Elec       q    Type
                         _______ _______ _______ _____ _____    ______ ____

>  <TORSDO>
F 6

$$$$
=
 OpenBabel11042412283D

 27 31  0  0  1  0  0  0  0  0999 V2000
  184.5680  179.1900  142.6400 C   0  0  0  0  0  3  0  0  0  0  0  0
  189.0840  177.7820  143.9290 N   0  0  0  0  0  0  0  0  0  0  0  0
  186.7390  178.3540  143.5450 C   0  0  2  0  0  3  0  0  0  0  0  0
  189.6800  177.7140  142.5980 C   0  0  0  0  0  2  0  0  0  0  0  0
  185.7300  178.2630  142.3950 C   0  0  2  0  0  3  0  0  0  0  0  0
  186.6980  178.1400  145.9140 O   0  0  0  0  0  0  0  0  0  0  0  0
  187.8510  178.2140  141.0220 N   0  0  0  0  0  0  0  0  0  0  0  0
  184.5440  178.3610  144.9710 C   0  0  0  0  0  2  0  0  0  0  0  0
  186.4480  178.5420  141.1130 C   0  0  0  0  0  0  0  0  0  0  0  0
  185.8110  178.9570  140.1060 O   0  0  0  0  0  0  0  0  0  0  0  0
  187.8310  177.2910  143.3680 C   0  0  1  0  0  3  0  0  0  0  0  0
  184.0110  179.2300  143.8590 C   0  0  0  0  0  3  0  0  0  0  0  0
  186.0460  178.2650  144.8890 C   0  0  0  0  0  0  0  0  0  0  0  0
  188.4060  177.2100  141.9450 C   0  0  2  0  0  3  0  0  0  0  0  0
  188.8970  176.4980  138.1540 C   0  0  2  0  0  0  0  0  0  0  0  0
  189.6730  177.5760  137.5650 C   0  0  1  0  0  0  0  0  0  0  0  0
  188.9840  177.8260  138.9020 C   0  0  0  0  0  0  0  0  0  0  0  0
  188.6740  178.6270  139.9170 C   0  0  0  0  0  3  0  0  0  0  0  0
  189.9270  176.2410  137.2500 O   0  0  0  0  0  0  0  0  0  0  0  0
  188.9890  178.3070  136.4130 C   0  0  0  0  0  1  0  0  0  0  0  0
  187.5920  176.3230  137.5270 N   0  0  0  0  0  1  0  0  0  0  0  0
  189.6540  176.7020  144.7200 C   0  0  0  0  0  2  0  0  0  0  0  0
  190.9350  177.1750  145.3830 C   0  0  0  0  0  2  0  0  0  0  0  0
  190.9300  176.8070  146.8550 C   0  0  0  0  0  2  0  0  0  0  0  0
  189.5710  176.8250  147.3670 N   0  0  0  0  0  2  0  0  0  0  0  0
  188.1120  177.9990  148.9020 C   0  0  0  0  0  1  0  0  0  0  0  0
  189.4540  178.0060  148.2010 C   0  0  0  0  0  2  0  0  0  0  0  0
  1 12  2  0  0  0  0
  2 22  1  0  0  0  0
  3 13  1  1  0  0  0
  4  2  1  0  0  0  0
  5  1  1  1  0  0  0
  5  3  1  0  0  0  0
  7  9  1  0  0  0  0
  7 14  1  0  0  0  0
  9  5  1  0  0  0  0
 10  9  2  0  0  0  0
 11  3  1  0  0  0  0
 11  2  1  1  0  0  0
 12  8  1  0  0  0  0
 13  8  1  0  0  0  0
 13  6  2  0  0  0  0
 14  4  1  1  0  0  0
 14 11  1  0  0  0  0
 15 21  1  6  0  0  0
 15 17  1  0  0  0  0
 16 20  1  6  0  0  0
 16 15  1  0  0  0  0
 16 17  1  0  0  0  0
 17 18  2  0  0  0  0
 18  7  1  0  0  0  0
 19 16  1  0  0  0  0
 19 15  1  0  0  0  0
 22 23  1  0  0  0  0
 23 24  1  0  0  0  0
 24 25  1  0  0  0  0
 25 27  1  0  0  0  0
 27 26  1  0  0  0  0
M  END
>  <MODEL>
2

>  <REMARK>
 VINA RESULT:      -7.9      1.084      1.602
  Name = 
  6 active torsions:
  status: ('A' for Active; 'I' for Inactive)
    1  A    between atoms: N_2  and  C_25
    2  A    between atoms: C_6  and  N_14
    3  A    between atoms: C_6  and  C_21
    4  A    between atoms: N_10  and  C_18
    5  A    between atoms: N_14  and  C_15
    6  A    between atoms: C_21  and  C_25
                            x       y       z     vdW  Elec       q    Type
                         _______ _______ _______ _____ _____    ______ ____

>  <TORSDO>
F 6

$$$$
=
 OpenBabel11042412283D

 27 31  0  0  1  0  0  0  0  0999 V2000
  183.6520  179.0880  142.4980 C   0  0  0  0  0  3  0  0  0  0  0  0
  187.2500  178.3160  145.7370 N   0  0  0  0  0  0  0  0  0  0  0  0
  185.2660  178.6080  144.3400 C   0  0  2  0  0  3  0  0  0  0  0  0
  188.3430  178.0800  144.7970 C   0  0  0  0  0  2  0  0  0  0  0  0
  184.8220  178.2380  142.9200 C   0  0  2  0  0  3  0  0  0  0  0  0
  184.2530  178.7880  146.4840 O   0  0  0  0  0  0  0  0  0  0  0  0
  187.3210  178.1490  142.5540 N   0  0  0  0  0  0  0  0  0  0  0  0
  182.6770  178.6590  144.7310 C   0  0  0  0  0  2  0  0  0  0  0  0
  186.0010  178.3630  142.0080 C   0  0  0  0  0  0  0  0  0  0  0  0
  185.8320  178.5470  140.7720 O   0  0  0  0  0  0  0  0  0  0  0  0
  186.3460  177.6300  144.8210 C   0  0  1  0  0  3  0  0  0  0  0  0
  182.6410  179.2810  143.3570 C   0  0  0  0  0  3  0  0  0  0  0  0
  184.0810  178.6830  145.2810 C   0  0  0  0  0  0  0  0  0  0  0  0
  187.4570  177.3650  143.7930 C   0  0  2  0  0  3  0  0  0  0  0  0
  190.5760  176.8940  142.8510 C   0  0  2  0  0  0  0  0  0  0  0  0
  191.1750  177.6730  141.7810 C   0  0  1  0  0  0  0  0  0  0  0  0
  189.6920  177.8700  142.0810 C   0  0  0  0  0  0  0  0  0  0  0  0
  188.5220  178.4430  141.8190 C   0  0  0  0  0  3  0  0  0  0  0  0
  191.9440  177.1610  142.8260 O   0  0  0  0  0  0  0  0  0  0  0  0
  191.4080  176.9080  140.4810 C   0  0  0  0  0  1  0  0  0  0  0  0
  190.3040  175.5120  142.4710 N   0  0  0  0  0  1  0  0  0  0  0  0
  187.4560  177.4370  146.8770 C   0  0  0  0  0  2  0  0  0  0  0  0
  188.1170  178.2080  148.0050 C   0  0  0  0  0  2  0  0  0  0  0  0
  189.5460  177.7360  148.1950 C   0  0  0  0  0  2  0  0  0  0  0  0
  189.8010  176.5730  147.3620 N   0  0  0  0  0  2  0  0  0  0  0  0
  192.1190  175.9570  147.6900 C   0  0  0  0  0  1  0  0  0  0  0  0
  191.1410  176.7260  146.8280 C   0  0  0  0  0  2  0  0  0  0  0  0
  1 12  2  0  0  0  0
  2 22  1  0  0  0  0
  3 11  1  0  0  0  0
  3 13  1  1  0  0  0
  4  2  1  0  0  0  0
  5  1  1  6  0  0  0
  5  3  1  0  0  0  0
  7 14  1  0  0  0  0
  8 13  1  0  0  0  0
  9  7  1  0  0  0  0
  9  5  1  0  0  0  0
 10  9  2  0  0  0  0
 11  2  1  1  0  0  0
 12  8  1  0  0  0  0
 13  6  2  0  0  0  0
 14  4  1  1  0  0  0
 14 11  1  0  0  0  0
 15 21  1  6  0  0  0
 16 20  1  6  0  0  0
 16 17  1  0  0  0  0
 16 19  1  0  0  0  0
 16 15  1  0  0  0  0
 17 15  1  0  0  0  0
 18 17  2  0  0  0  0
 18  7  1  0  0  0  0
 19 15  1  0  0  0  0
 22 23  1  0  0  0  0
 23 24  1  0  0  0  0
 25 24  1  0  0  0  0
 27 25  1  0  0  0  0
 27 26  1  0  0  0  0
M  END
>  <MODEL>
3

>  <REMARK>
 VINA RESULT:      -7.7      2.159      2.574
  Name = 
  6 active torsions:
  status: ('A' for Active; 'I' for Inactive)
    1  A    between atoms: N_2  and  C_25
    2  A    between atoms: C_6  and  N_14
    3  A    between atoms: C_6  and  C_21
    4  A    between atoms: N_10  and  C_18
    5  A    between atoms: N_14  and  C_15
    6  A    between atoms: C_21  and  C_25
                            x       y       z     vdW  Elec       q    Type
                         _______ _______ _______ _____ _____    ______ ____

>  <TORSDO>
F 6

$$$$
=
 OpenBabel11042412283D

 27 31  0  0  1  0  0  0  0  0999 V2000
  185.0820  178.8880  146.0240 C   0  0  0  0  0  3  0  0  0  0  0  0
  189.0300  177.8910  143.2940 N   0  0  0  0  0  0  0  0  0  0  0  0
  187.1920  178.2190  144.8710 C   0  0  2  0  0  3  0  0  0  0  0  0
  188.4280  178.0490  141.9730 C   0  0  0  0  0  2  0  0  0  0  0  0
  185.6620  178.1410  144.8510 C   0  0  2  0  0  3  0  0  0  0  0  0
  188.9360  177.7290  146.4130 O   0  0  0  0  0  0  0  0  0  0  0  0
  186.0400  178.5060  142.3790 N   0  0  0  0  0  0  0  0  0  0  0  0
  186.8040  177.7990  147.4260 C   0  0  0  0  0  2  0  0  0  0  0  0
  185.1800  178.6510  143.5300 C   0  0  0  0  0  0  0  0  0  0  0  0
  184.0070  179.1000  143.4120 O   0  0  0  0  0  0  0  0  0  0  0  0
  187.7760  177.3220  143.7720 C   0  0  1  0  0  3  0  0  0  0  0  0
  185.6260  178.7200  147.2380 C   0  0  0  0  0  3  0  0  0  0  0  0
  187.7380  177.8930  146.2460 C   0  0  0  0  0  0  0  0  0  0  0  0
  187.0910  177.4750  142.4050 C   0  0  2  0  0  3  0  0  0  0  0  0
  183.7350  177.7240  139.8620 C   0  0  2  0  0  0  0  0  0  0  0  0
  184.0750  178.8070  138.9550 C   0  0  1  0  0  0  0  0  0  0  0  0
  184.8440  178.6910  140.2670 C   0  0  0  0  0  0  0  0  0  0  0  0
  185.7610  179.1390  141.1180 C   0  0  0  0  0  3  0  0  0  0  0  0
  183.4750  177.6350  138.4940 O   0  0  0  0  0  0  0  0  0  0  0  0
  183.0960  179.9790  138.9580 C   0  0  0  0  0  1  0  0  0  0  0  0
  182.5100  177.9690  140.6150 N   0  0  0  0  0  1  0  0  0  0  0  0
  189.9920  176.8020  143.2100 C   0  0  0  0  0  2  0  0  0  0  0  0
  191.2800  177.2030  143.9060 C   0  0  0  0  0  2  0  0  0  0  0  0
  191.6790  176.1470  144.9190 C   0  0  0  0  0  2  0  0  0  0  0  0
  191.9950  176.7720  146.1910 N   0  0  0  0  0  2  0  0  0  0  0  0
  192.8290  175.7800  148.2360 C   0  0  0  0  0  1  0  0  0  0  0  0
  191.7050  175.7940  147.2220 C   0  0  0  0  0  2  0  0  0  0  0  0
  1 12  2  0  0  0  0
  3 13  1  1  0  0  0
  4  2  1  0  0  0  0
  5  3  1  0  0  0  0
  5  1  1  1  0  0  0
  7 14  1  0  0  0  0
  7  9  1  0  0  0  0
  9  5  1  0  0  0  0
 10  9  2  0  0  0  0
 11  2  1  6  0  0  0
 11  3  1  0  0  0  0
 12  8  1  0  0  0  0
 13  6  2  0  0  0  0
 13  8  1  0  0  0  0
 14  4  1  6  0  0  0
 14 11  1  0  0  0  0
 15 17  1  0  0  0  0
 15 21  1  1  0  0  0
 16 20  1  1  0  0  0
 16 15  1  0  0  0  0
 16 17  1  0  0  0  0
 17 18  2  0  0  0  0
 18  7  1  0  0  0  0
 19 16  1  0  0  0  0
 19 15  1  0  0  0  0
 22  2  1  0  0  0  0
 22 23  1  0  0  0  0
 23 24  1  0  0  0  0
 24 25  1  0  0  0  0
 25 27  1  0  0  0  0
 27 26  1  0  0  0  0
M  END
>  <MODEL>
4

>  <REMARK>
 VINA RESULT:      -7.7      2.474      3.289
  Name = 
  6 active torsions:
  status: ('A' for Active; 'I' for Inactive)
    1  A    between atoms: N_2  and  C_25
    2  A    between atoms: C_6  and  N_14
    3  A    between atoms: C_6  and  C_21
    4  A    between atoms: N_10  and  C_18
    5  A    between atoms: N_14  and  C_15
    6  A    between atoms: C_21  and  C_25
                            x       y       z     vdW  Elec       q    Type
                         _______ _______ _______ _____ _____    ______ ____

>  <TORSDO>
F 6

$$$$
=
 OpenBabel11042412283D

 27 31  0  0  1  0  0  0  0  0999 V2000
  191.9600  176.0310  145.9740 C   0  0  0  0  0  3  0  0  0  0  0  0
  187.3100  177.4490  145.3380 N   0  0  0  0  0  0  0  0  0  0  0  0
  189.6190  176.8940  145.9180 C   0  0  2  0  0  3  0  0  0  0  0  0
  187.2640  177.3990  143.8800 C   0  0  0  0  0  2  0  0  0  0  0  0
  190.9890  176.9130  145.2320 C   0  0  2  0  0  3  0  0  0  0  0  0
  188.7630  177.2970  148.1000 O   0  0  0  0  0  0  0  0  0  0  0  0
  189.5470  176.8100  143.1590 N   0  0  0  0  0  0  0  0  0  0  0  0
  191.1100  177.0430  148.0650 C   0  0  0  0  0  2  0  0  0  0  0  0
  190.8070  176.5180  143.8010 C   0  0  0  0  0  0  0  0  0  0  0  0
  191.7730  176.0360  143.1470 O   0  0  0  0  0  0  0  0  0  0  0  0
  188.6880  177.9180  145.2550 C   0  0  1  0  0  3  0  0  0  0  0  0
  192.0130  176.0990  147.3120 C   0  0  0  0  0  3  0  0  0  0  0  0
  189.7520  177.1030  147.4120 C   0  0  0  0  0  0  0  0  0  0  0  0
  188.6960  177.8730  143.7190 C   0  0  2  0  0  3  0  0  0  0  0  0
  190.4450  177.8580  139.9410 C   0  0  2  0  0  0  0  0  0  0  0  0
  189.7030  176.8490  139.2030 C   0  0  1  0  0  0  0  0  0  0  0  0
  189.6290  176.8350  140.7260 C   0  0  0  0  0  0  0  0  0  0  0  0
  189.1990  176.2950  141.8630 C   0  0  0  0  0  3  0  0  0  0  0  0
  190.0460  178.0690  138.6210 O   0  0  0  0  0  0  0  0  0  0  0  0
  190.5480  175.7040  138.6520 C   0  0  0  0  0  1  0  0  0  0  0  0
  191.8730  177.5760  140.0190 N   0  0  0  0  0  1  0  0  0  0  0  0
  186.4960  178.5770  145.7640 C   0  0  0  0  0  2  0  0  0  0  0  0
  185.1260  178.0850  146.1960 C   0  0  0  0  0  2  0  0  0  0  0  0
  184.0400  178.9000  145.5200 C   0  0  0  0  0  2  0  0  0  0  0  0
  184.5400  179.4620  144.2770 N   0  0  0  0  0  2  0  0  0  0  0  0
  182.2570  178.9370  143.6650 C   0  0  0  0  0  1  0  0  0  0  0  0
  183.7030  178.9390  143.2150 C   0  0  0  0  0  2  0  0  0  0  0  0
  1 12  2  0  0  0  0
  2 22  1  0  0  0  0
  3 13  1  1  0  0  0
  4  2  1  0  0  0  0
  5  3  1  0  0  0  0
  5  1  1  1  0  0  0
  7 14  1  0  0  0  0
  7  9  1  0  0  0  0
  9  5  1  0  0  0  0
 10  9  2  0  0  0  0
 11  2  1  1  0  0  0
 11  3  1  0  0  0  0
 12  8  1  0  0  0  0
 13  8  1  0  0  0  0
 13  6  2  0  0  0  0
 14  4  1  1  0  0  0
 14 11  1  0  0  0  0
 15 21  1  1  0  0  0
 15 17  1  0  0  0  0
 16 20  1  6  0  0  0
 16 15  1  0  0  0  0
 16 17  1  0  0  0  0
 17 18  2  0  0  0  0
 18  7  1  0  0  0  0
 19 16  1  0  0  0  0
 19 15  1  0  0  0  0
 22 23  1  0  0  0  0
 24 23  1  0  0  0  0
 25 24  1  0  0  0  0
 27 26  1  0  0  0  0
 27 25  1  0  0  0  0
M  END
>  <MODEL>
5

>  <REMARK>
 VINA RESULT:      -7.5      2.230      5.671
  Name = 
  6 active torsions:
  status: ('A' for Active; 'I' for Inactive)
    1  A    between atoms: N_2  and  C_25
    2  A    between atoms: C_6  and  N_14
    3  A    between atoms: C_6  and  C_21
    4  A    between atoms: N_10  and  C_18
    5  A    between atoms: N_14  and  C_15
    6  A    between atoms: C_21  and  C_25
                            x       y       z     vdW  Elec       q    Type
                         _______ _______ _______ _____ _____    ______ ____

>  <TORSDO>
F 6

$$$$
=
 OpenBabel11042412283D

 27 31  0  0  1  0  0  0  0  0999 V2000
  186.3110  178.3530  146.6790 C   0  0  0  0  0  3  0  0  0  0  0  0
  189.0700  177.8420  142.6590 N   0  0  0  0  0  0  0  0  0  0  0  0
  187.8780  177.8920  144.7920 C   0  0  2  0  0  3  0  0  0  0  0  0
  188.0770  178.2310  141.6620 C   0  0  0  0  0  2  0  0  0  0  0  0
  186.4250  177.8220  145.2740 C   0  0  2  0  0  3  0  0  0  0  0  0
  189.9990  177.1360  145.5570 O   0  0  0  0  0  0  0  0  0  0  0  0
  185.9880  178.6150  142.9140 N   0  0  0  0  0  0  0  0  0  0  0  0
  188.3290  177.0310  147.2230 C   0  0  0  0  0  2  0  0  0  0  0  0
  185.5660  178.5570  144.2940 C   0  0  0  0  0  0  0  0  0  0  0  0
  184.4500  179.0230  144.6510 O   0  0  0  0  0  0  0  0  0  0  0  0
  188.0100  177.2010  143.4290 C   0  0  1  0  0  3  0  0  0  0  0  0
  187.2130  177.9740  147.5960 C   0  0  0  0  0  3  0  0  0  0  0  0
  188.8250  177.3290  145.8300 C   0  0  0  0  0  0  0  0  0  0  0  0
  186.9240  177.5940  142.4160 C   0  0  2  0  0  3  0  0  0  0  0  0
  184.3650  177.8560  139.9060 C   0  0  2  0  0  0  0  0  0  0  0  0
  184.0140  179.2160  139.5350 C   0  0  1  0  0  0  0  0  0  0  0  0
  184.7840  178.9930  140.8320 C   0  0  0  0  0  0  0  0  0  0  0  0
  185.3480  179.4600  141.9420 C   0  0  0  0  0  3  0  0  0  0  0  0
  184.1290  178.2090  138.5770 O   0  0  0  0  0  0  0  0  0  0  0  0
  182.5560  179.5950  139.7830 C   0  0  0  0  0  1  0  0  0  0  0  0
  183.2430  177.1040  140.4560 N   0  0  0  0  0  1  0  0  0  0  0  0
  189.8820  176.7840  142.0790 C   0  0  0  0  0  2  0  0  0  0  0  0
  191.2690  177.3150  141.7680 C   0  0  0  0  0  2  0  0  0  0  0  0
  191.5370  177.2390  140.2760 C   0  0  0  0  0  2  0  0  0  0  0  0
  190.5840  176.3430  139.6450 N   0  0  0  0  0  2  0  0  0  0  0  0
  189.2360  177.6650  138.1290 C   0  0  0  0  0  1  0  0  0  0  0  0
  190.4530  176.7750  138.2670 C   0  0  0  0  0  2  0  0  0  0  0  0
  1 12  2  0  0  0  0
  3  5  1  0  0  0  0
  3 13  1  1  0  0  0
  4  2  1  0  0  0  0
  5  1  1  1  0  0  0
  6 13  2  0  0  0  0
  7  9  1  0  0  0  0
  8 12  1  0  0  0  0
  9 10  2  0  0  0  0
  9  5  1  0  0  0  0
 11  2  1  6  0  0  0
 11  3  1  0  0  0  0
 13  8  1  0  0  0  0
 14  4  1  6  0  0  0
 14  7  1  0  0  0  0
 14 11  1  0  0  0  0
 15 21  1  1  0  0  0
 15 17  1  0  0  0  0
 16 20  1  1  0  0  0
 16 15  1  0  0  0  0
 16 17  1  0  0  0  0
 17 18  2  0  0  0  0
 18  7  1  0  0  0  0
 19 16  1  0  0  0  0
 19 15  1  0  0  0  0
 22  2  1  0  0  0  0
 23 22  1  0  0  0  0
 24 23  1  0  0  0  0
 25 24  1  0  0  0  0
 26 27  1  0  0  0  0
 27 25  1  0  0  0  0
M  END
>  <MODEL>
6

>  <REMARK>
 VINA RESULT:      -7.4      2.451      4.993
  Name = 
  6 active torsions:
  status: ('A' for Active; 'I' for Inactive)
    1  A    between atoms: N_2  and  C_25
    2  A    between atoms: C_6  and  N_14
    3  A    between atoms: C_6  and  C_21
    4  A    between atoms: N_10  and  C_18
    5  A    between atoms: N_14  and  C_15
    6  A    between atoms: C_21  and  C_25
                            x       y       z     vdW  Elec       q    Type
                         _______ _______ _______ _____ _____    ______ ____

>  <TORSDO>
F 6

$$$$
=
 OpenBabel11042412283D

 27 31  0  0  1  0  0  0  0  0999 V2000
  191.6750  176.6540  145.9340 C   0  0  0  0  0  3  0  0  0  0  0  0
  187.0220  177.1590  144.4750 N   0  0  0  0  0  0  0  0  0  0  0  0
  189.2580  177.0500  145.4570 C   0  0  2  0  0  3  0  0  0  0  0  0
  187.2420  177.1280  143.0310 C   0  0  0  0  0  2  0  0  0  0  0  0
  190.6960  177.3450  145.0210 C   0  0  2  0  0  3  0  0  0  0  0  0
  187.9730  177.2390  147.4500 O   0  0  0  0  0  0  0  0  0  0  0  0
  189.6860  177.0040  142.7300 N   0  0  0  0  0  0  0  0  0  0  0  0
  190.2950  177.4440  147.8290 C   0  0  0  0  0  2  0  0  0  0  0  0
  190.8470  176.9490  143.5860 C   0  0  0  0  0  0  0  0  0  0  0  0
  191.9860  176.6750  143.1190 O   0  0  0  0  0  0  0  0  0  0  0  0
  188.2770  177.8870  144.6260 C   0  0  1  0  0  3  0  0  0  0  0  0
  191.4800  176.7060  147.2600 C   0  0  0  0  0  3  0  0  0  0  0  0
  189.0850  177.2530  146.9480 C   0  0  0  0  0  0  0  0  0  0  0  0
  188.5610  177.8730  143.1150 C   0  0  2  0  0  3  0  0  0  0  0  0
  188.2460  178.1740  139.7600 C   0  0  2  0  0  0  0  0  0  0  0  0
  188.6730  177.0810  138.9030 C   0  0  1  0  0  0  0  0  0  0  0  0
  189.0570  177.0390  140.3780 C   0  0  0  0  0  0  0  0  0  0  0  0
  189.6750  176.4550  141.4010 C   0  0  0  0  0  3  0  0  0  0  0  0
  187.5630  177.8630  138.5850 O   0  0  0  0  0  0  0  0  0  0  0  0
  189.8650  177.3990  138.0020 C   0  0  0  0  0  1  0  0  0  0  0  0
  189.0510  179.3790  139.5980 N   0  0  0  0  0  1  0  0  0  0  0  0
  185.9450  178.1010  144.7340 C   0  0  0  0  0  2  0  0  0  0  0  0
  185.0870  178.2510  143.4900 C   0  0  0  0  0  2  0  0  0  0  0  0
  183.7120  178.7750  143.8620 C   0  0  0  0  0  2  0  0  0  0  0  0
  182.8830  178.8840  142.6740 N   0  0  0  0  0  2  0  0  0  0  0  0
  182.7170  177.8150  140.5080 C   0  0  0  0  0  1  0  0  0  0  0  0
  183.6560  178.3390  141.5740 C   0  0  0  0  0  2  0  0  0  0  0  0
  1 12  2  0  0  0  0
  2 22  1  0  0  0  0
  3 13  1  1  0  0  0
  4  2  1  0  0  0  0
  5  3  1  0  0  0  0
  5  1  1  1  0  0  0
  7 14  1  0  0  0  0
  7  9  1  0  0  0  0
  9  5  1  0  0  0  0
 10  9  2  0  0  0  0
 11  2  1  6  0  0  0
 11  3  1  0  0  0  0
 12  8  1  0  0  0  0
 13  6  2  0  0  0  0
 13  8  1  0  0  0  0
 14  4  1  6  0  0  0
 14 11  1  0  0  0  0
 15 21  1  6  0  0  0
 15 17  1  0  0  0  0
 16 20  1  6  0  0  0
 16 15  1  0  0  0  0
 16 17  1  0  0  0  0
 17 18  2  0  0  0  0
 18  7  1  0  0  0  0
 19 16  1  0  0  0  0
 19 15  1  0  0  0  0
 23 24  1  0  0  0  0
 23 22  1  0  0  0  0
 25 24  1  0  0  0  0
 26 27  1  0  0  0  0
 27 25  1  0  0  0  0
M  END
>  <MODEL>
7

>  <REMARK>
 VINA RESULT:      -7.1      2.173      5.671
  Name = 
  6 active torsions:
  status: ('A' for Active; 'I' for Inactive)
    1  A    between atoms: N_2  and  C_25
    2  A    between atoms: C_6  and  N_14
    3  A    between atoms: C_6  and  C_21
    4  A    between atoms: N_10  and  C_18
    5  A    between atoms: N_14  and  C_15
    6  A    between atoms: C_21  and  C_25
                            x       y       z     vdW  Elec       q    Type
                         _______ _______ _______ _____ _____    ______ ____

>  <TORSDO>
F 6

$$$$
=
 OpenBabel11042412283D

 27 31  0  0  1  0  0  0  0  0999 V2000
  186.3790  178.1710  146.7610 C   0  0  0  0  0  3  0  0  0  0  0  0
  188.4090  178.2840  142.3000 N   0  0  0  0  0  0  0  0  0  0  0  0
  187.6260  178.0450  144.6030 C   0  0  2  0  0  3  0  0  0  0  0  0
  187.2090  178.5770  141.5210 C   0  0  0  0  0  2  0  0  0  0  0  0
  186.3070  177.7390  145.3200 C   0  0  2  0  0  3  0  0  0  0  0  0
  189.9330  177.5660  144.9310 O   0  0  0  0  0  0  0  0  0  0  0  0
  185.3480  178.5850  143.1400 N   0  0  0  0  0  0  0  0  0  0  0  0
  188.6210  177.1300  146.8450 C   0  0  0  0  0  2  0  0  0  0  0  0
  185.1950  178.3920  144.5620 C   0  0  0  0  0  0  0  0  0  0  0  0
  184.1100  178.6710  145.1420 O   0  0  0  0  0  0  0  0  0  0  0  0
  187.6020  177.4550  143.1870 C   0  0  1  0  0  3  0  0  0  0  0  0
  187.4750  177.8780  147.4770 C   0  0  0  0  0  3  0  0  0  0  0  0
  188.8130  177.5710  145.4160 C   0  0  0  0  0  0  0  0  0  0  0  0
  186.3070  177.7390  142.4090 C   0  0  2  0  0  3  0  0  0  0  0  0
  183.8860  178.0170  140.0090 C   0  0  2  0  0  0  0  0  0  0  0  0
  183.1220  179.2510  139.9340 C   0  0  1  0  0  0  0  0  0  0  0  0
  183.9860  179.0060  141.1670 C   0  0  0  0  0  0  0  0  0  0  0  0
  184.4370  179.3790  142.3610 C   0  0  0  0  0  3  0  0  0  0  0  0
  183.4900  178.5530  138.7840 O   0  0  0  0  0  0  0  0  0  0  0  0
  181.6320  179.1040  140.2320 C   0  0  0  0  0  1  0  0  0  0  0  0
  183.0730  176.8600  140.3640 N   0  0  0  0  0  1  0  0  0  0  0  0
  189.2370  177.3870  141.5080 C   0  0  0  0  0  2  0  0  0  0  0  0
  188.7080  177.3260  140.0860 C   0  0  0  0  0  2  0  0  0  0  0  0
  189.6920  177.9790  139.1330 C   0  0  0  0  0  2  0  0  0  0  0  0
  189.0520  179.0840  138.4390 N   0  0  0  0  0  2  0  0  0  0  0  0
  187.5670  178.5260  136.6100 C   0  0  0  0  0  1  0  0  0  0  0  0
  189.0070  178.7250  137.0340 C   0  0  0  0  0  2  0  0  0  0  0  0
  1 12  2  0  0  0  0
  3  5  1  0  0  0  0
  3 13  1  1  0  0  0
  4  2  1  0  0  0  0
  5  1  1  1  0  0  0
  6 13  2  0  0  0  0
  7  9  1  0  0  0  0
  8 12  1  0  0  0  0
  9 10  2  0  0  0  0
  9  5  1  0  0  0  0
 11  2  1  6  0  0  0
 11  3  1  0  0  0  0
 13  8  1  0  0  0  0
 14  4  1  6  0  0  0
 14  7  1  0  0  0  0
 14 11  1  0  0  0  0
 15 21  1  1  0  0  0
 15 17  1  0  0  0  0
 16 15  1  0  0  0  0
 16 20  1  1  0  0  0
 16 17  1  0  0  0  0
 17 18  2  0  0  0  0
 18  7  1  0  0  0  0
 19 16  1  0  0  0  0
 19 15  1  0  0  0  0
 22  2  1  0  0  0  0
 23 22  1  0  0  0  0
 24 23  1  0  0  0  0
 25 24  1  0  0  0  0
 26 27  1  0  0  0  0
 27 25  1  0  0  0  0
M  END
>  <MODEL>
8

>  <REMARK>
 VINA RESULT:      -7.0      2.444      5.802
  Name = 
  6 active torsions:
  status: ('A' for Active; 'I' for Inactive)
    1  A    between atoms: N_2  and  C_25
    2  A    between atoms: C_6  and  N_14
    3  A    between atoms: C_6  and  C_21
    4  A    between atoms: N_10  and  C_18
    5  A    between atoms: N_14  and  C_15
    6  A    between atoms: C_21  and  C_25
                            x       y       z     vdW  Elec       q    Type
                         _______ _______ _______ _____ _____    ______ ____

>  <TORSDO>
F 6

$$$$
=
 OpenBabel11042412283D

 27 31  0  0  1  0  0  0  0  0999 V2000
  185.7690  178.6210  147.0840 C   0  0  0  0  0  3  0  0  0  0  0  0
  187.3510  178.3270  142.4530 N   0  0  0  0  0  0  0  0  0  0  0  0
  186.8000  178.2990  144.8340 C   0  0  2  0  0  3  0  0  0  0  0  0
  186.0780  178.5510  141.7730 C   0  0  0  0  0  2  0  0  0  0  0  0
  185.5590  178.0610  145.7010 C   0  0  2  0  0  3  0  0  0  0  0  0
  189.1310  177.8470  144.9750 O   0  0  0  0  0  0  0  0  0  0  0  0
  184.3850  178.7090  143.5590 N   0  0  0  0  0  0  0  0  0  0  0  0
  188.0160  177.5880  147.0410 C   0  0  0  0  0  2  0  0  0  0  0  0
  184.3730  178.6460  145.0020 C   0  0  0  0  0  0  0  0  0  0  0  0
  183.3480  178.9780  145.6570 O   0  0  0  0  0  0  0  0  0  0  0  0
  186.6400  177.5830  143.4860 C   0  0  1  0  0  3  0  0  0  0  0  0
  186.9320  178.3930  147.7120 C   0  0  0  0  0  3  0  0  0  0  0  0
  188.0640  177.8980  145.5660 C   0  0  0  0  0  0  0  0  0  0  0  0
  185.2740  177.7990  142.8170 C   0  0  2  0  0  3  0  0  0  0  0  0
  181.0120  178.0190  142.9200 C   0  0  2  0  0  0  0  0  0  0  0  0
  180.7320  179.1930  142.1110 C   0  0  1  0  0  0  0  0  0  0  0  0
  182.1450  179.0070  142.6560 C   0  0  0  0  0  0  0  0  0  0  0  0
  183.3960  179.4310  142.8060 C   0  0  0  0  0  3  0  0  0  0  0  0
  179.9650  178.0340  141.9990 O   0  0  0  0  0  0  0  0  0  0  0  0
  179.9740  180.3050  142.8310 C   0  0  0  0  0  1  0  0  0  0  0  0
  180.5130  178.1310  144.2850 N   0  0  0  0  0  1  0  0  0  0  0  0
  188.1030  177.3610  141.6670 C   0  0  0  0  0  2  0  0  0  0  0  0
  188.9830  178.0900  140.6680 C   0  0  0  0  0  2  0  0  0  0  0  0
  188.4970  177.8320  139.2540 C   0  0  0  0  0  2  0  0  0  0  0  0
  188.8760  178.9350  138.3890 N   0  0  0  0  0  2  0  0  0  0  0  0
  189.3830  177.6120  136.4250 C   0  0  0  0  0  1  0  0  0  0  0  0
  188.4190  178.5950  137.0540 C   0  0  0  0  0  2  0  0  0  0  0  0
  1 12  2  0  0  0  0
  3 13  1  1  0  0  0
  3  5  1  0  0  0  0
  4  2  1  0  0  0  0
  5  1  1  1  0  0  0
  6 13  2  0  0  0  0
  7  9  1  0  0  0  0
  8 12  1  0  0  0  0
  9 10  2  0  0  0  0
  9  5  1  0  0  0  0
 11  2  1  6  0  0  0
 11  3  1  0  0  0  0
 13  8  1  0  0  0  0
 14  4  1  6  0  0  0
 14 11  1  0  0  0  0
 14  7  1  0  0  0  0
 15 21  1  1  0  0  0
 16 17  1  0  0  0  0
 16 20  1  1  0  0  0
 16 15  1  0  0  0  0
 17 18  2  0  0  0  0
 17 15  1  0  0  0  0
 18  7  1  0  0  0  0
 19 16  1  0  0  0  0
 19 15  1  0  0  0  0
 22  2  1  0  0  0  0
 23 22  1  0  0  0  0
 24 23  1  0  0  0  0
 25 24  1  0  0  0  0
 26 27  1  0  0  0  0
 27 25  1  0  0  0  0
M  END
>  <MODEL>
9

>  <REMARK>
 VINA RESULT:      -6.8      2.879      6.725
  Name = 
  6 active torsions:
  status: ('A' for Active; 'I' for Inactive)
    1  A    between atoms: N_2  and  C_25
    2  A    between atoms: C_6  and  N_14
    3  A    between atoms: C_6  and  C_21
    4  A    between atoms: N_10  and  C_18
    5  A    between atoms: N_14  and  C_15
    6  A    between atoms: C_21  and  C_25
                            x       y       z     vdW  Elec       q    Type
                         _______ _______ _______ _____ _____    ______ ____

>  <TORSDO>
F 6

$$$$
