=
 OpenBabel11042409483D

 33 36  0  0  1  0  0  0  0  0999 V2000
  186.0150  178.3450  144.8700 C   0  0  0  0  0  2  0  0  0  0  0  0
  186.4630  178.1690  142.0700 C   0  0  0  0  0  3  0  0  0  0  0  0
  188.8630  178.1380  142.5960 C   0  0  2  0  0  3  0  0  0  0  0  0
  187.2820  178.1700  144.4760 C   0  0  0  0  0  0  0  0  0  0  0  0
  187.8570  177.2600  146.7040 O   0  0  0  0  0  1  0  0  0  0  0  0
  183.3930  178.9440  145.6080 O   0  0  0  0  0  0  0  0  0  0  0  0
  187.5900  178.1740  143.0220 C   0  0  0  0  0  0  0  0  0  0  0  0
  190.1850  178.6040  143.7170 S   0  0  0  0  0  0  0  0  0  0  0  0
  185.2190  178.3590  142.5110 C   0  0  0  0  0  3  0  0  0  0  0  0
  188.2920  177.7030  145.4560 C   0  0  1  0  0  3  0  0  0  0  0  0
  183.6250  178.8240  144.3740 C   0  0  0  0  0  0  0  0  0  0  0  0
  189.5970  177.6390  145.1230 C   0  0  2  0  0  3  0  0  0  0  0  0
  184.9570  178.5440  143.9140 N   0  0  0  0  0  0  0  0  0  0  0  0
  192.5260  175.5780  147.5030 C   0  0  0  0  0  3  0  0  0  0  0  0
  190.7720  177.2320  147.2960 C   0  0  0  0  0  3  0  0  0  0  0  0
  192.3710  175.2490  146.1550 C   0  0  0  0  0  3  0  0  0  0  0  0
  191.4160  175.9110  145.3790 C   0  0  0  0  0  3  0  0  0  0  0  0
  191.7260  176.5710  148.0740 C   0  0  0  0  0  3  0  0  0  0  0  0
  190.5970  176.9040  145.9420 C   0  0  0  0  0  0  0  0  0  0  0  0
  190.0430  176.8560  140.7720 C   0  0  0  0  0  0  0  0  0  0  0  0
  190.4720  175.9910  141.5820 O   0  0  0  0  0  0  0  0  0  0  0  0
  189.1950  177.9180  141.2210 N   0  0  0  0  0  2  0  0  0  0  0  0
  190.3750  176.7430  139.3240 C   0  0  0  0  0  2  0  0  0  0  0  0
  189.0360  176.0330  137.4750 O   0  0  0  0  0  0  0  0  0  0  0  0
  189.1510  177.0180  138.4650 C   0  0  2  0  0  3  0  0  0  0  0  0
  188.3510  176.6530  136.4210 C   0  0  0  0  0  2  0  0  0  0  0  0
  189.2680  178.3640  137.7830 C   0  0  0  0  0  2  0  0  0  0  0  0
  188.7130  178.1200  136.4130 C   0  0  0  0  0  2  0  0  0  0  0  0
  182.4890  178.9540  143.4140 C   0  0  0  0  0  2  0  0  0  0  0  0
  181.1790  178.6730  144.1240 C   0  0  0  0  0  2  0  0  0  0  0  0
  180.0330  180.5160  142.8410 N   0  0  0  0  0  1  0  0  0  0  0  0
  180.0420  179.1700  143.3030 C   0  0  0  0  0  0  0  0  0  0  0  0
  179.0750  178.4090  143.0410 O   0  0  0  0  0  0  0  0  0  0  0  0
  2  9  2  0  0  0  0
  2  7  1  0  0  0  0
  3 22  1  6  0  0  0
  3  7  1  0  0  0  0
  3  8  1  0  0  0  0
  4  1  1  0  0  0  0
  4 10  1  0  0  0  0
  7  4  2  0  0  0  0
  8 12  1  0  0  0  0
  9 13  1  0  0  0  0
 10  5  1  6  0  0  0
 11  6  2  0  0  0  0
 12 10  1  0  0  0  0
 12 19  1  1  0  0  0
 13 11  1  0  0  0  0
 13  1  1  0  0  0  0
 14 18  1  0  0  0  0
 15 18  2  0  0  0  0
 16 14  2  0  0  0  0
 17 19  2  0  0  0  0
 17 16  1  0  0  0  0
 19 15  1  0  0  0  0
 20 22  1  0  0  0  0
 20 21  2  0  0  0  0
 23 20  1  0  0  0  0
 24 25  1  0  0  0  0
 25 23  1  6  0  0  0
 26 24  1  0  0  0  0
 27 25  1  0  0  0  0
 28 26  1  0  0  0  0
 28 27  1  0  0  0  0
 29 30  1  0  0  0  0
 29 11  1  0  0  0  0
 31 32  1  0  0  0  0
 32 30  1  0  0  0  0
 33 32  2  0  0  0  0
M  END
>  <MODEL>
1

>  <REMARK>
 VINA RESULT:      -8.9      0.000      0.000
  Name = 
  7 active torsions:
  status: ('A' for Active; 'I' for Inactive)
    1  A    between atoms: C_2  and  C_18
    2  A    between atoms: C_8  and  N_30
    3  A    between atoms: C_9  and  C_21
    4  A    between atoms: C_9  and  C_28
    5  A    between atoms: C_15  and  C_21
    6  A    between atoms: C_18  and  C_19
    7  A    between atoms: C_25  and  C_31
                            x       y       z     vdW  Elec       q    Type
                         _______ _______ _______ _____ _____    ______ ____

>  <TORSDO>
F 7

$$$$
=
 OpenBabel11042409483D

 33 36  0  0  1  0  0  0  0  0999 V2000
  185.9570  178.3180  144.6150 C   0  0  0  0  0  2  0  0  0  0  0  0
  186.3760  178.2980  141.8050 C   0  0  0  0  0  3  0  0  0  0  0  0
  188.7830  178.2700  142.3050 C   0  0  2  0  0  3  0  0  0  0  0  0
  187.2210  178.1800  144.2000 C   0  0  0  0  0  0  0  0  0  0  0  0
  187.8320  177.1590  146.3690 O   0  0  0  0  0  1  0  0  0  0  0  0
  183.3350  178.8430  145.4100 O   0  0  0  0  0  0  0  0  0  0  0  0
  187.5140  178.2660  142.7450 C   0  0  0  0  0  0  0  0  0  0  0  0
  190.1110  178.6920  143.4360 S   0  0  0  0  0  0  0  0  0  0  0  0
  185.1350  178.4480  142.2680 C   0  0  0  0  0  3  0  0  0  0  0  0
  188.2470  177.6750  145.1430 C   0  0  1  0  0  3  0  0  0  0  0  0
  183.5560  178.7920  144.1700 C   0  0  0  0  0  0  0  0  0  0  0  0
  189.5490  177.6450  144.7940 C   0  0  2  0  0  3  0  0  0  0  0  0
  184.8860  178.5550  143.6820 N   0  0  0  0  0  0  0  0  0  0  0  0
  192.4570  175.3700  146.9990 C   0  0  0  0  0  3  0  0  0  0  0  0
  191.3590  175.9190  144.9140 C   0  0  0  0  0  3  0  0  0  0  0  0
  191.6680  176.3140  147.6600 C   0  0  0  0  0  3  0  0  0  0  0  0
  190.7270  177.0610  146.9480 C   0  0  0  0  0  3  0  0  0  0  0  0
  192.3010  175.1710  145.6250 C   0  0  0  0  0  3  0  0  0  0  0  0
  190.5670  176.8800  145.5630 C   0  0  0  0  0  0  0  0  0  0  0  0
  189.9260  177.0800  140.3980 C   0  0  0  0  0  0  0  0  0  0  0  0
  190.3410  176.1570  141.1500 O   0  0  0  0  0  0  0  0  0  0  0  0
  189.1020  178.1280  140.9170 N   0  0  0  0  0  2  0  0  0  0  0  0
  190.2480  177.0490  138.9440 C   0  0  0  0  0  2  0  0  0  0  0  0
  190.9750  174.9230  138.1270 O   0  0  0  0  0  0  0  0  0  0  0  0
  189.8400  175.7200  138.3270 C   0  0  2  0  0  3  0  0  0  0  0  0
  190.6440  174.0800  137.0570 C   0  0  0  0  0  2  0  0  0  0  0  0
  189.1700  175.9350  136.9880 C   0  0  0  0  0  2  0  0  0  0  0  0
  189.6990  174.8200  136.1390 C   0  0  0  0  0  2  0  0  0  0  0  0
  182.4080  178.9590  143.2290 C   0  0  0  0  0  2  0  0  0  0  0  0
  181.1010  178.7360  143.9660 C   0  0  0  0  0  2  0  0  0  0  0  0
  179.9370  180.5840  142.7080 N   0  0  0  0  0  1  0  0  0  0  0  0
  179.9660  179.2280  143.1410 C   0  0  0  0  0  0  0  0  0  0  0  0
  179.0160  178.4550  142.8510 O   0  0  0  0  0  0  0  0  0  0  0  0
  2  9  2  0  0  0  0
  2  7  1  0  0  0  0
  3 22  1  6  0  0  0
  3  7  1  0  0  0  0
  3  8  1  0  0  0  0
  4  1  1  0  0  0  0
  4 10  1  0  0  0  0
  7  4  2  0  0  0  0
  8 12  1  0  0  0  0
  9 13  1  0  0  0  0
 10  5  1  6  0  0  0
 11  6  2  0  0  0  0
 12 10  1  0  0  0  0
 12 19  1  1  0  0  0
 13 11  1  0  0  0  0
 13  1  1  0  0  0  0
 14 16  1  0  0  0  0
 15 19  2  0  0  0  0
 15 18  1  0  0  0  0
 17 16  2  0  0  0  0
 18 14  2  0  0  0  0
 19 17  1  0  0  0  0
 20 22  1  0  0  0  0
 20 21  2  0  0  0  0
 23 20  1  0  0  0  0
 24 25  1  0  0  0  0
 25 23  1  6  0  0  0
 26 24  1  0  0  0  0
 27 25  1  0  0  0  0
 28 27  1  0  0  0  0
 28 26  1  0  0  0  0
 29 30  1  0  0  0  0
 29 11  1  0  0  0  0
 31 32  1  0  0  0  0
 32 30  1  0  0  0  0
 33 32  2  0  0  0  0
M  END
>  <MODEL>
2

>  <REMARK>
 VINA RESULT:      -8.5      0.955      1.405
  Name = 
  7 active torsions:
  status: ('A' for Active; 'I' for Inactive)
    1  A    between atoms: C_2  and  C_18
    2  A    between atoms: C_8  and  N_30
    3  A    between atoms: C_9  and  C_21
    4  A    between atoms: C_9  and  C_28
    5  A    between atoms: C_15  and  C_21
    6  A    between atoms: C_18  and  C_19
    7  A    between atoms: C_25  and  C_31
                            x       y       z     vdW  Elec       q    Type
                         _______ _______ _______ _____ _____    ______ ____

>  <TORSDO>
F 7

$$$$
=
 OpenBabel11042409483D

 33 36  0  0  1  0  0  0  0  0999 V2000
  189.1180  177.9540  142.1290 C   0  0  0  0  0  2  0  0  0  0  0  0
  186.8590  177.6520  143.8260 C   0  0  0  0  0  3  0  0  0  0  0  0
  185.4970  178.3550  141.9040 C   0  0  2  0  0  3  0  0  0  0  0  0
  187.9170  178.1110  141.5600 C   0  0  0  0  0  0  0  0  0  0  0  0
  188.8940  177.6140  139.3420 O   0  0  0  0  0  1  0  0  0  0  0  0
  191.5860  177.8490  143.4250 O   0  0  0  0  0  0  0  0  0  0  0  0
  186.7030  178.0660  142.4180 C   0  0  0  0  0  0  0  0  0  0  0  0
  185.3850  179.2810  140.3710 S   0  0  0  0  0  0  0  0  0  0  0  0
  188.0780  177.5210  144.3490 C   0  0  0  0  0  3  0  0  0  0  0  0
  187.7950  178.0440  140.0840 C   0  0  1  0  0  3  0  0  0  0  0  0
  190.5590  177.6850  144.1380 C   0  0  0  0  0  0  0  0  0  0  0  0
  186.6250  178.3240  139.4750 C   0  0  2  0  0  3  0  0  0  0  0  0
  189.2510  177.7540  143.5480 N   0  0  0  0  0  0  0  0  0  0  0  0
  185.8530  177.4120  135.3450 C   0  0  0  0  0  3  0  0  0  0  0  0
  187.1970  178.4900  137.0440 C   0  0  0  0  0  3  0  0  0  0  0  0
  185.0060  176.9100  136.3360 C   0  0  0  0  0  3  0  0  0  0  0  0
  185.2570  177.1980  137.6800 C   0  0  0  0  0  3  0  0  0  0  0  0
  186.9480  178.2040  135.6980 C   0  0  0  0  0  3  0  0  0  0  0  0
  186.3620  177.9830  138.0520 C   0  0  0  0  0  0  0  0  0  0  0  0
  183.7570  179.0120  143.6080 C   0  0  0  0  0  0  0  0  0  0  0  0
  184.2970  180.1330  143.8090 O   0  0  0  0  0  0  0  0  0  0  0  0
  184.2880  178.1110  142.6310 N   0  0  0  0  0  2  0  0  0  0  0  0
  182.5220  178.6430  144.3540 C   0  0  0  0  0  2  0  0  0  0  0  0
  181.1170  180.0950  143.0750 O   0  0  0  0  0  0  0  0  0  0  0  0
  181.2960  178.7600  143.4620 C   0  0  2  0  0  3  0  0  0  0  0  0
  179.7420  180.2240  142.8340 C   0  0  0  0  0  2  0  0  0  0  0  0
  180.0530  178.3100  144.1980 C   0  0  0  0  0  2  0  0  0  0  0  0
  179.0050  179.2870  143.7610 C   0  0  0  0  0  2  0  0  0  0  0  0
  190.7350  177.3960  145.5930 C   0  0  0  0  0  2  0  0  0  0  0  0
  191.7220  176.2600  145.7770 C   0  0  0  0  0  2  0  0  0  0  0  0
  191.7110  177.1770  148.1250 N   0  0  0  0  0  1  0  0  0  0  0  0
  192.1570  176.1930  147.1980 C   0  0  0  0  0  0  0  0  0  0  0  0
  192.9430  175.2850  147.5740 O   0  0  0  0  0  0  0  0  0  0  0  0
  1 13  1  0  0  0  0
  2  9  2  0  0  0  0
  3  7  1  0  0  0  0
  3 22  1  1  0  0  0
  4  1  1  0  0  0  0
  4  7  2  0  0  0  0
  6 11  2  0  0  0  0
  7  2  1  0  0  0  0
  8  3  1  0  0  0  0
 10  5  1  1  0  0  0
 10  4  1  0  0  0  0
 11 29  1  0  0  0  0
 12 19  1  6  0  0  0
 12 10  1  0  0  0  0
 12  8  1  0  0  0  0
 13 11  1  0  0  0  0
 13  9  1  0  0  0  0
 14 18  2  0  0  0  0
 14 16  1  0  0  0  0
 15 19  2  0  0  0  0
 16 17  2  0  0  0  0
 17 19  1  0  0  0  0
 18 15  1  0  0  0  0
 20 21  2  0  0  0  0
 20 23  1  0  0  0  0
 22 20  1  0  0  0  0
 24 25  1  0  0  0  0
 25 27  1  0  0  0  0
 25 23  1  1  0  0  0
 26 24  1  0  0  0  0
 26 28  1  0  0  0  0
 28 27  1  0  0  0  0
 29 30  1  0  0  0  0
 30 32  1  0  0  0  0
 32 33  2  0  0  0  0
 32 31  1  0  0  0  0
M  END
>  <MODEL>
3

>  <REMARK>
 VINA RESULT:      -8.2      2.617      9.181
  Name = 
  7 active torsions:
  status: ('A' for Active; 'I' for Inactive)
    1  A    between atoms: C_2  and  C_18
    2  A    between atoms: C_8  and  N_30
    3  A    between atoms: C_9  and  C_21
    4  A    between atoms: C_9  and  C_28
    5  A    between atoms: C_15  and  C_21
    6  A    between atoms: C_18  and  C_19
    7  A    between atoms: C_25  and  C_31
                            x       y       z     vdW  Elec       q    Type
                         _______ _______ _______ _____ _____    ______ ____

>  <TORSDO>
F 7

$$$$
=
 OpenBabel11042409483D

 33 36  0  0  1  0  0  0  0  0999 V2000
  189.5150  177.4260  141.1750 C   0  0  0  0  0  2  0  0  0  0  0  0
  186.8960  178.4550  140.7810 C   0  0  0  0  0  3  0  0  0  0  0  0
  186.4440  177.8110  143.1100 C   0  0  2  0  0  3  0  0  0  0  0  0
  188.7180  177.4620  142.2500 C   0  0  0  0  0  0  0  0  0  0  0  0
  190.6990  177.4160  143.7310 O   0  0  0  0  0  1  0  0  0  0  0  0
  191.0370  177.1620  138.8530 O   0  0  0  0  0  0  0  0  0  0  0  0
  187.3050  177.8940  142.0830 C   0  0  0  0  0  0  0  0  0  0  0  0
  186.8140  176.7290  144.4930 S   0  0  0  0  0  0  0  0  0  0  0  0
  187.7220  178.3840  139.7370 C   0  0  0  0  0  3  0  0  0  0  0  0
  189.3130  177.3480  143.6020 C   0  0  1  0  0  3  0  0  0  0  0  0
  189.8800  177.6460  138.7240 C   0  0  0  0  0  0  0  0  0  0  0  0
  188.5290  177.2530  144.6950 C   0  0  2  0  0  3  0  0  0  0  0  0
  189.0250  177.7880  139.8700 N   0  0  0  0  0  0  0  0  0  0  0  0
  190.0310  177.8720  148.6760 C   0  0  0  0  0  3  0  0  0  0  0  0
  188.2510  178.0590  147.0490 C   0  0  0  0  0  3  0  0  0  0  0  0
  190.8440  177.2660  147.7150 C   0  0  0  0  0  3  0  0  0  0  0  0
  190.3580  177.0560  146.4210 C   0  0  0  0  0  3  0  0  0  0  0  0
  188.7350  178.2700  148.3430 C   0  0  0  0  0  3  0  0  0  0  0  0
  189.0510  177.4410  146.0740 C   0  0  0  0  0  0  0  0  0  0  0  0
  184.5810  179.1660  144.1380 C   0  0  0  0  0  0  0  0  0  0  0  0
  185.2560  179.4100  145.1740 O   0  0  0  0  0  0  0  0  0  0  0  0
  185.1470  178.4160  143.0590 N   0  0  0  0  0  2  0  0  0  0  0  0
  183.2000  179.7090  144.0110 C   0  0  0  0  0  2  0  0  0  0  0  0
  182.0560  179.0650  142.0130 O   0  0  0  0  0  0  0  0  0  0  0  0
  182.2800  178.6970  143.3460 C   0  0  2  0  0  3  0  0  0  0  0  0
  180.8050  178.5230  141.6890 C   0  0  0  0  0  2  0  0  0  0  0  0
  180.9430  178.6440  144.0530 C   0  0  0  0  0  2  0  0  0  0  0  0
  179.9530  178.5100  142.9370 C   0  0  0  0  0  2  0  0  0  0  0  0
  189.4340  178.0890  137.3700 C   0  0  0  0  0  2  0  0  0  0  0  0
  189.1650  176.8800  136.4950 C   0  0  0  0  0  2  0  0  0  0  0  0
  186.7040  177.3270  136.1840 N   0  0  0  0  0  1  0  0  0  0  0  0
  187.7430  176.4640  136.6310 C   0  0  0  0  0  0  0  0  0  0  0  0
  187.4580  175.3630  137.1690 O   0  0  0  0  0  0  0  0  0  0  0  0
  1  4  1  0  0  0  0
  2  7  1  0  0  0  0
  3 22  1  6  0  0  0
  3  8  1  0  0  0  0
  4 10  1  0  0  0  0
  7  4  2  0  0  0  0
  7  3  1  0  0  0  0
  8 12  1  0  0  0  0
  9 13  1  0  0  0  0
  9  2  2  0  0  0  0
 10  5  1  1  0  0  0
 10 12  1  0  0  0  0
 11  6  2  0  0  0  0
 11 13  1  0  0  0  0
 12 19  1  1  0  0  0
 13  1  1  0  0  0  0
 15 18  2  0  0  0  0
 16 14  2  0  0  0  0
 17 16  1  0  0  0  0
 18 14  1  0  0  0  0
 19 17  2  0  0  0  0
 19 15  1  0  0  0  0
 20 21  2  0  0  0  0
 22 20  1  0  0  0  0
 23 20  1  0  0  0  0
 24 25  1  0  0  0  0
 25 23  1  1  0  0  0
 25 27  1  0  0  0  0
 26 24  1  0  0  0  0
 26 28  1  0  0  0  0
 28 27  1  0  0  0  0
 29 11  1  0  0  0  0
 30 32  1  0  0  0  0
 30 29  1  0  0  0  0
 31 32  1  0  0  0  0
 32 33  2  0  0  0  0
M  END
>  <MODEL>
4

>  <REMARK>
 VINA RESULT:      -7.7      1.943      6.876
  Name = 
  7 active torsions:
  status: ('A' for Active; 'I' for Inactive)
    1  A    between atoms: C_2  and  C_18
    2  A    between atoms: C_8  and  N_30
    3  A    between atoms: C_9  and  C_21
    4  A    between atoms: C_9  and  C_28
    5  A    between atoms: C_15  and  C_21
    6  A    between atoms: C_18  and  C_19
    7  A    between atoms: C_25  and  C_31
                            x       y       z     vdW  Elec       q    Type
                         _______ _______ _______ _____ _____    ______ ____

>  <TORSDO>
F 7

$$$$
=
 OpenBabel11042409483D

 33 36  0  0  1  0  0  0  0  0999 V2000
  186.2810  178.1510  142.1170 C   0  0  0  0  0  2  0  0  0  0  0  0
  186.9860  177.9030  144.8580 C   0  0  0  0  0  3  0  0  0  0  0  0
  188.9680  176.6680  144.0920 C   0  0  2  0  0  3  0  0  0  0  0  0
  187.4690  177.5960  142.3810 C   0  0  0  0  0  0  0  0  0  0  0  0
  188.2550  178.1770  140.1080 O   0  0  0  0  0  1  0  0  0  0  0  0
  183.6990  179.0970  141.6480 O   0  0  0  0  0  0  0  0  0  0  0  0
  187.8480  177.3460  143.7970 C   0  0  0  0  0  0  0  0  0  0  0  0
  189.7290  175.6280  142.8420 S   0  0  0  0  0  0  0  0  0  0  0  0
  185.8050  178.4360  144.5450 C   0  0  0  0  0  3  0  0  0  0  0  0
  188.4840  177.5010  141.3050 C   0  0  1  0  0  3  0  0  0  0  0  0
  184.0620  179.0040  142.8520 C   0  0  0  0  0  0  0  0  0  0  0  0
  189.6390  176.8350  141.5040 C   0  0  2  0  0  3  0  0  0  0  0  0
  185.3680  178.4990  143.1750 N   0  0  0  0  0  0  0  0  0  0  0  0
  193.0120  177.1270  138.8520 C   0  0  0  0  0  3  0  0  0  0  0  0
  190.7150  176.4910  139.2700 C   0  0  0  0  0  3  0  0  0  0  0  0
  193.1200  177.5890  140.1660 C   0  0  0  0  0  3  0  0  0  0  0  0
  192.0250  177.5030  141.0300 C   0  0  0  0  0  3  0  0  0  0  0  0
  191.8090  176.5760  138.4040 C   0  0  0  0  0  3  0  0  0  0  0  0
  190.8050  176.9610  140.5890 C   0  0  0  0  0  0  0  0  0  0  0  0
  190.7290  177.1740  145.8260 C   0  0  0  0  0  0  0  0  0  0  0  0
  191.4050  177.8650  145.0180 O   0  0  0  0  0  0  0  0  0  0  0  0
  189.4810  176.5980  145.4270 N   0  0  0  0  0  2  0  0  0  0  0  0
  191.2040  177.0000  147.2270 C   0  0  0  0  0  2  0  0  0  0  0  0
  188.9890  176.3770  147.8750 O   0  0  0  0  0  0  0  0  0  0  0  0
  190.0660  177.2060  148.2140 C   0  0  2  0  0  3  0  0  0  0  0  0
  187.8530  177.0340  148.3680 C   0  0  0  0  0  2  0  0  0  0  0  0
  189.5870  178.6410  148.1850 C   0  0  0  0  0  2  0  0  0  0  0  0
  188.0980  178.5230  148.3050 C   0  0  0  0  0  2  0  0  0  0  0  0
  183.1220  179.4520  143.9220 C   0  0  0  0  0  2  0  0  0  0  0  0
  182.0020  178.4420  144.0790 C   0  0  0  0  0  2  0  0  0  0  0  0
  179.5150  178.2880  143.6950 N   0  0  0  0  0  1  0  0  0  0  0  0
  180.7350  179.0030  143.5360 C   0  0  0  0  0  0  0  0  0  0  0  0
  180.7470  180.0950  142.9110 O   0  0  0  0  0  0  0  0  0  0  0  0
  1  4  1  0  0  0  0
  1 13  1  0  0  0  0
  3 22  1  1  0  0  0
  4  7  2  0  0  0  0
  6 11  2  0  0  0  0
  7  3  1  0  0  0  0
  7  2  1  0  0  0  0
  8  3  1  0  0  0  0
  9  2  2  0  0  0  0
 10  5  1  1  0  0  0
 10 12  1  0  0  0  0
 10  4  1  0  0  0  0
 11 13  1  0  0  0  0
 11 29  1  0  0  0  0
 12 19  1  6  0  0  0
 12  8  1  0  0  0  0
 13  9  1  0  0  0  0
 14 16  1  0  0  0  0
 15 19  2  0  0  0  0
 16 17  2  0  0  0  0
 18 14  2  0  0  0  0
 18 15  1  0  0  0  0
 19 17  1  0  0  0  0
 20 23  1  0  0  0  0
 21 20  2  0  0  0  0
 22 20  1  0  0  0  0
 24 25  1  0  0  0  0
 24 26  1  0  0  0  0
 25 23  1  6  0  0  0
 27 25  1  0  0  0  0
 27 28  1  0  0  0  0
 28 26  1  0  0  0  0
 29 30  1  0  0  0  0
 32 31  1  0  0  0  0
 32 30  1  0  0  0  0
 33 32  2  0  0  0  0
M  END
>  <MODEL>
5

>  <REMARK>
 VINA RESULT:      -7.7      2.129      6.031
  Name = 
  7 active torsions:
  status: ('A' for Active; 'I' for Inactive)
    1  A    between atoms: C_2  and  C_18
    2  A    between atoms: C_8  and  N_30
    3  A    between atoms: C_9  and  C_21
    4  A    between atoms: C_9  and  C_28
    5  A    between atoms: C_15  and  C_21
    6  A    between atoms: C_18  and  C_19
    7  A    between atoms: C_25  and  C_31
                            x       y       z     vdW  Elec       q    Type
                         _______ _______ _______ _____ _____    ______ ____

>  <TORSDO>
F 7

$$$$
=
 OpenBabel11042409483D

 33 36  0  0  1  0  0  0  0  0999 V2000
  186.4900  178.6280  140.5910 C   0  0  0  0  0  2  0  0  0  0  0  0
  187.7340  177.4900  142.8780 C   0  0  0  0  0  3  0  0  0  0  0  0
  185.7580  178.2210  144.1440 C   0  0  2  0  0  3  0  0  0  0  0  0
  185.7690  178.6110  141.7190 C   0  0  0  0  0  0  0  0  0  0  0  0
  183.6840  178.7930  140.3990 O   0  0  0  0  0  1  0  0  0  0  0  0
  188.1280  178.8430  138.3440 O   0  0  0  0  0  0  0  0  0  0  0  0
  186.4040  178.1230  142.9710 C   0  0  0  0  0  0  0  0  0  0  0  0
  184.3940  179.3760  144.3110 S   0  0  0  0  0  0  0  0  0  0  0  0
  188.4170  177.5440  141.7340 C   0  0  0  0  0  3  0  0  0  0  0  0
  184.3010  178.8070  141.6480 C   0  0  1  0  0  3  0  0  0  0  0  0
  188.6340  178.3120  139.3700 C   0  0  0  0  0  0  0  0  0  0  0  0
  183.5670  178.9220  142.7730 C   0  0  2  0  0  3  0  0  0  0  0  0
  187.8620  178.1920  140.5760 N   0  0  0  0  0  0  0  0  0  0  0  0
  179.2730  178.6790  142.7550 C   0  0  0  0  0  3  0  0  0  0  0  0
  181.3680  178.9490  141.5750 C   0  0  0  0  0  3  0  0  0  0  0  0
  179.9700  178.5540  143.9590 C   0  0  0  0  0  3  0  0  0  0  0  0
  181.3660  178.6250  143.9690 C   0  0  0  0  0  3  0  0  0  0  0  0
  179.9730  178.8780  141.5620 C   0  0  0  0  0  3  0  0  0  0  0  0
  182.0840  178.8140  142.7750 C   0  0  0  0  0  0  0  0  0  0  0  0
  186.6270  178.2680  146.5110 C   0  0  0  0  0  0  0  0  0  0  0  0
  186.4790  179.5160  146.5990 O   0  0  0  0  0  0  0  0  0  0  0  0
  186.2350  177.5680  145.3260 N   0  0  0  0  0  2  0  0  0  0  0  0
  187.1650  177.5040  147.6720 C   0  0  0  0  0  2  0  0  0  0  0  0
  189.4990  177.2960  148.1470 O   0  0  0  0  0  0  0  0  0  0  0  0
  188.4770  176.8250  147.3110 C   0  0  2  0  0  3  0  0  0  0  0  0
  190.6770  177.1480  147.4010 C   0  0  0  0  0  2  0  0  0  0  0  0
  188.8600  177.1280  145.8780 C   0  0  0  0  0  2  0  0  0  0  0  0
  190.3430  177.3280  145.9390 C   0  0  0  0  0  2  0  0  0  0  0  0
  190.0320  177.7940  139.2950 C   0  0  0  0  0  2  0  0  0  0  0  0
  190.2530  177.0980  137.9660 C   0  0  0  0  0  2  0  0  0  0  0  0
  191.0330  174.7010  137.9700 N   0  0  0  0  0  1  0  0  0  0  0  0
  191.3350  176.0850  138.1000 C   0  0  0  0  0  0  0  0  0  0  0  0
  192.5110  176.4510  138.3580 O   0  0  0  0  0  0  0  0  0  0  0  0
  1  4  1  0  0  0  0
  2  7  1  0  0  0  0
  3  8  1  0  0  0  0
  3 22  1  1  0  0  0
  4  7  2  0  0  0  0
  6 11  2  0  0  0  0
  7  3  1  0  0  0  0
  9  2  2  0  0  0  0
 10  5  1  1  0  0  0
 10  4  1  0  0  0  0
 10 12  1  0  0  0  0
 11 13  1  0  0  0  0
 12 19  1  6  0  0  0
 12  8  1  0  0  0  0
 13  1  1  0  0  0  0
 13  9  1  0  0  0  0
 14 16  1  0  0  0  0
 15 19  2  0  0  0  0
 16 17  2  0  0  0  0
 18 15  1  0  0  0  0
 18 14  2  0  0  0  0
 19 17  1  0  0  0  0
 20 21  2  0  0  0  0
 20 23  1  0  0  0  0
 22 20  1  0  0  0  0
 25 23  1  1  0  0  0
 25 24  1  0  0  0  0
 26 24  1  0  0  0  0
 27 28  1  0  0  0  0
 27 25  1  0  0  0  0
 28 26  1  0  0  0  0
 29 11  1  0  0  0  0
 30 32  1  0  0  0  0
 30 29  1  0  0  0  0
 31 32  1  0  0  0  0
 32 33  2  0  0  0  0
M  END
>  <MODEL>
6

>  <REMARK>
 VINA RESULT:      -7.6      2.556      9.028
  Name = 
  7 active torsions:
  status: ('A' for Active; 'I' for Inactive)
    1  A    between atoms: C_2  and  C_18
    2  A    between atoms: C_8  and  N_30
    3  A    between atoms: C_9  and  C_21
    4  A    between atoms: C_9  and  C_28
    5  A    between atoms: C_15  and  C_21
    6  A    between atoms: C_18  and  C_19
    7  A    between atoms: C_25  and  C_31
                            x       y       z     vdW  Elec       q    Type
                         _______ _______ _______ _____ _____    ______ ____

>  <TORSDO>
F 7

$$$$
=
 OpenBabel11042409483D

 33 36  0  0  1  0  0  0  0  0999 V2000
  185.6050  177.9920  143.5400 C   0  0  0  0  0  2  0  0  0  0  0  0
  187.1960  178.5760  141.2600 C   0  0  0  0  0  3  0  0  0  0  0  0
  185.1020  178.5820  139.9730 C   0  0  2  0  0  3  0  0  0  0  0  0
  184.9490  178.2480  142.4020 C   0  0  0  0  0  0  0  0  0  0  0  0
  182.9240  178.8430  143.6940 O   0  0  0  0  0  1  0  0  0  0  0  0
  187.0370  177.2380  145.8130 O   0  0  0  0  0  0  0  0  0  0  0  0
  185.7290  178.4590  141.1540 C   0  0  0  0  0  0  0  0  0  0  0  0
  183.4170  177.9880  139.7980 S   0  0  0  0  0  0  0  0  0  0  0  0
  187.8040  178.2990  142.4130 C   0  0  0  0  0  3  0  0  0  0  0  0
  183.5080  178.5910  142.4530 C   0  0  1  0  0  3  0  0  0  0  0  0
  187.7090  177.5380  144.7880 C   0  0  0  0  0  0  0  0  0  0  0  0
  182.7920  178.7290  141.3200 C   0  0  2  0  0  3  0  0  0  0  0  0
  187.0420  177.9090  143.5700 N   0  0  0  0  0  0  0  0  0  0  0  0
  178.9310  180.6200  141.2350 C   0  0  0  0  0  3  0  0  0  0  0  0
  180.9990  180.0140  140.1360 C   0  0  0  0  0  3  0  0  0  0  0  0
  179.3660  179.9840  142.4000 C   0  0  0  0  0  3  0  0  0  0  0  0
  180.6170  179.3620  142.4310 C   0  0  0  0  0  3  0  0  0  0  0  0
  179.7480  180.6370  140.1030 C   0  0  0  0  0  3  0  0  0  0  0  0
  181.4450  179.3610  141.2950 C   0  0  0  0  0  0  0  0  0  0  0  0
  186.3890  178.0970  137.8590 C   0  0  0  0  0  0  0  0  0  0  0  0
  186.2490  176.8510  137.9940 O   0  0  0  0  0  0  0  0  0  0  0  0
  185.7920  179.0030  138.7910 N   0  0  0  0  0  2  0  0  0  0  0  0
  187.1360  178.6340  136.6870 C   0  0  0  0  0  2  0  0  0  0  0  0
  188.9350  177.0750  136.4640 O   0  0  0  0  0  0  0  0  0  0  0  0
  188.6290  178.3900  136.8390 C   0  0  2  0  0  3  0  0  0  0  0  0
  190.0910  176.7490  137.1870 C   0  0  0  0  0  2  0  0  0  0  0  0
  189.0590  178.5840  138.2770 C   0  0  0  0  0  2  0  0  0  0  0  0
  190.0550  177.4890  138.5040 C   0  0  0  0  0  2  0  0  0  0  0  0
  189.1990  177.5230  144.8780 C   0  0  0  0  0  2  0  0  0  0  0  0
  189.6270  177.1120  146.2740 C   0  0  0  0  0  2  0  0  0  0  0  0
  191.7960  176.7370  147.5020 N   0  0  0  0  0  1  0  0  0  0  0  0
  191.0730  176.7640  146.2760 C   0  0  0  0  0  0  0  0  0  0  0  0
  191.6650  176.5220  145.1920 O   0  0  0  0  0  0  0  0  0  0  0  0
  1 13  1  0  0  0  0
  2  9  2  0  0  0  0
  3 22  1  6  0  0  0
  3  7  1  0  0  0  0
  4 10  1  0  0  0  0
  4  1  1  0  0  0  0
  7  2  1  0  0  0  0
  7  4  2  0  0  0  0
  8  3  1  0  0  0  0
  8 12  1  0  0  0  0
  9 13  1  0  0  0  0
 10  5  1  6  0  0  0
 11 29  1  0  0  0  0
 11  6  2  0  0  0  0
 12 19  1  1  0  0  0
 12 10  1  0  0  0  0
 13 11  1  0  0  0  0
 14 16  1  0  0  0  0
 15 19  2  0  0  0  0
 16 17  2  0  0  0  0
 18 15  1  0  0  0  0
 18 14  2  0  0  0  0
 19 17  1  0  0  0  0
 20 21  2  0  0  0  0
 20 22  1  0  0  0  0
 23 20  1  0  0  0  0
 24 25  1  0  0  0  0
 24 26  1  0  0  0  0
 25 23  1  1  0  0  0
 25 27  1  0  0  0  0
 26 28  1  0  0  0  0
 27 28  1  0  0  0  0
 29 30  1  0  0  0  0
 30 32  1  0  0  0  0
 32 31  1  0  0  0  0
 33 32  2  0  0  0  0
M  END
>  <MODEL>
7

>  <REMARK>
 VINA RESULT:      -7.6      2.690      7.937
  Name = 
  7 active torsions:
  status: ('A' for Active; 'I' for Inactive)
    1  A    between atoms: C_2  and  C_18
    2  A    between atoms: C_8  and  N_30
    3  A    between atoms: C_9  and  C_21
    4  A    between atoms: C_9  and  C_28
    5  A    between atoms: C_15  and  C_21
    6  A    between atoms: C_18  and  C_19
    7  A    between atoms: C_25  and  C_31
                            x       y       z     vdW  Elec       q    Type
                         _______ _______ _______ _____ _____    ______ ____

>  <TORSDO>
F 7

$$$$
=
 OpenBabel11042409483D

 33 36  0  0  1  0  0  0  0  0999 V2000
  183.3210  178.6930  142.0860 C   0  0  0  0  0  2  0  0  0  0  0  0
  185.9120  179.0650  140.9810 C   0  0  0  0  0  3  0  0  0  0  0  0
  184.9030  178.5540  138.7990 C   0  0  2  0  0  3  0  0  0  0  0  0
  183.4150  178.6480  140.7520 C   0  0  0  0  0  0  0  0  0  0  0  0
  181.0080  179.1870  140.5560 O   0  0  0  0  0  1  0  0  0  0  0  0
  183.2360  178.5650  144.8710 O   0  0  0  0  0  0  0  0  0  0  0  0
  184.7590  178.7330  140.1220 C   0  0  0  0  0  0  0  0  0  0  0  0
  183.6140  177.7160  137.8740 S   0  0  0  0  0  0  0  0  0  0  0  0
  185.7700  179.0860  142.3070 C   0  0  0  0  0  3  0  0  0  0  0  0
  182.1910  178.7970  139.9300 C   0  0  1  0  0  3  0  0  0  0  0  0
  184.3650  178.7620  144.3430 C   0  0  0  0  0  0  0  0  0  0  0  0
  182.2330  178.6290  138.5930 C   0  0  2  0  0  3  0  0  0  0  0  0
  184.4940  178.8130  142.9130 N   0  0  0  0  0  0  0  0  0  0  0  0
  179.0120  179.9160  136.0510 C   0  0  0  0  0  3  0  0  0  0  0  0
  181.0630  180.3850  137.2460 C   0  0  0  0  0  3  0  0  0  0  0  0
  179.0560  178.5940  136.5000 C   0  0  0  0  0  3  0  0  0  0  0  0
  180.1040  178.1690  137.3210 C   0  0  0  0  0  3  0  0  0  0  0  0
  180.0160  180.8130  136.4250 C   0  0  0  0  0  3  0  0  0  0  0  0
  181.1270  179.0570  137.6960 C   0  0  0  0  0  0  0  0  0  0  0  0
  187.0230  177.8360  137.6380 C   0  0  0  0  0  0  0  0  0  0  0  0
  186.7090  176.6170  137.6980 O   0  0  0  0  0  0  0  0  0  0  0  0
  186.1330  178.8440  138.1260 N   0  0  0  0  0  2  0  0  0  0  0  0
  188.3090  178.2370  137.0000 C   0  0  0  0  0  2  0  0  0  0  0  0
  189.8530  176.6620  137.9220 O   0  0  0  0  0  0  0  0  0  0  0  0
  189.4760  178.0110  137.9490 C   0  0  2  0  0  3  0  0  0  0  0  0
  190.4270  176.4180  139.1780 C   0  0  0  0  0  2  0  0  0  0  0  0
  189.0890  178.3660  139.3680 C   0  0  0  0  0  2  0  0  0  0  0  0
  189.7440  177.3020  140.1950 C   0  0  0  0  0  2  0  0  0  0  0  0
  185.5470  178.9660  145.2320 C   0  0  0  0  0  2  0  0  0  0  0  0
  186.0780  177.6240  145.6990 C   0  0  0  0  0  2  0  0  0  0  0  0
  188.2890  177.3270  146.8720 N   0  0  0  0  0  1  0  0  0  0  0  0
  187.5660  177.6380  145.6860 C   0  0  0  0  0  0  0  0  0  0  0  0
  188.1840  177.9530  144.6370 O   0  0  0  0  0  0  0  0  0  0  0  0
  1 13  1  0  0  0  0
  2  9  2  0  0  0  0
  3 22  1  1  0  0  0
  3  7  1  0  0  0  0
  4  1  1  0  0  0  0
  7  4  2  0  0  0  0
  7  2  1  0  0  0  0
  8 12  1  0  0  0  0
  8  3  1  0  0  0  0
  9 13  1  0  0  0  0
 10  5  1  6  0  0  0
 10  4  1  0  0  0  0
 11  6  2  0  0  0  0
 11 29  1  0  0  0  0
 12 19  1  1  0  0  0
 12 10  1  0  0  0  0
 13 11  1  0  0  0  0
 14 18  2  0  0  0  0
 14 16  1  0  0  0  0
 15 19  2  0  0  0  0
 16 17  2  0  0  0  0
 17 19  1  0  0  0  0
 18 15  1  0  0  0  0
 20 21  2  0  0  0  0
 20 22  1  0  0  0  0
 23 20  1  0  0  0  0
 24 25  1  0  0  0  0
 24 26  1  0  0  0  0
 25 23  1  6  0  0  0
 25 27  1  0  0  0  0
 26 28  1  0  0  0  0
 27 28  1  0  0  0  0
 29 30  1  0  0  0  0
 32 30  1  0  0  0  0
 32 31  1  0  0  0  0
 33 32  2  0  0  0  0
M  END
>  <MODEL>
8

>  <REMARK>
 VINA RESULT:      -7.6      3.825      8.349
  Name = 
  7 active torsions:
  status: ('A' for Active; 'I' for Inactive)
    1  A    between atoms: C_2  and  C_18
    2  A    between atoms: C_8  and  N_30
    3  A    between atoms: C_9  and  C_21
    4  A    between atoms: C_9  and  C_28
    5  A    between atoms: C_15  and  C_21
    6  A    between atoms: C_18  and  C_19
    7  A    between atoms: C_25  and  C_31
                            x       y       z     vdW  Elec       q    Type
                         _______ _______ _______ _____ _____    ______ ____

>  <TORSDO>
F 7

$$$$
=
 OpenBabel11042409483D

 33 36  0  0  1  0  0  0  0  0999 V2000
  190.3830  177.3060  141.2950 C   0  0  0  0  0  2  0  0  0  0  0  0
  187.7430  178.3550  141.2570 C   0  0  0  0  0  3  0  0  0  0  0  0
  187.8780  178.2270  138.8060 C   0  0  2  0  0  3  0  0  0  0  0  0
  189.7860  177.3790  140.1000 C   0  0  0  0  0  0  0  0  0  0  0  0
  191.3130  175.6430  139.2210 O   0  0  0  0  0  1  0  0  0  0  0  0
  191.6510  177.4010  143.7780 O   0  0  0  0  0  0  0  0  0  0  0  0
  188.4450  178.0140  140.0040 C   0  0  0  0  0  0  0  0  0  0  0  0
  188.9010  178.2430  137.3310 S   0  0  0  0  0  0  0  0  0  0  0  0
  188.3860  178.2760  142.4220 C   0  0  0  0  0  3  0  0  0  0  0  0
  190.3270  176.5950  138.9650 C   0  0  1  0  0  3  0  0  0  0  0  0
  190.4650  177.8270  143.7260 C   0  0  0  0  0  0  0  0  0  0  0  0
  189.8270  176.7440  137.7220 C   0  0  2  0  0  3  0  0  0  0  0  0
  189.7550  177.8370  142.4770 N   0  0  0  0  0  0  0  0  0  0  0  0
  190.6670  173.9160  134.5940 C   0  0  0  0  0  3  0  0  0  0  0  0
  189.3460  174.6150  136.4970 C   0  0  0  0  0  3  0  0  0  0  0  0
  191.4460  175.0690  134.7140 C   0  0  0  0  0  3  0  0  0  0  0  0
  191.1730  175.9950  135.7240 C   0  0  0  0  0  3  0  0  0  0  0  0
  189.6170  173.6880  135.4870 C   0  0  0  0  0  3  0  0  0  0  0  0
  190.1120  175.7840  136.6230 C   0  0  0  0  0  0  0  0  0  0  0  0
  185.5130  177.8380  138.0200 C   0  0  0  0  0  0  0  0  0  0  0  0
  185.7860  176.6830  137.5940 O   0  0  0  0  0  0  0  0  0  0  0  0
  186.5090  178.6270  138.6780 N   0  0  0  0  0  2  0  0  0  0  0  0
  184.1260  178.3650  137.8870 C   0  0  0  0  0  2  0  0  0  0  0  0
  181.8830  178.1410  138.6850 O   0  0  0  0  0  0  0  0  0  0  0  0
  183.1980  177.7070  138.8970 C   0  0  2  0  0  3  0  0  0  0  0  0
  181.2560  178.0310  139.9340 C   0  0  0  0  0  2  0  0  0  0  0  0
  183.5970  178.0760  140.3090 C   0  0  0  0  0  2  0  0  0  0  0  0
  182.2880  178.2770  141.0100 C   0  0  0  0  0  2  0  0  0  0  0  0
  189.8140  178.2920  144.9870 C   0  0  0  0  0  2  0  0  0  0  0  0
  189.1740  177.1170  145.7010 C   0  0  0  0  0  2  0  0  0  0  0  0
  188.8140  177.5030  148.1660 N   0  0  0  0  0  1  0  0  0  0  0  0
  189.6550  177.0580  147.1070 C   0  0  0  0  0  0  0  0  0  0  0  0
  190.8150  176.6410  147.3590 O   0  0  0  0  0  0  0  0  0  0  0  0
  1 13  1  0  0  0  0
  2  9  2  0  0  0  0
  3 22  1  1  0  0  0
  3  7  1  0  0  0  0
  4  1  1  0  0  0  0
  7  4  2  0  0  0  0
  7  2  1  0  0  0  0
  8 12  1  0  0  0  0
  8  3  1  0  0  0  0
  9 13  1  0  0  0  0
 10  5  1  1  0  0  0
 10  4  1  0  0  0  0
 11  6  2  0  0  0  0
 11 29  1  0  0  0  0
 12 19  1  6  0  0  0
 12 10  1  0  0  0  0
 13 11  1  0  0  0  0
 14 16  2  0  0  0  0
 14 18  1  0  0  0  0
 15 19  1  0  0  0  0
 16 17  1  0  0  0  0
 17 19  2  0  0  0  0
 18 15  2  0  0  0  0
 20 22  1  0  0  0  0
 21 20  2  0  0  0  0
 23 20  1  0  0  0  0
 24 25  1  0  0  0  0
 24 26  1  0  0  0  0
 25 23  1  6  0  0  0
 25 27  1  0  0  0  0
 26 28  1  0  0  0  0
 27 28  1  0  0  0  0
 29 30  1  0  0  0  0
 30 32  1  0  0  0  0
 32 33  2  0  0  0  0
 32 31  1  0  0  0  0
M  END
>  <MODEL>
9

>  <REMARK>
 VINA RESULT:      -7.5      3.293      8.050
  Name = 
  7 active torsions:
  status: ('A' for Active; 'I' for Inactive)
    1  A    between atoms: C_2  and  C_18
    2  A    between atoms: C_8  and  N_30
    3  A    between atoms: C_9  and  C_21
    4  A    between atoms: C_9  and  C_28
    5  A    between atoms: C_15  and  C_21
    6  A    between atoms: C_18  and  C_19
    7  A    between atoms: C_25  and  C_31
                            x       y       z     vdW  Elec       q    Type
                         _______ _______ _______ _____ _____    ______ ____

>  <TORSDO>
F 7

$$$$
