=
 OpenBabel11042410003D

 38 42  0  0  1  0  0  0  0  0999 V2000
  190.4300  175.3870  138.6740 C   0  0  0  0  0  3  0  0  0  0  0  0
  189.0910  178.0260  139.1680 C   0  0  0  0  0  0  0  0  0  0  0  0
  187.2400  177.5560  143.2400 C   0  0  2  0  0  3  0  0  0  0  0  0
  188.7070  177.2170  143.6540 C   0  0  1  0  0  3  0  0  0  0  0  0
  188.2900  178.6200  141.2710 C   0  0  1  0  0  3  0  0  0  0  0  0
  189.6200  177.0310  135.5380 N   0  0  0  0  0  1  0  0  0  0  0  0
  188.1590  178.7970  139.8610 O   0  0  0  0  0  0  0  0  0  0  0  0
  187.0530  178.0830  141.8500 N   0  0  0  0  0  0  0  0  0  0  0  0
  189.2220  178.0530  137.6940 C   0  0  0  0  0  0  0  0  0  0  0  0
  189.6090  176.9650  136.9610 C   0  0  0  0  0  0  0  0  0  0  0  0
  190.9510  176.4280  139.6000 C   0  0  0  0  0  2  0  0  0  0  0  0
  189.5470  176.8680  142.4540 C   0  0  0  0  0  0  0  0  0  0  0  0
  189.3530  177.5830  141.3470 C   0  0  0  0  0  0  0  0  0  0  0  0
  189.8340  177.3180  140.0010 C   0  0  0  0  0  0  0  0  0  0  0  0
  189.8700  175.6670  137.5350 N   0  0  0  0  0  0  0  0  0  0  0  0
  186.5740  178.3110  144.2200 O   0  0  0  0  0  1  0  0  0  0  0  0
  189.3620  178.3340  144.4180 C   0  0  0  0  0  3  0  0  0  0  0  0
  189.5750  178.3120  145.7010 N   0  0  0  0  0  0  0  0  0  0  0  0
  189.2850  177.2340  146.6040 C   0  0  0  0  0  0  0  0  0  0  0  0
  190.1740  176.4010  146.9360 O   0  0  0  0  0  0  0  0  0  0  0  0
  187.4600  178.5110  147.6820 C   0  0  0  0  0  2  0  0  0  0  0  0
  188.0050  177.5210  148.6860 C   0  0  0  0  0  2  0  0  0  0  0  0
  187.9240  177.1420  147.2170 C   0  0  0  0  0  3  0  0  0  0  0  0
  190.4800  175.8280  142.4840 O   0  0  0  0  0  0  0  0  0  0  0  0
  191.3900  175.6610  143.5620 C   0  0  0  0  0  1  0  0  0  0  0  0
  187.6500  179.6370  136.5400 C   0  0  0  0  0  2  0  0  0  0  0  0
  188.8270  179.3520  137.0900 C   0  0  0  0  0  3  0  0  0  0  0  0
  186.0390  179.1370  141.7910 C   0  0  0  0  0  2  0  0  0  0  0  0
  181.8590  179.0020  140.4980 C   0  0  0  0  0  2  0  0  0  0  0  0
  182.3250  178.3360  141.7870 C   0  0  1  0  0  3  0  0  0  0  0  0
  184.7210  178.5790  141.2770 C   0  0  1  0  0  3  0  0  0  0  0  0
  183.6260  178.9530  142.2600 C   0  0  0  0  0  2  0  0  0  0  0  0
  184.4350  179.0920  139.8530 C   0  0  1  0  0  3  0  0  0  0  0  0
  185.1160  178.1830  138.8430 C   0  0  0  0  0  1  0  0  0  0  0  0
  182.6630  179.6280  138.3910 O   0  0  0  0  0  0  0  0  0  0  0  0
  182.9680  179.2380  139.5060 C   0  0  0  0  0  0  0  0  0  0  0  0
  181.2980  178.5020  142.8170 C   0  0  0  0  0  0  0  0  0  0  0  0
  180.4860  178.6330  143.6320 N   0  0  0  0  0  0  0  0  0  0  0  0
  1 11  1  0  0  0  0
  2  7  1  0  0  0  0
  2 14  2  0  0  0  0
  3  4  1  0  0  0  0
  3 16  1  1  0  0  0
  4 17  1  6  0  0  0
  5  7  1  6  0  0  0
  5 13  1  0  0  0  0
  5  8  1  0  0  0  0
  6 10  1  0  0  0  0
  8  3  1  0  0  0  0
  9  2  1  0  0  0  0
 10 15  1  0  0  0  0
 10  9  2  0  0  0  0
 11 14  1  0  0  0  0
 12 24  1  0  0  0  0
 12  4  1  0  0  0  0
 13 12  2  0  0  0  0
 14 13  1  0  0  0  0
 15  1  2  0  0  0  0
 17 18  2  0  0  0  0
 18 19  1  0  0  0  0
 19 20  2  0  0  0  0
 19 23  1  0  0  0  0
 21 22  1  0  0  0  0
 23 21  1  0  0  0  0
 23 22  1  0  0  0  0
 24 25  1  0  0  0  0
 26 27  2  0  0  0  0
 27  9  1  0  0  0  0
 28  8  1  0  0  0  0
 29 30  1  0  0  0  0
 30 32  1  0  0  0  0
 30 37  1  1  0  0  0
 31 28  1  1  0  0  0
 31 32  1  0  0  0  0
 33 34  1  6  0  0  0
 33 31  1  0  0  0  0
 35 36  2  0  0  0  0
 36 33  1  0  0  0  0
 36 29  1  0  0  0  0
 37 38  3  0  0  0  0
M  END
>  <MODEL>
1

>  <REMARK>
 VINA RESULT:      -8.1      0.000      0.000
  Name = 
  8 active torsions:
  status: ('A' for Active; 'I' for Inactive)
    1  A    between atoms: C_1  and  C_13
    2  A    between atoms: C_3  and  N_20
    3  A    between atoms: C_3  and  C_37
    4  A    between atoms: O_6  and  C_33
    5  A    between atoms: C_7  and  C_12
    6  A    between atoms: C_16  and  C_32
    7  A    between atoms: C_22  and  C_27
    8  A    between atoms: N_23  and  C_32
                            x       y       z     vdW  Elec       q    Type
                         _______ _______ _______ _____ _____    ______ ____

>  <TORSDO>
F 8

$$$$
=
 OpenBabel11042410003D

 38 42  0  0  1  0  0  0  0  0999 V2000
  181.3200  175.9740  138.6190 C   0  0  0  0  0  3  0  0  0  0  0  0
  182.4080  178.3610  140.0760 C   0  0  0  0  0  0  0  0  0  0  0  0
  186.8690  177.8930  139.7430 C   0  0  2  0  0  3  0  0  0  0  0  0
  186.5550  177.8570  138.2130 C   0  0  1  0  0  3  0  0  0  0  0  0
  184.6510  178.9680  139.9340 C   0  0  1  0  0  3  0  0  0  0  0  0
  178.9310  177.1900  141.0710 N   0  0  0  0  0  1  0  0  0  0  0  0
  183.4620  179.0050  140.7230 O   0  0  0  0  0  0  0  0  0  0  0  0
  185.7280  178.2650  140.6410 N   0  0  0  0  0  0  0  0  0  0  0  0
  181.0400  178.2930  140.6370 C   0  0  0  0  0  0  0  0  0  0  0  0
  180.1970  177.2370  140.4200 C   0  0  0  0  0  0  0  0  0  0  0  0
  181.9140  177.1620  137.9510 C   0  0  0  0  0  2  0  0  0  0  0  0
  185.1000  177.5700  137.9600 C   0  0  0  0  0  0  0  0  0  0  0  0
  184.2150  178.1480  138.7720 C   0  0  0  0  0  0  0  0  0  0  0  0
  182.7960  177.8660  138.9130 C   0  0  0  0  0  0  0  0  0  0  0  0
  180.5710  176.0570  139.6790 N   0  0  0  0  0  0  0  0  0  0  0  0
  188.0550  178.5920  140.0240 O   0  0  0  0  0  1  0  0  0  0  0  0
  186.9450  179.1310  137.5160 C   0  0  0  0  0  3  0  0  0  0  0  0
  188.0300  179.2740  136.8130 N   0  0  0  0  0  0  0  0  0  0  0  0
  189.0120  178.2650  136.5290 C   0  0  0  0  0  0  0  0  0  0  0  0
  189.8160  177.8650  137.4160 O   0  0  0  0  0  0  0  0  0  0  0  0
  188.3630  176.2640  135.2250 C   0  0  0  0  0  2  0  0  0  0  0  0
  189.8720  176.3630  135.2270 C   0  0  0  0  0  2  0  0  0  0  0  0
  189.0320  177.6270  135.1770 C   0  0  0  0  0  3  0  0  0  0  0  0
  184.6830  176.7210  136.9320 O   0  0  0  0  0  0  0  0  0  0  0  0
  185.1380  175.3790  136.8310 C   0  0  0  0  0  1  0  0  0  0  0  0
  180.6560  179.4400  142.8390 C   0  0  0  0  0  2  0  0  0  0  0  0
  180.7030  179.4480  141.5100 C   0  0  0  0  0  3  0  0  0  0  0  0
  186.1560  179.1120  141.7550 C   0  0  0  0  0  2  0  0  0  0  0  0
  187.0680  178.0500  145.9030 C   0  0  0  0  0  2  0  0  0  0  0  0
  187.7150  177.3300  144.7260 C   0  0  1  0  0  3  0  0  0  0  0  0
  186.2070  178.3080  143.0450 C   0  0  1  0  0  3  0  0  0  0  0  0
  187.6560  178.1920  143.4810 C   0  0  0  0  0  2  0  0  0  0  0  0
  185.3170  178.9570  144.1220 C   0  0  1  0  0  3  0  0  0  0  0  0
  183.8900  178.4570  143.9660 C   0  0  0  0  0  1  0  0  0  0  0  0
  185.1210  179.2240  146.4570 O   0  0  0  0  0  0  0  0  0  0  0  0
  185.7820  178.7490  145.5490 C   0  0  0  0  0  0  0  0  0  0  0  0
  189.1100  177.0270  145.0510 C   0  0  0  0  0  0  0  0  0  0  0  0
  190.2140  176.7880  145.3070 N   0  0  0  0  0  0  0  0  0  0  0  0
  1 15  2  0  0  0  0
  2  9  1  0  0  0  0
  2  7  1  0  0  0  0
  3 16  1  6  0  0  0
  3  8  1  0  0  0  0
  4 17  1  1  0  0  0
  4  3  1  0  0  0  0
  5 13  1  6  0  0  0
  5  8  1  0  0  0  0
  5  7  1  0  0  0  0
  8 28  1  0  0  0  0
  9 27  1  0  0  0  0
 10  9  2  0  0  0  0
 10  6  1  0  0  0  0
 11  1  1  0  0  0  0
 11 14  1  0  0  0  0
 12  4  1  0  0  0  0
 12 13  2  0  0  0  0
 13 14  1  0  0  0  0
 14  2  2  0  0  0  0
 15 10  1  0  0  0  0
 18 17  2  0  0  0  0
 19 18  1  0  0  0  0
 19 20  2  0  0  0  0
 21 22  1  0  0  0  0
 23 21  1  0  0  0  0
 23 22  1  0  0  0  0
 23 19  1  0  0  0  0
 24 12  1  0  0  0  0
 25 24  1  0  0  0  0
 27 26  2  0  0  0  0
 30 37  1  1  0  0  0
 30 29  1  0  0  0  0
 31 28  1  6  0  0  0
 31 32  1  0  0  0  0
 31 33  1  0  0  0  0
 32 30  1  0  0  0  0
 33 34  1  1  0  0  0
 33 36  1  0  0  0  0
 36 29  1  0  0  0  0
 36 35  2  0  0  0  0
 37 38  3  0  0  0  0
M  END
>  <MODEL>
2

>  <REMARK>
 VINA RESULT:      -7.2      2.440      8.046
  Name = 
  8 active torsions:
  status: ('A' for Active; 'I' for Inactive)
    1  A    between atoms: C_1  and  C_13
    2  A    between atoms: C_3  and  N_20
    3  A    between atoms: C_3  and  C_37
    4  A    between atoms: O_6  and  C_33
    5  A    between atoms: C_7  and  C_12
    6  A    between atoms: C_16  and  C_32
    7  A    between atoms: C_22  and  C_27
    8  A    between atoms: N_23  and  C_32
                            x       y       z     vdW  Elec       q    Type
                         _______ _______ _______ _____ _____    ______ ____

>  <TORSDO>
F 8

$$$$
=
 OpenBabel11042410003D

 38 42  0  0  1  0  0  0  0  0999 V2000
  182.6060  176.1270  136.9820 C   0  0  0  0  0  3  0  0  0  0  0  0
  183.4930  178.5090  138.5770 C   0  0  0  0  0  0  0  0  0  0  0  0
  187.6720  177.4550  139.8650 C   0  0  2  0  0  3  0  0  0  0  0  0
  187.8940  177.2860  138.3290 C   0  0  1  0  0  3  0  0  0  0  0  0
  185.7170  178.8120  139.1960 C   0  0  1  0  0  3  0  0  0  0  0  0
  179.7480  177.9000  138.3550 N   0  0  0  0  0  1  0  0  0  0  0  0
  184.3520  179.0850  139.5120 O   0  0  0  0  0  0  0  0  0  0  0  0
  186.3670  178.0650  140.2790 N   0  0  0  0  0  0  0  0  0  0  0  0
  182.0230  178.6750  138.6240 C   0  0  0  0  0  0  0  0  0  0  0  0
  181.1510  177.7150  138.1900 C   0  0  0  0  0  0  0  0  0  0  0  0
  183.5690  177.1490  136.4930 C   0  0  0  0  0  2  0  0  0  0  0  0
  186.5850  177.1560  137.5980 C   0  0  0  0  0  0  0  0  0  0  0  0
  185.5790  177.9270  138.0080 C   0  0  0  0  0  0  0  0  0  0  0  0
  184.1710  177.8420  137.6580 C   0  0  0  0  0  0  0  0  0  0  0  0
  181.5650  176.4220  137.7030 N   0  0  0  0  0  0  0  0  0  0  0  0
  188.7850  178.0280  140.5020 O   0  0  0  0  0  1  0  0  0  0  0  0
  188.6910  178.4150  137.7350 C   0  0  0  0  0  3  0  0  0  0  0  0
  189.7100  178.2490  136.9440 N   0  0  0  0  0  0  0  0  0  0  0  0
  190.2280  177.0020  136.4550 C   0  0  0  0  0  0  0  0  0  0  0  0
  189.6720  176.3910  135.5010 O   0  0  0  0  0  0  0  0  0  0  0  0
  191.1860  175.2930  137.9670 C   0  0  0  0  0  2  0  0  0  0  0  0
  191.4780  176.6580  138.5470 C   0  0  0  0  0  2  0  0  0  0  0  0
  191.4910  176.4580  137.0410 C   0  0  0  0  0  3  0  0  0  0  0  0
  186.4140  176.2540  136.5440 O   0  0  0  0  0  0  0  0  0  0  0  0
  186.6400  174.8600  136.6990 C   0  0  0  0  0  1  0  0  0  0  0  0
  181.5300  181.1390  138.6460 C   0  0  0  0  0  2  0  0  0  0  0  0
  181.5940  179.9540  139.2480 C   0  0  0  0  0  3  0  0  0  0  0  0
  186.5180  178.9720  141.4170 C   0  0  0  0  0  2  0  0  0  0  0  0
  185.9440  178.2760  145.7010 C   0  0  0  0  0  2  0  0  0  0  0  0
  186.9870  177.5120  144.8940 C   0  0  1  0  0  3  0  0  0  0  0  0
  186.1360  178.2690  142.7110 C   0  0  1  0  0  3  0  0  0  0  0  0
  187.3430  178.2750  143.6340 C   0  0  0  0  0  2  0  0  0  0  0  0
  184.9040  178.9400  143.3480 C   0  0  1  0  0  3  0  0  0  0  0  0
  183.6400  178.3430  142.7510 C   0  0  0  0  0  1  0  0  0  0  0  0
  183.8900  179.3660  145.4340 O   0  0  0  0  0  0  0  0  0  0  0  0
  184.8430  178.8670  144.8600 C   0  0  0  0  0  0  0  0  0  0  0  0
  188.1870  177.3210  145.7090 C   0  0  0  0  0  0  0  0  0  0  0  0
  189.1370  177.1700  146.3540 N   0  0  0  0  0  0  0  0  0  0  0  0
  1 15  2  0  0  0  0
  2  9  1  0  0  0  0
  2  7  1  0  0  0  0
  3  8  1  0  0  0  0
  3 16  1  6  0  0  0
  4 17  1  6  0  0  0
  4  3  1  0  0  0  0
  5 13  1  6  0  0  0
  5  7  1  0  0  0  0
  5  8  1  0  0  0  0
  8 28  1  0  0  0  0
  9 27  1  0  0  0  0
 10  6  1  0  0  0  0
 10  9  2  0  0  0  0
 11  1  1  0  0  0  0
 11 14  1  0  0  0  0
 12 13  2  0  0  0  0
 12  4  1  0  0  0  0
 14 13  1  0  0  0  0
 14  2  2  0  0  0  0
 15 10  1  0  0  0  0
 18 17  2  0  0  0  0
 19 18  1  0  0  0  0
 19 23  1  0  0  0  0
 20 19  2  0  0  0  0
 21 22  1  0  0  0  0
 23 21  1  0  0  0  0
 23 22  1  0  0  0  0
 24 25  1  0  0  0  0
 24 12  1  0  0  0  0
 26 27  2  0  0  0  0
 30 29  1  0  0  0  0
 30 37  1  1  0  0  0
 31 28  1  6  0  0  0
 31 33  1  0  0  0  0
 31 32  1  0  0  0  0
 32 30  1  0  0  0  0
 33 34  1  6  0  0  0
 33 36  1  0  0  0  0
 36 35  2  0  0  0  0
 36 29  1  0  0  0  0
 37 38  3  0  0  0  0
M  END
>  <MODEL>
3

>  <REMARK>
 VINA RESULT:      -7.0      2.540      7.129
  Name = 
  8 active torsions:
  status: ('A' for Active; 'I' for Inactive)
    1  A    between atoms: C_1  and  C_13
    2  A    between atoms: C_3  and  N_20
    3  A    between atoms: C_3  and  C_37
    4  A    between atoms: O_6  and  C_33
    5  A    between atoms: C_7  and  C_12
    6  A    between atoms: C_16  and  C_32
    7  A    between atoms: C_22  and  C_27
    8  A    between atoms: N_23  and  C_32
                            x       y       z     vdW  Elec       q    Type
                         _______ _______ _______ _____ _____    ______ ____

>  <TORSDO>
F 8

$$$$
=
 OpenBabel11042410003D

 38 42  0  0  1  0  0  0  0  0999 V2000
  183.5410  175.3440  137.8550 C   0  0  0  0  0  3  0  0  0  0  0  0
  185.1510  177.8450  138.2480 C   0  0  0  0  0  0  0  0  0  0  0  0
  189.4140  176.4110  138.2000 C   0  0  2  0  0  3  0  0  0  0  0  0
  188.9990  175.8340  136.8090 C   0  0  1  0  0  3  0  0  0  0  0  0
  187.4530  177.8890  137.9090 C   0  0  1  0  0  3  0  0  0  0  0  0
  181.5890  177.8790  139.5750 N   0  0  0  0  0  1  0  0  0  0  0  0
  186.3480  178.4700  138.5990 O   0  0  0  0  0  0  0  0  0  0  0  0
  188.4240  177.3260  138.8560 N   0  0  0  0  0  0  0  0  0  0  0  0
  183.8340  178.2780  138.7680 C   0  0  0  0  0  0  0  0  0  0  0  0
  182.7960  177.4130  138.9800 C   0  0  0  0  0  0  0  0  0  0  0  0
  184.3030  176.0270  136.7750 C   0  0  0  0  0  2  0  0  0  0  0  0
  187.5020  175.7650  136.6700 C   0  0  0  0  0  0  0  0  0  0  0  0
  186.7970  176.7800  137.1670 C   0  0  0  0  0  0  0  0  0  0  0  0
  185.3630  176.8650  137.3880 C   0  0  0  0  0  0  0  0  0  0  0  0
  182.8920  175.9870  138.7800 N   0  0  0  0  0  0  0  0  0  0  0  0
  190.7250  176.9130  138.1960 O   0  0  0  0  0  1  0  0  0  0  0  0
  189.5740  176.6230  135.6660 C   0  0  0  0  0  3  0  0  0  0  0  0
  190.4620  176.1590  134.8350 N   0  0  0  0  0  0  0  0  0  0  0  0
  191.0110  174.8330  134.8130 C   0  0  0  0  0  0  0  0  0  0  0  0
  190.2820  173.8260  134.5940 O   0  0  0  0  0  0  0  0  0  0  0  0
  192.8500  174.6100  136.4550 C   0  0  0  0  0  2  0  0  0  0  0  0
  193.0720  175.8770  135.6600 C   0  0  0  0  0  2  0  0  0  0  0  0
  192.4860  174.6520  134.9800 C   0  0  0  0  0  3  0  0  0  0  0  0
  186.8660  174.6780  136.0630 O   0  0  0  0  0  0  0  0  0  0  0  0
  187.0920  173.3410  136.4840 C   0  0  0  0  0  1  0  0  0  0  0  0
  182.8390  180.5840  138.7090 C   0  0  0  0  0  2  0  0  0  0  0  0
  183.7770  179.7260  139.0990 C   0  0  0  0  0  3  0  0  0  0  0  0
  189.0750  178.4410  139.5430 C   0  0  0  0  0  2  0  0  0  0  0  0
  188.3680  176.5140  143.4090 C   0  0  0  0  0  2  0  0  0  0  0  0
  187.7390  177.8550  143.0510 C   0  0  1  0  0  3  0  0  0  0  0  0
  189.1220  178.1880  141.0420 C   0  0  1  0  0  3  0  0  0  0  0  0
  187.6980  178.0340  141.5470 C   0  0  0  0  0  2  0  0  0  0  0  0
  189.9950  176.9590  141.3560 C   0  0  1  0  0  3  0  0  0  0  0  0
  191.4490  177.3870  141.4690 C   0  0  0  0  0  1  0  0  0  0  0  0
  190.2420  175.2030  142.9120 O   0  0  0  0  0  0  0  0  0  0  0  0
  189.5900  176.1830  142.5930 C   0  0  0  0  0  0  0  0  0  0  0  0
  186.3800  177.9130  143.5910 C   0  0  0  0  0  0  0  0  0  0  0  0
  185.3050  177.9590  144.0190 N   0  0  0  0  0  0  0  0  0  0  0  0
  1 15  2  0  0  0  0
  2  7  1  0  0  0  0
  2  9  1  0  0  0  0
  3 16  1  6  0  0  0
  3  8  1  0  0  0  0
  4 17  1  6  0  0  0
  4  3  1  0  0  0  0
  5 13  1  6  0  0  0
  5  7  1  0  0  0  0
  5  8  1  0  0  0  0
  8 28  1  0  0  0  0
  9 10  2  0  0  0  0
  9 27  1  0  0  0  0
 10  6  1  0  0  0  0
 11 14  1  0  0  0  0
 11  1  1  0  0  0  0
 12  4  1  0  0  0  0
 12 13  2  0  0  0  0
 13 14  1  0  0  0  0
 14  2  2  0  0  0  0
 15 10  1  0  0  0  0
 18 17  2  0  0  0  0
 19 18  1  0  0  0  0
 19 23  1  0  0  0  0
 20 19  2  0  0  0  0
 22 21  1  0  0  0  0
 23 22  1  0  0  0  0
 23 21  1  0  0  0  0
 24 25  1  0  0  0  0
 24 12  1  0  0  0  0
 26 27  2  0  0  0  0
 30 29  1  0  0  0  0
 30 37  1  6  0  0  0
 31 28  1  6  0  0  0
 31 33  1  0  0  0  0
 31 32  1  0  0  0  0
 32 30  1  0  0  0  0
 33 34  1  1  0  0  0
 33 36  1  0  0  0  0
 36 35  2  0  0  0  0
 36 29  1  0  0  0  0
 37 38  3  0  0  0  0
M  END
>  <MODEL>
4

>  <REMARK>
 VINA RESULT:      -7.0      2.878      7.719
  Name = 
  8 active torsions:
  status: ('A' for Active; 'I' for Inactive)
    1  A    between atoms: C_1  and  C_13
    2  A    between atoms: C_3  and  N_20
    3  A    between atoms: C_3  and  C_37
    4  A    between atoms: O_6  and  C_33
    5  A    between atoms: C_7  and  C_12
    6  A    between atoms: C_16  and  C_32
    7  A    between atoms: C_22  and  C_27
    8  A    between atoms: N_23  and  C_32
                            x       y       z     vdW  Elec       q    Type
                         _______ _______ _______ _____ _____    ______ ____

>  <TORSDO>
F 8

$$$$
=
 OpenBabel11042410003D

 38 42  0  0  1  0  0  0  0  0999 V2000
  187.5420  177.3090  142.6950 C   0  0  0  0  0  3  0  0  0  0  0  0
  187.0010  178.3610  139.9380 C   0  0  0  0  0  0  0  0  0  0  0  0
  182.6720  177.3660  139.2290 C   0  0  2  0  0  3  0  0  0  0  0  0
  182.4700  178.1840  140.5440 C   0  0  1  0  0  3  0  0  0  0  0  0
  184.8370  178.5530  139.1010 C   0  0  1  0  0  3  0  0  0  0  0  0
  190.6060  177.4710  140.7500 N   0  0  0  0  0  1  0  0  0  0  0  0
  186.2180  178.3810  138.7840 O   0  0  0  0  0  0  0  0  0  0  0  0
  184.0450  177.4100  138.6300 N   0  0  0  0  0  0  0  0  0  0  0  0
  188.4760  178.2520  139.9080 C   0  0  0  0  0  0  0  0  0  0  0  0
  189.1970  177.6270  140.8890 C   0  0  0  0  0  0  0  0  0  0  0  0
  186.7690  178.5470  142.4100 C   0  0  0  0  0  2  0  0  0  0  0  0
  183.7620  178.3290  141.3020 C   0  0  0  0  0  0  0  0  0  0  0  0
  184.8660  178.5450  140.5880 C   0  0  0  0  0  0  0  0  0  0  0  0
  186.2520  178.4830  141.0210 C   0  0  0  0  0  0  0  0  0  0  0  0
  188.5960  176.9590  142.0180 N   0  0  0  0  0  0  0  0  0  0  0  0
  181.6460  177.5980  138.2970 O   0  0  0  0  0  1  0  0  0  0  0  0
  181.8810  179.5440  140.2900 C   0  0  0  0  0  3  0  0  0  0  0  0
  180.7780  179.9720  140.8310 N   0  0  0  0  0  0  0  0  0  0  0  0
  179.9580  179.2770  141.7830 C   0  0  0  0  0  0  0  0  0  0  0  0
  179.1330  178.3950  141.4160 O   0  0  0  0  0  0  0  0  0  0  0  0
  180.2180  178.2510  144.0200 C   0  0  0  0  0  2  0  0  0  0  0  0
  178.9310  179.0440  144.0070 C   0  0  0  0  0  2  0  0  0  0  0  0
  180.1400  179.5530  143.2410 C   0  0  0  0  0  3  0  0  0  0  0  0
  183.8170  178.2230  142.6940 O   0  0  0  0  0  0  0  0  0  0  0  0
  183.6630  179.3520  143.5430 C   0  0  0  0  0  1  0  0  0  0  0  0
  189.3030  178.1790  137.5370 C   0  0  0  0  0  2  0  0  0  0  0  0
  189.0860  178.8240  138.6790 C   0  0  0  0  0  3  0  0  0  0  0  0
  184.0080  177.4660  137.1680 C   0  0  0  0  0  2  0  0  0  0  0  0
  186.5250  173.9160  136.6910 C   0  0  0  0  0  2  0  0  0  0  0  0
  186.6260  175.1080  135.7470 C   0  0  1  0  0  3  0  0  0  0  0  0
  184.5730  176.1850  136.5720 C   0  0  1  0  0  3  0  0  0  0  0  0
  186.0730  176.3540  136.4080 C   0  0  0  0  0  2  0  0  0  0  0  0
  184.2090  174.9740  137.4500 C   0  0  1  0  0  3  0  0  0  0  0  0
  182.8370  174.4540  137.0500 C   0  0  0  0  0  1  0  0  0  0  0  0
  184.9880  172.8420  138.0910 O   0  0  0  0  0  0  0  0  0  0  0  0
  185.2140  173.8400  137.4290 C   0  0  0  0  0  0  0  0  0  0  0  0
  188.0280  175.3230  135.3860 C   0  0  0  0  0  0  0  0  0  0  0  0
  189.1380  175.4930  135.1000 N   0  0  0  0  0  0  0  0  0  0  0  0
  2 14  2  0  0  0  0
  3 16  1  6  0  0  0
  3  4  1  0  0  0  0
  4 17  1  6  0  0  0
  4 12  1  0  0  0  0
  5  7  1  6  0  0  0
  5 13  1  0  0  0  0
  6 10  1  0  0  0  0
  7  2  1  0  0  0  0
  8  5  1  0  0  0  0
  8  3  1  0  0  0  0
  9  2  1  0  0  0  0
  9 10  2  0  0  0  0
 10 15  1  0  0  0  0
 11  1  1  0  0  0  0
 12 24  1  0  0  0  0
 13 14  1  0  0  0  0
 13 12  2  0  0  0  0
 14 11  1  0  0  0  0
 15  1  2  0  0  0  0
 17 18  2  0  0  0  0
 18 19  1  0  0  0  0
 19 23  1  0  0  0  0
 20 19  2  0  0  0  0
 22 21  1  0  0  0  0
 23 22  1  0  0  0  0
 23 21  1  0  0  0  0
 24 25  1  0  0  0  0
 26 27  2  0  0  0  0
 27  9  1  0  0  0  0
 28  8  1  0  0  0  0
 29 36  1  0  0  0  0
 30 37  1  1  0  0  0
 30 32  1  0  0  0  0
 30 29  1  0  0  0  0
 31 28  1  1  0  0  0
 31 33  1  0  0  0  0
 32 31  1  0  0  0  0
 33 34  1  6  0  0  0
 36 33  1  0  0  0  0
 36 35  2  0  0  0  0
 38 37  3  0  0  0  0
M  END
>  <MODEL>
5

>  <REMARK>
 VINA RESULT:      -6.8      2.951      7.012
  Name = 
  8 active torsions:
  status: ('A' for Active; 'I' for Inactive)
    1  A    between atoms: C_1  and  C_13
    2  A    between atoms: C_3  and  N_20
    3  A    between atoms: C_3  and  C_37
    4  A    between atoms: O_6  and  C_33
    5  A    between atoms: C_7  and  C_12
    6  A    between atoms: C_16  and  C_32
    7  A    between atoms: C_22  and  C_27
    8  A    between atoms: N_23  and  C_32
                            x       y       z     vdW  Elec       q    Type
                         _______ _______ _______ _____ _____    ______ ____

>  <TORSDO>
F 8

$$$$
=
 OpenBabel11042410003D

 38 42  0  0  1  0  0  0  0  0999 V2000
  189.9190  176.5480  140.1130 C   0  0  0  0  0  3  0  0  0  0  0  0
  187.7620  178.2310  138.8820 C   0  0  0  0  0  0  0  0  0  0  0  0
  184.3320  177.8800  141.7710 C   0  0  2  0  0  3  0  0  0  0  0  0
  185.3920  178.4060  142.7910 C   0  0  1  0  0  3  0  0  0  0  0  0
  185.8480  178.8300  140.0640 C   0  0  1  0  0  3  0  0  0  0  0  0
  190.3770  176.8070  136.5190 N   0  0  0  0  0  1  0  0  0  0  0  0
  186.4170  178.5860  138.7790 O   0  0  0  0  0  0  0  0  0  0  0  0
  184.7360  177.9090  140.3280 N   0  0  0  0  0  0  0  0  0  0  0  0
  188.6200  177.9740  137.7040 C   0  0  0  0  0  0  0  0  0  0  0  0
  189.6530  177.0770  137.7160 C   0  0  0  0  0  0  0  0  0  0  0  0
  189.5230  177.8930  140.6090 C   0  0  0  0  0  2  0  0  0  0  0  0
  186.7910  178.2430  142.2590 C   0  0  0  0  0  0  0  0  0  0  0  0
  186.9830  178.4930  140.9650 C   0  0  0  0  0  0  0  0  0  0  0  0
  188.1460  178.1910  140.1470 C   0  0  0  0  0  0  0  0  0  0  0  0
  189.9740  176.2460  138.8500 N   0  0  0  0  0  0  0  0  0  0  0  0
  183.0570  178.4190  142.0070 O   0  0  0  0  0  1  0  0  0  0  0  0
  185.1620  179.8440  143.1680 C   0  0  0  0  0  3  0  0  0  0  0  0
  184.7840  180.2340  144.3500 N   0  0  0  0  0  0  0  0  0  0  0  0
  184.5670  179.4060  145.5030 C   0  0  0  0  0  0  0  0  0  0  0  0
  183.4760  178.7950  145.6750 O   0  0  0  0  0  0  0  0  0  0  0  0
  186.3900  177.8910  146.2150 C   0  0  0  0  0  2  0  0  0  0  0  0
  185.3890  177.9950  147.3430 C   0  0  0  0  0  2  0  0  0  0  0  0
  185.6820  179.2090  146.4790 C   0  0  0  0  0  3  0  0  0  0  0  0
  187.8470  177.8300  143.0750 O   0  0  0  0  0  0  0  0  0  0  0  0
  187.9770  176.4870  143.5190 C   0  0  0  0  0  1  0  0  0  0  0  0
  187.4830  178.2670  135.4830 C   0  0  0  0  0  2  0  0  0  0  0  0
  188.2060  178.7350  136.4960 C   0  0  0  0  0  3  0  0  0  0  0  0
  183.6270  178.2880  139.4520 C   0  0  0  0  0  2  0  0  0  0  0  0
  180.8280  175.6980  137.3030 C   0  0  0  0  0  2  0  0  0  0  0  0
  181.2710  175.3960  138.7290 C   0  0  1  0  0  3  0  0  0  0  0  0
  183.0780  177.0670  138.7290 C   0  0  1  0  0  3  0  0  0  0  0  0
  181.7800  176.6550  139.4020 C   0  0  0  0  0  2  0  0  0  0  0  0
  182.8970  177.3630  137.2290 C   0  0  1  0  0  3  0  0  0  0  0  0
  184.2050  177.1010  136.5010 C   0  0  0  0  0  1  0  0  0  0  0  0
  181.5760  176.7760  135.3650 O   0  0  0  0  0  0  0  0  0  0  0  0
  181.7730  176.6030  136.5560 C   0  0  0  0  0  0  0  0  0  0  0  0
  180.1390  174.8580  139.4850 C   0  0  0  0  0  0  0  0  0  0  0  0
  179.2430  174.4320  140.0820 N   0  0  0  0  0  0  0  0  0  0  0  0
  1 11  1  0  0  0  0
  2 14  2  0  0  0  0
  3 16  1  6  0  0  0
  3  4  1  0  0  0  0
  4 17  1  6  0  0  0
  5  7  1  6  0  0  0
  5  8  1  0  0  0  0
  5 13  1  0  0  0  0
  6 10  1  0  0  0  0
  7  2  1  0  0  0  0
  8  3  1  0  0  0  0
  9 10  2  0  0  0  0
  9  2  1  0  0  0  0
 10 15  1  0  0  0  0
 12  4  1  0  0  0  0
 12 24  1  0  0  0  0
 13 12  2  0  0  0  0
 14 11  1  0  0  0  0
 14 13  1  0  0  0  0
 15  1  2  0  0  0  0
 17 18  2  0  0  0  0
 18 19  1  0  0  0  0
 19 20  2  0  0  0  0
 19 23  1  0  0  0  0
 21 23  1  0  0  0  0
 21 22  1  0  0  0  0
 23 22  1  0  0  0  0
 24 25  1  0  0  0  0
 26 27  2  0  0  0  0
 27  9  1  0  0  0  0
 28  8  1  0  0  0  0
 29 30  1  0  0  0  0
 30 32  1  0  0  0  0
 30 37  1  1  0  0  0
 31 32  1  0  0  0  0
 31 28  1  1  0  0  0
 33 34  1  6  0  0  0
 33 31  1  0  0  0  0
 35 36  2  0  0  0  0
 36 33  1  0  0  0  0
 36 29  1  0  0  0  0
 37 38  3  0  0  0  0
M  END
>  <MODEL>
6

>  <REMARK>
 VINA RESULT:      -6.7      2.640      3.519
  Name = 
  8 active torsions:
  status: ('A' for Active; 'I' for Inactive)
    1  A    between atoms: C_1  and  C_13
    2  A    between atoms: C_3  and  N_20
    3  A    between atoms: C_3  and  C_37
    4  A    between atoms: O_6  and  C_33
    5  A    between atoms: C_7  and  C_12
    6  A    between atoms: C_16  and  C_32
    7  A    between atoms: C_22  and  C_27
    8  A    between atoms: N_23  and  C_32
                            x       y       z     vdW  Elec       q    Type
                         _______ _______ _______ _____ _____    ______ ____

>  <TORSDO>
F 8

$$$$
=
 OpenBabel11042410003D

 38 42  0  0  1  0  0  0  0  0999 V2000
  187.1100  177.4600  142.9100 C   0  0  0  0  0  3  0  0  0  0  0  0
  187.5720  178.1040  140.0170 C   0  0  0  0  0  0  0  0  0  0  0  0
  183.4850  177.7810  138.1680 C   0  0  2  0  0  3  0  0  0  0  0  0
  183.1200  178.8340  139.2620 C   0  0  1  0  0  3  0  0  0  0  0  0
  185.8090  178.5280  138.5570 C   0  0  1  0  0  3  0  0  0  0  0  0
  190.5420  176.7450  141.9610 N   0  0  0  0  0  1  0  0  0  0  0  0
  187.1520  178.0640  138.6870 O   0  0  0  0  0  0  0  0  0  0  0  0
  184.9430  177.4790  138.0040 N   0  0  0  0  0  0  0  0  0  0  0  0
  188.9410  177.7330  140.4400 C   0  0  0  0  0  0  0  0  0  0  0  0
  189.2170  177.1680  141.6550 C   0  0  0  0  0  0  0  0  0  0  0  0
  186.7310  178.7470  142.2700 C   0  0  0  0  0  2  0  0  0  0  0  0
  184.1600  178.8760  140.3490 C   0  0  0  0  0  0  0  0  0  0  0  0
  185.4350  178.7690  139.9760 C   0  0  0  0  0  0  0  0  0  0  0  0
  186.6050  178.5390  140.8060 C   0  0  0  0  0  0  0  0  0  0  0  0
  188.2040  176.8200  142.6220 N   0  0  0  0  0  0  0  0  0  0  0  0
  182.8230  178.0270  136.9540 O   0  0  0  0  0  1  0  0  0  0  0  0
  182.9320  180.2130  138.6920 C   0  0  0  0  0  3  0  0  0  0  0  0
  181.7960  180.8480  138.6820 N   0  0  0  0  0  0  0  0  0  0  0  0
  180.5520  180.3970  139.2390 C   0  0  0  0  0  0  0  0  0  0  0  0
  180.3930  180.2920  140.4870 O   0  0  0  0  0  0  0  0  0  0  0  0
  179.4970  178.7050  137.7730 C   0  0  0  0  0  2  0  0  0  0  0  0
  179.9230  179.8770  136.9180 C   0  0  0  0  0  2  0  0  0  0  0  0
  179.4030  180.1170  138.3250 C   0  0  0  0  0  3  0  0  0  0  0  0
  183.8150  179.0020  141.6970 O   0  0  0  0  0  0  0  0  0  0  0  0
  182.5550  178.5770  142.1960 C   0  0  0  0  0  1  0  0  0  0  0  0
  190.3640  177.0990  138.4690 C   0  0  0  0  0  2  0  0  0  0  0  0
  189.9680  177.9700  139.3920 C   0  0  0  0  0  3  0  0  0  0  0  0
  185.3130  177.2900  136.6010 C   0  0  0  0  0  2  0  0  0  0  0  0
  186.5300  173.1530  137.3530 C   0  0  0  0  0  2  0  0  0  0  0  0
  187.4220  174.1290  136.5950 C   0  0  1  0  0  3  0  0  0  0  0  0
  185.6650  175.8340  136.3350 C   0  0  1  0  0  3  0  0  0  0  0  0
  187.0380  175.5580  136.9220 C   0  0  0  0  0  2  0  0  0  0  0  0
  184.5810  174.9030  136.9080 C   0  0  1  0  0  3  0  0  0  0  0  0
  183.4700  174.7320  135.8840 C   0  0  0  0  0  1  0  0  0  0  0  0
  184.2720  172.7470  137.8140 O   0  0  0  0  0  0  0  0  0  0  0  0
  185.0760  173.5440  137.3600 C   0  0  0  0  0  0  0  0  0  0  0  0
  188.8190  173.8970  136.9630 C   0  0  0  0  0  0  0  0  0  0  0  0
  189.9240  173.7130  137.2550 N   0  0  0  0  0  0  0  0  0  0  0  0
  2  9  1  0  0  0  0
  2 14  2  0  0  0  0
  3 16  1  6  0  0  0
  3  4  1  0  0  0  0
  4 17  1  6  0  0  0
  4 12  1  0  0  0  0
  5  7  1  1  0  0  0
  5 13  1  0  0  0  0
  7  2  1  0  0  0  0
  8  3  1  0  0  0  0
  8  5  1  0  0  0  0
  9 10  2  0  0  0  0
 10  6  1  0  0  0  0
 10 15  1  0  0  0  0
 11  1  1  0  0  0  0
 12 24  1  0  0  0  0
 13 12  2  0  0  0  0
 13 14  1  0  0  0  0
 14 11  1  0  0  0  0
 15  1  2  0  0  0  0
 18 17  2  0  0  0  0
 18 19  1  0  0  0  0
 19 20  2  0  0  0  0
 21 23  1  0  0  0  0
 22 21  1  0  0  0  0
 22 23  1  0  0  0  0
 23 19  1  0  0  0  0
 24 25  1  0  0  0  0
 26 27  2  0  0  0  0
 27  9  1  0  0  0  0
 28  8  1  0  0  0  0
 29 36  1  0  0  0  0
 30 32  1  0  0  0  0
 30 37  1  1  0  0  0
 30 29  1  0  0  0  0
 31 28  1  1  0  0  0
 31 33  1  0  0  0  0
 31 32  1  0  0  0  0
 33 34  1  6  0  0  0
 33 36  1  0  0  0  0
 36 35  2  0  0  0  0
 37 38  3  0  0  0  0
M  END
>  <MODEL>
7

>  <REMARK>
 VINA RESULT:      -6.4      3.052      7.747
  Name = 
  8 active torsions:
  status: ('A' for Active; 'I' for Inactive)
    1  A    between atoms: C_1  and  C_13
    2  A    between atoms: C_3  and  N_20
    3  A    between atoms: C_3  and  C_37
    4  A    between atoms: O_6  and  C_33
    5  A    between atoms: C_7  and  C_12
    6  A    between atoms: C_16  and  C_32
    7  A    between atoms: C_22  and  C_27
    8  A    between atoms: N_23  and  C_32
                            x       y       z     vdW  Elec       q    Type
                         _______ _______ _______ _____ _____    ______ ____

>  <TORSDO>
F 8

$$$$
=
 OpenBabel11042410003D

 38 42  0  0  1  0  0  0  0  0999 V2000
  191.6430  176.4550  143.8990 C   0  0  0  0  0  3  0  0  0  0  0  0
  188.7580  177.1430  143.4420 C   0  0  0  0  0  0  0  0  0  0  0  0
  188.6730  178.7170  139.2300 C   0  0  2  0  0  3  0  0  0  0  0  0
  189.3150  177.3300  138.9060 C   0  0  1  0  0  3  0  0  0  0  0  0
  187.9330  177.6230  141.3200 C   0  0  1  0  0  3  0  0  0  0  0  0
  189.9640  177.1380  147.0470 N   0  0  0  0  0  1  0  0  0  0  0  0
  187.7780  177.8260  142.7230 O   0  0  0  0  0  0  0  0  0  0  0  0
  188.1640  178.8970  140.6270 N   0  0  0  0  0  0  0  0  0  0  0  0
  188.8090  177.1290  144.9210 C   0  0  0  0  0  0  0  0  0  0  0  0
  189.9790  177.0480  145.6260 C   0  0  0  0  0  0  0  0  0  0  0  0
  190.7120  175.6470  143.0660 C   0  0  0  0  0  2  0  0  0  0  0  0
  189.8790  176.6860  140.1440 C   0  0  0  0  0  0  0  0  0  0  0  0
  189.1760  176.8080  141.2680 C   0  0  0  0  0  0  0  0  0  0  0  0
  189.5850  176.5070  142.6300 C   0  0  0  0  0  0  0  0  0  0  0  0
  191.2830  177.0310  145.0080 N   0  0  0  0  0  0  0  0  0  0  0  0
  187.7590  179.1210  138.2430 O   0  0  0  0  0  1  0  0  0  0  0  0
  188.3450  176.3880  138.2470 C   0  0  0  0  0  3  0  0  0  0  0  0
  188.5220  175.8690  137.0670 N   0  0  0  0  0  0  0  0  0  0  0  0
  189.6610  176.0440  136.2100 C   0  0  0  0  0  0  0  0  0  0  0  0
  189.7440  177.0290  135.4260 O   0  0  0  0  0  0  0  0  0  0  0  0
  190.5760  173.9050  135.3660 C   0  0  0  0  0  2  0  0  0  0  0  0
  190.2940  173.7520  136.8440 C   0  0  0  0  0  2  0  0  0  0  0  0
  190.7990  175.0790  136.3040 C   0  0  0  0  0  3  0  0  0  0  0  0
  191.0980  176.0020  140.1290 O   0  0  0  0  0  0  0  0  0  0  0  0
  192.2210  176.4770  139.4010 C   0  0  0  0  0  1  0  0  0  0  0  0
  187.0180  178.3640  146.1770 C   0  0  0  0  0  2  0  0  0  0  0  0
  187.4750  177.2800  145.5590 C   0  0  0  0  0  3  0  0  0  0  0  0
  186.9150  179.6580  140.6660 C   0  0  0  0  0  2  0  0  0  0  0  0
  182.9540  178.5000  142.1260 C   0  0  0  0  0  2  0  0  0  0  0  0
  184.2000  178.3760  142.9940 C   0  0  1  0  0  3  0  0  0  0  0  0
  185.7690  178.7770  141.1410 C   0  0  1  0  0  3  0  0  0  0  0  0
  185.2920  179.2960  142.4860 C   0  0  0  0  0  2  0  0  0  0  0  0
  184.6440  178.7400  140.0900 C   0  0  1  0  0  3  0  0  0  0  0  0
  184.9430  177.6540  139.0690 C   0  0  0  0  0  1  0  0  0  0  0  0
  182.3080  178.4980  139.8760 O   0  0  0  0  0  0  0  0  0  0  0  0
  183.2490  178.5490  140.6500 C   0  0  0  0  0  0  0  0  0  0  0  0
  183.8650  178.7260  144.3750 C   0  0  0  0  0  0  0  0  0  0  0  0
  183.6000  179.0030  145.4680 N   0  0  0  0  0  0  0  0  0  0  0  0
  1 15  2  0  0  0  0
  2  9  1  0  0  0  0
  3 16  1  6  0  0  0
  3  8  1  0  0  0  0
  4 17  1  1  0  0  0
  4  3  1  0  0  0  0
  4 12  1  0  0  0  0
  5 13  1  1  0  0  0
  5  7  1  0  0  0  0
  7  2  1  0  0  0  0
  8 28  1  0  0  0  0
  8  5  1  0  0  0  0
  9 27  1  0  0  0  0
  9 10  2  0  0  0  0
 10  6  1  0  0  0  0
 11  1  1  0  0  0  0
 12 13  2  0  0  0  0
 13 14  1  0  0  0  0
 14 11  1  0  0  0  0
 14  2  2  0  0  0  0
 15 10  1  0  0  0  0
 18 17  2  0  0  0  0
 19 23  1  0  0  0  0
 19 18  1  0  0  0  0
 20 19  2  0  0  0  0
 21 23  1  0  0  0  0
 21 22  1  0  0  0  0
 23 22  1  0  0  0  0
 24 12  1  0  0  0  0
 25 24  1  0  0  0  0
 27 26  2  0  0  0  0
 29 30  1  0  0  0  0
 30 37  1  1  0  0  0
 31 28  1  6  0  0  0
 31 32  1  0  0  0  0
 32 30  1  0  0  0  0
 33 34  1  6  0  0  0
 33 36  1  0  0  0  0
 33 31  1  0  0  0  0
 35 36  2  0  0  0  0
 36 29  1  0  0  0  0
 37 38  3  0  0  0  0
M  END
>  <MODEL>
8

>  <REMARK>
 VINA RESULT:      -6.2      1.822      6.433
  Name = 
  8 active torsions:
  status: ('A' for Active; 'I' for Inactive)
    1  A    between atoms: C_1  and  C_13
    2  A    between atoms: C_3  and  N_20
    3  A    between atoms: C_3  and  C_37
    4  A    between atoms: O_6  and  C_33
    5  A    between atoms: C_7  and  C_12
    6  A    between atoms: C_16  and  C_32
    7  A    between atoms: C_22  and  C_27
    8  A    between atoms: N_23  and  C_32
                            x       y       z     vdW  Elec       q    Type
                         _______ _______ _______ _____ _____    ______ ____

>  <TORSDO>
F 8

$$$$
=
 OpenBabel11042410003D

 38 42  0  0  1  0  0  0  0  0999 V2000
  183.2010  177.4900  140.4100 C   0  0  0  0  0  3  0  0  0  0  0  0
  185.3580  179.0020  141.8460 C   0  0  0  0  0  0  0  0  0  0  0  0
  189.1700  177.1550  140.3300 C   0  0  2  0  0  3  0  0  0  0  0  0
  188.5820  177.5570  138.9400 C   0  0  1  0  0  3  0  0  0  0  0  0
  187.5950  178.8410  141.2200 C   0  0  1  0  0  3  0  0  0  0  0  0
  181.9520  178.8740  143.5270 N   0  0  0  0  0  1  0  0  0  0  0  0
  186.6790  179.1010  142.2830 O   0  0  0  0  0  0  0  0  0  0  0  0
  188.4430  177.6840  141.5300 N   0  0  0  0  0  0  0  0  0  0  0  0
  184.1980  179.2750  142.7220 C   0  0  0  0  0  0  0  0  0  0  0  0
  182.9960  178.6350  142.5880 C   0  0  0  0  0  0  0  0  0  0  0  0
  184.0600  178.5260  139.7760 C   0  0  0  0  0  2  0  0  0  0  0  0
  187.1060  177.8340  139.0290 C   0  0  0  0  0  0  0  0  0  0  0  0
  186.6730  178.4850  140.1080 C   0  0  0  0  0  0  0  0  0  0  0  0
  185.3060  178.6700  140.5670 C   0  0  0  0  0  0  0  0  0  0  0  0
  182.7530  177.5880  141.6260 N   0  0  0  0  0  0  0  0  0  0  0  0
  190.5610  177.3390  140.3910 O   0  0  0  0  0  1  0  0  0  0  0  0
  189.2820  178.7460  138.3420 C   0  0  0  0  0  3  0  0  0  0  0  0
  189.4250  178.9400  137.0640 N   0  0  0  0  0  0  0  0  0  0  0  0
  188.9180  178.1130  136.0050 C   0  0  0  0  0  0  0  0  0  0  0  0
  187.7400  178.2530  135.5720 O   0  0  0  0  0  0  0  0  0  0  0  0
  189.2280  175.7260  135.4300 C   0  0  0  0  0  2  0  0  0  0  0  0
  190.3190  176.1290  136.3960 C   0  0  0  0  0  2  0  0  0  0  0  0
  189.8280  177.1200  135.3550 C   0  0  0  0  0  3  0  0  0  0  0  0
  186.2150  177.4160  138.0380 O   0  0  0  0  0  0  0  0  0  0  0  0
  186.2030  176.0830  137.5480 C   0  0  0  0  0  1  0  0  0  0  0  0
  184.9500  179.9810  145.0130 C   0  0  0  0  0  2  0  0  0  0  0  0
  184.4890  180.2600  143.7970 C   0  0  0  0  0  3  0  0  0  0  0  0
  189.3590  178.0770  142.6000 C   0  0  0  0  0  2  0  0  0  0  0  0
  189.0800  176.8480  146.7930 C   0  0  0  0  0  2  0  0  0  0  0  0
  190.2280  176.3990  145.8970 C   0  0  1  0  0  3  0  0  0  0  0  0
  189.1700  177.1840  143.8170 C   0  0  1  0  0  3  0  0  0  0  0  0
  190.3810  177.3420  144.7210 C   0  0  0  0  0  2  0  0  0  0  0  0
  187.8500  177.5200  144.5350 C   0  0  1  0  0  3  0  0  0  0  0  0
  186.7140  176.7410  143.8930 C   0  0  0  0  0  1  0  0  0  0  0  0
  186.8410  177.5150  146.6670 O   0  0  0  0  0  0  0  0  0  0  0  0
  187.8550  177.2830  146.0320 C   0  0  0  0  0  0  0  0  0  0  0  0
  191.4690  176.3750  146.6730 C   0  0  0  0  0  0  0  0  0  0  0  0
  192.4500  176.3560  147.2870 N   0  0  0  0  0  0  0  0  0  0  0  0
  1 15  2  0  0  0  0
  2  7  1  0  0  0  0
  2  9  1  0  0  0  0
  3 16  1  6  0  0  0
  3  8  1  0  0  0  0
  4 17  1  1  0  0  0
  4 12  1  0  0  0  0
  4  3  1  0  0  0  0
  5 13  1  6  0  0  0
  5  8  1  0  0  0  0
  5  7  1  0  0  0  0
  8 28  1  0  0  0  0
  9 27  1  0  0  0  0
 10  9  2  0  0  0  0
 10  6  1  0  0  0  0
 11  1  1  0  0  0  0
 11 14  1  0  0  0  0
 12 13  2  0  0  0  0
 13 14  1  0  0  0  0
 14  2  2  0  0  0  0
 15 10  1  0  0  0  0
 18 17  2  0  0  0  0
 19 18  1  0  0  0  0
 20 19  2  0  0  0  0
 21 22  1  0  0  0  0
 23 21  1  0  0  0  0
 23 19  1  0  0  0  0
 23 22  1  0  0  0  0
 24 12  1  0  0  0  0
 25 24  1  0  0  0  0
 27 26  2  0  0  0  0
 30 37  1  1  0  0  0
 30 29  1  0  0  0  0
 31 28  1  6  0  0  0
 31 33  1  0  0  0  0
 31 32  1  0  0  0  0
 32 30  1  0  0  0  0
 33 34  1  6  0  0  0
 33 36  1  0  0  0  0
 36 35  2  0  0  0  0
 36 29  1  0  0  0  0
 37 38  3  0  0  0  0
M  END
>  <MODEL>
9

>  <REMARK>
 VINA RESULT:      -6.2      1.967      8.030
  Name = 
  8 active torsions:
  status: ('A' for Active; 'I' for Inactive)
    1  A    between atoms: C_1  and  C_13
    2  A    between atoms: C_3  and  N_20
    3  A    between atoms: C_3  and  C_37
    4  A    between atoms: O_6  and  C_33
    5  A    between atoms: C_7  and  C_12
    6  A    between atoms: C_16  and  C_32
    7  A    between atoms: C_22  and  C_27
    8  A    between atoms: N_23  and  C_32
                            x       y       z     vdW  Elec       q    Type
                         _______ _______ _______ _____ _____    ______ ____

>  <TORSDO>
F 8

$$$$
