=
 OpenBabel11042413103D

 32 37  0  0  1  0  0  0  0  0999 V2000
  192.6140  176.1340  138.1760 N   0  0  0  0  0  0  0  0  0  0  0  0
  187.5600  178.5800  139.6770 O   0  0  0  0  0  0  0  0  0  0  0  0
  189.3240  176.2250  135.4000 C   0  0  0  0  0  2  0  0  0  0  0  0
  187.3030  177.4940  135.0490 O   0  0  0  0  0  1  0  0  0  0  0  0
  190.7800  177.2740  140.7920 C   0  0  2  0  0  3  0  0  0  0  0  0
  188.4240  177.5220  141.6080 C   0  0  1  0  0  3  0  0  0  0  0  0
  187.4100  176.0340  136.8930 N   0  0  0  0  0  2  0  0  0  0  0  0
  188.5020  177.1850  142.9210 C   0  0  2  0  0  3  0  0  0  0  0  0
  191.3260  174.0770  136.0760 C   0  0  0  0  0  1  0  0  0  0  0  0
  188.0830  176.0850  138.1950 C   0  0  0  0  0  2  0  0  0  0  0  0
  190.4550  176.3640  136.3260 N   0  0  2  0  0  0  0  0  0  0  0  0
  191.5150  175.1840  138.3050 C   0  0  0  0  0  2  0  0  0  0  0  0
  188.7690  177.9650  136.8990 C   0  0  1  0  0  0  0  0  0  0  0  0
  188.6030  179.4720  136.7430 C   0  0  0  0  0  1  0  0  0  0  0  0
  189.7020  177.6450  145.0300 O   0  0  0  0  0  1  0  0  0  0  0  0
  187.1830  177.9710  140.8990 C   0  0  1  0  0  3  0  0  0  0  0  0
  187.2470  176.9560  143.7030 C   0  0  0  0  0  1  0  0  0  0  0  0
  188.9960  177.3150  138.2320 C   0  0  1  0  0  0  0  0  0  0  0  0
  188.1420  176.9430  136.0180 C   0  0  1  0  0  0  0  0  0  0  0  0
  190.9510  176.8690  143.2290 C   0  0  0  0  0  3  0  0  0  0  0  0
  192.8670  176.6820  139.5010 C   0  0  0  0  0  2  0  0  0  0  0  0
  189.7610  177.2210  143.7070 C   0  0  0  0  0  0  0  0  0  0  0  0
  188.9200  178.2820  139.4230 C   0  0  2  0  0  3  0  0  0  0  0  0
  190.6800  175.0800  137.0190 C   0  0  2  0  0  3  0  0  0  0  0  0
  191.8490  177.7660  139.8540 C   0  0  0  0  0  2  0  0  0  0  0  0
  191.1560  176.3060  141.8700 C   0  0  0  0  0  2  0  0  0  0  0  0
  190.1620  177.5060  137.2230 C   0  0  1  0  0  3  0  0  0  0  0  0
  189.5050  177.6860  140.6590 C   0  0  2  0  0  3  0  0  0  0  0  0
  185.2730  179.3950  141.2890 N   0  0  0  0  0  2  0  0  0  0  0  0
  186.4140  178.9830  141.6970 C   0  0  0  0  0  3  0  0  0  0  0  0
  193.8020  175.3760  137.8190 C   0  0  0  0  0  2  0  0  0  0  0  0
  194.4850  176.0330  136.7960 O   0  0  0  0  0  1  0  0  0  0  0  0
  1 12  1  0  0  0  0
  1 21  1  0  0  0  0
  2 16  1  0  0  0  0
  3 19  1  0  0  0  0
  3 11  1  0  0  0  0
  4 19  1  0  0  0  0
  5 25  1  6  0  0  0
  5 26  1  0  0  0  0
  6  8  1  0  0  0  0
  7 10  1  0  0  0  0
  8 17  1  0  0  0  0
  8 22  1  0  0  0  0
  9 24  1  0  0  0  0
 10 18  1  0  0  0  0
 11 24  1  0  0  0  0
 11 27  1  0  0  0  0
 13 27  1  0  0  0  0
 13 18  1  0  0  0  0
 14 13  1  0  0  0  0
 16  6  1  0  0  0  0
 16 30  1  0  0  0  0
 18 23  1  0  0  0  0
 19  7  1  0  0  0  0
 19 13  1  0  0  0  0
 20 22  2  0  0  0  0
 21 25  1  0  0  0  0
 22 15  1  0  0  0  0
 23  2  1  0  0  0  0
 23 28  1  0  0  0  0
 24 12  1  0  0  0  0
 26 20  1  0  0  0  0
 27 18  1  0  0  0  0
 28  5  1  0  0  0  0
 28  6  1  0  0  0  0
 29 30  2  0  0  0  0
 31  1  1  0  0  0  0
 32 31  1  0  0  0  0
M  END
>  <MODEL>
1

>  <REMARK>
 VINA RESULT:      -6.8      0.000      0.000
  Name = 
  2 active torsions:
  status: ('A' for Active; 'I' for Inactive)
    1  A    between atoms: N_2  and  C_14
    2  A    between atoms: C_18  and  C_20
                            x       y       z     vdW  Elec       q    Type
                         _______ _______ _______ _____ _____    ______ ____

>  <TORSDO>
F 2

$$$$
=
 OpenBabel11042413103D

 32 37  0  0  1  0  0  0  0  0999 V2000
  186.4200  178.7380  143.0840 N   0  0  0  0  0  0  0  0  0  0  0  0
  191.7310  177.4390  141.1130 O   0  0  0  0  0  0  0  0  0  0  0  0
  189.4560  177.3000  145.7780 C   0  0  0  0  0  2  0  0  0  0  0  0
  191.8620  177.1610  145.8640 O   0  0  0  0  0  1  0  0  0  0  0  0
  188.2460  178.1390  140.2890 C   0  0  2  0  0  3  0  0  0  0  0  0
  190.1900  176.8090  139.4340 C   0  0  1  0  0  3  0  0  0  0  0  0
  190.7080  175.7790  144.3470 N   0  0  0  0  0  2  0  0  0  0  0  0
  189.7740  176.3820  138.2140 C   0  0  2  0  0  3  0  0  0  0  0  0
  186.5160  176.6820  145.5460 C   0  0  0  0  0  1  0  0  0  0  0  0
  190.0400  176.0120  143.0620 C   0  0  0  0  0  2  0  0  0  0  0  0
  188.5140  177.9330  144.8460 N   0  0  2  0  0  0  0  0  0  0  0  0
  186.7390  177.3160  143.1430 C   0  0  0  0  0  2  0  0  0  0  0  0
  190.7330  178.1080  143.9610 C   0  0  1  0  0  0  0  0  0  0  0  0
  191.7600  179.2250  143.8150 C   0  0  0  0  0  1  0  0  0  0  0  0
  188.8220  177.1220  136.0590 O   0  0  0  0  0  1  0  0  0  0  0  0
  191.5350  176.5410  140.0350 C   0  0  1  0  0  3  0  0  0  0  0  0
  190.5580  175.3340  137.4880 C   0  0  0  0  0  1  0  0  0  0  0  0
  190.0140  177.5190  142.7850 C   0  0  1  0  0  0  0  0  0  0  0  0
  190.7500  177.0690  145.0260 C   0  0  1  0  0  0  0  0  0  0  0  0
  187.5810  177.5340  137.9810 C   0  0  0  0  0  3  0  0  0  0  0  0
  186.3760  179.1110  141.6770 C   0  0  0  0  0  2  0  0  0  0  0  0
  188.6870  177.0320  137.4390 C   0  0  0  0  0  0  0  0  0  0  0  0
  190.4930  178.0490  141.4250 C   0  0  2  0  0  3  0  0  0  0  0  0
  187.5050  176.9420  144.4220 C   0  0  2  0  0  3  0  0  0  0  0  0
  187.7820  179.3090  141.1130 C   0  0  0  0  0  2  0  0  0  0  0  0
  187.2520  177.4260  139.4250 C   0  0  0  0  0  2  0  0  0  0  0  0
  189.3060  178.5200  143.7390 C   0  0  1  0  0  3  0  0  0  0  0  0
  189.5280  177.7300  140.3340 C   0  0  2  0  0  3  0  0  0  0  0  0
  193.8170  177.0760  139.4580 N   0  0  0  0  0  2  0  0  0  0  0  0
  192.6460  176.7580  139.0500 C   0  0  0  0  0  3  0  0  0  0  0  0
  185.0660  178.9000  143.5880 C   0  0  0  0  0  2  0  0  0  0  0  0
  184.1820  178.1750  142.7890 O   0  0  0  0  0  1  0  0  0  0  0  0
  1 12  1  0  0  0  0
  1 31  1  0  0  0  0
  2 23  1  0  0  0  0
  5 26  1  1  0  0  0
  5 28  1  0  0  0  0
  5 25  1  0  0  0  0
  6 16  1  0  0  0  0
  6 28  1  0  0  0  0
  7 19  1  0  0  0  0
  8  6  1  0  0  0  0
 10  7  1  0  0  0  0
 11  3  1  0  0  0  0
 12 24  1  0  0  0  0
 13 19  1  0  0  0  0
 14 13  1  0  0  0  0
 15 22  1  0  0  0  0
 16  2  1  0  0  0  0
 17  8  1  0  0  0  0
 18 10  1  0  0  0  0
 18 27  1  0  0  0  0
 18 13  1  0  0  0  0
 19  3  1  0  0  0  0
 19  4  1  0  0  0  0
 20 26  1  0  0  0  0
 21  1  1  0  0  0  0
 22 20  2  0  0  0  0
 22  8  1  0  0  0  0
 23 18  1  0  0  0  0
 24 11  1  0  0  0  0
 24  9  1  0  0  0  0
 25 21  1  0  0  0  0
 27 13  1  0  0  0  0
 27 11  1  0  0  0  0
 28 23  1  0  0  0  0
 30 29  2  0  0  0  0
 30 16  1  0  0  0  0
 32 31  1  0  0  0  0
M  END
>  <MODEL>
2

>  <REMARK>
 VINA RESULT:      -6.8      2.361      7.490
  Name = 
  2 active torsions:
  status: ('A' for Active; 'I' for Inactive)
    1  A    between atoms: N_2  and  C_14
    2  A    between atoms: C_18  and  C_20
                            x       y       z     vdW  Elec       q    Type
                         _______ _______ _______ _____ _____    ______ ____

>  <TORSDO>
F 2

$$$$
=
 OpenBabel11042413103D

 32 37  0  0  1  0  0  0  0  0999 V2000
  184.8840  177.7300  137.6730 N   0  0  0  0  0  0  0  0  0  0  0  0
  179.8900  179.6320  139.9580 O   0  0  0  0  0  0  0  0  0  0  0  0
  181.1630  177.1290  135.5920 C   0  0  0  0  0  2  0  0  0  0  0  0
  178.9490  178.0860  135.5550 O   0  0  0  0  0  1  0  0  0  0  0  0
  183.4150  178.8670  140.5110 C   0  0  2  0  0  3  0  0  0  0  0  0
  181.2370  178.8840  141.7510 C   0  0  1  0  0  3  0  0  0  0  0  0
  179.6030  176.8340  137.4390 N   0  0  0  0  0  2  0  0  0  0  0  0
  181.6030  178.6870  143.0440 C   0  0  2  0  0  3  0  0  0  0  0  0
  183.5450  175.3320  136.0110 C   0  0  0  0  0  1  0  0  0  0  0  0
  180.4890  177.0960  138.5780 C   0  0  0  0  0  2  0  0  0  0  0  0
  182.4120  177.5000  136.2680 N   0  0  2  0  0  0  0  0  0  0  0  0
  183.9760  176.6620  138.0790 C   0  0  0  0  0  2  0  0  0  0  0  0
  180.6450  178.9170  137.0470 C   0  0  1  0  0  0  0  0  0  0  0  0
  180.2360  180.3680  136.8230 C   0  0  0  0  0  1  0  0  0  0  0  0
  183.0900  179.4970  144.8420 O   0  0  0  0  0  1  0  0  0  0  0  0
  179.8360  179.0990  141.2690 C   0  0  1  0  0  3  0  0  0  0  0  0
  180.5600  178.3730  144.0700 C   0  0  0  0  0  1  0  0  0  0  0  0
  181.2040  178.4320  138.3510 C   0  0  1  0  0  0  0  0  0  0  0  0
  180.0230  177.7430  136.3780 C   0  0  1  0  0  0  0  0  0  0  0  0
  184.0870  178.7210  142.8900 C   0  0  0  0  0  3  0  0  0  0  0  0
  185.2930  178.4300  138.8820 C   0  0  0  0  0  2  0  0  0  0  0  0
  182.9660  178.9610  143.5650 C   0  0  0  0  0  0  0  0  0  0  0  0
  181.2090  179.4900  139.4650 C   0  0  2  0  0  3  0  0  0  0  0  0
  182.9440  176.3280  136.9910 C   0  0  2  0  0  3  0  0  0  0  0  0
  184.2110  179.4020  139.3510 C   0  0  0  0  0  2  0  0  0  0  0  0
  184.1190  178.0630  141.5590 C   0  0  0  0  0  2  0  0  0  0  0  0
  182.1250  178.6760  137.1240 C   0  0  1  0  0  3  0  0  0  0  0  0
  182.0910  179.0950  140.6010 C   0  0  2  0  0  3  0  0  0  0  0  0
  179.2850  181.3320  142.0030 N   0  0  0  0  0  2  0  0  0  0  0  0
  179.0870  180.0740  142.1300 C   0  0  0  0  0  3  0  0  0  0  0  0
  186.0830  177.1010  137.1440 C   0  0  0  0  0  2  0  0  0  0  0  0
  187.1890  177.5030  137.8930 O   0  0  0  0  0  1  0  0  0  0  0  0
  1 12  1  0  0  0  0
  1 21  1  0  0  0  0
  2 16  1  0  0  0  0
  3 11  1  0  0  0  0
  3 19  1  0  0  0  0
  4 19  1  0  0  0  0
  5 25  1  6  0  0  0
  5 28  1  0  0  0  0
  5 26  1  0  0  0  0
  6  8  1  0  0  0  0
  7 10  1  0  0  0  0
  8 22  1  0  0  0  0
  8 17  1  0  0  0  0
  9 24  1  0  0  0  0
 11 24  1  0  0  0  0
 11 27  1  0  0  0  0
 13 27  1  0  0  0  0
 13 18  1  0  0  0  0
 14 13  1  0  0  0  0
 16  6  1  0  0  0  0
 16 30  1  0  0  0  0
 18 10  1  0  0  0  0
 18 23  1  0  0  0  0
 19 13  1  0  0  0  0
 19  7  1  0  0  0  0
 20 22  2  0  0  0  0
 21 25  1  0  0  0  0
 22 15  1  0  0  0  0
 23  2  1  0  0  0  0
 23 28  1  0  0  0  0
 24 12  1  0  0  0  0
 26 20  1  0  0  0  0
 27 18  1  0  0  0  0
 28  6  1  0  0  0  0
 29 30  2  0  0  0  0
 31  1  1  0  0  0  0
 31 32  1  0  0  0  0
M  END
>  <MODEL>
3

>  <REMARK>
 VINA RESULT:      -6.3      5.724      7.663
  Name = 
  2 active torsions:
  status: ('A' for Active; 'I' for Inactive)
    1  A    between atoms: N_2  and  C_14
    2  A    between atoms: C_18  and  C_20
                            x       y       z     vdW  Elec       q    Type
                         _______ _______ _______ _____ _____    ______ ____

>  <TORSDO>
F 2

$$$$
=
 OpenBabel11042413103D

 32 37  0  0  1  0  0  0  0  0999 V2000
  185.6280  177.4380  136.2810 N   0  0  0  0  0  0  0  0  0  0  0  0
  183.7160  179.1370  141.5000 O   0  0  0  0  0  0  0  0  0  0  0  0
  181.4770  176.9940  137.3350 C   0  0  0  0  0  2  0  0  0  0  0  0
  179.9090  177.9440  138.9020 O   0  0  0  0  0  1  0  0  0  0  0  0
  186.5950  178.3410  139.4040 C   0  0  2  0  0  3  0  0  0  0  0  0
  185.8870  178.2520  141.8070 C   0  0  1  0  0  3  0  0  0  0  0  0
  181.6170  176.5490  139.7260 N   0  0  0  0  0  2  0  0  0  0  0  0
  187.0350  177.9540  142.4680 C   0  0  2  0  0  3  0  0  0  0  0  0
  183.3870  175.1770  135.8760 C   0  0  0  0  0  1  0  0  0  0  0  0
  183.0570  176.7220  139.9440 C   0  0  0  0  0  2  0  0  0  0  0  0
  182.8640  177.3150  136.9750 N   0  0  2  0  0  0  0  0  0  0  0  0
  185.1990  176.3390  137.1380 C   0  0  0  0  0  2  0  0  0  0  0  0
  182.2070  178.6590  138.8450 C   0  0  1  0  0  0  0  0  0  0  0  0
  181.8340  180.1220  139.0550 C   0  0  0  0  0  1  0  0  0  0  0  0
  189.3930  178.6230  142.7740 O   0  0  0  0  0  1  0  0  0  0  0  0
  184.5560  178.5020  142.4460 C   0  0  1  0  0  3  0  0  0  0  0  0
  186.9780  177.5560  143.9090 C   0  0  0  0  0  1  0  0  0  0  0  0
  183.4860  178.0730  139.3640 C   0  0  1  0  0  0  0  0  0  0  0  0
  181.2330  177.5400  138.7270 C   0  0  1  0  0  0  0  0  0  0  0  0
  188.7180  178.0080  140.6360 C   0  0  0  0  0  3  0  0  0  0  0  0
  186.7960  178.0410  136.9060 C   0  0  0  0  0  2  0  0  0  0  0  0
  188.3910  178.1900  141.9120 C   0  0  0  0  0  0  0  0  0  0  0  0
  184.3170  179.0390  140.2230 C   0  0  2  0  0  3  0  0  0  0  0  0
  183.6850  176.0900  137.0550 C   0  0  2  0  0  3  0  0  0  0  0  0
  186.3940  178.9690  138.0520 C   0  0  0  0  0  2  0  0  0  0  0  0
  187.7850  177.4580  139.6200 C   0  0  0  0  0  2  0  0  0  0  0  0
  183.3120  178.4170  137.8580 C   0  0  1  0  0  3  0  0  0  0  0  0
  185.7170  178.5580  140.4010 C   0  0  2  0  0  3  0  0  0  0  0  0
  183.8380  179.2900  144.6120 N   0  0  0  0  0  2  0  0  0  0  0  0
  184.6650  179.4020  143.6410 C   0  0  0  0  0  3  0  0  0  0  0  0
  186.0920  176.8580  135.0320 C   0  0  0  0  0  2  0  0  0  0  0  0
  186.9190  175.7690  135.3020 O   0  0  0  0  0  1  0  0  0  0  0  0
  1 21  1  0  0  0  0
  1 12  1  0  0  0  0
  2 16  1  0  0  0  0
  3 19  1  0  0  0  0
  5 25  1  6  0  0  0
  5 26  1  0  0  0  0
  5 28  1  0  0  0  0
  6 16  1  0  0  0  0
  6  8  1  0  0  0  0
  7 10  1  0  0  0  0
  8 17  1  0  0  0  0
  9 24  1  0  0  0  0
 11 24  1  0  0  0  0
 11  3  1  0  0  0  0
 11 27  1  0  0  0  0
 13 14  1  0  0  0  0
 13 18  1  0  0  0  0
 16 30  1  0  0  0  0
 18 10  1  0  0  0  0
 18 23  1  0  0  0  0
 19 13  1  0  0  0  0
 19  4  1  0  0  0  0
 19  7  1  0  0  0  0
 20 22  2  0  0  0  0
 21 25  1  0  0  0  0
 22  8  1  0  0  0  0
 22 15  1  0  0  0  0
 23 28  1  0  0  0  0
 23  2  1  0  0  0  0
 24 12  1  0  0  0  0
 26 20  1  0  0  0  0
 27 13  1  0  0  0  0
 27 18  1  0  0  0  0
 28  6  1  0  0  0  0
 30 29  2  0  0  0  0
 31 32  1  0  0  0  0
 31  1  1  0  0  0  0
M  END
>  <MODEL>
4

>  <REMARK>
 VINA RESULT:      -5.8      3.751      5.808
  Name = 
  2 active torsions:
  status: ('A' for Active; 'I' for Inactive)
    1  A    between atoms: N_2  and  C_14
    2  A    between atoms: C_18  and  C_20
                            x       y       z     vdW  Elec       q    Type
                         _______ _______ _______ _____ _____    ______ ____

>  <TORSDO>
F 2

$$$$
=
 OpenBabel11042413103D

 32 37  0  0  1  0  0  0  0  0999 V2000
  187.3170  177.4780  136.9900 N   0  0  0  0  0  0  0  0  0  0  0  0
  184.3420  179.2590  141.6540 O   0  0  0  0  0  0  0  0  0  0  0  0
  183.0120  177.4030  136.9920 C   0  0  0  0  0  2  0  0  0  0  0  0
  181.1970  178.4680  138.1690 O   0  0  0  0  0  1  0  0  0  0  0  0
  187.5660  178.2350  140.2870 C   0  0  2  0  0  3  0  0  0  0  0  0
  186.2880  178.1720  142.4420 C   0  0  1  0  0  3  0  0  0  0  0  0
  182.5250  176.9070  139.3260 N   0  0  0  0  0  2  0  0  0  0  0  0
  187.2100  177.7570  143.3490 C   0  0  2  0  0  3  0  0  0  0  0  0
  185.0570  175.4410  135.9680 C   0  0  0  0  0  1  0  0  0  0  0  0
  183.8780  176.9420  139.8920 C   0  0  0  0  0  2  0  0  0  0  0  0
  184.4670  177.5990  136.9900 N   0  0  2  0  0  0  0  0  0  0  0  0
  186.5990  176.4090  137.6750 C   0  0  0  0  0  2  0  0  0  0  0  0
  183.4910  178.9670  138.6960 C   0  0  1  0  0  0  0  0  0  0  0  0
  183.2060  180.4550  138.8660 C   0  0  0  0  0  1  0  0  0  0  0  0
  189.4700  178.1990  144.2410 O   0  0  0  0  0  1  0  0  0  0  0  0
  184.8680  178.5330  142.7500 C   0  0  1  0  0  3  0  0  0  0  0  0
  186.7680  177.3420  144.7170 C   0  0  0  0  0  1  0  0  0  0  0  0
  184.5500  178.2570  139.4860 C   0  0  1  0  0  0  0  0  0  0  0  0
  182.4840  177.9460  138.3030 C   0  0  1  0  0  0  0  0  0  0  0  0
  189.2880  177.6860  141.9810 C   0  0  0  0  0  3  0  0  0  0  0  0
  188.3450  177.9590  137.9020 C   0  0  0  0  0  2  0  0  0  0  0  0
  188.6760  177.8750  143.1470 C   0  0  0  0  0  0  0  0  0  0  0  0
  185.2260  179.1270  140.5570 C   0  0  2  0  0  3  0  0  0  0  0  0
  185.1350  176.3030  137.2180 C   0  0  2  0  0  3  0  0  0  0  0  0
  187.7570  178.9010  138.9510 C   0  0  0  0  0  2  0  0  0  0  0  0
  188.5870  177.2420  140.7490 C   0  0  0  0  0  2  0  0  0  0  0  0
  184.7790  178.6400  137.9980 C   0  0  1  0  0  3  0  0  0  0  0  0
  186.4930  178.5150  141.0500 C   0  0  2  0  0  3  0  0  0  0  0  0
  183.7250  179.3280  144.7220 N   0  0  0  0  0  2  0  0  0  0  0  0
  184.7590  179.3990  143.9700 C   0  0  0  0  0  3  0  0  0  0  0  0
  188.0200  176.8780  135.8680 C   0  0  0  0  0  2  0  0  0  0  0  0
  189.3870  177.1300  135.9860 O   0  0  0  0  0  1  0  0  0  0  0  0
  1 12  1  0  0  0  0
  1 21  1  0  0  0  0
  2 16  1  0  0  0  0
  3 19  1  0  0  0  0
  4 19  1  0  0  0  0
  5 25  1  6  0  0  0
  5 26  1  0  0  0  0
  5 28  1  0  0  0  0
  6 16  1  0  0  0  0
  6  8  1  0  0  0  0
  7 10  1  0  0  0  0
  8 17  1  0  0  0  0
  9 24  1  0  0  0  0
 11  3  1  0  0  0  0
 11 24  1  0  0  0  0
 11 27  1  0  0  0  0
 13 14  1  0  0  0  0
 13 18  1  0  0  0  0
 16 30  1  0  0  0  0
 18 10  1  0  0  0  0
 18 23  1  0  0  0  0
 19 13  1  0  0  0  0
 19  7  1  0  0  0  0
 20 22  2  0  0  0  0
 21 25  1  0  0  0  0
 22  8  1  0  0  0  0
 22 15  1  0  0  0  0
 23 28  1  0  0  0  0
 23  2  1  0  0  0  0
 24 12  1  0  0  0  0
 26 20  1  0  0  0  0
 27 13  1  0  0  0  0
 27 18  1  0  0  0  0
 28  6  1  0  0  0  0
 30 29  2  0  0  0  0
 31 32  1  0  0  0  0
 31  1  1  0  0  0  0
M  END
>  <MODEL>
5

>  <REMARK>
 VINA RESULT:      -5.8      2.997      4.644
  Name = 
  2 active torsions:
  status: ('A' for Active; 'I' for Inactive)
    1  A    between atoms: N_2  and  C_14
    2  A    between atoms: C_18  and  C_20
                            x       y       z     vdW  Elec       q    Type
                         _______ _______ _______ _____ _____    ______ ____

>  <TORSDO>
F 2

$$$$
=
 OpenBabel11042413103D

 32 37  0  0  1  0  0  0  0  0999 V2000
  185.9110  178.9790  143.6180 N   0  0  0  0  0  0  0  0  0  0  0  0
  190.7290  177.5290  140.7080 O   0  0  0  0  0  0  0  0  0  0  0  0
  189.2460  177.1910  145.6720 C   0  0  0  0  0  2  0  0  0  0  0  0
  191.6200  176.9130  145.3440 O   0  0  0  0  0  1  0  0  0  0  0  0
  187.2100  178.4760  140.5250 C   0  0  2  0  0  3  0  0  0  0  0  0
  188.8960  177.1040  139.2770 C   0  0  1  0  0  3  0  0  0  0  0  0
  190.1440  175.7060  143.9630 N   0  0  0  0  0  2  0  0  0  0  0  0
  188.2580  176.7870  138.1210 C   0  0  2  0  0  3  0  0  0  0  0  0
  186.2740  176.7530  145.9010 C   0  0  0  0  0  1  0  0  0  0  0  0
  189.2910  176.0650  142.8250 C   0  0  0  0  0  2  0  0  0  0  0  0
  188.2090  177.9380  144.9510 N   0  0  2  0  0  0  0  0  0  0  0  0
  186.1410  177.5400  143.5370 C   0  0  0  0  0  2  0  0  0  0  0  0
  190.2580  178.0520  143.7180 C   0  0  1  0  0  0  0  0  0  0  0  0
  191.3190  179.1180  143.4680 C   0  0  0  0  0  1  0  0  0  0  0  0
  187.0160  177.7270  136.2050 O   0  0  0  0  0  1  0  0  0  0  0  0
  190.3010  176.7210  139.6260 C   0  0  1  0  0  3  0  0  0  0  0  0
  188.8420  175.7500  137.2130 C   0  0  0  0  0  1  0  0  0  0  0  0
  189.3190  177.5870  142.6460 C   0  0  1  0  0  0  0  0  0  0  0  0
  190.3820  176.9420  144.7010 C   0  0  1  0  0  0  0  0  0  0  0  0
  186.1370  178.0720  138.3290 C   0  0  0  0  0  3  0  0  0  0  0  0
  185.6610  179.4510  142.2630 C   0  0  0  0  0  2  0  0  0  0  0  0
  187.1040  177.5480  137.5800 C   0  0  0  0  0  0  0  0  0  0  0  0
  189.6020  178.1830  141.2590 C   0  0  2  0  0  3  0  0  0  0  0  0
  187.0810  177.0360  144.6440 C   0  0  2  0  0  3  0  0  0  0  0  0
  186.9660  179.6100  141.4830 C   0  0  0  0  0  2  0  0  0  0  0  0
  186.0430  177.8810  139.7990 C   0  0  0  0  0  2  0  0  0  0  0  0
  188.8450  178.5570  143.7640 C   0  0  1  0  0  3  0  0  0  0  0  0
  188.4520  177.9950  140.3290 C   0  0  2  0  0  3  0  0  0  0  0  0
  192.4230  176.4390  138.5100 N   0  0  0  0  0  2  0  0  0  0  0  0
  191.2470  176.9450  138.4840 C   0  0  0  0  0  3  0  0  0  0  0  0
  184.6720  179.1790  144.3500 C   0  0  0  0  0  2  0  0  0  0  0  0
  183.6500  179.5050  143.4590 O   0  0  0  0  0  1  0  0  0  0  0  0
  1 31  1  0  0  0  0
  2 23  1  0  0  0  0
  5 26  1  1  0  0  0
  5 25  1  0  0  0  0
  6 16  1  0  0  0  0
  6 28  1  0  0  0  0
  7 19  1  0  0  0  0
  8  6  1  0  0  0  0
 10  7  1  0  0  0  0
 11  3  1  0  0  0  0
 12  1  1  0  0  0  0
 12 24  1  0  0  0  0
 13 27  1  0  0  0  0
 13 19  1  0  0  0  0
 14 13  1  0  0  0  0
 15 22  1  0  0  0  0
 16  2  1  0  0  0  0
 17  8  1  0  0  0  0
 18 10  1  0  0  0  0
 18 13  1  0  0  0  0
 18 27  1  0  0  0  0
 19  4  1  0  0  0  0
 19  3  1  0  0  0  0
 20 26  1  0  0  0  0
 21  1  1  0  0  0  0
 22  8  1  0  0  0  0
 22 20  2  0  0  0  0
 23 18  1  0  0  0  0
 24 11  1  0  0  0  0
 24  9  1  0  0  0  0
 25 21  1  0  0  0  0
 27 11  1  0  0  0  0
 28  5  1  0  0  0  0
 28 23  1  0  0  0  0
 30 29  2  0  0  0  0
 30 16  1  0  0  0  0
 32 31  1  0  0  0  0
M  END
>  <MODEL>
6

>  <REMARK>
 VINA RESULT:      -5.8      2.372      7.578
  Name = 
  2 active torsions:
  status: ('A' for Active; 'I' for Inactive)
    1  A    between atoms: N_2  and  C_14
    2  A    between atoms: C_18  and  C_20
                            x       y       z     vdW  Elec       q    Type
                         _______ _______ _______ _____ _____    ______ ____

>  <TORSDO>
F 2

$$$$
=
 OpenBabel11042413103D

 32 37  0  0  1  0  0  0  0  0999 V2000
  185.7060  177.2440  137.0030 N   0  0  0  0  0  0  0  0  0  0  0  0
  180.8170  179.0640  139.5670 O   0  0  0  0  0  0  0  0  0  0  0  0
  181.8640  176.0040  135.5060 C   0  0  0  0  0  2  0  0  0  0  0  0
  179.5730  176.7530  135.5950 O   0  0  0  0  0  1  0  0  0  0  0  0
  184.4410  178.6970  139.7950 C   0  0  2  0  0  3  0  0  0  0  0  0
  182.4190  178.7310  141.2750 C   0  0  1  0  0  3  0  0  0  0  0  0
  180.5490  175.8820  137.5530 N   0  0  0  0  0  2  0  0  0  0  0  0
  182.9390  178.7780  142.5280 C   0  0  2  0  0  3  0  0  0  0  0  0
  184.4480  174.5050  135.8990 C   0  0  0  0  0  1  0  0  0  0  0  0
  181.5210  176.3980  138.5230 C   0  0  0  0  0  2  0  0  0  0  0  0
  183.1340  176.5830  135.9610 N   0  0  2  0  0  0  0  0  0  0  0  0
  184.9610  176.1830  137.6730 C   0  0  0  0  0  2  0  0  0  0  0  0
  181.3250  177.9530  136.7270 C   0  0  1  0  0  0  0  0  0  0  0  0
  180.7480  179.3090  136.3380 C   0  0  0  0  0  1  0  0  0  0  0  0
  184.5200  179.9900  143.9880 O   0  0  0  0  0  1  0  0  0  0  0  0
  180.9590  178.7480  140.9400 C   0  0  1  0  0  3  0  0  0  0  0  0
  182.0500  178.5470  143.7090 C   0  0  0  0  0  1  0  0  0  0  0  0
  182.0670  177.7350  138.0110 C   0  0  1  0  0  0  0  0  0  0  0  0
  180.7580  176.6390  136.3230 C   0  0  1  0  0  0  0  0  0  0  0  0
  185.3760  178.9950  142.0690 C   0  0  0  0  0  3  0  0  0  0  0  0
  186.1680  178.1620  138.0340 C   0  0  0  0  0  2  0  0  0  0  0  0
  184.3150  179.2460  142.8320 C   0  0  0  0  0  0  0  0  0  0  0  0
  182.0830  178.9550  138.9440 C   0  0  2  0  0  3  0  0  0  0  0  0
  183.8570  175.5920  136.7820 C   0  0  2  0  0  3  0  0  0  0  0  0
  185.0490  179.1030  138.4800 C   0  0  0  0  0  2  0  0  0  0  0  0
  185.3320  178.1350  140.8590 C   0  0  0  0  0  2  0  0  0  0  0  0
  182.8220  177.8530  136.6580 C   0  0  1  0  0  3  0  0  0  0  0  0
  183.1180  178.8250  140.0100 C   0  0  2  0  0  3  0  0  0  0  0  0
  179.9310  180.9160  141.2040 N   0  0  0  0  0  2  0  0  0  0  0  0
  180.2120  179.7820  141.7290 C   0  0  0  0  0  3  0  0  0  0  0  0
  186.8990  176.6410  136.4330 C   0  0  0  0  0  2  0  0  0  0  0  0
  186.9510  176.9110  135.0660 O   0  0  0  0  0  1  0  0  0  0  0  0
  1 12  1  0  0  0  0
  1 21  1  0  0  0  0
  2 16  1  0  0  0  0
  3 11  1  0  0  0  0
  3 19  1  0  0  0  0
  4 19  1  0  0  0  0
  5 25  1  6  0  0  0
  5 28  1  0  0  0  0
  5 26  1  0  0  0  0
  6  8  1  0  0  0  0
  7 10  1  0  0  0  0
  8 22  1  0  0  0  0
  8 17  1  0  0  0  0
  9 24  1  0  0  0  0
 11 27  1  0  0  0  0
 11 24  1  0  0  0  0
 13 18  1  0  0  0  0
 14 13  1  0  0  0  0
 16  6  1  0  0  0  0
 16 30  1  0  0  0  0
 18 10  1  0  0  0  0
 18 23  1  0  0  0  0
 19 13  1  0  0  0  0
 19  7  1  0  0  0  0
 20 22  2  0  0  0  0
 21 25  1  0  0  0  0
 22 15  1  0  0  0  0
 23  2  1  0  0  0  0
 23 28  1  0  0  0  0
 24 12  1  0  0  0  0
 26 20  1  0  0  0  0
 27 13  1  0  0  0  0
 27 18  1  0  0  0  0
 28  6  1  0  0  0  0
 29 30  2  0  0  0  0
 31  1  1  0  0  0  0
 32 31  1  0  0  0  0
M  END
>  <MODEL>
7

>  <REMARK>
 VINA RESULT:      -5.3      4.989      6.772
  Name = 
  2 active torsions:
  status: ('A' for Active; 'I' for Inactive)
    1  A    between atoms: N_2  and  C_14
    2  A    between atoms: C_18  and  C_20
                            x       y       z     vdW  Elec       q    Type
                         _______ _______ _______ _____ _____    ______ ____

>  <TORSDO>
F 2

$$$$
=
 OpenBabel11042413103D

 32 37  0  0  1  0  0  0  0  0999 V2000
  180.8940  178.8530  140.8660 N   0  0  0  0  0  0  0  0  0  0  0  0
  183.7080  176.3450  136.4420 O   0  0  0  0  0  0  0  0  0  0  0  0
  178.9310  178.2770  137.0780 C   0  0  0  0  0  2  0  0  0  0  0  0
  179.1630  176.8760  135.1280 O   0  0  0  0  0  1  0  0  0  0  0  0
  183.9510  177.9310  139.7200 C   0  0  2  0  0  3  0  0  0  0  0  0
  185.2840  177.6610  137.6150 C   0  0  1  0  0  3  0  0  0  0  0  0
  180.7800  178.5420  135.5150 N   0  0  0  0  0  2  0  0  0  0  0  0
  186.5070  178.1500  137.9450 C   0  0  2  0  0  3  0  0  0  0  0  0
  178.9310  180.5870  139.0130 C   0  0  0  0  0  1  0  0  0  0  0  0
  181.9020  178.6760  136.4520 C   0  0  0  0  0  2  0  0  0  0  0  0
  179.5960  178.3030  138.3870 N   0  0  2  0  0  0  0  0  0  0  0  0
  181.1640  179.7550  139.7520 C   0  0  0  0  0  2  0  0  0  0  0  0
  180.6850  176.6960  136.9840 C   0  0  1  0  0  0  0  0  0  0  0  0
  180.7230  175.1750  136.9010 C   0  0  0  0  0  1  0  0  0  0  0  0
  188.3370  177.9980  139.5970 O   0  0  0  0  0  1  0  0  0  0  0  0
  184.9150  177.0700  136.2890 C   0  0  1  0  0  3  0  0  0  0  0  0
  187.5180  178.4050  136.8720 C   0  0  0  0  0  1  0  0  0  0  0  0
  181.8620  177.5060  137.4400 C   0  0  1  0  0  0  0  0  0  0  0  0
  179.8630  177.5770  136.1110 C   0  0  1  0  0  0  0  0  0  0  0  0
  186.2370  178.6230  140.3740 C   0  0  0  0  0  3  0  0  0  0  0  0
  182.1800  178.4750  141.4350 C   0  0  0  0  0  2  0  0  0  0  0  0
  186.9970  178.2680  139.3420 C   0  0  0  0  0  0  0  0  0  0  0  0
  183.1330  176.6800  137.6910 C   0  0  2  0  0  3  0  0  0  0  0  0
  180.0890  179.6680  138.6570 C   0  0  2  0  0  3  0  0  0  0  0  0
  182.8570  177.3890  140.5990 C   0  0  0  0  0  2  0  0  0  0  0  0
  184.8160  179.0350  140.2430 C   0  0  0  0  0  2  0  0  0  0  0  0
  180.6470  177.2580  138.3760 C   0  0  1  0  0  3  0  0  0  0  0  0
  184.1430  177.4430  138.4800 C   0  0  2  0  0  3  0  0  0  0  0  0
  186.1260  174.9830  136.3480 N   0  0  0  0  0  2  0  0  0  0  0  0
  185.9600  176.1210  135.7840 C   0  0  0  0  0  3  0  0  0  0  0  0
  180.2100  179.6240  141.8920 C   0  0  0  0  0  2  0  0  0  0  0  0
  181.0500  179.7820  142.9940 O   0  0  0  0  0  1  0  0  0  0  0  0
  1 21  1  0  0  0  0
  1 31  1  0  0  0  0
  2 23  1  0  0  0  0
  3 11  1  0  0  0  0
  4 19  1  0  0  0  0
  5 26  1  6  0  0  0
  5 25  1  0  0  0  0
  6  8  1  0  0  0  0
  6 28  1  0  0  0  0
  7 19  1  0  0  0  0
  7 10  1  0  0  0  0
  8 22  1  0  0  0  0
 10 18  1  0  0  0  0
 11 24  1  0  0  0  0
 12  1  1  0  0  0  0
 13 18  1  0  0  0  0
 13 27  1  0  0  0  0
 14 13  1  0  0  0  0
 16  2  1  0  0  0  0
 16  6  1  0  0  0  0
 17  8  1  0  0  0  0
 18 23  1  0  0  0  0
 18 27  1  0  0  0  0
 19 13  1  0  0  0  0
 19  3  1  0  0  0  0
 22 15  1  0  0  0  0
 22 20  2  0  0  0  0
 23 28  1  0  0  0  0
 24  9  1  0  0  0  0
 24 12  1  0  0  0  0
 25 21  1  0  0  0  0
 26 20  1  0  0  0  0
 27 11  1  0  0  0  0
 28  5  1  0  0  0  0
 30 16  1  0  0  0  0
 30 29  2  0  0  0  0
 31 32  1  0  0  0  0
M  END
>  <MODEL>
8

>  <REMARK>
 VINA RESULT:      -4.9      5.481      8.943
  Name = 
  2 active torsions:
  status: ('A' for Active; 'I' for Inactive)
    1  A    between atoms: N_2  and  C_14
    2  A    between atoms: C_18  and  C_20
                            x       y       z     vdW  Elec       q    Type
                         _______ _______ _______ _____ _____    ______ ____

>  <TORSDO>
F 2

$$$$
=
 OpenBabel11042413103D

 32 37  0  0  1  0  0  0  0  0999 V2000
  179.9590  174.2360  137.5120 N   0  0  0  0  0  0  0  0  0  0  0  0
  184.3260  178.0690  137.3850 O   0  0  0  0  0  0  0  0  0  0  0  0
  179.9370  177.6560  140.1280 C   0  0  0  0  0  2  0  0  0  0  0  0
  180.9510  179.8420  140.2360 O   0  0  0  0  0  1  0  0  0  0  0  0
  183.1300  174.7570  136.4270 C   0  0  2  0  0  3  0  0  0  0  0  0
  185.2650  175.9290  137.0180 C   0  0  1  0  0  3  0  0  0  0  0  0
  182.3120  177.9520  140.5770 N   0  0  0  0  0  2  0  0  0  0  0  0
  186.2250  175.0200  136.7100 C   0  0  2  0  0  3  0  0  0  0  0  0
  179.1950  174.7710  140.5820 C   0  0  0  0  0  1  0  0  0  0  0  0
  182.8800  176.9310  139.6890 C   0  0  0  0  0  2  0  0  0  0  0  0
  179.9210  176.6000  139.1070 N   0  0  2  0  0  0  0  0  0  0  0  0
  180.7720  174.2430  138.7220 C   0  0  0  0  0  2  0  0  0  0  0  0
  181.4260  178.3330  138.4220 C   0  0  1  0  0  0  0  0  0  0  0  0
  181.3970  179.4510  137.3870 C   0  0  0  0  0  1  0  0  0  0  0  0
  187.0690  173.5370  134.9250 O   0  0  0  0  0  1  0  0  0  0  0  0
  185.5120  177.3100  137.5420 C   0  0  1  0  0  3  0  0  0  0  0  0
  187.6330  175.2470  137.1660 C   0  0  0  0  0  1  0  0  0  0  0  0
  182.3100  177.1300  138.2810 C   0  0  1  0  0  0  0  0  0  0  0  0
  181.1620  178.5100  139.8750 C   0  0  1  0  0  0  0  0  0  0  0  0
  184.8940  173.1920  135.6720 C   0  0  0  0  0  3  0  0  0  0  0  0
  180.8080  173.7680  136.4250 C   0  0  0  0  0  2  0  0  0  0  0  0
  186.0210  173.8930  135.7660 C   0  0  0  0  0  0  0  0  0  0  0  0
  183.2630  177.1880  137.0770 C   0  0  2  0  0  3  0  0  0  0  0  0
  180.3230  175.3200  139.7220 C   0  0  2  0  0  3  0  0  0  0  0  0
  181.7200  174.8840  135.9170 C   0  0  0  0  0  2  0  0  0  0  0  0
  183.7260  173.3910  136.5670 C   0  0  0  0  0  2  0  0  0  0  0  0
  180.7860  177.0460  137.9890 C   0  0  1  0  0  3  0  0  0  0  0  0
  183.8410  175.8500  136.7630 C   0  0  2  0  0  3  0  0  0  0  0  0
  187.2990  178.9230  137.3630 N   0  0  0  0  0  2  0  0  0  0  0  0
  186.6070  178.0100  136.7930 C   0  0  0  0  0  3  0  0  0  0  0  0
  178.9310  173.2230  137.6860 C   0  0  0  0  0  2  0  0  0  0  0  0
  179.4570  171.9680  137.3850 O   0  0  0  0  0  1  0  0  0  0  0  0
  1 31  1  0  0  0  0
  1 12  1  0  0  0  0
  2 16  1  0  0  0  0
  5 25  1  1  0  0  0
  5 26  1  0  0  0  0
  5 28  1  0  0  0  0
  6 16  1  0  0  0  0
  8  6  1  0  0  0  0
  8 17  1  0  0  0  0
 10  7  1  0  0  0  0
 11 24  1  0  0  0  0
 11  3  1  0  0  0  0
 12 24  1  0  0  0  0
 13 19  1  0  0  0  0
 14 13  1  0  0  0  0
 15 22  1  0  0  0  0
 18 13  1  0  0  0  0
 18 10  1  0  0  0  0
 19  3  1  0  0  0  0
 19  4  1  0  0  0  0
 19  7  1  0  0  0  0
 20 22  2  0  0  0  0
 20 26  1  0  0  0  0
 21  1  1  0  0  0  0
 22  8  1  0  0  0  0
 23  2  1  0  0  0  0
 23 18  1  0  0  0  0
 24  9  1  0  0  0  0
 25 21  1  0  0  0  0
 27 18  1  0  0  0  0
 27 13  1  0  0  0  0
 27 11  1  0  0  0  0
 28  6  1  0  0  0  0
 28 23  1  0  0  0  0
 30 29  2  0  0  0  0
 30 16  1  0  0  0  0
 32 31  1  0  0  0  0
M  END
>  <MODEL>
9

>  <REMARK>
 VINA RESULT:      -4.9      5.881      9.348
  Name = 
  2 active torsions:
  status: ('A' for Active; 'I' for Inactive)
    1  A    between atoms: N_2  and  C_14
    2  A    between atoms: C_18  and  C_20
                            x       y       z     vdW  Elec       q    Type
                         _______ _______ _______ _____ _____    ______ ____

>  <TORSDO>
F 2

$$$$
