=
 OpenBabel11032419323D

 31 33  0  0  1  0  0  0  0  0999 V2000
  188.7190  177.6560  139.8800 C   0  0  2  0  0  3  0  0  0  0  0  0
  186.6900  177.2950  145.1050 N   0  0  0  0  0  1  0  0  0  0  0  0
  187.8400  177.5990  142.3650 N   0  0  0  0  0  0  0  0  0  0  0  0
  187.7740  178.0150  141.0550 C   0  0  0  0  0  0  0  0  0  0  0  0
  186.6410  178.0970  142.7880 C   0  0  0  0  0  0  0  0  0  0  0  0
  184.7370  179.1380  141.7460 C   0  0  0  0  0  3  0  0  0  0  0  0
  186.0240  177.9440  143.9730 C   0  0  0  0  0  0  0  0  0  0  0  0
  184.7560  178.4030  144.0550 N   0  0  0  0  0  0  0  0  0  0  0  0
  185.9940  178.6810  141.7530 C   0  0  0  0  0  0  0  0  0  0  0  0
  186.7230  178.6200  140.6150 N   0  0  0  0  0  2  0  0  0  0  0  0
  184.1010  179.0090  142.9720 C   0  0  0  0  0  3  0  0  0  0  0  0
  189.8890  176.8070  140.4560 C   0  0  0  0  0  2  0  0  0  0  0  0
  192.2220  177.5200  140.2470 O   0  0  0  0  0  1  0  0  0  0  0  0
  191.1790  177.4580  141.0390 C   0  0  2  0  0  3  0  0  0  0  0  0
  191.3030  177.2250  144.9290 C   0  0  0  0  0  0  0  0  0  0  0  0
  191.4980  177.5220  142.4990 C   0  0  0  0  0  0  0  0  0  0  0  0
  191.0790  176.2170  143.5920 S   0  0  0  0  0  0  0  0  0  0  0  0
  191.5510  178.5560  144.5230 N   0  0  0  0  0  0  0  0  0  0  0  0
  191.6590  178.6850  143.1990 N   0  0  0  0  0  0  0  0  0  0  0  0
  190.5810  176.8140  146.2230 C   0  0  0  0  0  2  0  0  0  0  0  0
  191.7490  176.3340  147.2330 C   0  0  0  0  0  0  0  0  0  0  0  0
  192.4710  175.3620  146.8400 O   0  0  0  0  0  0  0  0  0  0  0  0
  192.3130  176.9860  148.3180 O   0  0  0  0  0  1  0  0  0  0  0  0
  189.1270  178.8790  139.1280 N   0  0  0  0  0  2  0  0  0  0  0  0
  189.1460  178.6820  137.5880 C   0  0  2  0  0  3  0  0  0  0  0  0
  188.1770  179.4800  137.0340 O   0  0  0  0  0  0  0  0  0  0  0  0
  187.1390  178.6470  136.7520 C   0  0  0  0  0  1  0  0  0  0  0  0
  188.7560  177.3250  136.8440 C   0  0  0  0  0  2  0  0  0  0  0  0
  189.9500  176.7930  136.1080 N   0  0  0  0  0  2  0  0  0  0  0  0
  190.8680  174.9920  137.3880 C   0  0  0  0  0  1  0  0  0  0  0  0
  191.0480  176.4670  137.0140 C   0  0  0  0  0  2  0  0  0  0  0  0
  1 12  1  1  0  0  0
  1  4  1  0  0  0  0
  3  5  1  0  0  0  0
  4  3  2  0  0  0  0
  5  7  1  0  0  0  0
  6  9  1  0  0  0  0
  6 11  2  0  0  0  0
  7  8  2  0  0  0  0
  7  2  1  0  0  0  0
  9  5  2  0  0  0  0
 10  4  1  0  0  0  0
 10  9  1  0  0  0  0
 11  8  1  0  0  0  0
 12 14  1  0  0  0  0
 14 13  1  6  0  0  0
 14 16  1  0  0  0  0
 15 20  1  0  0  0  0
 16 19  2  0  0  0  0
 16 17  1  0  0  0  0
 17 15  1  0  0  0  0
 18 15  2  0  0  0  0
 19 18  1  0  0  0  0
 20 21  1  0  0  0  0
 21 23  1  0  0  0  0
 22 21  2  0  0  0  0
 24  1  1  0  0  0  0
 25 28  1  1  0  0  0
 25 24  1  0  0  0  0
 26 25  1  0  0  0  0
 27 26  1  0  0  0  0
 29 28  1  0  0  0  0
 29 31  1  0  0  0  0
 31 30  1  0  0  0  0
M  END
>  <MODEL>
1

>  <REMARK>
 VINA RESULT:      -7.2      0.000      0.000
  Name = 
  12 active torsions:
  status: ('A' for Active; 'I' for Inactive)
    1  A    between atoms: C_4  and  C_5
    2  A    between atoms: C_5  and  C_8
    3  A    between atoms: C_6  and  C_7
    4  A    between atoms: C_6  and  C_21
    5  A    between atoms: C_10  and  N_24
    6  A    between atoms: O_11  and  C_27
    7  A    between atoms: C_15  and  C_29
    8  A    between atoms: C_16  and  N_24
    9  A    between atoms: C_16  and  C_27
   10  A    between atoms: C_21  and  C_29
   11  A    between atoms: C_27  and  N_30
   12  A    between atoms: C_29  and  N_30
                            x       y       z     vdW  Elec       q    Type
                         _______ _______ _______ _____ _____    ______ ____

>  <TORSDO>
F 12

$$$$
=
 OpenBabel11032419323D

 31 33  0  0  1  0  0  0  0  0999 V2000
  188.4500  177.0300  142.6710 C   0  0  2  0  0  3  0  0  0  0  0  0
  185.4350  178.9130  147.0200 N   0  0  0  0  0  1  0  0  0  0  0  0
  186.9730  177.7900  144.7190 N   0  0  0  0  0  0  0  0  0  0  0  0
  188.0930  177.2110  144.1680 C   0  0  0  0  0  0  0  0  0  0  0  0
  187.3800  177.8030  146.0210 C   0  0  0  0  0  0  0  0  0  0  0  0
  189.4200  177.3070  147.2000 C   0  0  0  0  0  3  0  0  0  0  0  0
  186.7840  178.3490  147.0970 C   0  0  0  0  0  0  0  0  0  0  0  0
  187.5030  178.3640  148.2400 N   0  0  0  0  0  0  0  0  0  0  0  0
  188.6360  177.3090  146.1160 C   0  0  0  0  0  0  0  0  0  0  0  0
  189.1120  176.9320  144.9080 N   0  0  0  0  0  2  0  0  0  0  0  0
  188.8030  177.8440  148.3210 C   0  0  0  0  0  3  0  0  0  0  0  0
  189.8830  176.4290  142.5960 C   0  0  0  0  0  2  0  0  0  0  0  0
  191.4110  178.3230  142.8650 O   0  0  0  0  0  1  0  0  0  0  0  0
  191.1140  177.2690  142.1420 C   0  0  2  0  0  3  0  0  0  0  0  0
  192.1390  176.6180  138.4370 C   0  0  0  0  0  0  0  0  0  0  0  0
  191.6310  177.3060  140.7390 C   0  0  0  0  0  0  0  0  0  0  0  0
  190.7630  176.5510  139.4170 S   0  0  0  0  0  0  0  0  0  0  0  0
  193.2580  177.0770  139.1680 N   0  0  0  0  0  0  0  0  0  0  0  0
  192.9500  177.4500  140.4120 N   0  0  0  0  0  0  0  0  0  0  0  0
  192.1930  175.6220  137.2670 C   0  0  0  0  0  2  0  0  0  0  0  0
  193.6980  175.0310  137.2740 C   0  0  0  0  0  0  0  0  0  0  0  0
  193.8660  173.9240  137.8780 O   0  0  0  0  0  1  0  0  0  0  0  0
  194.7830  175.3500  136.4740 O   0  0  0  0  0  0  0  0  0  0  0  0
  188.2510  178.3030  141.9160 N   0  0  0  0  0  2  0  0  0  0  0  0
  187.2860  178.1620  140.7070 C   0  0  2  0  0  3  0  0  0  0  0  0
  187.9020  178.6760  139.5940 O   0  0  0  0  0  0  0  0  0  0  0  0
  187.3350  178.0330  138.5370 C   0  0  0  0  0  1  0  0  0  0  0  0
  185.8990  178.9370  140.5600 C   0  0  0  0  0  2  0  0  0  0  0  0
  185.4240  179.3800  141.9120 N   0  0  0  0  0  2  0  0  0  0  0  0
  183.8560  179.1970  143.7090 C   0  0  0  0  0  1  0  0  0  0  0  0
  184.3420  178.5390  142.4130 C   0  0  0  0  0  2  0  0  0  0  0  0
  1 12  1  1  0  0  0
  1  4  1  0  0  0  0
  2  7  1  0  0  0  0
  3  5  1  0  0  0  0
  4  3  2  0  0  0  0
  4 10  1  0  0  0  0
  5  9  2  0  0  0  0
  5  7  1  0  0  0  0
  6 11  2  0  0  0  0
  7  8  2  0  0  0  0
  8 11  1  0  0  0  0
  9  6  1  0  0  0  0
 10  9  1  0  0  0  0
 14 12  1  0  0  0  0
 14 13  1  6  0  0  0
 15 18  2  0  0  0  0
 15 17  1  0  0  0  0
 16 14  1  0  0  0  0
 17 16  1  0  0  0  0
 18 19  1  0  0  0  0
 19 16  2  0  0  0  0
 20 21  1  0  0  0  0
 20 15  1  0  0  0  0
 21 22  1  0  0  0  0
 23 21  2  0  0  0  0
 24  1  1  0  0  0  0
 25 28  1  1  0  0  0
 25 24  1  0  0  0  0
 26 25  1  0  0  0  0
 27 26  1  0  0  0  0
 28 29  1  0  0  0  0
 29 31  1  0  0  0  0
 31 30  1  0  0  0  0
M  END
>  <MODEL>
2

>  <REMARK>
 VINA RESULT:      -7.2      2.584      5.931
  Name = 
  12 active torsions:
  status: ('A' for Active; 'I' for Inactive)
    1  A    between atoms: C_4  and  C_5
    2  A    between atoms: C_5  and  C_8
    3  A    between atoms: C_6  and  C_7
    4  A    between atoms: C_6  and  C_21
    5  A    between atoms: C_10  and  N_24
    6  A    between atoms: O_11  and  C_27
    7  A    between atoms: C_15  and  C_29
    8  A    between atoms: C_16  and  N_24
    9  A    between atoms: C_16  and  C_27
   10  A    between atoms: C_21  and  C_29
   11  A    between atoms: C_27  and  N_30
   12  A    between atoms: C_29  and  N_30
                            x       y       z     vdW  Elec       q    Type
                         _______ _______ _______ _____ _____    ______ ____

>  <TORSDO>
F 12

$$$$
=
 OpenBabel11032419323D

 31 33  0  0  1  0  0  0  0  0999 V2000
  188.2650  177.6560  141.9980 C   0  0  2  0  0  3  0  0  0  0  0  0
  191.8120  176.8360  146.2750 N   0  0  0  0  0  1  0  0  0  0  0  0
  189.9600  177.4060  144.0010 N   0  0  0  0  0  0  0  0  0  0  0  0
  188.7150  177.6710  143.4810 C   0  0  0  0  0  0  0  0  0  0  0  0
  189.6210  177.3930  145.3230 C   0  0  0  0  0  0  0  0  0  0  0  0
  187.5720  177.4870  146.5830 C   0  0  0  0  0  3  0  0  0  0  0  0
  190.3720  177.0770  146.3940 C   0  0  0  0  0  0  0  0  0  0  0  0
  189.7240  176.9790  147.5750 N   0  0  0  0  0  0  0  0  0  0  0  0
  188.2890  177.5890  145.4580 C   0  0  0  0  0  0  0  0  0  0  0  0
  187.6890  177.7590  144.2590 N   0  0  0  0  0  2  0  0  0  0  0  0
  188.3430  177.1880  147.6980 C   0  0  0  0  0  3  0  0  0  0  0  0
  189.5380  177.4870  141.1190 C   0  0  0  0  0  2  0  0  0  0  0  0
  190.5450  176.6320  139.0570 O   0  0  0  0  0  1  0  0  0  0  0  0
  189.4600  177.1270  139.6060 C   0  0  2  0  0  3  0  0  0  0  0  0
  187.2140  178.1700  136.5950 C   0  0  0  0  0  0  0  0  0  0  0  0
  188.5040  177.7550  138.6430 C   0  0  0  0  0  0  0  0  0  0  0  0
  187.5710  176.7960  137.5120 S   0  0  0  0  0  0  0  0  0  0  0  0
  187.9160  179.2960  137.0790 N   0  0  0  0  0  0  0  0  0  0  0  0
  188.6020  179.0430  138.1950 N   0  0  0  0  0  0  0  0  0  0  0  0
  186.8270  177.9300  135.1270 C   0  0  0  0  0  2  0  0  0  0  0  0
  185.4530  177.0790  135.1760 C   0  0  0  0  0  0  0  0  0  0  0  0
  185.4790  175.9340  134.6210 O   0  0  0  0  0  0  0  0  0  0  0  0
  184.3390  177.2340  135.9840 O   0  0  0  0  0  1  0  0  0  0  0  0
  187.4240  178.8490  141.6810 N   0  0  0  0  0  2  0  0  0  0  0  0
  185.9880  178.4880  141.2140 C   0  0  2  0  0  3  0  0  0  0  0  0
  185.5140  179.5100  140.4300 O   0  0  0  0  0  0  0  0  0  0  0  0
  184.7810  178.9080  139.4550 C   0  0  0  0  0  1  0  0  0  0  0  0
  184.7260  178.3600  142.1830 C   0  0  0  0  0  2  0  0  0  0  0  0
  184.7590  179.4590  143.2020 N   0  0  0  0  0  2  0  0  0  0  0  0
  184.2310  178.8100  145.4430 C   0  0  0  0  0  1  0  0  0  0  0  0
  183.6450  179.3670  144.1410 C   0  0  0  0  0  2  0  0  0  0  0  0
  1 12  1  6  0  0  0
  1  4  1  0  0  0  0
  2  7  1  0  0  0  0
  3  5  1  0  0  0  0
  4  3  2  0  0  0  0
  4 10  1  0  0  0  0
  5  9  2  0  0  0  0
  5  7  1  0  0  0  0
  6 11  2  0  0  0  0
  7  8  2  0  0  0  0
  8 11  1  0  0  0  0
  9  6  1  0  0  0  0
 10  9  1  0  0  0  0
 14 13  1  6  0  0  0
 14 12  1  0  0  0  0
 15 18  2  0  0  0  0
 15 17  1  0  0  0  0
 16 14  1  0  0  0  0
 17 16  1  0  0  0  0
 18 19  1  0  0  0  0
 19 16  2  0  0  0  0
 20 21  1  0  0  0  0
 20 15  1  0  0  0  0
 21 23  1  0  0  0  0
 22 21  2  0  0  0  0
 24  1  1  0  0  0  0
 25 24  1  0  0  0  0
 25 28  1  1  0  0  0
 26 25  1  0  0  0  0
 27 26  1  0  0  0  0
 28 29  1  0  0  0  0
 29 31  1  0  0  0  0
 31 30  1  0  0  0  0
M  END
>  <MODEL>
3

>  <REMARK>
 VINA RESULT:      -7.2      3.174      7.374
  Name = 
  12 active torsions:
  status: ('A' for Active; 'I' for Inactive)
    1  A    between atoms: C_4  and  C_5
    2  A    between atoms: C_5  and  C_8
    3  A    between atoms: C_6  and  C_7
    4  A    between atoms: C_6  and  C_21
    5  A    between atoms: C_10  and  N_24
    6  A    between atoms: O_11  and  C_27
    7  A    between atoms: C_15  and  C_29
    8  A    between atoms: C_16  and  N_24
    9  A    between atoms: C_16  and  C_27
   10  A    between atoms: C_21  and  C_29
   11  A    between atoms: C_27  and  N_30
   12  A    between atoms: C_29  and  N_30
                            x       y       z     vdW  Elec       q    Type
                         _______ _______ _______ _____ _____    ______ ____

>  <TORSDO>
F 12

$$$$
=
 OpenBabel11032419323D

 31 33  0  0  1  0  0  0  0  0999 V2000
  188.8520  177.1660  143.5780 C   0  0  2  0  0  3  0  0  0  0  0  0
  187.0630  178.5410  138.4350 N   0  0  0  0  0  1  0  0  0  0  0  0
  188.0630  177.9380  141.1850 N   0  0  0  0  0  0  0  0  0  0  0  0
  188.9940  177.4260  142.0570 C   0  0  0  0  0  0  0  0  0  0  0  0
  188.7400  177.7130  140.0220 C   0  0  0  0  0  0  0  0  0  0  0  0
  190.7640  176.5700  139.3930 C   0  0  0  0  0  3  0  0  0  0  0  0
  188.3360  177.8880  138.7500 C   0  0  0  0  0  0  0  0  0  0  0  0
  189.1560  177.4130  137.7880 N   0  0  0  0  0  0  0  0  0  0  0  0
  189.9110  177.0870  140.2840 C   0  0  0  0  0  0  0  0  0  0  0  0
  190.0770  176.8850  141.6110 N   0  0  0  0  0  2  0  0  0  0  0  0
  190.3680  176.7690  138.0780 C   0  0  0  0  0  3  0  0  0  0  0  0
  187.3840  176.7210  143.8470 C   0  0  0  0  0  2  0  0  0  0  0  0
  186.2150  177.4360  145.8760 O   0  0  0  0  0  1  0  0  0  0  0  0
  186.3620  177.6330  144.5870 C   0  0  2  0  0  3  0  0  0  0  0  0
  182.9020  179.0060  143.4270 C   0  0  0  0  0  0  0  0  0  0  0  0
  185.2030  178.3040  143.9210 C   0  0  0  0  0  0  0  0  0  0  0  0
  183.8280  178.8920  144.8360 S   0  0  0  0  0  0  0  0  0  0  0  0
  183.5970  178.4680  142.3200 N   0  0  0  0  0  0  0  0  0  0  0  0
  184.8460  178.1030  142.6170 N   0  0  0  0  0  0  0  0  0  0  0  0
  181.3760  178.9830  143.6100 C   0  0  0  0  0  2  0  0  0  0  0  0
  180.7650  178.8260  142.1210 C   0  0  0  0  0  0  0  0  0  0  0  0
  179.9900  177.8350  141.9310 O   0  0  0  0  0  1  0  0  0  0  0  0
  180.6820  179.7480  141.0910 O   0  0  0  0  0  0  0  0  0  0  0  0
  189.3160  178.3430  144.3690 N   0  0  0  0  0  2  0  0  0  0  0  0
  190.4970  178.0220  145.3260 C   0  0  2  0  0  3  0  0  0  0  0  0
  191.6030  177.7270  144.5700 O   0  0  0  0  0  0  0  0  0  0  0  0
  191.9530  178.8970  143.9700 C   0  0  0  0  0  1  0  0  0  0  0  0
  190.5570  176.7550  146.2950 C   0  0  0  0  0  2  0  0  0  0  0  0
  189.3650  176.7600  147.2050 N   0  0  0  0  0  2  0  0  0  0  0  0
  188.0040  177.9050  148.8060 C   0  0  0  0  0  1  0  0  0  0  0  0
  189.3600  177.9200  148.0920 C   0  0  0  0  0  2  0  0  0  0  0  0
  1 12  1  6  0  0  0
  1 24  1  0  0  0  0
  2  7  1  0  0  0  0
  3  4  2  0  0  0  0
  4  1  1  0  0  0  0
  5  9  1  0  0  0  0
  5  3  1  0  0  0  0
  6  9  2  0  0  0  0
  7  5  2  0  0  0  0
  8 11  2  0  0  0  0
  8  7  1  0  0  0  0
  9 10  1  0  0  0  0
 10  4  1  0  0  0  0
 11  6  1  0  0  0  0
 12 14  1  0  0  0  0
 14 13  1  1  0  0  0
 15 20  1  0  0  0  0
 15 17  1  0  0  0  0
 16 14  1  0  0  0  0
 16 17  1  0  0  0  0
 18 19  1  0  0  0  0
 18 15  2  0  0  0  0
 19 16  2  0  0  0  0
 21 20  1  0  0  0  0
 22 21  1  0  0  0  0
 23 21  2  0  0  0  0
 24 25  1  0  0  0  0
 25 28  1  6  0  0  0
 26 25  1  0  0  0  0
 27 26  1  0  0  0  0
 28 29  1  0  0  0  0
 29 31  1  0  0  0  0
 31 30  1  0  0  0  0
M  END
>  <MODEL>
4

>  <REMARK>
 VINA RESULT:      -7.1      3.543      8.222
  Name = 
  12 active torsions:
  status: ('A' for Active; 'I' for Inactive)
    1  A    between atoms: C_4  and  C_5
    2  A    between atoms: C_5  and  C_8
    3  A    between atoms: C_6  and  C_7
    4  A    between atoms: C_6  and  C_21
    5  A    between atoms: C_10  and  N_24
    6  A    between atoms: O_11  and  C_27
    7  A    between atoms: C_15  and  C_29
    8  A    between atoms: C_16  and  N_24
    9  A    between atoms: C_16  and  C_27
   10  A    between atoms: C_21  and  C_29
   11  A    between atoms: C_27  and  N_30
   12  A    between atoms: C_29  and  N_30
                            x       y       z     vdW  Elec       q    Type
                         _______ _______ _______ _____ _____    ______ ____

>  <TORSDO>
F 12

$$$$
=
 OpenBabel11032419323D

 31 33  0  0  1  0  0  0  0  0999 V2000
  185.6720  179.1510  141.3910 C   0  0  2  0  0  3  0  0  0  0  0  0
  190.6540  176.7220  142.3040 N   0  0  0  0  0  1  0  0  0  0  0  0
  187.9470  177.8880  141.8140 N   0  0  0  0  0  0  0  0  0  0  0  0
  186.9820  178.4240  140.9940 C   0  0  0  0  0  0  0  0  0  0  0  0
  188.8790  177.6030  140.8580 C   0  0  0  0  0  0  0  0  0  0  0  0
  189.1300  178.0380  138.5040 C   0  0  0  0  0  3  0  0  0  0  0  0
  190.1370  177.1480  141.0010 C   0  0  0  0  0  0  0  0  0  0  0  0
  190.8980  177.1230  139.8850 N   0  0  0  0  0  0  0  0  0  0  0  0
  188.4350  178.0090  139.6470 C   0  0  0  0  0  0  0  0  0  0  0  0
  187.2020  178.5580  139.7290 N   0  0  0  0  0  2  0  0  0  0  0  0
  190.4200  177.5460  138.6360 C   0  0  0  0  0  3  0  0  0  0  0  0
  184.8740  178.2050  142.3360 C   0  0  0  0  0  2  0  0  0  0  0  0
  183.2990  179.3820  143.7940 O   0  0  0  0  0  1  0  0  0  0  0  0
  184.3900  178.6550  143.7460 C   0  0  2  0  0  3  0  0  0  0  0  0
  186.7990  178.2050  146.7780 C   0  0  0  0  0  0  0  0  0  0  0  0
  185.2870  178.7940  144.9340 C   0  0  0  0  0  0  0  0  0  0  0  0
  186.6990  177.7770  145.1470 S   0  0  0  0  0  0  0  0  0  0  0  0
  185.6890  178.9920  147.1630 N   0  0  0  0  0  0  0  0  0  0  0  0
  184.8900  179.3010  146.1400 N   0  0  0  0  0  0  0  0  0  0  0  0
  187.5540  177.2290  147.6960 C   0  0  0  0  0  2  0  0  0  0  0  0
  189.1050  177.6780  147.6190 C   0  0  0  0  0  0  0  0  0  0  0  0
  189.4990  178.4990  148.5070 O   0  0  0  0  0  1  0  0  0  0  0  0
  190.1690  177.0930  146.9510 O   0  0  0  0  0  0  0  0  0  0  0  0
  184.9320  179.6200  140.1830 N   0  0  0  0  0  2  0  0  0  0  0  0
  183.6630  178.7800  139.8680 C   0  0  2  0  0  3  0  0  0  0  0  0
  183.5400  178.6690  138.5070 O   0  0  0  0  0  0  0  0  0  0  0  0
  184.1300  177.4860  138.1850 C   0  0  0  0  0  1  0  0  0  0  0  0
  182.1690  179.2460  140.1810 C   0  0  0  0  0  2  0  0  0  0  0  0
  181.4150  178.1210  140.8260 N   0  0  0  0  0  2  0  0  0  0  0  0
  181.1240  175.9610  139.8400 C   0  0  0  0  0  1  0  0  0  0  0  0
  180.5880  177.3970  139.8650 C   0  0  0  0  0  2  0  0  0  0  0  0
  1 12  1  6  0  0  0
  4  1  1  0  0  0  0
  4  3  2  0  0  0  0
  5  7  1  0  0  0  0
  5  3  1  0  0  0  0
  6 11  2  0  0  0  0
  6  9  1  0  0  0  0
  7  2  1  0  0  0  0
  8  7  2  0  0  0  0
  9 10  1  0  0  0  0
  9  5  2  0  0  0  0
 10  4  1  0  0  0  0
 11  8  1  0  0  0  0
 12 14  1  0  0  0  0
 14 13  1  6  0  0  0
 14 16  1  0  0  0  0
 15 18  2  0  0  0  0
 15 20  1  0  0  0  0
 16 17  1  0  0  0  0
 16 19  2  0  0  0  0
 17 15  1  0  0  0  0
 19 18  1  0  0  0  0
 21 20  1  0  0  0  0
 21 22  1  0  0  0  0
 23 21  2  0  0  0  0
 24  1  1  0  0  0  0
 25 28  1  6  0  0  0
 25 24  1  0  0  0  0
 26 25  1  0  0  0  0
 27 26  1  0  0  0  0
 28 29  1  0  0  0  0
 30 31  1  0  0  0  0
 31 29  1  0  0  0  0
M  END
>  <MODEL>
5

>  <REMARK>
 VINA RESULT:      -7.0      3.122      6.017
  Name = 
  12 active torsions:
  status: ('A' for Active; 'I' for Inactive)
    1  A    between atoms: C_4  and  C_5
    2  A    between atoms: C_5  and  C_8
    3  A    between atoms: C_6  and  C_7
    4  A    between atoms: C_6  and  C_21
    5  A    between atoms: C_10  and  N_24
    6  A    between atoms: O_11  and  C_27
    7  A    between atoms: C_15  and  C_29
    8  A    between atoms: C_16  and  N_24
    9  A    between atoms: C_16  and  C_27
   10  A    between atoms: C_21  and  C_29
   11  A    between atoms: C_27  and  N_30
   12  A    between atoms: C_29  and  N_30
                            x       y       z     vdW  Elec       q    Type
                         _______ _______ _______ _____ _____    ______ ____

>  <TORSDO>
F 12

$$$$
=
 OpenBabel11032419323D

 31 33  0  0  1  0  0  0  0  0999 V2000
  187.7720  178.1680  141.0470 C   0  0  2  0  0  3  0  0  0  0  0  0
  187.8060  177.5110  146.6250 N   0  0  0  0  0  1  0  0  0  0  0  0
  187.7420  177.7310  143.6460 N   0  0  0  0  0  0  0  0  0  0  0  0
  188.3430  177.6980  142.4090 C   0  0  0  0  0  0  0  0  0  0  0  0
  188.8250  177.3780  144.3980 C   0  0  0  0  0  0  0  0  0  0  0  0
  191.1730  177.0350  143.9930 C   0  0  0  0  0  3  0  0  0  0  0  0
  188.9560  177.3260  145.7360 C   0  0  0  0  0  0  0  0  0  0  0  0
  190.2020  177.1130  146.2110 N   0  0  0  0  0  0  0  0  0  0  0  0
  189.9080  177.2250  143.6010 C   0  0  0  0  0  0  0  0  0  0  0  0
  189.6030  177.4450  142.3030 N   0  0  0  0  0  2  0  0  0  0  0  0
  191.3140  176.9540  145.3710 C   0  0  0  0  0  3  0  0  0  0  0  0
  188.9730  178.6010  140.1560 C   0  0  0  0  0  2  0  0  0  0  0  0
  188.0430  178.9990  137.9260 O   0  0  0  0  0  1  0  0  0  0  0  0
  188.9800  178.3900  138.6130 C   0  0  2  0  0  3  0  0  0  0  0  0
  191.1810  175.4380  137.3280 C   0  0  0  0  0  0  0  0  0  0  0  0
  189.5790  177.2000  137.9330 C   0  0  0  0  0  0  0  0  0  0  0  0
  190.6180  176.0760  138.7890 S   0  0  0  0  0  0  0  0  0  0  0  0
  190.6820  176.1750  136.2300 N   0  0  0  0  0  0  0  0  0  0  0  0
  189.8100  177.1190  136.5880 N   0  0  0  0  0  0  0  0  0  0  0  0
  192.5430  174.7270  137.3730 C   0  0  0  0  0  2  0  0  0  0  0  0
  193.6120  175.8690  137.7820 C   0  0  0  0  0  0  0  0  0  0  0  0
  194.5030  175.5320  138.6260 O   0  0  0  0  0  1  0  0  0  0  0  0
  193.9300  177.0590  137.1470 O   0  0  0  0  0  0  0  0  0  0  0  0
  186.7130  179.2020  141.2370 N   0  0  0  0  0  2  0  0  0  0  0  0
  185.3300  178.7870  140.6650 C   0  0  2  0  0  3  0  0  0  0  0  0
  184.9130  179.7530  139.7850 O   0  0  0  0  0  0  0  0  0  0  0  0
  183.6640  179.3760  139.3990 C   0  0  0  0  0  1  0  0  0  0  0  0
  183.9890  178.6860  141.5240 C   0  0  0  0  0  2  0  0  0  0  0  0
  184.3120  178.2150  142.9100 N   0  0  0  0  0  2  0  0  0  0  0  0
  184.6250  179.0020  145.1480 C   0  0  0  0  0  1  0  0  0  0  0  0
  183.6950  179.0580  143.9300 C   0  0  0  0  0  2  0  0  0  0  0  0
  1 12  1  6  0  0  0
  1 24  1  0  0  0  0
  1  4  1  0  0  0  0
  3  5  1  0  0  0  0
  4  3  2  0  0  0  0
  5  7  1  0  0  0  0
  6 11  2  0  0  0  0
  7  8  2  0  0  0  0
  7  2  1  0  0  0  0
  9  6  1  0  0  0  0
  9  5  2  0  0  0  0
 10  4  1  0  0  0  0
 10  9  1  0  0  0  0
 11  8  1  0  0  0  0
 14 13  1  1  0  0  0
 14 12  1  0  0  0  0
 15 20  1  0  0  0  0
 15 17  1  0  0  0  0
 16 14  1  0  0  0  0
 16 17  1  0  0  0  0
 18 19  1  0  0  0  0
 18 15  2  0  0  0  0
 19 16  2  0  0  0  0
 20 21  1  0  0  0  0
 21 22  1  0  0  0  0
 23 21  2  0  0  0  0
 25 24  1  0  0  0  0
 25 28  1  1  0  0  0
 26 25  1  0  0  0  0
 27 26  1  0  0  0  0
 28 29  1  0  0  0  0
 29 31  1  0  0  0  0
 31 30  1  0  0  0  0
M  END
>  <MODEL>
6

>  <REMARK>
 VINA RESULT:      -7.0      3.019      6.446
  Name = 
  12 active torsions:
  status: ('A' for Active; 'I' for Inactive)
    1  A    between atoms: C_4  and  C_5
    2  A    between atoms: C_5  and  C_8
    3  A    between atoms: C_6  and  C_7
    4  A    between atoms: C_6  and  C_21
    5  A    between atoms: C_10  and  N_24
    6  A    between atoms: O_11  and  C_27
    7  A    between atoms: C_15  and  C_29
    8  A    between atoms: C_16  and  N_24
    9  A    between atoms: C_16  and  C_27
   10  A    between atoms: C_21  and  C_29
   11  A    between atoms: C_27  and  N_30
   12  A    between atoms: C_29  and  N_30
                            x       y       z     vdW  Elec       q    Type
                         _______ _______ _______ _____ _____    ______ ____

>  <TORSDO>
F 12

$$$$
=
 OpenBabel11032419323D

 31 33  0  0  1  0  0  0  0  0999 V2000
  188.1240  177.0500  144.2830 C   0  0  2  0  0  3  0  0  0  0  0  0
  187.2530  178.6150  138.9600 N   0  0  0  0  0  1  0  0  0  0  0  0
  187.7390  177.9150  141.8240 N   0  0  0  0  0  0  0  0  0  0  0  0
  188.5380  177.4670  142.8500 C   0  0  0  0  0  0  0  0  0  0  0  0
  188.6730  177.9010  140.8290 C   0  0  0  0  0  0  0  0  0  0  0  0
  190.9420  177.1320  140.5990 C   0  0  0  0  0  3  0  0  0  0  0  0
  188.5210  178.1310  139.5120 C   0  0  0  0  0  0  0  0  0  0  0  0
  189.5910  177.8740  138.7290 N   0  0  0  0  0  0  0  0  0  0  0  0
  189.8480  177.4330  141.3070 C   0  0  0  0  0  0  0  0  0  0  0  0
  189.7640  177.1360  142.6230 N   0  0  0  0  0  2  0  0  0  0  0  0
  190.8040  177.3910  139.2430 C   0  0  0  0  0  3  0  0  0  0  0  0
  186.5690  177.0690  144.3520 C   0  0  0  0  0  2  0  0  0  0  0  0
  185.8580  178.8620  145.8590 O   0  0  0  0  0  1  0  0  0  0  0  0
  185.7670  178.3710  144.6460 C   0  0  2  0  0  3  0  0  0  0  0  0
  182.1910  178.9960  143.2220 C   0  0  0  0  0  0  0  0  0  0  0  0
  184.5450  178.7910  143.8920 C   0  0  0  0  0  0  0  0  0  0  0  0
  183.0130  179.0630  144.6980 S   0  0  0  0  0  0  0  0  0  0  0  0
  183.0660  178.6330  142.1730 N   0  0  0  0  0  0  0  0  0  0  0  0
  184.3370  178.5350  142.5650 N   0  0  0  0  0  0  0  0  0  0  0  0
  180.6950  178.6500  143.2890 C   0  0  0  0  0  2  0  0  0  0  0  0
  180.1990  178.5840  141.7510 C   0  0  0  0  0  0  0  0  0  0  0  0
  180.0390  179.7010  141.1620 O   0  0  0  0  0  1  0  0  0  0  0  0
  180.2160  177.5280  140.8540 O   0  0  0  0  0  0  0  0  0  0  0  0
  188.8180  177.8860  145.3070 N   0  0  0  0  0  2  0  0  0  0  0  0
  189.1710  177.1110  146.6060 C   0  0  2  0  0  3  0  0  0  0  0  0
  188.2790  177.4700  147.5840 O   0  0  0  0  0  0  0  0  0  0  0  0
  188.9810  178.2580  148.4430 C   0  0  0  0  0  1  0  0  0  0  0  0
  190.5090  177.3200  147.4490 C   0  0  0  0  0  2  0  0  0  0  0  0
  191.6900  176.8780  146.6380 N   0  0  0  0  0  2  0  0  0  0  0  0
  192.8170  175.7410  148.4160 C   0  0  0  0  0  1  0  0  0  0  0  0
  192.1660  175.5580  147.0400 C   0  0  0  0  0  2  0  0  0  0  0  0
  1 12  1  6  0  0  0
  1 24  1  0  0  0  0
  2  7  1  0  0  0  0
  3  4  2  0  0  0  0
  4  1  1  0  0  0  0
  5  9  1  0  0  0  0
  5  3  1  0  0  0  0
  6  9  2  0  0  0  0
  7  5  2  0  0  0  0
  8 11  2  0  0  0  0
  8  7  1  0  0  0  0
  9 10  1  0  0  0  0
 10  4  1  0  0  0  0
 11  6  1  0  0  0  0
 12 14  1  0  0  0  0
 14 13  1  1  0  0  0
 15 20  1  0  0  0  0
 15 17  1  0  0  0  0
 16 14  1  0  0  0  0
 16 17  1  0  0  0  0
 18 19  1  0  0  0  0
 18 15  2  0  0  0  0
 19 16  2  0  0  0  0
 21 20  1  0  0  0  0
 22 21  1  0  0  0  0
 23 21  2  0  0  0  0
 24 25  1  0  0  0  0
 25 28  1  1  0  0  0
 25 26  1  0  0  0  0
 26 27  1  0  0  0  0
 29 31  1  0  0  0  0
 29 28  1  0  0  0  0
 31 30  1  0  0  0  0
M  END
>  <MODEL>
7

>  <REMARK>
 VINA RESULT:      -6.9      3.615      8.615
  Name = 
  12 active torsions:
  status: ('A' for Active; 'I' for Inactive)
    1  A    between atoms: C_4  and  C_5
    2  A    between atoms: C_5  and  C_8
    3  A    between atoms: C_6  and  C_7
    4  A    between atoms: C_6  and  C_21
    5  A    between atoms: C_10  and  N_24
    6  A    between atoms: O_11  and  C_27
    7  A    between atoms: C_15  and  C_29
    8  A    between atoms: C_16  and  N_24
    9  A    between atoms: C_16  and  C_27
   10  A    between atoms: C_21  and  C_29
   11  A    between atoms: C_27  and  N_30
   12  A    between atoms: C_29  and  N_30
                            x       y       z     vdW  Elec       q    Type
                         _______ _______ _______ _____ _____    ______ ____

>  <TORSDO>
F 12

$$$$
=
 OpenBabel11032419323D

 31 33  0  0  1  0  0  0  0  0999 V2000
  185.4930  179.2320  141.2230 C   0  0  2  0  0  3  0  0  0  0  0  0
  189.3340  176.9820  137.7970 N   0  0  0  0  0  1  0  0  0  0  0  0
  187.3410  178.3040  139.5880 N   0  0  0  0  0  0  0  0  0  0  0  0
  186.9000  178.7200  140.8220 C   0  0  0  0  0  0  0  0  0  0  0  0
  188.5550  177.8110  139.9700 C   0  0  0  0  0  0  0  0  0  0  0  0
  189.6800  177.4170  142.0610 C   0  0  0  0  0  3  0  0  0  0  0  0
  189.4720  177.1430  139.2460 C   0  0  0  0  0  0  0  0  0  0  0  0
  190.5110  176.6180  139.9300 N   0  0  0  0  0  0  0  0  0  0  0  0
  188.6970  177.9270  141.3100 C   0  0  0  0  0  0  0  0  0  0  0  0
  187.6150  178.5070  141.8750 N   0  0  0  0  0  2  0  0  0  0  0  0
  190.6440  176.7490  141.3200 C   0  0  0  0  0  3  0  0  0  0  0  0
  184.8180  178.1320  142.0920 C   0  0  0  0  0  2  0  0  0  0  0  0
  183.0310  179.0010  143.5220 O   0  0  0  0  0  1  0  0  0  0  0  0
  184.2150  178.4360  143.4950 C   0  0  2  0  0  3  0  0  0  0  0  0
  186.5360  178.1670  146.6170 C   0  0  0  0  0  0  0  0  0  0  0  0
  185.0310  178.6340  144.7330 C   0  0  0  0  0  0  0  0  0  0  0  0
  186.5690  177.8250  144.9620 S   0  0  0  0  0  0  0  0  0  0  0  0
  185.3060  178.7580  146.9860 N   0  0  0  0  0  0  0  0  0  0  0  0
  184.5130  179.0070  145.9420 N   0  0  0  0  0  0  0  0  0  0  0  0
  187.3890  177.2600  147.5190 C   0  0  0  0  0  2  0  0  0  0  0  0
  188.9010  177.8140  147.3800 C   0  0  0  0  0  0  0  0  0  0  0  0
  189.3850  178.3960  148.4030 O   0  0  0  0  0  1  0  0  0  0  0  0
  189.8840  177.4970  146.4560 O   0  0  0  0  0  0  0  0  0  0  0  0
  184.7180  179.6620  140.0220 N   0  0  0  0  0  2  0  0  0  0  0  0
  183.5610  178.6940  139.6520 C   0  0  2  0  0  3  0  0  0  0  0  0
  183.7730  178.2250  138.3800 O   0  0  0  0  0  0  0  0  0  0  0  0
  183.4100  176.9140  138.4130 C   0  0  0  0  0  1  0  0  0  0  0  0
  182.0380  179.1330  139.4660 C   0  0  0  0  0  2  0  0  0  0  0  0
  181.2290  178.6550  140.6350 N   0  0  0  0  0  2  0  0  0  0  0  0
  180.0550  180.6590  140.0630 C   0  0  0  0  0  1  0  0  0  0  0  0
  180.4300  179.7270  141.2200 C   0  0  0  0  0  2  0  0  0  0  0  0
  1 12  1  6  0  0  0
  2  7  1  0  0  0  0
  3  5  1  0  0  0  0
  3  4  2  0  0  0  0
  4  1  1  0  0  0  0
  4 10  1  0  0  0  0
  5  9  1  0  0  0  0
  7  8  1  0  0  0  0
  7  5  2  0  0  0  0
  8 11  2  0  0  0  0
  9 10  1  0  0  0  0
  9  6  2  0  0  0  0
 11  6  1  0  0  0  0
 12 14  1  0  0  0  0
 14 13  1  6  0  0  0
 14 16  1  0  0  0  0
 15 18  2  0  0  0  0
 15 20  1  0  0  0  0
 16 17  1  0  0  0  0
 16 19  2  0  0  0  0
 17 15  1  0  0  0  0
 19 18  1  0  0  0  0
 21 20  1  0  0  0  0
 21 22  1  0  0  0  0
 23 21  2  0  0  0  0
 24  1  1  0  0  0  0
 25 28  1  6  0  0  0
 25 24  1  0  0  0  0
 26 27  1  0  0  0  0
 26 25  1  0  0  0  0
 28 29  1  0  0  0  0
 29 31  1  0  0  0  0
 30 31  1  0  0  0  0
M  END
>  <MODEL>
8

>  <REMARK>
 VINA RESULT:      -6.9      3.154      6.386
  Name = 
  12 active torsions:
  status: ('A' for Active; 'I' for Inactive)
    1  A    between atoms: C_4  and  C_5
    2  A    between atoms: C_5  and  C_8
    3  A    between atoms: C_6  and  C_7
    4  A    between atoms: C_6  and  C_21
    5  A    between atoms: C_10  and  N_24
    6  A    between atoms: O_11  and  C_27
    7  A    between atoms: C_15  and  C_29
    8  A    between atoms: C_16  and  N_24
    9  A    between atoms: C_16  and  C_27
   10  A    between atoms: C_21  and  C_29
   11  A    between atoms: C_27  and  N_30
   12  A    between atoms: C_29  and  N_30
                            x       y       z     vdW  Elec       q    Type
                         _______ _______ _______ _____ _____    ______ ____

>  <TORSDO>
F 12

$$$$
=
 OpenBabel11032419323D

 31 33  0  0  1  0  0  0  0  0999 V2000
  187.2950  177.9910  141.1870 C   0  0  2  0  0  3  0  0  0  0  0  0
  182.4580  179.3650  143.6900 N   0  0  0  0  0  1  0  0  0  0  0  0
  184.9820  178.5060  142.3420 N   0  0  0  0  0  0  0  0  0  0  0  0
  186.2880  178.0750  142.3620 C   0  0  0  0  0  0  0  0  0  0  0  0
  184.7590  178.5150  143.6890 C   0  0  0  0  0  0  0  0  0  0  0  0
  186.0980  178.2040  145.6650 C   0  0  0  0  0  3  0  0  0  0  0  0
  183.6860  178.9510  144.3730 C   0  0  0  0  0  0  0  0  0  0  0  0
  183.8110  179.0030  145.7170 N   0  0  0  0  0  0  0  0  0  0  0  0
  185.8880  178.1600  144.3440 C   0  0  0  0  0  0  0  0  0  0  0  0
  186.8940  177.8830  143.4850 N   0  0  0  0  0  2  0  0  0  0  0  0
  184.9880  178.6280  146.3810 C   0  0  0  0  0  3  0  0  0  0  0  0
  188.6490  178.5790  141.6820 C   0  0  0  0  0  2  0  0  0  0  0  0
  190.0520  176.7740  140.8050 O   0  0  0  0  0  1  0  0  0  0  0  0
  189.9650  177.7460  141.6820 C   0  0  2  0  0  3  0  0  0  0  0  0
  191.7310  176.8440  145.0390 C   0  0  0  0  0  0  0  0  0  0  0  0
  190.8620  177.5990  142.8690 C   0  0  0  0  0  0  0  0  0  0  0  0
  191.0430  176.0680  143.7040 S   0  0  0  0  0  0  0  0  0  0  0  0
  191.6830  178.2480  144.8870 N   0  0  0  0  0  0  0  0  0  0  0  0
  191.2140  178.6280  143.6970 N   0  0  0  0  0  0  0  0  0  0  0  0
  191.6550  176.0950  146.3780 C   0  0  0  0  0  2  0  0  0  0  0  0
  190.3660  176.7040  147.1400 C   0  0  0  0  0  0  0  0  0  0  0  0
  190.6040  177.5120  148.0940 O   0  0  0  0  0  1  0  0  0  0  0  0
  189.0390  176.7530  146.7450 O   0  0  0  0  0  0  0  0  0  0  0  0
  186.7360  178.6250  139.9560 N   0  0  0  0  0  2  0  0  0  0  0  0
  187.4000  178.1240  138.6450 C   0  0  2  0  0  3  0  0  0  0  0  0
  188.3910  179.0040  138.2920 O   0  0  0  0  0  0  0  0  0  0  0  0
  189.3190  178.2590  137.6330 C   0  0  0  0  0  1  0  0  0  0  0  0
  186.6660  178.0510  137.2290 C   0  0  0  0  0  2  0  0  0  0  0  0
  185.6530  176.9440  137.2430 N   0  0  0  0  0  2  0  0  0  0  0  0
  183.4740  177.1610  136.2800 C   0  0  0  0  0  1  0  0  0  0  0  0
  184.3100  177.4370  137.5340 C   0  0  0  0  0  2  0  0  0  0  0  0
  1 12  1  1  0  0  0
  1  4  1  0  0  0  0
  2  7  1  0  0  0  0
  3  4  2  0  0  0  0
  3  5  1  0  0  0  0
  4 10  1  0  0  0  0
  5  9  2  0  0  0  0
  5  7  1  0  0  0  0
  6 11  2  0  0  0  0
  7  8  2  0  0  0  0
  8 11  1  0  0  0  0
  9  6  1  0  0  0  0
 10  9  1  0  0  0  0
 12 14  1  0  0  0  0
 14 13  1  1  0  0  0
 14 16  1  0  0  0  0
 15 20  1  0  0  0  0
 16 19  2  0  0  0  0
 16 17  1  0  0  0  0
 17 15  1  0  0  0  0
 18 15  2  0  0  0  0
 19 18  1  0  0  0  0
 20 21  1  0  0  0  0
 21 22  1  0  0  0  0
 23 21  2  0  0  0  0
 24  1  1  0  0  0  0
 25 28  1  6  0  0  0
 25 24  1  0  0  0  0
 26 25  1  0  0  0  0
 27 26  1  0  0  0  0
 28 29  1  0  0  0  0
 29 31  1  0  0  0  0
 30 31  1  0  0  0  0
M  END
>  <MODEL>
9

>  <REMARK>
 VINA RESULT:      -6.9      1.856      3.085
  Name = 
  12 active torsions:
  status: ('A' for Active; 'I' for Inactive)
    1  A    between atoms: C_4  and  C_5
    2  A    between atoms: C_5  and  C_8
    3  A    between atoms: C_6  and  C_7
    4  A    between atoms: C_6  and  C_21
    5  A    between atoms: C_10  and  N_24
    6  A    between atoms: O_11  and  C_27
    7  A    between atoms: C_15  and  C_29
    8  A    between atoms: C_16  and  N_24
    9  A    between atoms: C_16  and  C_27
   10  A    between atoms: C_21  and  C_29
   11  A    between atoms: C_27  and  N_30
   12  A    between atoms: C_29  and  N_30
                            x       y       z     vdW  Elec       q    Type
                         _______ _______ _______ _____ _____    ______ ____

>  <TORSDO>
F 12

$$$$
