=
 OpenBabel11032419353D

 49 55  0  0  1  0  0  0  0  0999 V2000
  185.4280  175.3850  135.9770 N   0  0  0  0  0  0  0  0  0  0  0  0
  186.4090  175.7200  135.1970 C   0  0  0  0  0  3  0  0  0  0  0  0
  191.0330  176.6240  139.5170 C   0  0  0  0  0  1  0  0  0  0  0  0
  188.6320  177.1710  139.0120 C   0  0  0  0  0  0  0  0  0  0  0  0
  186.7980  176.8080  137.2270 C   0  0  0  0  0  0  0  0  0  0  0  0
  185.5520  175.9810  137.3110 C   0  0  1  0  0  3  0  0  0  0  0  0
  188.4780  176.9960  135.4370 N   0  0  0  0  0  0  0  0  0  0  0  0
  187.6310  176.9720  138.2090 C   0  0  0  0  0  0  0  0  0  0  0  0
  189.9800  176.8970  138.5270 N   0  0  0  0  0  0  0  0  0  0  0  0
  189.4240  177.8370  136.1850 C   0  0  0  0  0  2  0  0  0  0  0  0
  187.3200  176.6020  135.8920 C   0  0  0  0  0  0  0  0  0  0  0  0
  190.3980  177.0230  137.0940 C   0  0  2  0  0  3  0  0  0  0  0  0
  182.1940  178.4640  138.3280 C   0  0  0  0  0  0  0  0  0  0  0  0
  182.7820  174.5450  137.3860 S   0  0  0  0  0  1  0  0  0  0  0  0
  184.5240  178.1940  137.9470 C   0  0  0  0  0  3  0  0  0  0  0  0
  181.9810  177.1010  138.0700 C   0  0  0  0  0  0  0  0  0  0  0  0
  183.0640  176.2860  137.7170 C   0  0  0  0  0  0  0  0  0  0  0  0
  180.7400  176.5650  138.1860 F   0  0  0  0  0  0  0  0  0  0  0  0
  184.3570  176.8380  137.6390 C   0  0  0  0  0  0  0  0  0  0  0  0
  183.4580  178.9640  138.2790 N   0  0  0  0  0  0  0  0  0  0  0  0
  181.4320  180.8080  138.5220 C   0  0  0  0  0  2  0  0  0  0  0  0
  181.0690  179.3540  138.7790 C   0  0  0  0  0  3  0  0  0  0  0  0
  180.4670  180.1050  137.6010 C   0  0  0  0  0  2  0  0  0  0  0  0
  193.0260  175.0400  137.1420 C   0  0  0  0  0  0  0  0  0  0  0  0
  190.8660  175.7420  136.5030 N   0  0  0  0  0  0  0  0  0  0  0  0
  194.6990  174.1790  136.1640 N   0  0  0  0  0  0  0  0  0  0  0  0
  191.6080  174.9840  137.5350 C   0  0  0  0  0  2  0  0  0  0  0  0
  193.9770  174.0960  137.2780 N   0  0  0  0  0  0  0  0  0  0  0  0
  193.1640  175.6240  135.9580 C   0  0  0  0  0  0  0  0  0  0  0  0
  194.1930  175.0520  135.3000 N   0  0  0  0  0  0  0  0  0  0  0  0
  191.8500  176.0130  135.4210 C   0  0  0  0  0  2  0  0  0  0  0  0
  195.9310  173.4170  135.9590 C   0  0  0  0  0  2  0  0  0  0  0  0
  197.1940  174.2810  136.0470 C   0  0  0  0  0  2  0  0  0  0  0  0
  197.7450  174.5020  138.1870 C   0  0  0  0  0  1  0  0  0  0  0  0
  197.1180  175.1580  137.1310 O   0  0  0  0  0  0  0  0  0  0  0  0
  187.3130  178.6270  140.3560 O   0  0  0  0  0  0  0  0  0  0  0  0
  188.4230  178.0520  140.1770 C   0  0  0  0  0  0  0  0  0  0  0  0
  189.4680  178.2490  141.0820 O   0  0  0  0  0  0  0  0  0  0  0  0
  189.2230  177.4950  145.2150 C   0  0  0  0  0  0  0  0  0  0  0  0
  190.1830  178.7030  143.3380 C   0  0  0  0  0  3  0  0  0  0  0  0
  190.1140  178.4550  144.7120 C   0  0  0  0  0  3  0  0  0  0  0  0
  188.5070  176.9940  142.9620 C   0  0  0  0  0  3  0  0  0  0  0  0
  189.3680  177.9870  142.4530 C   0  0  0  0  0  0  0  0  0  0  0  0
  188.4310  176.7560  144.3330 C   0  0  0  0  0  3  0  0  0  0  0  0
  189.0820  177.2670  146.6670 C   0  0  0  0  0  0  0  0  0  0  0  0
  187.9250  177.7010  148.8700 C   0  0  0  0  0  1  0  0  0  0  0  0
  187.9860  177.8600  147.4200 N   0  0  0  0  0  0  0  0  0  0  0  0
  186.7700  178.2910  146.7550 C   0  0  0  0  0  1  0  0  0  0  0  0
  189.9250  176.5050  147.2470 O   0  0  0  0  0  0  0  0  0  0  0  0
  1  6  1  0  0  0  0
  2 11  1  0  0  0  0
  2  1  2  0  0  0  0
  4 37  1  0  0  0  0
  5  6  1  0  0  0  0
  5  8  2  0  0  0  0
  6 19  1  6  0  0  0
  7 11  2  0  0  0  0
  7 10  1  0  0  0  0
  8  4  2  0  0  0  0
  9  4  1  0  0  0  0
  9  3  1  0  0  0  0
 11  5  1  0  0  0  0
 12 10  1  6  0  0  0
 12  9  1  0  0  0  0
 13 22  1  0  0  0  0
 14 17  1  0  0  0  0
 15 20  2  0  0  0  0
 16 18  1  0  0  0  0
 16 13  2  0  0  0  0
 17 16  1  0  0  0  0
 19 17  2  0  0  0  0
 19 15  1  0  0  0  0
 20 13  1  0  0  0  0
 21 22  1  0  0  0  0
 23 21  1  0  0  0  0
 23 22  1  0  0  0  0
 24 28  2  0  0  0  0
 24 27  1  0  0  0  0
 25 12  1  0  0  0  0
 25 27  1  0  0  0  0
 26 28  1  0  0  0  0
 29 24  1  0  0  0  0
 30 29  2  0  0  0  0
 30 26  1  0  0  0  0
 31 29  1  0  0  0  0
 31 25  1  0  0  0  0
 32 33  1  0  0  0  0
 32 26  1  0  0  0  0
 33 35  1  0  0  0  0
 35 34  1  0  0  0  0
 37 36  2  0  0  0  0
 37 38  1  0  0  0  0
 38 43  1  0  0  0  0
 39 45  1  0  0  0  0
 40 41  2  0  0  0  0
 41 39  1  0  0  0  0
 42 44  1  0  0  0  0
 43 42  2  0  0  0  0
 43 40  1  0  0  0  0
 44 39  2  0  0  0  0
 45 49  2  0  0  0  0
 45 47  1  0  0  0  0
 47 46  1  0  0  0  0
 48 47  1  0  0  0  0
M  END
>  <MODEL>
1

>  <REMARK>
 VINA RESULT:      -8.3      0.000      0.000
  Name = 
  10 active torsions:
  status: ('A' for Active; 'I' for Inactive)
    1  A    between atoms: C_1  and  C_7
    2  A    between atoms: C_2  and  C_10
    3  A    between atoms: N_5  and  C_47
    4  A    between atoms: C_11  and  C_18
    5  A    between atoms: C_11  and  O_29
    6  A    between atoms: O_12  and  C_32
    7  A    between atoms: O_12  and  C_42
    8  A    between atoms: N_14  and  C_18
    9  A    between atoms: C_16  and  C_42
   10  A    between atoms: C_22  and  C_39
                            x       y       z     vdW  Elec       q    Type
                         _______ _______ _______ _____ _____    ______ ____

>  <TORSDO>
F 10

$$$$
=
 OpenBabel11032419353D

 49 55  0  0  1  0  0  0  0  0999 V2000
  186.4990  173.9320  135.9460 N   0  0  0  0  0  0  0  0  0  0  0  0
  187.5050  174.2530  135.1940 C   0  0  0  0  0  3  0  0  0  0  0  0
  191.3030  177.0420  139.5140 C   0  0  0  0  0  1  0  0  0  0  0  0
  188.9320  176.9780  138.6780 C   0  0  0  0  0  0  0  0  0  0  0  0
  187.4370  175.8500  136.8980 C   0  0  0  0  0  0  0  0  0  0  0  0
  186.3440  174.8430  137.0850 C   0  0  1  0  0  3  0  0  0  0  0  0
  189.2850  175.9240  135.2730 N   0  0  0  0  0  0  0  0  0  0  0  0
  188.0930  176.4030  137.8710 C   0  0  0  0  0  0  0  0  0  0  0  0
  190.3600  176.8610  138.4000 N   0  0  0  0  0  0  0  0  0  0  0  0
  189.9720  177.0870  135.8550 C   0  0  0  0  0  2  0  0  0  0  0  0
  188.1570  175.4350  135.7120 C   0  0  0  0  0  0  0  0  0  0  0  0
  190.9370  176.7180  137.0260 C   0  0  2  0  0  3  0  0  0  0  0  0
  182.5180  176.8000  137.1280 C   0  0  0  0  0  0  0  0  0  0  0  0
  183.8640  172.9580  137.2780 S   0  0  0  0  0  1  0  0  0  0  0  0
  184.8900  176.9020  137.0390 C   0  0  0  0  0  3  0  0  0  0  0  0
  182.5690  175.4000  137.2100 C   0  0  0  0  0  0  0  0  0  0  0  0
  183.8080  174.7490  137.1760 C   0  0  0  0  0  0  0  0  0  0  0  0
  181.4280  174.6770  137.3480 F   0  0  0  0  0  0  0  0  0  0  0  0
  184.9910  175.5060  137.0740 C   0  0  0  0  0  0  0  0  0  0  0  0
  183.6770  177.5090  137.0650 N   0  0  0  0  0  0  0  0  0  0  0  0
  181.2380  178.7580  136.3270 C   0  0  0  0  0  2  0  0  0  0  0  0
  181.2110  177.5370  137.2330 C   0  0  0  0  0  3  0  0  0  0  0  0
  180.4750  177.5280  135.9020 C   0  0  0  0  0  2  0  0  0  0  0  0
  193.9760  175.5030  137.3910 C   0  0  0  0  0  0  0  0  0  0  0  0
  191.6840  175.4480  136.8300 N   0  0  0  0  0  0  0  0  0  0  0  0
  195.7690  174.7480  136.5480 N   0  0  0  0  0  0  0  0  0  0  0  0
  192.6340  175.2760  137.9530 C   0  0  0  0  0  2  0  0  0  0  0  0
  195.1360  174.8980  137.7090 N   0  0  0  0  0  0  0  0  0  0  0  0
  193.9150  175.6570  136.0740 C   0  0  0  0  0  0  0  0  0  0  0  0
  195.0260  175.1340  135.5160 N   0  0  0  0  0  0  0  0  0  0  0  0
  192.5250  175.5370  135.6060 C   0  0  0  0  0  2  0  0  0  0  0  0
  197.1420  174.2530  136.4510 C   0  0  0  0  0  2  0  0  0  0  0  0
  197.7690  173.9480  137.8160 C   0  0  0  0  0  2  0  0  0  0  0  0
  198.3700  175.2450  139.5160 C   0  0  0  0  0  1  0  0  0  0  0  0
  198.6610  174.9580  138.1850 O   0  0  0  0  0  0  0  0  0  0  0  0
  188.7020  179.2630  139.3050 O   0  0  0  0  0  0  0  0  0  0  0  0
  188.4290  178.0550  139.5520 C   0  0  0  0  0  0  0  0  0  0  0  0
  187.6480  177.7260  140.6630 O   0  0  0  0  0  0  0  0  0  0  0  0
  189.2050  177.5500  144.5680 C   0  0  0  0  0  0  0  0  0  0  0  0
  189.4050  178.2110  142.2390 C   0  0  0  0  0  3  0  0  0  0  0  0
  189.9340  178.1510  143.5320 C   0  0  0  0  0  3  0  0  0  0  0  0
  187.4390  177.0210  143.0060 C   0  0  0  0  0  3  0  0  0  0  0  0
  188.1450  177.6620  141.9690 C   0  0  0  0  0  0  0  0  0  0  0  0
  187.9630  176.9720  144.2960 C   0  0  0  0  0  3  0  0  0  0  0  0
  189.7120  177.5390  145.9550 C   0  0  0  0  0  0  0  0  0  0  0  0
  191.3070  176.6860  147.7180 C   0  0  0  0  0  1  0  0  0  0  0  0
  190.8850  176.7590  146.3220 N   0  0  0  0  0  0  0  0  0  0  0  0
  191.8530  176.3500  145.3210 C   0  0  0  0  0  1  0  0  0  0  0  0
  189.1190  178.2600  146.8250 O   0  0  0  0  0  0  0  0  0  0  0  0
  1  6  1  0  0  0  0
  2 11  1  0  0  0  0
  2  1  2  0  0  0  0
  4 37  1  0  0  0  0
  5  6  1  0  0  0  0
  5  8  2  0  0  0  0
  6 19  1  6  0  0  0
  7 11  2  0  0  0  0
  7 10  1  0  0  0  0
  8  4  2  0  0  0  0
  9  4  1  0  0  0  0
  9  3  1  0  0  0  0
 11  5  1  0  0  0  0
 12 10  1  6  0  0  0
 12  9  1  0  0  0  0
 13 16  1  0  0  0  0
 13 22  1  0  0  0  0
 15 20  1  0  0  0  0
 15 19  2  0  0  0  0
 16 18  1  0  0  0  0
 17 16  2  0  0  0  0
 17 14  1  0  0  0  0
 19 17  1  0  0  0  0
 20 13  2  0  0  0  0
 21 22  1  0  0  0  0
 23 21  1  0  0  0  0
 23 22  1  0  0  0  0
 24 28  2  0  0  0  0
 24 27  1  0  0  0  0
 25 12  1  0  0  0  0
 25 27  1  0  0  0  0
 26 28  1  0  0  0  0
 29 24  1  0  0  0  0
 30 29  2  0  0  0  0
 30 26  1  0  0  0  0
 31 29  1  0  0  0  0
 31 25  1  0  0  0  0
 32 26  1  0  0  0  0
 32 33  1  0  0  0  0
 33 35  1  0  0  0  0
 35 34  1  0  0  0  0
 36 37  2  0  0  0  0
 37 38  1  0  0  0  0
 38 43  1  0  0  0  0
 39 45  1  0  0  0  0
 40 41  1  0  0  0  0
 41 39  2  0  0  0  0
 42 44  2  0  0  0  0
 43 40  2  0  0  0  0
 43 42  1  0  0  0  0
 44 39  1  0  0  0  0
 45 47  1  0  0  0  0
 45 49  2  0  0  0  0
 47 46  1  0  0  0  0
 48 47  1  0  0  0  0
M  END
>  <MODEL>
2

>  <REMARK>
 VINA RESULT:      -8.2      1.532      1.846
  Name = 
  10 active torsions:
  status: ('A' for Active; 'I' for Inactive)
    1  A    between atoms: C_1  and  C_7
    2  A    between atoms: C_2  and  C_10
    3  A    between atoms: N_5  and  C_47
    4  A    between atoms: C_11  and  C_18
    5  A    between atoms: C_11  and  O_29
    6  A    between atoms: O_12  and  C_32
    7  A    between atoms: O_12  and  C_42
    8  A    between atoms: N_14  and  C_18
    9  A    between atoms: C_16  and  C_42
   10  A    between atoms: C_22  and  C_39
                            x       y       z     vdW  Elec       q    Type
                         _______ _______ _______ _____ _____    ______ ____

>  <TORSDO>
F 10

$$$$
=
 OpenBabel11032419353D

 49 55  0  0  1  0  0  0  0  0999 V2000
  187.0430  173.6490  135.8410 N   0  0  0  0  0  0  0  0  0  0  0  0
  187.9730  173.9430  134.9870 C   0  0  0  0  0  3  0  0  0  0  0  0
  192.2470  176.6860  138.8690 C   0  0  0  0  0  1  0  0  0  0  0  0
  189.8030  176.6650  138.2790 C   0  0  0  0  0  0  0  0  0  0  0  0
  188.1110  175.5550  136.6720 C   0  0  0  0  0  0  0  0  0  0  0  0
  187.0240  174.5730  136.9790 C   0  0  1  0  0  3  0  0  0  0  0  0
  189.7850  175.5770  134.8660 N   0  0  0  0  0  0  0  0  0  0  0  0
  188.8750  176.1010  137.5670 C   0  0  0  0  0  0  0  0  0  0  0  0
  191.1930  176.5160  137.8580 N   0  0  0  0  0  0  0  0  0  0  0  0
  190.5510  176.7290  135.3640 C   0  0  0  0  0  2  0  0  0  0  0  0
  188.6990  175.1150  135.4230 C   0  0  0  0  0  0  0  0  0  0  0  0
  191.6240  176.3500  136.4340 C   0  0  2  0  0  3  0  0  0  0  0  0
  183.2630  176.6130  137.3880 C   0  0  0  0  0  0  0  0  0  0  0  0
  184.5560  172.7540  137.5680 S   0  0  0  0  0  1  0  0  0  0  0  0
  185.6080  176.6590  137.0060 C   0  0  0  0  0  3  0  0  0  0  0  0
  183.3020  175.2170  137.5340 C   0  0  0  0  0  0  0  0  0  0  0  0
  184.5170  174.5390  137.3830 C   0  0  0  0  0  0  0  0  0  0  0  0
  182.1750  174.5280  137.8460 F   0  0  0  0  0  0  0  0  0  0  0  0
  185.6900  175.2640  137.1000 C   0  0  0  0  0  0  0  0  0  0  0  0
  184.4170  177.2920  137.1490 N   0  0  0  0  0  0  0  0  0  0  0  0
  182.3030  178.8660  137.7250 C   0  0  0  0  0  2  0  0  0  0  0  0
  181.9910  177.3830  137.6130 C   0  0  0  0  0  3  0  0  0  0  0  0
  181.7120  178.3210  136.4490 C   0  0  0  0  0  2  0  0  0  0  0  0
  194.1640  174.5920  137.5730 C   0  0  0  0  0  0  0  0  0  0  0  0
  192.3210  175.0620  136.1760 N   0  0  0  0  0  0  0  0  0  0  0  0
  196.1070  173.7830  137.3100 N   0  0  0  0  0  0  0  0  0  0  0  0
  192.7020  174.4590  137.4740 C   0  0  0  0  0  2  0  0  0  0  0  0
  195.0530  173.7420  138.1210 N   0  0  0  0  0  0  0  0  0  0  0  0
  194.6700  175.0780  136.4460 C   0  0  0  0  0  0  0  0  0  0  0  0
  195.8860  174.5340  136.2360 N   0  0  0  0  0  0  0  0  0  0  0  0
  193.6020  175.3140  135.4620 C   0  0  0  0  0  2  0  0  0  0  0  0
  197.3680  173.1060  137.6120 C   0  0  0  0  0  2  0  0  0  0  0  0
  197.6960  171.9790  136.6280 C   0  0  0  0  0  2  0  0  0  0  0  0
  196.7750  170.1390  137.4660 C   0  0  0  0  0  1  0  0  0  0  0  0
  197.9930  170.7970  137.3110 O   0  0  0  0  0  0  0  0  0  0  0  0
  189.1360  178.9050  138.7330 O   0  0  0  0  0  0  0  0  0  0  0  0
  189.4130  177.7600  139.1890 C   0  0  0  0  0  0  0  0  0  0  0  0
  189.3570  177.5200  140.5630 O   0  0  0  0  0  0  0  0  0  0  0  0
  185.9310  178.2920  142.8820 C   0  0  0  0  0  0  0  0  0  0  0  0
  187.2680  178.6760  140.8900 C   0  0  0  0  0  3  0  0  0  0  0  0
  186.1300  178.9450  141.6570 C   0  0  0  0  0  3  0  0  0  0  0  0
  188.0370  177.1400  142.5990 C   0  0  0  0  0  3  0  0  0  0  0  0
  188.2230  177.7590  141.3470 C   0  0  0  0  0  0  0  0  0  0  0  0
  186.8970  177.4000  143.3570 C   0  0  0  0  0  3  0  0  0  0  0  0
  184.7040  178.5060  143.6730 C   0  0  0  0  0  0  0  0  0  0  0  0
  182.2360  179.0210  143.8280 C   0  0  0  0  0  1  0  0  0  0  0  0
  183.4160  178.7130  143.0260 N   0  0  0  0  0  0  0  0  0  0  0  0
  183.1870  178.2740  141.6620 C   0  0  0  0  0  1  0  0  0  0  0  0
  184.7870  178.4700  144.9470 O   0  0  0  0  0  0  0  0  0  0  0  0
  1  6  1  0  0  0  0
  2 11  1  0  0  0  0
  2  1  2  0  0  0  0
  4 37  1  0  0  0  0
  5  6  1  0  0  0  0
  5  8  2  0  0  0  0
  6 19  1  6  0  0  0
  7 10  1  0  0  0  0
  7 11  2  0  0  0  0
  8  4  2  0  0  0  0
  9  4  1  0  0  0  0
  9  3  1  0  0  0  0
 11  5  1  0  0  0  0
 12 10  1  6  0  0  0
 12  9  1  0  0  0  0
 13 16  1  0  0  0  0
 13 22  1  0  0  0  0
 15 19  2  0  0  0  0
 15 20  1  0  0  0  0
 16 18  1  0  0  0  0
 17 16  2  0  0  0  0
 17 14  1  0  0  0  0
 19 17  1  0  0  0  0
 20 13  2  0  0  0  0
 22 21  1  0  0  0  0
 23 22  1  0  0  0  0
 23 21  1  0  0  0  0
 24 28  2  0  0  0  0
 25 12  1  0  0  0  0
 25 27  1  0  0  0  0
 26 32  1  0  0  0  0
 26 28  1  0  0  0  0
 27 24  1  0  0  0  0
 29 24  1  0  0  0  0
 30 29  2  0  0  0  0
 30 26  1  0  0  0  0
 31 25  1  0  0  0  0
 31 29  1  0  0  0  0
 33 35  1  0  0  0  0
 33 32  1  0  0  0  0
 35 34  1  0  0  0  0
 36 37  2  0  0  0  0
 37 38  1  0  0  0  0
 38 43  1  0  0  0  0
 39 44  1  0  0  0  0
 39 45  1  0  0  0  0
 40 43  2  0  0  0  0
 40 41  1  0  0  0  0
 41 39  2  0  0  0  0
 42 44  2  0  0  0  0
 43 42  1  0  0  0  0
 45 49  2  0  0  0  0
 47 45  1  0  0  0  0
 47 46  1  0  0  0  0
 48 47  1  0  0  0  0
M  END
>  <MODEL>
3

>  <REMARK>
 VINA RESULT:      -7.5      2.431      3.037
  Name = 
  10 active torsions:
  status: ('A' for Active; 'I' for Inactive)
    1  A    between atoms: C_1  and  C_7
    2  A    between atoms: C_2  and  C_10
    3  A    between atoms: N_5  and  C_47
    4  A    between atoms: C_11  and  C_18
    5  A    between atoms: C_11  and  O_29
    6  A    between atoms: O_12  and  C_32
    7  A    between atoms: O_12  and  C_42
    8  A    between atoms: N_14  and  C_18
    9  A    between atoms: C_16  and  C_42
   10  A    between atoms: C_22  and  C_39
                            x       y       z     vdW  Elec       q    Type
                         _______ _______ _______ _____ _____    ______ ____

>  <TORSDO>
F 10

$$$$
=
 OpenBabel11032419353D

 49 55  0  0  1  0  0  0  0  0999 V2000
  186.9750  173.6370  135.5500 N   0  0  0  0  0  0  0  0  0  0  0  0
  187.8530  173.9800  134.6610 C   0  0  0  0  0  3  0  0  0  0  0  0
  192.6630  175.7950  138.4600 C   0  0  0  0  0  1  0  0  0  0  0  0
  190.1860  176.0470  138.1070 C   0  0  0  0  0  0  0  0  0  0  0  0
  188.2740  175.3150  136.5310 C   0  0  0  0  0  0  0  0  0  0  0  0
  187.1330  174.3850  136.8020 C   0  0  1  0  0  3  0  0  0  0  0  0
  189.7880  175.4700  134.5950 N   0  0  0  0  0  0  0  0  0  0  0  0
  189.1560  175.6650  137.4160 C   0  0  0  0  0  0  0  0  0  0  0  0
  191.5170  175.8550  137.5400 N   0  0  0  0  0  0  0  0  0  0  0  0
  190.6920  176.4760  135.1710 C   0  0  0  0  0  2  0  0  0  0  0  0
  188.7150  175.0170  135.1840 C   0  0  0  0  0  0  0  0  0  0  0  0
  191.8120  175.8650  136.0720 C   0  0  2  0  0  3  0  0  0  0  0  0
  183.6170  176.6300  137.8390 C   0  0  0  0  0  0  0  0  0  0  0  0
  184.6030  172.6930  137.4930 S   0  0  0  0  0  1  0  0  0  0  0  0
  185.9030  176.5510  137.1950 C   0  0  0  0  0  3  0  0  0  0  0  0
  183.5570  175.2270  137.8440 C   0  0  0  0  0  0  0  0  0  0  0  0
  184.6900  174.4850  137.4870 C   0  0  0  0  0  0  0  0  0  0  0  0
  182.4180  174.5900  138.2160 F   0  0  0  0  0  0  0  0  0  0  0  0
  185.8810  175.1520  137.1420 C   0  0  0  0  0  0  0  0  0  0  0  0
  184.7900  177.2480  137.5360 N   0  0  0  0  0  0  0  0  0  0  0  0
  182.7730  178.9350  138.1290 C   0  0  0  0  0  2  0  0  0  0  0  0
  182.4440  177.4590  138.2840 C   0  0  0  0  0  3  0  0  0  0  0  0
  181.8750  178.2600  137.1230 C   0  0  0  0  0  2  0  0  0  0  0  0
  193.9460  173.5270  136.9790 C   0  0  0  0  0  0  0  0  0  0  0  0
  192.3670  174.5780  135.5750 N   0  0  0  0  0  0  0  0  0  0  0  0
  195.7880  172.5130  136.7070 N   0  0  0  0  0  0  0  0  0  0  0  0
  192.5030  173.6450  136.7160 C   0  0  0  0  0  2  0  0  0  0  0  0
  194.6440  172.4490  137.3840 N   0  0  0  0  0  0  0  0  0  0  0  0
  194.6470  174.1740  136.0550 C   0  0  0  0  0  0  0  0  0  0  0  0
  195.8010  173.5130  135.8320 N   0  0  0  0  0  0  0  0  0  0  0  0
  193.7490  174.7870  135.0640 C   0  0  0  0  0  2  0  0  0  0  0  0
  196.9050  171.6000  136.9510 C   0  0  0  0  0  2  0  0  0  0  0  0
  198.2690  172.2180  136.6250 C   0  0  0  0  0  2  0  0  0  0  0  0
  199.1190  174.2550  136.8810 C   0  0  0  0  0  1  0  0  0  0  0  0
  198.6270  173.1620  137.5900 O   0  0  0  0  0  0  0  0  0  0  0  0
  189.1650  177.9840  139.0410 O   0  0  0  0  0  0  0  0  0  0  0  0
  189.9730  177.0250  139.1920 C   0  0  0  0  0  0  0  0  0  0  0  0
  190.6770  176.8840  140.3890 O   0  0  0  0  0  0  0  0  0  0  0  0
  188.8940  177.3060  144.1780 C   0  0  0  0  0  0  0  0  0  0  0  0
  189.2390  176.0430  142.1300 C   0  0  0  0  0  3  0  0  0  0  0  0
  188.6360  176.1780  143.3850 C   0  0  0  0  0  3  0  0  0  0  0  0
  190.3170  178.1910  142.4370 C   0  0  0  0  0  3  0  0  0  0  0  0
  190.0980  177.0410  141.6530 C   0  0  0  0  0  0  0  0  0  0  0  0
  189.7250  178.3180  143.6920 C   0  0  0  0  0  3  0  0  0  0  0  0
  188.3250  177.4350  145.5340 C   0  0  0  0  0  0  0  0  0  0  0  0
  186.5430  178.2810  147.1110 C   0  0  0  0  0  1  0  0  0  0  0  0
  187.0370  178.0770  145.7530 N   0  0  0  0  0  0  0  0  0  0  0  0
  186.0690  178.1960  144.6780 C   0  0  0  0  0  1  0  0  0  0  0  0
  188.9730  176.9370  146.5150 O   0  0  0  0  0  0  0  0  0  0  0  0
  1  6  1  0  0  0  0
  2 11  1  0  0  0  0
  2  1  2  0  0  0  0
  4 37  1  0  0  0  0
  5  6  1  0  0  0  0
  5  8  2  0  0  0  0
  6 19  1  6  0  0  0
  7 10  1  0  0  0  0
  7 11  2  0  0  0  0
  8  4  2  0  0  0  0
  9  4  1  0  0  0  0
  9  3  1  0  0  0  0
 11  5  1  0  0  0  0
 12 10  1  6  0  0  0
 12  9  1  0  0  0  0
 13 16  1  0  0  0  0
 13 22  1  0  0  0  0
 15 20  1  0  0  0  0
 16 18  1  0  0  0  0
 17 14  1  0  0  0  0
 17 16  2  0  0  0  0
 19 15  2  0  0  0  0
 19 17  1  0  0  0  0
 20 13  2  0  0  0  0
 21 22  1  0  0  0  0
 23 21  1  0  0  0  0
 23 22  1  0  0  0  0
 24 28  2  0  0  0  0
 25 12  1  0  0  0  0
 25 27  1  0  0  0  0
 26 32  1  0  0  0  0
 26 28  1  0  0  0  0
 27 24  1  0  0  0  0
 29 24  1  0  0  0  0
 30 29  2  0  0  0  0
 30 26  1  0  0  0  0
 31 25  1  0  0  0  0
 31 29  1  0  0  0  0
 33 32  1  0  0  0  0
 33 35  1  0  0  0  0
 34 35  1  0  0  0  0
 36 37  2  0  0  0  0
 37 38  1  0  0  0  0
 38 43  1  0  0  0  0
 39 45  1  0  0  0  0
 40 41  1  0  0  0  0
 41 39  2  0  0  0  0
 42 44  2  0  0  0  0
 43 40  2  0  0  0  0
 43 42  1  0  0  0  0
 44 39  1  0  0  0  0
 45 47  1  0  0  0  0
 45 49  2  0  0  0  0
 47 46  1  0  0  0  0
 48 47  1  0  0  0  0
M  END
>  <MODEL>
4

>  <REMARK>
 VINA RESULT:      -7.3      1.701      2.206
  Name = 
  10 active torsions:
  status: ('A' for Active; 'I' for Inactive)
    1  A    between atoms: C_1  and  C_7
    2  A    between atoms: C_2  and  C_10
    3  A    between atoms: N_5  and  C_47
    4  A    between atoms: C_11  and  C_18
    5  A    between atoms: C_11  and  O_29
    6  A    between atoms: O_12  and  C_32
    7  A    between atoms: O_12  and  C_42
    8  A    between atoms: N_14  and  C_18
    9  A    between atoms: C_16  and  C_42
   10  A    between atoms: C_22  and  C_39
                            x       y       z     vdW  Elec       q    Type
                         _______ _______ _______ _____ _____    ______ ____

>  <TORSDO>
F 10

$$$$
=
 OpenBabel11032419353D

 49 55  0  0  1  0  0  0  0  0999 V2000
  186.4060  174.2110  135.2460 N   0  0  0  0  0  0  0  0  0  0  0  0
  187.4740  174.6270  134.6390 C   0  0  0  0  0  3  0  0  0  0  0  0
  190.7790  176.9130  139.6110 C   0  0  0  0  0  1  0  0  0  0  0  0
  188.5030  176.9290  138.5430 C   0  0  0  0  0  0  0  0  0  0  0  0
  187.2090  176.0100  136.5040 C   0  0  0  0  0  0  0  0  0  0  0  0
  186.1240  174.9790  136.4630 C   0  0  1  0  0  3  0  0  0  0  0  0
  189.2040  176.2920  135.0890 N   0  0  0  0  0  0  0  0  0  0  0  0
  187.7580  176.4480  137.5950 C   0  0  0  0  0  0  0  0  0  0  0  0
  189.9530  176.8580  138.3950 N   0  0  0  0  0  0  0  0  0  0  0  0
  189.8080  177.3820  135.8690 C   0  0  0  0  0  2  0  0  0  0  0  0
  188.0490  175.7450  135.3550 C   0  0  0  0  0  0  0  0  0  0  0  0
  190.6630  176.8850  137.0770 C   0  0  2  0  0  3  0  0  0  0  0  0
  182.2870  176.9110  136.3260 C   0  0  0  0  0  0  0  0  0  0  0  0
  183.6980  173.2320  137.3610 S   0  0  0  0  0  1  0  0  0  0  0  0
  184.6410  176.9660  136.0050 C   0  0  0  0  0  3  0  0  0  0  0  0
  182.3660  175.5810  136.7680 C   0  0  0  0  0  0  0  0  0  0  0  0
  183.6070  174.9330  136.7970 C   0  0  0  0  0  0  0  0  0  0  0  0
  181.2520  174.9300  137.1900 F   0  0  0  0  0  0  0  0  0  0  0  0
  184.7650  175.6270  136.3970 C   0  0  0  0  0  0  0  0  0  0  0  0
  183.4260  177.5680  135.9780 N   0  0  0  0  0  0  0  0  0  0  0  0
  180.9170  178.6050  135.1590 C   0  0  0  0  0  2  0  0  0  0  0  0
  180.9840  177.6610  136.3480 C   0  0  0  0  0  3  0  0  0  0  0  0
  180.1380  177.3130  135.1320 C   0  0  0  0  0  2  0  0  0  0  0  0
  193.7310  175.7370  137.4070 C   0  0  0  0  0  0  0  0  0  0  0  0
  191.4500  175.6530  136.8080 N   0  0  0  0  0  0  0  0  0  0  0  0
  195.5570  175.0930  136.5430 N   0  0  0  0  0  0  0  0  0  0  0  0
  192.3900  175.4330  137.9310 C   0  0  0  0  0  2  0  0  0  0  0  0
  194.9050  175.1460  137.7010 N   0  0  0  0  0  0  0  0  0  0  0  0
  193.6840  175.9780  136.1020 C   0  0  0  0  0  0  0  0  0  0  0  0
  194.8170  175.5270  135.5280 N   0  0  0  0  0  0  0  0  0  0  0  0
  192.3040  175.8500  135.6060 C   0  0  0  0  0  2  0  0  0  0  0  0
  196.9460  174.6460  136.4340 C   0  0  0  0  0  2  0  0  0  0  0  0
  197.6860  174.6490  137.7760 C   0  0  0  0  0  2  0  0  0  0  0  0
  198.1710  172.5740  137.1480 C   0  0  0  0  0  1  0  0  0  0  0  0
  198.7050  173.6940  137.7800 O   0  0  0  0  0  0  0  0  0  0  0  0
  188.3350  177.9980  140.6640 O   0  0  0  0  0  0  0  0  0  0  0  0
  187.8960  177.8900  139.4840 C   0  0  0  0  0  0  0  0  0  0  0  0
  186.8240  178.6800  139.0610 O   0  0  0  0  0  0  0  0  0  0  0  0
  183.0190  178.7060  140.8580 C   0  0  0  0  0  0  0  0  0  0  0  0
  184.4520  179.0850  138.9330 C   0  0  0  0  0  3  0  0  0  0  0  0
  183.1850  179.1040  139.5230 C   0  0  0  0  0  3  0  0  0  0  0  0
  185.3990  178.3200  141.0280 C   0  0  0  0  0  3  0  0  0  0  0  0
  185.5680  178.6760  139.6750 C   0  0  0  0  0  0  0  0  0  0  0  0
  184.1330  178.3290  141.6120 C   0  0  0  0  0  3  0  0  0  0  0  0
  181.6820  178.6500  141.4800 C   0  0  0  0  0  0  0  0  0  0  0  0
  179.2680  177.9050  141.4670 C   0  0  0  0  0  1  0  0  0  0  0  0
  180.6080  177.8640  140.8890 N   0  0  0  0  0  0  0  0  0  0  0  0
  180.8960  176.7730  139.9760 C   0  0  0  0  0  1  0  0  0  0  0  0
  181.4930  179.2800  142.5740 O   0  0  0  0  0  0  0  0  0  0  0  0
  1  6  1  0  0  0  0
  2  1  2  0  0  0  0
  2 11  1  0  0  0  0
  4 37  1  0  0  0  0
  5  8  2  0  0  0  0
  6 19  1  6  0  0  0
  6  5  1  0  0  0  0
  7 11  2  0  0  0  0
  7 10  1  0  0  0  0
  8  4  2  0  0  0  0
  9  4  1  0  0  0  0
  9  3  1  0  0  0  0
 11  5  1  0  0  0  0
 12 10  1  6  0  0  0
 12  9  1  0  0  0  0
 13 22  1  0  0  0  0
 13 16  1  0  0  0  0
 15 19  2  0  0  0  0
 16 17  2  0  0  0  0
 16 18  1  0  0  0  0
 17 14  1  0  0  0  0
 19 17  1  0  0  0  0
 20 15  1  0  0  0  0
 20 13  2  0  0  0  0
 21 22  1  0  0  0  0
 23 21  1  0  0  0  0
 23 22  1  0  0  0  0
 24 28  2  0  0  0  0
 24 27  1  0  0  0  0
 25 12  1  0  0  0  0
 25 27  1  0  0  0  0
 26 28  1  0  0  0  0
 29 24  1  0  0  0  0
 30 29  2  0  0  0  0
 30 26  1  0  0  0  0
 31 29  1  0  0  0  0
 31 25  1  0  0  0  0
 32 26  1  0  0  0  0
 32 33  1  0  0  0  0
 33 35  1  0  0  0  0
 34 35  1  0  0  0  0
 37 36  2  0  0  0  0
 38 37  1  0  0  0  0
 38 43  1  0  0  0  0
 39 45  1  0  0  0  0
 39 44  1  0  0  0  0
 40 41  1  0  0  0  0
 40 43  2  0  0  0  0
 41 39  2  0  0  0  0
 42 44  2  0  0  0  0
 43 42  1  0  0  0  0
 45 49  2  0  0  0  0
 47 46  1  0  0  0  0
 47 45  1  0  0  0  0
 48 47  1  0  0  0  0
M  END
>  <MODEL>
5

>  <REMARK>
 VINA RESULT:      -7.1      3.146      4.219
  Name = 
  10 active torsions:
  status: ('A' for Active; 'I' for Inactive)
    1  A    between atoms: C_1  and  C_7
    2  A    between atoms: C_2  and  C_10
    3  A    between atoms: N_5  and  C_47
    4  A    between atoms: C_11  and  C_18
    5  A    between atoms: C_11  and  O_29
    6  A    between atoms: O_12  and  C_32
    7  A    between atoms: O_12  and  C_42
    8  A    between atoms: N_14  and  C_18
    9  A    between atoms: C_16  and  C_42
   10  A    between atoms: C_22  and  C_39
                            x       y       z     vdW  Elec       q    Type
                         _______ _______ _______ _____ _____    ______ ____

>  <TORSDO>
F 10

$$$$
=
 OpenBabel11032419353D

 49 55  0  0  1  0  0  0  0  0999 V2000
  191.0710  177.7650  141.6310 N   0  0  0  0  0  0  0  0  0  0  0  0
  191.4970  176.8310  140.8400 C   0  0  0  0  0  3  0  0  0  0  0  0
  187.9430  178.0230  135.6610 C   0  0  0  0  0  1  0  0  0  0  0  0
  187.8150  177.7520  138.1580 C   0  0  0  0  0  0  0  0  0  0  0  0
  189.2810  177.2380  140.2230 C   0  0  0  0  0  0  0  0  0  0  0  0
  189.6840  178.1460  141.3430 C   0  0  1  0  0  3  0  0  0  0  0  0
  190.6060  175.6350  138.9050 N   0  0  0  0  0  0  0  0  0  0  0  0
  188.4870  177.5810  139.2560 C   0  0  0  0  0  0  0  0  0  0  0  0
  188.4430  177.3900  136.8910 N   0  0  0  0  0  0  0  0  0  0  0  0
  189.5500  175.3020  137.9370 C   0  0  0  0  0  2  0  0  0  0  0  0
  190.4510  176.4410  139.9200 C   0  0  0  0  0  0  0  0  0  0  0  0
  189.4620  176.3030  136.7420 C   0  0  2  0  0  3  0  0  0  0  0  0
  187.0970  177.6390  144.7370 C   0  0  0  0  0  0  0  0  0  0  0  0
  191.0620  178.3500  144.1360 S   0  0  0  0  0  1  0  0  0  0  0  0
  187.4250  177.7380  142.3850 C   0  0  0  0  0  3  0  0  0  0  0  0
  188.4620  177.8880  144.9510 C   0  0  0  0  0  0  0  0  0  0  0  0
  189.3190  178.0340  143.8530 C   0  0  0  0  0  0  0  0  0  0  0  0
  188.9480  178.0130  146.2110 F   0  0  0  0  0  0  0  0  0  0  0  0
  188.8010  177.9450  142.5470 C   0  0  0  0  0  0  0  0  0  0  0  0
  186.6170  177.5910  143.4650 N   0  0  0  0  0  0  0  0  0  0  0  0
  186.0980  178.8710  146.6330 C   0  0  0  0  0  2  0  0  0  0  0  0
  186.1340  177.5470  145.8890 C   0  0  0  0  0  3  0  0  0  0  0  0
  184.9700  178.5070  145.7010 C   0  0  0  0  0  2  0  0  0  0  0  0
  192.2130  175.1550  135.3440 C   0  0  0  0  0  0  0  0  0  0  0  0
  190.7770  176.7930  136.2510 N   0  0  0  0  0  0  0  0  0  0  0  0
  194.2860  174.7220  135.4470 N   0  0  0  0  0  0  0  0  0  0  0  0
  191.1170  176.0760  135.0020 C   0  0  0  0  0  2  0  0  0  0  0  0
  193.2680  174.7840  134.5940 N   0  0  0  0  0  0  0  0  0  0  0  0
  192.6190  175.3500  136.5930 C   0  0  0  0  0  0  0  0  0  0  0  0
  193.9470  175.1290  136.6660 N   0  0  0  0  0  0  0  0  0  0  0  0
  191.8460  176.4320  137.2220 C   0  0  0  0  0  2  0  0  0  0  0  0
  195.6070  174.2170  135.0720 C   0  0  0  0  0  2  0  0  0  0  0  0
  196.7320  174.7530  135.9630 C   0  0  0  0  0  2  0  0  0  0  0  0
  198.2160  174.3020  137.5540 C   0  0  0  0  0  1  0  0  0  0  0  0
  197.0360  173.8410  136.9770 O   0  0  0  0  0  0  0  0  0  0  0  0
  185.5940  176.9950  137.7560 O   0  0  0  0  0  0  0  0  0  0  0  0
  186.3480  177.8780  138.2540 C   0  0  0  0  0  0  0  0  0  0  0  0
  185.7960  178.9880  138.8970 O   0  0  0  0  0  0  0  0  0  0  0  0
  182.0730  178.9020  140.8570 C   0  0  0  0  0  0  0  0  0  0  0  0
  184.4230  178.2930  140.7510 C   0  0  0  0  0  3  0  0  0  0  0  0
  183.1880  178.2520  141.4070 C   0  0  0  0  0  3  0  0  0  0  0  0
  183.4160  179.5880  138.9680 C   0  0  0  0  0  3  0  0  0  0  0  0
  184.5510  178.9760  139.5350 C   0  0  0  0  0  0  0  0  0  0  0  0
  182.1890  179.5570  139.6280 C   0  0  0  0  0  3  0  0  0  0  0  0
  180.7790  178.9330  141.5660 C   0  0  0  0  0  0  0  0  0  0  0  0
  179.4140  178.7550  143.6840 C   0  0  0  0  0  1  0  0  0  0  0  0
  180.7110  178.8210  143.0160 N   0  0  0  0  0  0  0  0  0  0  0  0
  181.8610  179.1340  143.8440 C   0  0  0  0  0  1  0  0  0  0  0  0
  179.7140  179.0980  140.8810 O   0  0  0  0  0  0  0  0  0  0  0  0
  2  1  2  0  0  0  0
  3  9  1  0  0  0  0
  4 37  1  0  0  0  0
  4  8  2  0  0  0  0
  5  6  1  0  0  0  0
  6  1  1  0  0  0  0
  6 19  1  1  0  0  0
  7 11  2  0  0  0  0
  8  5  2  0  0  0  0
  9  4  1  0  0  0  0
 10  7  1  0  0  0  0
 11  5  1  0  0  0  0
 11  2  1  0  0  0  0
 12 25  1  1  0  0  0
 12  9  1  0  0  0  0
 12 10  1  0  0  0  0
 13 16  1  0  0  0  0
 13 22  1  0  0  0  0
 15 19  2  0  0  0  0
 15 20  1  0  0  0  0
 16 18  1  0  0  0  0
 17 14  1  0  0  0  0
 17 16  2  0  0  0  0
 19 17  1  0  0  0  0
 20 13  2  0  0  0  0
 22 21  1  0  0  0  0
 23 22  1  0  0  0  0
 23 21  1  0  0  0  0
 24 29  1  0  0  0  0
 25 31  1  0  0  0  0
 26 30  1  0  0  0  0
 27 24  1  0  0  0  0
 27 25  1  0  0  0  0
 28 24  2  0  0  0  0
 28 26  1  0  0  0  0
 29 30  2  0  0  0  0
 29 31  1  0  0  0  0
 32 26  1  0  0  0  0
 32 33  1  0  0  0  0
 33 35  1  0  0  0  0
 35 34  1  0  0  0  0
 36 37  2  0  0  0  0
 37 38  1  0  0  0  0
 38 43  1  0  0  0  0
 39 41  1  0  0  0  0
 39 45  1  0  0  0  0
 40 41  2  0  0  0  0
 42 43  2  0  0  0  0
 42 44  1  0  0  0  0
 43 40  1  0  0  0  0
 44 39  2  0  0  0  0
 45 47  1  0  0  0  0
 47 46  1  0  0  0  0
 47 48  1  0  0  0  0
 49 45  2  0  0  0  0
M  END
>  <MODEL>
6

>  <REMARK>
 VINA RESULT:      -7.1      3.341      6.375
  Name = 
  10 active torsions:
  status: ('A' for Active; 'I' for Inactive)
    1  A    between atoms: C_1  and  C_7
    2  A    between atoms: C_2  and  C_10
    3  A    between atoms: N_5  and  C_47
    4  A    between atoms: C_11  and  C_18
    5  A    between atoms: C_11  and  O_29
    6  A    between atoms: O_12  and  C_32
    7  A    between atoms: O_12  and  C_42
    8  A    between atoms: N_14  and  C_18
    9  A    between atoms: C_16  and  C_42
   10  A    between atoms: C_22  and  C_39
                            x       y       z     vdW  Elec       q    Type
                         _______ _______ _______ _____ _____    ______ ____

>  <TORSDO>
F 10

$$$$
=
 OpenBabel11032419353D

 49 55  0  0  1  0  0  0  0  0999 V2000
  185.1720  176.7970  136.0910 N   0  0  0  0  0  0  0  0  0  0  0  0
  186.2860  177.1350  135.5220 C   0  0  0  0  0  3  0  0  0  0  0  0
  190.2750  176.7140  140.4990 C   0  0  0  0  0  1  0  0  0  0  0  0
  188.0430  177.6330  139.7950 C   0  0  0  0  0  0  0  0  0  0  0  0
  186.4720  177.8070  137.7510 C   0  0  0  0  0  0  0  0  0  0  0  0
  185.1520  177.1390  137.5170 C   0  0  1  0  0  3  0  0  0  0  0  0
  188.4120  178.0850  136.2610 N   0  0  0  0  0  0  0  0  0  0  0  0
  187.1600  177.6980  138.8460 C   0  0  0  0  0  0  0  0  0  0  0  0
  189.4160  177.2790  139.4480 N   0  0  0  0  0  0  0  0  0  0  0  0
  189.3130  178.6630  137.2680 C   0  0  0  0  0  2  0  0  0  0  0  0
  187.1650  177.7670  136.4800 C   0  0  0  0  0  0  0  0  0  0  0  0
  190.0540  177.5930  138.1300 C   0  0  2  0  0  3  0  0  0  0  0  0
  181.9420  179.8120  138.5300 C   0  0  0  0  0  0  0  0  0  0  0  0
  182.2720  176.0530  136.9970 S   0  0  0  0  0  1  0  0  0  0  0  0
  184.2650  179.3290  138.3980 C   0  0  0  0  0  3  0  0  0  0  0  0
  181.6360  178.5440  138.0130 C   0  0  0  0  0  0  0  0  0  0  0  0
  182.6730  177.6720  137.6600 C   0  0  0  0  0  0  0  0  0  0  0  0
  180.3440  178.1500  137.8790 F   0  0  0  0  0  0  0  0  0  0  0  0
  184.0110  178.0700  137.8390 C   0  0  0  0  0  0  0  0  0  0  0  0
  183.2420  180.1590  138.7250 N   0  0  0  0  0  0  0  0  0  0  0  0
  181.2120  182.1740  138.5960 C   0  0  0  0  0  2  0  0  0  0  0  0
  180.8560  180.7480  138.9860 C   0  0  0  0  0  3  0  0  0  0  0  0
  180.1810  181.4160  137.7980 C   0  0  0  0  0  2  0  0  0  0  0  0
  192.6070  175.5240  137.9190 C   0  0  0  0  0  0  0  0  0  0  0  0
  190.4760  176.3820  137.3780 N   0  0  0  0  0  0  0  0  0  0  0  0
  194.2510  174.7350  136.8370 N   0  0  0  0  0  0  0  0  0  0  0  0
  191.1870  175.4700  138.3030 C   0  0  0  0  0  2  0  0  0  0  0  0
  193.5220  174.5360  137.9320 N   0  0  0  0  0  0  0  0  0  0  0  0
  192.7700  176.2500  136.8200 C   0  0  0  0  0  0  0  0  0  0  0  0
  193.7800  175.7300  136.0930 N   0  0  0  0  0  0  0  0  0  0  0  0
  191.4740  176.7530  136.3390 C   0  0  0  0  0  2  0  0  0  0  0  0
  195.4550  173.9610  136.5330 C   0  0  0  0  0  2  0  0  0  0  0  0
  196.3910  173.8090  137.7360 C   0  0  0  0  0  2  0  0  0  0  0  0
  198.5640  174.2030  137.4910 C   0  0  0  0  0  1  0  0  0  0  0  0
  197.5950  173.2120  137.3530 O   0  0  0  0  0  0  0  0  0  0  0  0
  187.8840  179.5750  141.1630 O   0  0  0  0  0  0  0  0  0  0  0  0
  187.7500  178.3220  141.0670 C   0  0  0  0  0  0  0  0  0  0  0  0
  187.3260  177.5760  142.1680 O   0  0  0  0  0  0  0  0  0  0  0  0
  189.4250  177.3230  145.8070 C   0  0  0  0  0  0  0  0  0  0  0  0
  187.3360  177.4830  144.5760 C   0  0  0  0  0  3  0  0  0  0  0  0
  188.0250  177.4060  145.7900 C   0  0  0  0  0  3  0  0  0  0  0  0
  189.4500  177.4470  143.3930 C   0  0  0  0  0  3  0  0  0  0  0  0
  188.0420  177.4860  143.3660 C   0  0  0  0  0  0  0  0  0  0  0  0
  190.1350  177.3590  144.6040 C   0  0  0  0  0  3  0  0  0  0  0  0
  190.1690  177.1690  147.0720 C   0  0  0  0  0  0  0  0  0  0  0  0
  191.9980  176.0970  148.4450 C   0  0  0  0  0  1  0  0  0  0  0  0
  191.3400  176.3090  147.1590 N   0  0  0  0  0  0  0  0  0  0  0  0
  192.0890  175.9450  145.9700 C   0  0  0  0  0  1  0  0  0  0  0  0
  189.7830  177.8380  148.0890 O   0  0  0  0  0  0  0  0  0  0  0  0
  1  6  1  0  0  0  0
  2  1  2  0  0  0  0
  2 11  1  0  0  0  0
  4 37  1  0  0  0  0
  5  8  2  0  0  0  0
  6  5  1  0  0  0  0
  6 19  1  6  0  0  0
  7 11  2  0  0  0  0
  7 10  1  0  0  0  0
  8  4  2  0  0  0  0
  9  4  1  0  0  0  0
  9  3  1  0  0  0  0
 11  5  1  0  0  0  0
 12 10  1  6  0  0  0
 12  9  1  0  0  0  0
 13 20  1  0  0  0  0
 13 22  1  0  0  0  0
 14 17  1  0  0  0  0
 15 20  2  0  0  0  0
 16 13  2  0  0  0  0
 17 19  2  0  0  0  0
 17 16  1  0  0  0  0
 18 16  1  0  0  0  0
 19 15  1  0  0  0  0
 21 22  1  0  0  0  0
 23 21  1  0  0  0  0
 23 22  1  0  0  0  0
 24 28  2  0  0  0  0
 24 27  1  0  0  0  0
 25 12  1  0  0  0  0
 25 27  1  0  0  0  0
 26 28  1  0  0  0  0
 29 24  1  0  0  0  0
 30 29  2  0  0  0  0
 30 26  1  0  0  0  0
 31 29  1  0  0  0  0
 31 25  1  0  0  0  0
 32 26  1  0  0  0  0
 32 33  1  0  0  0  0
 35 34  1  0  0  0  0
 35 33  1  0  0  0  0
 37 36  2  0  0  0  0
 37 38  1  0  0  0  0
 38 43  1  0  0  0  0
 39 45  1  0  0  0  0
 40 41  2  0  0  0  0
 41 39  1  0  0  0  0
 42 44  1  0  0  0  0
 43 42  2  0  0  0  0
 43 40  1  0  0  0  0
 44 39  2  0  0  0  0
 45 47  1  0  0  0  0
 45 49  2  0  0  0  0
 47 46  1  0  0  0  0
 48 47  1  0  0  0  0
M  END
>  <MODEL>
7

>  <REMARK>
 VINA RESULT:      -7.1      1.476      1.847
  Name = 
  10 active torsions:
  status: ('A' for Active; 'I' for Inactive)
    1  A    between atoms: C_1  and  C_7
    2  A    between atoms: C_2  and  C_10
    3  A    between atoms: N_5  and  C_47
    4  A    between atoms: C_11  and  C_18
    5  A    between atoms: C_11  and  O_29
    6  A    between atoms: O_12  and  C_32
    7  A    between atoms: O_12  and  C_42
    8  A    between atoms: N_14  and  C_18
    9  A    between atoms: C_16  and  C_42
   10  A    between atoms: C_22  and  C_39
                            x       y       z     vdW  Elec       q    Type
                         _______ _______ _______ _____ _____    ______ ____

>  <TORSDO>
F 10

$$$$
=
 OpenBabel11032419353D

 49 55  0  0  1  0  0  0  0  0999 V2000
  184.2500  176.2670  136.1210 N   0  0  0  0  0  0  0  0  0  0  0  0
  185.0700  176.6800  135.2060 C   0  0  0  0  0  3  0  0  0  0  0  0
  190.5940  176.3500  138.4070 C   0  0  0  0  0  1  0  0  0  0  0  0
  188.2210  177.1630  138.5880 C   0  0  0  0  0  0  0  0  0  0  0  0
  186.0150  177.3030  137.2490 C   0  0  0  0  0  0  0  0  0  0  0  0
  184.7280  176.5700  137.4730 C   0  0  1  0  0  3  0  0  0  0  0  0
  187.2770  177.7260  135.1790 N   0  0  0  0  0  0  0  0  0  0  0  0
  187.0540  177.2040  138.0200 C   0  0  0  0  0  0  0  0  0  0  0  0
  189.3910  176.8940  137.7580 N   0  0  0  0  0  0  0  0  0  0  0  0
  188.4550  178.3270  135.8220 C   0  0  0  0  0  2  0  0  0  0  0  0
  186.2070  177.3340  135.8140 C   0  0  0  0  0  0  0  0  0  0  0  0
  189.5010  177.2770  136.3140 C   0  0  2  0  0  3  0  0  0  0  0  0
  181.9930  179.0600  139.6630 C   0  0  0  0  0  0  0  0  0  0  0  0
  182.2590  175.1100  138.7030 S   0  0  0  0  0  1  0  0  0  0  0  0
  183.9820  178.7980  138.3900 C   0  0  0  0  0  3  0  0  0  0  0  0
  181.7310  177.6850  139.5600 C   0  0  0  0  0  0  0  0  0  0  0  0
  182.6030  176.8670  138.8320 C   0  0  0  0  0  0  0  0  0  0  0  0
  180.6540  177.1420  140.1820 F   0  0  0  0  0  0  0  0  0  0  0  0
  183.7420  177.4280  138.2220 C   0  0  0  0  0  0  0  0  0  0  0  0
  183.1180  179.5710  139.0940 N   0  0  0  0  0  0  0  0  0  0  0  0
  180.4510  180.9920  139.6020 C   0  0  0  0  0  2  0  0  0  0  0  0
  181.1180  179.9570  140.4940 C   0  0  0  0  0  3  0  0  0  0  0  0
  179.6570  179.8090  140.0980 C   0  0  0  0  0  2  0  0  0  0  0  0
  191.2020  174.4640  136.1320 C   0  0  0  0  0  0  0  0  0  0  0  0
  189.6750  176.1110  135.4080 N   0  0  0  0  0  0  0  0  0  0  0  0
  192.7110  173.2820  135.2250 N   0  0  0  0  0  0  0  0  0  0  0  0
  189.7950  174.8850  136.2280 C   0  0  0  0  0  2  0  0  0  0  0  0
  191.7090  173.2170  136.0980 N   0  0  0  0  0  0  0  0  0  0  0  0
  191.8620  175.2220  135.2650 C   0  0  0  0  0  0  0  0  0  0  0  0
  192.7920  174.4730  134.6400 N   0  0  0  0  0  0  0  0  0  0  0  0
  190.9640  176.2280  134.6750 C   0  0  0  0  0  2  0  0  0  0  0  0
  193.6300  172.1690  134.9870 C   0  0  0  0  0  2  0  0  0  0  0  0
  194.5000  171.8370  136.2040 C   0  0  0  0  0  2  0  0  0  0  0  0
  195.9820  170.2670  135.6800 C   0  0  0  0  0  1  0  0  0  0  0  0
  195.8300  171.6430  135.8210 O   0  0  0  0  0  0  0  0  0  0  0  0
  187.9920  178.9910  140.0950 O   0  0  0  0  0  0  0  0  0  0  0  0
  188.3750  177.8020  139.9090 C   0  0  0  0  0  0  0  0  0  0  0  0
  188.9550  177.0810  140.9550 O   0  0  0  0  0  0  0  0  0  0  0  0
  188.0620  177.7010  145.0200 C   0  0  0  0  0  0  0  0  0  0  0  0
  189.4980  178.0530  143.0920 C   0  0  0  0  0  3  0  0  0  0  0  0
  189.2140  178.2580  144.4460 C   0  0  0  0  0  3  0  0  0  0  0  0
  187.5070  176.6860  142.8990 C   0  0  0  0  0  3  0  0  0  0  0  0
  188.6370  177.2790  142.3030 C   0  0  0  0  0  0  0  0  0  0  0  0
  187.2190  176.9010  144.2450 C   0  0  0  0  0  3  0  0  0  0  0  0
  187.7050  177.9630  146.4280 C   0  0  0  0  0  0  0  0  0  0  0  0
  188.0320  177.5690  148.9020 C   0  0  0  0  0  1  0  0  0  0  0  0
  188.4650  177.3740  147.5210 N   0  0  0  0  0  0  0  0  0  0  0  0
  189.8250  176.9090  147.3190 C   0  0  0  0  0  1  0  0  0  0  0  0
  186.7310  178.7520  146.6720 O   0  0  0  0  0  0  0  0  0  0  0  0
  1  6  1  0  0  0  0
  2 11  1  0  0  0  0
  2  1  2  0  0  0  0
  4 37  1  0  0  0  0
  5  6  1  0  0  0  0
  5  8  2  0  0  0  0
  6 19  1  6  0  0  0
  7 11  2  0  0  0  0
  7 10  1  0  0  0  0
  8  4  2  0  0  0  0
  9  3  1  0  0  0  0
  9  4  1  0  0  0  0
 10 12  1  0  0  0  0
 11  5  1  0  0  0  0
 12 25  1  6  0  0  0
 12  9  1  0  0  0  0
 13 22  1  0  0  0  0
 14 17  1  0  0  0  0
 15 20  1  0  0  0  0
 16 13  1  0  0  0  0
 16 18  1  0  0  0  0
 17 16  2  0  0  0  0
 19 15  2  0  0  0  0
 19 17  1  0  0  0  0
 20 13  2  0  0  0  0
 21 23  1  0  0  0  0
 21 22  1  0  0  0  0
 23 22  1  0  0  0  0
 24 27  1  0  0  0  0
 25 27  1  0  0  0  0
 26 28  1  0  0  0  0
 28 24  2  0  0  0  0
 29 24  1  0  0  0  0
 30 26  1  0  0  0  0
 30 29  2  0  0  0  0
 31 29  1  0  0  0  0
 31 25  1  0  0  0  0
 32 26  1  0  0  0  0
 32 33  1  0  0  0  0
 34 35  1  0  0  0  0
 35 33  1  0  0  0  0
 37 36  2  0  0  0  0
 37 38  1  0  0  0  0
 38 43  1  0  0  0  0
 39 45  1  0  0  0  0
 40 41  2  0  0  0  0
 41 39  1  0  0  0  0
 42 44  1  0  0  0  0
 43 42  2  0  0  0  0
 43 40  1  0  0  0  0
 44 39  2  0  0  0  0
 45 49  2  0  0  0  0
 45 47  1  0  0  0  0
 47 46  1  0  0  0  0
 48 47  1  0  0  0  0
M  END
>  <MODEL>
8

>  <REMARK>
 VINA RESULT:      -7.1      1.734      1.921
  Name = 
  10 active torsions:
  status: ('A' for Active; 'I' for Inactive)
    1  A    between atoms: C_1  and  C_7
    2  A    between atoms: C_2  and  C_10
    3  A    between atoms: N_5  and  C_47
    4  A    between atoms: C_11  and  C_18
    5  A    between atoms: C_11  and  O_29
    6  A    between atoms: O_12  and  C_32
    7  A    between atoms: O_12  and  C_42
    8  A    between atoms: N_14  and  C_18
    9  A    between atoms: C_16  and  C_42
   10  A    between atoms: C_22  and  C_39
                            x       y       z     vdW  Elec       q    Type
                         _______ _______ _______ _____ _____    ______ ____

>  <TORSDO>
F 10

$$$$
=
 OpenBabel11032419353D

 49 55  0  0  1  0  0  0  0  0999 V2000
  184.2430  175.9240  135.7390 N   0  0  0  0  0  0  0  0  0  0  0  0
  185.2910  176.1540  135.0100 C   0  0  0  0  0  3  0  0  0  0  0  0
  189.7230  176.8100  139.5690 C   0  0  0  0  0  1  0  0  0  0  0  0
  187.4070  177.5350  138.9100 C   0  0  0  0  0  0  0  0  0  0  0  0
  185.6530  177.2680  137.0310 C   0  0  0  0  0  0  0  0  0  0  0  0
  184.3410  176.5480  137.0620 C   0  0  1  0  0  3  0  0  0  0  0  0
  187.4410  177.2650  135.3380 N   0  0  0  0  0  0  0  0  0  0  0  0
  186.4400  177.3940  138.0550 C   0  0  0  0  0  0  0  0  0  0  0  0
  188.7540  177.1380  138.5120 N   0  0  0  0  0  0  0  0  0  0  0  0
  188.4100  178.0490  136.1190 C   0  0  0  0  0  2  0  0  0  0  0  0
  186.2310  176.9800  135.7340 C   0  0  0  0  0  0  0  0  0  0  0  0
  189.2610  177.1860  137.1040 C   0  0  2  0  0  3  0  0  0  0  0  0
  181.1510  179.3620  137.6820 C   0  0  0  0  0  0  0  0  0  0  0  0
  183.2630  176.7490  139.9840 S   0  0  0  0  0  1  0  0  0  0  0  0
  182.7200  178.2990  136.2470 C   0  0  0  0  0  3  0  0  0  0  0  0
  181.6320  178.6240  138.7750 C   0  0  0  0  0  0  0  0  0  0  0  0
  182.6560  177.6900  138.5820 C   0  0  0  0  0  0  0  0  0  0  0  0
  181.1290  178.8310  140.0180 F   0  0  0  0  0  0  0  0  0  0  0  0
  183.2040  177.5090  137.2970 C   0  0  0  0  0  0  0  0  0  0  0  0
  181.7210  179.1930  136.4590 N   0  0  0  0  0  0  0  0  0  0  0  0
  180.6530  181.5460  138.7280 C   0  0  0  0  0  2  0  0  0  0  0  0
  180.1020  180.4240  137.8630 C   0  0  0  0  0  3  0  0  0  0  0  0
  180.5460  181.7370  137.2360 C   0  0  0  0  0  2  0  0  0  0  0  0
  191.7250  175.0140  137.3300 C   0  0  0  0  0  0  0  0  0  0  0  0
  189.6530  175.8540  136.5740 N   0  0  0  0  0  0  0  0  0  0  0  0
  193.3670  173.9970  136.4540 N   0  0  0  0  0  0  0  0  0  0  0  0
  190.2920  175.0780  137.6610 C   0  0  0  0  0  2  0  0  0  0  0  0
  192.5940  174.0070  137.5370 N   0  0  0  0  0  0  0  0  0  0  0  0
  191.9560  175.5450  136.1350 C   0  0  0  0  0  0  0  0  0  0  0  0
  192.9650  174.8760  135.5410 N   0  0  0  0  0  0  0  0  0  0  0  0
  190.7000  176.0130  135.5280 C   0  0  0  0  0  2  0  0  0  0  0  0
  194.5440  173.1390  136.3270 C   0  0  0  0  0  2  0  0  0  0  0  0
  195.0680  172.6320  137.6750 C   0  0  0  0  0  2  0  0  0  0  0  0
  195.8970  174.1280  139.0920 C   0  0  0  0  0  1  0  0  0  0  0  0
  196.2440  173.2960  138.0300 O   0  0  0  0  0  0  0  0  0  0  0  0
  188.0280  179.4000  140.2530 O   0  0  0  0  0  0  0  0  0  0  0  0
  187.2070  178.4650  140.0390 C   0  0  0  0  0  0  0  0  0  0  0  0
  186.1000  178.2990  140.8740 O   0  0  0  0  0  0  0  0  0  0  0  0
  186.3920  178.0840  145.0660 C   0  0  0  0  0  0  0  0  0  0  0  0
  187.2170  177.5050  142.8550 C   0  0  0  0  0  3  0  0  0  0  0  0
  187.3190  177.4220  144.2470 C   0  0  0  0  0  3  0  0  0  0  0  0
  185.2300  178.8700  143.0980 C   0  0  0  0  0  3  0  0  0  0  0  0
  186.1820  178.2440  142.2690 C   0  0  0  0  0  0  0  0  0  0  0  0
  185.3390  178.7960  144.4860 C   0  0  0  0  0  3  0  0  0  0  0  0
  186.5220  178.0690  146.5370 C   0  0  0  0  0  0  0  0  0  0  0  0
  187.8640  177.6410  148.6330 C   0  0  0  0  0  1  0  0  0  0  0  0
  187.7870  177.7460  147.1790 N   0  0  0  0  0  0  0  0  0  0  0  0
  189.0430  177.8780  146.4630 C   0  0  0  0  0  1  0  0  0  0  0  0
  185.5030  178.3830  147.2400 O   0  0  0  0  0  0  0  0  0  0  0  0
  1  6  1  0  0  0  0
  2 11  1  0  0  0  0
  2  1  2  0  0  0  0
  4 37  1  0  0  0  0
  5  6  1  0  0  0  0
  5  8  2  0  0  0  0
  6 19  1  6  0  0  0
  7 11  2  0  0  0  0
  7 10  1  0  0  0  0
  8  4  2  0  0  0  0
  9  4  1  0  0  0  0
  9  3  1  0  0  0  0
 11  5  1  0  0  0  0
 12 10  1  6  0  0  0
 12  9  1  0  0  0  0
 13 22  1  0  0  0  0
 13 16  1  0  0  0  0
 15 20  1  0  0  0  0
 15 19  2  0  0  0  0
 16 18  1  0  0  0  0
 17 16  2  0  0  0  0
 17 14  1  0  0  0  0
 19 17  1  0  0  0  0
 20 13  2  0  0  0  0
 22 21  1  0  0  0  0
 23 22  1  0  0  0  0
 23 21  1  0  0  0  0
 24 28  2  0  0  0  0
 24 27  1  0  0  0  0
 25 12  1  0  0  0  0
 25 27  1  0  0  0  0
 26 28  1  0  0  0  0
 29 24  1  0  0  0  0
 30 29  2  0  0  0  0
 30 26  1  0  0  0  0
 31 29  1  0  0  0  0
 31 25  1  0  0  0  0
 32 26  1  0  0  0  0
 32 33  1  0  0  0  0
 33 35  1  0  0  0  0
 35 34  1  0  0  0  0
 37 36  2  0  0  0  0
 37 38  1  0  0  0  0
 38 43  1  0  0  0  0
 39 45  1  0  0  0  0
 40 41  1  0  0  0  0
 41 39  2  0  0  0  0
 42 44  2  0  0  0  0
 43 40  2  0  0  0  0
 43 42  1  0  0  0  0
 44 39  1  0  0  0  0
 45 47  1  0  0  0  0
 45 49  2  0  0  0  0
 47 46  1  0  0  0  0
 48 47  1  0  0  0  0
M  END
>  <MODEL>
9

>  <REMARK>
 VINA RESULT:      -7.1      1.723      2.115
  Name = 
  10 active torsions:
  status: ('A' for Active; 'I' for Inactive)
    1  A    between atoms: C_1  and  C_7
    2  A    between atoms: C_2  and  C_10
    3  A    between atoms: N_5  and  C_47
    4  A    between atoms: C_11  and  C_18
    5  A    between atoms: C_11  and  O_29
    6  A    between atoms: O_12  and  C_32
    7  A    between atoms: O_12  and  C_42
    8  A    between atoms: N_14  and  C_18
    9  A    between atoms: C_16  and  C_42
   10  A    between atoms: C_22  and  C_39
                            x       y       z     vdW  Elec       q    Type
                         _______ _______ _______ _____ _____    ______ ____

>  <TORSDO>
F 10

$$$$
