=
 OpenBabel11042412323D

 31 34  0  0  1  0  0  0  0  0999 V2000
  190.3670  174.1960  137.1590 C   0  0  0  0  0  3  0  0  0  0  0  0
  188.2680  178.9720  136.9340 C   0  0  0  0  0  3  0  0  0  0  0  0
  189.0810  178.2720  137.8890 N   0  0  0  0  0  0  0  0  0  0  0  0
  187.2190  176.1600  136.9300 N   0  0  0  0  0  0  0  0  0  0  0  0
  191.4990  175.0180  137.4910 N   0  0  0  0  0  0  0  0  0  0  0  0
  185.0600  177.1490  136.6080 C   0  0  0  0  0  1  0  0  0  0  0  0
  190.2050  176.4360  138.9870 C   0  0  2  0  0  3  0  0  0  0  0  0
  191.4870  176.0360  138.2990 C   0  0  0  0  0  0  0  0  0  0  0  0
  189.1020  174.6170  136.9910 C   0  0  0  0  0  0  0  0  0  0  0  0
  189.2360  176.9860  137.9870 C   0  0  0  0  0  0  0  0  0  0  0  0
  188.1440  173.6390  136.7490 O   0  0  0  0  0  1  0  0  0  0  0  0
  188.6730  176.0750  136.9300 C   0  0  2  0  0  3  0  0  0  0  0  0
  186.5420  177.2410  136.6930 C   0  0  0  0  0  0  0  0  0  0  0  0
  187.1670  178.5040  136.4230 N   0  0  0  0  0  0  0  0  0  0  0  0
  189.0240  177.2690  140.8900 C   0  0  0  0  0  2  0  0  0  0  0  0
  189.0690  178.2330  142.0750 C   0  0  0  0  0  2  0  0  0  0  0  0
  191.4990  177.6300  142.3400 C   0  0  0  0  0  2  0  0  0  0  0  0
  190.1650  177.8250  143.0610 C   0  0  2  0  0  3  0  0  0  0  0  0
  191.3300  176.6940  141.1460 C   0  0  0  0  0  2  0  0  0  0  0  0
  190.3270  177.2360  140.2210 N   0  0  1  0  0  0  0  0  0  0  0  0
  189.8030  176.6530  143.7300 O   0  0  0  0  0  0  0  0  0  0  0  0
  188.7750  176.9980  144.4760 O   0  0  0  0  0  1  0  0  0  0  0  0
  192.6640  176.7530  138.5160 O   0  0  0  0  0  0  0  0  0  0  0  0
  193.8370  176.3270  138.0290 O   0  0  0  0  0  0  0  0  0  0  0  0
  194.3530  175.4980  139.0270 C   0  0  0  0  0  2  0  0  0  0  0  0
  195.4490  174.6150  138.4560 C   0  0  0  0  0  2  0  0  0  0  0  0
  196.2860  174.1080  139.5330 N   0  0  0  0  0  2  0  0  0  0  0  0
  198.1170  175.5100  138.6410 O   0  0  0  0  0  1  0  0  0  0  0  0
  197.1660  175.9700  140.7150 O   0  0  0  0  0  0  0  0  0  0  0  0
  197.3800  175.0440  139.7300 C   0  0  0  0  0  0  0  0  0  0  0  0
  198.0430  174.9640  140.9260 O   0  0  0  0  0  0  0  0  0  0  0  0
  1  5  1  0  0  0  0
  2  3  1  0  0  0  0
  3 10  2  0  0  0  0
  5  8  2  0  0  0  0
  6 13  1  0  0  0  0
  7 10  1  6  0  0  0
  7 20  1  0  0  0  0
  8 23  1  0  0  0  0
  8  7  1  0  0  0  0
  9  1  2  0  0  0  0
 11  9  1  0  0  0  0
 12  4  1  1  0  0  0
 12  9  1  0  0  0  0
 12 10  1  0  0  0  0
 13  4  2  0  0  0  0
 14 13  1  0  0  0  0
 14  2  2  0  0  0  0
 15 16  1  0  0  0  0
 16 18  1  0  0  0  0
 17 18  1  0  0  0  0
 18 21  1  6  0  0  0
 19 17  1  0  0  0  0
 20 15  1  1  0  0  0
 20 19  1  0  0  0  0
 21 22  1  0  0  0  0
 24 23  1  0  0  0  0
 24 25  1  0  0  0  0
 26 25  1  0  0  0  0
 26 27  1  0  0  0  0
 27 30  1  0  0  0  0
 28 30  1  0  0  0  0
 29 31  1  0  0  0  0
 30 29  1  0  0  0  0
 30 31  1  0  0  0  0
M  END
>  <MODEL>
1

>  <REMARK>
 VINA RESULT:      -6.2      0.000      0.000
  Name = 
  8 active torsions:
  status: ('A' for Active; 'I' for Inactive)
    1  A    between atoms: C_7  and  O_15
    2  A    between atoms: C_7  and  C_20
    3  A    between atoms: O_9  and  C_21
    4  A    between atoms: O_10  and  O_15
    5  A    between atoms: O_10  and  C_16
    6  A    between atoms: C_12  and  N_30
    7  A    between atoms: C_20  and  N_28
    8  A    between atoms: C_22  and  N_28
                            x       y       z     vdW  Elec       q    Type
                         _______ _______ _______ _____ _____    ______ ____

>  <TORSDO>
F 8

$$$$
=
 OpenBabel11042412323D

 31 34  0  0  1  0  0  0  0  0999 V2000
  181.0270  179.5500  143.2420 C   0  0  0  0  0  3  0  0  0  0  0  0
  185.3020  179.1370  140.2740 C   0  0  0  0  0  3  0  0  0  0  0  0
  183.9350  178.7200  140.1350 N   0  0  0  0  0  0  0  0  0  0  0  0
  184.4910  178.2210  143.0140 N   0  0  0  0  0  0  0  0  0  0  0  0
  180.5320  180.0050  141.9710 N   0  0  0  0  0  0  0  0  0  0  0  0
  186.7340  177.4030  143.2170 C   0  0  0  0  0  1  0  0  0  0  0  0
  181.6490  178.2240  140.7450 C   0  0  2  0  0  3  0  0  0  0  0  0
  180.7800  179.4550  140.8190 C   0  0  0  0  0  0  0  0  0  0  0  0
  182.2440  179.0350  143.4820 C   0  0  0  0  0  0  0  0  0  0  0  0
  183.0650  178.5730  141.0890 C   0  0  0  0  0  0  0  0  0  0  0  0
  182.4880  178.5840  144.7760 O   0  0  0  0  0  1  0  0  0  0  0  0
  183.3930  179.0200  142.4870 C   0  0  2  0  0  3  0  0  0  0  0  0
  185.6810  178.1690  142.4990 C   0  0  0  0  0  0  0  0  0  0  0  0
  186.0440  178.8890  141.3130 N   0  0  0  0  0  0  0  0  0  0  0  0
  182.2870  176.1490  139.7450 C   0  0  0  0  0  2  0  0  0  0  0  0
  182.3050  175.3260  138.4580 C   0  0  0  0  0  2  0  0  0  0  0  0
  180.0110  176.2400  137.9650 C   0  0  0  0  0  2  0  0  0  0  0  0
  180.8810  174.9830  138.0170 C   0  0  2  0  0  3  0  0  0  0  0  0
  180.1080  177.0120  139.2790 C   0  0  0  0  0  2  0  0  0  0  0  0
  181.5060  177.3720  139.5480 N   0  0  1  0  0  0  0  0  0  0  0  0
  180.3190  174.0430  138.8850 O   0  0  0  0  0  0  0  0  0  0  0  0
  179.1460  173.7620  138.3570 O   0  0  0  0  0  1  0  0  0  0  0  0
  180.2420  180.0160  139.6610 O   0  0  0  0  0  0  0  0  0  0  0  0
  180.4140  181.3130  139.3740 O   0  0  0  0  0  0  0  0  0  0  0  0
  181.3770  181.3250  138.3620 C   0  0  0  0  0  2  0  0  0  0  0  0
  180.8530  182.0770  137.1520 C   0  0  0  0  0  2  0  0  0  0  0  0
  180.3090  183.3620  137.5650 N   0  0  0  0  0  2  0  0  0  0  0  0
  182.4200  184.6490  137.6180 O   0  0  0  0  0  1  0  0  0  0  0  0
  181.1380  184.5410  135.6780 O   0  0  0  0  0  0  0  0  0  0  0  0
  181.1730  184.4050  137.0390 C   0  0  0  0  0  0  0  0  0  0  0  0
  180.5510  185.4770  136.4560 O   0  0  0  0  0  0  0  0  0  0  0  0
  1  9  2  0  0  0  0
  2 14  2  0  0  0  0
  3  2  1  0  0  0  0
  3 10  2  0  0  0  0
  5  1  1  0  0  0  0
  7  8  1  6  0  0  0
  7 10  1  0  0  0  0
  8  5  2  0  0  0  0
  9 11  1  0  0  0  0
 12 10  1  6  0  0  0
 12  4  1  0  0  0  0
 12  9  1  0  0  0  0
 13  4  2  0  0  0  0
 13  6  1  0  0  0  0
 14 13  1  0  0  0  0
 16 15  1  0  0  0  0
 17 18  1  0  0  0  0
 17 19  1  0  0  0  0
 18 16  1  0  0  0  0
 18 21  1  1  0  0  0
 20 19  1  1  0  0  0
 20 15  1  0  0  0  0
 20  7  1  0  0  0  0
 22 21  1  0  0  0  0
 23  8  1  0  0  0  0
 24 23  1  0  0  0  0
 25 24  1  0  0  0  0
 26 27  1  0  0  0  0
 26 25  1  0  0  0  0
 29 31  1  0  0  0  0
 29 30  1  0  0  0  0
 30 27  1  0  0  0  0
 30 28  1  0  0  0  0
 31 30  1  0  0  0  0
M  END
>  <MODEL>
2

>  <REMARK>
 VINA RESULT:      -6.1      8.554     12.199
  Name = 
  8 active torsions:
  status: ('A' for Active; 'I' for Inactive)
    1  A    between atoms: C_7  and  O_15
    2  A    between atoms: C_7  and  C_20
    3  A    between atoms: O_9  and  C_21
    4  A    between atoms: O_10  and  O_15
    5  A    between atoms: O_10  and  C_16
    6  A    between atoms: C_12  and  N_30
    7  A    between atoms: C_20  and  N_28
    8  A    between atoms: C_22  and  N_28
                            x       y       z     vdW  Elec       q    Type
                         _______ _______ _______ _____ _____    ______ ____

>  <TORSDO>
F 8

$$$$
=
 OpenBabel11042412323D

 31 34  0  0  1  0  0  0  0  0999 V2000
  186.0710  178.8930  141.5580 C   0  0  0  0  0  3  0  0  0  0  0  0
  188.7670  178.7990  137.0880 C   0  0  0  0  0  3  0  0  0  0  0  0
  187.4020  178.5330  137.4480 N   0  0  0  0  0  0  0  0  0  0  0  0
  188.9250  177.3730  139.7240 N   0  0  0  0  0  0  0  0  0  0  0  0
  185.2100  179.6530  140.6940 N   0  0  0  0  0  0  0  0  0  0  0  0
  190.9120  176.3540  138.8580 C   0  0  0  0  0  1  0  0  0  0  0  0
  185.4730  178.1000  138.8380 C   0  0  2  0  0  3  0  0  0  0  0  0
  184.9080  179.3500  139.4660 C   0  0  0  0  0  0  0  0  0  0  0  0
  187.1880  178.2420  141.1940 C   0  0  0  0  0  0  0  0  0  0  0  0
  186.9490  178.2510  138.6320 C   0  0  0  0  0  0  0  0  0  0  0  0
  187.8300  177.5000  142.1800 O   0  0  0  0  0  1  0  0  0  0  0  0
  187.8530  178.3530  139.8310 C   0  0  2  0  0  3  0  0  0  0  0  0
  189.8040  177.3390  138.7700 C   0  0  0  0  0  0  0  0  0  0  0  0
  189.7980  178.2700  137.6790 N   0  0  0  0  0  0  0  0  0  0  0  0
  185.4450  176.3390  137.2230 C   0  0  0  0  0  2  0  0  0  0  0  0
  184.8270  175.8390  135.9180 C   0  0  0  0  0  2  0  0  0  0  0  0
  182.6280  176.7580  136.7290 C   0  0  0  0  0  2  0  0  0  0  0  0
  183.3360  175.5570  136.1010 C   0  0  2  0  0  3  0  0  0  0  0  0
  183.3570  177.2060  137.9940 C   0  0  0  0  0  2  0  0  0  0  0  0
  184.7490  177.5450  137.6780 N   0  0  1  0  0  0  0  0  0  0  0  0
  183.1520  174.4210  136.8940 O   0  0  0  0  0  0  0  0  0  0  0  0
  183.6400  173.4310  136.1770 O   0  0  0  0  0  1  0  0  0  0  0  0
  184.0680  180.1930  138.7390 O   0  0  0  0  0  0  0  0  0  0  0  0
  182.9600  180.7100  139.2860 O   0  0  0  0  0  0  0  0  0  0  0  0
  182.0130  180.6810  138.2600 C   0  0  0  0  0  2  0  0  0  0  0  0
  181.0990  181.8890  138.3590 C   0  0  0  0  0  2  0  0  0  0  0  0
  180.9940  182.5380  137.0610 N   0  0  0  0  0  2  0  0  0  0  0  0
  179.8790  184.5500  137.9680 O   0  0  0  0  0  1  0  0  0  0  0  0
  182.1640  184.5530  137.5210 O   0  0  0  0  0  0  0  0  0  0  0  0
  180.9470  183.9740  137.2790 C   0  0  0  0  0  0  0  0  0  0  0  0
  181.5550  184.7550  136.3320 O   0  0  0  0  0  0  0  0  0  0  0  0
  2  3  1  0  0  0  0
  2 14  2  0  0  0  0
  3 10  2  0  0  0  0
  4 12  1  0  0  0  0
  5  1  1  0  0  0  0
  7 10  1  6  0  0  0
  7  8  1  0  0  0  0
  8  5  2  0  0  0  0
  9  1  2  0  0  0  0
  9 11  1  0  0  0  0
 12 10  1  6  0  0  0
 12  9  1  0  0  0  0
 13  6  1  0  0  0  0
 13  4  2  0  0  0  0
 14 13  1  0  0  0  0
 16 18  1  0  0  0  0
 16 15  1  0  0  0  0
 17 19  1  0  0  0  0
 18 17  1  0  0  0  0
 18 21  1  1  0  0  0
 20 15  1  1  0  0  0
 20 19  1  0  0  0  0
 20  7  1  0  0  0  0
 22 21  1  0  0  0  0
 23 24  1  0  0  0  0
 23  8  1  0  0  0  0
 25 26  1  0  0  0  0
 25 24  1  0  0  0  0
 27 30  1  0  0  0  0
 27 26  1  0  0  0  0
 30 29  1  0  0  0  0
 30 28  1  0  0  0  0
 31 30  1  0  0  0  0
 31 29  1  0  0  0  0
M  END
>  <MODEL>
3

>  <REMARK>
 VINA RESULT:      -6.1      5.592     10.549
  Name = 
  8 active torsions:
  status: ('A' for Active; 'I' for Inactive)
    1  A    between atoms: C_7  and  O_15
    2  A    between atoms: C_7  and  C_20
    3  A    between atoms: O_9  and  C_21
    4  A    between atoms: O_10  and  O_15
    5  A    between atoms: O_10  and  C_16
    6  A    between atoms: C_12  and  N_30
    7  A    between atoms: C_20  and  N_28
    8  A    between atoms: C_22  and  N_28
                            x       y       z     vdW  Elec       q    Type
                         _______ _______ _______ _____ _____    ______ ____

>  <TORSDO>
F 8

$$$$
=
 OpenBabel11042412323D

 31 34  0  0  1  0  0  0  0  0999 V2000
  190.1480  174.1620  137.2200 C   0  0  0  0  0  3  0  0  0  0  0  0
  188.3600  179.0630  137.0060 C   0  0  0  0  0  3  0  0  0  0  0  0
  189.1340  178.3130  137.9560 N   0  0  0  0  0  0  0  0  0  0  0  0
  187.1310  176.3250  137.0150 N   0  0  0  0  0  0  0  0  0  0  0  0
  191.3340  174.9090  137.5410 N   0  0  0  0  0  0  0  0  0  0  0  0
  185.0390  177.4510  136.7090 C   0  0  0  0  0  1  0  0  0  0  0  0
  190.1460  176.4090  139.0470 C   0  0  2  0  0  3  0  0  0  0  0  0
  191.3940  175.9270  138.3490 C   0  0  0  0  0  0  0  0  0  0  0  0
  188.9120  174.6640  137.0620 C   0  0  0  0  0  0  0  0  0  0  0  0
  189.2060  177.0190  138.0540 C   0  0  0  0  0  0  0  0  0  0  0  0
  187.8900  173.7490  136.8290 O   0  0  0  0  0  1  0  0  0  0  0  0
  188.5760  176.1460  137.0020 C   0  0  2  0  0  3  0  0  0  0  0  0
  186.5230  177.4470  136.7810 C   0  0  0  0  0  0  0  0  0  0  0  0
  187.2260  178.6660  136.5050 N   0  0  0  0  0  0  0  0  0  0  0  0
  189.0500  177.2700  140.9870 C   0  0  0  0  0  2  0  0  0  0  0  0
  189.1590  178.2280  142.1730 C   0  0  0  0  0  2  0  0  0  0  0  0
  191.5770  177.5510  142.3620 C   0  0  0  0  0  2  0  0  0  0  0  0
  190.2720  177.7840  143.1240 C   0  0  2  0  0  3  0  0  0  0  0  0
  191.3430  176.6250  141.1710 C   0  0  0  0  0  2  0  0  0  0  0  0
  190.3290  177.2010  140.2790 N   0  0  1  0  0  0  0  0  0  0  0  0
  189.8950  176.6210  143.8000 O   0  0  0  0  0  0  0  0  0  0  0  0
  188.9350  177.0040  144.6140 O   0  0  0  0  0  1  0  0  0  0  0  0
  192.6160  176.5660  138.5550 O   0  0  0  0  0  0  0  0  0  0  0  0
  193.7050  176.2270  137.8530 O   0  0  0  0  0  0  0  0  0  0  0  0
  194.3750  175.3070  138.6630 C   0  0  0  0  0  2  0  0  0  0  0  0
  195.2240  174.3820  137.8100 C   0  0  0  0  0  2  0  0  0  0  0  0
  196.5940  174.8730  137.7610 N   0  0  0  0  0  2  0  0  0  0  0  0
  196.2540  174.4260  135.3520 O   0  0  0  0  0  1  0  0  0  0  0  0
  197.2960  176.3820  136.0670 O   0  0  0  0  0  0  0  0  0  0  0  0
  196.9410  175.0950  136.3670 C   0  0  0  0  0  0  0  0  0  0  0  0
  198.2460  175.4220  136.1080 O   0  0  0  0  0  0  0  0  0  0  0  0
  1  5  1  0  0  0  0
  2  3  1  0  0  0  0
  3 10  2  0  0  0  0
  5  8  2  0  0  0  0
  6 13  1  0  0  0  0
  7 10  1  6  0  0  0
  7 20  1  0  0  0  0
  8 23  1  0  0  0  0
  8  7  1  0  0  0  0
  9  1  2  0  0  0  0
 11  9  1  0  0  0  0
 12  4  1  1  0  0  0
 12  9  1  0  0  0  0
 12 10  1  0  0  0  0
 13  4  2  0  0  0  0
 14 13  1  0  0  0  0
 14  2  2  0  0  0  0
 15 16  1  0  0  0  0
 16 18  1  0  0  0  0
 17 18  1  0  0  0  0
 18 21  1  6  0  0  0
 19 17  1  0  0  0  0
 20 15  1  1  0  0  0
 20 19  1  0  0  0  0
 21 22  1  0  0  0  0
 24 23  1  0  0  0  0
 24 25  1  0  0  0  0
 26 25  1  0  0  0  0
 27 26  1  0  0  0  0
 28 30  1  0  0  0  0
 29 31  1  0  0  0  0
 29 30  1  0  0  0  0
 30 27  1  0  0  0  0
 31 30  1  0  0  0  0
M  END
>  <MODEL>
4

>  <REMARK>
 VINA RESULT:      -6.0      1.439      1.581
  Name = 
  8 active torsions:
  status: ('A' for Active; 'I' for Inactive)
    1  A    between atoms: C_7  and  O_15
    2  A    between atoms: C_7  and  C_20
    3  A    between atoms: O_9  and  C_21
    4  A    between atoms: O_10  and  O_15
    5  A    between atoms: O_10  and  C_16
    6  A    between atoms: C_12  and  N_30
    7  A    between atoms: C_20  and  N_28
    8  A    between atoms: C_22  and  N_28
                            x       y       z     vdW  Elec       q    Type
                         _______ _______ _______ _____ _____    ______ ____

>  <TORSDO>
F 8

$$$$
=
 OpenBabel11042412323D

 31 34  0  0  1  0  0  0  0  0999 V2000
  180.8460  176.1010  139.7430 C   0  0  0  0  0  3  0  0  0  0  0  0
  184.9780  179.2910  139.8680 C   0  0  0  0  0  3  0  0  0  0  0  0
  183.5550  179.4850  139.8380 N   0  0  0  0  0  0  0  0  0  0  0  0
  183.9480  177.1790  138.0010 N   0  0  0  0  0  0  0  0  0  0  0  0
  180.4800  176.9950  140.8080 N   0  0  0  0  0  0  0  0  0  0  0  0
  185.9600  177.5450  136.7530 C   0  0  0  0  0  1  0  0  0  0  0  0
  181.2080  178.9690  139.5850 C   0  0  2  0  0  3  0  0  0  0  0  0
  180.6210  178.2880  140.7960 C   0  0  0  0  0  0  0  0  0  0  0  0
  181.9210  176.2140  138.9450 C   0  0  0  0  0  0  0  0  0  0  0  0
  182.6590  178.6260  139.4540 C   0  0  0  0  0  0  0  0  0  0  0  0
  182.0430  175.2780  137.9230 O   0  0  0  0  0  1  0  0  0  0  0  0
  183.0550  177.2060  139.1510 C   0  0  2  0  0  3  0  0  0  0  0  0
  185.1070  177.7610  137.9510 C   0  0  0  0  0  0  0  0  0  0  0  0
  185.6340  178.5330  139.0380 N   0  0  0  0  0  0  0  0  0  0  0  0
  181.3900  180.8280  138.0940 C   0  0  0  0  0  2  0  0  0  0  0  0
  181.2510  182.3430  137.9490 C   0  0  0  0  0  2  0  0  0  0  0  0
  179.2250  182.1930  139.4390 C   0  0  0  0  0  2  0  0  0  0  0  0
  179.7950  182.7710  138.1420 C   0  0  2  0  0  3  0  0  0  0  0  0
  179.4650  180.6870  139.5030 C   0  0  0  0  0  2  0  0  0  0  0  0
  180.9030  180.4030  139.4080 N   0  0  1  0  0  0  0  0  0  0  0  0
  179.0220  182.3630  137.0520 O   0  0  0  0  0  0  0  0  0  0  0  0
  179.4260  183.1190  136.0540 O   0  0  0  0  0  1  0  0  0  0  0  0
  180.2340  179.0290  141.9120 O   0  0  0  0  0  0  0  0  0  0  0  0
  181.1140  179.7800  142.5870 O   0  0  0  0  0  0  0  0  0  0  0  0
  181.5270  178.9710  143.6470 C   0  0  0  0  0  2  0  0  0  0  0  0
  183.0380  179.0290  143.7890 C   0  0  0  0  0  2  0  0  0  0  0  0
  183.4000  179.1060  145.1960 N   0  0  0  0  0  2  0  0  0  0  0  0
  185.5270  178.3290  144.2010 O   0  0  0  0  0  1  0  0  0  0  0  0
  185.5120  179.5270  146.1970 O   0  0  0  0  0  0  0  0  0  0  0  0
  184.8050  178.7530  145.3170 C   0  0  0  0  0  0  0  0  0  0  0  0
  185.2060  178.2540  146.5280 O   0  0  0  0  0  0  0  0  0  0  0  0
  1  5  1  0  0  0  0
  3  2  1  0  0  0  0
  6 13  1  0  0  0  0
  7 10  1  1  0  0  0
  7  8  1  0  0  0  0
  8  5  2  0  0  0  0
  8 23  1  0  0  0  0
  9 12  1  0  0  0  0
  9  1  2  0  0  0  0
 10  3  2  0  0  0  0
 11  9  1  0  0  0  0
 12  4  1  6  0  0  0
 12 10  1  0  0  0  0
 13  4  2  0  0  0  0
 13 14  1  0  0  0  0
 14  2  2  0  0  0  0
 16 15  1  0  0  0  0
 16 18  1  0  0  0  0
 17 19  1  0  0  0  0
 18 21  1  6  0  0  0
 18 17  1  0  0  0  0
 20 15  1  6  0  0  0
 20 19  1  0  0  0  0
 20  7  1  0  0  0  0
 22 21  1  0  0  0  0
 23 24  1  0  0  0  0
 24 25  1  0  0  0  0
 25 26  1  0  0  0  0
 26 27  1  0  0  0  0
 27 30  1  0  0  0  0
 28 30  1  0  0  0  0
 29 31  1  0  0  0  0
 30 29  1  0  0  0  0
 30 31  1  0  0  0  0
M  END
>  <MODEL>
5

>  <REMARK>
 VINA RESULT:      -5.9      7.382     10.858
  Name = 
  8 active torsions:
  status: ('A' for Active; 'I' for Inactive)
    1  A    between atoms: C_7  and  O_15
    2  A    between atoms: C_7  and  C_20
    3  A    between atoms: O_9  and  C_21
    4  A    between atoms: O_10  and  O_15
    5  A    between atoms: O_10  and  C_16
    6  A    between atoms: C_12  and  N_30
    7  A    between atoms: C_20  and  N_28
    8  A    between atoms: C_22  and  N_28
                            x       y       z     vdW  Elec       q    Type
                         _______ _______ _______ _____ _____    ______ ____

>  <TORSDO>
F 8

$$$$
=
 OpenBabel11042412323D

 31 34  0  0  1  0  0  0  0  0999 V2000
  182.2740  180.5310  138.3390 C   0  0  0  0  0  3  0  0  0  0  0  0
  181.8840  175.4500  139.4810 C   0  0  0  0  0  3  0  0  0  0  0  0
  182.9620  176.3160  139.0920 N   0  0  0  0  0  0  0  0  0  0  0  0
  180.6960  177.2900  137.4290 N   0  0  0  0  0  0  0  0  0  0  0  0
  183.3560  180.3670  139.2710 N   0  0  0  0  0  0  0  0  0  0  0  0
  179.4090  175.3950  136.7260 C   0  0  0  0  0  1  0  0  0  0  0  0
  184.0950  178.2820  138.2580 C   0  0  2  0  0  3  0  0  0  0  0  0
  184.2020  179.3800  139.2870 C   0  0  0  0  0  0  0  0  0  0  0  0
  181.5030  179.5510  137.8380 C   0  0  0  0  0  0  0  0  0  0  0  0
  182.8610  177.4690  138.5000 C   0  0  0  0  0  0  0  0  0  0  0  0
  180.5590  179.9230  136.8860 O   0  0  0  0  0  1  0  0  0  0  0  0
  181.5110  178.1080  138.3160 C   0  0  2  0  0  3  0  0  0  0  0  0
  180.3440  176.0640  137.6680 C   0  0  0  0  0  0  0  0  0  0  0  0
  180.7510  175.3580  138.8480 N   0  0  0  0  0  0  0  0  0  0  0  0
  185.1000  176.6870  136.7890 C   0  0  0  0  0  2  0  0  0  0  0  0
  186.2650  175.7180  136.5910 C   0  0  0  0  0  2  0  0  0  0  0  0
  187.7430  177.4350  137.6900 C   0  0  0  0  0  2  0  0  0  0  0  0
  187.5900  176.4780  136.5080 C   0  0  2  0  0  3  0  0  0  0  0  0
  186.5050  178.3180  137.8270 C   0  0  0  0  0  2  0  0  0  0  0  0
  185.3100  177.4830  138.0000 N   0  0  1  0  0  0  0  0  0  0  0  0
  187.6690  177.1830  135.3040 O   0  0  0  0  0  0  0  0  0  0  0  0
  188.8900  177.6730  135.2840 O   0  0  0  0  0  1  0  0  0  0  0  0
  185.1970  179.3450  140.2630 O   0  0  0  0  0  0  0  0  0  0  0  0
  185.1760  178.4330  141.2450 O   0  0  0  0  0  0  0  0  0  0  0  0
  185.0550  179.1820  142.4180 C   0  0  0  0  0  2  0  0  0  0  0  0
  184.9480  178.2570  143.6180 C   0  0  0  0  0  2  0  0  0  0  0  0
  184.5490  179.0160  144.7930 N   0  0  0  0  0  2  0  0  0  0  0  0
  186.4890  177.7600  145.6760 O   0  0  0  0  0  1  0  0  0  0  0  0
  185.6830  179.6430  146.7840 O   0  0  0  0  0  0  0  0  0  0  0  0
  185.4260  178.6390  145.8900 C   0  0  0  0  0  0  0  0  0  0  0  0
  184.8670  178.6270  147.1400 O   0  0  0  0  0  0  0  0  0  0  0  0
  1  5  1  0  0  0  0
  3  2  1  0  0  0  0
  4 13  2  0  0  0  0
  5  8  2  0  0  0  0
  6 13  1  0  0  0  0
  7 10  1  1  0  0  0
  7  8  1  0  0  0  0
  8 23  1  0  0  0  0
  9 12  1  0  0  0  0
  9  1  2  0  0  0  0
 10  3  2  0  0  0  0
 11  9  1  0  0  0  0
 12  4  1  6  0  0  0
 12 10  1  0  0  0  0
 13 14  1  0  0  0  0
 14  2  2  0  0  0  0
 16 15  1  0  0  0  0
 17 19  1  0  0  0  0
 18 21  1  6  0  0  0
 18 16  1  0  0  0  0
 18 17  1  0  0  0  0
 19 20  1  0  0  0  0
 20 15  1  6  0  0  0
 20  7  1  0  0  0  0
 22 21  1  0  0  0  0
 23 24  1  0  0  0  0
 24 25  1  0  0  0  0
 25 26  1  0  0  0  0
 26 27  1  0  0  0  0
 27 30  1  0  0  0  0
 28 30  1  0  0  0  0
 29 31  1  0  0  0  0
 30 29  1  0  0  0  0
 30 31  1  0  0  0  0
M  END
>  <MODEL>
6

>  <REMARK>
 VINA RESULT:      -5.8      5.823      9.261
  Name = 
  8 active torsions:
  status: ('A' for Active; 'I' for Inactive)
    1  A    between atoms: C_7  and  O_15
    2  A    between atoms: C_7  and  C_20
    3  A    between atoms: O_9  and  C_21
    4  A    between atoms: O_10  and  O_15
    5  A    between atoms: O_10  and  C_16
    6  A    between atoms: C_12  and  N_30
    7  A    between atoms: C_20  and  N_28
    8  A    between atoms: C_22  and  N_28
                            x       y       z     vdW  Elec       q    Type
                         _______ _______ _______ _____ _____    ______ ____

>  <TORSDO>
F 8

$$$$
=
 OpenBabel11042412323D

 31 34  0  0  1  0  0  0  0  0999 V2000
  188.9160  177.5380  139.9720 C   0  0  0  0  0  3  0  0  0  0  0  0
  191.0680  176.0750  135.4460 C   0  0  0  0  0  3  0  0  0  0  0  0
  189.7520  175.9820  136.0120 N   0  0  0  0  0  0  0  0  0  0  0  0
  191.5160  175.4390  138.3440 N   0  0  0  0  0  0  0  0  0  0  0  0
  187.9680  178.0630  139.0260 N   0  0  0  0  0  0  0  0  0  0  0  0
  193.3770  174.1300  137.5920 C   0  0  0  0  0  1  0  0  0  0  0  0
  187.9940  176.0420  137.6700 C   0  0  2  0  0  3  0  0  0  0  0  0
  187.5210  177.4420  137.9750 C   0  0  0  0  0  0  0  0  0  0  0  0
  189.9740  176.7620  139.6880 C   0  0  0  0  0  0  0  0  0  0  0  0
  189.4370  176.0630  137.2700 C   0  0  0  0  0  0  0  0  0  0  0  0
  190.7180  176.2980  140.7680 O   0  0  0  0  0  1  0  0  0  0  0  0
  190.4770  176.4570  138.2850 C   0  0  2  0  0  3  0  0  0  0  0  0
  192.2770  175.1000  137.3490 C   0  0  0  0  0  0  0  0  0  0  0  0
  192.1560  175.6870  136.0460 N   0  0  0  0  0  0  0  0  0  0  0  0
  187.5760  173.8240  136.8860 C   0  0  0  0  0  2  0  0  0  0  0  0
  186.8220  172.9720  135.8660 C   0  0  0  0  0  2  0  0  0  0  0  0
  184.8650  174.5270  136.1670 C   0  0  0  0  0  2  0  0  0  0  0  0
  185.3130  173.0670  136.0930 C   0  0  2  0  0  3  0  0  0  0  0  0
  185.7160  175.2970  137.1750 C   0  0  0  0  0  2  0  0  0  0  0  0
  187.1330  175.2170  136.8000 N   0  0  1  0  0  0  0  0  0  0  0  0
  184.9570  172.3940  137.2650 O   0  0  0  0  0  0  0  0  0  0  0  0
  183.8100  171.8140  136.9810 O   0  0  0  0  0  1  0  0  0  0  0  0
  186.6120  178.0840  137.1350 O   0  0  0  0  0  0  0  0  0  0  0  0
  185.7540  178.9980  137.6080 O   0  0  0  0  0  0  0  0  0  0  0  0
  184.6480  178.2570  138.0310 C   0  0  0  0  0  2  0  0  0  0  0  0
  183.8600  179.0410  139.0650 C   0  0  0  0  0  2  0  0  0  0  0  0
  184.7720  179.7510  139.9490 N   0  0  0  0  0  2  0  0  0  0  0  0
  183.9760  177.9550  141.4520 O   0  0  0  0  0  1  0  0  0  0  0  0
  186.1240  178.8270  141.6690 O   0  0  0  0  0  0  0  0  0  0  0  0
  184.8520  179.0120  141.1980 C   0  0  0  0  0  0  0  0  0  0  0  0
  185.3050  179.7050  142.2880 O   0  0  0  0  0  0  0  0  0  0  0  0
  2  3  1  0  0  0  0
  2 14  2  0  0  0  0
  3 10  2  0  0  0  0
  5  1  1  0  0  0  0
  7 10  1  6  0  0  0
  7  8  1  0  0  0  0
  8  5  2  0  0  0  0
  9  1  2  0  0  0  0
  9 11  1  0  0  0  0
 12 10  1  6  0  0  0
 12  4  1  0  0  0  0
 12  9  1  0  0  0  0
 13  6  1  0  0  0  0
 13  4  2  0  0  0  0
 14 13  1  0  0  0  0
 16 18  1  0  0  0  0
 16 15  1  0  0  0  0
 17 19  1  0  0  0  0
 18 17  1  0  0  0  0
 18 21  1  1  0  0  0
 20 15  1  1  0  0  0
 20 19  1  0  0  0  0
 20  7  1  0  0  0  0
 22 21  1  0  0  0  0
 23 24  1  0  0  0  0
 23  8  1  0  0  0  0
 24 25  1  0  0  0  0
 25 26  1  0  0  0  0
 26 27  1  0  0  0  0
 27 30  1  0  0  0  0
 29 31  1  0  0  0  0
 30 28  1  0  0  0  0
 30 29  1  0  0  0  0
 30 31  1  0  0  0  0
M  END
>  <MODEL>
7

>  <REMARK>
 VINA RESULT:      -5.8      3.369      8.256
  Name = 
  8 active torsions:
  status: ('A' for Active; 'I' for Inactive)
    1  A    between atoms: C_7  and  O_15
    2  A    between atoms: C_7  and  C_20
    3  A    between atoms: O_9  and  C_21
    4  A    between atoms: O_10  and  O_15
    5  A    between atoms: O_10  and  C_16
    6  A    between atoms: C_12  and  N_30
    7  A    between atoms: C_20  and  N_28
    8  A    between atoms: C_22  and  N_28
                            x       y       z     vdW  Elec       q    Type
                         _______ _______ _______ _____ _____    ______ ____

>  <TORSDO>
F 8

$$$$
=
 OpenBabel11042412323D

 31 34  0  0  1  0  0  0  0  0999 V2000
  184.1940  176.6020  136.8980 C   0  0  0  0  0  3  0  0  0  0  0  0
  182.3070  181.1200  138.7120 C   0  0  0  0  0  3  0  0  0  0  0  0
  183.3860  180.2530  139.0940 N   0  0  0  0  0  0  0  0  0  0  0  0
  181.2380  178.3420  138.3320 N   0  0  0  0  0  0  0  0  0  0  0  0
  185.3960  177.3840  137.0130 N   0  0  0  0  0  0  0  0  0  0  0  0
  179.1410  179.2330  139.0710 C   0  0  0  0  0  1  0  0  0  0  0  0
  184.7710  178.2750  139.1910 C   0  0  2  0  0  3  0  0  0  0  0  0
  185.7070  178.1540  138.0140 C   0  0  0  0  0  0  0  0  0  0  0  0
  182.9680  176.9660  137.3080 C   0  0  0  0  0  0  0  0  0  0  0  0
  183.5250  178.9990  138.7840 C   0  0  0  0  0  0  0  0  0  0  0  0
  181.9560  176.0220  137.1700 O   0  0  0  0  0  1  0  0  0  0  0  0
  182.5910  178.3570  137.7930 C   0  0  2  0  0  3  0  0  0  0  0  0
  180.5550  179.3990  138.6470 C   0  0  0  0  0  0  0  0  0  0  0  0
  181.0820  180.7270  138.5190 N   0  0  0  0  0  0  0  0  0  0  0  0
  184.5130  178.2540  141.5660 C   0  0  0  0  0  2  0  0  0  0  0  0
  184.9850  178.8580  142.8880 C   0  0  0  0  0  2  0  0  0  0  0  0
  187.3160  178.8590  141.9350 C   0  0  0  0  0  2  0  0  0  0  0  0
  186.4510  178.5090  143.1470 C   0  0  2  0  0  3  0  0  0  0  0  0
  186.7260  178.2510  140.6640 C   0  0  0  0  0  2  0  0  0  0  0  0
  185.3530  178.7330  140.4670 N   0  0  1  0  0  0  0  0  0  0  0  0
  186.5800  177.1510  143.4540 O   0  0  0  0  0  0  0  0  0  0  0  0
  187.8390  177.0070  143.8080 O   0  0  0  0  0  1  0  0  0  0  0  0
  186.9050  178.8670  137.9820 O   0  0  0  0  0  0  0  0  0  0  0  0
  187.5810  179.0400  136.8380 O   0  0  0  0  0  0  0  0  0  0  0  0
  188.9210  179.1020  137.2280 C   0  0  0  0  0  2  0  0  0  0  0  0
  189.3080  177.8350  137.9700 C   0  0  0  0  0  2  0  0  0  0  0  0
  189.8950  178.1760  139.2570 N   0  0  0  0  0  2  0  0  0  0  0  0
  190.5550  175.7990  139.0830 O   0  0  0  0  0  1  0  0  0  0  0  0
  191.3960  177.1490  140.7840 O   0  0  0  0  0  0  0  0  0  0  0  0
  190.4120  176.9550  139.8520 C   0  0  0  0  0  0  0  0  0  0  0  0
  190.1630  176.7730  141.1860 O   0  0  0  0  0  0  0  0  0  0  0  0
  1  5  1  0  0  0  0
  1  9  2  0  0  0  0
  2  3  1  0  0  0  0
  4 13  2  0  0  0  0
  5  8  2  0  0  0  0
  7  8  1  6  0  0  0
  7 20  1  0  0  0  0
 10  3  2  0  0  0  0
 10  7  1  0  0  0  0
 11  9  1  0  0  0  0
 12  9  1  1  0  0  0
 12  4  1  0  0  0  0
 12 10  1  0  0  0  0
 13  6  1  0  0  0  0
 14 13  1  0  0  0  0
 14  2  2  0  0  0  0
 15 16  1  0  0  0  0
 16 18  1  0  0  0  0
 17 18  1  0  0  0  0
 18 21  1  6  0  0  0
 19 17  1  0  0  0  0
 20 19  1  1  0  0  0
 20 15  1  0  0  0  0
 21 22  1  0  0  0  0
 23  8  1  0  0  0  0
 24 25  1  0  0  0  0
 24 23  1  0  0  0  0
 25 26  1  0  0  0  0
 26 27  1  0  0  0  0
 27 30  1  0  0  0  0
 28 30  1  0  0  0  0
 29 31  1  0  0  0  0
 30 29  1  0  0  0  0
 30 31  1  0  0  0  0
M  END
>  <MODEL>
8

>  <REMARK>
 VINA RESULT:      -5.8      3.873      6.139
  Name = 
  8 active torsions:
  status: ('A' for Active; 'I' for Inactive)
    1  A    between atoms: C_7  and  O_15
    2  A    between atoms: C_7  and  C_20
    3  A    between atoms: O_9  and  C_21
    4  A    between atoms: O_10  and  O_15
    5  A    between atoms: O_10  and  C_16
    6  A    between atoms: C_12  and  N_30
    7  A    between atoms: C_20  and  N_28
    8  A    between atoms: C_22  and  N_28
                            x       y       z     vdW  Elec       q    Type
                         _______ _______ _______ _____ _____    ______ ____

>  <TORSDO>
F 8

$$$$
=
 OpenBabel11042412323D

 31 34  0  0  1  0  0  0  0  0999 V2000
  185.2500  178.6940  141.6650 C   0  0  0  0  0  3  0  0  0  0  0  0
  188.6770  176.3520  138.4960 C   0  0  0  0  0  3  0  0  0  0  0  0
  188.7530  176.9440  139.8030 N   0  0  0  0  0  0  0  0  0  0  0  0
  186.9250  178.7850  138.3480 N   0  0  0  0  0  0  0  0  0  0  0  0
  185.8680  177.7540  142.5620 N   0  0  0  0  0  0  0  0  0  0  0  0
  187.7110  179.0020  136.0950 C   0  0  0  0  0  1  0  0  0  0  0  0
  188.1080  178.2340  141.7420 C   0  0  2  0  0  3  0  0  0  0  0  0
  187.1410  177.5030  142.6400 C   0  0  0  0  0  0  0  0  0  0  0  0
  185.6180  178.9400  140.3970 C   0  0  0  0  0  0  0  0  0  0  0  0
  187.9220  177.7980  140.3220 C   0  0  0  0  0  0  0  0  0  0  0  0
  184.9310  179.9490  139.7310 O   0  0  0  0  0  1  0  0  0  0  0  0
  186.6350  178.1250  139.6130 C   0  0  2  0  0  3  0  0  0  0  0  0
  187.5990  178.2540  137.3750 C   0  0  0  0  0  0  0  0  0  0  0  0
  188.1670  176.9390  137.4520 N   0  0  0  0  0  0  0  0  0  0  0  0
  189.5600  178.8200  143.5480 C   0  0  0  0  0  2  0  0  0  0  0  0
  191.0090  179.0630  143.9690 C   0  0  0  0  0  2  0  0  0  0  0  0
  191.6540  177.1310  142.4880 C   0  0  0  0  0  2  0  0  0  0  0  0
  191.8240  177.7730  143.8660 C   0  0  2  0  0  3  0  0  0  0  0  0
  190.1730  176.9830  142.1470 C   0  0  0  0  0  2  0  0  0  0  0  0
  189.5160  178.2960  142.1810 N   0  0  1  0  0  0  0  0  0  0  0  0
  191.4400  176.8770  144.8660 O   0  0  0  0  0  0  0  0  0  0  0  0
  192.0060  177.3370  145.9620 O   0  0  0  0  0  1  0  0  0  0  0  0
  187.5970  176.5510  143.5510 O   0  0  0  0  0  0  0  0  0  0  0  0
  187.9210  176.8890  144.8060 O   0  0  0  0  0  0  0  0  0  0  0  0
  186.7010  177.1940  145.4140 C   0  0  0  0  0  2  0  0  0  0  0  0
  186.9030  178.2500  146.4870 C   0  0  0  0  0  2  0  0  0  0  0  0
  187.1700  177.6100  147.7660 N   0  0  0  0  0  2  0  0  0  0  0  0
  189.2610  176.2910  147.6930 O   0  0  0  0  0  1  0  0  0  0  0  0
  189.3090  178.6130  147.5250 O   0  0  0  0  0  0  0  0  0  0  0  0
  188.6110  177.5050  147.9230 C   0  0  0  0  0  0  0  0  0  0  0  0
  189.1860  178.3410  148.8430 O   0  0  0  0  0  0  0  0  0  0  0  0
  1  5  1  0  0  0  0
  2  3  1  0  0  0  0
  3 10  2  0  0  0  0
  5  8  2  0  0  0  0
  6 13  1  0  0  0  0
  7 10  1  6  0  0  0
  7 20  1  0  0  0  0
  7  8  1  0  0  0  0
  8 23  1  0  0  0  0
  9  1  2  0  0  0  0
 11  9  1  0  0  0  0
 12  4  1  6  0  0  0
 12 10  1  0  0  0  0
 12  9  1  0  0  0  0
 13 14  1  0  0  0  0
 13  4  2  0  0  0  0
 14  2  2  0  0  0  0
 15 16  1  0  0  0  0
 17 18  1  0  0  0  0
 18 16  1  0  0  0  0
 18 21  1  1  0  0  0
 19 17  1  0  0  0  0
 20 19  1  1  0  0  0
 20 15  1  0  0  0  0
 21 22  1  0  0  0  0
 23 24  1  0  0  0  0
 24 25  1  0  0  0  0
 25 26  1  0  0  0  0
 26 27  1  0  0  0  0
 27 30  1  0  0  0  0
 28 30  1  0  0  0  0
 29 30  1  0  0  0  0
 29 31  1  0  0  0  0
 30 31  1  0  0  0  0
M  END
>  <MODEL>
9

>  <REMARK>
 VINA RESULT:      -5.5      4.383      7.018
  Name = 
  8 active torsions:
  status: ('A' for Active; 'I' for Inactive)
    1  A    between atoms: C_7  and  O_15
    2  A    between atoms: C_7  and  C_20
    3  A    between atoms: O_9  and  C_21
    4  A    between atoms: O_10  and  O_15
    5  A    between atoms: O_10  and  C_16
    6  A    between atoms: C_12  and  N_30
    7  A    between atoms: C_20  and  N_28
    8  A    between atoms: C_22  and  N_28
                            x       y       z     vdW  Elec       q    Type
                         _______ _______ _______ _____ _____    ______ ____

>  <TORSDO>
F 8

$$$$
