=
 OpenBabel11042411403D

 65 75  0  0  1  0  0  0  0  0999 V2000
  186.3660  177.6360  146.7620 C   0  0  0  0  0  2  0  0  0  0  0  0
  187.7270  178.0070  137.2640 C   0  0  0  0  0  2  0  0  0  0  0  0
  186.3580  177.9160  145.4650 C   0  0  0  0  0  0  0  0  0  0  0  0
  185.1810  179.0090  141.2400 C   0  0  0  0  0  0  0  0  0  0  0  0
  189.1400  177.9420  137.7670 C   0  0  1  0  0  3  0  0  0  0  0  0
  189.3540  177.0500  139.4450 S   0  0  0  0  0  0  0  0  0  0  0  0
  186.8280  177.8330  138.6330 C   0  0  2  0  0  3  0  0  0  0  0  0
  186.4640  178.3440  141.8250 C   0  0  1  0  0  3  0  0  0  0  0  0
  185.5650  178.6950  138.7040 N   0  0  0  0  0  2  0  0  0  0  0  0
  183.4740  179.2930  143.2430 C   0  0  0  0  0  3  0  0  0  0  0  0
  185.6140  178.6100  144.3420 C   0  0  1  0  0  0  0  0  0  0  0  0
  184.0370  178.6020  144.4000 C   0  0  0  0  0  2  0  0  0  0  0  0
  187.2740  177.5660  144.3280 C   0  0  2  0  0  0  0  0  0  0  0  0
  184.8200  179.0710  139.7280 C   0  0  2  0  0  3  0  0  0  0  0  0
  187.7580  177.6850  139.9560 C   0  0  2  0  0  3  0  0  0  0  0  0
  184.2510  179.2620  142.1140 C   0  0  0  0  0  0  0  0  0  0  0  0
  187.8580  178.6810  141.2080 C   0  0  0  0  0  2  0  0  0  0  0  0
  186.2540  177.7070  143.2850 C   0  0  2  0  0  3  0  0  0  0  0  0
  183.5330  179.9030  139.2930 C   0  0  0  0  0  2  0  0  0  0  0  0
  182.7540  179.5950  138.2900 C   0  0  0  0  0  2  0  0  0  0  0  0
  181.6990  180.5800  138.0620 C   0  0  0  0  0  2  0  0  0  0  0  0
  181.0180  180.8230  139.3630 N   0  0  0  0  0  2  0  0  0  0  0  0
  178.9320  179.6950  140.5340 C   0  0  0  0  0  2  0  0  0  0  0  0
  180.2890  179.0320  140.7810 C   0  0  2  0  0  3  0  0  0  0  0  0
  180.0490  179.6570  139.4690 C   0  0  2  0  0  3  0  0  0  0  0  0
  180.2630  177.5480  140.6220 C   0  0  0  0  0  0  0  0  0  0  0  0
  179.2670  176.9830  141.2220 O   0  0  0  0  0  0  0  0  0  0  0  0
  179.0160  176.1140  138.5030 O   0  0  0  0  0  0  0  0  0  0  0  0
  180.2440  175.9460  138.6300 C   0  0  0  0  0  0  0  0  0  0  0  0
  180.9780  176.7560  139.6190 N   0  0  0  0  0  2  0  0  0  0  0  0
  180.8420  173.6680  137.7660 C   0  0  2  0  0  3  0  0  0  0  0  0
  180.2710  174.2000  136.5000 C   0  0  0  0  0  2  0  0  0  0  0  0
  179.5470  173.0490  138.2480 C   0  0  0  0  0  1  0  0  0  0  0  0
  180.9080  175.1540  137.4580 C   0  0  1  0  0  0  0  0  0  0  0  0
  183.4440  175.5720  134.8330 C   0  0  0  0  0  1  0  0  0  0  0  0
  182.2230  175.8980  135.5430 C   0  0  0  0  0  0  0  0  0  0  0  0
  181.3180  176.4560  134.8930 O   0  0  0  0  0  0  0  0  0  0  0  0
  182.1380  175.7790  136.9600 N   0  0  0  0  0  2  0  0  0  0  0  0
  188.4740  176.6630  144.3840 C   0  0  0  0  0  2  0  0  0  0  0  0
  189.7310  177.5530  144.8860 C   0  0  0  0  0  0  0  0  0  0  0  0
  190.1720  178.6950  144.5080 O   0  0  0  0  0  0  0  0  0  0  0  0
  190.3130  177.2970  147.4910 S   0  0  0  0  0  0  0  0  0  0  0  0
  191.7530  176.6280  148.0310 C   0  0  0  0  0  3  0  0  0  0  0  0
  190.6140  177.0990  145.9040 C   0  0  0  0  0  0  0  0  0  0  0  0
  191.7440  176.4820  145.7030 N   0  0  0  0  0  0  0  0  0  0  0  0
  192.3850  176.2430  146.8980 N   0  0  0  0  0  0  0  0  0  0  0  0
  189.9220  177.1710  136.6260 C   0  0  0  0  0  2  0  0  0  0  0  0
  191.2470  176.7820  137.1400 C   0  0  0  0  0  2  0  0  0  0  0  0
  191.4060  175.2530  137.2970 C   0  0  0  0  0  2  0  0  0  0  0  0
  191.8450  174.6520  135.9650 C   0  0  0  0  0  0  0  0  0  0  0  0
  191.7530  175.2820  134.9040 O   0  0  0  0  0  0  0  0  0  0  0  0
  192.8480  173.3940  135.9790 C   0  0  0  0  0  2  0  0  0  0  0  0
  199.1780  173.2100  135.5590 C   0  0  0  0  0  2  0  0  0  0  0  0
  195.4260  172.2160  135.6470 C   0  0  2  0  0  0  0  0  0  0  0  0
  195.0390  171.1800  136.7460 C   0  0  0  0  0  2  0  0  0  0  0  0
  196.8520  172.6910  136.0170 C   0  0  2  0  0  3  0  0  0  0  0  0
  197.7110  175.3180  135.5110 C   0  0  0  0  0  2  0  0  0  0  0  0
  194.4350  173.4230  135.6780 C   0  0  2  0  0  3  0  0  0  0  0  0
  196.6600  174.2620  135.9470 C   0  0  1  0  0  3  0  0  0  0  0  0
  198.8900  174.5660  134.8680 C   0  0  0  0  0  2  0  0  0  0  0  0
  193.7110  170.6000  135.2610 O   0  0  0  0  0  1  0  0  0  0  0  0
  195.0740  170.7600  135.3360 C   0  0  1  0  0  3  0  0  0  0  0  0
  194.7260  175.7900  135.3300 O   0  0  0  0  0  1  0  0  0  0  0  0
  198.1090  172.1220  135.3330 C   0  0  0  0  0  2  0  0  0  0  0  0
  195.1520  174.6740  136.1300 C   0  0  1  0  0  3  0  0  0  0  0  0
  2  5  1  0  0  0  0
  3  1  2  0  0  0  0
  4  8  1  0  0  0  0
  4 16  2  0  0  0  0
  5 47  1  6  0  0  0
  5  6  1  0  0  0  0
  6 15  1  0  0  0  0
  7  2  1  6  0  0  0
  7  9  1  0  0  0  0
  7 15  1  0  0  0  0
  8 17  1  1  0  0  0
  8 18  1  0  0  0  0
  9 14  1  0  0  0  0
 10 12  1  0  0  0  0
 11 12  1  6  0  0  0
 11  3  1  0  0  0  0
 13 11  1  0  0  0  0
 13 39  1  6  0  0  0
 13  3  1  0  0  0  0
 14 19  1  6  0  0  0
 14  4  1  0  0  0  0
 15 17  1  6  0  0  0
 16 10  2  0  0  0  0
 18 13  1  0  0  0  0
 18 11  1  0  0  0  0
 20 19  1  0  0  0  0
 21 20  1  0  0  0  0
 21 22  1  0  0  0  0
 22 25  1  0  0  0  0
 23 24  1  0  0  0  0
 25 23  1  0  0  0  0
 25 24  1  0  0  0  0
 26 24  1  0  0  0  0
 26 27  2  0  0  0  0
 28 29  2  0  0  0  0
 29 30  1  0  0  0  0
 30 26  1  0  0  0  0
 31 33  1  0  0  0  0
 32 34  1  0  0  0  0
 32 31  1  0  0  0  0
 34 31  1  0  0  0  0
 34 29  1  0  0  0  0
 35 36  1  0  0  0  0
 36 38  1  0  0  0  0
 37 36  2  0  0  0  0
 38 34  1  0  0  0  0
 39 40  1  0  0  0  0
 40 44  1  0  0  0  0
 41 40  2  0  0  0  0
 42 43  1  0  0  0  0
 44 42  1  0  0  0  0
 45 44  2  0  0  0  0
 45 46  1  0  0  0  0
 46 43  2  0  0  0  0
 47 48  1  0  0  0  0
 48 49  1  0  0  0  0
 50 52  1  0  0  0  0
 50 49  1  0  0  0  0
 51 50  2  0  0  0  0
 54 58  1  0  0  0  0
 54 56  1  0  0  0  0
 54 55  1  0  0  0  0
 57 59  1  0  0  0  0
 58 52  1  0  0  0  0
 58 65  1  0  0  0  0
 59 56  1  0  0  0  0
 59 65  1  0  0  0  0
 60 57  1  0  0  0  0
 60 53  1  0  0  0  0
 61 62  1  0  0  0  0
 62 54  1  0  0  0  0
 62 55  1  0  0  0  0
 63 65  1  0  0  0  0
 64 53  1  0  0  0  0
 64 56  1  0  0  0  0
M  END
>  <MODEL>
1

>  <REMARK>
 VINA RESULT:      -8.4      0.000      0.000
  Name = 
  16 active torsions:
  status: ('A' for Active; 'I' for Inactive)
    1  A    between atoms: N_1  and  C_15
    2  A    between atoms: N_1  and  C_40
    3  A    between atoms: C_3  and  C_34
    4  A    between atoms: C_4  and  C_56
    5  A    between atoms: C_9  and  C_20
    6  A    between atoms: C_9  and  C_46
    7  A    between atoms: C_15  and  C_54
    8  A    between atoms: C_20  and  C_64
    9  A    between atoms: C_21  and  C_25
   10  A    between atoms: C_24  and  C_41
   11  A    between atoms: C_25  and  C_46
   12  A    between atoms: C_28  and  C_60
   13  A    between atoms: C_31  and  C_64
   14  A    between atoms: N_36  and  C_60
   15  A    between atoms: C_41  and  C_50
   16  A    between atoms: C_50  and  C_53
                            x       y       z     vdW  Elec       q    Type
                         _______ _______ _______ _____ _____    ______ ____

>  <TORSDO>
F 16

$$$$
=
 OpenBabel11042411403D

 65 75  0  0  1  0  0  0  0  0999 V2000
  186.1320  177.7390  146.9450 C   0  0  0  0  0  2  0  0  0  0  0  0
  187.5980  178.1410  137.4650 C   0  0  0  0  0  2  0  0  0  0  0  0
  186.1250  178.0120  145.6470 C   0  0  0  0  0  0  0  0  0  0  0  0
  184.9430  179.0140  141.4000 C   0  0  0  0  0  0  0  0  0  0  0  0
  189.0050  178.1610  137.9870 C   0  0  1  0  0  3  0  0  0  0  0  0
  189.2480  177.2910  139.6720 S   0  0  0  0  0  0  0  0  0  0  0  0
  186.6920  177.9220  138.8220 C   0  0  2  0  0  3  0  0  0  0  0  0
  186.2550  178.4270  142.0060 C   0  0  1  0  0  3  0  0  0  0  0  0
  185.3800  178.7090  138.8710 N   0  0  0  0  0  0  0  0  0  0  0  0
  183.1960  179.2070  143.3790 C   0  0  0  0  0  3  0  0  0  0  0  0
  185.3560  178.6560  144.5090 C   0  0  1  0  0  0  0  0  0  0  0  0
  183.7830  178.5560  144.5470 C   0  0  0  0  0  2  0  0  0  0  0  0
  187.0750  177.7100  144.5240 C   0  0  2  0  0  0  0  0  0  0  0  0
  184.6010  179.0470  139.8830 C   0  0  0  0  0  0  0  0  0  0  0  0
  187.6100  177.8350  140.1590 C   0  0  2  0  0  3  0  0  0  0  0  0
  183.9880  179.2160  142.2600 C   0  0  0  0  0  0  0  0  0  0  0  0
  187.6350  178.8420  141.4060 C   0  0  0  0  0  2  0  0  0  0  0  0
  186.0630  177.7860  143.4670 C   0  0  2  0  0  3  0  0  0  0  0  0
  183.2730  179.8000  139.4260 C   0  0  0  0  0  2  0  0  0  0  0  0
  182.5900  179.5120  138.3500 C   0  0  0  0  0  2  0  0  0  0  0  0
  181.4670  180.4200  138.1270 C   0  0  0  0  0  2  0  0  0  0  0  0
  180.2110  179.6310  138.2720 N   0  0  0  0  0  2  0  0  0  0  0  0
  179.3790  177.5390  136.8860 C   0  0  0  0  0  2  0  0  0  0  0  0
  179.8880  177.2560  138.3010 C   0  0  2  0  0  3  0  0  0  0  0  0
  180.5280  178.3400  137.5360 C   0  0  2  0  0  3  0  0  0  0  0  0
  180.8260  176.0970  138.3740 C   0  0  0  0  0  0  0  0  0  0  0  0
  180.2710  175.0120  138.8040 O   0  0  0  0  0  0  0  0  0  0  0  0
  181.3860  174.2610  136.2730 O   0  0  0  0  0  0  0  0  0  0  0  0
  182.3570  174.9060  136.7100 C   0  0  0  0  0  0  0  0  0  0  0  0
  182.1220  175.9680  137.7050 N   0  0  0  0  0  2  0  0  0  0  0  0
  183.7240  175.8670  134.8380 C   0  0  2  0  0  3  0  0  0  0  0  0
  184.8420  175.6660  135.7960 C   0  0  0  0  0  2  0  0  0  0  0  0
  183.4460  177.2970  135.2510 C   0  0  0  0  0  1  0  0  0  0  0  0
  183.6630  174.7500  135.8660 C   0  0  1  0  0  0  0  0  0  0  0  0
  185.8900  171.8290  135.9450 C   0  0  0  0  0  1  0  0  0  0  0  0
  184.8040  172.6650  136.4170 C   0  0  0  0  0  0  0  0  0  0  0  0
  184.5250  172.6080  137.6300 O   0  0  0  0  0  0  0  0  0  0  0  0
  183.9570  173.3590  135.5050 N   0  0  0  0  0  2  0  0  0  0  0  0
  188.3240  176.8790  144.6010 C   0  0  0  0  0  2  0  0  0  0  0  0
  189.4290  177.7340  145.4220 C   0  0  0  0  0  0  0  0  0  0  0  0
  189.6060  178.9960  145.5520 O   0  0  0  0  0  0  0  0  0  0  0  0
  190.2230  176.3250  147.5610 S   0  0  0  0  0  0  0  0  0  0  0  0
  191.8330  175.9510  147.8470 C   0  0  0  0  0  3  0  0  0  0  0  0
  190.4720  177.1050  146.1550 C   0  0  0  0  0  0  0  0  0  0  0  0
  191.7280  177.0720  145.8040 N   0  0  0  0  0  0  0  0  0  0  0  0
  192.4840  176.4440  146.7680 N   0  0  0  0  0  0  0  0  0  0  0  0
  189.8460  177.4320  136.8610 C   0  0  0  0  0  2  0  0  0  0  0  0
  190.5030  176.2510  137.4490 C   0  0  0  0  0  2  0  0  0  0  0  0
  190.7100  175.1070  136.4310 C   0  0  0  0  0  2  0  0  0  0  0  0
  192.2010  174.9480  136.1490 C   0  0  0  0  0  0  0  0  0  0  0  0
  192.9240  175.9220  135.8980 O   0  0  0  0  0  0  0  0  0  0  0  0
  192.9370  173.5990  136.6220 C   0  0  0  0  0  2  0  0  0  0  0  0
  198.9810  171.6610  136.6650 C   0  0  0  0  0  2  0  0  0  0  0  0
  195.1860  171.9900  135.9150 C   0  0  2  0  0  0  0  0  0  0  0  0
  194.3300  170.7320  136.2570 C   0  0  0  0  0  2  0  0  0  0  0  0
  196.5560  171.7470  136.5920 C   0  0  2  0  0  3  0  0  0  0  0  0
  198.0820  173.8630  137.6350 C   0  0  0  0  0  2  0  0  0  0  0  0
  194.5140  173.2700  136.5070 C   0  0  2  0  0  3  0  0  0  0  0  0
  196.7480  173.1210  137.3560 C   0  0  1  0  0  3  0  0  0  0  0  0
  199.1760  173.1930  136.7850 C   0  0  0  0  0  2  0  0  0  0  0  0
  193.2860  171.4010  134.5940 O   0  0  0  0  0  1  0  0  0  0  0  0
  194.5940  171.0660  134.8480 C   0  0  1  0  0  3  0  0  0  0  0  0
  195.4080  175.2760  137.5010 O   0  0  0  0  0  1  0  0  0  0  0  0
  197.7750  171.2220  135.8110 C   0  0  0  0  0  2  0  0  0  0  0  0
  195.3720  173.8430  137.6120 C   0  0  1  0  0  3  0  0  0  0  0  0
  2  5  1  0  0  0  0
  3  1  2  0  0  0  0
  4  8  1  0  0  0  0
  4 16  2  0  0  0  0
  5 47  1  6  0  0  0
  5  6  1  0  0  0  0
  6 15  1  0  0  0  0
  7  2  1  6  0  0  0
  7  9  1  0  0  0  0
  7 15  1  0  0  0  0
  8 17  1  1  0  0  0
  8 18  1  0  0  0  0
  9 14  2  0  0  0  0
 10 12  1  0  0  0  0
 11 13  1  0  0  0  0
 11 12  1  6  0  0  0
 11  3  1  0  0  0  0
 13 39  1  6  0  0  0
 13  3  1  0  0  0  0
 14  4  1  0  0  0  0
 15 17  1  6  0  0  0
 16 10  2  0  0  0  0
 18 11  1  0  0  0  0
 18 13  1  0  0  0  0
 19 14  1  0  0  0  0
 20 19  1  0  0  0  0
 21 22  1  0  0  0  0
 21 20  1  0  0  0  0
 23 25  1  0  0  0  0
 23 24  1  0  0  0  0
 24 26  1  0  0  0  0
 25 22  1  0  0  0  0
 25 24  1  0  0  0  0
 26 27  2  0  0  0  0
 28 29  2  0  0  0  0
 29 30  1  0  0  0  0
 30 26  1  0  0  0  0
 31 33  1  0  0  0  0
 31 32  1  0  0  0  0
 31 34  1  0  0  0  0
 32 34  1  0  0  0  0
 34 29  1  0  0  0  0
 35 36  1  0  0  0  0
 36 37  2  0  0  0  0
 38 34  1  0  0  0  0
 38 36  1  0  0  0  0
 39 40  1  0  0  0  0
 40 41  2  0  0  0  0
 40 44  1  0  0  0  0
 42 43  1  0  0  0  0
 44 42  1  0  0  0  0
 45 44  2  0  0  0  0
 45 46  1  0  0  0  0
 46 43  2  0  0  0  0
 47 48  1  0  0  0  0
 49 48  1  0  0  0  0
 50 49  1  0  0  0  0
 50 52  1  0  0  0  0
 51 50  2  0  0  0  0
 53 60  1  0  0  0  0
 54 55  1  0  0  0  0
 54 58  1  0  0  0  0
 54 56  1  0  0  0  0
 56 59  1  0  0  0  0
 58 52  1  0  0  0  0
 58 65  1  0  0  0  0
 59 65  1  0  0  0  0
 59 57  1  0  0  0  0
 60 57  1  0  0  0  0
 61 62  1  0  0  0  0
 62 54  1  0  0  0  0
 62 55  1  0  0  0  0
 63 65  1  0  0  0  0
 64 56  1  0  0  0  0
 64 53  1  0  0  0  0
M  END
>  <MODEL>
2

>  <REMARK>
 VINA RESULT:      -8.3      1.537      2.183
  Name = 
  16 active torsions:
  status: ('A' for Active; 'I' for Inactive)
    1  A    between atoms: N_1  and  C_15
    2  A    between atoms: N_1  and  C_40
    3  A    between atoms: C_3  and  C_34
    4  A    between atoms: C_4  and  C_56
    5  A    between atoms: C_9  and  C_20
    6  A    between atoms: C_9  and  C_46
    7  A    between atoms: C_15  and  C_54
    8  A    between atoms: C_20  and  C_64
    9  A    between atoms: C_21  and  C_25
   10  A    between atoms: C_24  and  C_41
   11  A    between atoms: C_25  and  C_46
   12  A    between atoms: C_28  and  C_60
   13  A    between atoms: C_31  and  C_64
   14  A    between atoms: N_36  and  C_60
   15  A    between atoms: C_41  and  C_50
   16  A    between atoms: C_50  and  C_53
                            x       y       z     vdW  Elec       q    Type
                         _______ _______ _______ _____ _____    ______ ____

>  <TORSDO>
F 16

$$$$
=
 OpenBabel11042411403D

 65 75  0  0  1  0  0  0  0  0999 V2000
  185.9680  178.6150  147.6480 C   0  0  0  0  0  2  0  0  0  0  0  0
  187.0620  178.2070  138.1180 C   0  0  0  0  0  2  0  0  0  0  0  0
  185.8730  178.7330  146.3300 C   0  0  0  0  0  0  0  0  0  0  0  0
  184.4030  179.0110  142.0640 C   0  0  0  0  0  0  0  0  0  0  0  0
  188.4550  178.5470  138.5650 C   0  0  1  0  0  3  0  0  0  0  0  0
  188.9050  177.9340  140.3190 S   0  0  0  0  0  0  0  0  0  0  0  0
  186.2540  177.9780  139.5330 C   0  0  2  0  0  3  0  0  0  0  0  0
  185.8190  178.7510  142.6640 C   0  0  1  0  0  3  0  0  0  0  0  0
  184.8180  178.5090  139.5630 N   0  0  0  0  0  2  0  0  0  0  0  0
  182.7070  179.0990  144.0950 C   0  0  0  0  0  3  0  0  0  0  0  0
  184.9640  179.0900  145.1700 C   0  0  1  0  0  0  0  0  0  0  0  0
  183.4400  178.7040  145.2950 C   0  0  0  0  0  2  0  0  0  0  0  0
  186.8310  178.4880  145.2000 C   0  0  2  0  0  0  0  0  0  0  0  0
  184.0170  178.8080  140.5710 C   0  0  0  0  0  0  0  0  0  0  0  0
  187.2090  178.2150  140.8250 C   0  0  2  0  0  3  0  0  0  0  0  0
  183.4520  179.1290  142.9440 C   0  0  0  0  0  0  0  0  0  0  0  0
  187.0780  179.3440  141.9560 C   0  0  0  0  0  2  0  0  0  0  0  0
  185.7930  178.2540  144.1920 C   0  0  2  0  0  3  0  0  0  0  0  0
  182.5590  179.2450  140.1020 C   0  0  0  0  0  3  0  0  0  0  0  0
  182.0800  179.0620  138.9010 C   0  0  0  0  0  2  0  0  0  0  0  0
  180.7490  179.6400  138.7220 C   0  0  0  0  0  2  0  0  0  0  0  0
  180.0800  178.9020  137.6140 N   0  0  0  0  0  2  0  0  0  0  0  0
  180.9840  177.3160  135.7000 C   0  0  0  0  0  2  0  0  0  0  0  0
  180.7120  176.6580  137.0540 C   0  0  2  0  0  3  0  0  0  0  0  0
  181.2000  178.0470  137.0430 C   0  0  2  0  0  3  0  0  0  0  0  0
  181.8150  175.7620  137.5120 C   0  0  0  0  0  0  0  0  0  0  0  0
  181.3960  174.7010  138.1220 O   0  0  0  0  0  0  0  0  0  0  0  0
  183.0180  173.6780  135.9920 O   0  0  0  0  0  0  0  0  0  0  0  0
  183.7780  174.5890  136.3730 C   0  0  0  0  0  0  0  0  0  0  0  0
  183.2040  175.7650  137.0490 N   0  0  0  0  0  2  0  0  0  0  0  0
  185.2880  175.5190  134.5970 C   0  0  2  0  0  3  0  0  0  0  0  0
  186.2570  175.5970  135.7210 C   0  0  0  0  0  2  0  0  0  0  0  0
  184.7660  176.9310  134.7700 C   0  0  0  0  0  1  0  0  0  0  0  0
  185.2100  174.5310  135.7490 C   0  0  1  0  0  0  0  0  0  0  0  0
  187.8360  172.0440  136.3930 C   0  0  0  0  0  1  0  0  0  0  0  0
  186.6050  172.7560  136.6740 C   0  0  0  0  0  0  0  0  0  0  0  0
  186.2500  172.8340  137.8660 O   0  0  0  0  0  0  0  0  0  0  0  0
  185.7340  173.1670  135.6240 N   0  0  0  0  0  2  0  0  0  0  0  0
  188.2170  177.9180  145.3030 C   0  0  0  0  0  2  0  0  0  0  0  0
  188.3940  176.8440  144.1030 C   0  0  0  0  0  0  0  0  0  0  0  0
  187.5730  176.0170  143.5720 O   0  0  0  0  0  0  0  0  0  0  0  0
  190.8080  177.7840  143.4100 S   0  0  0  0  0  0  0  0  0  0  0  0
  191.8660  176.9190  142.4380 C   0  0  0  0  0  3  0  0  0  0  0  0
  189.6390  176.6520  143.4450 C   0  0  0  0  0  0  0  0  0  0  0  0
  189.9950  175.5750  142.8030 N   0  0  0  0  0  0  0  0  0  0  0  0
  191.2330  175.7430  142.2240 N   0  0  0  0  0  0  0  0  0  0  0  0
  189.3870  177.8640  137.4830 C   0  0  0  0  0  2  0  0  0  0  0  0
  189.8360  176.5590  138.0000 C   0  0  0  0  0  2  0  0  0  0  0  0
  190.2850  175.5910  136.8830 C   0  0  0  0  0  2  0  0  0  0  0  0
  191.8050  175.6450  136.7500 C   0  0  0  0  0  0  0  0  0  0  0  0
  192.5180  176.1430  137.6300 O   0  0  0  0  0  0  0  0  0  0  0  0
  192.5230  174.6570  135.7040 C   0  0  0  0  0  2  0  0  0  0  0  0
  198.8240  173.8990  135.5770 C   0  0  0  0  0  2  0  0  0  0  0  0
  195.0010  173.2400  135.7380 C   0  0  2  0  0  0  0  0  0  0  0  0
  194.5070  172.5070  137.0220 C   0  0  0  0  0  2  0  0  0  0  0  0
  196.4540  173.6750  136.0490 C   0  0  2  0  0  3  0  0  0  0  0  0
  197.5380  176.0500  135.0110 C   0  0  0  0  0  2  0  0  0  0  0  0
  194.1130  174.4960  135.4650 C   0  0  2  0  0  3  0  0  0  0  0  0
  196.3940  175.2010  135.6280 C   0  0  1  0  0  3  0  0  0  0  0  0
  198.6630  175.0870  134.5940 C   0  0  0  0  0  2  0  0  0  0  0  0
  193.1660  171.7150  135.6510 O   0  0  0  0  0  1  0  0  0  0  0  0
  194.5360  171.7830  135.7410 C   0  0  1  0  0  3  0  0  0  0  0  0
  194.6070  176.6970  134.6170 O   0  0  0  0  0  1  0  0  0  0  0  0
  197.6730  172.8740  135.5550 C   0  0  0  0  0  2  0  0  0  0  0  0
  194.9230  175.7570  135.6580 C   0  0  1  0  0  3  0  0  0  0  0  0
  2  5  1  0  0  0  0
  3  1  2  0  0  0  0
  4  8  1  0  0  0  0
  4 16  2  0  0  0  0
  5 47  1  6  0  0  0
  5  6  1  0  0  0  0
  6 15  1  0  0  0  0
  7  2  1  6  0  0  0
  7  9  1  0  0  0  0
  7 15  1  0  0  0  0
  8 17  1  1  0  0  0
  8 18  1  0  0  0  0
  9 14  1  0  0  0  0
 10 12  1  0  0  0  0
 11 13  1  0  0  0  0
 11 12  1  6  0  0  0
 11  3  1  0  0  0  0
 13 39  1  6  0  0  0
 13  3  1  0  0  0  0
 14  4  1  0  0  0  0
 15 17  1  6  0  0  0
 16 10  2  0  0  0  0
 18 11  1  0  0  0  0
 18 13  1  0  0  0  0
 19 14  2  0  0  0  0
 20 19  1  0  0  0  0
 21 20  1  0  0  0  0
 22 21  1  0  0  0  0
 23 25  1  0  0  0  0
 23 24  1  0  0  0  0
 24 26  1  0  0  0  0
 25 24  1  0  0  0  0
 25 22  1  0  0  0  0
 26 27  2  0  0  0  0
 28 29  2  0  0  0  0
 29 30  1  0  0  0  0
 30 26  1  0  0  0  0
 31 33  1  0  0  0  0
 31 32  1  0  0  0  0
 31 34  1  0  0  0  0
 32 34  1  0  0  0  0
 34 29  1  0  0  0  0
 35 36  1  0  0  0  0
 36 37  2  0  0  0  0
 38 34  1  0  0  0  0
 38 36  1  0  0  0  0
 40 39  1  0  0  0  0
 41 40  2  0  0  0  0
 42 44  1  0  0  0  0
 43 42  1  0  0  0  0
 44 40  1  0  0  0  0
 45 44  2  0  0  0  0
 46 43  2  0  0  0  0
 46 45  1  0  0  0  0
 47 48  1  0  0  0  0
 49 48  1  0  0  0  0
 50 49  1  0  0  0  0
 50 51  2  0  0  0  0
 52 50  1  0  0  0  0
 54 62  1  0  0  0  0
 54 56  1  0  0  0  0
 54 55  1  0  0  0  0
 57 59  1  0  0  0  0
 58 65  1  0  0  0  0
 58 52  1  0  0  0  0
 58 54  1  0  0  0  0
 59 65  1  0  0  0  0
 59 56  1  0  0  0  0
 60 57  1  0  0  0  0
 60 53  1  0  0  0  0
 61 62  1  0  0  0  0
 62 55  1  0  0  0  0
 63 65  1  0  0  0  0
 64 53  1  0  0  0  0
 64 56  1  0  0  0  0
M  END
>  <MODEL>
3

>  <REMARK>
 VINA RESULT:      -7.6      2.150      3.092
  Name = 
  16 active torsions:
  status: ('A' for Active; 'I' for Inactive)
    1  A    between atoms: N_1  and  C_15
    2  A    between atoms: N_1  and  C_40
    3  A    between atoms: C_3  and  C_34
    4  A    between atoms: C_4  and  C_56
    5  A    between atoms: C_9  and  C_20
    6  A    between atoms: C_9  and  C_46
    7  A    between atoms: C_15  and  C_54
    8  A    between atoms: C_20  and  C_64
    9  A    between atoms: C_21  and  C_25
   10  A    between atoms: C_24  and  C_41
   11  A    between atoms: C_25  and  C_46
   12  A    between atoms: C_28  and  C_60
   13  A    between atoms: C_31  and  C_64
   14  A    between atoms: N_36  and  C_60
   15  A    between atoms: C_41  and  C_50
   16  A    between atoms: C_50  and  C_53
                            x       y       z     vdW  Elec       q    Type
                         _______ _______ _______ _____ _____    ______ ____

>  <TORSDO>
F 16

$$$$
=
 OpenBabel11042411403D

 65 75  0  0  1  0  0  0  0  0999 V2000
  189.4240  177.7380  147.8340 C   0  0  0  0  0  2  0  0  0  0  0  0
  186.8150  178.3890  138.6170 C   0  0  0  0  0  2  0  0  0  0  0  0
  189.2620  177.6040  146.5240 C   0  0  0  0  0  0  0  0  0  0  0  0
  189.8800  177.0190  142.0850 C   0  0  0  0  0  0  0  0  0  0  0  0
  185.4810  178.3600  139.3050 C   0  0  1  0  0  3  0  0  0  0  0  0
  185.4820  179.0550  141.0860 S   0  0  0  0  0  0  0  0  0  0  0  0
  187.8860  178.4340  139.8670 C   0  0  2  0  0  3  0  0  0  0  0  0
  188.6780  177.5810  142.9050 C   0  0  1  0  0  3  0  0  0  0  0  0
  189.1570  177.6040  139.6730 N   0  0  0  0  0  2  0  0  0  0  0  0
  191.8410  176.5600  143.8020 C   0  0  0  0  0  3  0  0  0  0  0  0
  189.8590  177.0590  145.2410 C   0  0  1  0  0  0  0  0  0  0  0  0
  191.4290  177.1030  145.0930 C   0  0  0  0  0  2  0  0  0  0  0  0
  188.1990  178.0540  145.5640 C   0  0  2  0  0  0  0  0  0  0  0  0
  190.0360  177.1360  140.5410 C   0  0  0  0  0  0  0  0  0  0  0  0
  187.1390  178.4090  141.3090 C   0  0  2  0  0  3  0  0  0  0  0  0
  190.9200  176.6950  142.7950 C   0  0  0  0  0  0  0  0  0  0  0  0
  187.2180  177.2780  142.4410 C   0  0  0  0  0  2  0  0  0  0  0  0
  189.0730  178.0570  144.3880 C   0  0  2  0  0  3  0  0  0  0  0  0
  191.2640  176.3920  139.8490 C   0  0  0  0  0  3  0  0  0  0  0  0
  191.4740  176.3480  138.5600 C   0  0  0  0  0  2  0  0  0  0  0  0
  192.6240  175.5230  138.1970 C   0  0  0  0  0  2  0  0  0  0  0  0
  192.9380  175.7910  136.7650 N   0  0  0  0  0  2  0  0  0  0  0  0
  193.3190  174.2020  134.6860 C   0  0  0  0  0  2  0  0  0  0  0  0
  191.8720  174.6040  134.9750 C   0  0  2  0  0  3  0  0  0  0  0  0
  192.7850  174.4240  136.1170 C   0  0  2  0  0  3  0  0  0  0  0  0
  190.9170  173.4580  134.9350 C   0  0  0  0  0  0  0  0  0  0  0  0
  191.3610  172.3960  135.5230 O   0  0  0  0  0  0  0  0  0  0  0  0
  188.8680  172.9190  136.8350 O   0  0  0  0  0  0  0  0  0  0  0  0
  188.4930  173.1010  135.6610 C   0  0  0  0  0  0  0  0  0  0  0  0
  189.4810  173.5150  134.6500 N   0  0  0  0  0  2  0  0  0  0  0  0
  186.4310  172.0170  134.7290 C   0  0  2  0  0  3  0  0  0  0  0  0
  185.8730  172.3520  136.0650 C   0  0  0  0  0  2  0  0  0  0  0  0
  186.8820  170.6240  135.1160 C   0  0  0  0  0  1  0  0  0  0  0  0
  186.9430  173.2250  135.4950 C   0  0  1  0  0  0  0  0  0  0  0  0
  184.5980  176.0180  135.9330 C   0  0  0  0  0  1  0  0  0  0  0  0
  185.8040  175.2610  136.2060 C   0  0  0  0  0  0  0  0  0  0  0  0
  186.3030  175.3740  137.3430 O   0  0  0  0  0  0  0  0  0  0  0  0
  186.5030  174.5840  135.1650 N   0  0  0  0  0  2  0  0  0  0  0  0
  187.0070  178.9120  145.8790 C   0  0  0  0  0  2  0  0  0  0  0  0
  185.6890  177.9770  145.7710 C   0  0  0  0  0  0  0  0  0  0  0  0
  185.4810  176.7560  146.1000 O   0  0  0  0  0  0  0  0  0  0  0  0
  184.1280  178.3120  143.6160 S   0  0  0  0  0  0  0  0  0  0  0  0
  182.6630  179.1260  143.6840 C   0  0  0  0  0  3  0  0  0  0  0  0
  184.4760  178.4500  145.2000 C   0  0  0  0  0  0  0  0  0  0  0  0
  183.5130  179.0380  145.8540 N   0  0  0  0  0  0  0  0  0  0  0  0
  182.5140  179.4330  144.9930 N   0  0  0  0  0  0  0  0  0  0  0  0
  184.5450  179.2320  138.3710 C   0  0  0  0  0  2  0  0  0  0  0  0
  183.2250  179.3640  139.0130 C   0  0  0  0  0  2  0  0  0  0  0  0
  182.5950  180.7610  138.8150 C   0  0  0  0  0  2  0  0  0  0  0  0
  181.2800  180.6180  138.0550 C   0  0  0  0  0  0  0  0  0  0  0  0
  181.1960  180.8720  136.8460 O   0  0  0  0  0  0  0  0  0  0  0  0
  180.1170  179.7060  138.6890 C   0  0  0  0  0  2  0  0  0  0  0  0
  180.0770  173.3690  138.3350 C   0  0  0  0  0  2  0  0  0  0  0  0
  179.7710  177.0250  139.6050 C   0  0  2  0  0  0  0  0  0  0  0  0
  180.6690  177.3810  140.8290 C   0  0  0  0  0  2  0  0  0  0  0  0
  180.3010  175.6650  139.0910 C   0  0  2  0  0  3  0  0  0  0  0  0
  180.2630  175.0030  136.3610 C   0  0  0  0  0  2  0  0  0  0  0  0
  179.9250  178.1140  138.4960 C   0  0  2  0  0  3  0  0  0  0  0  0
  180.4630  175.9830  137.5480 C   0  0  1  0  0  3  0  0  0  0  0  0
  179.5880  173.7340  136.9100 C   0  0  0  0  0  2  0  0  0  0  0  0
  179.0310  178.5780  141.2610 O   0  0  0  0  0  1  0  0  0  0  0  0
  179.2160  177.2390  141.0150 C   0  0  1  0  0  3  0  0  0  0  0  0
  179.9680  178.0030  136.0880 O   0  0  0  0  0  1  0  0  0  0  0  0
  179.6180  174.3310  139.4480 C   0  0  0  0  0  2  0  0  0  0  0  0
  180.6110  177.5270  137.2830 C   0  0  1  0  0  3  0  0  0  0  0  0
  2  5  1  0  0  0  0
  3  1  2  0  0  0  0
  4 16  2  0  0  0  0
  4  8  1  0  0  0  0
  5 47  1  6  0  0  0
  5  6  1  0  0  0  0
  6 15  1  0  0  0  0
  7  2  1  6  0  0  0
  7 15  1  0  0  0  0
  8 17  1  1  0  0  0
  8 18  1  0  0  0  0
  9  7  1  0  0  0  0
  9 14  1  0  0  0  0
 10 12  1  0  0  0  0
 11 12  1  6  0  0  0
 11 13  1  0  0  0  0
 11  3  1  0  0  0  0
 13 39  1  6  0  0  0
 13  3  1  0  0  0  0
 14  4  1  0  0  0  0
 15 17  1  6  0  0  0
 16 10  2  0  0  0  0
 18 11  1  0  0  0  0
 18 13  1  0  0  0  0
 19 14  2  0  0  0  0
 20 19  1  0  0  0  0
 21 20  1  0  0  0  0
 22 21  1  0  0  0  0
 23 24  1  0  0  0  0
 23 25  1  0  0  0  0
 24 25  1  0  0  0  0
 25 22  1  0  0  0  0
 26 24  1  0  0  0  0
 26 27  2  0  0  0  0
 29 28  2  0  0  0  0
 30 26  1  0  0  0  0
 30 29  1  0  0  0  0
 31 33  1  0  0  0  0
 31 34  1  0  0  0  0
 31 32  1  0  0  0  0
 34 29  1  0  0  0  0
 34 32  1  0  0  0  0
 35 36  1  0  0  0  0
 36 37  2  0  0  0  0
 38 34  1  0  0  0  0
 38 36  1  0  0  0  0
 40 39  1  0  0  0  0
 40 41  2  0  0  0  0
 42 43  1  0  0  0  0
 42 44  1  0  0  0  0
 43 46  2  0  0  0  0
 44 40  1  0  0  0  0
 44 45  2  0  0  0  0
 46 45  1  0  0  0  0
 47 48  1  0  0  0  0
 49 48  1  0  0  0  0
 50 52  1  0  0  0  0
 50 49  1  0  0  0  0
 51 50  2  0  0  0  0
 53 64  1  0  0  0  0
 54 55  1  0  0  0  0
 54 62  1  0  0  0  0
 55 62  1  0  0  0  0
 56 64  1  0  0  0  0
 56 54  1  0  0  0  0
 57 60  1  0  0  0  0
 57 59  1  0  0  0  0
 58 52  1  0  0  0  0
 58 54  1  0  0  0  0
 59 56  1  0  0  0  0
 60 53  1  0  0  0  0
 62 61  1  0  0  0  0
 63 65  1  0  0  0  0
 65 59  1  0  0  0  0
 65 58  1  0  0  0  0
M  END
>  <MODEL>
4

>  <REMARK>
 VINA RESULT:      -7.5      3.179     10.711
  Name = 
  16 active torsions:
  status: ('A' for Active; 'I' for Inactive)
    1  A    between atoms: N_1  and  C_15
    2  A    between atoms: N_1  and  C_40
    3  A    between atoms: C_3  and  C_34
    4  A    between atoms: C_4  and  C_56
    5  A    between atoms: C_9  and  C_20
    6  A    between atoms: C_9  and  C_46
    7  A    between atoms: C_15  and  C_54
    8  A    between atoms: C_20  and  C_64
    9  A    between atoms: C_21  and  C_25
   10  A    between atoms: C_24  and  C_41
   11  A    between atoms: C_25  and  C_46
   12  A    between atoms: C_28  and  C_60
   13  A    between atoms: C_31  and  C_64
   14  A    between atoms: N_36  and  C_60
   15  A    between atoms: C_41  and  C_50
   16  A    between atoms: C_50  and  C_53
                            x       y       z     vdW  Elec       q    Type
                         _______ _______ _______ _____ _____    ______ ____

>  <TORSDO>
F 16

$$$$
=
 OpenBabel11042411403D

 65 75  0  0  1  0  0  0  0  0999 V2000
  190.6530  177.3310  146.5270 C   0  0  0  0  0  2  0  0  0  0  0  0
  186.3120  178.4580  138.0380 C   0  0  0  0  0  2  0  0  0  0  0  0
  189.8330  177.6100  145.5210 C   0  0  0  0  0  0  0  0  0  0  0  0
  186.2290  178.1860  142.8560 C   0  0  0  0  0  0  0  0  0  0  0  0
  187.6840  178.9930  137.7460 C   0  0  1  0  0  3  0  0  0  0  0  0
  189.0810  178.2420  138.8130 S   0  0  0  0  0  0  0  0  0  0  0  0
  186.4460  177.8850  139.5750 C   0  0  2  0  0  3  0  0  0  0  0  0
  187.7560  178.1210  142.5440 C   0  0  1  0  0  3  0  0  0  0  0  0
  185.2290  178.1220  140.4730 N   0  0  0  0  0  2  0  0  0  0  0  0
  185.9420  177.6660  145.4350 C   0  0  0  0  0  3  0  0  0  0  0  0
  188.4080  177.9420  145.1270 C   0  0  1  0  0  0  0  0  0  0  0  0
  187.2480  177.2580  145.9480 C   0  0  0  0  0  2  0  0  0  0  0  0
  190.0210  177.7110  144.0350 C   0  0  2  0  0  0  0  0  0  0  0  0
  185.0990  178.1200  141.7880 C   0  0  2  0  0  3  0  0  0  0  0  0
  187.9330  178.1210  140.1850 C   0  0  2  0  0  3  0  0  0  0  0  0
  185.9190  177.9970  144.1050 C   0  0  0  0  0  0  0  0  0  0  0  0
  188.3560  179.0360  141.4300 C   0  0  0  0  0  2  0  0  0  0  0  0
  188.6230  177.4230  143.7030 C   0  0  2  0  0  3  0  0  0  0  0  0
  183.5950  178.3300  142.2680 C   0  0  0  0  0  2  0  0  0  0  0  0
  183.1460  179.4090  142.8520 C   0  0  0  0  0  2  0  0  0  0  0  0
  181.7490  179.2970  143.2660 C   0  0  0  0  0  2  0  0  0  0  0  0
  181.1580  178.1310  142.5520 N   0  0  0  0  0  2  0  0  0  0  0  0
  179.1910  177.9320  140.7960 C   0  0  0  0  0  2  0  0  0  0  0  0
  180.2370  179.0140  140.5220 C   0  0  2  0  0  3  0  0  0  0  0  0
  179.9020  178.7110  141.9240 C   0  0  2  0  0  3  0  0  0  0  0  0
  179.6460  180.3350  140.1580 C   0  0  0  0  0  0  0  0  0  0  0  0
  179.8490  181.2520  141.0460 O   0  0  0  0  0  0  0  0  0  0  0  0
  180.9180  182.3760  138.6360 O   0  0  0  0  0  0  0  0  0  0  0  0
  179.8590  181.9200  138.1650 C   0  0  0  0  0  0  0  0  0  0  0  0
  179.2160  180.7720  138.8280 N   0  0  0  0  0  2  0  0  0  0  0  0
  180.6260  181.8720  135.7760 C   0  0  2  0  0  3  0  0  0  0  0  0
  179.1930  181.5720  135.5150 C   0  0  0  0  0  2  0  0  0  0  0  0
  181.0570  180.4220  135.8520 C   0  0  0  0  0  1  0  0  0  0  0  0
  179.5470  182.3970  136.7090 C   0  0  1  0  0  0  0  0  0  0  0  0
  179.5980  185.8460  137.9710 C   0  0  0  0  0  1  0  0  0  0  0  0
  180.0180  184.7560  137.1130 C   0  0  0  0  0  0  0  0  0  0  0  0
  181.1770  184.8020  136.6590 O   0  0  0  0  0  0  0  0  0  0  0  0
  179.0860  183.7870  136.6410 N   0  0  0  0  0  2  0  0  0  0  0  0
  191.2750  177.4080  143.2640 C   0  0  0  0  0  2  0  0  0  0  0  0
  190.8370  176.6570  141.8970 C   0  0  0  0  0  0  0  0  0  0  0  0
  189.8850  175.8390  141.6400 O   0  0  0  0  0  0  0  0  0  0  0  0
  191.1070  176.1390  139.2800 S   0  0  0  0  0  0  0  0  0  0  0  0
  192.4260  176.6660  138.3880 C   0  0  0  0  0  3  0  0  0  0  0  0
  191.5670  176.8150  140.6870 C   0  0  0  0  0  0  0  0  0  0  0  0
  192.6650  177.5050  140.5510 N   0  0  0  0  0  0  0  0  0  0  0  0
  193.1510  177.3960  139.2680 N   0  0  0  0  0  0  0  0  0  0  0  0
  187.9140  178.6570  136.2160 C   0  0  0  0  0  2  0  0  0  0  0  0
  189.1180  177.8160  136.0910 C   0  0  0  0  0  2  0  0  0  0  0  0
  188.8810  176.5480  135.2400 C   0  0  0  0  0  2  0  0  0  0  0  0
  188.0310  175.5610  136.0340 C   0  0  0  0  0  0  0  0  0  0  0  0
  188.1230  175.4640  137.2640 O   0  0  0  0  0  0  0  0  0  0  0  0
  186.6950  174.9740  135.3570 C   0  0  0  0  0  2  0  0  0  0  0  0
  180.5740  174.9580  137.0350 C   0  0  0  0  0  2  0  0  0  0  0  0
  184.3470  174.0960  136.7200 C   0  0  2  0  0  0  0  0  0  0  0  0
  184.6590  172.6520  136.2240 C   0  0  0  0  0  2  0  0  0  0  0  0
  182.8370  174.3040  136.4500 C   0  0  2  0  0  3  0  0  0  0  0  0
  181.7950  176.8180  135.7510 C   0  0  0  0  0  2  0  0  0  0  0  0
  185.1850  175.1330  135.9070 C   0  0  2  0  0  3  0  0  0  0  0  0
  182.8680  175.6980  135.6980 C   0  0  1  0  0  3  0  0  0  0  0  0
  180.8240  176.4810  136.8960 C   0  0  0  0  0  2  0  0  0  0  0  0
  186.2650  172.9140  137.5110 O   0  0  0  0  0  1  0  0  0  0  0  0
  184.8990  173.0000  137.6340 C   0  0  1  0  0  3  0  0  0  0  0  0
  184.7020  177.3500  135.0920 O   0  0  0  0  0  1  0  0  0  0  0  0
  181.7760  174.1440  137.5550 C   0  0  0  0  0  2  0  0  0  0  0  0
  184.2730  175.9780  135.0460 C   0  0  1  0  0  3  0  0  0  0  0  0
  3  1  2  0  0  0  0
  4 16  2  0  0  0  0
  5 47  1  6  0  0  0
  5  2  1  0  0  0  0
  5  6  1  0  0  0  0
  6 15  1  0  0  0  0
  7  2  1  6  0  0  0
  7 15  1  0  0  0  0
  7  9  1  0  0  0  0
  8 17  1  1  0  0  0
  8  4  1  0  0  0  0
  8 18  1  0  0  0  0
  9 14  1  0  0  0  0
 10 12  1  0  0  0  0
 11  3  1  0  0  0  0
 11 12  1  1  0  0  0
 13 39  1  6  0  0  0
 13 11  1  0  0  0  0
 13  3  1  0  0  0  0
 14 19  1  6  0  0  0
 14  4  1  0  0  0  0
 15 17  1  6  0  0  0
 16 10  2  0  0  0  0
 18 13  1  0  0  0  0
 18 11  1  0  0  0  0
 19 20  1  0  0  0  0
 20 21  1  0  0  0  0
 22 21  1  0  0  0  0
 23 25  1  0  0  0  0
 24 23  1  0  0  0  0
 24 25  1  0  0  0  0
 25 22  1  0  0  0  0
 26 24  1  0  0  0  0
 26 27  2  0  0  0  0
 29 28  2  0  0  0  0
 29 30  1  0  0  0  0
 30 26  1  0  0  0  0
 31 33  1  0  0  0  0
 31 34  1  0  0  0  0
 32 31  1  0  0  0  0
 32 34  1  0  0  0  0
 34 29  1  0  0  0  0
 36 35  1  0  0  0  0
 37 36  2  0  0  0  0
 38 34  1  0  0  0  0
 38 36  1  0  0  0  0
 40 39  1  0  0  0  0
 41 40  2  0  0  0  0
 42 44  1  0  0  0  0
 43 46  2  0  0  0  0
 43 42  1  0  0  0  0
 44 40  1  0  0  0  0
 45 44  2  0  0  0  0
 46 45  1  0  0  0  0
 48 47  1  0  0  0  0
 49 50  1  0  0  0  0
 49 48  1  0  0  0  0
 50 51  2  0  0  0  0
 52 58  1  0  0  0  0
 52 50  1  0  0  0  0
 53 64  1  0  0  0  0
 54 62  1  0  0  0  0
 55 54  1  0  0  0  0
 55 62  1  0  0  0  0
 56 54  1  0  0  0  0
 56 64  1  0  0  0  0
 57 60  1  0  0  0  0
 58 54  1  0  0  0  0
 59 57  1  0  0  0  0
 59 56  1  0  0  0  0
 60 53  1  0  0  0  0
 61 62  1  0  0  0  0
 65 63  1  0  0  0  0
 65 59  1  0  0  0  0
 65 58  1  0  0  0  0
M  END
>  <MODEL>
5

>  <REMARK>
 VINA RESULT:      -7.2      3.844      7.537
  Name = 
  16 active torsions:
  status: ('A' for Active; 'I' for Inactive)
    1  A    between atoms: N_1  and  C_15
    2  A    between atoms: N_1  and  C_40
    3  A    between atoms: C_3  and  C_34
    4  A    between atoms: C_4  and  C_56
    5  A    between atoms: C_9  and  C_20
    6  A    between atoms: C_9  and  C_46
    7  A    between atoms: C_15  and  C_54
    8  A    between atoms: C_20  and  C_64
    9  A    between atoms: C_21  and  C_25
   10  A    between atoms: C_24  and  C_41
   11  A    between atoms: C_25  and  C_46
   12  A    between atoms: C_28  and  C_60
   13  A    between atoms: C_31  and  C_64
   14  A    between atoms: N_36  and  C_60
   15  A    between atoms: C_41  and  C_50
   16  A    between atoms: C_50  and  C_53
                            x       y       z     vdW  Elec       q    Type
                         _______ _______ _______ _____ _____    ______ ____

>  <TORSDO>
F 16

$$$$
=
 OpenBabel11042411403D

 65 75  0  0  1  0  0  0  0  0999 V2000
  187.4110  177.2570  149.2440 C   0  0  0  0  0  2  0  0  0  0  0  0
  189.7230  177.2520  139.9250 C   0  0  0  0  0  2  0  0  0  0  0  0
  187.5360  177.4870  147.9430 C   0  0  0  0  0  0  0  0  0  0  0  0
  186.7970  178.4170  143.5820 C   0  0  0  0  0  0  0  0  0  0  0  0
  191.0780  177.2020  140.5700 C   0  0  1  0  0  3  0  0  0  0  0  0
  191.1160  176.3750  142.2940 S   0  0  0  0  0  0  0  0  0  0  0  0
  188.6900  177.1340  141.2020 C   0  0  2  0  0  3  0  0  0  0  0  0
  188.0100  177.7710  144.3190 C   0  0  1  0  0  3  0  0  0  0  0  0
  187.4330  178.0020  141.1110 N   0  0  0  0  0  2  0  0  0  0  0  0
  184.8990  178.7840  145.3910 C   0  0  0  0  0  3  0  0  0  0  0  0
  186.9130  178.1380  146.7250 C   0  0  1  0  0  0  0  0  0  0  0  0
  185.3380  178.1370  146.6240 C   0  0  0  0  0  2  0  0  0  0  0  0
  188.5590  177.0890  146.9190 C   0  0  2  0  0  0  0  0  0  0  0  0
  186.5910  178.4210  142.0400 C   0  0  2  0  0  3  0  0  0  0  0  0
  189.4810  177.0350  142.6170 C   0  0  2  0  0  3  0  0  0  0  0  0
  185.7860  178.7070  144.3470 C   0  0  0  0  0  0  0  0  0  0  0  0
  189.4620  178.0790  143.8330 C   0  0  0  0  0  2  0  0  0  0  0  0
  187.6500  177.1920  145.7740 C   0  0  2  0  0  3  0  0  0  0  0  0
  185.3600  179.2390  141.4450 C   0  0  0  0  0  2  0  0  0  0  0  0
  184.1820  178.7310  141.1960 C   0  0  0  0  0  2  0  0  0  0  0  0
  183.2690  179.6850  140.5720 C   0  0  0  0  0  2  0  0  0  0  0  0
  183.5710  179.7130  139.1130 N   0  0  0  0  0  2  0  0  0  0  0  0
  185.0910  177.9300  137.8870 C   0  0  0  0  0  2  0  0  0  0  0  0
  183.6650  178.0870  137.3540 C   0  0  2  0  0  3  0  0  0  0  0  0
  183.8890  178.2600  138.7990 C   0  0  2  0  0  3  0  0  0  0  0  0
  182.9690  176.7870  137.1250 C   0  0  0  0  0  0  0  0  0  0  0  0
  183.7750  175.8110  136.8610 O   0  0  0  0  0  0  0  0  0  0  0  0
  182.2830  174.8810  139.1240 O   0  0  0  0  0  0  0  0  0  0  0  0
  181.3350  175.3530  138.4680 C   0  0  0  0  0  0  0  0  0  0  0  0
  181.5990  176.4400  137.5090 N   0  0  0  0  0  2  0  0  0  0  0  0
  178.9400  174.9110  137.8640 C   0  0  2  0  0  3  0  0  0  0  0  0
  179.1200  173.7430  138.7660 C   0  0  0  0  0  2  0  0  0  0  0  0
  179.3060  174.1620  136.5990 C   0  0  0  0  0  1  0  0  0  0  0  0
  179.9220  174.9780  139.0220 C   0  0  1  0  0  0  0  0  0  0  0  0
  180.3360  177.8190  141.3130 C   0  0  0  0  0  1  0  0  0  0  0  0
  179.7120  177.0870  140.2290 C   0  0  0  0  0  0  0  0  0  0  0  0
  179.1290  177.7530  139.3520 O   0  0  0  0  0  0  0  0  0  0  0  0
  179.5870  175.6680  140.2710 N   0  0  0  0  0  2  0  0  0  0  0  0
  189.7410  176.1860  147.1300 C   0  0  0  0  0  2  0  0  0  0  0  0
  191.0730  177.1060  147.0880 C   0  0  0  0  0  0  0  0  0  0  0  0
  191.5350  177.8960  146.1920 O   0  0  0  0  0  0  0  0  0  0  0  0
  193.0690  175.9130  148.4240 S   0  0  0  0  0  0  0  0  0  0  0  0
  193.7340  176.5640  149.8190 C   0  0  0  0  0  3  0  0  0  0  0  0
  192.0100  177.1200  148.1570 C   0  0  0  0  0  0  0  0  0  0  0  0
  192.1400  178.0750  149.0350 N   0  0  0  0  0  0  0  0  0  0  0  0
  193.0910  177.7440  149.9740 N   0  0  0  0  0  0  0  0  0  0  0  0
  191.9650  176.3840  139.5450 C   0  0  0  0  0  2  0  0  0  0  0  0
  191.1230  175.9830  138.4040 C   0  0  0  0  0  2  0  0  0  0  0  0
  191.7120  176.4110  137.0410 C   0  0  0  0  0  2  0  0  0  0  0  0
  191.8510  175.1840  136.1450 C   0  0  0  0  0  0  0  0  0  0  0  0
  192.5130  174.1970  136.4900 O   0  0  0  0  0  0  0  0  0  0  0  0
  190.7810  174.9650  134.9640 C   0  0  0  0  0  2  0  0  0  0  0  0
  185.3670  171.8450  136.0770 C   0  0  0  0  0  2  0  0  0  0  0  0
  187.9730  174.6290  135.3490 C   0  0  2  0  0  0  0  0  0  0  0  0
  188.0310  175.7770  136.4020 C   0  0  0  0  0  2  0  0  0  0  0  0
  187.1310  173.5110  136.0090 C   0  0  2  0  0  3  0  0  0  0  0  0
  187.6420  170.7930  135.5160 C   0  0  0  0  0  2  0  0  0  0  0  0
  189.4140  174.1080  135.0470 C   0  0  2  0  0  3  0  0  0  0  0  0
  188.0750  172.2610  135.7720 C   0  0  1  0  0  3  0  0  0  0  0  0
  186.1290  170.7930  135.2330 C   0  0  0  0  0  2  0  0  0  0  0  0
  188.4660  176.8720  134.6950 O   0  0  0  0  0  1  0  0  0  0  0  0
  187.4430  176.0390  135.0780 C   0  0  1  0  0  3  0  0  0  0  0  0
  190.2990  171.9120  134.5940 O   0  0  0  0  0  1  0  0  0  0  0  0
  185.6370  173.3130  135.6900 C   0  0  0  0  0  2  0  0  0  0  0  0
  189.5720  172.6940  135.5580 C   0  0  1  0  0  3  0  0  0  0  0  0
  2  5  1  0  0  0  0
  3  1  2  0  0  0  0
  4  8  1  0  0  0  0
  4 16  2  0  0  0  0
  5 47  1  6  0  0  0
  5  6  1  0  0  0  0
  6 15  1  0  0  0  0
  7  2  1  6  0  0  0
  7 15  1  0  0  0  0
  8 17  1  1  0  0  0
  8 18  1  0  0  0  0
  9  7  1  0  0  0  0
  9 14  1  0  0  0  0
 10 12  1  0  0  0  0
 11 12  1  6  0  0  0
 11 13  1  0  0  0  0
 11  3  1  0  0  0  0
 13 39  1  6  0  0  0
 13  3  1  0  0  0  0
 14 19  1  6  0  0  0
 14  4  1  0  0  0  0
 15 17  1  6  0  0  0
 16 10  2  0  0  0  0
 18 11  1  0  0  0  0
 18 13  1  0  0  0  0
 20 19  1  0  0  0  0
 21 20  1  0  0  0  0
 22 21  1  0  0  0  0
 23 25  1  0  0  0  0
 24 23  1  0  0  0  0
 24 25  1  0  0  0  0
 25 22  1  0  0  0  0
 26 24  1  0  0  0  0
 26 30  1  0  0  0  0
 27 26  2  0  0  0  0
 29 34  1  0  0  0  0
 29 28  2  0  0  0  0
 30 29  1  0  0  0  0
 31 32  1  0  0  0  0
 31 34  1  0  0  0  0
 32 34  1  0  0  0  0
 33 31  1  0  0  0  0
 34 38  1  0  0  0  0
 36 38  1  0  0  0  0
 36 35  1  0  0  0  0
 37 36  2  0  0  0  0
 40 39  1  0  0  0  0
 40 44  1  0  0  0  0
 41 40  2  0  0  0  0
 42 43  1  0  0  0  0
 43 46  2  0  0  0  0
 44 42  1  0  0  0  0
 44 45  2  0  0  0  0
 45 46  1  0  0  0  0
 48 47  1  0  0  0  0
 49 48  1  0  0  0  0
 50 51  2  0  0  0  0
 50 49  1  0  0  0  0
 52 58  1  0  0  0  0
 52 50  1  0  0  0  0
 54 56  1  0  0  0  0
 54 55  1  0  0  0  0
 57 59  1  0  0  0  0
 58 54  1  0  0  0  0
 58 65  1  0  0  0  0
 59 56  1  0  0  0  0
 60 57  1  0  0  0  0
 60 53  1  0  0  0  0
 61 62  1  0  0  0  0
 62 54  1  0  0  0  0
 62 55  1  0  0  0  0
 63 65  1  0  0  0  0
 64 56  1  0  0  0  0
 64 53  1  0  0  0  0
 65 59  1  0  0  0  0
M  END
>  <MODEL>
6

>  <REMARK>
 VINA RESULT:      -6.8      2.931      5.298
  Name = 
  16 active torsions:
  status: ('A' for Active; 'I' for Inactive)
    1  A    between atoms: N_1  and  C_15
    2  A    between atoms: N_1  and  C_40
    3  A    between atoms: C_3  and  C_34
    4  A    between atoms: C_4  and  C_56
    5  A    between atoms: C_9  and  C_20
    6  A    between atoms: C_9  and  C_46
    7  A    between atoms: C_15  and  C_54
    8  A    between atoms: C_20  and  C_64
    9  A    between atoms: C_21  and  C_25
   10  A    between atoms: C_24  and  C_41
   11  A    between atoms: C_25  and  C_46
   12  A    between atoms: C_28  and  C_60
   13  A    between atoms: C_31  and  C_64
   14  A    between atoms: N_36  and  C_60
   15  A    between atoms: C_41  and  C_50
   16  A    between atoms: C_50  and  C_53
                            x       y       z     vdW  Elec       q    Type
                         _______ _______ _______ _____ _____    ______ ____

>  <TORSDO>
F 16

$$$$
=
 OpenBabel11042411403D

 65 75  0  0  1  0  0  0  0  0999 V2000
  195.0830  174.0440  135.0090 C   0  0  0  0  0  2  0  0  0  0  0  0
  189.1420  178.2250  141.2870 C   0  0  0  0  0  2  0  0  0  0  0  0
  194.0600  174.4300  135.7600 C   0  0  0  0  0  0  0  0  0  0  0  0
  189.9850  175.6230  137.3100 C   0  0  0  0  0  0  0  0  0  0  0  0
  190.3310  177.9260  142.1530 C   0  0  1  0  0  3  0  0  0  0  0  0
  192.0040  177.8720  141.2280 S   0  0  0  0  0  0  0  0  0  0  0  0
  189.6460  177.7840  139.7830 C   0  0  2  0  0  3  0  0  0  0  0  0
  191.4190  175.8170  137.8920 C   0  0  1  0  0  3  0  0  0  0  0  0
  188.5920  177.0990  138.9110 N   0  0  0  0  0  2  0  0  0  0  0  0
  190.2630  174.5390  134.9110 C   0  0  0  0  0  3  0  0  0  0  0  0
  192.5520  174.4310  135.9110 C   0  0  1  0  0  0  0  0  0  0  0  0
  191.6880  174.5340  134.5950 C   0  0  0  0  0  2  0  0  0  0  0  0
  193.9550  175.2150  137.0360 C   0  0  2  0  0  0  0  0  0  0  0  0
  188.7050  176.3330  137.8410 C   0  0  2  0  0  3  0  0  0  0  0  0
  191.1610  177.1960  139.7970 C   0  0  2  0  0  3  0  0  0  0  0  0
  189.9430  175.0520  136.1420 C   0  0  0  0  0  0  0  0  0  0  0  0
  191.6470  175.7130  139.4330 C   0  0  0  0  0  2  0  0  0  0  0  0
  192.5860  175.6800  136.7950 C   0  0  2  0  0  3  0  0  0  0  0  0
  187.3000  175.9210  137.2130 C   0  0  0  0  0  2  0  0  0  0  0  0
  186.2030  176.6220  137.3260 C   0  0  0  0  0  2  0  0  0  0  0  0
  185.0420  175.9660  136.7290 C   0  0  0  0  0  2  0  0  0  0  0  0
  184.3350  175.2260  137.8100 N   0  0  0  0  0  2  0  0  0  0  0  0
  182.3650  175.8460  139.4620 C   0  0  0  0  0  2  0  0  0  0  0  0
  181.9740  175.5970  138.0040 C   0  0  2  0  0  3  0  0  0  0  0  0
  183.2820  176.2170  138.2770 C   0  0  2  0  0  3  0  0  0  0  0  0
  181.0530  176.6320  137.4500 C   0  0  0  0  0  0  0  0  0  0  0  0
  179.9450  176.1450  136.9940 O   0  0  0  0  0  0  0  0  0  0  0  0
  179.1020  178.0940  138.9190 O   0  0  0  0  0  0  0  0  0  0  0  0
  179.9850  178.7690  138.3580 C   0  0  0  0  0  0  0  0  0  0  0  0
  181.1010  178.0760  137.6920 N   0  0  0  0  0  2  0  0  0  0  0  0
  180.6660  181.0810  137.6560 C   0  0  2  0  0  3  0  0  0  0  0  0
  179.2840  181.4200  138.0890 C   0  0  0  0  0  2  0  0  0  0  0  0
  180.3000  180.8430  136.2060 C   0  0  0  0  0  1  0  0  0  0  0  0
  179.9860  180.2810  138.7560 C   0  0  1  0  0  0  0  0  0  0  0  0
  180.8470  178.9910  142.0850 C   0  0  0  0  0  1  0  0  0  0  0  0
  181.1360  179.5260  140.7700 C   0  0  0  0  0  0  0  0  0  0  0  0
  182.2370  179.2340  140.2650 O   0  0  0  0  0  0  0  0  0  0  0  0
  180.2950  180.5080  140.1710 N   0  0  0  0  0  2  0  0  0  0  0  0
  195.0790  175.8790  137.7800 C   0  0  0  0  0  2  0  0  0  0  0  0
  195.6680  174.8020  138.8370 C   0  0  0  0  0  0  0  0  0  0  0  0
  195.9870  174.9090  140.0730 O   0  0  0  0  0  0  0  0  0  0  0  0
  197.3340  173.0400  137.6930 S   0  0  0  0  0  0  0  0  0  0  0  0
  196.9470  171.4170  137.5180 C   0  0  0  0  0  3  0  0  0  0  0  0
  195.9630  173.4640  138.4600 C   0  0  0  0  0  0  0  0  0  0  0  0
  195.1950  172.4320  138.6760 N   0  0  0  0  0  0  0  0  0  0  0  0
  195.7440  171.2960  138.1250 N   0  0  0  0  0  0  0  0  0  0  0  0
  190.3300  179.0890  143.2270 C   0  0  0  0  0  2  0  0  0  0  0  0
  190.7160  178.5280  144.5340 C   0  0  0  0  0  2  0  0  0  0  0  0
  191.5020  177.2030  144.4120 C   0  0  0  0  0  2  0  0  0  0  0  0
  191.2760  176.3660  145.6680 C   0  0  0  0  0  0  0  0  0  0  0  0
  192.2170  175.9870  146.3760 O   0  0  0  0  0  0  0  0  0  0  0  0
  189.8140  176.3580  146.3370 C   0  0  0  0  0  2  0  0  0  0  0  0
  184.2990  179.1650  144.9240 C   0  0  0  0  0  2  0  0  0  0  0  0
  187.6160  178.1490  146.6680 C   0  0  2  0  0  0  0  0  0  0  0  0
  187.4640  177.6140  148.1250 C   0  0  0  0  0  2  0  0  0  0  0  0
  186.1810  178.1680  146.0880 C   0  0  2  0  0  3  0  0  0  0  0  0
  185.6820  177.6580  143.3700 C   0  0  0  0  0  2  0  0  0  0  0  0
  188.5180  177.1830  145.8360 C   0  0  2  0  0  3  0  0  0  0  0  0
  186.4160  177.4120  144.7150 C   0  0  1  0  0  3  0  0  0  0  0  0
  184.8870  178.9690  143.5040 C   0  0  0  0  0  2  0  0  0  0  0  0
  189.2950  178.5720  148.3130 O   0  0  0  0  0  1  0  0  0  0  0  0
  188.0390  178.9500  147.9010 C   0  0  1  0  0  3  0  0  0  0  0  0
  188.4560  176.4560  143.5390 O   0  0  0  0  0  1  0  0  0  0  0  0
  185.3380  179.4540  146.0260 C   0  0  0  0  0  2  0  0  0  0  0  0
  187.7000  176.5040  144.7620 C   0  0  1  0  0  3  0  0  0  0  0  0
  1  3  2  0  0  0  0
  2  5  1  0  0  0  0
  3 11  1  0  0  0  0
  3 13  1  0  0  0  0
  4 14  1  0  0  0  0
  4  8  1  0  0  0  0
  5 47  1  1  0  0  0
  6  5  1  0  0  0  0
  7 15  1  0  0  0  0
  7  2  1  1  0  0  0
  8 17  1  1  0  0  0
  9  7  1  0  0  0  0
 10 16  2  0  0  0  0
 11 12  1  1  0  0  0
 11 18  1  0  0  0  0
 11 13  1  0  0  0  0
 12 10  1  0  0  0  0
 13 39  1  1  0  0  0
 14 19  1  1  0  0  0
 14  9  1  0  0  0  0
 15 17  1  1  0  0  0
 15  6  1  0  0  0  0
 16  4  2  0  0  0  0
 18 13  1  0  0  0  0
 18  8  1  0  0  0  0
 19 20  1  0  0  0  0
 21 20  1  0  0  0  0
 21 22  1  0  0  0  0
 22 25  1  0  0  0  0
 24 25  1  0  0  0  0
 24 23  1  0  0  0  0
 25 23  1  0  0  0  0
 26 30  1  0  0  0  0
 26 24  1  0  0  0  0
 27 26  2  0  0  0  0
 29 34  1  0  0  0  0
 29 28  2  0  0  0  0
 30 29  1  0  0  0  0
 31 32  1  0  0  0  0
 31 34  1  0  0  0  0
 32 34  1  0  0  0  0
 33 31  1  0  0  0  0
 34 38  1  0  0  0  0
 36 35  1  0  0  0  0
 37 36  2  0  0  0  0
 38 36  1  0  0  0  0
 39 40  1  0  0  0  0
 40 41  2  0  0  0  0
 42 44  1  0  0  0  0
 43 42  1  0  0  0  0
 43 46  2  0  0  0  0
 44 45  2  0  0  0  0
 44 40  1  0  0  0  0
 46 45  1  0  0  0  0
 47 48  1  0  0  0  0
 49 48  1  0  0  0  0
 49 50  1  0  0  0  0
 50 52  1  0  0  0  0
 50 51  2  0  0  0  0
 53 64  1  0  0  0  0
 54 62  1  0  0  0  0
 54 55  1  0  0  0  0
 56 54  1  0  0  0  0
 57 60  1  0  0  0  0
 57 59  1  0  0  0  0
 58 52  1  0  0  0  0
 58 54  1  0  0  0  0
 59 65  1  0  0  0  0
 59 56  1  0  0  0  0
 60 53  1  0  0  0  0
 62 55  1  0  0  0  0
 62 61  1  0  0  0  0
 63 65  1  0  0  0  0
 64 56  1  0  0  0  0
 65 58  1  0  0  0  0
M  END
>  <MODEL>
7

>  <REMARK>
 VINA RESULT:      -6.6      2.921      9.877
  Name = 
  16 active torsions:
  status: ('A' for Active; 'I' for Inactive)
    1  A    between atoms: N_1  and  C_15
    2  A    between atoms: N_1  and  C_40
    3  A    between atoms: C_3  and  C_34
    4  A    between atoms: C_4  and  C_56
    5  A    between atoms: C_9  and  C_20
    6  A    between atoms: C_9  and  C_46
    7  A    between atoms: C_15  and  C_54
    8  A    between atoms: C_20  and  C_64
    9  A    between atoms: C_21  and  C_25
   10  A    between atoms: C_24  and  C_41
   11  A    between atoms: C_25  and  C_46
   12  A    between atoms: C_28  and  C_60
   13  A    between atoms: C_31  and  C_64
   14  A    between atoms: N_36  and  C_60
   15  A    between atoms: C_41  and  C_50
   16  A    between atoms: C_50  and  C_53
                            x       y       z     vdW  Elec       q    Type
                         _______ _______ _______ _____ _____    ______ ____

>  <TORSDO>
F 16

$$$$
=
 OpenBabel11042411403D

 65 75  0  0  1  0  0  0  0  0999 V2000
  194.2730  176.4480  139.7860 C   0  0  0  0  0  2  0  0  0  0  0  0
  185.1550  177.2290  136.8790 C   0  0  0  0  0  2  0  0  0  0  0  0
  193.0050  176.7820  139.5850 C   0  0  0  0  0  0  0  0  0  0  0  0
  188.6890  178.0360  140.0660 C   0  0  0  0  0  0  0  0  0  0  0  0
  185.8830  177.1590  135.5680 C   0  0  1  0  0  3  0  0  0  0  0  0
  187.5370  176.2010  135.6180 S   0  0  0  0  0  0  0  0  0  0  0  0
  186.3470  176.9880  137.9880 C   0  0  2  0  0  3  0  0  0  0  0  0
  189.4520  177.3620  138.8860 C   0  0  1  0  0  3  0  0  0  0  0  0
  186.2410  177.8310  139.2610 N   0  0  0  0  0  2  0  0  0  0  0  0
  190.3900  178.2160  142.0860 C   0  0  0  0  0  3  0  0  0  0  0  0
  191.8010  177.5130  140.1460 C   0  0  1  0  0  0  0  0  0  0  0  0
  191.5960  177.4840  141.7100 C   0  0  0  0  0  2  0  0  0  0  0  0
  192.0230  176.4900  138.4870 C   0  0  2  0  0  0  0  0  0  0  0  0
  187.1410  178.1560  140.1720 C   0  0  2  0  0  3  0  0  0  0  0  0
  187.8000  176.7960  137.2890 C   0  0  2  0  0  3  0  0  0  0  0  0
  189.4050  178.2420  141.1330 C   0  0  0  0  0  0  0  0  0  0  0  0
  189.0890  177.7400  137.4150 C   0  0  0  0  0  2  0  0  0  0  0  0
  190.8310  176.6620  139.3230 C   0  0  2  0  0  3  0  0  0  0  0  0
  186.5310  178.9910  141.3850 C   0  0  0  0  0  2  0  0  0  0  0  0
  185.3190  178.8440  141.8510 C   0  0  0  0  0  2  0  0  0  0  0  0
  184.9930  179.8000  142.9070 C   0  0  0  0  0  2  0  0  0  0  0  0
  183.9400  179.1870  143.7630 N   0  0  0  0  0  2  0  0  0  0  0  0
  184.0210  178.0440  146.1470 C   0  0  0  0  0  2  0  0  0  0  0  0
  184.7050  179.4070  146.0250 C   0  0  2  0  0  3  0  0  0  0  0  0
  184.7410  178.5060  144.8610 C   0  0  2  0  0  3  0  0  0  0  0  0
  186.0620  179.4490  146.6460 C   0  0  0  0  0  0  0  0  0  0  0  0
  186.0440  179.7590  147.9010 O   0  0  0  0  0  0  0  0  0  0  0  0
  187.4300  177.2520  147.8280 O   0  0  0  0  0  0  0  0  0  0  0  0
  187.9990  177.7970  146.8640 C   0  0  0  0  0  0  0  0  0  0  0  0
  187.2920  178.8530  146.1190 N   0  0  0  0  0  2  0  0  0  0  0  0
  188.9330  176.4250  144.9820 C   0  0  2  0  0  3  0  0  0  0  0  0
  190.1020  177.3280  145.1480 C   0  0  0  0  0  2  0  0  0  0  0  0
  188.2610  177.2670  143.9180 C   0  0  0  0  0  1  0  0  0  0  0  0
  189.2530  177.0250  146.3400 C   0  0  1  0  0  0  0  0  0  0  0  0
  192.3020  175.5170  147.7280 C   0  0  0  0  0  1  0  0  0  0  0  0
  191.3080  176.5600  147.5700 C   0  0  0  0  0  0  0  0  0  0  0  0
  191.6720  177.7320  147.7870 O   0  0  0  0  0  0  0  0  0  0  0  0
  189.9310  176.2460  147.3810 N   0  0  0  0  0  2  0  0  0  0  0  0
  192.2420  175.6000  137.2970 C   0  0  0  0  0  2  0  0  0  0  0  0
  193.6930  175.9630  136.6760 C   0  0  0  0  0  0  0  0  0  0  0  0
  194.2710  177.0860  136.4600 O   0  0  0  0  0  0  0  0  0  0  0  0
  196.1110  175.2760  135.7420 S   0  0  0  0  0  0  0  0  0  0  0  0
  196.4850  173.7080  135.2800 C   0  0  0  0  0  3  0  0  0  0  0  0
  194.5860  174.9580  136.2140 C   0  0  0  0  0  0  0  0  0  0  0  0
  194.3070  173.6890  136.1140 N   0  0  0  0  0  0  0  0  0  0  0  0
  195.3680  173.0010  135.5690 N   0  0  0  0  0  0  0  0  0  0  0  0
  184.8590  176.4460  134.5940 C   0  0  0  0  0  2  0  0  0  0  0  0
  184.2580  175.2980  135.2960 C   0  0  0  0  0  2  0  0  0  0  0  0
  182.8110  175.0050  134.8420 C   0  0  0  0  0  2  0  0  0  0  0  0
  182.0530  174.3270  135.9800 C   0  0  0  0  0  0  0  0  0  0  0  0
  182.3750  173.2090  136.4010 O   0  0  0  0  0  0  0  0  0  0  0  0
  181.1380  175.2320  136.9440 C   0  0  0  0  0  2  0  0  0  0  0  0
  181.1880  181.3610  138.5920 C   0  0  0  0  0  2  0  0  0  0  0  0
  181.7990  177.5280  138.5060 C   0  0  2  0  0  0  0  0  0  0  0  0
  181.3130  176.7490  139.7650 C   0  0  0  0  0  2  0  0  0  0  0  0
  181.1630  178.9340  138.6240 C   0  0  2  0  0  3  0  0  0  0  0  0
  180.3730  180.3930  136.3570 C   0  0  0  0  0  2  0  0  0  0  0  0
  181.2910  176.8180  137.2100 C   0  0  2  0  0  3  0  0  0  0  0  0
  180.5290  179.0870  137.1810 C   0  0  1  0  0  3  0  0  0  0  0  0
  181.2090  181.4850  137.0480 C   0  0  0  0  0  2  0  0  0  0  0  0
  182.9820  175.6100  139.2950 O   0  0  0  0  0  1  0  0  0  0  0  0
  182.7560  176.9420  139.5460 C   0  0  1  0  0  3  0  0  0  0  0  0
  180.5140  177.6490  135.0850 O   0  0  0  0  0  1  0  0  0  0  0  0
  181.9480  180.1460  139.1600 C   0  0  0  0  0  2  0  0  0  0  0  0
  180.2780  177.6890  136.5030 C   0  0  1  0  0  3  0  0  0  0  0  0
  3  1  2  0  0  0  0
  3 11  1  0  0  0  0
  4 14  1  0  0  0  0
  4 16  2  0  0  0  0
  5 47  1  6  0  0  0
  5  6  1  0  0  0  0
  5  2  1  0  0  0  0
  6 15  1  0  0  0  0
  7  2  1  6  0  0  0
  7  9  1  0  0  0  0
  8 17  1  6  0  0  0
  8 18  1  0  0  0  0
  8  4  1  0  0  0  0
  9 14  1  0  0  0  0
 11 12  1  6  0  0  0
 12 10  1  0  0  0  0
 13 39  1  6  0  0  0
 13 18  1  0  0  0  0
 13  3  1  0  0  0  0
 13 11  1  0  0  0  0
 14 19  1  6  0  0  0
 15 17  1  6  0  0  0
 15  7  1  0  0  0  0
 16 10  2  0  0  0  0
 18 11  1  0  0  0  0
 19 20  1  0  0  0  0
 20 21  1  0  0  0  0
 21 22  1  0  0  0  0
 22 25  1  0  0  0  0
 24 23  1  0  0  0  0
 24 26  1  0  0  0  0
 25 24  1  0  0  0  0
 25 23  1  0  0  0  0
 26 27  2  0  0  0  0
 29 28  2  0  0  0  0
 30 26  1  0  0  0  0
 30 29  1  0  0  0  0
 31 32  1  0  0  0  0
 31 34  1  0  0  0  0
 32 34  1  0  0  0  0
 33 31  1  0  0  0  0
 34 29  1  0  0  0  0
 34 38  1  0  0  0  0
 36 35  1  0  0  0  0
 36 37  2  0  0  0  0
 38 36  1  0  0  0  0
 40 39  1  0  0  0  0
 41 40  2  0  0  0  0
 42 44  1  0  0  0  0
 43 46  2  0  0  0  0
 43 42  1  0  0  0  0
 44 40  1  0  0  0  0
 45 44  2  0  0  0  0
 46 45  1  0  0  0  0
 47 48  1  0  0  0  0
 49 48  1  0  0  0  0
 49 50  1  0  0  0  0
 50 51  2  0  0  0  0
 50 52  1  0  0  0  0
 52 58  1  0  0  0  0
 53 64  1  0  0  0  0
 54 56  1  0  0  0  0
 54 62  1  0  0  0  0
 54 55  1  0  0  0  0
 56 64  1  0  0  0  0
 57 60  1  0  0  0  0
 57 59  1  0  0  0  0
 58 54  1  0  0  0  0
 59 56  1  0  0  0  0
 60 53  1  0  0  0  0
 61 62  1  0  0  0  0
 62 55  1  0  0  0  0
 63 65  1  0  0  0  0
 65 59  1  0  0  0  0
 65 58  1  0  0  0  0
M  END
>  <MODEL>
8

>  <REMARK>
 VINA RESULT:      -6.5      3.138     10.971
  Name = 
  16 active torsions:
  status: ('A' for Active; 'I' for Inactive)
    1  A    between atoms: N_1  and  C_15
    2  A    between atoms: N_1  and  C_40
    3  A    between atoms: C_3  and  C_34
    4  A    between atoms: C_4  and  C_56
    5  A    between atoms: C_9  and  C_20
    6  A    between atoms: C_9  and  C_46
    7  A    between atoms: C_15  and  C_54
    8  A    between atoms: C_20  and  C_64
    9  A    between atoms: C_21  and  C_25
   10  A    between atoms: C_24  and  C_41
   11  A    between atoms: C_25  and  C_46
   12  A    between atoms: C_28  and  C_60
   13  A    between atoms: C_31  and  C_64
   14  A    between atoms: N_36  and  C_60
   15  A    between atoms: C_41  and  C_50
   16  A    between atoms: C_50  and  C_53
                            x       y       z     vdW  Elec       q    Type
                         _______ _______ _______ _____ _____    ______ ____

>  <TORSDO>
F 16

$$$$
=
 OpenBabel11042411403D

 65 75  0  0  1  0  0  0  0  0999 V2000
  188.0610  177.6600  147.9480 C   0  0  0  0  0  2  0  0  0  0  0  0
  185.1720  178.5650  138.8360 C   0  0  0  0  0  2  0  0  0  0  0  0
  187.9150  177.6310  146.6300 C   0  0  0  0  0  0  0  0  0  0  0  0
  188.5730  177.7340  142.1590 C   0  0  0  0  0  0  0  0  0  0  0  0
  183.9140  178.0890  139.5040 C   0  0  1  0  0  3  0  0  0  0  0  0
  183.7610  178.5560  141.3510 S   0  0  0  0  0  0  0  0  0  0  0  0
  186.2150  178.7700  140.0930 C   0  0  2  0  0  3  0  0  0  0  0  0
  187.2800  177.8430  143.0250 C   0  0  1  0  0  3  0  0  0  0  0  0
  187.6630  178.3540  139.8210 N   0  0  0  0  0  2  0  0  0  0  0  0
  190.6220  177.6560  143.8330 C   0  0  0  0  0  3  0  0  0  0  0  0
  188.6110  177.4190  145.3000 C   0  0  1  0  0  0  0  0  0  0  0  0
  190.1030  177.9160  145.1730 C   0  0  0  0  0  2  0  0  0  0  0  0
  186.7470  177.8690  145.7160 C   0  0  2  0  0  0  0  0  0  0  0  0
  188.6560  178.0580  140.6390 C   0  0  2  0  0  3  0  0  0  0  0  0
  185.5370  178.3790  141.5170 C   0  0  2  0  0  3  0  0  0  0  0  0
  189.6780  177.6380  142.8380 C   0  0  0  0  0  0  0  0  0  0  0  0
  185.9530  177.1970  142.5160 C   0  0  0  0  0  2  0  0  0  0  0  0
  187.5590  178.2450  144.5560 C   0  0  2  0  0  3  0  0  0  0  0  0
  190.0270  177.7670  139.8810 C   0  0  0  0  0  2  0  0  0  0  0  0
  190.4870  176.5750  139.6110 C   0  0  0  0  0  2  0  0  0  0  0  0
  191.8090  176.5990  138.9880 C   0  0  0  0  0  2  0  0  0  0  0  0
  191.6170  176.8510  137.5320 N   0  0  0  0  0  2  0  0  0  0  0  0
  192.6780  175.2950  135.6750 C   0  0  0  0  0  2  0  0  0  0  0  0
  191.1690  175.5340  135.5800 C   0  0  2  0  0  3  0  0  0  0  0  0
  191.7790  175.4700  136.9190 C   0  0  2  0  0  3  0  0  0  0  0  0
  190.3830  174.2870  135.3460 C   0  0  0  0  0  0  0  0  0  0  0  0
  191.0200  173.2090  135.6710 O   0  0  0  0  0  0  0  0  0  0  0  0
  188.5960  173.0640  137.1930 O   0  0  0  0  0  0  0  0  0  0  0  0
  188.1020  173.4210  136.1070 C   0  0  0  0  0  0  0  0  0  0  0  0
  188.9350  174.1790  135.1570 N   0  0  0  0  0  2  0  0  0  0  0  0
  185.9570  174.5400  136.7710 C   0  0  2  0  0  3  0  0  0  0  0  0
  185.5840  174.2510  135.3620 C   0  0  0  0  0  2  0  0  0  0  0  0
  186.4910  175.9290  136.4870 C   0  0  0  0  0  1  0  0  0  0  0  0
  186.5430  173.3360  136.0530 C   0  0  1  0  0  0  0  0  0  0  0  0
  185.0780  170.2170  134.7820 C   0  0  0  0  0  1  0  0  0  0  0  0
  186.1630  171.0910  135.1800 C   0  0  0  0  0  0  0  0  0  0  0  0
  187.2720  170.9030  134.6420 O   0  0  0  0  0  0  0  0  0  0  0  0
  186.0280  171.9830  136.2820 N   0  0  0  0  0  2  0  0  0  0  0  0
  185.3700  178.3200  146.1130 C   0  0  0  0  0  2  0  0  0  0  0  0
  184.7760  179.2050  144.8940 C   0  0  0  0  0  0  0  0  0  0  0  0
  185.3080  180.1100  144.1590 O   0  0  0  0  0  0  0  0  0  0  0  0
  182.6580  180.2440  143.6180 S   0  0  0  0  0  0  0  0  0  0  0  0
  181.1690  179.4730  143.5690 C   0  0  0  0  0  3  0  0  0  0  0  0
  183.4240  179.0870  144.4690 C   0  0  0  0  0  0  0  0  0  0  0  0
  182.6470  178.0660  144.6980 N   0  0  0  0  0  0  0  0  0  0  0  0
  181.3810  178.3010  144.2110 N   0  0  0  0  0  0  0  0  0  0  0  0
  182.7520  178.7620  138.6640 C   0  0  0  0  0  2  0  0  0  0  0  0
  181.6080  179.0170  139.5580 C   0  0  0  0  0  2  0  0  0  0  0  0
  180.5300  179.9160  138.9130 C   0  0  0  0  0  2  0  0  0  0  0  0
  179.9850  179.2310  137.6630 C   0  0  0  0  0  0  0  0  0  0  0  0
  180.3130  179.5950  136.5260 O   0  0  0  0  0  0  0  0  0  0  0  0
  179.3560  177.7580  137.8010 C   0  0  0  0  0  2  0  0  0  0  0  0
  182.5540  172.5150  136.1970 C   0  0  0  0  0  2  0  0  0  0  0  0
  180.3990  175.1190  138.1080 C   0  0  2  0  0  0  0  0  0  0  0  0
  180.9600  175.5560  139.4950 C   0  0  0  0  0  2  0  0  0  0  0  0
  181.5600  174.3630  137.4180 C   0  0  2  0  0  3  0  0  0  0  0  0
  181.9340  174.4580  134.6340 C   0  0  0  0  0  2  0  0  0  0  0  0
  180.0060  176.3770  137.2710 C   0  0  2  0  0  3  0  0  0  0  0  0
  181.5770  175.0860  136.0080 C   0  0  1  0  0  3  0  0  0  0  0  0
  181.9840  172.9300  134.8170 C   0  0  0  0  0  2  0  0  0  0  0  0
  178.9310  175.6530  139.9130 O   0  0  0  0  0  1  0  0  0  0  0  0
  179.7770  174.6820  139.4360 C   0  0  1  0  0  3  0  0  0  0  0  0
  180.1600  176.8940  134.9210 O   0  0  0  0  0  1  0  0  0  0  0  0
  181.6420  172.8250  137.4000 C   0  0  0  0  0  2  0  0  0  0  0  0
  180.9250  176.5170  136.0790 C   0  0  1  0  0  3  0  0  0  0  0  0
  2  5  1  0  0  0  0
  3  1  2  0  0  0  0
  4 16  2  0  0  0  0
  4  8  1  0  0  0  0
  5 47  1  6  0  0  0
  5  6  1  0  0  0  0
  6 15  1  0  0  0  0
  7  2  1  6  0  0  0
  7 15  1  0  0  0  0
  8 17  1  1  0  0  0
  8 18  1  0  0  0  0
  9  7  1  0  0  0  0
  9 14  1  0  0  0  0
 10 12  1  0  0  0  0
 11 12  1  6  0  0  0
 11 13  1  0  0  0  0
 11  3  1  0  0  0  0
 13 39  1  6  0  0  0
 13  3  1  0  0  0  0
 14 19  1  6  0  0  0
 14  4  1  0  0  0  0
 15 17  1  6  0  0  0
 16 10  2  0  0  0  0
 18 11  1  0  0  0  0
 18 13  1  0  0  0  0
 20 19  1  0  0  0  0
 21 20  1  0  0  0  0
 22 21  1  0  0  0  0
 23 25  1  0  0  0  0
 24 23  1  0  0  0  0
 24 25  1  0  0  0  0
 25 22  1  0  0  0  0
 26 24  1  0  0  0  0
 26 27  2  0  0  0  0
 29 28  2  0  0  0  0
 30 26  1  0  0  0  0
 30 29  1  0  0  0  0
 32 34  1  0  0  0  0
 32 31  1  0  0  0  0
 33 31  1  0  0  0  0
 34 29  1  0  0  0  0
 34 38  1  0  0  0  0
 34 31  1  0  0  0  0
 35 36  1  0  0  0  0
 36 38  1  0  0  0  0
 37 36  2  0  0  0  0
 40 39  1  0  0  0  0
 41 40  2  0  0  0  0
 42 44  1  0  0  0  0
 43 42  1  0  0  0  0
 43 46  2  0  0  0  0
 44 45  2  0  0  0  0
 44 40  1  0  0  0  0
 46 45  1  0  0  0  0
 47 48  1  0  0  0  0
 49 48  1  0  0  0  0
 50 52  1  0  0  0  0
 50 49  1  0  0  0  0
 51 50  2  0  0  0  0
 53 64  1  0  0  0  0
 54 62  1  0  0  0  0
 54 55  1  0  0  0  0
 56 54  1  0  0  0  0
 57 60  1  0  0  0  0
 57 59  1  0  0  0  0
 58 52  1  0  0  0  0
 58 54  1  0  0  0  0
 59 65  1  0  0  0  0
 59 56  1  0  0  0  0
 60 53  1  0  0  0  0
 62 55  1  0  0  0  0
 62 61  1  0  0  0  0
 63 65  1  0  0  0  0
 64 56  1  0  0  0  0
 65 58  1  0  0  0  0
M  END
>  <MODEL>
9

>  <REMARK>
 VINA RESULT:      -5.7      3.463     10.155
  Name = 
  16 active torsions:
  status: ('A' for Active; 'I' for Inactive)
    1  A    between atoms: N_1  and  C_15
    2  A    between atoms: N_1  and  C_40
    3  A    between atoms: C_3  and  C_34
    4  A    between atoms: C_4  and  C_56
    5  A    between atoms: C_9  and  C_20
    6  A    between atoms: C_9  and  C_46
    7  A    between atoms: C_15  and  C_54
    8  A    between atoms: C_20  and  C_64
    9  A    between atoms: C_21  and  C_25
   10  A    between atoms: C_24  and  C_41
   11  A    between atoms: C_25  and  C_46
   12  A    between atoms: C_28  and  C_60
   13  A    between atoms: C_31  and  C_64
   14  A    between atoms: N_36  and  C_60
   15  A    between atoms: C_41  and  C_50
   16  A    between atoms: C_50  and  C_53
                            x       y       z     vdW  Elec       q    Type
                         _______ _______ _______ _____ _____    ______ ____

>  <TORSDO>
F 16

$$$$
