=
 OpenBabel11042412053D

 30 34  0  0  1  0  0  0  0  0999 V2000
  185.2460  175.7240  137.5120 C   0  0  2  0  0  3  0  0  0  0  0  0
  183.3640  175.0030  136.0820 N   0  0  0  0  0  0  0  0  0  0  0  0
  185.0040  179.2290  140.6140 C   0  0  2  0  0  3  0  0  0  0  0  0
  185.8550  177.4880  134.7620 C   0  0  0  0  0  2  0  0  0  0  0  0
  184.6010  179.8320  139.4210 O   0  0  0  0  0  1  0  0  0  0  0  0
  182.4630  177.9450  139.3750 C   0  0  0  0  0  3  0  0  0  0  0  0
  184.0070  176.5890  137.7670 C   0  0  0  0  0  0  0  0  0  0  0  0
  183.4880  177.3590  134.5940 N   0  0  0  0  0  2  0  0  0  0  0  0
  182.2950  176.6210  134.7320 N   0  0  0  0  0  2  0  0  0  0  0  0
  186.1300  178.2370  140.3790 C   0  0  0  0  0  2  0  0  0  0  0  0
  184.5310  177.0890  135.3250 C   0  0  1  0  0  3  0  0  0  0  0  0
  186.3510  176.6170  137.8460 N   0  0  0  0  0  2  0  0  0  0  0  0
  188.8800  178.0040  138.3840 C   0  0  0  0  0  0  0  0  0  0  0  0
  188.7330  176.9000  137.3600 C   0  0  2  0  0  3  0  0  0  0  0  0
  182.3360  175.3300  135.3580 C   0  0  0  0  0  3  0  0  0  0  0  0
  182.7530  178.0900  140.8100 C   0  0  0  0  0  3  0  0  0  0  0  0
  187.2390  178.8970  139.8430 O   0  0  0  0  0  0  0  0  0  0  0  0
  189.5310  179.0020  138.1030 O   0  0  0  0  0  0  0  0  0  0  0  0
  184.3740  176.0160  136.3970 C   0  0  1  0  0  0  0  0  0  0  0  0
  183.8570  178.6020  141.3790 C   0  0  0  0  0  0  0  0  0  0  0  0
  188.2210  177.9080  139.7280 C   0  0  0  0  0  2  0  0  0  0  0  0
  187.3090  176.8170  136.7780 C   0  0  2  0  0  3  0  0  0  0  0  0
  186.8890  178.3730  135.9460 S   0  0  0  0  0  0  0  0  0  0  0  0
  183.2440  177.2770  138.5700 C   0  0  0  0  0  0  0  0  0  0  0  0
  190.5500  173.6790  137.2320 N   0  0  0  0  0  1  0  0  0  0  0  0
  189.1790  175.5370  137.8970 C   0  0  1  0  0  3  0  0  0  0  0  0
  190.4150  175.1220  137.1870 C   0  0  1  0  0  3  0  0  0  0  0  0
  190.4520  175.6390  138.4980 O   0  0  0  0  0  0  0  0  0  0  0  0
  183.9270  178.5380  142.7750 O   0  0  0  0  0  0  0  0  0  0  0  0
  182.8760  178.9940  143.6170 C   0  0  0  0  0  1  0  0  0  0  0  0
  1  7  1  1  0  0  0
  1 12  1  0  0  0  0
  3  5  1  6  0  0  0
  3 20  1  0  0  0  0
  4 23  1  0  0  0  0
  6 16  1  0  0  0  0
  7 24  2  0  0  0  0
  8  9  1  0  0  0  0
  8 11  1  0  0  0  0
  9 15  1  0  0  0  0
 10  3  1  0  0  0  0
 11  4  1  6  0  0  0
 11 19  1  0  0  0  0
 13 21  1  0  0  0  0
 14 26  1  0  0  0  0
 14 13  1  1  0  0  0
 15  2  2  0  0  0  0
 16 20  2  0  0  0  0
 17 10  1  0  0  0  0
 18 13  2  0  0  0  0
 19  2  1  6  0  0  0
 19  1  1  0  0  0  0
 19  7  1  0  0  0  0
 20 29  1  0  0  0  0
 21 17  1  0  0  0  0
 22 23  1  1  0  0  0
 22 14  1  0  0  0  0
 22 12  1  0  0  0  0
 24  6  2  0  0  0  0
 26 28  1  1  0  0  0
 27 25  1  1  0  0  0
 27 26  1  0  0  0  0
 27 28  1  0  0  0  0
 29 30  1  0  0  0  0
M  END
>  <MODEL>
1

>  <REMARK>
 VINA RESULT:      -5.8      0.000      0.000
  Name = 
  2 active torsions:
  status: ('A' for Active; 'I' for Inactive)
    1  A    between atoms: O_6  and  C_25
    2  A    between atoms: C_16  and  C_19
                            x       y       z     vdW  Elec       q    Type
                         _______ _______ _______ _____ _____    ______ ____

>  <TORSDO>
F 2

$$$$
=
 OpenBabel11042412053D

 30 34  0  0  1  0  0  0  0  0999 V2000
  181.9930  177.6330  140.7310 C   0  0  2  0  0  3  0  0  0  0  0  0
  179.7350  178.1460  141.5950 N   0  0  0  0  0  0  0  0  0  0  0  0
  185.9730  179.0710  142.7450 C   0  0  2  0  0  3  0  0  0  0  0  0
  181.2680  180.3610  138.9760 C   0  0  0  0  0  2  0  0  0  0  0  0
  185.2690  180.2600  142.5480 O   0  0  0  0  0  1  0  0  0  0  0  0
  183.2490  179.1560  144.2320 C   0  0  0  0  0  3  0  0  0  0  0  0
  182.0770  178.4950  141.9950 C   0  0  0  0  0  0  0  0  0  0  0  0
  180.0050  180.8410  140.9310 N   0  0  0  0  0  2  0  0  0  0  0  0
  179.1640  180.4070  141.9750 N   0  0  0  0  0  2  0  0  0  0  0  0
  185.7830  178.1170  141.5780 C   0  0  0  0  0  2  0  0  0  0  0  0
  180.8520  180.0260  140.3700 C   0  0  1  0  0  3  0  0  0  0  0  0
  183.2120  177.9800  140.0080 N   0  0  0  0  0  2  0  0  0  0  0  0
  185.4900  178.3360  138.1920 C   0  0  0  0  0  0  0  0  0  0  0  0
  184.1010  177.9540  137.7280 C   0  0  2  0  0  3  0  0  0  0  0  0
  178.9310  179.0020  142.1510 C   0  0  0  0  0  3  0  0  0  0  0  0
  184.4770  178.4970  144.7020 C   0  0  0  0  0  3  0  0  0  0  0  0
  186.2610  178.7030  140.4030 O   0  0  0  0  0  0  0  0  0  0  0  0
  186.1230  179.1750  137.5660 O   0  0  0  0  0  0  0  0  0  0  0  0
  180.9630  178.6230  140.9550 C   0  0  1  0  0  0  0  0  0  0  0  0
  185.6580  178.4060  144.0680 C   0  0  0  0  0  0  0  0  0  0  0  0
  186.0920  177.7220  139.4210 C   0  0  0  0  0  2  0  0  0  0  0  0
  182.9970  178.4790  138.6650 C   0  0  2  0  0  3  0  0  0  0  0  0
  183.0550  180.2900  138.7360 S   0  0  0  0  0  0  0  0  0  0  0  0
  182.6720  178.8320  143.1060 C   0  0  0  0  0  0  0  0  0  0  0  0
  182.9500  174.9320  135.9290 N   0  0  0  0  0  1  0  0  0  0  0  0
  183.9500  176.4470  137.5030 C   0  0  1  0  0  3  0  0  0  0  0  0
  183.6330  176.2030  136.0740 C   0  0  1  0  0  3  0  0  0  0  0  0
  184.9250  175.9850  136.5940 O   0  0  0  0  0  0  0  0  0  0  0  0
  186.6460  177.6380  144.6940 O   0  0  0  0  0  0  0  0  0  0  0  0
  187.1270  177.9260  146.0000 C   0  0  0  0  0  1  0  0  0  0  0  0
  1 12  1  6  0  0  0
  1 19  1  0  0  0  0
  1  7  1  0  0  0  0
  2 15  2  0  0  0  0
  3  5  1  6  0  0  0
  3 20  1  0  0  0  0
  6 16  1  0  0  0  0
  7 24  2  0  0  0  0
  8  9  1  0  0  0  0
  9 15  1  0  0  0  0
 10  3  1  0  0  0  0
 11  4  1  6  0  0  0
 11  8  1  0  0  0  0
 11 19  1  0  0  0  0
 13 21  1  0  0  0  0
 14 13  1  1  0  0  0
 14 22  1  0  0  0  0
 17 10  1  0  0  0  0
 18 13  2  0  0  0  0
 19  2  1  1  0  0  0
 19  7  1  0  0  0  0
 20 29  1  0  0  0  0
 20 16  2  0  0  0  0
 21 17  1  0  0  0  0
 22 23  1  1  0  0  0
 22 12  1  0  0  0  0
 23  4  1  0  0  0  0
 24  6  2  0  0  0  0
 26 28  1  6  0  0  0
 26 14  1  0  0  0  0
 27 25  1  1  0  0  0
 27 28  1  0  0  0  0
 27 26  1  0  0  0  0
 29 30  1  0  0  0  0
M  END
>  <MODEL>
2

>  <REMARK>
 VINA RESULT:      -5.4      3.536      5.395
  Name = 
  2 active torsions:
  status: ('A' for Active; 'I' for Inactive)
    1  A    between atoms: O_6  and  C_25
    2  A    between atoms: C_16  and  C_19
                            x       y       z     vdW  Elec       q    Type
                         _______ _______ _______ _____ _____    ______ ____

>  <TORSDO>
F 2

$$$$
=
 OpenBabel11042412053D

 30 34  0  0  1  0  0  0  0  0999 V2000
  183.5490  175.0770  137.9390 C   0  0  2  0  0  3  0  0  0  0  0  0
  181.3110  174.0350  138.0590 N   0  0  0  0  0  0  0  0  0  0  0  0
  184.5780  179.3110  139.6660 C   0  0  2  0  0  3  0  0  0  0  0  0
  182.2870  175.9920  135.0030 C   0  0  0  0  0  2  0  0  0  0  0  0
  183.5050  179.5690  138.8110 O   0  0  0  0  0  1  0  0  0  0  0  0
  181.9820  177.7980  140.4480 C   0  0  0  0  0  3  0  0  0  0  0  0
  182.5510  176.0100  138.6340 C   0  0  0  0  0  0  0  0  0  0  0  0
  180.2650  175.8810  136.2490 N   0  0  0  0  0  2  0  0  0  0  0  0
  179.4630  175.2410  137.2140 N   0  0  0  0  0  2  0  0  0  0  0  0
  185.5110  178.2650  139.0800 C   0  0  0  0  0  2  0  0  0  0  0  0
  181.5640  175.7980  136.2950 C   0  0  1  0  0  3  0  0  0  0  0  0
  184.5170  176.0000  137.3560 N   0  0  0  0  0  2  0  0  0  0  0  0
  186.7030  177.4180  136.0040 C   0  0  0  0  0  0  0  0  0  0  0  0
  186.1680  176.0760  135.5500 C   0  0  2  0  0  3  0  0  0  0  0  0
  180.0210  174.1740  137.9950 C   0  0  0  0  0  3  0  0  0  0  0  0
  182.9930  178.3280  141.3750 C   0  0  0  0  0  3  0  0  0  0  0  0
  186.0350  178.7220  137.8680 O   0  0  0  0  0  0  0  0  0  0  0  0
  186.9440  178.2810  135.1720 O   0  0  0  0  0  0  0  0  0  0  0  0
  182.1760  175.0700  137.4870 C   0  0  1  0  0  0  0  0  0  0  0  0
  184.1450  178.9500  141.0710 C   0  0  0  0  0  0  0  0  0  0  0  0
  186.9160  177.7160  137.4590 C   0  0  0  0  0  2  0  0  0  0  0  0
  184.6880  175.8710  135.9230 C   0  0  2  0  0  3  0  0  0  0  0  0
  183.6680  177.1450  135.1320 S   0  0  0  0  0  0  0  0  0  0  0  0
  182.2720  176.9130  139.5330 C   0  0  0  0  0  0  0  0  0  0  0  0
  187.8820  172.8110  135.2470 N   0  0  0  0  0  1  0  0  0  0  0  0
  187.0210  174.9060  136.0490 C   0  0  1  0  0  3  0  0  0  0  0  0
  187.5690  174.1780  134.8780 C   0  0  1  0  0  3  0  0  0  0  0  0
  188.3610  175.0630  135.6370 O   0  0  0  0  0  0  0  0  0  0  0  0
  184.9820  179.2750  142.1440 O   0  0  0  0  0  0  0  0  0  0  0  0
  185.5040  178.2950  143.0320 C   0  0  0  0  0  1  0  0  0  0  0  0
  1 12  1  6  0  0  0
  1  7  1  0  0  0  0
  3  5  1  6  0  0  0
  3 20  1  0  0  0  0
  4 23  1  0  0  0  0
  6 16  1  0  0  0  0
  7 24  2  0  0  0  0
  8 11  1  0  0  0  0
  8  9  1  0  0  0  0
  9 15  1  0  0  0  0
 10  3  1  0  0  0  0
 11  4  1  6  0  0  0
 11 19  1  0  0  0  0
 13 21  1  0  0  0  0
 14 22  1  0  0  0  0
 14 13  1  1  0  0  0
 14 26  1  0  0  0  0
 15  2  2  0  0  0  0
 17 10  1  0  0  0  0
 18 13  2  0  0  0  0
 19  1  1  0  0  0  0
 19  2  1  1  0  0  0
 19  7  1  0  0  0  0
 20 16  2  0  0  0  0
 20 29  1  0  0  0  0
 21 17  1  0  0  0  0
 22 23  1  6  0  0  0
 22 12  1  0  0  0  0
 24  6  2  0  0  0  0
 26 28  1  1  0  0  0
 27 25  1  1  0  0  0
 27 28  1  0  0  0  0
 27 26  1  0  0  0  0
 29 30  1  0  0  0  0
M  END
>  <MODEL>
3

>  <REMARK>
 VINA RESULT:      -5.4      2.276      2.797
  Name = 
  2 active torsions:
  status: ('A' for Active; 'I' for Inactive)
    1  A    between atoms: O_6  and  C_25
    2  A    between atoms: C_16  and  C_19
                            x       y       z     vdW  Elec       q    Type
                         _______ _______ _______ _____ _____    ______ ____

>  <TORSDO>
F 2

$$$$
=
 OpenBabel11042412053D

 30 34  0  0  1  0  0  0  0  0999 V2000
  182.5970  175.6280  138.9560 C   0  0  2  0  0  3  0  0  0  0  0  0
  180.4200  175.4750  140.1170 N   0  0  0  0  0  0  0  0  0  0  0  0
  185.7180  179.0540  139.6550 C   0  0  2  0  0  3  0  0  0  0  0  0
  180.6210  177.1490  136.7590 C   0  0  0  0  0  2  0  0  0  0  0  0
  184.5560  179.7480  139.3150 O   0  0  0  0  0  1  0  0  0  0  0  0
  183.3600  178.5490  141.6100 C   0  0  0  0  0  3  0  0  0  0  0  0
  182.4060  176.8100  139.9130 C   0  0  0  0  0  0  0  0  0  0  0  0
  179.4420  177.7000  138.7480 N   0  0  0  0  0  2  0  0  0  0  0  0
  178.9630  177.3320  140.0210 N   0  0  0  0  0  2  0  0  0  0  0  0
  185.8620  177.7830  138.8360 C   0  0  0  0  0  2  0  0  0  0  0  0
  180.5080  177.1430  138.2470 C   0  0  1  0  0  3  0  0  0  0  0  0
  183.4810  176.1700  137.9290 N   0  0  0  0  0  2  0  0  0  0  0  0
  185.2210  176.7780  135.6460 C   0  0  0  0  0  0  0  0  0  0  0  0
  184.1000  175.7630  135.5960 C   0  0  2  0  0  3  0  0  0  0  0  0
  179.3750  176.0820  140.5930 C   0  0  0  0  0  3  0  0  0  0  0  0
  184.7860  178.6030  141.9640 C   0  0  0  0  0  3  0  0  0  0  0  0
  185.9400  178.1000  137.4770 O   0  0  0  0  0  0  0  0  0  0  0  0
  185.3750  177.5490  134.7080 O   0  0  0  0  0  0  0  0  0  0  0  0
  181.2630  176.1580  139.1320 C   0  0  1  0  0  0  0  0  0  0  0  0
  185.8330  178.7790  141.1400 C   0  0  0  0  0  0  0  0  0  0  0  0
  186.1300  176.8730  136.8350 C   0  0  0  0  0  2  0  0  0  0  0  0
  182.9600  176.0900  136.5800 C   0  0  2  0  0  3  0  0  0  0  0  0
  182.2350  177.7010  136.1740 S   0  0  0  0  0  0  0  0  0  0  0  0
  182.8870  177.6860  140.7510 C   0  0  0  0  0  0  0  0  0  0  0  0
  184.1920  172.1230  134.9370 N   0  0  0  0  0  1  0  0  0  0  0  0
  184.5970  174.3290  135.8000 C   0  0  1  0  0  3  0  0  0  0  0  0
  184.2650  173.5300  134.5940 C   0  0  1  0  0  3  0  0  0  0  0  0
  185.5710  174.0040  134.8320 O   0  0  0  0  0  0  0  0  0  0  0  0
  187.1050  178.6960  141.7180 O   0  0  0  0  0  0  0  0  0  0  0  0
  187.4150  177.7750  142.7550 C   0  0  0  0  0  1  0  0  0  0  0  0
  1 12  1  6  0  0  0
  1 19  1  0  0  0  0
  1  7  1  0  0  0  0
  2 15  2  0  0  0  0
  3  5  1  1  0  0  0
  3 20  1  0  0  0  0
  6 16  1  0  0  0  0
  7 24  2  0  0  0  0
  8  9  1  0  0  0  0
  9 15  1  0  0  0  0
 10  3  1  0  0  0  0
 11  4  1  6  0  0  0
 11  8  1  0  0  0  0
 11 19  1  0  0  0  0
 13 21  1  0  0  0  0
 14 13  1  1  0  0  0
 14 26  1  0  0  0  0
 14 22  1  0  0  0  0
 17 10  1  0  0  0  0
 18 13  2  0  0  0  0
 19  7  1  1  0  0  0
 19  2  1  0  0  0  0
 20 29  1  0  0  0  0
 20 16  2  0  0  0  0
 21 17  1  0  0  0  0
 22 23  1  6  0  0  0
 22 12  1  0  0  0  0
 23  4  1  0  0  0  0
 24  6  2  0  0  0  0
 26 28  1  6  0  0  0
 27 28  1  0  0  0  0
 27 25  1  1  0  0  0
 27 26  1  0  0  0  0
 29 30  1  0  0  0  0
M  END
>  <MODEL>
4

>  <REMARK>
 VINA RESULT:      -5.3      3.026      4.461
  Name = 
  2 active torsions:
  status: ('A' for Active; 'I' for Inactive)
    1  A    between atoms: O_6  and  C_25
    2  A    between atoms: C_16  and  C_19
                            x       y       z     vdW  Elec       q    Type
                         _______ _______ _______ _____ _____    ______ ____

>  <TORSDO>
F 2

$$$$
=
 OpenBabel11042412053D

 30 34  0  0  1  0  0  0  0  0999 V2000
  181.2380  177.2150  140.6750 C   0  0  2  0  0  3  0  0  0  0  0  0
  180.0360  177.8960  142.7240 N   0  0  0  0  0  0  0  0  0  0  0  0
  185.3590  178.9950  139.3260 C   0  0  2  0  0  3  0  0  0  0  0  0
  179.2210  179.5580  139.4540 C   0  0  0  0  0  2  0  0  0  0  0  0
  184.5550  180.1280  139.4680 O   0  0  0  0  0  1  0  0  0  0  0  0
  184.2610  179.3780  142.2050 C   0  0  0  0  0  3  0  0  0  0  0  0
  182.0140  178.3040  141.4240 C   0  0  0  0  0  0  0  0  0  0  0  0
  179.4770  180.4110  141.6570 N   0  0  0  0  0  2  0  0  0  0  0  0
  179.5740  180.1900  143.0450 N   0  0  0  0  0  2  0  0  0  0  0  0
  184.5790  177.8350  138.7310 C   0  0  0  0  0  2  0  0  0  0  0  0
  179.8510  179.5000  140.8060 C   0  0  1  0  0  3  0  0  0  0  0  0
  181.6450  177.4110  139.2870 N   0  0  0  0  0  2  0  0  0  0  0  0
  182.1400  177.3990  136.3940 C   0  0  0  0  0  0  0  0  0  0  0  0
  180.8410  176.9420  137.0240 C   0  0  2  0  0  3  0  0  0  0  0  0
  179.6850  178.8460  143.5370 C   0  0  0  0  0  3  0  0  0  0  0  0
  185.5710  178.8160  141.8400 C   0  0  0  0  0  3  0  0  0  0  0  0
  184.1060  178.1820  137.4630 O   0  0  0  0  0  0  0  0  0  0  0  0
  182.1080  178.0990  135.3910 O   0  0  0  0  0  0  0  0  0  0  0  0
  180.4870  178.2350  141.3720 C   0  0  1  0  0  0  0  0  0  0  0  0
  186.0600  178.5990  140.6080 C   0  0  0  0  0  0  0  0  0  0  0  0
  183.4640  177.0310  136.9950 C   0  0  0  0  0  2  0  0  0  0  0  0
  180.5530  177.6430  138.3640 C   0  0  2  0  0  3  0  0  0  0  0  0
  180.4190  179.4330  138.1110 S   0  0  0  0  0  0  0  0  0  0  0  0
  183.1380  178.8460  141.8020 C   0  0  0  0  0  0  0  0  0  0  0  0
  179.1750  173.6390  136.9340 N   0  0  0  0  0  1  0  0  0  0  0  0
  180.7690  175.4200  137.1800 C   0  0  1  0  0  3  0  0  0  0  0  0
  179.6180  174.9110  136.3950 C   0  0  1  0  0  3  0  0  0  0  0  0
  180.9430  174.7880  135.9310 O   0  0  0  0  0  0  0  0  0  0  0  0
  187.3030  177.9610  140.5330 O   0  0  0  0  0  0  0  0  0  0  0  0
  188.2530  178.2530  139.5160 C   0  0  0  0  0  1  0  0  0  0  0  0
  1 12  1  6  0  0  0
  1 19  1  0  0  0  0
  1  7  1  0  0  0  0
  2 15  2  0  0  0  0
  3  5  1  1  0  0  0
  3 20  1  0  0  0  0
  7 24  2  0  0  0  0
  8  9  1  0  0  0  0
  9 15  1  0  0  0  0
 10  3  1  0  0  0  0
 11  4  1  1  0  0  0
 11 19  1  0  0  0  0
 11  8  1  0  0  0  0
 13 21  1  0  0  0  0
 14 13  1  1  0  0  0
 14 26  1  0  0  0  0
 14 22  1  0  0  0  0
 16  6  1  0  0  0  0
 17 10  1  0  0  0  0
 18 13  2  0  0  0  0
 19  7  1  1  0  0  0
 19  2  1  0  0  0  0
 20 16  2  0  0  0  0
 21 17  1  0  0  0  0
 22 23  1  6  0  0  0
 22 12  1  0  0  0  0
 23  4  1  0  0  0  0
 24  6  2  0  0  0  0
 26 28  1  6  0  0  0
 27 25  1  1  0  0  0
 27 26  1  0  0  0  0
 28 27  1  0  0  0  0
 29 20  1  0  0  0  0
 30 29  1  0  0  0  0
M  END
>  <MODEL>
5

>  <REMARK>
 VINA RESULT:      -5.0      3.984      6.848
  Name = 
  2 active torsions:
  status: ('A' for Active; 'I' for Inactive)
    1  A    between atoms: O_6  and  C_25
    2  A    between atoms: C_16  and  C_19
                            x       y       z     vdW  Elec       q    Type
                         _______ _______ _______ _____ _____    ______ ____

>  <TORSDO>
F 2

$$$$
=
 OpenBabel11042412053D

 30 34  0  0  1  0  0  0  0  0999 V2000
  182.1610  178.0910  139.6510 C   0  0  2  0  0  3  0  0  0  0  0  0
  181.9900  178.6490  142.0530 N   0  0  0  0  0  0  0  0  0  0  0  0
  179.9740  180.4460  136.2390 C   0  0  2  0  0  3  0  0  0  0  0  0
  179.6870  176.0730  140.5750 C   0  0  0  0  0  2  0  0  0  0  0  0
  178.9310  180.0840  137.0940 O   0  0  0  0  0  1  0  0  0  0  0  0
  180.2710  181.5960  139.1070 C   0  0  0  0  0  3  0  0  0  0  0  0
  181.2330  179.2920  139.8660 C   0  0  0  0  0  0  0  0  0  0  0  0
  179.3260  177.8290  142.1360 N   0  0  0  0  0  2  0  0  0  0  0  0
  179.8400  178.7970  143.0210 N   0  0  0  0  0  2  0  0  0  0  0  0
  181.0040  179.3360  136.1250 C   0  0  0  0  0  2  0  0  0  0  0  0
  180.0150  177.4300  141.1060 C   0  0  1  0  0  3  0  0  0  0  0  0
  181.6510  177.4920  138.4210 N   0  0  0  0  0  2  0  0  0  0  0  0
  181.0120  175.9320  136.0190 C   0  0  0  0  0  0  0  0  0  0  0  0
  181.6460  175.3380  137.2590 C   0  0  2  0  0  3  0  0  0  0  0  0
  181.2540  179.0450  143.0470 C   0  0  0  0  0  3  0  0  0  0  0  0
  180.6890  182.2520  137.8590 C   0  0  0  0  0  3  0  0  0  0  0  0
  180.4070  178.1860  135.6020 O   0  0  0  0  0  0  0  0  0  0  0  0
  180.1130  175.3250  135.4540 O   0  0  0  0  0  0  0  0  0  0  0  0
  181.3470  178.1230  140.8450 C   0  0  1  0  0  0  0  0  0  0  0  0
  180.6130  181.7680  136.6080 C   0  0  0  0  0  0  0  0  0  0  0  0
  181.4520  177.2640  135.4860 C   0  0  0  0  0  2  0  0  0  0  0  0
  181.2650  176.1010  138.5420 C   0  0  2  0  0  3  0  0  0  0  0  0
  179.4690  176.0480  138.7850 S   0  0  0  0  0  0  0  0  0  0  0  0
  180.7440  180.4370  139.4780 C   0  0  0  0  0  0  0  0  0  0  0  0
  184.8990  173.6110  137.6100 N   0  0  0  0  0  1  0  0  0  0  0  0
  183.1660  175.2070  137.1370 C   0  0  1  0  0  3  0  0  0  0  0  0
  183.5280  173.7670  137.1650 C   0  0  1  0  0  3  0  0  0  0  0  0
  183.5060  174.5020  135.9620 O   0  0  0  0  0  0  0  0  0  0  0  0
  181.1710  182.5580  135.5970 O   0  0  0  0  0  0  0  0  0  0  0  0
  180.8110  183.9190  135.4020 C   0  0  0  0  0  1  0  0  0  0  0  0
  1 12  1  6  0  0  0
  1  7  1  0  0  0  0
  1 19  1  0  0  0  0
  2 15  2  0  0  0  0
  3 20  1  0  0  0  0
  3  5  1  1  0  0  0
  6 24  2  0  0  0  0
  8  9  1  0  0  0  0
  9 15  1  0  0  0  0
 10  3  1  0  0  0  0
 11  4  1  1  0  0  0
 11  8  1  0  0  0  0
 14 13  1  6  0  0  0
 14 22  1  0  0  0  0
 16  6  1  0  0  0  0
 17 10  1  0  0  0  0
 18 13  2  0  0  0  0
 19  7  1  6  0  0  0
 19 11  1  0  0  0  0
 19  2  1  0  0  0  0
 20 16  2  0  0  0  0
 21 17  1  0  0  0  0
 21 13  1  0  0  0  0
 22 12  1  6  0  0  0
 22 23  1  0  0  0  0
 23  4  1  0  0  0  0
 24  7  2  0  0  0  0
 26 28  1  6  0  0  0
 26 27  1  0  0  0  0
 26 14  1  0  0  0  0
 27 25  1  1  0  0  0
 28 27  1  0  0  0  0
 29 20  1  0  0  0  0
 30 29  1  0  0  0  0
M  END
>  <MODEL>
6

>  <REMARK>
 VINA RESULT:      -5.0      4.858      7.205
  Name = 
  2 active torsions:
  status: ('A' for Active; 'I' for Inactive)
    1  A    between atoms: O_6  and  C_25
    2  A    between atoms: C_16  and  C_19
                            x       y       z     vdW  Elec       q    Type
                         _______ _______ _______ _____ _____    ______ ____

>  <TORSDO>
F 2

$$$$
=
 OpenBabel11042412053D

 30 34  0  0  1  0  0  0  0  0999 V2000
  182.2670  176.7350  139.9330 C   0  0  2  0  0  3  0  0  0  0  0  0
  181.0110  177.8280  141.7600 N   0  0  0  0  0  0  0  0  0  0  0  0
  186.3920  178.2470  138.3010 C   0  0  2  0  0  3  0  0  0  0  0  0
  180.2460  178.7170  138.1900 C   0  0  0  0  0  2  0  0  0  0  0  0
  185.5710  179.3690  138.1760 O   0  0  0  0  0  1  0  0  0  0  0  0
  185.2270  179.2330  141.0040 C   0  0  0  0  0  3  0  0  0  0  0  0
  183.0120  177.9760  140.4380 C   0  0  0  0  0  0  0  0  0  0  0  0
  180.4430  180.0380  140.1560 N   0  0  0  0  0  2  0  0  0  0  0  0
  180.5130  180.1290  141.5600 N   0  0  0  0  0  2  0  0  0  0  0  0
  185.6400  176.9720  137.9620 C   0  0  0  0  0  2  0  0  0  0  0  0
  180.8480  178.9680  139.5330 C   0  0  1  0  0  3  0  0  0  0  0  0
  182.7010  176.6290  138.5440 N   0  0  0  0  0  2  0  0  0  0  0  0
  183.2580  175.9910  135.7340 C   0  0  0  0  0  0  0  0  0  0  0  0
  181.9530  175.6600  136.4240 C   0  0  2  0  0  3  0  0  0  0  0  0
  180.6310  178.9280  142.3370 C   0  0  0  0  0  3  0  0  0  0  0  0
  186.5520  178.6280  140.7970 C   0  0  0  0  0  3  0  0  0  0  0  0
  185.1900  177.0230  136.6400 O   0  0  0  0  0  0  0  0  0  0  0  0
  183.2390  176.4520  134.6010 O   0  0  0  0  0  0  0  0  0  0  0  0
  181.4870  177.8700  140.3740 C   0  0  1  0  0  0  0  0  0  0  0  0
  187.0710  178.1540  139.6510 C   0  0  0  0  0  0  0  0  0  0  0  0
  184.5740  175.7860  136.4250 C   0  0  0  0  0  2  0  0  0  0  0  0
  181.6260  176.6330  137.5720 C   0  0  2  0  0  3  0  0  0  0  0  0
  181.4740  178.3210  136.9290 S   0  0  0  0  0  0  0  0  0  0  0  0
  184.1210  178.6070  140.7080 C   0  0  0  0  0  0  0  0  0  0  0  0
  180.2960  172.4360  137.1660 N   0  0  0  0  0  1  0  0  0  0  0  0
  181.8970  174.2090  136.9110 C   0  0  1  0  0  3  0  0  0  0  0  0
  180.6940  173.5550  136.3360 C   0  0  1  0  0  3  0  0  0  0  0  0
  181.9840  173.3200  135.8180 O   0  0  0  0  0  0  0  0  0  0  0  0
  188.3230  177.5370  139.7410 O   0  0  0  0  0  0  0  0  0  0  0  0
  189.4590  178.0030  139.0240 C   0  0  0  0  0  1  0  0  0  0  0  0
  1 12  1  6  0  0  0
  1 19  1  0  0  0  0
  1  7  1  0  0  0  0
  2 15  2  0  0  0  0
  3  5  1  1  0  0  0
  3 20  1  0  0  0  0
  7 24  2  0  0  0  0
  8  9  1  0  0  0  0
  9 15  1  0  0  0  0
 10  3  1  0  0  0  0
 11  4  1  1  0  0  0
 11  8  1  0  0  0  0
 11 19  1  0  0  0  0
 13 21  1  0  0  0  0
 14 13  1  1  0  0  0
 14 26  1  0  0  0  0
 14 22  1  0  0  0  0
 16  6  1  0  0  0  0
 17 10  1  0  0  0  0
 18 13  2  0  0  0  0
 19  7  1  1  0  0  0
 19  2  1  0  0  0  0
 20 29  1  0  0  0  0
 20 16  2  0  0  0  0
 21 17  1  0  0  0  0
 22 23  1  6  0  0  0
 22 12  1  0  0  0  0
 23  4  1  0  0  0  0
 24  6  2  0  0  0  0
 26 28  1  6  0  0  0
 27 26  1  0  0  0  0
 27 25  1  1  0  0  0
 28 27  1  0  0  0  0
 30 29  1  0  0  0  0
M  END
>  <MODEL>
7

>  <REMARK>
 VINA RESULT:      -4.7      3.538      6.140
  Name = 
  2 active torsions:
  status: ('A' for Active; 'I' for Inactive)
    1  A    between atoms: O_6  and  C_25
    2  A    between atoms: C_16  and  C_19
                            x       y       z     vdW  Elec       q    Type
                         _______ _______ _______ _____ _____    ______ ____

>  <TORSDO>
F 2

$$$$
=
 OpenBabel11042412053D

 30 34  0  0  1  0  0  0  0  0999 V2000
  185.2060  174.2810  137.9170 C   0  0  2  0  0  3  0  0  0  0  0  0
  183.8420  172.2950  137.3670 N   0  0  0  0  0  0  0  0  0  0  0  0
  183.4380  178.5350  138.7780 C   0  0  2  0  0  3  0  0  0  0  0  0
  185.2700  174.3930  134.5960 C   0  0  0  0  0  2  0  0  0  0  0  0
  182.9140  178.2210  137.5230 O   0  0  0  0  0  1  0  0  0  0  0  0
  181.6690  175.9830  138.7790 C   0  0  0  0  0  3  0  0  0  0  0  0
  183.7170  174.6380  137.8790 C   0  0  0  0  0  0  0  0  0  0  0  0
  183.1500  173.3590  134.8830 N   0  0  0  0  0  2  0  0  0  0  0  0
  182.3250  172.4400  135.5610 N   0  0  0  0  0  2  0  0  0  0  0  0
  184.8710  178.0500  138.9150 C   0  0  0  0  0  2  0  0  0  0  0  0
  184.1670  173.9130  135.4790 C   0  0  1  0  0  3  0  0  0  0  0  0
  185.8600  175.5390  137.5710 N   0  0  0  0  0  2  0  0  0  0  0  0
  187.6240  177.7940  136.9260 C   0  0  0  0  0  0  0  0  0  0  0  0
  187.9780  176.3490  136.6500 C   0  0  2  0  0  3  0  0  0  0  0  0
  182.8170  171.7950  136.7450 C   0  0  0  0  0  3  0  0  0  0  0  0
  181.7880  176.9600  139.8720 C   0  0  0  0  0  3  0  0  0  0  0  0
  185.6750  178.6680  137.9530 O   0  0  0  0  0  0  0  0  0  0  0  0
  187.8600  178.6430  136.0780 O   0  0  0  0  0  0  0  0  0  0  0  0
  184.3640  173.6020  136.9580 C   0  0  1  0  0  0  0  0  0  0  0  0
  182.5720  178.0500  139.9220 C   0  0  0  0  0  0  0  0  0  0  0  0
  186.9660  178.1980  138.2120 C   0  0  0  0  0  2  0  0  0  0  0  0
  186.7360  175.4680  136.4190 C   0  0  2  0  0  3  0  0  0  0  0  0
  185.8060  176.0710  134.9840 S   0  0  0  0  0  0  0  0  0  0  0  0
  182.6970  175.3210  138.3220 C   0  0  0  0  0  0  0  0  0  0  0  0
  190.9180  174.4920  137.9150 N   0  0  0  0  0  1  0  0  0  0  0  0
  188.8770  175.7460  137.7330 C   0  0  1  0  0  3  0  0  0  0  0  0
  190.2310  175.5280  137.1680 C   0  0  1  0  0  3  0  0  0  0  0  0
  189.9520  176.6150  138.0200 O   0  0  0  0  0  0  0  0  0  0  0  0
  182.5700  178.7670  141.1230 O   0  0  0  0  0  0  0  0  0  0  0  0
  183.4540  178.4660  142.1960 C   0  0  0  0  0  1  0  0  0  0  0  0
  1 12  1  6  0  0  0
  3  5  1  6  0  0  0
  3 10  1  0  0  0  0
  3 20  1  0  0  0  0
  4 23  1  0  0  0  0
  6 16  1  0  0  0  0
  7  1  1  0  0  0  0
  7 24  2  0  0  0  0
  8 11  1  0  0  0  0
  8  9  1  0  0  0  0
  9 15  1  0  0  0  0
 11  4  1  6  0  0  0
 11 19  1  0  0  0  0
 13 21  1  0  0  0  0
 14 13  1  1  0  0  0
 14 26  1  0  0  0  0
 15  2  2  0  0  0  0
 16 20  2  0  0  0  0
 17 21  1  0  0  0  0
 17 10  1  0  0  0  0
 18 13  2  0  0  0  0
 19  2  1  1  0  0  0
 19  7  1  0  0  0  0
 19  1  1  0  0  0  0
 20 29  1  0  0  0  0
 22 23  1  6  0  0  0
 22 14  1  0  0  0  0
 22 12  1  0  0  0  0
 24  6  2  0  0  0  0
 26 28  1  1  0  0  0
 27 26  1  0  0  0  0
 27 25  1  1  0  0  0
 27 28  1  0  0  0  0
 29 30  1  0  0  0  0
M  END
>  <MODEL>
8

>  <REMARK>
 VINA RESULT:      -4.7      2.006      2.378
  Name = 
  2 active torsions:
  status: ('A' for Active; 'I' for Inactive)
    1  A    between atoms: O_6  and  C_25
    2  A    between atoms: C_16  and  C_19
                            x       y       z     vdW  Elec       q    Type
                         _______ _______ _______ _____ _____    ______ ____

>  <TORSDO>
F 2

$$$$
=
 OpenBabel11042412053D

 30 34  0  0  1  0  0  0  0  0999 V2000
  185.3980  174.4980  137.6330 C   0  0  2  0  0  3  0  0  0  0  0  0
  187.5530  173.3370  137.2900 N   0  0  0  0  0  0  0  0  0  0  0  0
  181.3150  173.0550  135.8410 C   0  0  2  0  0  3  0  0  0  0  0  0
  186.5770  176.1550  135.0040 C   0  0  0  0  0  2  0  0  0  0  0  0
  182.1350  173.1610  134.7160 O   0  0  0  0  0  1  0  0  0  0  0  0
  183.8100  171.2110  135.9510 C   0  0  0  0  0  3  0  0  0  0  0  0
  185.2150  173.2620  136.7450 C   0  0  0  0  0  0  0  0  0  0  0  0
  187.6000  174.0490  134.5940 N   0  0  0  0  0  2  0  0  0  0  0  0
  188.2520  172.8970  135.0760 N   0  0  0  0  0  2  0  0  0  0  0  0
  181.5820  174.1780  136.8280 C   0  0  0  0  0  2  0  0  0  0  0  0
  186.7720  174.7150  135.3470 C   0  0  1  0  0  3  0  0  0  0  0  0
  184.3210  175.3820  137.2000 N   0  0  0  0  0  2  0  0  0  0  0  0
  182.3480  177.4940  136.6930 C   0  0  0  0  0  0  0  0  0  0  0  0
  183.7500  177.7620  137.1950 C   0  0  2  0  0  3  0  0  0  0  0  0
  188.3430  172.6820  136.4920 C   0  0  0  0  0  3  0  0  0  0  0  0
  182.4800  170.9080  136.5000 C   0  0  0  0  0  3  0  0  0  0  0  0
  181.3170  175.4110  136.2250 O   0  0  0  0  0  0  0  0  0  0  0  0
  181.8760  178.2060  135.8170 O   0  0  0  0  0  0  0  0  0  0  0  0
  186.4660  174.1420  136.7260 C   0  0  1  0  0  0  0  0  0  0  0  0
  181.3920  171.6960  136.5060 C   0  0  0  0  0  0  0  0  0  0  0  0
  181.5350  176.3550  137.2340 C   0  0  0  0  0  2  0  0  0  0  0  0
  184.7570  176.6870  136.7440 C   0  0  2  0  0  3  0  0  0  0  0  0
  184.8400  176.6360  134.9340 S   0  0  0  0  0  0  0  0  0  0  0  0
  184.5060  172.2450  136.3410 C   0  0  0  0  0  0  0  0  0  0  0  0
  184.9020  179.3480  140.3330 N   0  0  0  0  0  1  0  0  0  0  0  0
  183.8050  177.9540  138.7130 C   0  0  1  0  0  3  0  0  0  0  0  0
  184.3160  179.3160  139.0080 C   0  0  1  0  0  3  0  0  0  0  0  0
  182.9450  179.0020  139.1080 O   0  0  0  0  0  0  0  0  0  0  0  0
  180.2680  171.2060  137.1800 O   0  0  0  0  0  0  0  0  0  0  0  0
  178.9420  171.4190  136.7140 C   0  0  0  0  0  1  0  0  0  0  0  0
  1  7  1  6  0  0  0
  3  5  1  6  0  0  0
  3 20  1  0  0  0  0
  3 10  1  0  0  0  0
  6 24  2  0  0  0  0
  6 16  1  0  0  0  0
  8  9  1  0  0  0  0
  8 11  1  0  0  0  0
  9 15  1  0  0  0  0
 11  4  1  1  0  0  0
 11 19  1  0  0  0  0
 12  1  1  0  0  0  0
 13 21  1  0  0  0  0
 14 13  1  1  0  0  0
 14 26  1  0  0  0  0
 15  2  2  0  0  0  0
 16 20  2  0  0  0  0
 17 10  1  0  0  0  0
 17 21  1  0  0  0  0
 18 13  2  0  0  0  0
 19  7  1  6  0  0  0
 19  2  1  0  0  0  0
 19  1  1  0  0  0  0
 20 29  1  0  0  0  0
 22 23  1  6  0  0  0
 22 14  1  0  0  0  0
 22 12  1  0  0  0  0
 23  4  1  0  0  0  0
 24  7  2  0  0  0  0
 26 27  1  0  0  0  0
 26 28  1  6  0  0  0
 27 28  1  0  0  0  0
 27 25  1  1  0  0  0
 30 29  1  0  0  0  0
M  END
>  <MODEL>
9

>  <REMARK>
 VINA RESULT:      -4.5      3.904      6.682
  Name = 
  2 active torsions:
  status: ('A' for Active; 'I' for Inactive)
    1  A    between atoms: O_6  and  C_25
    2  A    between atoms: C_16  and  C_19
                            x       y       z     vdW  Elec       q    Type
                         _______ _______ _______ _____ _____    ______ ____

>  <TORSDO>
F 2

$$$$
