=
 OpenBabel11032420373D

 27 29  0  0  1  0  0  0  0  0999 V2000
  187.3890  178.0200  148.1330 C   0  0  0  0  0  3  0  0  0  0  0  0
  190.7540  177.2090  147.3910 O   0  0  0  0  0  0  0  0  0  0  0  0
  187.6940  177.6890  145.6560 C   0  0  0  0  0  0  0  0  0  0  0  0
  185.7540  178.1730  144.9380 C   0  0  0  0  0  0  0  0  0  0  0  0
  189.5350  177.4380  147.1780 C   0  0  0  0  0  0  0  0  0  0  0  0
  186.9180  177.8010  144.4780 N   0  0  0  0  0  0  0  0  0  0  0  0
  185.6770  178.3200  146.3720 N   0  0  0  0  0  0  0  0  0  0  0  0
  188.9900  177.3970  145.7890 C   0  0  0  0  0  0  0  0  0  0  0  0
  186.8640  178.0180  146.7660 C   0  0  0  0  0  0  0  0  0  0  0  0
  188.6540  177.7410  148.2970 N   0  0  0  0  0  0  0  0  0  0  0  0
  184.6250  178.3850  142.6830 C   0  0  0  0  0  3  0  0  0  0  0  0
  183.4110  178.7120  142.2070 N   0  0  0  0  0  0  0  0  0  0  0  0
  183.3660  178.8940  144.4700 C   0  0  0  0  0  3  0  0  0  0  0  0
  184.6200  178.4920  144.0600 C   0  0  1  0  0  3  0  0  0  0  0  0
  182.6620  179.0180  143.2830 C   0  0  0  0  0  0  0  0  0  0  0  0
  181.2180  179.3820  143.1940 C   0  0  0  0  0  2  0  0  0  0  0  0
  180.3530  178.2970  143.8220 C   0  0  0  0  0  2  0  0  0  0  0  0
  179.5530  178.8380  144.8200 F   0  0  0  0  0  0  0  0  0  0  0  0
  189.8640  177.0880  144.6040 C   0  0  0  0  0  2  0  0  0  0  0  0
  190.3140  178.3230  143.9730 N   0  0  0  0  0  2  0  0  0  0  0  0
  191.4740  178.0430  143.3280 O   0  0  0  0  0  0  0  0  0  0  0  0
  191.1130  177.0890  142.3720 C   0  0  0  0  0  2  0  0  0  0  0  0
  191.8300  177.3990  141.0630 C   0  0  0  0  0  2  0  0  0  0  0  0
  190.7740  176.9140  139.6700 S   0  0  0  0  0  0  0  0  0  0  0  0
  189.2470  177.3700  140.5470 C   0  0  0  0  0  2  0  0  0  0  0  0
  188.2760  178.0580  139.5950 C   0  0  0  0  0  2  0  0  0  0  0  0
  189.0400  178.6450  138.4170 C   0  0  0  0  0  1  0  0  0  0  0  0
  1 10  2  0  0  0  0
  3  8  2  0  0  0  0
  3  9  1  0  0  0  0
  4  7  1  0  0  0  0
  5  2  2  0  0  0  0
  5 10  1  0  0  0  0
  6  4  2  0  0  0  0
  6  3  1  0  0  0  0
  7  9  2  0  0  0  0
  8  5  1  0  0  0  0
  9  1  1  0  0  0  0
 11 14  1  0  0  0  0
 12 11  2  0  0  0  0
 12 15  1  0  0  0  0
 14 13  1  0  0  0  0
 14  4  1  1  0  0  0
 15 13  2  0  0  0  0
 16 15  1  0  0  0  0
 16 17  1  0  0  0  0
 17 18  1  0  0  0  0
 19  8  1  0  0  0  0
 20 19  1  0  0  0  0
 21 20  1  0  0  0  0
 22 21  1  0  0  0  0
 23 22  1  0  0  0  0
 24 25  1  0  0  0  0
 24 23  1  0  0  0  0
 26 25  1  0  0  0  0
 27 26  1  0  0  0  0
M  END
>  <MODEL>
1

>  <REMARK>
 VINA RESULT:      -7.2      0.000      0.000
  Name = 
  11 active torsions:
  status: ('A' for Active; 'I' for Inactive)
    1  A    between atoms: C_2  and  C_3
    2  A    between atoms: C_3  and  S_8
    3  A    between atoms: S_8  and  C_27
    4  A    between atoms: C_10  and  C_23
    5  A    between atoms: O_12  and  N_17
    6  A    between atoms: O_12  and  C_18
    7  A    between atoms: C_13  and  C_16
    8  A    between atoms: C_13  and  C_24
    9  A    between atoms: C_14  and  N_17
   10  A    between atoms: C_14  and  C_21
   11  A    between atoms: C_18  and  C_27
                            x       y       z     vdW  Elec       q    Type
                         _______ _______ _______ _____ _____    ______ ____

>  <TORSDO>
F 11

$$$$
=
 OpenBabel11032420373D

 27 29  0  0  1  0  0  0  0  0999 V2000
  188.2990  177.7370  148.1420 C   0  0  0  0  0  3  0  0  0  0  0  0
  191.6000  177.0380  147.0690 O   0  0  0  0  0  0  0  0  0  0  0  0
  188.3900  177.5270  145.6340 C   0  0  0  0  0  0  0  0  0  0  0  0
  186.3850  178.0000  145.1140 C   0  0  0  0  0  0  0  0  0  0  0  0
  190.3630  177.2490  146.9750 C   0  0  0  0  0  0  0  0  0  0  0  0
  187.5100  177.6750  144.5350 N   0  0  0  0  0  0  0  0  0  0  0  0
  186.4330  178.0790  146.5540 N   0  0  0  0  0  0  0  0  0  0  0  0
  189.6980  177.2600  145.6390 C   0  0  0  0  0  0  0  0  0  0  0  0
  187.6550  177.7850  146.8280 C   0  0  0  0  0  0  0  0  0  0  0  0
  189.5790  177.4800  148.1800 N   0  0  0  0  0  0  0  0  0  0  0  0
  184.0540  178.9560  144.8740 C   0  0  0  0  0  3  0  0  0  0  0  0
  183.1550  179.1470  143.8920 N   0  0  0  0  0  0  0  0  0  0  0  0
  184.9790  178.1260  143.0040 C   0  0  0  0  0  3  0  0  0  0  0  0
  185.1720  178.3330  144.3550 C   0  0  1  0  0  3  0  0  0  0  0  0
  183.7160  178.6460  142.7750 C   0  0  0  0  0  0  0  0  0  0  0  0
  183.0620  178.7120  141.4360 C   0  0  0  0  0  2  0  0  0  0  0  0
  184.0850  178.4880  140.3290 C   0  0  0  0  0  2  0  0  0  0  0  0
  184.8330  179.6390  140.1260 F   0  0  0  0  0  0  0  0  0  0  0  0
  190.4690  177.0250  144.3690 C   0  0  0  0  0  2  0  0  0  0  0  0
  190.8400  178.2980  143.7610 N   0  0  0  0  0  2  0  0  0  0  0  0
  191.8970  178.0600  142.9460 O   0  0  0  0  0  0  0  0  0  0  0  0
  191.4340  177.0780  142.0640 C   0  0  0  0  0  2  0  0  0  0  0  0
  191.8020  177.4750  140.6390 C   0  0  0  0  0  2  0  0  0  0  0  0
  190.4480  177.0230  139.5210 S   0  0  0  0  0  0  0  0  0  0  0  0
  189.1840  177.2380  140.8110 C   0  0  0  0  0  2  0  0  0  0  0  0
  188.2110  178.3440  140.4210 C   0  0  0  0  0  2  0  0  0  0  0  0
  187.7340  178.1280  138.9920 C   0  0  0  0  0  1  0  0  0  0  0  0
  1 10  2  0  0  0  0
  3  8  2  0  0  0  0
  3  9  1  0  0  0  0
  4  7  1  0  0  0  0
  5  2  2  0  0  0  0
  5 10  1  0  0  0  0
  6  4  2  0  0  0  0
  6  3  1  0  0  0  0
  7  9  2  0  0  0  0
  8  5  1  0  0  0  0
  9  1  1  0  0  0  0
 12 11  2  0  0  0  0
 13 14  1  0  0  0  0
 14 11  1  0  0  0  0
 14  4  1  6  0  0  0
 15 13  2  0  0  0  0
 15 12  1  0  0  0  0
 16 15  1  0  0  0  0
 17 16  1  0  0  0  0
 18 17  1  0  0  0  0
 19  8  1  0  0  0  0
 20 19  1  0  0  0  0
 21 20  1  0  0  0  0
 22 21  1  0  0  0  0
 23 22  1  0  0  0  0
 24 23  1  0  0  0  0
 24 25  1  0  0  0  0
 26 25  1  0  0  0  0
 27 26  1  0  0  0  0
M  END
>  <MODEL>
2

>  <REMARK>
 VINA RESULT:      -7.1      1.797      2.027
  Name = 
  11 active torsions:
  status: ('A' for Active; 'I' for Inactive)
    1  A    between atoms: C_2  and  C_3
    2  A    between atoms: C_3  and  S_8
    3  A    between atoms: S_8  and  C_27
    4  A    between atoms: C_10  and  C_23
    5  A    between atoms: O_12  and  N_17
    6  A    between atoms: O_12  and  C_18
    7  A    between atoms: C_13  and  C_16
    8  A    between atoms: C_13  and  C_24
    9  A    between atoms: C_14  and  N_17
   10  A    between atoms: C_14  and  C_21
   11  A    between atoms: C_18  and  C_27
                            x       y       z     vdW  Elec       q    Type
                         _______ _______ _______ _____ _____    ______ ____

>  <TORSDO>
F 11

$$$$
=
 OpenBabel11032420373D

 27 29  0  0  0  0  0  0  0  0999 V2000
  182.5650  179.1800  144.6180 C   0  0  0  0  0  3  0  0  0  0  0  0
  182.2900  178.7290  141.1180 O   0  0  0  0  0  0  0  0  0  0  0  0
  184.7760  178.4730  143.6390 C   0  0  0  0  0  0  0  0  0  0  0  0
  185.9590  178.2930  145.3940 C   0  0  0  0  0  0  0  0  0  0  0  0
  182.8400  178.7710  142.2480 C   0  0  0  0  0  0  0  0  0  0  0  0
  186.0720  178.1430  144.1010 N   0  0  0  0  0  0  0  0  0  0  0  0
  184.6580  178.7150  145.8540 N   0  0  0  0  0  0  0  0  0  0  0  0
  184.2870  178.4370  142.3970 C   0  0  0  0  0  0  0  0  0  0  0  0
  183.9750  178.8140  144.7680 C   0  0  0  0  0  0  0  0  0  0  0  0
  182.0570  179.1520  143.4150 N   0  0  0  0  0  0  0  0  0  0  0  0
  187.0740  178.3160  147.6660 C   0  0  0  0  0  3  0  0  0  0  0  0
  188.2020  177.8420  148.2230 N   0  0  0  0  0  2  0  0  0  0  0  0
  188.1980  177.2770  146.0240 C   0  0  0  0  0  3  0  0  0  0  0  0
  187.0530  177.9850  146.3250 C   0  0  0  0  0  0  0  0  0  0  0  0
  188.8710  177.2220  147.2330 C   0  0  0  0  0  0  0  0  0  0  0  0
  190.1610  176.5030  147.4470 C   0  0  0  0  0  2  0  0  0  0  0  0
  191.2390  177.0470  146.5180 C   0  0  0  0  0  2  0  0  0  0  0  0
  191.7570  176.0260  145.7340 F   0  0  0  0  0  0  0  0  0  0  0  0
  185.1340  178.0400  141.2190 C   0  0  0  0  0  2  0  0  0  0  0  0
  185.6570  179.2270  140.5500 N   0  0  0  0  0  2  0  0  0  0  0  0
  186.5110  178.8000  139.5870 O   0  0  0  0  0  0  0  0  0  0  0  0
  187.6100  178.3080  140.2970 C   0  0  0  0  0  2  0  0  0  0  0  0
  188.6600  177.8130  139.3100 C   0  0  0  0  0  2  0  0  0  0  0  0
  190.0610  177.1110  140.2250 S   0  0  0  0  0  0  0  0  0  0  0  0
  189.2640  177.3790  141.8380 C   0  0  0  0  0  2  0  0  0  0  0  0
  190.3010  177.3410  142.9540 C   0  0  0  0  0  2  0  0  0  0  0  0
  190.5850  178.7550  143.4400 C   0  0  0  0  0  1  0  0  0  0  0  0
  1  9  1  0  0  0  0
  2  5  2  0  0  0  0
  3  6  1  0  0  0  0
  3  9  1  0  0  0  0
  4  7  1  0  0  0  0
  4 14  1  0  0  0  0
  5  8  1  0  0  0  0
  5 10  1  0  0  0  0
  6  4  2  0  0  0  0
  8  3  2  0  0  0  0
  9  7  2  0  0  0  0
 10  1  2  0  0  0  0
 11 12  1  0  0  0  0
 13 14  1  0  0  0  0
 13 15  2  0  0  0  0
 14 11  2  0  0  0  0
 15 16  1  0  0  0  0
 15 12  1  0  0  0  0
 17 16  1  0  0  0  0
 18 17  1  0  0  0  0
 19  8  1  0  0  0  0
 20 19  1  0  0  0  0
 21 22  1  0  0  0  0
 21 20  1  0  0  0  0
 23 24  1  0  0  0  0
 23 22  1  0  0  0  0
 24 25  1  0  0  0  0
 25 26  1  0  0  0  0
 26 27  1  0  0  0  0
M  END
>  <MODEL>
3

>  <REMARK>
 VINA RESULT:      -7.1      3.505      6.437
  Name = 
  11 active torsions:
  status: ('A' for Active; 'I' for Inactive)
    1  A    between atoms: C_2  and  C_3
    2  A    between atoms: C_3  and  S_8
    3  A    between atoms: S_8  and  C_27
    4  A    between atoms: C_10  and  C_23
    5  A    between atoms: O_12  and  N_17
    6  A    between atoms: O_12  and  C_18
    7  A    between atoms: C_13  and  C_16
    8  A    between atoms: C_13  and  C_24
    9  A    between atoms: C_14  and  N_17
   10  A    between atoms: C_14  and  C_21
   11  A    between atoms: C_18  and  C_27
                            x       y       z     vdW  Elec       q    Type
                         _______ _______ _______ _____ _____    ______ ____

>  <TORSDO>
F 11

$$$$
=
 OpenBabel11032420373D

 27 29  0  0  1  0  0  0  0  0999 V2000
  188.8830  177.3650  147.8450 C   0  0  0  0  0  3  0  0  0  0  0  0
  192.0240  176.8840  146.2850 O   0  0  0  0  0  0  0  0  0  0  0  0
  188.6510  177.4540  145.3390 C   0  0  0  0  0  0  0  0  0  0  0  0
  186.5900  177.9320  145.1380 C   0  0  0  0  0  0  0  0  0  0  0  0
  190.7830  177.0720  146.3750 C   0  0  0  0  0  0  0  0  0  0  0  0
  187.6350  177.7070  144.3870 N   0  0  0  0  0  0  0  0  0  0  0  0
  186.8230  177.8420  146.5590 N   0  0  0  0  0  0  0  0  0  0  0  0
  189.9510  177.2220  145.1460 C   0  0  0  0  0  0  0  0  0  0  0  0
  188.0740  177.5510  146.6390 C   0  0  0  0  0  0  0  0  0  0  0  0
  190.1600  177.1390  147.6890 N   0  0  0  0  0  0  0  0  0  0  0  0
  184.2860  178.9680  145.2830 C   0  0  0  0  0  3  0  0  0  0  0  0
  183.2520  179.2100  144.4580 N   0  0  0  0  0  0  0  0  0  0  0  0
  184.8770  178.1480  143.2790 C   0  0  0  0  0  3  0  0  0  0  0  0
  185.2860  178.3200  144.5850 C   0  0  1  0  0  3  0  0  0  0  0  0
  183.6120  178.7130  143.2590 C   0  0  0  0  0  0  0  0  0  0  0  0
  182.7590  178.8290  142.0410 C   0  0  0  0  0  2  0  0  0  0  0  0
  183.5190  178.3540  140.8080 C   0  0  0  0  0  2  0  0  0  0  0  0
  183.2880  177.0020  140.5930 F   0  0  0  0  0  0  0  0  0  0  0  0
  190.5540  177.1590  143.7690 C   0  0  0  0  0  2  0  0  0  0  0  0
  190.3280  175.8440  143.1790 N   0  0  0  0  0  2  0  0  0  0  0  0
  190.5640  175.9560  141.8480 O   0  0  0  0  0  0  0  0  0  0  0  0
  189.6030  176.8690  141.4050 C   0  0  0  0  0  2  0  0  0  0  0  0
  189.8770  177.2130  139.9460 C   0  0  0  0  0  2  0  0  0  0  0  0
  188.5410  178.2670  139.3160 S   0  0  0  0  0  0  0  0  0  0  0  0
  188.1270  177.1040  137.9790 C   0  0  0  0  0  2  0  0  0  0  0  0
  187.0000  177.6650  137.1200 C   0  0  0  0  0  2  0  0  0  0  0  0
  185.8790  178.1750  138.0140 C   0  0  0  0  0  1  0  0  0  0  0  0
  2  5  2  0  0  0  0
  3  9  1  0  0  0  0
  4  7  1  0  0  0  0
  5 10  1  0  0  0  0
  6  4  2  0  0  0  0
  6  3  1  0  0  0  0
  7  9  2  0  0  0  0
  8  3  2  0  0  0  0
  8  5  1  0  0  0  0
  9  1  1  0  0  0  0
 10  1  2  0  0  0  0
 12 11  2  0  0  0  0
 13 14  1  0  0  0  0
 14  4  1  6  0  0  0
 14 11  1  0  0  0  0
 15 13  2  0  0  0  0
 15 12  1  0  0  0  0
 16 15  1  0  0  0  0
 17 16  1  0  0  0  0
 18 17  1  0  0  0  0
 19  8  1  0  0  0  0
 20 19  1  0  0  0  0
 21 20  1  0  0  0  0
 22 21  1  0  0  0  0
 23 22  1  0  0  0  0
 24 23  1  0  0  0  0
 25 24  1  0  0  0  0
 26 25  1  0  0  0  0
 26 27  1  0  0  0  0
M  END
>  <MODEL>
4

>  <REMARK>
 VINA RESULT:      -7.1      2.009      2.371
  Name = 
  11 active torsions:
  status: ('A' for Active; 'I' for Inactive)
    1  A    between atoms: C_2  and  C_3
    2  A    between atoms: C_3  and  S_8
    3  A    between atoms: S_8  and  C_27
    4  A    between atoms: C_10  and  C_23
    5  A    between atoms: O_12  and  N_17
    6  A    between atoms: O_12  and  C_18
    7  A    between atoms: C_13  and  C_16
    8  A    between atoms: C_13  and  C_24
    9  A    between atoms: C_14  and  N_17
   10  A    between atoms: C_14  and  C_21
   11  A    between atoms: C_18  and  C_27
                            x       y       z     vdW  Elec       q    Type
                         _______ _______ _______ _____ _____    ______ ____

>  <TORSDO>
F 11

$$$$
=
 OpenBabel11032420373D

 27 29  0  0  0  0  0  0  0  0999 V2000
  182.9840  178.9410  144.6980 C   0  0  0  0  0  3  0  0  0  0  0  0
  181.8030  178.8650  141.3610 O   0  0  0  0  0  0  0  0  0  0  0  0
  184.8580  178.3940  143.1070 C   0  0  0  0  0  0  0  0  0  0  0  0
  186.4570  178.0510  144.4640 C   0  0  0  0  0  0  0  0  0  0  0  0
  182.6290  178.7970  142.3080 C   0  0  0  0  0  0  0  0  0  0  0  0
  186.2270  178.0450  143.1780 N   0  0  0  0  0  0  0  0  0  0  0  0
  185.3230  178.3910  145.2890 N   0  0  0  0  0  0  0  0  0  0  0  0
  184.0620  178.4810  142.0380 C   0  0  0  0  0  0  0  0  0  0  0  0
  184.3820  178.5930  144.4350 C   0  0  0  0  0  0  0  0  0  0  0  0
  182.1800  179.0310  143.6720 N   0  0  0  0  0  0  0  0  0  0  0  0
  187.9760  177.3650  146.3670 C   0  0  0  0  0  3  0  0  0  0  0  0
  189.2640  177.0140  146.5340 N   0  0  0  0  0  2  0  0  0  0  0  0
  188.9310  177.5030  144.3410 C   0  0  0  0  0  3  0  0  0  0  0  0
  187.7530  177.6690  145.0390 C   0  0  0  0  0  0  0  0  0  0  0  0
  189.8300  177.1020  145.3160 C   0  0  0  0  0  0  0  0  0  0  0  0
  191.2530  176.7370  145.0510 C   0  0  0  0  0  2  0  0  0  0  0  0
  191.4210  176.2380  143.6220 C   0  0  0  0  0  2  0  0  0  0  0  0
  192.0780  177.1900  142.8540 F   0  0  0  0  0  0  0  0  0  0  0  0
  184.5700  178.2330  140.6440 C   0  0  0  0  0  2  0  0  0  0  0  0
  185.2650  179.4130  140.1420 N   0  0  0  0  0  2  0  0  0  0  0  0
  185.1440  179.4050  138.7920 O   0  0  0  0  0  0  0  0  0  0  0  0
  185.6120  178.1430  138.4140 C   0  0  0  0  0  2  0  0  0  0  0  0
  186.6120  178.3020  137.2750 C   0  0  0  0  0  2  0  0  0  0  0  0
  187.9790  177.1330  137.5080 S   0  0  0  0  0  0  0  0  0  0  0  0
  189.0580  178.3950  138.2520 C   0  0  0  0  0  2  0  0  0  0  0  0
  189.7590  177.8330  139.4820 C   0  0  0  0  0  2  0  0  0  0  0  0
  188.7580  177.6740  140.6170 C   0  0  0  0  0  1  0  0  0  0  0  0
  2  5  2  0  0  0  0
  3  6  1  0  0  0  0
  3  9  1  0  0  0  0
  4 14  1  0  0  0  0
  4  7  1  0  0  0  0
  5 10  1  0  0  0  0
  6  4  2  0  0  0  0
  8  5  1  0  0  0  0
  8  3  2  0  0  0  0
  9  1  1  0  0  0  0
  9  7  2  0  0  0  0
 10  1  2  0  0  0  0
 11 12  1  0  0  0  0
 13 14  1  0  0  0  0
 13 15  2  0  0  0  0
 14 11  2  0  0  0  0
 15 12  1  0  0  0  0
 16 15  1  0  0  0  0
 17 16  1  0  0  0  0
 18 17  1  0  0  0  0
 19  8  1  0  0  0  0
 20 19  1  0  0  0  0
 21 20  1  0  0  0  0
 22 21  1  0  0  0  0
 23 24  1  0  0  0  0
 23 22  1  0  0  0  0
 24 25  1  0  0  0  0
 25 26  1  0  0  0  0
 26 27  1  0  0  0  0
M  END
>  <MODEL>
5

>  <REMARK>
 VINA RESULT:      -7.0      3.871      6.701
  Name = 
  11 active torsions:
  status: ('A' for Active; 'I' for Inactive)
    1  A    between atoms: C_2  and  C_3
    2  A    between atoms: C_3  and  S_8
    3  A    between atoms: S_8  and  C_27
    4  A    between atoms: C_10  and  C_23
    5  A    between atoms: O_12  and  N_17
    6  A    between atoms: O_12  and  C_18
    7  A    between atoms: C_13  and  C_16
    8  A    between atoms: C_13  and  C_24
    9  A    between atoms: C_14  and  N_17
   10  A    between atoms: C_14  and  C_21
   11  A    between atoms: C_18  and  C_27
                            x       y       z     vdW  Elec       q    Type
                         _______ _______ _______ _____ _____    ______ ____

>  <TORSDO>
F 11

$$$$
=
 OpenBabel11032420373D

 27 29  0  0  0  0  0  0  0  0999 V2000
  182.3180  178.9260  144.0560 C   0  0  0  0  0  3  0  0  0  0  0  0
  181.2820  178.9570  140.6720 O   0  0  0  0  0  0  0  0  0  0  0  0
  184.2650  178.4560  142.5300 C   0  0  0  0  0  0  0  0  0  0  0  0
  185.8090  178.0830  143.9410 C   0  0  0  0  0  0  0  0  0  0  0  0
  182.0680  178.8640  141.6500 C   0  0  0  0  0  0  0  0  0  0  0  0
  185.6350  178.1200  142.6470 N   0  0  0  0  0  0  0  0  0  0  0  0
  184.6370  178.3810  144.7290 N   0  0  0  0  0  0  0  0  0  0  0  0
  183.5150  178.5740  141.4320 C   0  0  0  0  0  0  0  0  0  0  0  0
  183.7310  178.6030  143.8430 C   0  0  0  0  0  0  0  0  0  0  0  0
  181.5580  179.0440  143.0010 N   0  0  0  0  0  0  0  0  0  0  0  0
  188.2610  177.4620  143.8740 C   0  0  0  0  0  3  0  0  0  0  0  0
  189.2370  177.1730  144.7520 N   0  0  0  0  0  2  0  0  0  0  0  0
  187.3210  177.5530  145.9100 C   0  0  0  0  0  3  0  0  0  0  0  0
  187.0840  177.6940  144.5580 C   0  0  0  0  0  0  0  0  0  0  0  0
  188.6660  177.2280  145.9700 C   0  0  0  0  0  0  0  0  0  0  0  0
  189.4280  177.0240  147.2370 C   0  0  0  0  0  2  0  0  0  0  0  0
  188.7010  177.6710  148.4090 C   0  0  0  0  0  2  0  0  0  0  0  0
  189.0100  179.0230  148.4790 F   0  0  0  0  0  0  0  0  0  0  0  0
  184.0850  178.3810  140.0530 C   0  0  0  0  0  2  0  0  0  0  0  0
  184.7880  179.5850  139.6240 N   0  0  0  0  0  2  0  0  0  0  0  0
  185.3400  179.3180  138.4150 O   0  0  0  0  0  0  0  0  0  0  0  0
  185.0990  177.9540  138.2220 C   0  0  0  0  0  2  0  0  0  0  0  0
  185.9140  177.4670  137.0300 C   0  0  0  0  0  2  0  0  0  0  0  0
  187.5070  178.3340  136.9970 S   0  0  0  0  0  0  0  0  0  0  0  0
  188.3130  177.0910  138.0520 C   0  0  0  0  0  2  0  0  0  0  0  0
  189.1770  177.7720  139.1070 C   0  0  0  0  0  2  0  0  0  0  0  0
  188.2910  178.3560  140.1970 C   0  0  0  0  0  1  0  0  0  0  0  0
  2  5  2  0  0  0  0
  3  6  1  0  0  0  0
  3  9  1  0  0  0  0
  4 14  1  0  0  0  0
  4  7  1  0  0  0  0
  5 10  1  0  0  0  0
  6  4  2  0  0  0  0
  8  5  1  0  0  0  0
  8  3  2  0  0  0  0
  9  1  1  0  0  0  0
  9  7  2  0  0  0  0
 10  1  2  0  0  0  0
 11 14  2  0  0  0  0
 11 12  1  0  0  0  0
 12 15  1  0  0  0  0
 13 15  2  0  0  0  0
 14 13  1  0  0  0  0
 15 16  1  0  0  0  0
 16 17  1  0  0  0  0
 17 18  1  0  0  0  0
 19  8  1  0  0  0  0
 20 19  1  0  0  0  0
 21 20  1  0  0  0  0
 22 21  1  0  0  0  0
 23 22  1  0  0  0  0
 24 23  1  0  0  0  0
 24 25  1  0  0  0  0
 25 26  1  0  0  0  0
 26 27  1  0  0  0  0
M  END
>  <MODEL>
6

>  <REMARK>
 VINA RESULT:      -6.9      3.729      6.590
  Name = 
  11 active torsions:
  status: ('A' for Active; 'I' for Inactive)
    1  A    between atoms: C_2  and  C_3
    2  A    between atoms: C_3  and  S_8
    3  A    between atoms: S_8  and  C_27
    4  A    between atoms: C_10  and  C_23
    5  A    between atoms: O_12  and  N_17
    6  A    between atoms: O_12  and  C_18
    7  A    between atoms: C_13  and  C_16
    8  A    between atoms: C_13  and  C_24
    9  A    between atoms: C_14  and  N_17
   10  A    between atoms: C_14  and  C_21
   11  A    between atoms: C_18  and  C_27
                            x       y       z     vdW  Elec       q    Type
                         _______ _______ _______ _____ _____    ______ ____

>  <TORSDO>
F 11

$$$$
=
 OpenBabel11032420373D

 27 29  0  0  0  0  0  0  0  0999 V2000
  182.9880  179.0190  144.6020 C   0  0  0  0  0  3  0  0  0  0  0  0
  181.6990  178.9490  141.3060 O   0  0  0  0  0  0  0  0  0  0  0  0
  184.7910  178.3910  142.9590 C   0  0  0  0  0  0  0  0  0  0  0  0
  186.4190  178.0090  144.2690 C   0  0  0  0  0  0  0  0  0  0  0  0
  182.5520  178.8620  142.2270 C   0  0  0  0  0  0  0  0  0  0  0  0
  186.1490  177.9970  142.9910 N   0  0  0  0  0  0  0  0  0  0  0  0
  185.3250  178.3970  145.1260 N   0  0  0  0  0  0  0  0  0  0  0  0
  183.9650  178.4950  141.9160 C   0  0  0  0  0  0  0  0  0  0  0  0
  184.3640  178.6210  144.3000 C   0  0  0  0  0  0  0  0  0  0  0  0
  182.1550  179.1260  143.6010 N   0  0  0  0  0  0  0  0  0  0  0  0
  188.8370  177.2950  144.0510 C   0  0  0  0  0  3  0  0  0  0  0  0
  189.8610  176.9920  144.8680 N   0  0  0  0  0  2  0  0  0  0  0  0
  188.0450  177.4740  146.1430 C   0  0  0  0  0  3  0  0  0  0  0  0
  187.7200  177.5890  144.8080 C   0  0  0  0  0  0  0  0  0  0  0  0
  189.3780  177.1000  146.1200 C   0  0  0  0  0  0  0  0  0  0  0  0
  190.2190  176.9000  147.3370 C   0  0  0  0  0  2  0  0  0  0  0  0
  191.6770  176.6890  146.9510 C   0  0  0  0  0  2  0  0  0  0  0  0
  192.1510  175.5030  147.4940 F   0  0  0  0  0  0  0  0  0  0  0  0
  184.4190  178.2140  140.5090 C   0  0  0  0  0  2  0  0  0  0  0  0
  185.2170  179.3270  140.0050 N   0  0  0  0  0  2  0  0  0  0  0  0
  186.3460  178.8000  139.4700 O   0  0  0  0  0  0  0  0  0  0  0  0
  185.9310  178.2770  138.2410 C   0  0  0  0  0  2  0  0  0  0  0  0
  187.1270  177.6420  137.5410 C   0  0  0  0  0  2  0  0  0  0  0  0
  188.6550  178.4040  138.1520 S   0  0  0  0  0  0  0  0  0  0  0  0
  189.2090  176.8710  138.9590 C   0  0  0  0  0  2  0  0  0  0  0  0
  189.5210  177.1290  140.4280 C   0  0  0  0  0  2  0  0  0  0  0  0
  190.9910  177.4910  140.5850 C   0  0  0  0  0  1  0  0  0  0  0  0
  2  5  2  0  0  0  0
  3  6  1  0  0  0  0
  3  9  1  0  0  0  0
  4 14  1  0  0  0  0
  4  7  1  0  0  0  0
  5 10  1  0  0  0  0
  6  4  2  0  0  0  0
  8  5  1  0  0  0  0
  8  3  2  0  0  0  0
  9  1  1  0  0  0  0
  9  7  2  0  0  0  0
 10  1  2  0  0  0  0
 11 14  2  0  0  0  0
 11 12  1  0  0  0  0
 12 15  1  0  0  0  0
 14 13  1  0  0  0  0
 15 13  2  0  0  0  0
 15 16  1  0  0  0  0
 17 16  1  0  0  0  0
 17 18  1  0  0  0  0
 19  8  1  0  0  0  0
 20 19  1  0  0  0  0
 21 20  1  0  0  0  0
 22 21  1  0  0  0  0
 23 24  1  0  0  0  0
 23 22  1  0  0  0  0
 24 25  1  0  0  0  0
 25 26  1  0  0  0  0
 26 27  1  0  0  0  0
M  END
>  <MODEL>
7

>  <REMARK>
 VINA RESULT:      -6.9      3.759      6.661
  Name = 
  11 active torsions:
  status: ('A' for Active; 'I' for Inactive)
    1  A    between atoms: C_2  and  C_3
    2  A    between atoms: C_3  and  S_8
    3  A    between atoms: S_8  and  C_27
    4  A    between atoms: C_10  and  C_23
    5  A    between atoms: O_12  and  N_17
    6  A    between atoms: O_12  and  C_18
    7  A    between atoms: C_13  and  C_16
    8  A    between atoms: C_13  and  C_24
    9  A    between atoms: C_14  and  N_17
   10  A    between atoms: C_14  and  C_21
   11  A    between atoms: C_18  and  C_27
                            x       y       z     vdW  Elec       q    Type
                         _______ _______ _______ _____ _____    ______ ____

>  <TORSDO>
F 11

$$$$
=
 OpenBabel11032420373D

 27 29  0  0  1  0  0  0  0  0999 V2000
  190.6970  177.1290  146.6280 C   0  0  0  0  0  3  0  0  0  0  0  0
  187.8800  177.2020  148.7710 O   0  0  0  0  0  0  0  0  0  0  0  0
  188.5800  177.4380  145.2990 C   0  0  0  0  0  0  0  0  0  0  0  0
  189.3380  177.4040  143.3140 C   0  0  0  0  0  0  0  0  0  0  0  0
  188.5270  177.2490  147.6920 C   0  0  0  0  0  0  0  0  0  0  0  0
  188.1970  177.5230  143.9390 N   0  0  0  0  0  0  0  0  0  0  0  0
  190.4930  177.2470  144.1650 N   0  0  0  0  0  0  0  0  0  0  0  0
  187.8170  177.4370  146.3930 C   0  0  0  0  0  0  0  0  0  0  0  0
  189.9950  177.2750  145.3510 C   0  0  0  0  0  0  0  0  0  0  0  0
  189.9760  177.1220  147.7170 N   0  0  0  0  0  0  0  0  0  0  0  0
  190.4540  176.7530  141.1380 C   0  0  0  0  0  3  0  0  0  0  0  0
  190.2030  176.8610  139.8210 N   0  0  0  0  0  0  0  0  0  0  0  0
  188.5110  177.8620  140.9590 C   0  0  0  0  0  3  0  0  0  0  0  0
  189.4370  177.3590  141.8490 C   0  0  1  0  0  3  0  0  0  0  0  0
  189.0380  177.5290  139.7210 C   0  0  0  0  0  0  0  0  0  0  0  0
  188.3700  177.8100  138.4170 C   0  0  0  0  0  2  0  0  0  0  0  0
  189.3930  178.2460  137.3750 C   0  0  0  0  0  2  0  0  0  0  0  0
  189.1630  179.5620  136.9980 F   0  0  0  0  0  0  0  0  0  0  0  0
  186.3200  177.5730  146.3210 C   0  0  0  0  0  2  0  0  0  0  0  0
  185.9470  178.9770  146.1880 N   0  0  0  0  0  2  0  0  0  0  0  0
  184.5930  179.0370  146.2290 O   0  0  0  0  0  0  0  0  0  0  0  0
  184.1940  178.6360  144.9500 C   0  0  0  0  0  2  0  0  0  0  0  0
  184.3750  179.8000  143.9830 C   0  0  0  0  0  2  0  0  0  0  0  0
  185.1750  179.2040  142.4680 S   0  0  0  0  0  0  0  0  0  0  0  0
  183.6660  178.3710  141.8860 C   0  0  0  0  0  2  0  0  0  0  0  0
  183.8450  177.8940  140.4500 C   0  0  0  0  0  2  0  0  0  0  0  0
  184.5570  178.9660  139.6370 C   0  0  0  0  0  1  0  0  0  0  0  0
  1 10  2  0  0  0  0
  3  9  1  0  0  0  0
  3  8  2  0  0  0  0
  4  6  2  0  0  0  0
  4  7  1  0  0  0  0
  5 10  1  0  0  0  0
  5  2  2  0  0  0  0
  6  3  1  0  0  0  0
  7  9  2  0  0  0  0
  8  5  1  0  0  0  0
  9  1  1  0  0  0  0
 11 14  1  0  0  0  0
 12 11  2  0  0  0  0
 13 14  1  0  0  0  0
 14  4  1  1  0  0  0
 15 12  1  0  0  0  0
 15 13  2  0  0  0  0
 16 15  1  0  0  0  0
 17 16  1  0  0  0  0
 18 17  1  0  0  0  0
 19  8  1  0  0  0  0
 20 21  1  0  0  0  0
 20 19  1  0  0  0  0
 22 21  1  0  0  0  0
 23 22  1  0  0  0  0
 24 23  1  0  0  0  0
 25 24  1  0  0  0  0
 26 25  1  0  0  0  0
 27 26  1  0  0  0  0
M  END
>  <MODEL>
8

>  <REMARK>
 VINA RESULT:      -6.9      3.477      6.108
  Name = 
  11 active torsions:
  status: ('A' for Active; 'I' for Inactive)
    1  A    between atoms: C_2  and  C_3
    2  A    between atoms: C_3  and  S_8
    3  A    between atoms: S_8  and  C_27
    4  A    between atoms: C_10  and  C_23
    5  A    between atoms: O_12  and  N_17
    6  A    between atoms: O_12  and  C_18
    7  A    between atoms: C_13  and  C_16
    8  A    between atoms: C_13  and  C_24
    9  A    between atoms: C_14  and  N_17
   10  A    between atoms: C_14  and  C_21
   11  A    between atoms: C_18  and  C_27
                            x       y       z     vdW  Elec       q    Type
                         _______ _______ _______ _____ _____    ______ ____

>  <TORSDO>
F 11

$$$$
=
 OpenBabel11032420373D

 27 29  0  0  0  0  0  0  0  0999 V2000
  187.9280  178.2660  137.9830 C   0  0  0  0  0  3  0  0  0  0  0  0
  191.1390  176.7960  138.2290 O   0  0  0  0  0  0  0  0  0  0  0  0
  188.4960  177.7760  140.3870 C   0  0  0  0  0  0  0  0  0  0  0  0
  186.6920  178.3450  141.3550 C   0  0  0  0  0  0  0  0  0  0  0  0
  190.0390  177.2680  138.6180 C   0  0  0  0  0  0  0  0  0  0  0  0
  187.8690  177.8620  141.6520 N   0  0  0  0  0  0  0  0  0  0  0  0
  186.4700  178.6060  139.9530 N   0  0  0  0  0  0  0  0  0  0  0  0
  189.6990  177.2910  140.0710 C   0  0  0  0  0  0  0  0  0  0  0  0
  187.5790  178.2530  139.4050 C   0  0  0  0  0  0  0  0  0  0  0  0
  189.0980  177.7950  137.6410 N   0  0  0  0  0  0  0  0  0  0  0  0
  184.2870  178.6170  142.0930 C   0  0  0  0  0  3  0  0  0  0  0  0
  183.6120  178.7550  143.2480 N   0  0  0  0  0  2  0  0  0  0  0  0
  185.8290  178.6320  143.7240 C   0  0  0  0  0  3  0  0  0  0  0  0
  185.6400  178.5430  142.3610 C   0  0  0  0  0  0  0  0  0  0  0  0
  184.5430  178.7650  144.2210 C   0  0  0  0  0  0  0  0  0  0  0  0
  184.2030  178.8430  145.6720 C   0  0  0  0  0  2  0  0  0  0  0  0
  185.3550  178.3170  146.5200 C   0  0  0  0  0  2  0  0  0  0  0  0
  186.0630  179.3730  147.0760 F   0  0  0  0  0  0  0  0  0  0  0  0
  190.6420  176.7580  141.1140 C   0  0  0  0  0  2  0  0  0  0  0  0
  191.1070  177.8400  141.9750 N   0  0  0  0  0  2  0  0  0  0  0  0
  191.6670  177.2680  143.0700 O   0  0  0  0  0  0  0  0  0  0  0  0
  190.6260  176.5310  143.6420 C   0  0  0  0  0  2  0  0  0  0  0  0
  190.3760  177.0370  145.0580 C   0  0  0  0  0  2  0  0  0  0  0  0
  191.6800  176.4160  146.1560 S   0  0  0  0  0  0  0  0  0  0  0  0
  190.7070  176.7480  147.6560 C   0  0  0  0  0  2  0  0  0  0  0  0
  189.3370  177.3060  147.2860 C   0  0  0  0  0  2  0  0  0  0  0  0
  188.8580  178.2560  148.3740 C   0  0  0  0  0  1  0  0  0  0  0  0
  1  9  1  0  0  0  0
  2  5  2  0  0  0  0
  3  6  1  0  0  0  0
  4  6  2  0  0  0  0
  4 14  1  0  0  0  0
  5  8  1  0  0  0  0
  7  4  1  0  0  0  0
  8  3  2  0  0  0  0
  8 19  1  0  0  0  0
  9  7  2  0  0  0  0
  9  3  1  0  0  0  0
 10  1  2  0  0  0  0
 10  5  1  0  0  0  0
 11 14  2  0  0  0  0
 11 12  1  0  0  0  0
 12 15  1  0  0  0  0
 13 15  2  0  0  0  0
 14 13  1  0  0  0  0
 15 16  1  0  0  0  0
 16 17  1  0  0  0  0
 17 18  1  0  0  0  0
 19 20  1  0  0  0  0
 20 21  1  0  0  0  0
 21 22  1  0  0  0  0
 22 23  1  0  0  0  0
 23 24  1  0  0  0  0
 24 25  1  0  0  0  0
 26 25  1  0  0  0  0
 26 27  1  0  0  0  0
M  END
>  <MODEL>
9

>  <REMARK>
 VINA RESULT:      -6.8      2.991      5.973
  Name = 
  11 active torsions:
  status: ('A' for Active; 'I' for Inactive)
    1  A    between atoms: C_2  and  C_3
    2  A    between atoms: C_3  and  S_8
    3  A    between atoms: S_8  and  C_27
    4  A    between atoms: C_10  and  C_23
    5  A    between atoms: O_12  and  N_17
    6  A    between atoms: O_12  and  C_18
    7  A    between atoms: C_13  and  C_16
    8  A    between atoms: C_13  and  C_24
    9  A    between atoms: C_14  and  N_17
   10  A    between atoms: C_14  and  C_21
   11  A    between atoms: C_18  and  C_27
                            x       y       z     vdW  Elec       q    Type
                         _______ _______ _______ _____ _____    ______ ____

>  <TORSDO>
F 11

$$$$
