=
 OpenBabel11032420323D

 53 60  0  0  1  0  0  0  0  0999 V2000
  190.4160  177.0400  145.9430 C   0  0  0  0  0  0  0  0  0  0  0  0
  189.2960  177.5610  146.3610 N   0  0  0  0  0  0  0  0  0  0  0  0
  187.2140  177.3300  143.4510 C   0  0  0  0  0  3  0  0  0  0  0  0
  188.4560  177.1740  142.9740 C   0  0  0  0  0  0  0  0  0  0  0  0
  190.4770  176.8720  144.4650 C   0  0  0  0  0  3  0  0  0  0  0  0
  188.6160  177.8550  145.1580 C   0  0  0  0  0  0  0  0  0  0  0  0
  189.3800  177.4780  144.0480 C   0  0  0  0  0  0  0  0  0  0  0  0
  187.3290  177.7330  144.8710 C   0  0  0  0  0  0  0  0  0  0  0  0
  192.7280  176.3330  148.5810 O   0  0  0  0  0  0  0  0  0  0  0  0
  193.1360  175.4490  147.7170 N   0  0  0  0  0  0  0  0  0  0  0  0
  191.4530  176.5590  146.8610 C   0  0  0  0  0  0  0  0  0  0  0  0
  191.7150  177.0350  148.1270 C   0  0  0  0  0  3  0  0  0  0  0  0
  192.3660  175.5550  146.6190 C   0  0  0  0  0  3  0  0  0  0  0  0
  188.8200  176.7150  141.6030 C   0  0  0  0  0  2  0  0  0  0  0  0
  190.5580  177.1160  141.2030 S   0  0  0  0  0  0  0  0  0  0  0  0
  190.3460  177.3080  139.3950 C   0  0  1  0  0  3  0  0  0  0  0  0
  191.8730  176.6870  137.7070 O   0  0  0  0  0  0  0  0  0  0  0  0
  191.1710  176.3220  138.6360 C   0  0  0  0  0  3  0  0  0  0  0  0
  188.9470  177.2000  139.0110 N   0  0  0  0  0  2  0  0  0  0  0  0
  189.0620  179.4250  138.3540 O   0  0  0  0  0  1  0  0  0  0  0  0
  188.7250  178.1420  137.9240 C   0  0  2  0  0  3  0  0  0  0  0  0
  187.2640  178.1120  137.4870 C   0  0  2  0  0  3  0  0  0  0  0  0
  186.4380  178.3850  138.5790 O   0  0  0  0  0  1  0  0  0  0  0  0
  186.9370  176.7980  136.9550 N   0  0  0  0  0  2  0  0  0  0  0  0
  185.1360  175.7720  135.7030 C   0  0  0  0  0  2  0  0  0  0  0  0
  185.0210  175.3300  137.1450 C   0  0  0  0  0  2  0  0  0  0  0  0
  185.4910  176.7340  136.8200 C   0  0  0  0  0  3  0  0  0  0  0  0
  186.2170  177.7210  145.8670 C   0  0  0  0  0  2  0  0  0  0  0  0
  182.9400  178.5590  143.7720 C   0  0  2  0  0  3  0  0  0  0  0  0
  185.2650  178.8790  145.6210 C   0  0  1  0  0  3  0  0  0  0  0  0
  185.2920  179.2540  144.1610 C   0  0  0  0  0  2  0  0  0  0  0  0
  183.1140  179.2690  145.1010 C   0  0  2  0  0  3  0  0  0  0  0  0
  183.8970  179.7310  143.8880 C   0  0  2  0  0  3  0  0  0  0  0  0
  183.9490  178.5070  145.9380 O   0  0  0  0  0  0  0  0  0  0  0  0
  181.5650  179.1160  141.7360 C   0  0  0  0  0  0  0  0  0  0  0  0
  180.3010  179.4860  141.1830 N   0  0  0  0  0  2  0  0  0  0  0  0
  182.5480  178.8870  140.9790 O   0  0  0  0  0  0  0  0  0  0  0  0
  181.7020  178.9990  143.1510 N   0  0  0  0  0  2  0  0  0  0  0  0
  181.5060  179.6060  137.7820 C   0  0  1  0  0  3  0  0  0  0  0  0
  181.3180  181.0380  138.2440 C   0  0  0  0  0  2  0  0  0  0  0  0
  180.0660  179.5720  139.7500 C   0  0  2  0  0  3  0  0  0  0  0  0
  181.1340  178.7880  139.0090 C   0  0  1  0  0  3  0  0  0  0  0  0
  180.2070  181.0130  139.2800 C   0  0  0  0  0  2  0  0  0  0  0  0
  180.7560  177.3640  138.7240 C   0  0  0  0  0  0  0  0  0  0  0  0
  179.9980  174.7080  138.2480 C   0  0  0  0  0  3  0  0  0  0  0  0
  181.6990  176.4310  138.2660 C   0  0  0  0  0  3  0  0  0  0  0  0
  181.3200  175.1070  138.0280 C   0  0  0  0  0  3  0  0  0  0  0  0
  179.0560  175.6330  138.7100 C   0  0  0  0  0  3  0  0  0  0  0  0
  179.4360  176.9570  138.9500 C   0  0  0  0  0  3  0  0  0  0  0  0
  180.6140  179.3370  136.7040 O   0  0  0  0  0  0  0  0  0  0  0  0
  180.7970  180.6440  134.5940 C   0  0  0  0  0  1  0  0  0  0  0  0
  181.5480  178.4000  134.8060 O   0  0  0  0  0  0  0  0  0  0  0  0
  181.0120  179.3940  135.3660 C   0  0  0  0  0  0  0  0  0  0  0  0
  1  2  1  0  0  0  0
  1 11  1  0  0  0  0
  3  8  2  0  0  0  0
  4  3  1  0  0  0  0
  4  7  2  0  0  0  0
  5  1  2  0  0  0  0
  6  2  2  0  0  0  0
  7  5  1  0  0  0  0
  7  6  1  0  0  0  0
  8  6  1  0  0  0  0
  8 28  1  0  0  0  0
 10  9  1  0  0  0  0
 11 12  2  0  0  0  0
 12  9  1  0  0  0  0
 13 11  1  0  0  0  0
 13 10  2  0  0  0  0
 14  4  1  0  0  0  0
 15 14  1  0  0  0  0
 16 18  1  6  0  0  0
 16 15  1  0  0  0  0
 17 18  2  0  0  0  0
 19 16  1  0  0  0  0
 21 20  1  1  0  0  0
 21 19  1  0  0  0  0
 22 21  1  0  0  0  0
 22 23  1  1  0  0  0
 24 22  1  0  0  0  0
 25 27  1  0  0  0  0
 25 26  1  0  0  0  0
 27 24  1  0  0  0  0
 27 26  1  0  0  0  0
 29 38  1  6  0  0  0
 29 33  1  0  0  0  0
 29 32  1  0  0  0  0
 30 28  1  6  0  0  0
 30 34  1  0  0  0  0
 31 30  1  0  0  0  0
 32 34  1  1  0  0  0
 33 31  1  1  0  0  0
 33 32  1  0  0  0  0
 35 38  1  0  0  0  0
 36 35  1  0  0  0  0
 37 35  2  0  0  0  0
 39 50  1  6  0  0  0
 39 40  1  0  0  0  0
 39 42  1  0  0  0  0
 40 43  1  0  0  0  0
 41 36  1  1  0  0  0
 42 44  1  6  0  0  0
 42 41  1  0  0  0  0
 43 41  1  0  0  0  0
 44 49  1  0  0  0  0
 45 48  1  0  0  0  0
 46 44  2  0  0  0  0
 47 45  2  0  0  0  0
 47 46  1  0  0  0  0
 48 49  2  0  0  0  0
 51 53  1  0  0  0  0
 52 53  2  0  0  0  0
 53 50  1  0  0  0  0
M  END
>  <MODEL>
1

>  <REMARK>
 VINA RESULT:      -8.3      0.000      0.000
  Name = 
  17 active torsions:
  status: ('A' for Active; 'I' for Inactive)
    1  A    between atoms: C_1  and  N_37
    2  A    between atoms: C_5  and  C_7
    3  A    between atoms: O_6  and  C_9
    4  A    between atoms: O_6  and  C_51
    5  A    between atoms: C_7  and  N_43
    6  A    between atoms: C_7  and  S_44
    7  A    between atoms: C_8  and  C_36
    8  A    between atoms: C_10  and  C_17
    9  A    between atoms: C_12  and  C_42
   10  A    between atoms: N_15  and  C_38
   11  A    between atoms: N_15  and  C_45
   12  A    between atoms: C_23  and  C_29
   13  A    between atoms: N_25  and  C_39
   14  A    between atoms: C_29  and  S_44
   15  A    between atoms: C_30  and  N_43
   16  A    between atoms: C_30  and  C_45
   17  A    between atoms: C_36  and  C_49
                            x       y       z     vdW  Elec       q    Type
                         _______ _______ _______ _____ _____    ______ ____

>  <TORSDO>
F 17

$$$$
=
 OpenBabel11032420323D

 53 60  0  0  1  0  0  0  0  0999 V2000
  183.8060  173.7870  136.7890 C   0  0  0  0  0  0  0  0  0  0  0  0
  183.0760  174.8420  137.0250 N   0  0  0  0  0  0  0  0  0  0  0  0
  185.4110  177.5150  136.5120 C   0  0  0  0  0  3  0  0  0  0  0  0
  186.1860  176.4320  136.6610 C   0  0  0  0  0  0  0  0  0  0  0  0
  185.2650  174.0770  136.7250 C   0  0  0  0  0  3  0  0  0  0  0  0
  184.0410  175.8540  137.2320 C   0  0  0  0  0  0  0  0  0  0  0  0
  185.3370  175.3420  137.0980 C   0  0  0  0  0  0  0  0  0  0  0  0
  184.0240  177.1210  136.8470 C   0  0  0  0  0  0  0  0  0  0  0  0
  182.9770  170.3580  136.1930 O   0  0  0  0  0  0  0  0  0  0  0  0
  181.8210  170.8910  135.9260 N   0  0  0  0  0  0  0  0  0  0  0  0
  183.2220  172.4750  136.4950 C   0  0  0  0  0  0  0  0  0  0  0  0
  183.8660  171.2590  136.5420 C   0  0  0  0  0  3  0  0  0  0  0  0
  181.9250  172.2210  136.0990 C   0  0  0  0  0  3  0  0  0  0  0  0
  187.6460  176.3500  136.3750 C   0  0  0  0  0  2  0  0  0  0  0  0
  188.5930  175.8740  137.8640 S   0  0  0  0  0  0  0  0  0  0  0  0
  189.9240  177.1230  137.7070 C   0  0  1  0  0  3  0  0  0  0  0  0
  189.0000  179.2930  137.6930 O   0  0  0  0  0  0  0  0  0  0  0  0
  189.5420  178.4170  138.3470 C   0  0  0  0  0  3  0  0  0  0  0  0
  191.1770  176.6340  138.2620 N   0  0  0  0  0  2  0  0  0  0  0  0
  191.5870  174.3960  137.7930 O   0  0  0  0  0  1  0  0  0  0  0  0
  191.7340  175.6930  137.3010 C   0  0  2  0  0  3  0  0  0  0  0  0
  193.2110  175.9900  137.0640 C   0  0  2  0  0  3  0  0  0  0  0  0
  193.6750  175.2460  135.9770 O   0  0  0  0  0  1  0  0  0  0  0  0
  193.9790  175.6380  138.2490 N   0  0  0  0  0  2  0  0  0  0  0  0
  195.9100  174.3980  139.0200 C   0  0  0  0  0  2  0  0  0  0  0  0
  194.9370  173.4200  138.4000 C   0  0  0  0  0  2  0  0  0  0  0  0
  195.0900  174.8090  137.8130 C   0  0  0  0  0  3  0  0  0  0  0  0
  182.7990  177.9130  136.5320 C   0  0  0  0  0  2  0  0  0  0  0  0
  183.2000  177.7750  140.4880 C   0  0  2  0  0  3  0  0  0  0  0  0
  182.2900  178.6280  137.7730 C   0  0  1  0  0  3  0  0  0  0  0  0
  181.5400  177.6530  138.6450 C   0  0  0  0  0  2  0  0  0  0  0  0
  182.9370  179.1320  139.8650 C   0  0  2  0  0  3  0  0  0  0  0  0
  181.7990  178.1460  140.0370 C   0  0  2  0  0  3  0  0  0  0  0  0
  183.3650  179.1280  138.5250 O   0  0  0  0  0  0  0  0  0  0  0  0
  184.5460  178.1880  142.5770 C   0  0  0  0  0  0  0  0  0  0  0  0
  184.5690  178.3900  143.9910 N   0  0  0  0  0  2  0  0  0  0  0  0
  185.6130  178.2520  141.9070 O   0  0  0  0  0  0  0  0  0  0  0  0
  183.3030  177.9210  141.9300 N   0  0  0  0  0  2  0  0  0  0  0  0
  187.2150  177.5270  146.2910 C   0  0  1  0  0  3  0  0  0  0  0  0
  186.1390  178.2370  147.0890 C   0  0  0  0  0  2  0  0  0  0  0  0
  185.7860  178.7220  144.7160 C   0  0  2  0  0  3  0  0  0  0  0  0
  186.6360  177.4760  144.8850 C   0  0  1  0  0  3  0  0  0  0  0  0
  185.4470  179.1880  146.1260 C   0  0  0  0  0  2  0  0  0  0  0  0
  187.6490  177.2780  143.7950 C   0  0  0  0  0  0  0  0  0  0  0  0
  189.5690  176.8490  141.7990 C   0  0  0  0  0  3  0  0  0  0  0  0
  188.1500  178.3580  143.0530 C   0  0  0  0  0  3  0  0  0  0  0  0
  189.1070  178.1430  142.0560 C   0  0  0  0  0  3  0  0  0  0  0  0
  189.0770  175.7700  142.5400 C   0  0  0  0  0  3  0  0  0  0  0  0
  188.1210  175.9850  143.5380 C   0  0  0  0  0  3  0  0  0  0  0  0
  188.4110  178.3010  146.3190 O   0  0  0  0  0  0  0  0  0  0  0  0
  190.6670  177.3490  145.8740 C   0  0  0  0  0  1  0  0  0  0  0  0
  189.8250  177.7380  148.0610 O   0  0  0  0  0  0  0  0  0  0  0  0
  189.6170  177.8050  146.8200 C   0  0  0  0  0  0  0  0  0  0  0  0
  1  2  1  0  0  0  0
  2  6  2  0  0  0  0
  3  4  1  0  0  0  0
  3  8  2  0  0  0  0
  4  7  2  0  0  0  0
  5  1  2  0  0  0  0
  5  7  1  0  0  0  0
  7  6  1  0  0  0  0
  8  6  1  0  0  0  0
  9 12  1  0  0  0  0
 10 13  2  0  0  0  0
 10  9  1  0  0  0  0
 11 12  2  0  0  0  0
 11  1  1  0  0  0  0
 13 11  1  0  0  0  0
 14  4  1  0  0  0  0
 14 15  1  0  0  0  0
 16 15  1  0  0  0  0
 16 19  1  0  0  0  0
 16 18  1  1  0  0  0
 17 18  2  0  0  0  0
 21 20  1  1  0  0  0
 21 19  1  0  0  0  0
 22 23  1  6  0  0  0
 22 21  1  0  0  0  0
 22 24  1  0  0  0  0
 26 25  1  0  0  0  0
 27 24  1  0  0  0  0
 27 26  1  0  0  0  0
 27 25  1  0  0  0  0
 28  8  1  0  0  0  0
 29 38  1  1  0  0  0
 30 28  1  6  0  0  0
 30 34  1  0  0  0  0
 30 31  1  0  0  0  0
 32 34  1  6  0  0  0
 32 33  1  0  0  0  0
 32 29  1  0  0  0  0
 33 31  1  6  0  0  0
 33 29  1  0  0  0  0
 35 36  1  0  0  0  0
 37 35  2  0  0  0  0
 38 35  1  0  0  0  0
 39 50  1  6  0  0  0
 39 40  1  0  0  0  0
 41 36  1  6  0  0  0
 41 42  1  0  0  0  0
 41 43  1  0  0  0  0
 42 44  1  6  0  0  0
 42 39  1  0  0  0  0
 43 40  1  0  0  0  0
 45 47  2  0  0  0  0
 45 48  1  0  0  0  0
 46 44  2  0  0  0  0
 47 46  1  0  0  0  0
 48 49  2  0  0  0  0
 49 44  1  0  0  0  0
 50 53  1  0  0  0  0
 51 53  1  0  0  0  0
 53 52  2  0  0  0  0
M  END
>  <MODEL>
2

>  <REMARK>
 VINA RESULT:      -8.2      2.929      9.450
  Name = 
  17 active torsions:
  status: ('A' for Active; 'I' for Inactive)
    1  A    between atoms: C_1  and  N_37
    2  A    between atoms: C_5  and  C_7
    3  A    between atoms: O_6  and  C_9
    4  A    between atoms: O_6  and  C_51
    5  A    between atoms: C_7  and  N_43
    6  A    between atoms: C_7  and  S_44
    7  A    between atoms: C_8  and  C_36
    8  A    between atoms: C_10  and  C_17
    9  A    between atoms: C_12  and  C_42
   10  A    between atoms: N_15  and  C_38
   11  A    between atoms: N_15  and  C_45
   12  A    between atoms: C_23  and  C_29
   13  A    between atoms: N_25  and  C_39
   14  A    between atoms: C_29  and  S_44
   15  A    between atoms: C_30  and  N_43
   16  A    between atoms: C_30  and  C_45
   17  A    between atoms: C_36  and  C_49
                            x       y       z     vdW  Elec       q    Type
                         _______ _______ _______ _____ _____    ______ ____

>  <TORSDO>
F 17

$$$$
=
 OpenBabel11032420323D

 53 60  0  0  1  0  0  0  0  0999 V2000
  190.5490  176.9770  146.3530 C   0  0  0  0  0  0  0  0  0  0  0  0
  189.4690  177.5430  146.8150 N   0  0  0  0  0  0  0  0  0  0  0  0
  187.2180  177.2680  144.0370 C   0  0  0  0  0  3  0  0  0  0  0  0
  188.4260  177.0600  143.4970 C   0  0  0  0  0  0  0  0  0  0  0  0
  190.5210  176.7550  144.8810 C   0  0  0  0  0  3  0  0  0  0  0  0
  188.7280  177.8130  145.6420 C   0  0  0  0  0  0  0  0  0  0  0  0
  189.4180  177.3760  144.5050 C   0  0  0  0  0  0  0  0  0  0  0  0
  187.4240  177.7170  145.4330 C   0  0  0  0  0  0  0  0  0  0  0  0
  193.2080  175.3140  148.0760 O   0  0  0  0  0  0  0  0  0  0  0  0
  193.0510  176.3240  148.8810 N   0  0  0  0  0  0  0  0  0  0  0  0
  191.6250  176.5000  147.2290 C   0  0  0  0  0  0  0  0  0  0  0  0
  192.3790  175.3600  147.0590 C   0  0  0  0  0  3  0  0  0  0  0  0
  192.0650  177.0970  148.3920 C   0  0  0  0  0  3  0  0  0  0  0  0
  188.6990  176.5440  142.1250 C   0  0  0  0  0  2  0  0  0  0  0  0
  190.1310  177.3890  141.3660 S   0  0  0  0  0  0  0  0  0  0  0  0
  189.7330  177.0040  139.6200 C   0  0  1  0  0  3  0  0  0  0  0  0
  187.9830  178.5740  139.8050 O   0  0  0  0  0  0  0  0  0  0  0  0
  188.4350  177.6140  139.2040 C   0  0  0  0  0  3  0  0  0  0  0  0
  190.8020  177.4280  138.7280 N   0  0  0  0  0  2  0  0  0  0  0  0
  190.4550  175.1600  138.3660 O   0  0  0  0  0  1  0  0  0  0  0  0
  191.2430  176.2500  137.9960 C   0  0  2  0  0  3  0  0  0  0  0  0
  192.7080  175.9550  138.3010 C   0  0  2  0  0  3  0  0  0  0  0  0
  193.4970  177.0470  137.9340 O   0  0  0  0  0  1  0  0  0  0  0  0
  193.1380  174.7810  137.5580 N   0  0  0  0  0  2  0  0  0  0  0  0
  195.1940  173.8400  136.6910 C   0  0  0  0  0  2  0  0  0  0  0  0
  194.4460  174.4820  135.5430 C   0  0  0  0  0  2  0  0  0  0  0  0
  194.4020  175.1120  136.9210 C   0  0  0  0  0  3  0  0  0  0  0  0
  186.3710  177.7700  146.4900 C   0  0  0  0  0  2  0  0  0  0  0  0
  183.6530  178.4910  143.6750 C   0  0  2  0  0  3  0  0  0  0  0  0
  185.3140  178.8030  146.1400 C   0  0  1  0  0  3  0  0  0  0  0  0
  185.6470  179.4380  144.8140 C   0  0  0  0  0  2  0  0  0  0  0  0
  183.3380  178.9640  145.0810 C   0  0  2  0  0  3  0  0  0  0  0  0
  184.3060  179.7490  144.2180 C   0  0  2  0  0  3  0  0  0  0  0  0
  184.0560  178.1920  146.0120 O   0  0  0  0  0  0  0  0  0  0  0  0
  182.6400  178.6810  141.3760 C   0  0  0  0  0  0  0  0  0  0  0  0
  181.5050  178.9900  140.5670 N   0  0  0  0  0  2  0  0  0  0  0  0
  183.7020  178.2530  140.8460 O   0  0  0  0  0  0  0  0  0  0  0  0
  182.5590  178.8530  142.7900 N   0  0  0  0  0  2  0  0  0  0  0  0
  179.7440  178.3230  137.4870 C   0  0  1  0  0  3  0  0  0  0  0  0
  180.2540  176.9950  138.0100 C   0  0  0  0  0  2  0  0  0  0  0  0
  181.4890  178.7890  139.1260 C   0  0  2  0  0  3  0  0  0  0  0  0
  180.1860  179.3150  138.5510 C   0  0  1  0  0  3  0  0  0  0  0  0
  181.5140  177.3010  138.8040 C   0  0  0  0  0  2  0  0  0  0  0  0
  180.2570  180.7420  138.0900 C   0  0  0  0  0  0  0  0  0  0  0  0
  180.4420  183.4200  137.2850 C   0  0  0  0  0  3  0  0  0  0  0  0
  179.1360  181.4000  137.5620 C   0  0  0  0  0  3  0  0  0  0  0  0
  179.2300  182.7360  137.1590 C   0  0  0  0  0  3  0  0  0  0  0  0
  181.5610  182.7700  137.8160 C   0  0  0  0  0  3  0  0  0  0  0  0
  181.4670  181.4340  138.2200 C   0  0  0  0  0  3  0  0  0  0  0  0
  180.3670  178.6090  136.2370 O   0  0  0  0  0  0  0  0  0  0  0  0
  178.9430  177.3970  134.5950 C   0  0  0  0  0  1  0  0  0  0  0  0
  181.3160  177.2720  134.6050 O   0  0  0  0  0  0  0  0  0  0  0  0
  180.2790  177.7510  135.1390 C   0  0  0  0  0  0  0  0  0  0  0  0
  1  2  1  0  0  0  0
  1 11  1  0  0  0  0
  3  8  2  0  0  0  0
  4  3  1  0  0  0  0
  4  7  2  0  0  0  0
  5  1  2  0  0  0  0
  6  2  2  0  0  0  0
  7  5  1  0  0  0  0
  7  6  1  0  0  0  0
  8  6  1  0  0  0  0
  8 28  1  0  0  0  0
  9 10  1  0  0  0  0
 11 13  1  0  0  0  0
 12 11  2  0  0  0  0
 12  9  1  0  0  0  0
 13 10  2  0  0  0  0
 14  4  1  0  0  0  0
 15 14  1  0  0  0  0
 16 18  1  6  0  0  0
 16 15  1  0  0  0  0
 18 17  2  0  0  0  0
 19 16  1  0  0  0  0
 21 22  1  0  0  0  0
 21 20  1  1  0  0  0
 21 19  1  0  0  0  0
 22 23  1  6  0  0  0
 24 22  1  0  0  0  0
 25 27  1  0  0  0  0
 26 25  1  0  0  0  0
 26 27  1  0  0  0  0
 27 24  1  0  0  0  0
 29 38  1  6  0  0  0
 29 33  1  0  0  0  0
 29 32  1  0  0  0  0
 30 28  1  6  0  0  0
 31 30  1  0  0  0  0
 32 34  1  1  0  0  0
 33 31  1  1  0  0  0
 33 32  1  0  0  0  0
 34 30  1  0  0  0  0
 35 38  1  0  0  0  0
 36 35  1  0  0  0  0
 37 35  2  0  0  0  0
 39 50  1  6  0  0  0
 39 40  1  0  0  0  0
 39 42  1  0  0  0  0
 40 43  1  0  0  0  0
 41 36  1  1  0  0  0
 42 44  1  6  0  0  0
 42 41  1  0  0  0  0
 43 41  1  0  0  0  0
 44 49  1  0  0  0  0
 45 48  1  0  0  0  0
 46 44  2  0  0  0  0
 47 45  2  0  0  0  0
 47 46  1  0  0  0  0
 48 49  2  0  0  0  0
 51 53  1  0  0  0  0
 52 53  2  0  0  0  0
 53 50  1  0  0  0  0
M  END
>  <MODEL>
3

>  <REMARK>
 VINA RESULT:      -8.1      1.800      3.958
  Name = 
  17 active torsions:
  status: ('A' for Active; 'I' for Inactive)
    1  A    between atoms: C_1  and  N_37
    2  A    between atoms: C_5  and  C_7
    3  A    between atoms: O_6  and  C_9
    4  A    between atoms: O_6  and  C_51
    5  A    between atoms: C_7  and  N_43
    6  A    between atoms: C_7  and  S_44
    7  A    between atoms: C_8  and  C_36
    8  A    between atoms: C_10  and  C_17
    9  A    between atoms: C_12  and  C_42
   10  A    between atoms: N_15  and  C_38
   11  A    between atoms: N_15  and  C_45
   12  A    between atoms: C_23  and  C_29
   13  A    between atoms: N_25  and  C_39
   14  A    between atoms: C_29  and  S_44
   15  A    between atoms: C_30  and  N_43
   16  A    between atoms: C_30  and  C_45
   17  A    between atoms: C_36  and  C_49
                            x       y       z     vdW  Elec       q    Type
                         _______ _______ _______ _____ _____    ______ ____

>  <TORSDO>
F 17

$$$$
=
 OpenBabel11032420323D

 53 60  0  0  1  0  0  0  0  0999 V2000
  182.8180  173.4910  136.9660 C   0  0  0  0  0  0  0  0  0  0  0  0
  182.7040  174.7890  137.0230 N   0  0  0  0  0  0  0  0  0  0  0  0
  186.1220  175.8620  136.8450 C   0  0  0  0  0  3  0  0  0  0  0  0
  186.2050  174.5670  137.1750 C   0  0  0  0  0  0  0  0  0  0  0  0
  184.2130  173.0080  137.1600 C   0  0  0  0  0  3  0  0  0  0  0  0
  184.0110  175.2060  137.3640 C   0  0  0  0  0  0  0  0  0  0  0  0
  184.8680  174.1060  137.4900 C   0  0  0  0  0  0  0  0  0  0  0  0
  184.6960  176.2540  136.9340 C   0  0  0  0  0  0  0  0  0  0  0  0
  179.7080  171.8830  136.2280 O   0  0  0  0  0  0  0  0  0  0  0  0
  180.5000  170.8620  136.0770 N   0  0  0  0  0  0  0  0  0  0  0  0
  181.6930  172.6160  136.6210 C   0  0  0  0  0  0  0  0  0  0  0  0
  180.3640  172.9720  136.5560 C   0  0  0  0  0  3  0  0  0  0  0  0
  181.7590  171.2730  136.3160 C   0  0  0  0  0  3  0  0  0  0  0  0
  187.4430  173.7360  137.1660 C   0  0  0  0  0  2  0  0  0  0  0  0
  188.6740  174.3820  135.9800 S   0  0  0  0  0  0  0  0  0  0  0  0
  190.1220  173.4580  136.6140 C   0  0  1  0  0  3  0  0  0  0  0  0
  192.0440  172.4250  135.7190 O   0  0  0  0  0  0  0  0  0  0  0  0
  190.9280  172.8680  135.5040 C   0  0  0  0  0  3  0  0  0  0  0  0
  190.9580  174.2990  137.4570 N   0  0  0  0  0  2  0  0  0  0  0  0
  192.0390  175.8190  136.0720 O   0  0  0  0  0  1  0  0  0  0  0  0
  190.9250  175.6410  136.8930 C   0  0  2  0  0  3  0  0  0  0  0  0
  190.9320  176.6830  138.0060 C   0  0  2  0  0  3  0  0  0  0  0  0
  192.1130  176.5790  138.7440 O   0  0  0  0  0  1  0  0  0  0  0  0
  189.7950  176.4690  138.8880 N   0  0  0  0  0  2  0  0  0  0  0  0
  188.1750  178.1460  139.5410 C   0  0  0  0  0  2  0  0  0  0  0  0
  189.1040  178.7600  138.5160 C   0  0  0  0  0  2  0  0  0  0  0  0
  188.7070  177.3010  138.4000 C   0  0  0  0  0  3  0  0  0  0  0  0
  184.1050  177.5020  136.3690 C   0  0  0  0  0  2  0  0  0  0  0  0
  183.7870  177.5720  140.3340 C   0  0  2  0  0  3  0  0  0  0  0  0
  183.7070  178.4580  137.4810 C   0  0  1  0  0  3  0  0  0  0  0  0
  182.5190  177.9010  138.2240 C   0  0  0  0  0  2  0  0  0  0  0  0
  184.1510  178.8730  139.6450 C   0  0  2  0  0  3  0  0  0  0  0  0
  182.7160  178.3850  139.6290 C   0  0  2  0  0  3  0  0  0  0  0  0
  184.7550  178.5970  138.4040 O   0  0  0  0  0  0  0  0  0  0  0  0
  184.8590  178.0800  142.5570 C   0  0  0  0  0  0  0  0  0  0  0  0
  184.7020  178.3590  143.9490 N   0  0  0  0  0  2  0  0  0  0  0  0
  186.0040  178.0910  142.0290 O   0  0  0  0  0  0  0  0  0  0  0  0
  183.7040  177.7950  141.7670 N   0  0  0  0  0  2  0  0  0  0  0  0
  187.0200  177.5780  146.6050 C   0  0  1  0  0  3  0  0  0  0  0  0
  185.8610  178.3340  147.2260 C   0  0  0  0  0  2  0  0  0  0  0  0
  185.8220  178.7130  144.8090 C   0  0  2  0  0  3  0  0  0  0  0  0
  186.6240  177.4680  145.1400 C   0  0  1  0  0  3  0  0  0  0  0  0
  185.3120  179.2460  146.1410 C   0  0  0  0  0  2  0  0  0  0  0  0
  187.7650  177.2100  144.1990 C   0  0  0  0  0  0  0  0  0  0  0  0
  189.8880  176.8020  142.4160 C   0  0  0  0  0  3  0  0  0  0  0  0
  187.9880  175.9410  143.6440 C   0  0  0  0  0  3  0  0  0  0  0  0
  189.0480  175.7380  142.7560 C   0  0  0  0  0  3  0  0  0  0  0  0
  189.6660  178.0700  142.9610 C   0  0  0  0  0  3  0  0  0  0  0  0
  188.6050  178.2740  143.8490 C   0  0  0  0  0  3  0  0  0  0  0  0
  188.2140  178.3420  146.7520 O   0  0  0  0  0  0  0  0  0  0  0  0
  190.2110  176.8810  147.0220 C   0  0  0  0  0  1  0  0  0  0  0  0
  189.4750  178.4050  148.6900 O   0  0  0  0  0  0  0  0  0  0  0  0
  189.2850  177.9190  147.5430 C   0  0  0  0  0  0  0  0  0  0  0  0
  1  2  2  0  0  0  0
  1  5  1  0  0  0  0
  2  6  1  0  0  0  0
  3  8  1  0  0  0  0
  3  4  2  0  0  0  0
  4  7  1  0  0  0  0
  5  7  2  0  0  0  0
  6  7  1  0  0  0  0
  8  6  2  0  0  0  0
  9 12  1  0  0  0  0
 10  9  1  0  0  0  0
 10 13  2  0  0  0  0
 11  1  1  0  0  0  0
 12 11  2  0  0  0  0
 13 11  1  0  0  0  0
 14  4  1  0  0  0  0
 15 16  1  0  0  0  0
 15 14  1  0  0  0  0
 16 18  1  6  0  0  0
 16 19  1  0  0  0  0
 18 17  2  0  0  0  0
 21 20  1  6  0  0  0
 21 19  1  0  0  0  0
 21 22  1  0  0  0  0
 22 23  1  1  0  0  0
 22 24  1  0  0  0  0
 26 25  1  0  0  0  0
 27 26  1  0  0  0  0
 27 24  1  0  0  0  0
 27 25  1  0  0  0  0
 28  8  1  0  0  0  0
 29 38  1  1  0  0  0
 30 28  1  6  0  0  0
 30 31  1  0  0  0  0
 30 34  1  0  0  0  0
 32 34  1  6  0  0  0
 32 29  1  0  0  0  0
 33 31  1  6  0  0  0
 33 32  1  0  0  0  0
 33 29  1  0  0  0  0
 35 36  1  0  0  0  0
 37 35  2  0  0  0  0
 38 35  1  0  0  0  0
 39 50  1  6  0  0  0
 39 40  1  0  0  0  0
 41 36  1  6  0  0  0
 41 42  1  0  0  0  0
 41 43  1  0  0  0  0
 42 44  1  6  0  0  0
 42 39  1  0  0  0  0
 43 40  1  0  0  0  0
 45 47  2  0  0  0  0
 45 48  1  0  0  0  0
 46 44  2  0  0  0  0
 47 46  1  0  0  0  0
 48 49  2  0  0  0  0
 49 44  1  0  0  0  0
 50 53  1  0  0  0  0
 51 53  1  0  0  0  0
 53 52  2  0  0  0  0
M  END
>  <MODEL>
4

>  <REMARK>
 VINA RESULT:      -7.9      3.015      9.465
  Name = 
  17 active torsions:
  status: ('A' for Active; 'I' for Inactive)
    1  A    between atoms: C_1  and  N_37
    2  A    between atoms: C_5  and  C_7
    3  A    between atoms: O_6  and  C_9
    4  A    between atoms: O_6  and  C_51
    5  A    between atoms: C_7  and  N_43
    6  A    between atoms: C_7  and  S_44
    7  A    between atoms: C_8  and  C_36
    8  A    between atoms: C_10  and  C_17
    9  A    between atoms: C_12  and  C_42
   10  A    between atoms: N_15  and  C_38
   11  A    between atoms: N_15  and  C_45
   12  A    between atoms: C_23  and  C_29
   13  A    between atoms: N_25  and  C_39
   14  A    between atoms: C_29  and  S_44
   15  A    between atoms: C_30  and  N_43
   16  A    between atoms: C_30  and  C_45
   17  A    between atoms: C_36  and  C_49
                            x       y       z     vdW  Elec       q    Type
                         _______ _______ _______ _____ _____    ______ ____

>  <TORSDO>
F 17

$$$$
=
 OpenBabel11032420323D

 53 60  0  0  1  0  0  0  0  0999 V2000
  181.0150  179.5760  137.6780 C   0  0  0  0  0  0  0  0  0  0  0  0
  181.0270  178.8510  138.7620 N   0  0  0  0  0  0  0  0  0  0  0  0
  183.3160  176.2290  137.8990 C   0  0  0  0  0  3  0  0  0  0  0  0
  182.9770  176.7650  136.7190 C   0  0  0  0  0  0  0  0  0  0  0  0
  181.6470  178.9070  136.5090 C   0  0  0  0  0  3  0  0  0  0  0  0
  181.5770  177.6280  138.3180 C   0  0  0  0  0  0  0  0  0  0  0  0
  181.8820  177.6850  136.9520 C   0  0  0  0  0  0  0  0  0  0  0  0
  182.4310  176.8210  138.9280 C   0  0  0  0  0  0  0  0  0  0  0  0
  179.8730  182.9120  138.2860 O   0  0  0  0  0  0  0  0  0  0  0  0
  179.7890  182.9070  136.9880 N   0  0  0  0  0  0  0  0  0  0  0  0
  180.5320  180.9610  137.6620 C   0  0  0  0  0  0  0  0  0  0  0  0
  180.3150  181.7690  138.7560 C   0  0  0  0  0  3  0  0  0  0  0  0
  180.1900  181.7000  136.5500 C   0  0  0  0  0  3  0  0  0  0  0  0
  183.6420  176.5040  135.4110 C   0  0  0  0  0  2  0  0  0  0  0  0
  184.9850  177.7030  135.0920 S   0  0  0  0  0  0  0  0  0  0  0  0
  186.3020  176.8350  136.0220 C   0  0  1  0  0  3  0  0  0  0  0  0
  188.1970  175.8060  135.0660 O   0  0  0  0  0  0  0  0  0  0  0  0
  186.9830  175.8060  135.1810 C   0  0  0  0  0  3  0  0  0  0  0  0
  187.2750  177.7730  136.5610 N   0  0  0  0  0  2  0  0  0  0  0  0
  186.3570  178.5340  138.5540 O   0  0  0  0  0  1  0  0  0  0  0  0
  187.2610  177.6230  138.0090 C   0  0  2  0  0  3  0  0  0  0  0  0
  188.6530  177.8720  138.5810 C   0  0  2  0  0  3  0  0  0  0  0  0
  188.9910  179.2190  138.4330 O   0  0  0  0  0  1  0  0  0  0  0  0
  189.6270  177.0530  137.8770 N   0  0  0  0  0  2  0  0  0  0  0  0
  191.5480  175.6160  138.2130 C   0  0  0  0  0  2  0  0  0  0  0  0
  191.7850  176.9070  138.9670 C   0  0  0  0  0  2  0  0  0  0  0  0
  190.3870  176.3270  138.8810 C   0  0  0  0  0  3  0  0  0  0  0  0
  182.6490  176.7470  140.4030 C   0  0  0  0  0  2  0  0  0  0  0  0
  184.4050  178.1750  143.6750 C   0  0  2  0  0  3  0  0  0  0  0  0
  183.2560  178.0400  140.9200 C   0  0  1  0  0  3  0  0  0  0  0  0
  182.4890  178.5090  142.1310 C   0  0  0  0  0  2  0  0  0  0  0  0
  184.8390  178.7590  142.3450 C   0  0  2  0  0  3  0  0  0  0  0  0
  183.5280  179.1920  142.9690 C   0  0  2  0  0  3  0  0  0  0  0  0
  184.5870  177.8330  141.3160 O   0  0  0  0  0  0  0  0  0  0  0  0
  186.3580  178.2880  145.2630 C   0  0  0  0  0  0  0  0  0  0  0  0
  187.0690  179.0110  146.2690 N   0  0  0  0  0  2  0  0  0  0  0  0
  186.8040  177.1900  144.8320 O   0  0  0  0  0  0  0  0  0  0  0  0
  185.1400  178.8240  144.7470 N   0  0  0  0  0  2  0  0  0  0  0  0
  189.4320  176.3880  147.0260 C   0  0  1  0  0  3  0  0  0  0  0  0
  188.6000  176.6180  148.2730 C   0  0  0  0  0  2  0  0  0  0  0  0
  188.3440  178.5600  146.8060 C   0  0  2  0  0  3  0  0  0  0  0  0
  188.8330  177.3570  146.0180 C   0  0  1  0  0  3  0  0  0  0  0  0
  188.1690  178.0750  148.2380 C   0  0  0  0  0  2  0  0  0  0  0  0
  189.7350  177.7070  144.8710 C   0  0  0  0  0  0  0  0  0  0  0  0
  191.4390  178.2870  142.7220 C   0  0  0  0  0  3  0  0  0  0  0  0
  190.3940  178.9450  144.8050 C   0  0  0  0  0  3  0  0  0  0  0  0
  191.2430  179.2340  143.7320 C   0  0  0  0  0  3  0  0  0  0  0  0
  190.7890  177.0510  142.7860 C   0  0  0  0  0  3  0  0  0  0  0  0
  189.9410  176.7610  143.8600 C   0  0  0  0  0  3  0  0  0  0  0  0
  190.7920  176.7150  147.2990 O   0  0  0  0  0  0  0  0  0  0  0  0
  192.7540  175.5660  148.3100 C   0  0  0  0  0  1  0  0  0  0  0  0
  191.9920  175.1420  146.1010 O   0  0  0  0  0  0  0  0  0  0  0  0
  191.8290  175.7890  147.1700 C   0  0  0  0  0  0  0  0  0  0  0  0
  1  2  1  0  0  0  0
  3  8  2  0  0  0  0
  4  7  2  0  0  0  0
  4  3  1  0  0  0  0
  5  7  1  0  0  0  0
  5  1  2  0  0  0  0
  6  2  2  0  0  0  0
  6  8  1  0  0  0  0
  7  6  1  0  0  0  0
  8 28  1  0  0  0  0
  9 12  1  0  0  0  0
 10  9  1  0  0  0  0
 11  1  1  0  0  0  0
 11 12  2  0  0  0  0
 13 10  2  0  0  0  0
 13 11  1  0  0  0  0
 14  4  1  0  0  0  0
 15 14  1  0  0  0  0
 15 16  1  0  0  0  0
 16 18  1  6  0  0  0
 16 19  1  0  0  0  0
 17 18  2  0  0  0  0
 19 21  1  0  0  0  0
 21 20  1  1  0  0  0
 21 22  1  0  0  0  0
 22 23  1  6  0  0  0
 24 22  1  0  0  0  0
 24 27  1  0  0  0  0
 25 27  1  0  0  0  0
 25 26  1  0  0  0  0
 27 26  1  0  0  0  0
 29 38  1  1  0  0  0
 30 28  1  1  0  0  0
 30 34  1  0  0  0  0
 30 31  1  0  0  0  0
 32 34  1  6  0  0  0
 32 33  1  0  0  0  0
 32 29  1  0  0  0  0
 33 31  1  6  0  0  0
 33 29  1  0  0  0  0
 35 36  1  0  0  0  0
 37 35  2  0  0  0  0
 38 35  1  0  0  0  0
 39 50  1  1  0  0  0
 39 40  1  0  0  0  0
 41 36  1  6  0  0  0
 41 43  1  0  0  0  0
 42 44  1  6  0  0  0
 42 41  1  0  0  0  0
 42 39  1  0  0  0  0
 43 40  1  0  0  0  0
 45 48  2  0  0  0  0
 45 47  1  0  0  0  0
 46 44  1  0  0  0  0
 47 46  2  0  0  0  0
 48 49  1  0  0  0  0
 49 44  2  0  0  0  0
 52 53  2  0  0  0  0
 53 50  1  0  0  0  0
 53 51  1  0  0  0  0
M  END
>  <MODEL>
5

>  <REMARK>
 VINA RESULT:      -7.4      2.526     10.226
  Name = 
  17 active torsions:
  status: ('A' for Active; 'I' for Inactive)
    1  A    between atoms: C_1  and  N_37
    2  A    between atoms: C_5  and  C_7
    3  A    between atoms: O_6  and  C_9
    4  A    between atoms: O_6  and  C_51
    5  A    between atoms: C_7  and  N_43
    6  A    between atoms: C_7  and  S_44
    7  A    between atoms: C_8  and  C_36
    8  A    between atoms: C_10  and  C_17
    9  A    between atoms: C_12  and  C_42
   10  A    between atoms: N_15  and  C_38
   11  A    between atoms: N_15  and  C_45
   12  A    between atoms: C_23  and  C_29
   13  A    between atoms: N_25  and  C_39
   14  A    between atoms: C_29  and  S_44
   15  A    between atoms: C_30  and  N_43
   16  A    between atoms: C_30  and  C_45
   17  A    between atoms: C_36  and  C_49
                            x       y       z     vdW  Elec       q    Type
                         _______ _______ _______ _____ _____    ______ ____

>  <TORSDO>
F 17

$$$$
=
 OpenBabel11032420323D

 53 60  0  0  1  0  0  0  0  0999 V2000
  183.0870  175.1310  137.1280 C   0  0  0  0  0  0  0  0  0  0  0  0
  182.8380  176.2780  137.6960 N   0  0  0  0  0  0  0  0  0  0  0  0
  186.0570  177.8590  137.6620 C   0  0  0  0  0  3  0  0  0  0  0  0
  186.3290  176.5640  137.4530 C   0  0  0  0  0  0  0  0  0  0  0  0
  184.5400  174.8340  137.0000 C   0  0  0  0  0  3  0  0  0  0  0  0
  184.1240  176.7360  138.0610 C   0  0  0  0  0  0  0  0  0  0  0  0
  185.1080  175.8170  137.6760 C   0  0  0  0  0  0  0  0  0  0  0  0
  184.6220  177.9620  138.0170 C   0  0  0  0  0  0  0  0  0  0  0  0
  180.9770  172.8370  135.3700 O   0  0  0  0  0  0  0  0  0  0  0  0
  180.0830  173.3710  136.1500 N   0  0  0  0  0  0  0  0  0  0  0  0
  182.0300  174.2840  136.5660 C   0  0  0  0  0  0  0  0  0  0  0  0
  182.1720  173.3440  135.5700 C   0  0  0  0  0  3  0  0  0  0  0  0
  180.6970  174.2880  136.9200 C   0  0  0  0  0  3  0  0  0  0  0  0
  187.6380  176.0010  137.0160 C   0  0  0  0  0  2  0  0  0  0  0  0
  189.0300  177.0720  137.5240 S   0  0  0  0  0  0  0  0  0  0  0  0
  190.3580  175.8190  137.3760 C   0  0  1  0  0  3  0  0  0  0  0  0
  190.0930  174.4030  135.5090 O   0  0  0  0  0  0  0  0  0  0  0  0
  189.8740  174.5810  136.6950 C   0  0  0  0  0  3  0  0  0  0  0  0
  191.5190  176.3570  136.6850 N   0  0  0  0  0  2  0  0  0  0  0  0
  192.8410  176.7690  138.5500 O   0  0  0  0  0  1  0  0  0  0  0  0
  192.6960  175.9440  137.4350 C   0  0  2  0  0  3  0  0  0  0  0  0
  193.9410  176.0370  136.5590 C   0  0  2  0  0  3  0  0  0  0  0  0
  193.5760  176.3520  135.2490 O   0  0  0  0  0  1  0  0  0  0  0  0
  194.6450  174.7640  136.5690 N   0  0  0  0  0  2  0  0  0  0  0  0
  193.5180  172.6340  136.3270 C   0  0  0  0  0  2  0  0  0  0  0  0
  194.5480  172.5020  137.4280 C   0  0  0  0  0  2  0  0  0  0  0  0
  193.7930  173.8040  137.2510 C   0  0  0  0  0  3  0  0  0  0  0  0
  183.8230  179.2220  138.0350 C   0  0  0  0  0  2  0  0  0  0  0  0
  184.4870  178.0430  141.7760 C   0  0  2  0  0  3  0  0  0  0  0  0
  183.6720  179.7390  139.4550 C   0  0  1  0  0  3  0  0  0  0  0  0
  182.7270  178.8470  140.2190 C   0  0  0  0  0  2  0  0  0  0  0  0
  184.6160  179.5250  141.4830 C   0  0  2  0  0  3  0  0  0  0  0  0
  183.2440  178.9000  141.6260 C   0  0  2  0  0  3  0  0  0  0  0  0
  184.9080  179.7140  140.1200 O   0  0  0  0  0  0  0  0  0  0  0  0
  186.0450  177.9960  143.7560 C   0  0  0  0  0  0  0  0  0  0  0  0
  186.2240  177.8160  145.1610 N   0  0  0  0  0  2  0  0  0  0  0  0
  187.0210  178.3230  143.0260 O   0  0  0  0  0  0  0  0  0  0  0  0
  184.7500  177.8080  143.1860 N   0  0  0  0  0  2  0  0  0  0  0  0
  189.1090  176.6070  146.9620 C   0  0  1  0  0  3  0  0  0  0  0  0
  188.1000  177.0760  147.9920 C   0  0  0  0  0  2  0  0  0  0  0  0
  187.4980  178.0420  145.8260 C   0  0  2  0  0  3  0  0  0  0  0  0
  188.3940  176.8310  145.6390 C   0  0  1  0  0  3  0  0  0  0  0  0
  187.2890  178.1770  147.3280 C   0  0  0  0  0  2  0  0  0  0  0  0
  189.2970  176.9210  144.4440 C   0  0  0  0  0  0  0  0  0  0  0  0
  190.9720  177.1650  142.2100 C   0  0  0  0  0  3  0  0  0  0  0  0
  189.3720  175.8850  143.5000 C   0  0  0  0  0  3  0  0  0  0  0  0
  190.2090  176.0070  142.3870 C   0  0  0  0  0  3  0  0  0  0  0  0
  190.8960  178.2020  143.1450 C   0  0  0  0  0  3  0  0  0  0  0  0
  190.0580  178.0810  144.2580 C   0  0  0  0  0  3  0  0  0  0  0  0
  190.2810  177.4130  147.0490 O   0  0  0  0  0  0  0  0  0  0  0  0
  192.1060  175.7240  146.9370 C   0  0  0  0  0  1  0  0  0  0  0  0
  192.0690  177.5020  148.5140 O   0  0  0  0  0  0  0  0  0  0  0  0
  191.4920  176.9300  147.5500 C   0  0  0  0  0  0  0  0  0  0  0  0
  1  2  1  0  0  0  0
  2  6  2  0  0  0  0
  3  8  2  0  0  0  0
  4  3  1  0  0  0  0
  4  7  2  0  0  0  0
  5  1  2  0  0  0  0
  5  7  1  0  0  0  0
  7  6  1  0  0  0  0
  8 28  1  0  0  0  0
  8  6  1  0  0  0  0
  9 12  1  0  0  0  0
  9 10  1  0  0  0  0
 10 13  2  0  0  0  0
 11 13  1  0  0  0  0
 11  1  1  0  0  0  0
 12 11  2  0  0  0  0
 14  4  1  0  0  0  0
 14 15  1  0  0  0  0
 16 18  1  6  0  0  0
 16 15  1  0  0  0  0
 17 18  2  0  0  0  0
 19 16  1  0  0  0  0
 19 21  1  0  0  0  0
 21 20  1  1  0  0  0
 22 23  1  6  0  0  0
 22 24  1  0  0  0  0
 22 21  1  0  0  0  0
 24 27  1  0  0  0  0
 25 27  1  0  0  0  0
 25 26  1  0  0  0  0
 27 26  1  0  0  0  0
 29 38  1  1  0  0  0
 30 28  1  6  0  0  0
 30 34  1  0  0  0  0
 30 31  1  0  0  0  0
 32 34  1  6  0  0  0
 32 33  1  0  0  0  0
 32 29  1  0  0  0  0
 33 31  1  6  0  0  0
 33 29  1  0  0  0  0
 35 36  1  0  0  0  0
 37 35  2  0  0  0  0
 38 35  1  0  0  0  0
 39 50  1  6  0  0  0
 39 40  1  0  0  0  0
 41 36  1  6  0  0  0
 41 43  1  0  0  0  0
 42 44  1  6  0  0  0
 42 41  1  0  0  0  0
 42 39  1  0  0  0  0
 43 40  1  0  0  0  0
 45 47  2  0  0  0  0
 45 48  1  0  0  0  0
 46 44  2  0  0  0  0
 47 46  1  0  0  0  0
 48 49  2  0  0  0  0
 49 44  1  0  0  0  0
 50 53  1  0  0  0  0
 51 53  1  0  0  0  0
 53 52  2  0  0  0  0
M  END
>  <MODEL>
6

>  <REMARK>
 VINA RESULT:      -7.4      2.947      9.948
  Name = 
  17 active torsions:
  status: ('A' for Active; 'I' for Inactive)
    1  A    between atoms: C_1  and  N_37
    2  A    between atoms: C_5  and  C_7
    3  A    between atoms: O_6  and  C_9
    4  A    between atoms: O_6  and  C_51
    5  A    between atoms: C_7  and  N_43
    6  A    between atoms: C_7  and  S_44
    7  A    between atoms: C_8  and  C_36
    8  A    between atoms: C_10  and  C_17
    9  A    between atoms: C_12  and  C_42
   10  A    between atoms: N_15  and  C_38
   11  A    between atoms: N_15  and  C_45
   12  A    between atoms: C_23  and  C_29
   13  A    between atoms: N_25  and  C_39
   14  A    between atoms: C_29  and  S_44
   15  A    between atoms: C_30  and  N_43
   16  A    between atoms: C_30  and  C_45
   17  A    between atoms: C_36  and  C_49
                            x       y       z     vdW  Elec       q    Type
                         _______ _______ _______ _____ _____    ______ ____

>  <TORSDO>
F 17

$$$$
=
 OpenBabel11032420323D

 53 60  0  0  1  0  0  0  0  0999 V2000
  187.9410  177.6040  145.1210 C   0  0  0  0  0  0  0  0  0  0  0  0
  188.5100  177.6280  143.9480 N   0  0  0  0  0  0  0  0  0  0  0  0
  185.8800  178.8720  141.8510 C   0  0  0  0  0  3  0  0  0  0  0  0
  185.2470  178.4700  142.9620 C   0  0  0  0  0  0  0  0  0  0  0  0
  186.4640  177.7780  145.0690 C   0  0  0  0  0  3  0  0  0  0  0  0
  187.4100  177.7130  143.0650 C   0  0  0  0  0  0  0  0  0  0  0  0
  186.2030  177.7450  143.7740 C   0  0  0  0  0  0  0  0  0  0  0  0
  187.2840  178.4110  141.9470 C   0  0  0  0  0  0  0  0  0  0  0  0
  189.3290  177.7860  148.4140 O   0  0  0  0  0  0  0  0  0  0  0  0
  190.2840  177.1210  147.8320 N   0  0  0  0  0  0  0  0  0  0  0  0
  188.7100  177.5350  146.3680 C   0  0  0  0  0  0  0  0  0  0  0  0
  188.3490  178.0670  147.5870 C   0  0  0  0  0  3  0  0  0  0  0  0
  189.9420  176.9410  146.5440 C   0  0  0  0  0  3  0  0  0  0  0  0
  183.8300  178.7630  143.3200 C   0  0  0  0  0  2  0  0  0  0  0  0
  182.8080  179.0430  141.8320 S   0  0  0  0  0  0  0  0  0  0  0  0
  181.2550  178.3120  142.4700 C   0  0  1  0  0  3  0  0  0  0  0  0
  180.1760  178.0390  144.5500 O   0  0  0  0  0  0  0  0  0  0  0  0
  181.1920  178.3680  143.9620 C   0  0  0  0  0  3  0  0  0  0  0  0
  180.0880  178.9580  141.8900 N   0  0  0  0  0  2  0  0  0  0  0  0
  179.8640  180.5120  140.1780 O   0  0  0  0  0  1  0  0  0  0  0  0
  180.4150  179.2730  140.5070 C   0  0  2  0  0  3  0  0  0  0  0  0
  179.8630  178.2000  139.5740 C   0  0  2  0  0  3  0  0  0  0  0  0
  179.1210  177.2710  140.3080 O   0  0  0  0  0  1  0  0  0  0  0  0
  180.9600  177.5170  138.9060 N   0  0  0  0  0  2  0  0  0  0  0  0
  183.0890  177.9720  137.8450 C   0  0  0  0  0  2  0  0  0  0  0  0
  182.0120  178.0180  136.7830 C   0  0  0  0  0  2  0  0  0  0  0  0
  181.7180  178.5240  138.1810 C   0  0  0  0  0  3  0  0  0  0  0  0
  188.4110  178.8870  141.0920 C   0  0  0  0  0  2  0  0  0  0  0  0
  190.4020  176.9100  138.2710 C   0  0  2  0  0  3  0  0  0  0  0  0
  188.2290  178.4220  139.6570 C   0  0  1  0  0  3  0  0  0  0  0  0
  189.2750  179.0640  138.7820 C   0  0  0  0  0  2  0  0  0  0  0  0
  188.8910  176.7780  138.2750 C   0  0  2  0  0  3  0  0  0  0  0  0
  189.5380  178.0330  137.7250 C   0  0  2  0  0  3  0  0  0  0  0  0
  188.3980  177.0310  139.5680 O   0  0  0  0  0  0  0  0  0  0  0  0
  191.7200  174.9550  137.3840 C   0  0  0  0  0  0  0  0  0  0  0  0
  192.1690  174.1990  136.2590 N   0  0  0  0  0  2  0  0  0  0  0  0
  191.9970  174.5790  138.5560 O   0  0  0  0  0  0  0  0  0  0  0  0
  190.9480  176.1360  137.1690 N   0  0  0  0  0  2  0  0  0  0  0  0
  194.5190  171.7650  134.9980 C   0  0  1  0  0  3  0  0  0  0  0  0
  193.1300  171.2910  134.6140 C   0  0  0  0  0  2  0  0  0  0  0  0
  192.9120  172.9550  136.3950 C   0  0  2  0  0  3  0  0  0  0  0  0
  194.2580  173.0860  135.7040 C   0  0  1  0  0  3  0  0  0  0  0  0
  192.1840  171.8270  135.6760 C   0  0  0  0  0  2  0  0  0  0  0  0
  195.3650  173.5440  136.6090 C   0  0  0  0  0  0  0  0  0  0  0  0
  197.4810  174.3790  138.2450 C   0  0  0  0  0  3  0  0  0  0  0  0
  195.2630  173.4390  138.0050 C   0  0  0  0  0  3  0  0  0  0  0  0
  196.3180  173.8570  138.8200 C   0  0  0  0  0  3  0  0  0  0  0  0
  197.5890  174.4800  136.8550 C   0  0  0  0  0  3  0  0  0  0  0  0
  196.5340  174.0610  136.0390 C   0  0  0  0  0  3  0  0  0  0  0  0
  195.1090  170.8220  135.8880 O   0  0  0  0  0  0  0  0  0  0  0  0
  197.4260  170.4260  136.7060 C   0  0  0  0  0  1  0  0  0  0  0  0
  196.6340  169.6450  134.6070 O   0  0  0  0  0  0  0  0  0  0  0  0
  196.3740  170.2700  135.6690 C   0  0  0  0  0  0  0  0  0  0  0  0
  1 11  1  0  0  0  0
  2  1  2  0  0  0  0
  3  8  1  0  0  0  0
  3  4  2  0  0  0  0
  4 14  1  0  0  0  0
  4  7  1  0  0  0  0
  5  1  1  0  0  0  0
  6  7  1  0  0  0  0
  6  2  1  0  0  0  0
  7  5  2  0  0  0  0
  8  6  2  0  0  0  0
 10  9  1  0  0  0  0
 11 13  1  0  0  0  0
 11 12  2  0  0  0  0
 12  9  1  0  0  0  0
 13 10  2  0  0  0  0
 15 16  1  0  0  0  0
 15 14  1  0  0  0  0
 16 18  1  1  0  0  0
 18 17  2  0  0  0  0
 19 16  1  0  0  0  0
 21 20  1  6  0  0  0
 21 19  1  0  0  0  0
 22 23  1  1  0  0  0
 22 21  1  0  0  0  0
 24 22  1  0  0  0  0
 25 27  1  0  0  0  0
 26 25  1  0  0  0  0
 26 27  1  0  0  0  0
 27 24  1  0  0  0  0
 28  8  1  0  0  0  0
 29 38  1  6  0  0  0
 29 32  1  0  0  0  0
 30 28  1  1  0  0  0
 31 30  1  0  0  0  0
 32 34  1  1  0  0  0
 33 29  1  0  0  0  0
 33 32  1  0  0  0  0
 33 31  1  1  0  0  0
 34 30  1  0  0  0  0
 35 37  2  0  0  0  0
 36 35  1  0  0  0  0
 38 35  1  0  0  0  0
 39 42  1  0  0  0  0
 39 50  1  1  0  0  0
 40 39  1  0  0  0  0
 40 43  1  0  0  0  0
 41 36  1  6  0  0  0
 42 41  1  0  0  0  0
 42 44  1  1  0  0  0
 43 41  1  0  0  0  0
 44 46  1  0  0  0  0
 45 47  1  0  0  0  0
 46 47  2  0  0  0  0
 48 45  2  0  0  0  0
 49 44  2  0  0  0  0
 49 48  1  0  0  0  0
 52 53  2  0  0  0  0
 53 50  1  0  0  0  0
 53 51  1  0  0  0  0
M  END
>  <MODEL>
7

>  <REMARK>
 VINA RESULT:      -7.3      4.150     10.792
  Name = 
  17 active torsions:
  status: ('A' for Active; 'I' for Inactive)
    1  A    between atoms: C_1  and  N_37
    2  A    between atoms: C_5  and  C_7
    3  A    between atoms: O_6  and  C_9
    4  A    between atoms: O_6  and  C_51
    5  A    between atoms: C_7  and  N_43
    6  A    between atoms: C_7  and  S_44
    7  A    between atoms: C_8  and  C_36
    8  A    between atoms: C_10  and  C_17
    9  A    between atoms: C_12  and  C_42
   10  A    between atoms: N_15  and  C_38
   11  A    between atoms: N_15  and  C_45
   12  A    between atoms: C_23  and  C_29
   13  A    between atoms: N_25  and  C_39
   14  A    between atoms: C_29  and  S_44
   15  A    between atoms: C_30  and  N_43
   16  A    between atoms: C_30  and  C_45
   17  A    between atoms: C_36  and  C_49
                            x       y       z     vdW  Elec       q    Type
                         _______ _______ _______ _____ _____    ______ ____

>  <TORSDO>
F 17

$$$$
=
 OpenBabel11032420323D

 53 60  0  0  1  0  0  0  0  0999 V2000
  190.4550  177.0180  146.5650 C   0  0  0  0  0  0  0  0  0  0  0  0
  189.3400  177.5500  146.9810 N   0  0  0  0  0  0  0  0  0  0  0  0
  187.2080  177.1880  144.1200 C   0  0  0  0  0  3  0  0  0  0  0  0
  188.4430  177.0190  143.6280 C   0  0  0  0  0  0  0  0  0  0  0  0
  190.4920  176.7900  145.0940 C   0  0  0  0  0  3  0  0  0  0  0  0
  188.6360  177.7910  145.7790 C   0  0  0  0  0  0  0  0  0  0  0  0
  189.3840  177.3720  144.6720 C   0  0  0  0  0  0  0  0  0  0  0  0
  187.3450  177.6500  145.5200 C   0  0  0  0  0  0  0  0  0  0  0  0
  192.9700  175.3770  148.5100 O   0  0  0  0  0  0  0  0  0  0  0  0
  193.0060  176.5450  149.0830 N   0  0  0  0  0  0  0  0  0  0  0  0
  191.5110  176.5820  147.4840 C   0  0  0  0  0  0  0  0  0  0  0  0
  192.0890  175.3320  147.5380 C   0  0  0  0  0  3  0  0  0  0  0  0
  192.1050  177.3360  148.4740 C   0  0  0  0  0  3  0  0  0  0  0  0
  188.7860  176.5060  142.2710 C   0  0  0  0  0  2  0  0  0  0  0  0
  190.1980  177.4160  141.5490 S   0  0  0  0  0  0  0  0  0  0  0  0
  189.6880  177.2910  139.7950 C   0  0  1  0  0  3  0  0  0  0  0  0
  188.5940  178.9020  138.4650 O   0  0  0  0  0  0  0  0  0  0  0  0
  188.5670  178.2260  139.4790 C   0  0  0  0  0  3  0  0  0  0  0  0
  190.8100  177.5240  138.8990 N   0  0  0  0  0  2  0  0  0  0  0  0
  192.7890  177.5020  140.1150 O   0  0  0  0  0  1  0  0  0  0  0  0
  191.9160  176.7060  139.3740 C   0  0  2  0  0  3  0  0  0  0  0  0
  192.6590  176.0850  138.1960 C   0  0  2  0  0  3  0  0  0  0  0  0
  193.5740  177.0040  137.6760 O   0  0  0  0  0  1  0  0  0  0  0  0
  191.7110  175.7120  137.1580 N   0  0  0  0  0  2  0  0  0  0  0  0
  191.3240  173.7200  135.8360 C   0  0  0  0  0  2  0  0  0  0  0  0
  192.6740  173.5880  136.5070 C   0  0  0  0  0  2  0  0  0  0  0  0
  191.5320  174.2710  137.2330 C   0  0  0  0  0  3  0  0  0  0  0  0
  186.2510  177.6730  146.5350 C   0  0  0  0  0  2  0  0  0  0  0  0
  184.4970  178.9140  143.1870 C   0  0  2  0  0  3  0  0  0  0  0  0
  185.1280  178.5930  146.0900 C   0  0  1  0  0  3  0  0  0  0  0  0
  185.6880  179.6920  145.2230 C   0  0  0  0  0  2  0  0  0  0  0  0
  183.6310  178.8170  144.4280 C   0  0  2  0  0  3  0  0  0  0  0  0
  184.5790  179.9870  144.2580 C   0  0  2  0  0  3  0  0  0  0  0  0
  184.1900  177.8850  145.3220 O   0  0  0  0  0  0  0  0  0  0  0  0
  182.9100  178.5120  141.2710 C   0  0  0  0  0  0  0  0  0  0  0  0
  182.0850  179.0540  140.2390 N   0  0  0  0  0  2  0  0  0  0  0  0
  182.9430  177.2670  141.4730 O   0  0  0  0  0  0  0  0  0  0  0  0
  183.6910  179.3940  142.0770 N   0  0  0  0  0  2  0  0  0  0  0  0
  180.5090  178.2980  137.0800 C   0  0  1  0  0  3  0  0  0  0  0  0
  179.5260  179.1220  137.8880 C   0  0  0  0  0  2  0  0  0  0  0  0
  181.2180  178.2280  139.4130 C   0  0  2  0  0  3  0  0  0  0  0  0
  181.7300  178.2200  137.9840 C   0  0  1  0  0  3  0  0  0  0  0  0
  179.8210  178.8320  139.3500 C   0  0  0  0  0  2  0  0  0  0  0  0
  182.6660  177.0870  137.6790 C   0  0  0  0  0  0  0  0  0  0  0  0
  184.4160  174.9940  137.0380 C   0  0  0  0  0  3  0  0  0  0  0  0
  182.5840  175.8630  138.3610 C   0  0  0  0  0  3  0  0  0  0  0  0
  183.4590  174.8200  138.0420 C   0  0  0  0  0  3  0  0  0  0  0  0
  184.4970  176.2090  136.3520 C   0  0  0  0  0  3  0  0  0  0  0  0
  183.6220  177.2520  136.6710 C   0  0  0  0  0  3  0  0  0  0  0  0
  179.9630  177.0020  136.8520 O   0  0  0  0  0  0  0  0  0  0  0  0
  179.2040  175.1560  135.3650 C   0  0  0  0  0  1  0  0  0  0  0  0
  180.7860  176.7980  134.7000 O   0  0  0  0  0  0  0  0  0  0  0  0
  180.0320  176.3640  135.6110 C   0  0  0  0  0  0  0  0  0  0  0  0
  1  2  1  0  0  0  0
  1 11  1  0  0  0  0
  3  8  2  0  0  0  0
  4  3  1  0  0  0  0
  4  7  2  0  0  0  0
  5  1  2  0  0  0  0
  6  2  2  0  0  0  0
  7  5  1  0  0  0  0
  7  6  1  0  0  0  0
  8  6  1  0  0  0  0
  8 28  1  0  0  0  0
  9 10  1  0  0  0  0
 11 12  2  0  0  0  0
 11 13  1  0  0  0  0
 12  9  1  0  0  0  0
 13 10  2  0  0  0  0
 14  4  1  0  0  0  0
 15 14  1  0  0  0  0
 16 18  1  6  0  0  0
 16 15  1  0  0  0  0
 17 18  2  0  0  0  0
 19 21  1  0  0  0  0
 19 16  1  0  0  0  0
 21 20  1  6  0  0  0
 22 23  1  6  0  0  0
 22 21  1  0  0  0  0
 24 27  1  0  0  0  0
 24 22  1  0  0  0  0
 25 26  1  0  0  0  0
 25 27  1  0  0  0  0
 26 27  1  0  0  0  0
 29 38  1  6  0  0  0
 29 33  1  0  0  0  0
 29 32  1  0  0  0  0
 30 28  1  6  0  0  0
 31 30  1  0  0  0  0
 32 34  1  1  0  0  0
 33 32  1  0  0  0  0
 33 31  1  1  0  0  0
 34 30  1  0  0  0  0
 35 37  2  0  0  0  0
 35 38  1  0  0  0  0
 36 35  1  0  0  0  0
 39 50  1  1  0  0  0
 39 40  1  0  0  0  0
 39 42  1  0  0  0  0
 40 43  1  0  0  0  0
 41 36  1  1  0  0  0
 42 44  1  6  0  0  0
 42 41  1  0  0  0  0
 43 41  1  0  0  0  0
 44 46  1  0  0  0  0
 45 47  1  0  0  0  0
 47 46  2  0  0  0  0
 48 49  1  0  0  0  0
 48 45  2  0  0  0  0
 49 44  2  0  0  0  0
 51 53  1  0  0  0  0
 52 53  2  0  0  0  0
 53 50  1  0  0  0  0
M  END
>  <MODEL>
8

>  <REMARK>
 VINA RESULT:      -7.3      1.678      3.159
  Name = 
  17 active torsions:
  status: ('A' for Active; 'I' for Inactive)
    1  A    between atoms: C_1  and  N_37
    2  A    between atoms: C_5  and  C_7
    3  A    between atoms: O_6  and  C_9
    4  A    between atoms: O_6  and  C_51
    5  A    between atoms: C_7  and  N_43
    6  A    between atoms: C_7  and  S_44
    7  A    between atoms: C_8  and  C_36
    8  A    between atoms: C_10  and  C_17
    9  A    between atoms: C_12  and  C_42
   10  A    between atoms: N_15  and  C_38
   11  A    between atoms: N_15  and  C_45
   12  A    between atoms: C_23  and  C_29
   13  A    between atoms: N_25  and  C_39
   14  A    between atoms: C_29  and  S_44
   15  A    between atoms: C_30  and  N_43
   16  A    between atoms: C_30  and  C_45
   17  A    between atoms: C_36  and  C_49
                            x       y       z     vdW  Elec       q    Type
                         _______ _______ _______ _____ _____    ______ ____

>  <TORSDO>
F 17

$$$$
=
 OpenBabel11032420323D

 53 60  0  0  1  0  0  0  0  0999 V2000
  190.6340  174.9680  136.5940 C   0  0  0  0  0  0  0  0  0  0  0  0
  190.1620  175.8680  135.7770 N   0  0  0  0  0  0  0  0  0  0  0  0
  186.6270  175.2940  135.9720 C   0  0  0  0  0  3  0  0  0  0  0  0
  187.1660  174.1750  136.4750 C   0  0  0  0  0  0  0  0  0  0  0  0
  189.6310  173.9440  136.9940 C   0  0  0  0  0  3  0  0  0  0  0  0
  188.8500  175.4070  135.5230 C   0  0  0  0  0  0  0  0  0  0  0  0
  188.5930  174.2240  136.2280 C   0  0  0  0  0  0  0  0  0  0  0  0
  187.7280  176.0980  135.3940 C   0  0  0  0  0  0  0  0  0  0  0  0
  193.9580  174.5120  137.8390 O   0  0  0  0  0  0  0  0  0  0  0  0
  193.8310  175.7860  138.0740 N   0  0  0  0  0  0  0  0  0  0  0  0
  191.9890  175.0440  137.1510 C   0  0  0  0  0  0  0  0  0  0  0  0
  192.8820  174.0040  137.2830 C   0  0  0  0  0  3  0  0  0  0  0  0
  192.6080  176.1650  137.6610 C   0  0  0  0  0  3  0  0  0  0  0  0
  186.4370  173.1000  137.2060 C   0  0  0  0  0  2  0  0  0  0  0  0
  185.3740  172.1280  136.0810 S   0  0  0  0  0  0  0  0  0  0  0  0
  183.7820  172.9240  136.5120 C   0  0  1  0  0  3  0  0  0  0  0  0
  182.9450  170.7220  136.6400 O   0  0  0  0  0  0  0  0  0  0  0  0
  182.7090  171.9130  136.7530 C   0  0  0  0  0  3  0  0  0  0  0  0
  183.9230  173.7990  137.6650 N   0  0  0  0  0  2  0  0  0  0  0  0
  183.9860  175.9920  136.9040 O   0  0  0  0  0  1  0  0  0  0  0  0
  183.1410  174.9960  137.3940 C   0  0  2  0  0  3  0  0  0  0  0  0
  182.4580  175.4810  138.6680 C   0  0  2  0  0  3  0  0  0  0  0  0
  181.2420  174.8150  138.8370 O   0  0  0  0  0  1  0  0  0  0  0  0
  182.2120  176.9120  138.5800 N   0  0  0  0  0  2  0  0  0  0  0  0
  183.2730  177.9100  140.5150 C   0  0  0  0  0  2  0  0  0  0  0  0
  182.2430  178.8840  139.9850 C   0  0  0  0  0  2  0  0  0  0  0  0
  181.9730  177.3940  139.9310 C   0  0  0  0  0  3  0  0  0  0  0  0
  187.6370  177.5360  135.0040 C   0  0  0  0  0  2  0  0  0  0  0  0
  189.4930  177.6710  138.5210 C   0  0  2  0  0  3  0  0  0  0  0  0
  187.7320  178.4300  136.2290 C   0  0  1  0  0  3  0  0  0  0  0  0
  187.2550  177.6730  137.4440 C   0  0  0  0  0  2  0  0  0  0  0  0
  189.1840  178.9950  137.8500 C   0  0  2  0  0  3  0  0  0  0  0  0
  188.0840  178.2330  138.5610 C   0  0  2  0  0  3  0  0  0  0  0  0
  189.0650  178.8040  136.4600 O   0  0  0  0  0  0  0  0  0  0  0  0
  189.7040  177.3280  141.0080 C   0  0  0  0  0  0  0  0  0  0  0  0
  190.4390  177.5560  142.2110 N   0  0  0  0  0  2  0  0  0  0  0  0
  188.6710  176.6040  141.0200 O   0  0  0  0  0  0  0  0  0  0  0  0
  190.1550  177.9200  139.7900 N   0  0  0  0  0  2  0  0  0  0  0  0
  189.9960  177.7220  145.7900 C   0  0  1  0  0  3  0  0  0  0  0  0
  191.3870  177.1770  145.5340 C   0  0  0  0  0  2  0  0  0  0  0  0
  190.0770  176.9430  143.4800 C   0  0  2  0  0  3  0  0  0  0  0  0
  189.4570  177.9870  144.3930 C   0  0  1  0  0  3  0  0  0  0  0  0
  191.3250  176.4510  144.2000 C   0  0  0  0  0  2  0  0  0  0  0  0
  187.9610  178.0640  144.3000 C   0  0  0  0  0  0  0  0  0  0  0  0
  185.1630  178.1860  144.2000 C   0  0  0  0  0  3  0  0  0  0  0  0
  187.2850  177.7990  143.1000 C   0  0  0  0  0  3  0  0  0  0  0  0
  185.8890  177.8620  143.0500 C   0  0  0  0  0  3  0  0  0  0  0  0
  185.8320  178.4460  145.4000 C   0  0  0  0  0  3  0  0  0  0  0  0
  187.2280  178.3820  145.4500 C   0  0  0  0  0  3  0  0  0  0  0  0
  189.2160  176.7320  146.4550 O   0  0  0  0  0  0  0  0  0  0  0  0
  189.0520  178.1500  148.4940 C   0  0  0  0  0  1  0  0  0  0  0  0
  188.0250  176.0160  148.3050 O   0  0  0  0  0  0  0  0  0  0  0  0
  188.7300  176.9030  147.7530 C   0  0  0  0  0  0  0  0  0  0  0  0
  1  5  1  0  0  0  0
  1 11  1  0  0  0  0
  2  1  2  0  0  0  0
  3  4  2  0  0  0  0
  4 14  1  0  0  0  0
  6  2  1  0  0  0  0
  6  7  1  0  0  0  0
  7  4  1  0  0  0  0
  7  5  2  0  0  0  0
  8  6  2  0  0  0  0
  8  3  1  0  0  0  0
  9 10  1  0  0  0  0
 11 12  2  0  0  0  0
 11 13  1  0  0  0  0
 12  9  1  0  0  0  0
 13 10  2  0  0  0  0
 15 16  1  0  0  0  0
 15 14  1  0  0  0  0
 16 18  1  1  0  0  0
 16 19  1  0  0  0  0
 17 18  2  0  0  0  0
 21 20  1  1  0  0  0
 21 19  1  0  0  0  0
 21 22  1  0  0  0  0
 22 23  1  6  0  0  0
 24 22  1  0  0  0  0
 24 27  1  0  0  0  0
 26 25  1  0  0  0  0
 27 26  1  0  0  0  0
 27 25  1  0  0  0  0
 28  8  1  0  0  0  0
 29 33  1  0  0  0  0
 29 38  1  1  0  0  0
 30 28  1  6  0  0  0
 30 34  1  0  0  0  0
 30 31  1  0  0  0  0
 32 34  1  6  0  0  0
 32 29  1  0  0  0  0
 32 33  1  0  0  0  0
 33 31  1  6  0  0  0
 35 37  2  0  0  0  0
 35 36  1  0  0  0  0
 38 35  1  0  0  0  0
 39 50  1  6  0  0  0
 40 39  1  0  0  0  0
 41 36  1  6  0  0  0
 41 43  1  0  0  0  0
 41 42  1  0  0  0  0
 42 44  1  1  0  0  0
 42 39  1  0  0  0  0
 43 40  1  0  0  0  0
 44 49  1  0  0  0  0
 45 48  1  0  0  0  0
 46 44  2  0  0  0  0
 47 46  1  0  0  0  0
 47 45  2  0  0  0  0
 48 49  2  0  0  0  0
 50 53  1  0  0  0  0
 53 52  2  0  0  0  0
 53 51  1  0  0  0  0
M  END
>  <MODEL>
9

>  <REMARK>
 VINA RESULT:      -7.0      3.096      9.538
  Name = 
  17 active torsions:
  status: ('A' for Active; 'I' for Inactive)
    1  A    between atoms: C_1  and  N_37
    2  A    between atoms: C_5  and  C_7
    3  A    between atoms: O_6  and  C_9
    4  A    between atoms: O_6  and  C_51
    5  A    between atoms: C_7  and  N_43
    6  A    between atoms: C_7  and  S_44
    7  A    between atoms: C_8  and  C_36
    8  A    between atoms: C_10  and  C_17
    9  A    between atoms: C_12  and  C_42
   10  A    between atoms: N_15  and  C_38
   11  A    between atoms: N_15  and  C_45
   12  A    between atoms: C_23  and  C_29
   13  A    between atoms: N_25  and  C_39
   14  A    between atoms: C_29  and  S_44
   15  A    between atoms: C_30  and  N_43
   16  A    between atoms: C_30  and  C_45
   17  A    between atoms: C_36  and  C_49
                            x       y       z     vdW  Elec       q    Type
                         _______ _______ _______ _____ _____    ______ ____

>  <TORSDO>
F 17

$$$$
