=
 OpenBabel11042413033D

 40 45  0  0  1  0  0  0  0  0999 V2000
  182.7790  178.3160  140.2900 C   0  0  2  0  0  0  0  0  0  0  0  0
  184.6230  178.9850  141.9430 O   0  0  0  0  0  0  0  0  0  0  0  0
  181.6920  178.1950  141.4000 C   0  0  1  0  0  3  0  0  0  0  0  0
  184.6870  179.7400  139.7950 O   0  0  0  0  0  0  0  0  0  0  0  0
  184.0740  179.0560  140.6540 C   0  0  0  0  0  0  0  0  0  0  0  0
  182.8610  178.9710  137.9810 C   0  0  1  0  0  3  0  0  0  0  0  0
  184.0150  178.2730  143.0140 C   0  0  2  0  0  3  0  0  0  0  0  0
  182.7750  179.0260  143.5130 C   0  0  0  0  0  2  0  0  0  0  0  0
  182.4120  177.7850  138.8590 C   0  0  1  0  0  0  0  0  0  0  0  0
  181.7710  179.3360  142.4040 C   0  0  0  0  0  2  0  0  0  0  0  0
  183.4140  177.6300  137.7040 C   0  0  0  0  0  2  0  0  0  0  0  0
  183.2000  176.9620  139.8720 C   0  0  0  0  0  2  0  0  0  0  0  0
  179.0340  175.7540  138.4100 N   0  0  0  0  0  0  0  0  0  0  0  0
  179.3270  176.8690  139.1210 C   0  0  0  0  0  0  0  0  0  0  0  0
  180.2260  177.9450  141.0070 C   0  0  2  0  0  3  0  0  0  0  0  0
  178.9310  178.2710  138.8940 C   0  0  0  0  0  3  0  0  0  0  0  0
  180.0360  176.6970  140.2450 C   0  0  0  0  0  0  0  0  0  0  0  0
  180.3660  175.0680  140.4960 S   0  0  0  0  0  0  0  0  0  0  0  0
  179.4520  173.3520  138.5370 N   0  0  0  0  0  1  0  0  0  0  0  0
  179.6130  179.0150  140.0710 C   0  0  0  0  0  3  0  0  0  0  0  0
  179.5610  174.6770  139.0470 C   0  0  0  0  0  0  0  0  0  0  0  0
  180.2970  179.2880  135.4480 N   0  0  0  0  0  0  0  0  0  0  0  0
  181.7470  179.3510  137.0560 C   0  0  0  0  0  0  0  0  0  0  0  0
  180.1300  180.4730  136.0740 C   0  0  0  0  0  2  0  0  0  0  0  0
  181.2760  178.6090  136.0370 N   0  0  0  0  0  0  0  0  0  0  0  0
  181.0440  180.5340  137.1030 C   0  0  0  0  0  0  0  0  0  0  0  0
  181.2800  181.6960  138.0090 C   0  0  0  0  0  2  0  0  0  0  0  0
  180.0200  182.5250  138.1500 C   0  0  0  0  0  1  0  0  0  0  0  0
  184.9750  178.0810  144.1140 N   0  0  0  0  0  0  0  0  0  0  0  0
  186.3780  178.1440  143.6720 C   0  0  0  0  0  2  0  0  0  0  0  0
  187.1780  176.9020  144.0200 C   0  0  0  0  0  2  0  0  0  0  0  0
  188.9520  177.3110  144.0890 S   0  0  0  0  0  0  0  0  0  0  0  0
  189.6970  177.2090  141.4260 C   0  0  0  0  0  1  0  0  0  0  0  0
  189.3840  176.3140  142.6150 C   0  0  1  0  0  3  0  0  0  0  0  0
  190.5000  175.4280  142.8970 N   0  0  0  0  0  2  0  0  0  0  0  0
  191.4420  176.1910  143.6930 C   0  0  0  0  0  1  0  0  0  0  0  0
  184.7430  178.9930  145.2460 C   0  0  0  0  0  2  0  0  0  0  0  0
  185.0560  178.3510  146.6010 C   0  0  0  0  0  2  0  0  0  0  0  0
  187.3280  178.0510  147.6030 C   0  0  0  0  0  1  0  0  0  0  0  0
  186.2240  179.0450  147.2850 C   0  0  0  0  0  2  0  0  0  0  0  0
  1 12  1  1  0  0  0
  1  5  1  0  0  0  0
  1  3  1  0  0  0  0
  2  7  1  0  0  0  0
  3 10  1  6  0  0  0
  4  5  2  0  0  0  0
  5  2  1  0  0  0  0
  6 23  1  6  0  0  0
  6  9  1  0  0  0  0
  7  8  1  0  0  0  0
  7 29  1  1  0  0  0
  9 11  1  1  0  0  0
  9 12  1  0  0  0  0
  9  1  1  0  0  0  0
 10  8  1  0  0  0  0
 11  6  1  0  0  0  0
 13 21  2  0  0  0  0
 13 14  1  0  0  0  0
 14 17  2  0  0  0  0
 15 20  1  6  0  0  0
 15  3  1  0  0  0  0
 16 14  1  0  0  0  0
 16 20  2  0  0  0  0
 17 18  1  0  0  0  0
 17 15  1  0  0  0  0
 19 21  1  0  0  0  0
 21 18  1  0  0  0  0
 22 25  2  0  0  0  0
 22 24  1  0  0  0  0
 23 26  2  0  0  0  0
 24 26  1  0  0  0  0
 25 23  1  0  0  0  0
 26 27  1  0  0  0  0
 27 28  1  0  0  0  0
 29 37  1  0  0  0  0
 30 31  1  0  0  0  0
 30 29  1  0  0  0  0
 31 32  1  0  0  0  0
 34 33  1  6  0  0  0
 34 35  1  0  0  0  0
 34 32  1  0  0  0  0
 35 36  1  0  0  0  0
 37 38  1  0  0  0  0
 38 40  1  0  0  0  0
 40 39  1  0  0  0  0
M  END
>  <MODEL>
1

>  <REMARK>
 VINA RESULT:      -6.8      0.000      0.000
  Name = 
  12 active torsions:
  status: ('A' for Active; 'I' for Inactive)
    1  A    between atoms: C_5  and  C_15
    2  A    between atoms: C_7  and  C_10
    3  A    between atoms: C_7  and  S_36
    4  A    between atoms: C_10  and  N_28
    5  A    between atoms: C_11  and  C_16
    6  A    between atoms: C_12  and  N_28
    7  A    between atoms: C_12  and  C_30
    8  A    between atoms: N_13  and  C_35
    9  A    between atoms: C_19  and  C_37
   10  A    between atoms: C_24  and  N_28
   11  A    between atoms: C_29  and  C_30
   12  A    between atoms: C_35  and  S_36
                            x       y       z     vdW  Elec       q    Type
                         _______ _______ _______ _____ _____    ______ ____

>  <TORSDO>
F 12

$$$$
=
 OpenBabel11042413033D

 40 45  0  0  1  0  0  0  0  0999 V2000
  182.9560  177.6830  139.1640 C   0  0  2  0  0  0  0  0  0  0  0  0
  183.8930  176.9430  136.8940 O   0  0  0  0  0  0  0  0  0  0  0  0
  184.3270  178.2350  139.6590 C   0  0  1  0  0  3  0  0  0  0  0  0
  181.7150  177.5800  137.0760 O   0  0  0  0  0  0  0  0  0  0  0  0
  182.8150  177.4070  137.6600 C   0  0  0  0  0  0  0  0  0  0  0  0
  180.6370  178.2390  139.4460 C   0  0  1  0  0  3  0  0  0  0  0  0
  185.1980  176.7360  137.4220 C   0  0  2  0  0  3  0  0  0  0  0  0
  185.8810  178.0840  137.6870 C   0  0  0  0  0  2  0  0  0  0  0  0
  181.7970  177.5760  140.2170 C   0  0  1  0  0  0  0  0  0  0  0  0
  185.0560  179.0150  138.5750 C   0  0  0  0  0  2  0  0  0  0  0  0
  180.4560  176.8690  139.9660 C   0  0  0  0  0  2  0  0  0  0  0  0
  182.6800  176.3940  139.8320 C   0  0  0  0  0  2  0  0  0  0  0  0
  185.9570  177.8650  144.0380 N   0  0  0  0  0  0  0  0  0  0  0  0
  185.0250  178.2480  143.1310 C   0  0  0  0  0  0  0  0  0  0  0  0
  184.4040  178.9980  140.9930 C   0  0  2  0  0  3  0  0  0  0  0  0
  183.5850  178.5100  143.3040 C   0  0  0  0  0  3  0  0  0  0  0  0
  185.4610  178.4930  141.8890 C   0  0  0  0  0  0  0  0  0  0  0  0
  187.1250  178.2740  141.7870 S   0  0  0  0  0  0  0  0  0  0  0  0
  188.3570  177.4230  144.1050 N   0  0  0  0  0  1  0  0  0  0  0  0
  183.1330  178.8980  141.8720 C   0  0  0  0  0  3  0  0  0  0  0  0
  187.1700  177.8210  143.4280 C   0  0  0  0  0  0  0  0  0  0  0  0
  178.9390  180.2420  141.9360 N   0  0  0  0  0  0  0  0  0  0  0  0
  180.0040  179.2850  140.3100 C   0  0  0  0  0  0  0  0  0  0  0  0
  179.2850  181.2190  141.0720 C   0  0  0  0  0  3  0  0  0  0  0  0
  179.3690  179.0700  141.4770 N   0  0  0  0  0  2  0  0  0  0  0  0
  179.9660  180.6320  140.0280 C   0  0  0  0  0  0  0  0  0  0  0  0
  180.4620  181.3170  138.7990 C   0  0  0  0  0  2  0  0  0  0  0  0
  181.9760  181.2800  138.7430 C   0  0  0  0  0  1  0  0  0  0  0  0
  186.0060  175.9250  136.4970 N   0  0  0  0  0  0  0  0  0  0  0  0
  187.4170  175.8230  136.9020 C   0  0  0  0  0  2  0  0  0  0  0  0
  188.3910  176.1810  135.7930 C   0  0  0  0  0  2  0  0  0  0  0  0
  189.6230  177.3700  136.4150 S   0  0  0  0  0  0  0  0  0  0  0  0
  191.0560  175.5860  137.9690 C   0  0  0  0  0  1  0  0  0  0  0  0
  189.8510  176.5130  138.0160 C   0  0  1  0  0  3  0  0  0  0  0  0
  189.9830  177.4680  139.1020 N   0  0  0  0  0  2  0  0  0  0  0  0
  189.2530  178.6560  138.6990 C   0  0  0  0  0  1  0  0  0  0  0  0
  185.4350  174.5890  136.2550 C   0  0  0  0  0  2  0  0  0  0  0  0
  186.0320  173.5140  137.1690 C   0  0  0  0  0  2  0  0  0  0  0  0
  183.8360  172.3470  136.8930 C   0  0  0  0  0  1  0  0  0  0  0  0
  184.9420  172.7150  137.8680 C   0  0  0  0  0  2  0  0  0  0  0  0
  1  3  1  0  0  0  0
  1 12  1  1  0  0  0
  1  9  1  0  0  0  0
  2  7  1  0  0  0  0
  2  5  1  0  0  0  0
  3 10  1  6  0  0  0
  3 15  1  0  0  0  0
  4  5  2  0  0  0  0
  5  1  1  0  0  0  0
  6 11  1  0  0  0  0
  6  9  1  0  0  0  0
  6 23  1  1  0  0  0
  7 29  1  6  0  0  0
  7  8  1  0  0  0  0
  8 10  1  0  0  0  0
  9 12  1  1  0  0  0
 11  9  1  0  0  0  0
 14 16  1  0  0  0  0
 14 13  1  0  0  0  0
 15 20  1  1  0  0  0
 15 17  1  0  0  0  0
 17 14  2  0  0  0  0
 18 17  1  0  0  0  0
 18 21  1  0  0  0  0
 20 16  2  0  0  0  0
 21 13  2  0  0  0  0
 21 19  1  0  0  0  0
 23 25  1  0  0  0  0
 24 22  2  0  0  0  0
 25 22  1  0  0  0  0
 26 23  2  0  0  0  0
 26 24  1  0  0  0  0
 27 26  1  0  0  0  0
 28 27  1  0  0  0  0
 29 30  1  0  0  0  0
 31 32  1  0  0  0  0
 31 30  1  0  0  0  0
 32 34  1  0  0  0  0
 34 33  1  6  0  0  0
 34 35  1  0  0  0  0
 36 35  1  0  0  0  0
 37 29  1  0  0  0  0
 37 38  1  0  0  0  0
 38 40  1  0  0  0  0
 39 40  1  0  0  0  0
M  END
>  <MODEL>
2

>  <REMARK>
 VINA RESULT:      -6.1      3.329      6.518
  Name = 
  12 active torsions:
  status: ('A' for Active; 'I' for Inactive)
    1  A    between atoms: C_5  and  C_15
    2  A    between atoms: C_7  and  C_10
    3  A    between atoms: C_7  and  S_36
    4  A    between atoms: C_10  and  N_28
    5  A    between atoms: C_11  and  C_16
    6  A    between atoms: C_12  and  N_28
    7  A    between atoms: C_12  and  C_30
    8  A    between atoms: N_13  and  C_35
    9  A    between atoms: C_19  and  C_37
   10  A    between atoms: C_24  and  N_28
   11  A    between atoms: C_29  and  C_30
   12  A    between atoms: C_35  and  S_36
                            x       y       z     vdW  Elec       q    Type
                         _______ _______ _______ _____ _____    ______ ____

>  <TORSDO>
F 12

$$$$
=
 OpenBabel11042413033D

 40 45  0  0  1  0  0  0  0  0999 V2000
  187.9790  178.0020  141.0720 C   0  0  2  0  0  0  0  0  0  0  0  0
  185.5570  178.5560  141.7090 O   0  0  0  0  0  0  0  0  0  0  0  0
  188.3270  177.4480  142.4870 C   0  0  1  0  0  3  0  0  0  0  0  0
  186.0730  177.9940  139.5630 O   0  0  0  0  0  0  0  0  0  0  0  0
  186.4920  178.1760  140.7350 C   0  0  0  0  0  0  0  0  0  0  0  0
  188.6070  177.5320  138.8030 C   0  0  1  0  0  3  0  0  0  0  0  0
  185.8910  178.7630  143.0760 C   0  0  2  0  0  3  0  0  0  0  0  0
  186.1600  177.4180  143.7640 C   0  0  0  0  0  2  0  0  0  0  0  0
  189.1660  178.2150  140.0680 C   0  0  1  0  0  0  0  0  0  0  0  0
  187.2150  176.5750  143.0490 C   0  0  0  0  0  2  0  0  0  0  0  0
  189.0460  178.9400  138.7180 C   0  0  0  0  0  2  0  0  0  0  0  0
  188.5820  179.3420  140.9120 C   0  0  0  0  0  2  0  0  0  0  0  0
  192.0040  177.4990  145.3940 N   0  0  0  0  0  0  0  0  0  0  0  0
  191.4480  177.3970  144.1620 C   0  0  0  0  0  0  0  0  0  0  0  0
  189.6910  176.7780  142.7290 C   0  0  2  0  0  3  0  0  0  0  0  0
  192.0360  177.6390  142.8320 C   0  0  0  0  0  3  0  0  0  0  0  0
  190.1850  176.9530  144.1070 C   0  0  0  0  0  0  0  0  0  0  0  0
  189.6100  176.6010  145.6480 S   0  0  0  0  0  0  0  0  0  0  0  0
  191.3600  177.1210  147.7180 N   0  0  0  0  0  1  0  0  0  0  0  0
  190.8520  177.3440  141.8750 C   0  0  0  0  0  3  0  0  0  0  0  0
  191.0920  177.1040  146.3200 C   0  0  0  0  0  0  0  0  0  0  0  0
  191.1720  175.0560  138.1810 N   0  0  0  0  0  0  0  0  0  0  0  0
  189.6220  176.5670  138.2730 C   0  0  0  0  0  0  0  0  0  0  0  0
  190.9080  175.4190  136.9080 C   0  0  0  0  0  3  0  0  0  0  0  0
  190.3980  175.7510  139.0100 N   0  0  0  0  0  2  0  0  0  0  0  0
  189.9220  176.3810  136.9430 C   0  0  0  0  0  0  0  0  0  0  0  0
  189.3770  177.1320  135.7750 C   0  0  0  0  0  2  0  0  0  0  0  0
  188.1420  176.4440  135.2280 C   0  0  0  0  0  1  0  0  0  0  0  0
  184.8100  179.4850  143.7670 N   0  0  0  0  0  0  0  0  0  0  0  0
  183.5560  179.5180  142.9970 C   0  0  0  0  0  2  0  0  0  0  0  0
  182.3870  178.8690  143.7170 C   0  0  0  0  0  2  0  0  0  0  0  0
  180.8990  178.9420  142.6680 S   0  0  0  0  0  0  0  0  0  0  0  0
  181.6800  177.4130  140.4990 C   0  0  0  0  0  1  0  0  0  0  0  0
  181.8280  178.8040  141.0970 C   0  0  1  0  0  3  0  0  0  0  0  0
  181.3970  179.8160  140.1480 N   0  0  0  0  0  2  0  0  0  0  0  0
  180.0180  180.1280  140.4750 C   0  0  0  0  0  1  0  0  0  0  0  0
  184.5700  178.9910  145.1330 C   0  0  0  0  0  2  0  0  0  0  0  0
  185.6430  179.4470  146.1270 C   0  0  0  0  0  2  0  0  0  0  0  0
  187.2060  178.3240  147.7260 C   0  0  0  0  0  1  0  0  0  0  0  0
  185.7560  178.4840  147.2990 C   0  0  0  0  0  2  0  0  0  0  0  0
  1 12  1  1  0  0  0
  1  3  1  0  0  0  0
  2  7  1  0  0  0  0
  3 15  1  0  0  0  0
  3 10  1  6  0  0  0
  4  5  2  0  0  0  0
  5  1  1  0  0  0  0
  5  2  1  0  0  0  0
  6 23  1  6  0  0  0
  6  9  1  0  0  0  0
  7  8  1  0  0  0  0
  7 29  1  1  0  0  0
  9 11  1  6  0  0  0
  9 12  1  0  0  0  0
  9  1  1  0  0  0  0
 10  8  1  0  0  0  0
 11  6  1  0  0  0  0
 13 21  2  0  0  0  0
 14 13  1  0  0  0  0
 15 20  1  6  0  0  0
 15 17  1  0  0  0  0
 16 14  1  0  0  0  0
 17 14  2  0  0  0  0
 17 18  1  0  0  0  0
 18 21  1  0  0  0  0
 20 16  2  0  0  0  0
 21 19  1  0  0  0  0
 22 25  1  0  0  0  0
 23 25  1  0  0  0  0
 24 26  1  0  0  0  0
 24 22  2  0  0  0  0
 26 23  2  0  0  0  0
 27 26  1  0  0  0  0
 28 27  1  0  0  0  0
 29 37  1  0  0  0  0
 30 31  1  0  0  0  0
 30 29  1  0  0  0  0
 32 31  1  0  0  0  0
 34 33  1  6  0  0  0
 34 32  1  0  0  0  0
 35 36  1  0  0  0  0
 35 34  1  0  0  0  0
 37 38  1  0  0  0  0
 38 40  1  0  0  0  0
 40 39  1  0  0  0  0
M  END
>  <MODEL>
3

>  <REMARK>
 VINA RESULT:      -5.4      2.800      8.704
  Name = 
  12 active torsions:
  status: ('A' for Active; 'I' for Inactive)
    1  A    between atoms: C_5  and  C_15
    2  A    between atoms: C_7  and  C_10
    3  A    between atoms: C_7  and  S_36
    4  A    between atoms: C_10  and  N_28
    5  A    between atoms: C_11  and  C_16
    6  A    between atoms: C_12  and  N_28
    7  A    between atoms: C_12  and  C_30
    8  A    between atoms: N_13  and  C_35
    9  A    between atoms: C_19  and  C_37
   10  A    between atoms: C_24  and  N_28
   11  A    between atoms: C_29  and  C_30
   12  A    between atoms: C_35  and  S_36
                            x       y       z     vdW  Elec       q    Type
                         _______ _______ _______ _____ _____    ______ ____

>  <TORSDO>
F 12

$$$$
=
 OpenBabel11042413033D

 40 45  0  0  1  0  0  0  0  0999 V2000
  182.9260  176.9900  138.1480 C   0  0  2  0  0  0  0  0  0  0  0  0
  185.2930  177.9720  138.2640 O   0  0  0  0  0  0  0  0  0  0  0  0
  182.3230  178.0800  139.0850 C   0  0  1  0  0  3  0  0  0  0  0  0
  184.6080  176.8630  136.3970 O   0  0  0  0  0  0  0  0  0  0  0  0
  184.3110  177.2700  137.5490 C   0  0  0  0  0  0  0  0  0  0  0  0
  182.1910  175.6990  136.2620 C   0  0  1  0  0  3  0  0  0  0  0  0
  185.0790  178.5140  139.5620 C   0  0  2  0  0  3  0  0  0  0  0  0
  184.1670  179.7450  139.4770 C   0  0  0  0  0  2  0  0  0  0  0  0
  182.0190  175.7590  137.7930 C   0  0  1  0  0  0  0  0  0  0  0  0
  182.8470  179.4710  138.7570 C   0  0  0  0  0  2  0  0  0  0  0  0
  182.5070  174.4990  137.0630 C   0  0  0  0  0  2  0  0  0  0  0  0
  183.0670  175.7260  138.9000 C   0  0  0  0  0  2  0  0  0  0  0  0
  179.0570  177.5220  142.4000 N   0  0  0  0  0  0  0  0  0  0  0  0
  179.5140  177.3940  141.1310 C   0  0  0  0  0  0  0  0  0  0  0  0
  180.8020  178.1350  139.3100 C   0  0  2  0  0  3  0  0  0  0  0  0
  179.1130  176.4540  140.0680 C   0  0  0  0  0  3  0  0  0  0  0  0
  180.4320  178.2830  140.7300 C   0  0  0  0  0  0  0  0  0  0  0  0
  180.7680  179.3860  141.9540 S   0  0  0  0  0  0  0  0  0  0  0  0
  179.4360  178.9630  144.3340 N   0  0  0  0  0  1  0  0  0  0  0  0
  180.0370  176.8550  138.8890 C   0  0  0  0  0  3  0  0  0  0  0  0
  179.6770  178.5800  142.9840 C   0  0  0  0  0  0  0  0  0  0  0  0
  179.0290  174.8700  134.7100 N   0  0  0  0  0  0  0  0  0  0  0  0
  180.8430  175.6360  135.6140 C   0  0  0  0  0  0  0  0  0  0  0  0
  178.9310  176.2160  134.6950 C   0  0  0  0  0  3  0  0  0  0  0  0
  180.1850  174.5150  135.2630 N   0  0  0  0  0  2  0  0  0  0  0  0
  180.0770  176.7250  135.2670 C   0  0  0  0  0  0  0  0  0  0  0  0
  180.4430  178.1670  135.3830 C   0  0  0  0  0  2  0  0  0  0  0  0
  179.1990  179.0330  135.3910 C   0  0  0  0  0  1  0  0  0  0  0  0
  186.3620  178.8680  140.1900 N   0  0  0  0  0  0  0  0  0  0  0  0
  186.2380  179.1600  141.6280 C   0  0  0  0  0  2  0  0  0  0  0  0
  185.6150  178.0260  142.4240 C   0  0  0  0  0  2  0  0  0  0  0  0
  185.3490  178.5560  144.1460 S   0  0  0  0  0  0  0  0  0  0  0  0
  187.3530  176.6900  143.7500 C   0  0  0  0  0  1  0  0  0  0  0  0
  186.5350  177.3520  144.8490 C   0  0  1  0  0  3  0  0  0  0  0  0
  187.4050  177.9870  145.8230 N   0  0  0  0  0  2  0  0  0  0  0  0
  188.7660  177.6960  145.4120 C   0  0  0  0  0  1  0  0  0  0  0  0
  187.4150  177.8680  139.9500 C   0  0  0  0  0  2  0  0  0  0  0  0
  188.7930  178.3260  140.4370 C   0  0  0  0  0  2  0  0  0  0  0  0
  190.8660  176.9600  140.1280 C   0  0  0  0  0  1  0  0  0  0  0  0
  189.8880  177.9150  139.4640 C   0  0  0  0  0  2  0  0  0  0  0  0
  1 12  1  1  0  0  0
  1  3  1  0  0  0  0
  2  7  1  0  0  0  0
  3 10  1  6  0  0  0
  3 15  1  0  0  0  0
  4  5  2  0  0  0  0
  5  1  1  0  0  0  0
  5  2  1  0  0  0  0
  6 23  1  6  0  0  0
  6 11  1  0  0  0  0
  6  9  1  0  0  0  0
  7 29  1  6  0  0  0
  8  7  1  0  0  0  0
  9 11  1  6  0  0  0
  9  1  1  0  0  0  0
  9 12  1  0  0  0  0
 10  8  1  0  0  0  0
 13 21  2  0  0  0  0
 14 13  1  0  0  0  0
 15 20  1  1  0  0  0
 15 17  1  0  0  0  0
 16 14  1  0  0  0  0
 17 14  2  0  0  0  0
 17 18  1  0  0  0  0
 18 21  1  0  0  0  0
 20 16  2  0  0  0  0
 21 19  1  0  0  0  0
 22 25  1  0  0  0  0
 24 22  2  0  0  0  0
 24 26  1  0  0  0  0
 25 23  1  0  0  0  0
 26 27  1  0  0  0  0
 26 23  2  0  0  0  0
 27 28  1  0  0  0  0
 29 30  1  0  0  0  0
 30 31  1  0  0  0  0
 31 32  1  0  0  0  0
 32 34  1  0  0  0  0
 34 33  1  6  0  0  0
 34 35  1  0  0  0  0
 36 35  1  0  0  0  0
 37 29  1  0  0  0  0
 37 38  1  0  0  0  0
 40 39  1  0  0  0  0
 40 38  1  0  0  0  0
M  END
>  <MODEL>
4

>  <REMARK>
 VINA RESULT:      -5.2      2.729      4.400
  Name = 
  12 active torsions:
  status: ('A' for Active; 'I' for Inactive)
    1  A    between atoms: C_5  and  C_15
    2  A    between atoms: C_7  and  C_10
    3  A    between atoms: C_7  and  S_36
    4  A    between atoms: C_10  and  N_28
    5  A    between atoms: C_11  and  C_16
    6  A    between atoms: C_12  and  N_28
    7  A    between atoms: C_12  and  C_30
    8  A    between atoms: N_13  and  C_35
    9  A    between atoms: C_19  and  C_37
   10  A    between atoms: C_24  and  N_28
   11  A    between atoms: C_29  and  C_30
   12  A    between atoms: C_35  and  S_36
                            x       y       z     vdW  Elec       q    Type
                         _______ _______ _______ _____ _____    ______ ____

>  <TORSDO>
F 12

$$$$
=
 OpenBabel11042413033D

 40 45  0  0  1  0  0  0  0  0999 V2000
  182.6460  177.5920  137.8680 C   0  0  2  0  0  0  0  0  0  0  0  0
  185.0130  176.8130  137.2610 O   0  0  0  0  0  0  0  0  0  0  0  0
  181.9720  176.3030  137.3100 C   0  0  1  0  0  3  0  0  0  0  0  0
  184.6860  178.1810  139.0520 O   0  0  0  0  0  0  0  0  0  0  0  0
  184.1620  177.5460  138.1010 C   0  0  0  0  0  0  0  0  0  0  0  0
  182.2520  179.1380  139.6630 C   0  0  1  0  0  3  0  0  0  0  0  0
  184.5480  176.0270  136.1700 C   0  0  2  0  0  3  0  0  0  0  0  0
  183.8590  174.7590  136.6880 C   0  0  0  0  0  2  0  0  0  0  0  0
  181.7050  178.7840  138.2650 C   0  0  1  0  0  0  0  0  0  0  0  0
  182.7410  175.0450  137.6900 C   0  0  0  0  0  2  0  0  0  0  0  0
  182.1930  180.1940  138.6330 C   0  0  0  0  0  2  0  0  0  0  0  0
  182.4230  178.7060  136.9230 C   0  0  0  0  0  2  0  0  0  0  0  0
  178.9310  173.6360  139.6770 N   0  0  0  0  0  0  0  0  0  0  0  0
  179.3320  174.3070  138.5700 C   0  0  0  0  0  0  0  0  0  0  0  0
  180.4650  176.0770  137.5200 C   0  0  2  0  0  3  0  0  0  0  0  0
  178.9510  174.1200  137.1580 C   0  0  0  0  0  3  0  0  0  0  0  0
  180.1570  175.3440  138.7620 C   0  0  0  0  0  0  0  0  0  0  0  0
  180.4680  175.5630  140.3990 S   0  0  0  0  0  0  0  0  0  0  0  0
  179.2940  173.7230  142.0890 N   0  0  0  0  0  1  0  0  0  0  0  0
  179.7810  175.2120  136.4330 C   0  0  0  0  0  3  0  0  0  0  0  0
  179.4960  174.2140  140.7680 C   0  0  0  0  0  0  0  0  0  0  0  0
  179.1390  179.4840  141.4750 N   0  0  0  0  0  0  0  0  0  0  0  0
  181.1160  179.2020  140.6370 C   0  0  0  0  0  0  0  0  0  0  0  0
  179.9450  179.1290  142.4970 C   0  0  0  0  0  2  0  0  0  0  0  0
  179.8440  179.5320  140.3490 N   0  0  0  0  0  0  0  0  0  0  0  0
  181.2110  178.9430  141.9850 C   0  0  0  0  0  0  0  0  0  0  0  0
  182.4430  178.6280  142.7660 C   0  0  0  0  0  2  0  0  0  0  0  0
  182.2610  179.0050  144.2220 C   0  0  0  0  0  1  0  0  0  0  0  0
  185.6640  175.6760  135.2760 N   0  0  0  0  0  0  0  0  0  0  0  0
  186.4610  176.8430  134.8630 C   0  0  0  0  0  2  0  0  0  0  0  0
  187.8120  176.9270  135.5520 C   0  0  0  0  0  2  0  0  0  0  0  0
  187.9450  178.5010  136.4600 S   0  0  0  0  0  0  0  0  0  0  0  0
  189.0050  176.4610  137.9990 C   0  0  0  0  0  1  0  0  0  0  0  0
  188.1340  177.7040  138.0970 C   0  0  1  0  0  3  0  0  0  0  0  0
  188.6800  178.6360  139.0680 N   0  0  0  0  0  2  0  0  0  0  0  0
  188.6220  177.9720  140.3560 C   0  0  0  0  0  1  0  0  0  0  0  0
  186.5310  174.6220  135.8270 C   0  0  0  0  0  2  0  0  0  0  0  0
  186.6170  173.3890  134.9220 C   0  0  0  0  0  2  0  0  0  0  0  0
  187.7120  172.6240  137.0380 C   0  0  0  0  0  1  0  0  0  0  0  0
  187.3450  172.2450  135.6120 C   0  0  0  0  0  2  0  0  0  0  0  0
  1 12  1  6  0  0  0
  1  5  1  0  0  0  0
  1  9  1  0  0  0  0
  2  5  1  0  0  0  0
  3 15  1  0  0  0  0
  3 10  1  1  0  0  0
  3  1  1  0  0  0  0
  5  4  2  0  0  0  0
  6 23  1  1  0  0  0
  7 29  1  6  0  0  0
  7  8  1  0  0  0  0
  7  2  1  0  0  0  0
  8 10  1  0  0  0  0
  9 12  1  6  0  0  0
  9 11  1  0  0  0  0
  9  6  1  0  0  0  0
 11  6  1  0  0  0  0
 13 21  2  0  0  0  0
 14 17  2  0  0  0  0
 14 13  1  0  0  0  0
 15 20  1  6  0  0  0
 15 17  1  0  0  0  0
 16 14  1  0  0  0  0
 17 18  1  0  0  0  0
 18 21  1  0  0  0  0
 20 16  2  0  0  0  0
 21 19  1  0  0  0  0
 22 24  1  0  0  0  0
 23 26  2  0  0  0  0
 25 23  1  0  0  0  0
 25 22  2  0  0  0  0
 26 24  1  0  0  0  0
 26 27  1  0  0  0  0
 27 28  1  0  0  0  0
 29 37  1  0  0  0  0
 30 29  1  0  0  0  0
 30 31  1  0  0  0  0
 31 32  1  0  0  0  0
 32 34  1  0  0  0  0
 34 33  1  6  0  0  0
 34 35  1  0  0  0  0
 35 36  1  0  0  0  0
 38 40  1  0  0  0  0
 38 37  1  0  0  0  0
 40 39  1  0  0  0  0
M  END
>  <MODEL>
5

>  <REMARK>
 VINA RESULT:      -5.2      3.454      6.247
  Name = 
  12 active torsions:
  status: ('A' for Active; 'I' for Inactive)
    1  A    between atoms: C_5  and  C_15
    2  A    between atoms: C_7  and  C_10
    3  A    between atoms: C_7  and  S_36
    4  A    between atoms: C_10  and  N_28
    5  A    between atoms: C_11  and  C_16
    6  A    between atoms: C_12  and  N_28
    7  A    between atoms: C_12  and  C_30
    8  A    between atoms: N_13  and  C_35
    9  A    between atoms: C_19  and  C_37
   10  A    between atoms: C_24  and  N_28
   11  A    between atoms: C_29  and  C_30
   12  A    between atoms: C_35  and  S_36
                            x       y       z     vdW  Elec       q    Type
                         _______ _______ _______ _____ _____    ______ ____

>  <TORSDO>
F 12

$$$$
=
 OpenBabel11042413033D

 40 45  0  0  1  0  0  0  0  0999 V2000
  190.2760  177.8160  142.6540 C   0  0  2  0  0  0  0  0  0  0  0  0
  191.0990  177.7750  140.2250 O   0  0  0  0  0  0  0  0  0  0  0  0
  188.9060  177.1610  142.3030 C   0  0  1  0  0  3  0  0  0  0  0  0
  192.5920  177.6200  141.9380 O   0  0  0  0  0  0  0  0  0  0  0  0
  191.3860  177.7270  141.5960 C   0  0  0  0  0  0  0  0  0  0  0  0
  191.8090  177.7890  144.5020 C   0  0  1  0  0  3  0  0  0  0  0  0
  189.7780  177.8630  139.7030 C   0  0  2  0  0  3  0  0  0  0  0  0
  189.0530  176.5210  139.8750 C   0  0  0  0  0  2  0  0  0  0  0  0
  190.4500  178.3970  144.1010 C   0  0  1  0  0  0  0  0  0  0  0  0
  189.0560  176.0130  141.3150 C   0  0  0  0  0  2  0  0  0  0  0  0
  191.6400  179.2540  144.5590 C   0  0  0  0  0  2  0  0  0  0  0  0
  190.0770  179.2590  142.9000 C   0  0  0  0  0  2  0  0  0  0  0  0
  185.5390  178.8740  145.0770 N   0  0  0  0  0  0  0  0  0  0  0  0
  186.6200  178.0910  144.8440 C   0  0  0  0  0  0  0  0  0  0  0  0
  187.9430  176.7570  143.4330 C   0  0  2  0  0  3  0  0  0  0  0  0
  187.6190  177.5470  145.7830 C   0  0  0  0  0  3  0  0  0  0  0  0
  186.8040  177.6820  143.5820 C   0  0  0  0  0  0  0  0  0  0  0  0
  185.5770  178.2530  142.5850 S   0  0  0  0  0  0  0  0  0  0  0  0
  183.7020  179.8650  143.8110 N   0  0  0  0  0  1  0  0  0  0  0  0
  188.5690  176.7530  144.8490 C   0  0  0  0  0  3  0  0  0  0  0  0
  184.8730  179.0610  143.9090 C   0  0  0  0  0  0  0  0  0  0  0  0
  191.3340  176.8190  147.9550 N   0  0  0  0  0  0  0  0  0  0  0  0
  191.6810  177.1290  145.8390 C   0  0  0  0  0  0  0  0  0  0  0  0
  191.6990  175.6250  147.4440 C   0  0  0  0  0  2  0  0  0  0  0  0
  191.3260  177.7320  146.9890 N   0  0  0  0  0  0  0  0  0  0  0  0
  191.9250  175.7990  146.0950 C   0  0  0  0  0  0  0  0  0  0  0  0
  192.4300  174.7680  145.1430 C   0  0  0  0  0  2  0  0  0  0  0  0
  191.4940  174.6310  143.9590 C   0  0  0  0  0  1  0  0  0  0  0  0
  189.8090  178.2510  138.2840 N   0  0  0  0  0  0  0  0  0  0  0  0
  190.1570  177.1360  137.3890 C   0  0  0  0  0  2  0  0  0  0  0  0
  191.6260  176.7520  137.4440 C   0  0  0  0  0  2  0  0  0  0  0  0
  191.7840  174.9430  137.5930 S   0  0  0  0  0  0  0  0  0  0  0  0
  193.7780  175.8110  135.8830 C   0  0  0  0  0  1  0  0  0  0  0  0
  193.5440  174.9140  137.0890 C   0  0  1  0  0  3  0  0  0  0  0  0
  194.4070  175.3020  138.1900 N   0  0  0  0  0  2  0  0  0  0  0  0
  195.3350  174.2060  138.3940 C   0  0  0  0  0  1  0  0  0  0  0  0
  188.5690  178.9090  137.8410 C   0  0  0  0  0  2  0  0  0  0  0  0
  187.9240  178.2120  136.6390 C   0  0  0  0  0  2  0  0  0  0  0  0
  186.0790  178.2530  138.3280 C   0  0  0  0  0  1  0  0  0  0  0  0
  186.5090  177.7540  136.9590 C   0  0  0  0  0  2  0  0  0  0  0  0
  1 12  1  6  0  0  0
  1  9  1  0  0  0  0
  2  5  1  0  0  0  0
  3 10  1  1  0  0  0
  3  1  1  0  0  0  0
  3 15  1  0  0  0  0
  5  4  2  0  0  0  0
  5  1  1  0  0  0  0
  6 11  1  0  0  0  0
  6 23  1  1  0  0  0
  7 29  1  6  0  0  0
  7  8  1  0  0  0  0
  7  2  1  0  0  0  0
  8 10  1  0  0  0  0
  9 12  1  1  0  0  0
  9  6  1  0  0  0  0
  9 11  1  0  0  0  0
 14 13  1  0  0  0  0
 14 16  1  0  0  0  0
 15 17  1  0  0  0  0
 15 20  1  1  0  0  0
 17 14  2  0  0  0  0
 18 17  1  0  0  0  0
 18 21  1  0  0  0  0
 19 21  1  0  0  0  0
 20 16  2  0  0  0  0
 21 13  2  0  0  0  0
 23 26  2  0  0  0  0
 23 25  1  0  0  0  0
 24 22  1  0  0  0  0
 25 22  2  0  0  0  0
 26 24  1  0  0  0  0
 27 26  1  0  0  0  0
 28 27  1  0  0  0  0
 30 31  1  0  0  0  0
 30 29  1  0  0  0  0
 31 32  1  0  0  0  0
 34 33  1  6  0  0  0
 34 32  1  0  0  0  0
 34 35  1  0  0  0  0
 35 36  1  0  0  0  0
 37 29  1  0  0  0  0
 38 40  1  0  0  0  0
 38 37  1  0  0  0  0
 40 39  1  0  0  0  0
M  END
>  <MODEL>
6

>  <REMARK>
 VINA RESULT:      -5.1      5.168     10.037
  Name = 
  12 active torsions:
  status: ('A' for Active; 'I' for Inactive)
    1  A    between atoms: C_5  and  C_15
    2  A    between atoms: C_7  and  C_10
    3  A    between atoms: C_7  and  S_36
    4  A    between atoms: C_10  and  N_28
    5  A    between atoms: C_11  and  C_16
    6  A    between atoms: C_12  and  N_28
    7  A    between atoms: C_12  and  C_30
    8  A    between atoms: N_13  and  C_35
    9  A    between atoms: C_19  and  C_37
   10  A    between atoms: C_24  and  N_28
   11  A    between atoms: C_29  and  C_30
   12  A    between atoms: C_35  and  S_36
                            x       y       z     vdW  Elec       q    Type
                         _______ _______ _______ _____ _____    ______ ____

>  <TORSDO>
F 12

$$$$
=
 OpenBabel11042413033D

 40 45  0  0  1  0  0  0  0  0999 V2000
  184.6700  174.5700  136.8690 C   0  0  2  0  0  0  0  0  0  0  0  0
  186.9510  175.4730  136.1220 O   0  0  0  0  0  0  0  0  0  0  0  0
  184.2150  175.9350  137.4660 C   0  0  1  0  0  3  0  0  0  0  0  0
  185.9560  173.7880  134.9590 O   0  0  0  0  0  0  0  0  0  0  0  0
  185.8830  174.5860  135.9280 C   0  0  0  0  0  0  0  0  0  0  0  0
  183.6320  172.7080  135.7640 C   0  0  1  0  0  3  0  0  0  0  0  0
  186.9820  176.4480  137.1590 C   0  0  2  0  0  3  0  0  0  0  0  0
  186.0060  177.5880  136.8410 C   0  0  0  0  0  2  0  0  0  0  0  0
  183.7780  173.3150  137.1740 C   0  0  1  0  0  0  0  0  0  0  0  0
  184.5830  177.1050  136.5650 C   0  0  0  0  0  2  0  0  0  0  0  0
  184.1730  171.8660  136.8490 C   0  0  0  0  0  2  0  0  0  0  0  0
  185.0340  173.6540  137.9700 C   0  0  0  0  0  2  0  0  0  0  0  0
  181.0310  179.2020  138.5400 N   0  0  0  0  0  0  0  0  0  0  0  0
  181.6540  178.0170  138.7510 C   0  0  0  0  0  0  0  0  0  0  0  0
  182.7740  176.1020  137.9780 C   0  0  2  0  0  3  0  0  0  0  0  0
  181.7770  177.2160  139.9820 C   0  0  0  0  0  3  0  0  0  0  0  0
  182.2040  177.4290  137.6800 C   0  0  0  0  0  0  0  0  0  0  0  0
  181.9400  178.3450  136.2950 S   0  0  0  0  0  0  0  0  0  0  0  0
  180.5890  180.7210  136.6800 N   0  0  0  0  0  1  0  0  0  0  0  0
  182.6150  175.9970  139.5140 C   0  0  0  0  0  3  0  0  0  0  0  0
  181.1220  179.5170  137.2220 C   0  0  0  0  0  0  0  0  0  0  0  0
  180.2760  171.4430  135.2840 N   0  0  0  0  0  0  0  0  0  0  0  0
  182.1840  172.4490  135.4850 C   0  0  0  0  0  0  0  0  0  0  0  0
  180.0850  172.7190  134.8860 C   0  0  0  0  0  3  0  0  0  0  0  0
  181.5450  171.2750  135.6430 N   0  0  0  0  0  2  0  0  0  0  0  0
  181.2890  173.3790  135.0070 C   0  0  0  0  0  0  0  0  0  0  0  0
  181.5710  174.7860  134.6000 C   0  0  0  0  0  2  0  0  0  0  0  0
  180.3060  175.6190  134.6530 C   0  0  0  0  0  1  0  0  0  0  0  0
  188.3460  176.9730  137.3310 N   0  0  0  0  0  0  0  0  0  0  0  0
  188.4780  177.8620  138.4970 C   0  0  0  0  0  2  0  0  0  0  0  0
  188.6750  177.1170  139.8060 C   0  0  0  0  0  2  0  0  0  0  0  0
  190.2850  177.5620  140.5320 S   0  0  0  0  0  0  0  0  0  0  0  0
  190.4160  178.2230  143.2150 C   0  0  0  0  0  1  0  0  0  0  0  0
  189.7560  177.2450  142.2550 C   0  0  1  0  0  3  0  0  0  0  0  0
  188.3100  177.3090  142.3750 N   0  0  0  0  0  2  0  0  0  0  0  0
  187.9430  176.4040  143.4470 C   0  0  0  0  0  1  0  0  0  0  0  0
  189.3700  175.9150  137.3640 C   0  0  0  0  0  2  0  0  0  0  0  0
  190.6030  176.2550  136.5210 C   0  0  0  0  0  2  0  0  0  0  0  0
  192.9860  175.5120  136.6970 C   0  0  0  0  0  1  0  0  0  0  0  0
  191.8630  176.2830  137.3720 C   0  0  0  0  0  2  0  0  0  0  0  0
  1  9  1  0  0  0  0
  1  3  1  0  0  0  0
  1 12  1  1  0  0  0
  2  7  1  0  0  0  0
  3 10  1  6  0  0  0
  3 15  1  0  0  0  0
  4  5  2  0  0  0  0
  5  2  1  0  0  0  0
  5  1  1  0  0  0  0
  6 23  1  1  0  0  0
  6 11  1  0  0  0  0
  6  9  1  0  0  0  0
  7 29  1  6  0  0  0
  8  7  1  0  0  0  0
  9 11  1  6  0  0  0
  9 12  1  0  0  0  0
 10  8  1  0  0  0  0
 13 14  1  0  0  0  0
 14 16  1  0  0  0  0
 15 20  1  1  0  0  0
 17 15  1  0  0  0  0
 17 14  2  0  0  0  0
 18 21  1  0  0  0  0
 18 17  1  0  0  0  0
 19 21  1  0  0  0  0
 20 16  2  0  0  0  0
 21 13  2  0  0  0  0
 22 25  1  0  0  0  0
 23 25  1  0  0  0  0
 24 26  1  0  0  0  0
 24 22  2  0  0  0  0
 26 23  2  0  0  0  0
 27 28  1  0  0  0  0
 27 26  1  0  0  0  0
 29 37  1  0  0  0  0
 29 30  1  0  0  0  0
 30 31  1  0  0  0  0
 31 32  1  0  0  0  0
 32 34  1  0  0  0  0
 34 35  1  0  0  0  0
 34 33  1  1  0  0  0
 35 36  1  0  0  0  0
 38 37  1  0  0  0  0
 38 40  1  0  0  0  0
 39 40  1  0  0  0  0
M  END
>  <MODEL>
7

>  <REMARK>
 VINA RESULT:      -4.9      3.968      6.645
  Name = 
  12 active torsions:
  status: ('A' for Active; 'I' for Inactive)
    1  A    between atoms: C_5  and  C_15
    2  A    between atoms: C_7  and  C_10
    3  A    between atoms: C_7  and  S_36
    4  A    between atoms: C_10  and  N_28
    5  A    between atoms: C_11  and  C_16
    6  A    between atoms: C_12  and  N_28
    7  A    between atoms: C_12  and  C_30
    8  A    between atoms: N_13  and  C_35
    9  A    between atoms: C_19  and  C_37
   10  A    between atoms: C_24  and  N_28
   11  A    between atoms: C_29  and  C_30
   12  A    between atoms: C_35  and  S_36
                            x       y       z     vdW  Elec       q    Type
                         _______ _______ _______ _____ _____    ______ ____

>  <TORSDO>
F 12

$$$$
=
 OpenBabel11042413033D

 40 45  0  0  1  0  0  0  0  0999 V2000
  184.3380  174.7930  136.8690 C   0  0  2  0  0  0  0  0  0  0  0  0
  186.6210  175.1990  135.7740 O   0  0  0  0  0  0  0  0  0  0  0  0
  184.3470  176.1560  137.6220 C   0  0  1  0  0  3  0  0  0  0  0  0
  185.0570  173.9320  134.7110 O   0  0  0  0  0  0  0  0  0  0  0  0
  185.3460  174.6180  135.7250 C   0  0  0  0  0  0  0  0  0  0  0  0
  182.6970  173.3590  135.8590 C   0  0  1  0  0  3  0  0  0  0  0  0
  187.0650  176.0230  136.8460 C   0  0  2  0  0  3  0  0  0  0  0  0
  186.3720  177.3900  136.7830 C   0  0  0  0  0  2  0  0  0  0  0  0
  183.2180  173.7620  137.2540 C   0  0  1  0  0  0  0  0  0  0  0  0
  184.8480  177.2930  136.7430 C   0  0  0  0  0  2  0  0  0  0  0  0
  183.1750  172.3030  136.7730 C   0  0  0  0  0  2  0  0  0  0  0  0
  184.6300  173.7050  137.8260 C   0  0  0  0  0  2  0  0  0  0  0  0
  181.3610  179.7430  138.0520 N   0  0  0  0  0  0  0  0  0  0  0  0
  182.1020  178.7300  138.5620 C   0  0  0  0  0  0  0  0  0  0  0  0
  183.0970  176.6080  138.3980 C   0  0  2  0  0  3  0  0  0  0  0  0
  182.6210  178.5280  139.9270 C   0  0  0  0  0  3  0  0  0  0  0  0
  182.3720  177.7090  137.7380 C   0  0  0  0  0  0  0  0  0  0  0  0
  181.6670  177.9570  136.2310 S   0  0  0  0  0  0  0  0  0  0  0  0
  180.3100  180.3410  135.9300 N   0  0  0  0  0  1  0  0  0  0  0  0
  183.3800  177.1810  139.8080 C   0  0  0  0  0  3  0  0  0  0  0  0
  181.0590  179.4570  136.7590 C   0  0  0  0  0  0  0  0  0  0  0  0
  179.1980  174.2310  136.1620 N   0  0  0  0  0  0  0  0  0  0  0  0
  181.2050  173.4850  135.8340 C   0  0  0  0  0  0  0  0  0  0  0  0
  179.0740  173.0800  135.4680 C   0  0  0  0  0  3  0  0  0  0  0  0
  180.4850  174.4770  136.3890 N   0  0  0  0  0  2  0  0  0  0  0  0
  180.3420  172.5870  135.2470 C   0  0  0  0  0  0  0  0  0  0  0  0
  180.6860  171.2900  134.5940 C   0  0  0  0  0  2  0  0  0  0  0  0
  180.3650  170.1300  135.5150 C   0  0  0  0  0  1  0  0  0  0  0  0
  188.5270  176.1860  136.7990 N   0  0  0  0  0  0  0  0  0  0  0  0
  189.1640  176.0600  138.1200 C   0  0  0  0  0  2  0  0  0  0  0  0
  188.8770  177.2300  139.0440 C   0  0  0  0  0  2  0  0  0  0  0  0
  189.9520  177.1360  140.5110 S   0  0  0  0  0  0  0  0  0  0  0  0
  187.4880  178.3010  140.9860 C   0  0  0  0  0  1  0  0  0  0  0  0
  188.9110  178.2520  141.5220 C   0  0  1  0  0  3  0  0  0  0  0  0
  188.9190  177.8480  142.9170 N   0  0  0  0  0  2  0  0  0  0  0  0
  188.3880  176.4990  142.9590 C   0  0  0  0  0  1  0  0  0  0  0  0
  189.1740  175.2950  135.8210 C   0  0  0  0  0  2  0  0  0  0  0  0
  189.4760  173.9060  136.3910 C   0  0  0  0  0  2  0  0  0  0  0  0
  187.9440  171.9330  136.5350 C   0  0  0  0  0  1  0  0  0  0  0  0
  188.7600  172.8180  135.6060 C   0  0  0  0  0  2  0  0  0  0  0  0
  1  9  1  0  0  0  0
  1  3  1  0  0  0  0
  1 12  1  1  0  0  0
  2  7  1  0  0  0  0
  3 10  1  6  0  0  0
  3 15  1  0  0  0  0
  4  5  2  0  0  0  0
  5  2  1  0  0  0  0
  5  1  1  0  0  0  0
  6 23  1  1  0  0  0
  6 11  1  0  0  0  0
  6  9  1  0  0  0  0
  7 29  1  6  0  0  0
  8  7  1  0  0  0  0
  9 11  1  6  0  0  0
  9 12  1  0  0  0  0
 10  8  1  0  0  0  0
 13 14  1  0  0  0  0
 14 16  1  0  0  0  0
 15 20  1  1  0  0  0
 17 15  1  0  0  0  0
 17 14  2  0  0  0  0
 18 21  1  0  0  0  0
 18 17  1  0  0  0  0
 19 21  1  0  0  0  0
 20 16  2  0  0  0  0
 21 13  2  0  0  0  0
 22 25  1  0  0  0  0
 23 25  1  0  0  0  0
 24 22  2  0  0  0  0
 26 24  1  0  0  0  0
 26 23  2  0  0  0  0
 27 26  1  0  0  0  0
 27 28  1  0  0  0  0
 29 30  1  0  0  0  0
 30 31  1  0  0  0  0
 31 32  1  0  0  0  0
 32 34  1  0  0  0  0
 34 33  1  6  0  0  0
 34 35  1  0  0  0  0
 35 36  1  0  0  0  0
 37 38  1  0  0  0  0
 37 29  1  0  0  0  0
 40 38  1  0  0  0  0
 40 39  1  0  0  0  0
M  END
>  <MODEL>
8

>  <REMARK>
 VINA RESULT:      -4.7      4.115      7.002
  Name = 
  12 active torsions:
  status: ('A' for Active; 'I' for Inactive)
    1  A    between atoms: C_5  and  C_15
    2  A    between atoms: C_7  and  C_10
    3  A    between atoms: C_7  and  S_36
    4  A    between atoms: C_10  and  N_28
    5  A    between atoms: C_11  and  C_16
    6  A    between atoms: C_12  and  N_28
    7  A    between atoms: C_12  and  C_30
    8  A    between atoms: N_13  and  C_35
    9  A    between atoms: C_19  and  C_37
   10  A    between atoms: C_24  and  N_28
   11  A    between atoms: C_29  and  C_30
   12  A    between atoms: C_35  and  S_36
                            x       y       z     vdW  Elec       q    Type
                         _______ _______ _______ _____ _____    ______ ____

>  <TORSDO>
F 12

$$$$
=
 OpenBabel11042413033D

 40 45  0  0  1  0  0  0  0  0999 V2000
  183.9560  178.4900  138.9580 C   0  0  2  0  0  0  0  0  0  0  0  0
  186.4550  178.3060  139.5030 O   0  0  0  0  0  0  0  0  0  0  0  0
  184.1030  177.7700  137.5840 C   0  0  1  0  0  3  0  0  0  0  0  0
  184.9190  178.3180  141.1840 O   0  0  0  0  0  0  0  0  0  0  0  0
  185.1250  178.3620  139.9440 C   0  0  0  0  0  0  0  0  0  0  0  0
  182.2990  178.6400  140.6890 C   0  0  1  0  0  3  0  0  0  0  0  0
  186.8260  178.3160  138.1290 C   0  0  2  0  0  3  0  0  0  0  0  0
  186.4840  176.9680  137.4810 C   0  0  0  0  0  2  0  0  0  0  0  0
  182.5790  179.1760  139.2710 C   0  0  1  0  0  0  0  0  0  0  0  0
  185.0230  176.5610  137.6660 C   0  0  0  0  0  2  0  0  0  0  0  0
  182.3190  180.1000  140.4710 C   0  0  0  0  0  2  0  0  0  0  0  0
  183.7830  179.9400  138.7320 C   0  0  0  0  0  2  0  0  0  0  0  0
  181.7430  174.1170  135.8350 N   0  0  0  0  0  0  0  0  0  0  0  0
  182.2150  175.3860  135.7680 C   0  0  0  0  0  0  0  0  0  0  0  0
  182.8460  177.4150  136.7710 C   0  0  2  0  0  3  0  0  0  0  0  0
  182.4790  176.2390  134.5950 C   0  0  0  0  0  3  0  0  0  0  0  0
  182.4280  176.0100  136.9330 C   0  0  0  0  0  0  0  0  0  0  0  0
  182.0120  175.0190  138.2260 S   0  0  0  0  0  0  0  0  0  0  0  0
  181.1430  172.4870  137.5510 N   0  0  0  0  0  1  0  0  0  0  0  0
  183.0070  177.5490  135.2360 C   0  0  0  0  0  3  0  0  0  0  0  0
  181.5960  173.7730  137.1410 C   0  0  0  0  0  0  0  0  0  0  0  0
  179.0490  177.1440  140.1430 N   0  0  0  0  0  0  0  0  0  0  0  0
  180.9150  178.0710  140.7390 C   0  0  0  0  0  0  0  0  0  0  0  0
  178.9310  177.4460  141.4530 C   0  0  0  0  0  2  0  0  0  0  0  0
  180.2470  177.5230  139.7060 N   0  0  0  0  0  0  0  0  0  0  0  0
  180.1090  178.0380  141.8540 C   0  0  0  0  0  0  0  0  0  0  0  0
  180.3960  178.6140  143.2000 C   0  0  0  0  0  2  0  0  0  0  0  0
  179.1090  179.0020  143.8990 C   0  0  0  0  0  1  0  0  0  0  0  0
  188.2620  178.6050  137.9850 N   0  0  0  0  0  0  0  0  0  0  0  0
  189.1200  177.5920  138.6190 C   0  0  0  0  0  2  0  0  0  0  0  0
  189.2360  177.7540  140.1250 C   0  0  0  0  0  2  0  0  0  0  0  0
  190.8500  177.1280  140.6900 S   0  0  0  0  0  0  0  0  0  0  0  0
  191.2090  177.8830  143.3280 C   0  0  0  0  0  1  0  0  0  0  0  0
  190.3450  176.9960  142.4450 C   0  0  1  0  0  3  0  0  0  0  0  0
  188.9400  177.3270  142.6060 N   0  0  0  0  0  2  0  0  0  0  0  0
  188.3930  176.3610  143.5410 C   0  0  0  0  0  1  0  0  0  0  0  0
  188.6650  178.8300  136.5870 C   0  0  0  0  0  2  0  0  0  0  0  0
  189.6110  177.7460  136.0600 C   0  0  0  0  0  2  0  0  0  0  0  0
  188.7890  175.7340  134.8210 C   0  0  0  0  0  1  0  0  0  0  0  0
  189.1420  177.2080  134.7170 C   0  0  0  0  0  2  0  0  0  0  0  0
  1 12  1  6  0  0  0
  1  9  1  0  0  0  0
  1  5  1  0  0  0  0
  2  5  1  0  0  0  0
  3 10  1  1  0  0  0
  3  1  1  0  0  0  0
  5  4  2  0  0  0  0
  6 23  1  6  0  0  0
  7 29  1  1  0  0  0
  7  2  1  0  0  0  0
  8 10  1  0  0  0  0
  8  7  1  0  0  0  0
  9 12  1  6  0  0  0
  9 11  1  0  0  0  0
  9  6  1  0  0  0  0
 11  6  1  0  0  0  0
 13 21  2  0  0  0  0
 14 13  1  0  0  0  0
 14 17  2  0  0  0  0
 15 20  1  6  0  0  0
 15 17  1  0  0  0  0
 15  3  1  0  0  0  0
 16 20  2  0  0  0  0
 16 14  1  0  0  0  0
 17 18  1  0  0  0  0
 21 19  1  0  0  0  0
 21 18  1  0  0  0  0
 22 24  1  0  0  0  0
 23 26  2  0  0  0  0
 24 26  1  0  0  0  0
 25 22  2  0  0  0  0
 25 23  1  0  0  0  0
 26 27  1  0  0  0  0
 27 28  1  0  0  0  0
 29 30  1  0  0  0  0
 30 31  1  0  0  0  0
 31 32  1  0  0  0  0
 32 34  1  0  0  0  0
 34 35  1  0  0  0  0
 34 33  1  1  0  0  0
 35 36  1  0  0  0  0
 37 29  1  0  0  0  0
 38 37  1  0  0  0  0
 40 39  1  0  0  0  0
 40 38  1  0  0  0  0
M  END
>  <MODEL>
9

>  <REMARK>
 VINA RESULT:      -4.6      2.989      5.684
  Name = 
  12 active torsions:
  status: ('A' for Active; 'I' for Inactive)
    1  A    between atoms: C_5  and  C_15
    2  A    between atoms: C_7  and  C_10
    3  A    between atoms: C_7  and  S_36
    4  A    between atoms: C_10  and  N_28
    5  A    between atoms: C_11  and  C_16
    6  A    between atoms: C_12  and  N_28
    7  A    between atoms: C_12  and  C_30
    8  A    between atoms: N_13  and  C_35
    9  A    between atoms: C_19  and  C_37
   10  A    between atoms: C_24  and  N_28
   11  A    between atoms: C_29  and  C_30
   12  A    between atoms: C_35  and  S_36
                            x       y       z     vdW  Elec       q    Type
                         _______ _______ _______ _____ _____    ______ ____

>  <TORSDO>
F 12

$$$$
