=
 OpenBabel11032421113D

 34 39  0  0  1  0  0  0  0  0999 V2000
  187.0980  178.1480  142.0900 C   0  0  0  0  0  2  0  0  0  0  0  0
  183.2530  180.1290  139.0390 N   0  0  0  0  0  2  0  0  0  0  0  0
  187.5930  178.0950  139.6780 C   0  0  0  0  0  0  0  0  0  0  0  0
  184.0350  177.8340  141.8140 N   0  0  0  0  0  2  0  0  0  0  0  0
  187.7780  176.5890  138.1080 N   0  0  0  0  0  0  0  0  0  0  0  0
  182.9550  178.7940  141.6520 C   0  0  1  0  0  3  0  0  0  0  0  0
  185.9940  179.0840  142.5510 C   0  0  0  0  0  2  0  0  0  0  0  0
  183.6060  178.5800  145.0470 O   0  0  0  0  0  1  0  0  0  0  0  0
  186.5970  177.2030  137.9150 C   0  0  0  0  0  0  0  0  0  0  0  0
  181.8090  178.2030  140.8890 C   0  0  0  0  0  0  0  0  0  0  0  0
  188.3710  177.1180  139.1710 N   0  0  0  0  0  0  0  0  0  0  0  0
  182.5620  179.2600  143.0300 C   0  0  0  0  0  2  0  0  0  0  0  0
  185.3920  179.0850  139.1760 C   0  0  0  0  0  3  0  0  0  0  0  0
  184.1750  179.1670  138.5110 C   0  0  0  0  0  0  0  0  0  0  0  0
  180.0980  176.6560  140.4590 C   0  0  0  0  0  3  0  0  0  0  0  0
  184.4370  177.3620  136.7280 C   0  0  0  0  0  3  0  0  0  0  0  0
  180.0500  177.7660  139.1960 S   0  0  0  0  0  0  0  0  0  0  0  0
  183.8510  179.1730  143.8110 C   0  0  2  0  0  3  0  0  0  0  0  0
  185.7020  176.8270  136.9330 C   0  0  0  0  0  3  0  0  0  0  0  0
  187.8890  178.7950  140.9660 C   0  0  0  0  0  2  0  0  0  0  0  0
  181.1300  177.0460  141.3070 C   0  0  0  0  0  3  0  0  0  0  0  0
  184.7740  178.2860  142.9890 C   0  0  1  0  0  3  0  0  0  0  0  0
  181.3340  178.7340  139.6880 C   0  0  0  0  0  0  0  0  0  0  0  0
  186.4410  178.2190  138.9310 C   0  0  0  0  0  0  0  0  0  0  0  0
  181.7960  180.0130  139.0250 C   0  0  2  0  0  3  0  0  0  0  0  0
  183.7760  178.3740  137.4270 C   0  0  0  0  0  3  0  0  0  0  0  0
  181.1400  180.2590  137.3520 S   0  0  0  0  0  0  0  0  0  0  0  0
  179.8310  182.1250  138.6870 N   0  0  0  0  0  1  0  0  0  0  0  0
  180.1650  181.5540  137.4170 C   0  0  2  0  0  3  0  0  0  0  0  0
  179.4010  181.9140  136.2470 N   0  0  0  0  0  0  0  0  0  0  0  0
  179.9930  183.0230  135.4400 C   0  0  1  0  0  3  0  0  0  0  0  0
  178.9310  183.3040  136.3980 C   0  0  0  0  0  2  0  0  0  0  0  0
  181.3030  183.6130  135.9640 C   0  0  0  0  0  2  0  0  0  0  0  0
  181.0630  185.0260  136.4530 C   0  0  0  0  0  1  0  0  0  0  0  0
  1  7  1  0  0  0  0
  3 20  1  0  0  0  0
  4 22  1  0  0  0  0
  5 11  2  0  0  0  0
  6  4  1  0  0  0  0
  6 12  1  1  0  0  0
  9  5  1  0  0  0  0
  9 24  1  0  0  0  0
 10 21  1  0  0  0  0
 10  6  1  0  0  0  0
 11  3  1  0  0  0  0
 12 18  1  0  0  0  0
 14  2  1  0  0  0  0
 14 13  2  0  0  0  0
 15 21  2  0  0  0  0
 16 19  1  0  0  0  0
 16 26  2  0  0  0  0
 17 23  1  0  0  0  0
 17 15  1  0  0  0  0
 18  8  1  1  0  0  0
 19  9  2  0  0  0  0
 20  1  1  0  0  0  0
 22  7  1  6  0  0  0
 22 18  1  0  0  0  0
 23 10  2  0  0  0  0
 24 13  1  0  0  0  0
 24  3  2  0  0  0  0
 25 27  1  6  0  0  0
 25  2  1  0  0  0  0
 25 23  1  0  0  0  0
 26 14  1  0  0  0  0
 27 29  1  0  0  0  0
 29 28  1  1  0  0  0
 30 32  1  0  0  0  0
 30 29  1  0  0  0  0
 31 33  1  1  0  0  0
 31 30  1  0  0  0  0
 31 32  1  0  0  0  0
 33 34  1  0  0  0  0
M  END
>  <MODEL>
1

>  <REMARK>
 VINA RESULT:      -5.9      0.000      0.000
  Name = 
  3 active torsions:
  status: ('A' for Active; 'I' for Inactive)
    1  A    between atoms: N_3  and  C_29
    2  A    between atoms: C_6  and  C_16
    3  A    between atoms: S_13  and  C_32
                            x       y       z     vdW  Elec       q    Type
                         _______ _______ _______ _____ _____    ______ ____

>  <TORSDO>
F 3

$$$$
=
 OpenBabel11032421113D

 34 39  0  0  1  0  0  0  0  0999 V2000
  184.1940  171.8340  136.2480 C   0  0  0  0  0  2  0  0  0  0  0  0
  182.3520  175.7310  139.3210 N   0  0  0  0  0  2  0  0  0  0  0  0
  185.8190  173.6330  136.6830 C   0  0  0  0  0  0  0  0  0  0  0  0
  181.6720  173.6180  136.3800 N   0  0  0  0  0  2  0  0  0  0  0  0
  186.7680  175.2480  135.5610 N   0  0  0  0  0  0  0  0  0  0  0  0
  180.8070  174.0260  137.4760 C   0  0  1  0  0  3  0  0  0  0  0  0
  183.0000  171.7380  137.1820 C   0  0  0  0  0  2  0  0  0  0  0  0
  179.6930  170.9210  136.4200 O   0  0  0  0  0  1  0  0  0  0  0  0
  185.8330  175.8190  136.3420 C   0  0  0  0  0  0  0  0  0  0  0  0
  180.1940  175.3680  137.2170 C   0  0  0  0  0  0  0  0  0  0  0  0
  186.7530  173.9360  135.7590 N   0  0  0  0  0  0  0  0  0  0  0  0
  179.7810  172.9390  137.6620 C   0  0  0  0  0  2  0  0  0  0  0  0
  184.1490  174.8560  138.0210 C   0  0  0  0  0  3  0  0  0  0  0  0
  183.4210  175.9780  138.3990 C   0  0  0  0  0  0  0  0  0  0  0  0
  178.9320  176.9480  136.0270 C   0  0  0  0  0  3  0  0  0  0  0  0
  184.5440  177.8110  137.0270 C   0  0  0  0  0  3  0  0  0  0  0  0
  179.5070  177.7450  137.3920 S   0  0  0  0  0  0  0  0  0  0  0  0
  180.5140  171.6880  137.2430 C   0  0  2  0  0  3  0  0  0  0  0  0
  185.5450  177.1690  136.3090 C   0  0  0  0  0  3  0  0  0  0  0  0
  185.4330  172.2310  137.0310 C   0  0  0  0  0  2  0  0  0  0  0  0
  179.4050  175.6410  136.0870 C   0  0  0  0  0  3  0  0  0  0  0  0
  181.7290  172.1610  136.4600 C   0  0  1  0  0  3  0  0  0  0  0  0
  180.3730  176.4670  138.0600 C   0  0  0  0  0  0  0  0  0  0  0  0
  185.1870  174.7820  137.1120 C   0  0  0  0  0  0  0  0  0  0  0  0
  181.0940  176.4720  139.3900 C   0  0  2  0  0  3  0  0  0  0  0  0
  183.6170  177.2830  137.9270 C   0  0  0  0  0  3  0  0  0  0  0  0
  181.3510  178.1270  140.0870 S   0  0  0  0  0  0  0  0  0  0  0  0
  179.2630  177.3100  141.4830 N   0  0  0  0  0  1  0  0  0  0  0  0
  180.2840  178.2960  141.2960 C   0  0  2  0  0  3  0  0  0  0  0  0
  180.1760  179.5730  141.9600 N   0  0  0  0  0  0  0  0  0  0  0  0
  180.9550  179.6790  143.2300 C   0  0  1  0  0  3  0  0  0  0  0  0
  179.5310  179.3730  143.2710 C   0  0  0  0  0  2  0  0  0  0  0  0
  181.7420  178.4330  143.6410 C   0  0  0  0  0  2  0  0  0  0  0  0
  183.0060  178.8480  144.3660 C   0  0  0  0  0  1  0  0  0  0  0  0
  1 20  1  0  0  0  0
  1  7  1  0  0  0  0
  2 25  1  0  0  0  0
  3 20  1  0  0  0  0
  3 24  1  0  0  0  0
  4 22  1  0  0  0  0
  4  6  1  0  0  0  0
  5 11  1  0  0  0  0
  5  9  2  0  0  0  0
  6 12  1  6  0  0  0
  9 24  1  0  0  0  0
 10  6  1  0  0  0  0
 10 23  2  0  0  0  0
 11  3  2  0  0  0  0
 13 14  1  0  0  0  0
 14  2  1  0  0  0  0
 15 21  2  0  0  0  0
 15 17  1  0  0  0  0
 16 26  1  0  0  0  0
 17 23  1  0  0  0  0
 18  8  1  6  0  0  0
 18 12  1  0  0  0  0
 19  9  1  0  0  0  0
 19 16  2  0  0  0  0
 21 10  1  0  0  0  0
 22  7  1  1  0  0  0
 22 18  1  0  0  0  0
 23 25  1  0  0  0  0
 24 13  2  0  0  0  0
 25 27  1  6  0  0  0
 26 14  2  0  0  0  0
 27 29  1  0  0  0  0
 29 28  1  6  0  0  0
 29 30  1  0  0  0  0
 30 31  1  0  0  0  0
 30 32  1  0  0  0  0
 31 32  1  0  0  0  0
 31 33  1  6  0  0  0
 33 34  1  0  0  0  0
M  END
>  <MODEL>
2

>  <REMARK>
 VINA RESULT:      -5.5      4.296      6.507
  Name = 
  3 active torsions:
  status: ('A' for Active; 'I' for Inactive)
    1  A    between atoms: N_3  and  C_29
    2  A    between atoms: C_6  and  C_16
    3  A    between atoms: S_13  and  C_32
                            x       y       z     vdW  Elec       q    Type
                         _______ _______ _______ _____ _____    ______ ____

>  <TORSDO>
F 3

$$$$
=
 OpenBabel11032421113D

 34 39  0  0  1  0  0  0  0  0999 V2000
  185.2070  178.4370  139.5660 C   0  0  0  0  0  2  0  0  0  0  0  0
  190.2330  177.6350  138.1090 N   0  0  0  0  0  2  0  0  0  0  0  0
  186.8360  178.6310  141.4040 C   0  0  0  0  0  0  0  0  0  0  0  0
  186.7870  176.3410  137.9330 N   0  0  0  0  0  2  0  0  0  0  0  0
  187.3900  177.4980  143.1860 N   0  0  0  0  0  0  0  0  0  0  0  0
  187.8120  176.4550  136.9070 C   0  0  1  0  0  3  0  0  0  0  0  0
  185.7460  178.5340  138.1490 C   0  0  0  0  0  2  0  0  0  0  0  0
  184.7530  176.7620  135.3100 O   0  0  0  0  0  1  0  0  0  0  0  0
  188.3530  177.2750  142.2730 C   0  0  0  0  0  0  0  0  0  0  0  0
  188.7350  175.2760  136.9230 C   0  0  0  0  0  0  0  0  0  0  0  0
  186.4760  178.3030  142.6610 N   0  0  0  0  0  0  0  0  0  0  0  0
  187.1040  176.6270  135.5880 C   0  0  0  0  0  2  0  0  0  0  0  0
  188.6820  178.0880  139.8620 C   0  0  0  0  0  3  0  0  0  0  0  0
  189.8250  177.4070  139.4640 C   0  0  0  0  0  0  0  0  0  0  0  0
  189.3000  173.0010  136.8110 C   0  0  0  0  0  3  0  0  0  0  0  0
  190.3920  176.0750  141.5650 C   0  0  0  0  0  3  0  0  0  0  0  0
  190.7440  173.8270  137.0560 S   0  0  0  0  0  0  0  0  0  0  0  0
  185.8330  177.3510  135.9630 C   0  0  2  0  0  3  0  0  0  0  0  0
  189.4100  176.4120  142.4870 C   0  0  0  0  0  3  0  0  0  0  0  0
  185.9560  179.4000  140.4720 C   0  0  0  0  0  2  0  0  0  0  0  0
  188.2870  173.9540  136.7610 C   0  0  0  0  0  3  0  0  0  0  0  0
  185.6840  177.1750  137.4660 C   0  0  1  0  0  3  0  0  0  0  0  0
  190.1120  175.3840  137.1240 C   0  0  0  0  0  0  0  0  0  0  0  0
  188.0290  178.0190  141.0780 C   0  0  0  0  0  0  0  0  0  0  0  0
  190.9050  176.6670  137.2440 C   0  0  2  0  0  3  0  0  0  0  0  0
  190.5590  176.5050  140.2470 C   0  0  0  0  0  3  0  0  0  0  0  0
  192.6300  176.4280  137.7540 S   0  0  0  0  0  0  0  0  0  0  0  0
  192.7470  175.6990  135.2180 N   0  0  0  0  0  1  0  0  0  0  0  0
  193.4550  176.0000  136.4250 C   0  0  2  0  0  3  0  0  0  0  0  0
  194.8420  175.6230  136.5530 N   0  0  0  0  0  0  0  0  0  0  0  0
  195.7830  176.4320  135.7230 C   0  0  1  0  0  3  0  0  0  0  0  0
  195.3230  175.1330  135.2480 C   0  0  0  0  0  2  0  0  0  0  0  0
  195.1500  177.5270  134.8620 C   0  0  0  0  0  2  0  0  0  0  0  0
  196.1210  178.6800  134.7140 C   0  0  0  0  0  1  0  0  0  0  0  0
  1 20  1  0  0  0  0
  2 14  1  0  0  0  0
  3 11  1  0  0  0  0
  6 12  1  6  0  0  0
  6 10  1  0  0  0  0
  6  4  1  0  0  0  0
  7  1  1  0  0  0  0
  9 19  2  0  0  0  0
  9  5  1  0  0  0  0
 10 23  2  0  0  0  0
 11  5  2  0  0  0  0
 12 18  1  0  0  0  0
 13 24  1  0  0  0  0
 14 13  2  0  0  0  0
 14 26  1  0  0  0  0
 15 17  1  0  0  0  0
 16 19  1  0  0  0  0
 17 23  1  0  0  0  0
 18  8  1  6  0  0  0
 18 22  1  0  0  0  0
 20  3  1  0  0  0  0
 21 15  2  0  0  0  0
 21 10  1  0  0  0  0
 22  4  1  0  0  0  0
 22  7  1  1  0  0  0
 23 25  1  0  0  0  0
 24  3  2  0  0  0  0
 24  9  1  0  0  0  0
 25 27  1  1  0  0  0
 25  2  1  0  0  0  0
 26 16  2  0  0  0  0
 29 28  1  1  0  0  0
 29 30  1  0  0  0  0
 29 27  1  0  0  0  0
 31 33  1  6  0  0  0
 31 30  1  0  0  0  0
 32 31  1  0  0  0  0
 32 30  1  0  0  0  0
 34 33  1  0  0  0  0
M  END
>  <MODEL>
3

>  <REMARK>
 VINA RESULT:      -5.2      5.515      9.871
  Name = 
  3 active torsions:
  status: ('A' for Active; 'I' for Inactive)
    1  A    between atoms: N_3  and  C_29
    2  A    between atoms: C_6  and  C_16
    3  A    between atoms: S_13  and  C_32
                            x       y       z     vdW  Elec       q    Type
                         _______ _______ _______ _____ _____    ______ ____

>  <TORSDO>
F 3

$$$$
=
 OpenBabel11032421113D

 34 39  0  0  1  0  0  0  0  0999 V2000
  184.6610  178.3120  139.4380 C   0  0  0  0  0  2  0  0  0  0  0  0
  189.6530  177.6590  137.8040 N   0  0  0  0  0  2  0  0  0  0  0  0
  186.3560  178.7280  141.1760 C   0  0  0  0  0  0  0  0  0  0  0  0
  186.2790  176.1800  137.8900 N   0  0  0  0  0  2  0  0  0  0  0  0
  187.0490  177.7630  143.0080 N   0  0  0  0  0  0  0  0  0  0  0  0
  187.2490  176.2690  136.8110 C   0  0  1  0  0  3  0  0  0  0  0  0
  185.1300  178.3270  137.9940 C   0  0  0  0  0  2  0  0  0  0  0  0
  184.1110  176.2960  135.3440 O   0  0  0  0  0  1  0  0  0  0  0  0
  187.9810  177.5210  142.0690 C   0  0  0  0  0  0  0  0  0  0  0  0
  188.2360  175.1420  136.8690 C   0  0  0  0  0  0  0  0  0  0  0  0
  186.0700  178.4790  142.4700 N   0  0  0  0  0  0  0  0  0  0  0  0
  186.4760  176.3030  135.5180 C   0  0  0  0  0  2  0  0  0  0  0  0
  188.1590  178.1640  139.5920 C   0  0  0  0  0  3  0  0  0  0  0  0
  189.3190  177.5130  139.1910 C   0  0  0  0  0  0  0  0  0  0  0  0
  188.9180  172.8970  136.8970 C   0  0  0  0  0  3  0  0  0  0  0  0
  190.0490  176.3760  141.3540 C   0  0  0  0  0  3  0  0  0  0  0  0
  190.3240  173.8120  137.0120 S   0  0  0  0  0  0  0  0  0  0  0  0
  185.1850  176.9880  135.8990 C   0  0  2  0  0  3  0  0  0  0  0  0
  189.0920  176.7320  142.2950 C   0  0  0  0  0  3  0  0  0  0  0  0
  185.3950  179.3780  140.2330 C   0  0  0  0  0  2  0  0  0  0  0  0
  187.8530  173.7910  136.8270 C   0  0  0  0  0  3  0  0  0  0  0  0
  185.1120  176.9190  137.4170 C   0  0  1  0  0  3  0  0  0  0  0  0
  189.6120  175.3360  136.9950 C   0  0  0  0  0  0  0  0  0  0  0  0
  187.5650  178.1540  140.8400 C   0  0  0  0  0  0  0  0  0  0  0  0
  190.3390  176.6630  136.9820 C   0  0  2  0  0  3  0  0  0  0  0  0
  190.1340  176.7120  140.0020 C   0  0  0  0  0  3  0  0  0  0  0  0
  192.0940  176.5520  137.4240 S   0  0  0  0  0  0  0  0  0  0  0  0
  192.2040  176.1490  134.8160 N   0  0  0  0  0  1  0  0  0  0  0  0
  192.9160  176.3780  136.0370 C   0  0  2  0  0  3  0  0  0  0  0  0
  194.3380  176.1390  136.0910 N   0  0  0  0  0  0  0  0  0  0  0  0
  194.7350  174.7140  135.8840 C   0  0  1  0  0  3  0  0  0  0  0  0
  194.6270  175.2530  137.2340 C   0  0  0  0  0  2  0  0  0  0  0  0
  193.5910  173.7240  135.6530 C   0  0  0  0  0  2  0  0  0  0  0  0
  193.8690  172.4430  136.4130 C   0  0  0  0  0  1  0  0  0  0  0  0
  1 20  1  0  0  0  0
  2 14  1  0  0  0  0
  3 11  1  0  0  0  0
  6 12  1  6  0  0  0
  6 10  1  0  0  0  0
  6  4  1  0  0  0  0
  7  1  1  0  0  0  0
  9 19  2  0  0  0  0
  9  5  1  0  0  0  0
 10 23  2  0  0  0  0
 11  5  2  0  0  0  0
 12 18  1  0  0  0  0
 13 24  1  0  0  0  0
 14 13  2  0  0  0  0
 14 26  1  0  0  0  0
 15 17  1  0  0  0  0
 16 19  1  0  0  0  0
 18  8  1  6  0  0  0
 18 22  1  0  0  0  0
 20  3  1  0  0  0  0
 21 10  1  0  0  0  0
 21 15  2  0  0  0  0
 22  4  1  0  0  0  0
 22  7  1  1  0  0  0
 23 17  1  0  0  0  0
 24  3  2  0  0  0  0
 24  9  1  0  0  0  0
 25 23  1  0  0  0  0
 25 27  1  1  0  0  0
 25  2  1  0  0  0  0
 26 16  2  0  0  0  0
 29 28  1  1  0  0  0
 29 30  1  0  0  0  0
 29 27  1  0  0  0  0
 30 32  1  0  0  0  0
 31 33  1  1  0  0  0
 31 30  1  0  0  0  0
 31 32  1  0  0  0  0
 33 34  1  0  0  0  0
M  END
>  <MODEL>
4

>  <REMARK>
 VINA RESULT:      -5.1      5.245      9.706
  Name = 
  3 active torsions:
  status: ('A' for Active; 'I' for Inactive)
    1  A    between atoms: N_3  and  C_29
    2  A    between atoms: C_6  and  C_16
    3  A    between atoms: S_13  and  C_32
                            x       y       z     vdW  Elec       q    Type
                         _______ _______ _______ _____ _____    ______ ____

>  <TORSDO>
F 3

$$$$
=
 OpenBabel11032421113D

 34 39  0  0  1  0  0  0  0  0999 V2000
  184.6950  179.1660  141.7640 C   0  0  0  0  0  2  0  0  0  0  0  0
  184.3860  175.4540  138.0020 N   0  0  0  0  0  2  0  0  0  0  0  0
  182.3970  178.6270  141.0610 C   0  0  0  0  0  0  0  0  0  0  0  0
  186.0280  178.5880  139.0350 N   0  0  0  0  0  2  0  0  0  0  0  0
  180.7890  179.5960  139.9460 N   0  0  0  0  0  0  0  0  0  0  0  0
  186.5770  177.3790  138.4400 C   0  0  1  0  0  3  0  0  0  0  0  0
  185.7790  178.1580  141.4210 C   0  0  0  0  0  2  0  0  0  0  0  0
  189.0700  178.7480  140.4190 O   0  0  0  0  0  1  0  0  0  0  0  0
  181.3220  178.6710  139.1270 C   0  0  0  0  0  0  0  0  0  0  0  0
  186.4610  177.4040  136.9470 C   0  0  0  0  0  0  0  0  0  0  0  0
  181.4400  179.5760  141.1020 N   0  0  0  0  0  0  0  0  0  0  0  0
  188.0020  177.2570  138.9140 C   0  0  0  0  0  2  0  0  0  0  0  0
  183.2510  177.0040  139.4140 C   0  0  0  0  0  3  0  0  0  0  0  0
  183.3380  176.4200  138.1570 C   0  0  0  0  0  0  0  0  0  0  0  0
  186.8010  178.2620  134.7900 C   0  0  0  0  0  3  0  0  0  0  0  0
  181.4730  177.6210  136.8970 C   0  0  0  0  0  3  0  0  0  0  0  0
  185.9020  176.8550  134.5940 S   0  0  0  0  0  0  0  0  0  0  0  0
  187.9740  177.8990  140.2810 C   0  0  2  0  0  3  0  0  0  0  0  0
  180.9160  178.4980  137.8190 C   0  0  0  0  0  3  0  0  0  0  0  0
  183.4140  178.4400  142.1400 C   0  0  0  0  0  2  0  0  0  0  0  0
  187.0240  178.4180  136.1550 C   0  0  0  0  0  3  0  0  0  0  0  0
  186.6880  178.7090  140.3320 C   0  0  1  0  0  3  0  0  0  0  0  0
  185.7640  176.4380  136.2170 C   0  0  0  0  0  0  0  0  0  0  0  0
  182.3860  177.9970  139.8340 C   0  0  0  0  0  0  0  0  0  0  0  0
  185.1240  175.1840  136.7690 C   0  0  2  0  0  3  0  0  0  0  0  0
  182.5350  176.7270  137.0500 C   0  0  0  0  0  3  0  0  0  0  0  0
  184.0880  174.2940  135.5740 S   0  0  0  0  0  0  0  0  0  0  0  0
  184.9780  172.2970  137.0570 N   0  0  0  0  0  1  0  0  0  0  0  0
  184.0890  172.7360  136.0240 C   0  0  2  0  0  3  0  0  0  0  0  0
  183.4400  171.7630  135.1780 N   0  0  0  0  0  0  0  0  0  0  0  0
  182.1110  171.2980  135.6760 C   0  0  1  0  0  3  0  0  0  0  0  0
  183.3040  170.5000  135.9260 C   0  0  0  0  0  2  0  0  0  0  0  0
  181.6370  171.9070  136.9970 C   0  0  0  0  0  2  0  0  0  0  0  0
  180.1750  171.5740  137.2130 C   0  0  0  0  0  1  0  0  0  0  0  0
  1 20  1  0  0  0  0
  2 14  1  0  0  0  0
  3 11  1  0  0  0  0
  3 20  1  0  0  0  0
  4 22  1  0  0  0  0
  5 11  2  0  0  0  0
  6 12  1  6  0  0  0
  6  4  1  0  0  0  0
  7  1  1  0  0  0  0
  9 24  1  0  0  0  0
  9  5  1  0  0  0  0
 10  6  1  0  0  0  0
 12 18  1  0  0  0  0
 13 24  1  0  0  0  0
 14 13  2  0  0  0  0
 15 21  2  0  0  0  0
 16 26  2  0  0  0  0
 16 19  1  0  0  0  0
 17 15  1  0  0  0  0
 17 23  1  0  0  0  0
 18 22  1  0  0  0  0
 18  8  1  6  0  0  0
 19  9  2  0  0  0  0
 21 10  1  0  0  0  0
 22  7  1  1  0  0  0
 23 25  1  0  0  0  0
 23 10  2  0  0  0  0
 24  3  2  0  0  0  0
 25 27  1  6  0  0  0
 25  2  1  0  0  0  0
 26 14  1  0  0  0  0
 27 29  1  0  0  0  0
 29 28  1  6  0  0  0
 30 31  1  0  0  0  0
 30 32  1  0  0  0  0
 30 29  1  0  0  0  0
 31 32  1  0  0  0  0
 31 33  1  1  0  0  0
 33 34  1  0  0  0  0
M  END
>  <MODEL>
5

>  <REMARK>
 VINA RESULT:      -4.9      3.774      7.353
  Name = 
  3 active torsions:
  status: ('A' for Active; 'I' for Inactive)
    1  A    between atoms: N_3  and  C_29
    2  A    between atoms: C_6  and  C_16
    3  A    between atoms: S_13  and  C_32
                            x       y       z     vdW  Elec       q    Type
                         _______ _______ _______ _____ _____    ______ ____

>  <TORSDO>
F 3

$$$$
=
 OpenBabel11032421113D

 34 39  0  0  1  0  0  0  0  0999 V2000
  183.8220  179.0100  140.9100 C   0  0  0  0  0  2  0  0  0  0  0  0
  185.6620  175.3270  137.5820 N   0  0  0  0  0  2  0  0  0  0  0  0
  182.1630  178.2010  139.2780 C   0  0  0  0  0  0  0  0  0  0  0  0
  186.2950  178.6270  139.0950 N   0  0  0  0  0  2  0  0  0  0  0  0
  181.1290  178.9770  137.5190 N   0  0  0  0  0  0  0  0  0  0  0  0
  187.1870  177.5010  138.8650 C   0  0  1  0  0  3  0  0  0  0  0  0
  185.0510  178.1460  141.1350 C   0  0  0  0  0  2  0  0  0  0  0  0
  188.3500  179.1440  141.6850 O   0  0  0  0  0  1  0  0  0  0  0  0
  182.0750  178.1330  137.0690 C   0  0  0  0  0  0  0  0  0  0  0  0
  187.7520  177.5260  137.4780 C   0  0  0  0  0  0  0  0  0  0  0  0
  181.1880  179.0250  138.8430 N   0  0  0  0  0  0  0  0  0  0  0  0
  188.2500  177.5500  139.9320 C   0  0  0  0  0  2  0  0  0  0  0  0
  183.8450  176.7120  138.2640 C   0  0  0  0  0  3  0  0  0  0  0  0
  184.5540  176.1550  137.2070 C   0  0  0  0  0  0  0  0  0  0  0  0
  188.9260  178.4420  135.6640 C   0  0  0  0  0  3  0  0  0  0  0  0
  183.3310  177.1320  135.1930 C   0  0  0  0  0  3  0  0  0  0  0  0
  188.3770  176.9370  135.1520 S   0  0  0  0  0  0  0  0  0  0  0  0
  187.5370  178.1700  141.1100 C   0  0  2  0  0  3  0  0  0  0  0  0
  182.3240  177.9240  135.7260 C   0  0  0  0  0  3  0  0  0  0  0  0
  182.6000  178.1290  140.7060 C   0  0  0  0  0  2  0  0  0  0  0  0
  188.4920  178.6100  136.9760 C   0  0  0  0  0  3  0  0  0  0  0  0
  186.2820  178.8150  140.5430 C   0  0  1  0  0  3  0  0  0  0  0  0
  187.5730  176.4910  136.5600 C   0  0  0  0  0  0  0  0  0  0  0  0
  182.7770  177.5870  138.2070 C   0  0  0  0  0  0  0  0  0  0  0  0
  186.9010  175.1610  136.8230 C   0  0  2  0  0  3  0  0  0  0  0  0
  184.3050  176.3730  135.8450 C   0  0  0  0  0  3  0  0  0  0  0  0
  186.6220  174.1640  135.3340 S   0  0  0  0  0  0  0  0  0  0  0  0
  187.8250  172.4090  136.8990 N   0  0  0  0  0  1  0  0  0  0  0  0
  187.1190  172.6590  135.6790 C   0  0  2  0  0  3  0  0  0  0  0  0
  187.1300  171.6680  134.6300 N   0  0  0  0  0  0  0  0  0  0  0  0
  185.9420  170.7630  134.6210 C   0  0  1  0  0  3  0  0  0  0  0  0
  187.1850  170.3290  135.2440 C   0  0  0  0  0  2  0  0  0  0  0  0
  184.9000  171.0100  135.7140 C   0  0  0  0  0  2  0  0  0  0  0  0
  183.8130  169.9590  135.6250 C   0  0  0  0  0  1  0  0  0  0  0  0
  1  7  1  0  0  0  0
  3 20  1  0  0  0  0
  4 22  1  0  0  0  0
  5 11  2  0  0  0  0
  6  4  1  0  0  0  0
  6 12  1  1  0  0  0
  9  5  1  0  0  0  0
  9 24  1  0  0  0  0
 10  6  1  0  0  0  0
 11  3  1  0  0  0  0
 12 18  1  0  0  0  0
 14  2  1  0  0  0  0
 14 13  2  0  0  0  0
 15 21  2  0  0  0  0
 16 19  1  0  0  0  0
 16 26  2  0  0  0  0
 17 15  1  0  0  0  0
 17 23  1  0  0  0  0
 18  8  1  6  0  0  0
 19  9  2  0  0  0  0
 20  1  1  0  0  0  0
 21 10  1  0  0  0  0
 22 18  1  0  0  0  0
 22  7  1  1  0  0  0
 23 25  1  0  0  0  0
 23 10  2  0  0  0  0
 24 13  1  0  0  0  0
 24  3  2  0  0  0  0
 25 27  1  6  0  0  0
 25  2  1  0  0  0  0
 26 14  1  0  0  0  0
 27 29  1  0  0  0  0
 29 28  1  6  0  0  0
 30 32  1  0  0  0  0
 30 29  1  0  0  0  0
 31 30  1  0  0  0  0
 31 32  1  0  0  0  0
 31 33  1  1  0  0  0
 34 33  1  0  0  0  0
M  END
>  <MODEL>
6

>  <REMARK>
 VINA RESULT:      -4.7      3.891      8.090
  Name = 
  3 active torsions:
  status: ('A' for Active; 'I' for Inactive)
    1  A    between atoms: N_3  and  C_29
    2  A    between atoms: C_6  and  C_16
    3  A    between atoms: S_13  and  C_32
                            x       y       z     vdW  Elec       q    Type
                         _______ _______ _______ _____ _____    ______ ____

>  <TORSDO>
F 3

$$$$
=
 OpenBabel11032421113D

 34 39  0  0  1  0  0  0  0  0999 V2000
  179.0450  178.3240  139.6430 C   0  0  0  0  0  2  0  0  0  0  0  0
  184.0370  178.6930  137.9190 N   0  0  0  0  0  2  0  0  0  0  0  0
  180.5960  179.3640  141.2500 C   0  0  0  0  0  0  0  0  0  0  0  0
  181.1290  176.4640  138.3170 N   0  0  0  0  0  2  0  0  0  0  0  0
  181.5140  178.8460  143.1620 N   0  0  0  0  0  0  0  0  0  0  0  0
  182.0420  176.6430  137.1990 C   0  0  1  0  0  3  0  0  0  0  0  0
  179.4890  178.2630  138.1910 C   0  0  0  0  0  2  0  0  0  0  0  0
  178.9850  175.7150  135.8590 O   0  0  0  0  0  1  0  0  0  0  0  0
  182.4720  178.7160  142.2270 C   0  0  0  0  0  0  0  0  0  0  0  0
  183.2750  175.8070  137.3620 C   0  0  0  0  0  0  0  0  0  0  0  0
  180.3870  179.2250  142.5750 N   0  0  0  0  0  0  0  0  0  0  0  0
  181.2770  176.3180  135.9420 C   0  0  0  0  0  2  0  0  0  0  0  0
  182.4730  179.0510  139.6830 C   0  0  0  0  0  3  0  0  0  0  0  0
  183.7550  178.6540  139.3240 C   0  0  0  0  0  0  0  0  0  0  0  0
  184.4870  173.8190  137.6480 C   0  0  0  0  0  3  0  0  0  0  0  0
  184.7540  178.0230  141.5850 C   0  0  0  0  0  3  0  0  0  0  0  0
  185.6270  175.0540  137.5930 S   0  0  0  0  0  0  0  0  0  0  0  0
  179.8600  176.7130  136.2820 C   0  0  2  0  0  3  0  0  0  0  0  0
  183.7440  178.2560  142.5080 C   0  0  0  0  0  3  0  0  0  0  0  0
  179.5000  179.6320  140.2690 C   0  0  0  0  0  2  0  0  0  0  0  0
  183.2360  174.4100  137.5050 C   0  0  0  0  0  3  0  0  0  0  0  0
  179.8140  176.8290  137.7980 C   0  0  1  0  0  3  0  0  0  0  0  0
  184.5630  176.3440  137.4110 C   0  0  0  0  0  0  0  0  0  0  0  0
  181.9060  179.0610  140.9440 C   0  0  0  0  0  0  0  0  0  0  0  0
  184.9410  177.7940  137.2040 C   0  0  2  0  0  3  0  0  0  0  0  0
  184.7470  178.1890  140.1990 C   0  0  0  0  0  3  0  0  0  0  0  0
  186.6730  178.1710  137.5910 S   0  0  0  0  0  0  0  0  0  0  0  0
  186.7990  177.8500  134.9720 N   0  0  0  0  0  1  0  0  0  0  0  0
  187.4610  178.2520  136.1760 C   0  0  2  0  0  3  0  0  0  0  0  0
  188.8940  178.4190  136.1820 N   0  0  0  0  0  0  0  0  0  0  0  0
  189.6670  177.1410  136.2070 C   0  0  1  0  0  3  0  0  0  0  0  0
  189.4300  177.8750  137.4430 C   0  0  0  0  0  2  0  0  0  0  0  0
  188.8380  175.8550  136.2270 C   0  0  0  0  0  2  0  0  0  0  0  0
  189.4420  174.8790  137.2160 C   0  0  0  0  0  1  0  0  0  0  0  0
  1 20  1  0  0  0  0
  2 14  1  0  0  0  0
  3 11  1  0  0  0  0
  6 12  1  6  0  0  0
  6 10  1  0  0  0  0
  6  4  1  0  0  0  0
  7  1  1  0  0  0  0
  9 19  2  0  0  0  0
  9  5  1  0  0  0  0
 10 23  2  0  0  0  0
 10 21  1  0  0  0  0
 11  5  2  0  0  0  0
 12 18  1  0  0  0  0
 13 24  1  0  0  0  0
 14 13  2  0  0  0  0
 14 26  1  0  0  0  0
 16 19  1  0  0  0  0
 17 15  1  0  0  0  0
 18  8  1  1  0  0  0
 18 22  1  0  0  0  0
 20  3  1  0  0  0  0
 21 15  2  0  0  0  0
 22  7  1  6  0  0  0
 22  4  1  0  0  0  0
 23 17  1  0  0  0  0
 24  3  2  0  0  0  0
 24  9  1  0  0  0  0
 25 23  1  0  0  0  0
 25 27  1  1  0  0  0
 25  2  1  0  0  0  0
 26 16  2  0  0  0  0
 29 28  1  1  0  0  0
 29 30  1  0  0  0  0
 29 27  1  0  0  0  0
 30 31  1  0  0  0  0
 30 32  1  0  0  0  0
 31 33  1  1  0  0  0
 31 32  1  0  0  0  0
 33 34  1  0  0  0  0
M  END
>  <MODEL>
7

>  <REMARK>
 VINA RESULT:      -4.2      3.823      7.504
  Name = 
  3 active torsions:
  status: ('A' for Active; 'I' for Inactive)
    1  A    between atoms: N_3  and  C_29
    2  A    between atoms: C_6  and  C_16
    3  A    between atoms: S_13  and  C_32
                            x       y       z     vdW  Elec       q    Type
                         _______ _______ _______ _____ _____    ______ ____

>  <TORSDO>
F 3

$$$$
=
 OpenBabel11032421113D

 34 39  0  0  1  0  0  0  0  0999 V2000
  180.0880  177.9970  141.2670 C   0  0  0  0  0  2  0  0  0  0  0  0
  184.3310  178.6100  138.1610 N   0  0  0  0  0  2  0  0  0  0  0  0
  181.9850  179.1280  142.3580 C   0  0  0  0  0  0  0  0  0  0  0  0
  181.7860  176.2370  139.3750 N   0  0  0  0  0  2  0  0  0  0  0  0
  183.4480  178.6730  143.9140 N   0  0  0  0  0  0  0  0  0  0  0  0
  182.3220  176.4540  138.0410 C   0  0  1  0  0  3  0  0  0  0  0  0
  180.0900  177.9480  139.7490 C   0  0  0  0  0  2  0  0  0  0  0  0
  179.0590  175.3590  137.6460 O   0  0  0  0  0  1  0  0  0  0  0  0
  184.0960  178.5860  142.7380 C   0  0  0  0  0  0  0  0  0  0  0  0
  183.5900  175.6850  137.8290 C   0  0  0  0  0  0  0  0  0  0  0  0
  182.1800  178.9890  143.6850 N   0  0  0  0  0  0  0  0  0  0  0  0
  181.2400  176.0810  137.0600 C   0  0  0  0  0  2  0  0  0  0  0  0
  183.3350  178.9000  140.3080 C   0  0  0  0  0  3  0  0  0  0  0  0
  184.4750  178.5680  139.5870 C   0  0  0  0  0  0  0  0  0  0  0  0
  184.9340  173.7640  137.7330 C   0  0  0  0  0  3  0  0  0  0  0  0
  186.1230  178.0070  141.4510 C   0  0  0  0  0  3  0  0  0  0  0  0
  185.9420  175.0560  137.3560 S   0  0  0  0  0  0  0  0  0  0  0  0
  179.9660  176.4050  137.8020 C   0  0  2  0  0  3  0  0  0  0  0  0
  185.4160  178.1950  142.6320 C   0  0  0  0  0  3  0  0  0  0  0  0
  180.6380  179.3310  141.7430 C   0  0  0  0  0  2  0  0  0  0  0  0
  183.6660  174.2890  137.9660 C   0  0  0  0  0  3  0  0  0  0  0  0
  180.3590  176.5300  139.2660 C   0  0  1  0  0  3  0  0  0  0  0  0
  184.8060  176.2880  137.5030 C   0  0  0  0  0  0  0  0  0  0  0  0
  183.1620  178.8910  141.6790 C   0  0  0  0  0  0  0  0  0  0  0  0
  185.0310  177.7540  137.2050 C   0  0  2  0  0  3  0  0  0  0  0  0
  185.7020  178.1610  140.1290 C   0  0  0  0  0  3  0  0  0  0  0  0
  186.7790  178.2230  137.0720 S   0  0  0  0  0  0  0  0  0  0  0  0
  186.2680  177.4650  134.5940 N   0  0  0  0  0  1  0  0  0  0  0  0
  187.1830  178.0780  135.5080 C   0  0  2  0  0  3  0  0  0  0  0  0
  188.5600  178.2700  135.1210 N   0  0  0  0  0  0  0  0  0  0  0  0
  189.3560  177.0100  135.0200 C   0  0  1  0  0  3  0  0  0  0  0  0
  189.4300  177.8250  136.2250 C   0  0  0  0  0  2  0  0  0  0  0  0
  188.6090  175.7140  135.3420 C   0  0  0  0  0  2  0  0  0  0  0  0
  189.5450  174.7490  136.0380 C   0  0  0  0  0  1  0  0  0  0  0  0
  1 20  1  0  0  0  0
  2 14  1  0  0  0  0
  3 11  1  0  0  0  0
  6 12  1  6  0  0  0
  6  4  1  0  0  0  0
  7  1  1  0  0  0  0
  9  5  1  0  0  0  0
 10 21  1  0  0  0  0
 10  6  1  0  0  0  0
 11  5  2  0  0  0  0
 12 18  1  0  0  0  0
 13 24  1  0  0  0  0
 14 26  1  0  0  0  0
 14 13  2  0  0  0  0
 15 21  2  0  0  0  0
 16 19  1  0  0  0  0
 17 23  1  0  0  0  0
 17 15  1  0  0  0  0
 18  8  1  1  0  0  0
 18 22  1  0  0  0  0
 19  9  2  0  0  0  0
 20  3  1  0  0  0  0
 22  4  1  0  0  0  0
 22  7  1  6  0  0  0
 23 10  2  0  0  0  0
 24  3  2  0  0  0  0
 24  9  1  0  0  0  0
 25 27  1  1  0  0  0
 25 23  1  0  0  0  0
 25  2  1  0  0  0  0
 26 16  2  0  0  0  0
 29 28  1  1  0  0  0
 29 27  1  0  0  0  0
 30 29  1  0  0  0  0
 30 32  1  0  0  0  0
 31 30  1  0  0  0  0
 31 33  1  1  0  0  0
 31 32  1  0  0  0  0
 33 34  1  0  0  0  0
M  END
>  <MODEL>
8

>  <REMARK>
 VINA RESULT:      -4.1      3.929      7.087
  Name = 
  3 active torsions:
  status: ('A' for Active; 'I' for Inactive)
    1  A    between atoms: N_3  and  C_29
    2  A    between atoms: C_6  and  C_16
    3  A    between atoms: S_13  and  C_32
                            x       y       z     vdW  Elec       q    Type
                         _______ _______ _______ _____ _____    ______ ____

>  <TORSDO>
F 3

$$$$
=
 OpenBabel11032421113D

 34 39  0  0  1  0  0  0  0  0999 V2000
  181.7850  178.6730  142.6690 C   0  0  0  0  0  2  0  0  0  0  0  0
  185.4440  178.9860  138.8570 N   0  0  0  0  0  2  0  0  0  0  0  0
  184.0580  179.1550  143.4860 C   0  0  0  0  0  0  0  0  0  0  0  0
  182.6540  177.0000  140.2180 N   0  0  0  0  0  2  0  0  0  0  0  0
  185.6160  178.1170  144.6090 N   0  0  0  0  0  0  0  0  0  0  0  0
  182.9870  177.3560  138.8480 C   0  0  1  0  0  3  0  0  0  0  0  0
  181.5110  178.9180  141.1950 C   0  0  0  0  0  2  0  0  0  0  0  0
  179.5390  177.0540  139.0000 O   0  0  0  0  0  1  0  0  0  0  0  0
  186.0100  178.1270  143.3230 C   0  0  0  0  0  0  0  0  0  0  0  0
  183.9760  176.3970  138.2590 C   0  0  0  0  0  0  0  0  0  0  0  0
  184.4420  178.7260  144.7060 N   0  0  0  0  0  0  0  0  0  0  0  0
  181.6940  177.4100  138.0760 C   0  0  0  0  0  2  0  0  0  0  0  0
  184.9360  179.0550  141.1850 C   0  0  0  0  0  3  0  0  0  0  0  0
  185.8200  178.6410  140.1960 C   0  0  0  0  0  0  0  0  0  0  0  0
  184.7810  174.2960  137.5940 C   0  0  0  0  0  3  0  0  0  0  0  0
  187.5820  177.4020  141.5620 C   0  0  0  0  0  3  0  0  0  0  0  0
  185.9890  175.4010  137.2080 S   0  0  0  0  0  0  0  0  0  0  0  0
  180.6840  177.8400  139.1130 C   0  0  2  0  0  3  0  0  0  0  0  0
  187.1580  177.5000  142.8800 C   0  0  0  0  0  3  0  0  0  0  0  0
  182.7130  179.7470  143.2100 C   0  0  0  0  0  2  0  0  0  0  0  0
  183.7370  175.0160  138.1680 C   0  0  0  0  0  3  0  0  0  0  0  0
  181.3440  177.5960  140.4610 C   0  0  1  0  0  3  0  0  0  0  0  0
  185.2250  176.7880  137.7750 C   0  0  0  0  0  0  0  0  0  0  0  0
  185.0080  178.8170  142.5450 C   0  0  0  0  0  0  0  0  0  0  0  0
  185.7410  178.2050  137.6570 C   0  0  2  0  0  3  0  0  0  0  0  0
  186.9880  177.8930  140.3980 C   0  0  0  0  0  3  0  0  0  0  0  0
  187.4990  178.3210  137.2250 S   0  0  0  0  0  0  0  0  0  0  0  0
  186.4190  177.9340  134.8460 N   0  0  0  0  0  1  0  0  0  0  0  0
  187.5890  178.2530  135.6070 C   0  0  2  0  0  3  0  0  0  0  0  0
  188.8870  178.1990  134.9800 N   0  0  0  0  0  0  0  0  0  0  0  0
  189.3320  176.8260  134.5940 C   0  0  1  0  0  3  0  0  0  0  0  0
  189.7980  177.4210  135.8400 C   0  0  0  0  0  2  0  0  0  0  0  0
  188.3620  175.6890  134.9200 C   0  0  0  0  0  2  0  0  0  0  0  0
  189.1430  174.4200  135.1950 C   0  0  0  0  0  1  0  0  0  0  0  0
  1 20  1  0  0  0  0
  2 14  1  0  0  0  0
  3 11  1  0  0  0  0
  4 22  1  0  0  0  0
  5 11  2  0  0  0  0
  6 12  1  6  0  0  0
  6  4  1  0  0  0  0
  7  1  1  0  0  0  0
  9  5  1  0  0  0  0
 10  6  1  0  0  0  0
 12 18  1  0  0  0  0
 13 24  1  0  0  0  0
 14 26  1  0  0  0  0
 14 13  2  0  0  0  0
 15 21  2  0  0  0  0
 16 19  1  0  0  0  0
 17 15  1  0  0  0  0
 17 23  1  0  0  0  0
 18  8  1  1  0  0  0
 18 22  1  0  0  0  0
 19  9  2  0  0  0  0
 20  3  1  0  0  0  0
 21 10  1  0  0  0  0
 22  7  1  6  0  0  0
 23 10  2  0  0  0  0
 24  9  1  0  0  0  0
 24  3  2  0  0  0  0
 25 27  1  1  0  0  0
 25 23  1  0  0  0  0
 25  2  1  0  0  0  0
 26 16  2  0  0  0  0
 29 28  1  1  0  0  0
 29 27  1  0  0  0  0
 30 29  1  0  0  0  0
 30 32  1  0  0  0  0
 31 33  1  1  0  0  0
 31 30  1  0  0  0  0
 31 32  1  0  0  0  0
 33 34  1  0  0  0  0
M  END
>  <MODEL>
9

>  <REMARK>
 VINA RESULT:      -4.1      3.846      6.731
  Name = 
  3 active torsions:
  status: ('A' for Active; 'I' for Inactive)
    1  A    between atoms: N_3  and  C_29
    2  A    between atoms: C_6  and  C_16
    3  A    between atoms: S_13  and  C_32
                            x       y       z     vdW  Elec       q    Type
                         _______ _______ _______ _____ _____    ______ ____

>  <TORSDO>
F 3

$$$$
