=
 OpenBabel11042410453D

 38 42  0  0  1  0  0  0  0  0999 V2000
  187.8610  170.5530  135.3950 C   0  0  0  0  0  3  0  0  0  0  0  0
  191.6640  175.1420  137.7360 N   0  0  0  0  0  0  0  0  0  0  0  0
  187.7740  171.8420  135.4760 N   0  0  0  0  0  0  0  0  0  0  0  0
  189.1790  170.1330  134.9310 C   0  0  0  0  0  2  0  0  0  0  0  0
  187.3360  177.5630  136.3180 C   0  0  0  0  0  0  0  0  0  0  0  0
  189.8390  171.2510  134.7010 C   0  0  2  0  0  3  0  0  0  0  0  0
  189.2430  175.0100  138.0000 C   0  0  0  0  0  2  0  0  0  0  0  0
  191.2570  171.3360  134.6840 N   0  0  0  0  0  0  0  0  0  0  0  0
  191.9250  174.1000  137.0050 C   0  0  0  0  0  3  0  0  0  0  0  0
  187.5270  176.3110  136.0280 C   0  0  0  0  0  0  0  0  0  0  0  0
  189.6930  178.2590  136.8540 C   0  0  0  0  0  2  0  0  0  0  0  0
  187.8510  175.0730  135.7990 C   0  0  0  0  0  3  0  0  0  0  0  0
  189.0090  172.4410  134.9910 C   0  0  2  0  0  3  0  0  0  0  0  0
  191.0540  173.3270  136.0920 C   0  0  0  0  0  0  0  0  0  0  0  0
  191.8300  172.3180  135.3150 C   0  0  0  0  0  3  0  0  0  0  0  0
  190.4600  175.9510  137.8710 C   0  0  2  0  0  0  0  0  0  0  0  0
  188.7750  174.3140  136.7170 C   0  0  1  0  0  3  0  0  0  0  0  0
  190.3560  176.8820  136.6380 C   0  0  0  0  0  2  0  0  0  0  0  0
  189.6890  173.3470  136.0060 C   0  0  0  0  0  0  0  0  0  0  0  0
  188.2410  178.1910  137.3350 C   0  0  0  0  0  2  0  0  0  0  0  0
  189.6080  177.1920  139.8470 C   0  0  0  0  0  0  0  0  0  0  0  0
  190.6410  176.7830  139.1470 C   0  0  0  0  0  0  0  0  0  0  0  0
  188.5820  177.5990  140.5490 C   0  0  0  0  0  3  0  0  0  0  0  0
  188.4940  177.4040  142.0030 C   0  0  0  0  0  0  0  0  0  0  0  0
  187.2690  177.4690  142.6860 C   0  0  0  0  0  3  0  0  0  0  0  0
  189.6690  177.1550  142.7220 C   0  0  0  0  0  3  0  0  0  0  0  0
  189.6240  176.9690  144.1070 C   0  0  0  0  0  3  0  0  0  0  0  0
  187.2230  177.2830  144.0700 C   0  0  0  0  0  3  0  0  0  0  0  0
  188.4000  177.0360  144.7840 C   0  0  0  0  0  0  0  0  0  0  0  0
  188.3490  176.8160  146.2580 C   0  0  0  0  0  2  0  0  0  0  0  0
  190.4560  176.6830  147.3790 O   0  0  0  0  0  1  0  0  0  0  0  0
  188.8990  178.2920  148.1660 C   0  0  0  0  0  1  0  0  0  0  0  0
  189.4650  177.5730  146.9610 C   0  0  2  0  0  3  0  0  0  0  0  0
  192.9580  177.2320  138.7930 O   0  0  0  0  0  0  0  0  0  0  0  0
  192.2320  177.4710  140.9440 O   0  0  0  0  0  1  0  0  0  0  0  0
  191.9990  177.1700  139.6080 C   0  0  0  0  0  0  0  0  0  0  0  0
  185.5770  177.7310  134.6010 C   0  0  0  0  0  1  0  0  0  0  0  0
  186.3190  178.2760  135.6810 O   0  0  0  0  0  0  0  0  0  0  0  0
  1  3  2  0  0  0  0
  2 16  1  0  0  0  0
  4  1  1  0  0  0  0
  5 20  1  0  0  0  0
  6  4  1  1  0  0  0
  6 13  1  0  0  0  0
  8  6  1  0  0  0  0
  8 15  2  0  0  0  0
  9  2  2  0  0  0  0
 10  5  2  0  0  0  0
 11 20  1  0  0  0  0
 12 10  2  0  0  0  0
 13  3  1  1  0  0  0
 13 19  1  0  0  0  0
 14  9  1  0  0  0  0
 15 14  1  0  0  0  0
 16  7  1  0  0  0  0
 16 22  1  1  0  0  0
 17 12  1  6  0  0  0
 17  7  1  0  0  0  0
 18 11  1  0  0  0  0
 18 16  1  0  0  0  0
 19 14  2  0  0  0  0
 19 17  1  0  0  0  0
 21 23  2  0  0  0  0
 22 36  1  0  0  0  0
 22 21  2  0  0  0  0
 23 24  1  0  0  0  0
 24 25  2  0  0  0  0
 24 26  1  0  0  0  0
 25 28  1  0  0  0  0
 26 27  2  0  0  0  0
 27 29  1  0  0  0  0
 28 29  2  0  0  0  0
 29 30  1  0  0  0  0
 30 33  1  0  0  0  0
 33 31  1  0  0  0  0
 33 32  1  1  0  0  0
 34 36  2  0  0  0  0
 36 35  1  0  0  0  0
 37 38  1  0  0  0  0
 38  5  1  0  0  0  0
M  END
>  <MODEL>
1

>  <REMARK>
 VINA RESULT:      -7.1      0.000      0.000
  Name = 
  6 active torsions:
  status: ('A' for Active; 'I' for Inactive)
    1  A    between atoms: C_3  and  C_36
    2  A    between atoms: C_11  and  O_38
    3  A    between atoms: C_12  and  C_24
    4  A    between atoms: C_12  and  C_30
    5  A    between atoms: C_21  and  C_25
    6  A    between atoms: C_25  and  C_32
                            x       y       z     vdW  Elec       q    Type
                         _______ _______ _______ _____ _____    ______ ____

>  <TORSDO>
F 6

$$$$
=
 OpenBabel11042410453D

 38 42  0  0  1  0  0  0  0  0999 V2000
  191.8080  175.6280  144.3070 C   0  0  0  0  0  3  0  0  0  0  0  0
  187.7460  178.3240  140.1550 N   0  0  0  0  0  0  0  0  0  0  0  0
  191.8450  175.8670  143.0340 N   0  0  0  0  0  0  0  0  0  0  0  0
  191.3160  176.7800  145.0540 C   0  0  0  0  0  2  0  0  0  0  0  0
  191.6700  176.6010  137.2850 C   0  0  0  0  0  0  0  0  0  0  0  0
  191.1130  177.7200  144.1510 C   0  0  2  0  0  3  0  0  0  0  0  0
  189.0730  176.3150  139.7660 C   0  0  0  0  0  2  0  0  0  0  0  0
  190.2300  178.8150  144.3440 N   0  0  0  0  0  0  0  0  0  0  0  0
  188.1090  178.6740  141.3520 C   0  0  0  0  0  3  0  0  0  0  0  0
  191.7290  176.5750  138.5820 C   0  0  0  0  0  0  0  0  0  0  0  0
  189.7850  178.2340  136.9590 C   0  0  0  0  0  2  0  0  0  0  0  0
  191.6580  176.6160  139.8800 C   0  0  0  0  0  3  0  0  0  0  0  0
  191.4570  177.2490  142.7920 C   0  0  2  0  0  3  0  0  0  0  0  0
  189.3400  178.3600  142.1110 C   0  0  0  0  0  0  0  0  0  0  0  0
  189.4130  179.1330  143.3840 C   0  0  0  0  0  3  0  0  0  0  0  0
  188.4330  177.5610  139.1200 C   0  0  2  0  0  0  0  0  0  0  0  0
  190.3370  176.5470  140.6020 C   0  0  1  0  0  3  0  0  0  0  0  0
  189.4830  178.4830  138.4520 C   0  0  0  0  0  2  0  0  0  0  0  0
  190.2730  177.3950  141.8480 C   0  0  0  0  0  0  0  0  0  0  0  0
  190.3320  176.8370  136.6510 C   0  0  0  0  0  2  0  0  0  0  0  0
  187.3680  175.9690  137.5390 C   0  0  0  0  0  0  0  0  0  0  0  0
  187.3610  177.1560  138.1010 C   0  0  0  0  0  0  0  0  0  0  0  0
  187.3700  174.7870  136.9800 C   0  0  0  0  0  3  0  0  0  0  0  0
  186.1730  173.9350  136.9320 C   0  0  0  0  0  0  0  0  0  0  0  0
  186.2320  172.5990  136.5060 C   0  0  0  0  0  3  0  0  0  0  0  0
  184.9420  174.4810  137.3150 C   0  0  0  0  0  3  0  0  0  0  0  0
  183.7820  173.7010  137.2790 C   0  0  0  0  0  3  0  0  0  0  0  0
  185.0730  171.8190  136.4690 C   0  0  0  0  0  3  0  0  0  0  0  0
  183.8450  172.3700  136.8520 C   0  0  0  0  0  0  0  0  0  0  0  0
  182.6120  171.5320  136.8330 C   0  0  0  0  0  2  0  0  0  0  0  0
  180.5930  171.8430  138.0760 O   0  0  0  0  0  1  0  0  0  0  0  0
  180.5590  172.4190  135.7740 C   0  0  0  0  0  1  0  0  0  0  0  0
  181.3710  172.3830  137.0500 C   0  0  2  0  0  3  0  0  0  0  0  0
  185.1000  177.9180  138.0410 O   0  0  0  0  0  1  0  0  0  0  0  0
  186.6090  179.2420  136.9530 O   0  0  0  0  0  0  0  0  0  0  0  0
  186.2990  178.1140  137.7030 C   0  0  0  0  0  0  0  0  0  0  0  0
  193.8730  175.5510  136.9520 C   0  0  0  0  0  1  0  0  0  0  0  0
  192.8310  176.4180  136.5320 O   0  0  0  0  0  0  0  0  0  0  0  0
  1  4  1  0  0  0  0
  2  9  2  0  0  0  0
  3  1  2  0  0  0  0
  5 10  2  0  0  0  0
  6  8  1  0  0  0  0
  6  4  1  1  0  0  0
  9 14  1  0  0  0  0
 10 12  2  0  0  0  0
 11 18  1  0  0  0  0
 12 17  1  0  0  0  0
 13 19  1  6  0  0  0
 13  3  1  0  0  0  0
 13  6  1  0  0  0  0
 14 15  1  0  0  0  0
 15  8  2  0  0  0  0
 16 22  1  6  0  0  0
 16  7  1  0  0  0  0
 16  2  1  0  0  0  0
 17  7  1  6  0  0  0
 17 19  1  0  0  0  0
 18 16  1  0  0  0  0
 19 14  2  0  0  0  0
 20 11  1  0  0  0  0
 20  5  1  0  0  0  0
 21 22  2  0  0  0  0
 23 21  2  0  0  0  0
 24 23  1  0  0  0  0
 24 26  1  0  0  0  0
 25 24  2  0  0  0  0
 27 26  2  0  0  0  0
 28 25  1  0  0  0  0
 28 29  2  0  0  0  0
 29 27  1  0  0  0  0
 30 29  1  0  0  0  0
 30 33  1  0  0  0  0
 33 32  1  6  0  0  0
 33 31  1  0  0  0  0
 35 36  2  0  0  0  0
 36 34  1  0  0  0  0
 36 22  1  0  0  0  0
 38 37  1  0  0  0  0
 38  5  1  0  0  0  0
M  END
>  <MODEL>
2

>  <REMARK>
 VINA RESULT:      -6.9      3.711      8.526
  Name = 
  6 active torsions:
  status: ('A' for Active; 'I' for Inactive)
    1  A    between atoms: C_3  and  C_36
    2  A    between atoms: C_11  and  O_38
    3  A    between atoms: C_12  and  C_24
    4  A    between atoms: C_12  and  C_30
    5  A    between atoms: C_21  and  C_25
    6  A    between atoms: C_25  and  C_32
                            x       y       z     vdW  Elec       q    Type
                         _______ _______ _______ _____ _____    ______ ____

>  <TORSDO>
F 6

$$$$
=
 OpenBabel11042410453D

 38 42  0  0  1  0  0  0  0  0999 V2000
  186.4990  171.9660  136.2470 C   0  0  0  0  0  3  0  0  0  0  0  0
  185.2050  178.1090  137.5110 N   0  0  0  0  0  0  0  0  0  0  0  0
  185.4060  172.6470  136.3900 N   0  0  0  0  0  0  0  0  0  0  0  0
  187.4610  172.6680  135.4050 C   0  0  0  0  0  2  0  0  0  0  0  0
  180.6250  175.7360  137.4980 C   0  0  0  0  0  0  0  0  0  0  0  0
  186.8500  173.7740  135.0260 C   0  0  2  0  0  3  0  0  0  0  0  0
  184.0670  176.1750  138.4680 C   0  0  0  0  0  2  0  0  0  0  0  0
  187.5370  174.9410  134.5970 N   0  0  0  0  0  0  0  0  0  0  0  0
  186.0620  177.5600  136.7040 C   0  0  0  0  0  3  0  0  0  0  0  0
  181.7020  175.1110  137.1270 C   0  0  0  0  0  0  0  0  0  0  0  0
  181.4160  178.1180  137.3410 C   0  0  0  0  0  2  0  0  0  0  0  0
  182.8510  174.6140  136.7750 C   0  0  0  0  0  3  0  0  0  0  0  0
  185.4820  173.8560  135.5830 C   0  0  2  0  0  3  0  0  0  0  0  0
  186.0580  176.2260  136.0630 C   0  0  0  0  0  0  0  0  0  0  0  0
  187.1560  176.0930  135.0620 C   0  0  0  0  0  3  0  0  0  0  0  0
  183.9200  177.6440  138.0180 C   0  0  2  0  0  0  0  0  0  0  0  0
  184.1450  175.1210  137.3580 C   0  0  1  0  0  3  0  0  0  0  0  0
  182.8630  177.8140  136.8980 C   0  0  0  0  0  2  0  0  0  0  0  0
  185.2940  175.1370  136.3810 C   0  0  0  0  0  0  0  0  0  0  0  0
  180.7860  177.0370  138.2240 C   0  0  0  0  0  2  0  0  0  0  0  0
  183.3010  178.0420  140.3900 C   0  0  0  0  0  0  0  0  0  0  0  0
  183.5760  178.5470  139.2090 C   0  0  0  0  0  0  0  0  0  0  0  0
  183.0300  177.5440  141.5690 C   0  0  0  0  0  3  0  0  0  0  0  0
  183.6760  178.0260  142.7970 C   0  0  0  0  0  0  0  0  0  0  0  0
  182.9370  178.5690  143.8590 C   0  0  0  0  0  3  0  0  0  0  0  0
  185.0710  177.9450  142.9010 C   0  0  0  0  0  3  0  0  0  0  0  0
  185.7210  178.3980  144.0530 C   0  0  0  0  0  3  0  0  0  0  0  0
  183.5850  179.0220  145.0110 C   0  0  0  0  0  3  0  0  0  0  0  0
  184.9790  178.9410  145.1090 C   0  0  0  0  0  0  0  0  0  0  0  0
  185.6690  179.4040  146.3470 C   0  0  0  0  0  2  0  0  0  0  0  0
  187.1110  178.7220  148.1280 O   0  0  0  0  0  1  0  0  0  0  0  0
  187.2930  177.5570  146.0690 C   0  0  0  0  0  1  0  0  0  0  0  0
  186.3670  178.2480  147.0460 C   0  0  2  0  0  3  0  0  0  0  0  0
  184.5730  180.6850  138.8500 O   0  0  0  0  0  0  0  0  0  0  0  0
  182.3040  180.6930  139.1060 O   0  0  0  0  0  1  0  0  0  0  0  0
  183.5190  180.0210  139.0460 C   0  0  0  0  0  0  0  0  0  0  0  0
  178.9820  173.9090  137.6770 C   0  0  0  0  0  1  0  0  0  0  0  0
  179.3720  175.1920  137.2100 O   0  0  0  0  0  0  0  0  0  0  0  0
  1  3  2  0  0  0  0
  2 16  1  0  0  0  0
  4  1  1  0  0  0  0
  5 20  1  0  0  0  0
  6  4  1  1  0  0  0
  6 13  1  0  0  0  0
  8  6  1  0  0  0  0
  8 15  2  0  0  0  0
  9  2  2  0  0  0  0
 10  5  2  0  0  0  0
 11 20  1  0  0  0  0
 12 10  2  0  0  0  0
 13 19  1  1  0  0  0
 13  3  1  0  0  0  0
 14 19  2  0  0  0  0
 14  9  1  0  0  0  0
 15 14  1  0  0  0  0
 16  7  1  0  0  0  0
 16 22  1  1  0  0  0
 17 12  1  6  0  0  0
 17  7  1  0  0  0  0
 18 11  1  0  0  0  0
 18 16  1  0  0  0  0
 19 17  1  0  0  0  0
 21 23  2  0  0  0  0
 22 21  2  0  0  0  0
 23 24  1  0  0  0  0
 24 26  2  0  0  0  0
 24 25  1  0  0  0  0
 25 28  2  0  0  0  0
 26 27  1  0  0  0  0
 27 29  2  0  0  0  0
 28 29  1  0  0  0  0
 29 30  1  0  0  0  0
 30 33  1  0  0  0  0
 33 32  1  6  0  0  0
 33 31  1  0  0  0  0
 34 36  2  0  0  0  0
 36 35  1  0  0  0  0
 36 22  1  0  0  0  0
 38  5  1  0  0  0  0
 38 37  1  0  0  0  0
M  END
>  <MODEL>
3

>  <REMARK>
 VINA RESULT:      -6.4      4.233      5.967
  Name = 
  6 active torsions:
  status: ('A' for Active; 'I' for Inactive)
    1  A    between atoms: C_3  and  C_36
    2  A    between atoms: C_11  and  O_38
    3  A    between atoms: C_12  and  C_24
    4  A    between atoms: C_12  and  C_30
    5  A    between atoms: C_21  and  C_25
    6  A    between atoms: C_25  and  C_32
                            x       y       z     vdW  Elec       q    Type
                         _______ _______ _______ _____ _____    ______ ____

>  <TORSDO>
F 6

$$$$
=
 OpenBabel11042410453D

 38 42  0  0  1  0  0  0  0  0999 V2000
  190.4550  175.8820  143.0180 C   0  0  0  0  0  3  0  0  0  0  0  0
  186.9700  177.7500  137.9810 N   0  0  0  0  0  0  0  0  0  0  0  0
  190.6920  175.9980  141.7500 N   0  0  0  0  0  0  0  0  0  0  0  0
  189.7520  177.0500  143.5400 C   0  0  0  0  0  2  0  0  0  0  0  0
  191.4540  176.1410  136.0030 C   0  0  0  0  0  0  0  0  0  0  0  0
  189.6340  177.8720  142.5150 C   0  0  2  0  0  3  0  0  0  0  0  0
  188.4990  175.8510  138.0440 C   0  0  0  0  0  2  0  0  0  0  0  0
  188.6480  178.8900  142.4360 N   0  0  0  0  0  0  0  0  0  0  0  0
  187.0930  178.2500  139.1730 C   0  0  0  0  0  3  0  0  0  0  0  0
  191.2900  176.2480  137.2870 C   0  0  0  0  0  0  0  0  0  0  0  0
  189.5310  177.5430  135.1910 C   0  0  0  0  0  2  0  0  0  0  0  0
  190.9940  176.4110  138.5430 C   0  0  0  0  0  3  0  0  0  0  0  0
  190.2440  177.3050  141.2920 C   0  0  2  0  0  3  0  0  0  0  0  0
  188.1950  178.1330  140.1530 C   0  0  0  0  0  0  0  0  0  0  0  0
  187.9860  179.0310  141.3260 C   0  0  0  0  0  3  0  0  0  0  0  0
  187.8840  176.9590  137.1650 C   0  0  2  0  0  0  0  0  0  0  0  0
  189.5770  176.2850  139.0430 C   0  0  1  0  0  3  0  0  0  0  0  0
  188.9570  177.9080  136.5770 C   0  0  0  0  0  2  0  0  0  0  0  0
  189.2330  177.2420  140.1580 C   0  0  0  0  0  0  0  0  0  0  0  0
  190.2320  176.1830  135.1370 C   0  0  0  0  0  2  0  0  0  0  0  0
  187.1840  175.1000  135.6750 C   0  0  0  0  0  0  0  0  0  0  0  0
  187.0390  176.3540  136.0370 C   0  0  0  0  0  0  0  0  0  0  0  0
  187.3230  173.8500  135.3130 C   0  0  0  0  0  3  0  0  0  0  0  0
  186.1790  172.9380  135.1730 C   0  0  0  0  0  0  0  0  0  0  0  0
  186.2890  171.5660  135.4490 C   0  0  0  0  0  3  0  0  0  0  0  0
  184.9520  173.4570  134.7420 C   0  0  0  0  0  3  0  0  0  0  0  0
  183.8440  172.6180  134.5940 C   0  0  0  0  0  3  0  0  0  0  0  0
  185.1810  170.7260  135.3000 C   0  0  0  0  0  3  0  0  0  0  0  0
  183.9580  171.2500  134.8690 C   0  0  0  0  0  0  0  0  0  0  0  0
  182.7710  170.3580  134.7310 C   0  0  0  0  0  2  0  0  0  0  0  0
  181.7690  171.2280  136.7200 O   0  0  0  0  0  1  0  0  0  0  0  0
  180.3640  170.0470  135.2160 C   0  0  0  0  0  1  0  0  0  0  0  0
  181.5400  170.9880  135.3640 C   0  0  2  0  0  3  0  0  0  0  0  0
  186.4300  178.1540  134.5930 O   0  0  0  0  0  0  0  0  0  0  0  0
  184.6910  176.9090  135.3940 O   0  0  0  0  0  1  0  0  0  0  0  0
  186.0500  177.1850  135.3060 C   0  0  0  0  0  0  0  0  0  0  0  0
  193.7010  175.1330  136.0580 C   0  0  0  0  0  1  0  0  0  0  0  0
  192.7380  175.9980  135.4750 O   0  0  0  0  0  0  0  0  0  0  0  0
  1  4  1  0  0  0  0
  2  9  2  0  0  0  0
  3  1  2  0  0  0  0
  5 10  2  0  0  0  0
  6  4  1  6  0  0  0
  8  6  1  0  0  0  0
  9 14  1  0  0  0  0
 10 12  2  0  0  0  0
 11 18  1  0  0  0  0
 12 17  1  0  0  0  0
 13 19  1  6  0  0  0
 13  3  1  0  0  0  0
 13  6  1  0  0  0  0
 14 19  2  0  0  0  0
 14 15  1  0  0  0  0
 15  8  2  0  0  0  0
 16 22  1  6  0  0  0
 16  2  1  0  0  0  0
 16  7  1  0  0  0  0
 17  7  1  6  0  0  0
 17 19  1  0  0  0  0
 18 16  1  0  0  0  0
 20 11  1  0  0  0  0
 20  5  1  0  0  0  0
 21 22  2  0  0  0  0
 23 21  2  0  0  0  0
 24 23  1  0  0  0  0
 24 25  1  0  0  0  0
 26 24  2  0  0  0  0
 27 26  1  0  0  0  0
 27 29  2  0  0  0  0
 28 25  2  0  0  0  0
 29 28  1  0  0  0  0
 30 29  1  0  0  0  0
 30 33  1  0  0  0  0
 33 32  1  1  0  0  0
 33 31  1  0  0  0  0
 34 36  2  0  0  0  0
 36 35  1  0  0  0  0
 36 22  1  0  0  0  0
 38  5  1  0  0  0  0
 38 37  1  0  0  0  0
M  END
>  <MODEL>
4

>  <REMARK>
 VINA RESULT:      -6.1      3.507      8.866
  Name = 
  6 active torsions:
  status: ('A' for Active; 'I' for Inactive)
    1  A    between atoms: C_3  and  C_36
    2  A    between atoms: C_11  and  O_38
    3  A    between atoms: C_12  and  C_24
    4  A    between atoms: C_12  and  C_30
    5  A    between atoms: C_21  and  C_25
    6  A    between atoms: C_25  and  C_32
                            x       y       z     vdW  Elec       q    Type
                         _______ _______ _______ _____ _____    ______ ____

>  <TORSDO>
F 6

$$$$
=
 OpenBabel11042410453D

 38 42  0  0  1  0  0  0  0  0999 V2000
  186.8260  177.0940  144.9120 C   0  0  0  0  0  3  0  0  0  0  0  0
  181.4990  178.4630  141.6320 N   0  0  0  0  0  0  0  0  0  0  0  0
  186.5890  177.5010  143.7060 N   0  0  0  0  0  0  0  0  0  0  0  0
  186.0370  177.8340  145.8920 C   0  0  0  0  0  2  0  0  0  0  0  0
  185.3400  178.8850  138.2150 C   0  0  0  0  0  0  0  0  0  0  0  0
  185.3630  178.7260  145.1930 C   0  0  2  0  0  3  0  0  0  0  0  0
  183.4300  177.2360  140.7870 C   0  0  0  0  0  2  0  0  0  0  0  0
  184.1620  179.3330  145.6460 N   0  0  0  0  0  0  0  0  0  0  0  0
  181.8630  178.7610  142.8430 C   0  0  0  0  0  3  0  0  0  0  0  0
  185.5860  178.7070  139.4780 C   0  0  0  0  0  0  0  0  0  0  0  0
  182.9450  179.6450  138.3320 C   0  0  0  0  0  2  0  0  0  0  0  0
  185.6870  178.5370  140.7630 C   0  0  0  0  0  3  0  0  0  0  0  0
  185.6670  178.6270  143.7480 C   0  0  2  0  0  3  0  0  0  0  0  0
  183.2130  178.8700  143.4390 C   0  0  0  0  0  0  0  0  0  0  0  0
  183.1600  179.4240  144.8230 C   0  0  0  0  0  3  0  0  0  0  0  0
  182.2750  178.1940  140.4280 C   0  0  2  0  0  0  0  0  0  0  0  0
  184.6100  177.8410  141.5560 C   0  0  1  0  0  3  0  0  0  0  0  0
  182.7830  179.5430  139.8640 C   0  0  0  0  0  2  0  0  0  0  0  0
  184.3990  178.4110  142.9370 C   0  0  0  0  0  0  0  0  0  0  0  0
  183.9400  178.6460  137.7350 C   0  0  0  0  0  2  0  0  0  0  0  0
  181.7420  176.6940  138.5210 C   0  0  0  0  0  0  0  0  0  0  0  0
  181.3110  177.5350  139.4340 C   0  0  0  0  0  0  0  0  0  0  0  0
  182.1660  175.8530  137.6140 C   0  0  0  0  0  3  0  0  0  0  0  0
  181.5440  174.5390  137.4030 C   0  0  0  0  0  0  0  0  0  0  0  0
  182.2420  173.4750  136.8100 C   0  0  0  0  0  3  0  0  0  0  0  0
  180.2130  174.3530  137.7970 C   0  0  0  0  0  3  0  0  0  0  0  0
  179.5860  173.1170  137.6080 C   0  0  0  0  0  3  0  0  0  0  0  0
  181.6160  172.2400  136.6210 C   0  0  0  0  0  3  0  0  0  0  0  0
  180.2870  172.0590  137.0160 C   0  0  0  0  0  0  0  0  0  0  0  0
  179.6260  170.7350  136.8340 C   0  0  0  0  0  2  0  0  0  0  0  0
  180.4340  169.9330  134.7320 O   0  0  0  0  0  1  0  0  0  0  0  0
  178.9480  171.7830  134.6960 C   0  0  0  0  0  1  0  0  0  0  0  0
  179.3170  170.4780  135.3670 C   0  0  2  0  0  3  0  0  0  0  0  0
  179.4420  178.9610  139.0250 O   0  0  0  0  0  0  0  0  0  0  0  0
  178.9460  176.9440  139.9710 O   0  0  0  0  0  1  0  0  0  0  0  0
  179.8620  177.8560  139.4620 C   0  0  0  0  0  0  0  0  0  0  0  0
  187.4640  178.4520  137.0440 C   0  0  0  0  0  1  0  0  0  0  0  0
  186.3630  179.2930  137.3580 O   0  0  0  0  0  0  0  0  0  0  0  0
  1  4  1  0  0  0  0
  2  9  2  0  0  0  0
  3 13  1  0  0  0  0
  3  1  2  0  0  0  0
  5 10  2  0  0  0  0
  6  8  1  0  0  0  0
  6  4  1  6  0  0  0
  7 17  1  0  0  0  0
  9 14  1  0  0  0  0
 10 12  2  0  0  0  0
 11 18  1  0  0  0  0
 13 19  1  6  0  0  0
 13  6  1  0  0  0  0
 14 15  1  0  0  0  0
 15  8  2  0  0  0  0
 16 22  1  6  0  0  0
 16  7  1  0  0  0  0
 16  2  1  0  0  0  0
 17 12  1  6  0  0  0
 17 19  1  0  0  0  0
 18 16  1  0  0  0  0
 19 14  2  0  0  0  0
 20  5  1  0  0  0  0
 20 11  1  0  0  0  0
 21 22  2  0  0  0  0
 22 36  1  0  0  0  0
 23 21  2  0  0  0  0
 24 23  1  0  0  0  0
 24 26  1  0  0  0  0
 25 24  2  0  0  0  0
 27 26  2  0  0  0  0
 28 25  1  0  0  0  0
 28 29  2  0  0  0  0
 29 27  1  0  0  0  0
 30 29  1  0  0  0  0
 31 33  1  0  0  0  0
 33 32  1  6  0  0  0
 33 30  1  0  0  0  0
 34 36  2  0  0  0  0
 36 35  1  0  0  0  0
 37 38  1  0  0  0  0
 38  5  1  0  0  0  0
M  END
>  <MODEL>
5

>  <REMARK>
 VINA RESULT:      -6.0      6.256     11.074
  Name = 
  6 active torsions:
  status: ('A' for Active; 'I' for Inactive)
    1  A    between atoms: C_3  and  C_36
    2  A    between atoms: C_11  and  O_38
    3  A    between atoms: C_12  and  C_24
    4  A    between atoms: C_12  and  C_30
    5  A    between atoms: C_21  and  C_25
    6  A    between atoms: C_25  and  C_32
                            x       y       z     vdW  Elec       q    Type
                         _______ _______ _______ _____ _____    ______ ____

>  <TORSDO>
F 6

$$$$
=
 OpenBabel11042410453D

 38 42  0  0  1  0  0  0  0  0999 V2000
  194.9170  175.5440  135.3090 C   0  0  0  0  0  3  0  0  0  0  0  0
  188.5690  175.7820  136.1190 N   0  0  0  0  0  0  0  0  0  0  0  0
  194.1450  175.8560  136.3010 N   0  0  0  0  0  0  0  0  0  0  0  0
  194.4710  174.3220  134.6470 C   0  0  0  0  0  2  0  0  0  0  0  0
  190.5630  177.6470  140.4950 C   0  0  0  0  0  0  0  0  0  0  0  0
  193.4250  173.9140  135.3390 C   0  0  2  0  0  3  0  0  0  0  0  0
  190.1820  177.4280  136.9190 C   0  0  0  0  0  2  0  0  0  0  0  0
  192.4210  173.0590  134.8110 N   0  0  0  0  0  0  0  0  0  0  0  0
  189.3300  174.8940  135.5540 C   0  0  0  0  0  3  0  0  0  0  0  0
  191.3250  177.1160  139.5870 C   0  0  0  0  0  0  0  0  0  0  0  0
  188.3250  176.7530  139.7770 C   0  0  0  0  0  2  0  0  0  0  0  0
  191.9640  176.5530  138.6050 C   0  0  0  0  0  3  0  0  0  0  0  0
  193.1340  174.8220  136.4700 C   0  0  2  0  0  3  0  0  0  0  0  0
  190.7630  174.5870  135.7620 C   0  0  0  0  0  0  0  0  0  0  0  0
  191.1740  173.3570  135.0250 C   0  0  0  0  0  3  0  0  0  0  0  0
  188.8290  176.7370  137.1890 C   0  0  2  0  0  0  0  0  0  0  0  0
  191.4420  176.6000  137.1910 C   0  0  1  0  0  3  0  0  0  0  0  0
  188.8150  175.9750  138.5370 C   0  0  0  0  0  2  0  0  0  0  0  0
  191.7080  175.3450  136.3970 C   0  0  0  0  0  0  0  0  0  0  0  0
  189.1560  177.9950  140.1120 C   0  0  0  0  0  2  0  0  0  0  0  0
  186.4260  177.3670  137.1830 C   0  0  0  0  0  0  0  0  0  0  0  0
  187.6800  177.7530  137.1460 C   0  0  0  0  0  0  0  0  0  0  0  0
  185.1750  176.9860  137.2230 C   0  0  0  0  0  3  0  0  0  0  0  0
  184.2000  177.5730  138.1520 C   0  0  0  0  0  0  0  0  0  0  0  0
  182.9900  176.9310  138.4600 C   0  0  0  0  0  3  0  0  0  0  0  0
  184.4890  178.8120  138.7370 C   0  0  0  0  0  3  0  0  0  0  0  0
  183.5840  179.4030  139.6230 C   0  0  0  0  0  3  0  0  0  0  0  0
  182.0840  177.5210  139.3450 C   0  0  0  0  0  3  0  0  0  0  0  0
  182.3780  178.7600  139.9260 C   0  0  0  0  0  0  0  0  0  0  0  0
  181.4210  179.3790  140.8880 C   0  0  0  0  0  2  0  0  0  0  0  0
  180.0860  178.7580  142.7710 O   0  0  0  0  0  1  0  0  0  0  0  0
  182.4200  179.0030  143.1200 C   0  0  0  0  0  1  0  0  0  0  0  0
  181.3300  178.5630  142.1680 C   0  0  2  0  0  3  0  0  0  0  0  0
  187.1800  179.9650  136.4040 O   0  0  0  0  0  0  0  0  0  0  0  0
  189.0960  179.7530  137.6270 O   0  0  0  0  0  1  0  0  0  0  0  0
  187.9630  179.2060  137.0360 C   0  0  0  0  0  0  0  0  0  0  0  0
  190.8580  176.9490  142.8390 C   0  0  0  0  0  1  0  0  0  0  0  0
  191.0640  177.8710  141.7790 O   0  0  0  0  0  0  0  0  0  0  0  0
  1  3  2  0  0  0  0
  2 16  1  0  0  0  0
  4  1  1  0  0  0  0
  5 38  1  0  0  0  0
  6  4  1  6  0  0  0
  6 13  1  0  0  0  0
  7 16  1  0  0  0  0
  8 15  2  0  0  0  0
  8  6  1  0  0  0  0
  9 14  1  0  0  0  0
  9  2  2  0  0  0  0
 10  5  2  0  0  0  0
 11 20  1  0  0  0  0
 12 10  2  0  0  0  0
 13  3  1  6  0  0  0
 14 19  2  0  0  0  0
 15 14  1  0  0  0  0
 16 22  1  1  0  0  0
 16 18  1  0  0  0  0
 17  7  1  1  0  0  0
 17 12  1  0  0  0  0
 18 11  1  0  0  0  0
 19 13  1  0  0  0  0
 19 17  1  0  0  0  0
 20  5  1  0  0  0  0
 21 23  2  0  0  0  0
 22 21  2  0  0  0  0
 23 24  1  0  0  0  0
 24 25  2  0  0  0  0
 24 26  1  0  0  0  0
 25 28  1  0  0  0  0
 26 27  2  0  0  0  0
 27 29  1  0  0  0  0
 28 29  2  0  0  0  0
 29 30  1  0  0  0  0
 30 33  1  0  0  0  0
 33 31  1  0  0  0  0
 33 32  1  1  0  0  0
 34 36  2  0  0  0  0
 36 22  1  0  0  0  0
 36 35  1  0  0  0  0
 38 37  1  0  0  0  0
M  END
>  <MODEL>
6

>  <REMARK>
 VINA RESULT:      -5.7      3.426      6.004
  Name = 
  6 active torsions:
  status: ('A' for Active; 'I' for Inactive)
    1  A    between atoms: C_3  and  C_36
    2  A    between atoms: C_11  and  O_38
    3  A    between atoms: C_12  and  C_24
    4  A    between atoms: C_12  and  C_30
    5  A    between atoms: C_21  and  C_25
    6  A    between atoms: C_25  and  C_32
                            x       y       z     vdW  Elec       q    Type
                         _______ _______ _______ _____ _____    ______ ____

>  <TORSDO>
F 6

$$$$
=
 OpenBabel11042410453D

 38 42  0  0  1  0  0  0  0  0999 V2000
  181.1080  180.0980  138.2620 C   0  0  0  0  0  3  0  0  0  0  0  0
  187.0430  178.2480  139.7980 N   0  0  0  0  0  0  0  0  0  0  0  0
  181.9220  179.2040  137.7980 N   0  0  0  0  0  0  0  0  0  0  0  0
  181.0600  180.0740  139.7200 C   0  0  0  0  0  2  0  0  0  0  0  0
  185.8440  175.5680  135.5570 C   0  0  0  0  0  0  0  0  0  0  0  0
  181.8570  179.0850  140.0780 C   0  0  2  0  0  3  0  0  0  0  0  0
  186.1740  178.5580  137.5400 C   0  0  0  0  0  2  0  0  0  0  0  0
  182.4630  178.9910  141.3590 N   0  0  0  0  0  0  0  0  0  0  0  0
  186.0080  178.5160  140.5360 C   0  0  0  0  0  3  0  0  0  0  0  0
  184.9520  176.2920  136.1640 C   0  0  0  0  0  0  0  0  0  0  0  0
  187.5770  175.3840  137.3700 C   0  0  0  0  0  2  0  0  0  0  0  0
  184.1630  177.0430  136.8730 C   0  0  0  0  0  3  0  0  0  0  0  0
  182.4550  178.4170  138.9010 C   0  0  2  0  0  3  0  0  0  0  0  0
  184.5640  178.4800  140.2140 C   0  0  0  0  0  0  0  0  0  0  0  0
  183.7240  178.6870  141.4300 C   0  0  0  0  0  3  0  0  0  0  0  0
  187.1520  177.7610  138.4290 C   0  0  2  0  0  0  0  0  0  0  0  0
  184.6880  178.2090  137.6710 C   0  0  1  0  0  3  0  0  0  0  0  0
  186.8470  176.2430  138.4250 C   0  0  0  0  0  2  0  0  0  0  0  0
  183.9730  178.4270  138.9820 C   0  0  0  0  0  0  0  0  0  0  0  0
  187.2830  175.7810  135.9200 C   0  0  0  0  0  2  0  0  0  0  0  0
  189.6020  177.3800  138.5750 C   0  0  0  0  0  0  0  0  0  0  0  0
  188.6040  178.0090  137.9990 C   0  0  0  0  0  0  0  0  0  0  0  0
  190.5990  176.7520  139.1430 C   0  0  0  0  0  3  0  0  0  0  0  0
  191.6430  176.0640  138.3690 C   0  0  0  0  0  0  0  0  0  0  0  0
  191.3740  174.8970  137.6370 C   0  0  0  0  0  3  0  0  0  0  0  0
  192.9410  176.5890  138.3760 C   0  0  0  0  0  3  0  0  0  0  0  0
  193.9610  175.9590  137.6550 C   0  0  0  0  0  3  0  0  0  0  0  0
  192.3920  174.2670  136.9170 C   0  0  0  0  0  3  0  0  0  0  0  0
  193.6880  174.7950  136.9270 C   0  0  0  0  0  0  0  0  0  0  0  0
  194.7700  174.1350  136.1410 C   0  0  0  0  0  2  0  0  0  0  0  0
  197.1210  173.7030  136.1620 O   0  0  0  0  0  1  0  0  0  0  0  0
  195.8230  172.7710  137.9170 C   0  0  0  0  0  1  0  0  0  0  0  0
  196.0200  173.9470  136.9850 C   0  0  2  0  0  3  0  0  0  0  0  0
  189.0570  180.2150  137.2100 O   0  0  0  0  0  1  0  0  0  0  0  0
  189.0600  178.5840  135.6120 O   0  0  0  0  0  0  0  0  0  0  0  0
  188.9160  178.9930  136.9320 C   0  0  0  0  0  0  0  0  0  0  0  0
  184.2550  173.8670  134.7500 C   0  0  0  0  0  1  0  0  0  0  0  0
  185.4460  174.6270  134.6060 O   0  0  0  0  0  0  0  0  0  0  0  0
  1  4  1  0  0  0  0
  2  9  2  0  0  0  0
  3  1  2  0  0  0  0
  5 20  1  0  0  0  0
  5 10  2  0  0  0  0
  6  4  1  6  0  0  0
  6  8  1  0  0  0  0
  7 17  1  0  0  0  0
  7 16  1  0  0  0  0
  8 15  2  0  0  0  0
 10 12  2  0  0  0  0
 11 18  1  0  0  0  0
 13  3  1  6  0  0  0
 13 19  1  0  0  0  0
 13  6  1  0  0  0  0
 14  9  1  0  0  0  0
 14 15  1  0  0  0  0
 16 22  1  6  0  0  0
 16  2  1  0  0  0  0
 17 12  1  1  0  0  0
 17 19  1  0  0  0  0
 18 16  1  0  0  0  0
 19 14  2  0  0  0  0
 20 11  1  0  0  0  0
 21 23  2  0  0  0  0
 22 21  2  0  0  0  0
 24 26  1  0  0  0  0
 24 23  1  0  0  0  0
 25 24  2  0  0  0  0
 27 26  2  0  0  0  0
 28 29  2  0  0  0  0
 28 25  1  0  0  0  0
 29 27  1  0  0  0  0
 30 29  1  0  0  0  0
 30 33  1  0  0  0  0
 31 33  1  0  0  0  0
 33 32  1  1  0  0  0
 35 36  2  0  0  0  0
 36 34  1  0  0  0  0
 36 22  1  0  0  0  0
 38 37  1  0  0  0  0
 38  5  1  0  0  0  0
M  END
>  <MODEL>
7

>  <REMARK>
 VINA RESULT:      -5.5      4.509      8.180
  Name = 
  6 active torsions:
  status: ('A' for Active; 'I' for Inactive)
    1  A    between atoms: C_3  and  C_36
    2  A    between atoms: C_11  and  O_38
    3  A    between atoms: C_12  and  C_24
    4  A    between atoms: C_12  and  C_30
    5  A    between atoms: C_21  and  C_25
    6  A    between atoms: C_25  and  C_32
                            x       y       z     vdW  Elec       q    Type
                         _______ _______ _______ _____ _____    ______ ____

>  <TORSDO>
F 6

$$$$
=
 OpenBabel11042410453D

 38 42  0  0  1  0  0  0  0  0999 V2000
  196.3950  175.0340  136.1660 C   0  0  0  0  0  3  0  0  0  0  0  0
  190.1030  174.4040  135.1570 N   0  0  0  0  0  0  0  0  0  0  0  0
  195.3370  175.3330  136.8500 N   0  0  0  0  0  0  0  0  0  0  0  0
  196.3030  173.6940  135.5960 C   0  0  0  0  0  2  0  0  0  0  0  0
  190.5080  177.0160  139.5860 C   0  0  0  0  0  0  0  0  0  0  0  0
  195.1520  173.2120  136.0260 C   0  0  2  0  0  3  0  0  0  0  0  0
  191.2150  176.3510  136.1160 C   0  0  0  0  0  2  0  0  0  0  0  0
  194.4500  172.1630  135.3750 N   0  0  0  0  0  0  0  0  0  0  0  0
  191.0910  173.5840  134.9600 C   0  0  0  0  0  3  0  0  0  0  0  0
  191.5570  176.5080  139.0110 C   0  0  0  0  0  0  0  0  0  0  0  0
  188.6930  175.7220  138.4210 C   0  0  0  0  0  2  0  0  0  0  0  0
  192.5150  175.9430  138.3370 C   0  0  0  0  0  3  0  0  0  0  0  0
  194.4430  174.1840  136.8860 C   0  0  2  0  0  3  0  0  0  0  0  0
  192.4250  173.5200  135.5970 C   0  0  0  0  0  0  0  0  0  0  0  0
  193.1690  172.2920  135.1910 C   0  0  0  0  0  3  0  0  0  0  0  0
  189.9290  175.4990  136.1030 C   0  0  2  0  0  0  0  0  0  0  0  0
  192.4260  175.7560  136.8430 C   0  0  1  0  0  3  0  0  0  0  0  0
  189.6090  174.8950  137.4930 C   0  0  0  0  0  2  0  0  0  0  0  0
  193.0520  174.4760  136.3470 C   0  0  0  0  0  0  0  0  0  0  0  0
  189.2450  177.1040  138.7840 C   0  0  0  0  0  2  0  0  0  0  0  0
  187.5900  175.7500  135.3070 C   0  0  0  0  0  0  0  0  0  0  0  0
  188.7370  176.3200  135.5960 C   0  0  0  0  0  0  0  0  0  0  0  0
  186.4440  175.1870  135.0210 C   0  0  0  0  0  3  0  0  0  0  0  0
  185.1650  175.6910  135.5400 C   0  0  0  0  0  0  0  0  0  0  0  0
  183.9340  175.1910  135.0880 C   0  0  0  0  0  3  0  0  0  0  0  0
  185.1830  176.7040  136.5060 C   0  0  0  0  0  3  0  0  0  0  0  0
  183.9860  177.2110  137.0210 C   0  0  0  0  0  3  0  0  0  0  0  0
  182.7370  175.6980  135.6010 C   0  0  0  0  0  3  0  0  0  0  0  0
  182.7600  176.7110  136.5650 C   0  0  0  0  0  0  0  0  0  0  0  0
  181.4830  177.2360  137.1280 C   0  0  0  0  0  2  0  0  0  0  0  0
  180.9660  178.0580  139.3130 O   0  0  0  0  0  1  0  0  0  0  0  0
  181.4060  179.6610  137.6190 C   0  0  0  0  0  1  0  0  0  0  0  0
  181.7490  178.2990  138.1830 C   0  0  2  0  0  3  0  0  0  0  0  0
  189.7170  178.2510  134.5940 O   0  0  0  0  0  0  0  0  0  0  0  0
  188.0400  178.6670  136.0860 O   0  0  0  0  0  1  0  0  0  0  0  0
  188.8620  177.7860  135.3950 C   0  0  0  0  0  0  0  0  0  0  0  0
  191.8100  177.4840  141.6250 C   0  0  0  0  0  1  0  0  0  0  0  0
  190.5840  177.4510  140.9100 O   0  0  0  0  0  0  0  0  0  0  0  0
  1  3  2  0  0  0  0
  2 16  1  0  0  0  0
  3 13  1  0  0  0  0
  4  1  1  0  0  0  0
  5 38  1  0  0  0  0
  6  4  1  6  0  0  0
  6 13  1  0  0  0  0
  8  6  1  0  0  0  0
  9  2  2  0  0  0  0
  9 14  1  0  0  0  0
 10  5  2  0  0  0  0
 11 20  1  0  0  0  0
 12 10  2  0  0  0  0
 13 19  1  6  0  0  0
 14 19  2  0  0  0  0
 15  8  2  0  0  0  0
 15 14  1  0  0  0  0
 16 22  1  6  0  0  0
 16  7  1  0  0  0  0
 16 18  1  0  0  0  0
 17  7  1  1  0  0  0
 17 12  1  0  0  0  0
 18 11  1  0  0  0  0
 19 17  1  0  0  0  0
 20  5  1  0  0  0  0
 21 22  2  0  0  0  0
 23 21  2  0  0  0  0
 23 24  1  0  0  0  0
 24 26  1  0  0  0  0
 25 24  2  0  0  0  0
 25 28  1  0  0  0  0
 26 27  2  0  0  0  0
 28 29  2  0  0  0  0
 29 27  1  0  0  0  0
 29 30  1  0  0  0  0
 30 33  1  0  0  0  0
 33 32  1  6  0  0  0
 33 31  1  0  0  0  0
 34 36  2  0  0  0  0
 36 22  1  0  0  0  0
 36 35  1  0  0  0  0
 38 37  1  0  0  0  0
M  END
>  <MODEL>
8

>  <REMARK>
 VINA RESULT:      -5.1      3.207      6.961
  Name = 
  6 active torsions:
  status: ('A' for Active; 'I' for Inactive)
    1  A    between atoms: C_3  and  C_36
    2  A    between atoms: C_11  and  O_38
    3  A    between atoms: C_12  and  C_24
    4  A    between atoms: C_12  and  C_30
    5  A    between atoms: C_21  and  C_25
    6  A    between atoms: C_25  and  C_32
                            x       y       z     vdW  Elec       q    Type
                         _______ _______ _______ _____ _____    ______ ____

>  <TORSDO>
F 6

$$$$
=
 OpenBabel11042410453D

 38 42  0  0  1  0  0  0  0  0999 V2000
  184.8180  180.0970  144.1520 C   0  0  0  0  0  3  0  0  0  0  0  0
  189.3900  177.0530  140.8600 N   0  0  0  0  0  0  0  0  0  0  0  0
  184.8910  179.6000  142.9580 N   0  0  0  0  0  0  0  0  0  0  0  0
  185.3620  179.1800  145.1480 C   0  0  0  0  0  2  0  0  0  0  0  0
  185.5310  177.7330  137.5060 C   0  0  0  0  0  0  0  0  0  0  0  0
  185.7130  178.1020  144.4730 C   0  0  2  0  0  3  0  0  0  0  0  0
  187.9120  178.7890  139.9950 C   0  0  0  0  0  2  0  0  0  0  0  0
  186.6780  177.1680  144.9340 N   0  0  0  0  0  0  0  0  0  0  0  0
  188.9790  176.9180  142.0850 C   0  0  0  0  0  3  0  0  0  0  0  0
  185.3800  178.0160  138.7650 C   0  0  0  0  0  0  0  0  0  0  0  0
  187.5770  176.2750  137.6220 C   0  0  0  0  0  2  0  0  0  0  0  0
  185.3640  178.2480  140.0440 C   0  0  0  0  0  3  0  0  0  0  0  0
  185.4220  178.2460  143.0300 C   0  0  2  0  0  3  0  0  0  0  0  0
  187.6740  177.2490  142.7000 C   0  0  0  0  0  0  0  0  0  0  0  0
  187.5850  176.7480  144.1030 C   0  0  0  0  0  3  0  0  0  0  0  0
  188.7080  177.5120  139.6570 C   0  0  2  0  0  0  0  0  0  0  0  0
  186.6200  178.6010  140.7990 C   0  0  1  0  0  3  0  0  0  0  0  0
  187.7970  176.3680  139.1470 C   0  0  0  0  0  2  0  0  0  0  0  0
  186.6760  178.0370  142.1970 C   0  0  0  0  0  0  0  0  0  0  0  0
  186.9250  177.5140  137.0010 C   0  0  0  0  0  2  0  0  0  0  0  0
  191.0190  177.3260  138.7640 C   0  0  0  0  0  0  0  0  0  0  0  0
  189.8060  177.8110  138.6280 C   0  0  0  0  0  0  0  0  0  0  0  0
  192.2270  176.8430  138.8950 C   0  0  0  0  0  3  0  0  0  0  0  0
  192.9200  176.1450  137.8030 C   0  0  0  0  0  0  0  0  0  0  0  0
  192.5640  176.3360  136.4580 C   0  0  0  0  0  3  0  0  0  0  0  0
  193.9580  175.2610  138.1200 C   0  0  0  0  0  3  0  0  0  0  0  0
  194.6380  174.5770  137.1080 C   0  0  0  0  0  3  0  0  0  0  0  0
  193.2430  175.6530  135.4460 C   0  0  0  0  0  3  0  0  0  0  0  0
  194.2780  174.7690  135.7680 C   0  0  0  0  0  0  0  0  0  0  0  0
  195.0170  174.0560  134.6870 C   0  0  0  0  0  2  0  0  0  0  0  0
  197.3310  174.6580  134.6370 O   0  0  0  0  0  1  0  0  0  0  0  0
  196.8030  172.3450  134.5940 C   0  0  0  0  0  1  0  0  0  0  0  0
  196.4310  173.7110  135.1290 C   0  0  2  0  0  3  0  0  0  0  0  0
  189.7690  178.2830  136.2890 O   0  0  0  0  0  0  0  0  0  0  0  0
  188.9920  179.9530  137.6370 O   0  0  0  0  0  1  0  0  0  0  0  0
  189.5260  178.6830  137.4590 C   0  0  0  0  0  0  0  0  0  0  0  0
  184.4920  177.0990  135.3640 C   0  0  0  0  0  1  0  0  0  0  0  0
  184.4130  177.6350  136.6760 O   0  0  0  0  0  0  0  0  0  0  0  0
  1  4  1  0  0  0  0
  2  9  2  0  0  0  0
  3 13  1  0  0  0  0
  3  1  2  0  0  0  0
  5 10  2  0  0  0  0
  6  8  1  0  0  0  0
  6  4  1  6  0  0  0
  9 14  1  0  0  0  0
 10 12  2  0  0  0  0
 11 18  1  0  0  0  0
 12 17  1  0  0  0  0
 13 19  1  6  0  0  0
 13  6  1  0  0  0  0
 14 15  1  0  0  0  0
 15  8  2  0  0  0  0
 16 22  1  6  0  0  0
 16  7  1  0  0  0  0
 16  2  1  0  0  0  0
 17  7  1  6  0  0  0
 17 19  1  0  0  0  0
 18 16  1  0  0  0  0
 19 14  2  0  0  0  0
 20  5  1  0  0  0  0
 20 11  1  0  0  0  0
 21 23  2  0  0  0  0
 22 21  2  0  0  0  0
 24 26  1  0  0  0  0
 24 23  1  0  0  0  0
 25 24  2  0  0  0  0
 27 26  2  0  0  0  0
 28 29  2  0  0  0  0
 28 25  1  0  0  0  0
 29 27  1  0  0  0  0
 30 33  1  0  0  0  0
 30 29  1  0  0  0  0
 31 33  1  0  0  0  0
 33 32  1  6  0  0  0
 34 36  2  0  0  0  0
 36 35  1  0  0  0  0
 36 22  1  0  0  0  0
 37 38  1  0  0  0  0
 38  5  1  0  0  0  0
M  END
>  <MODEL>
9

>  <REMARK>
 VINA RESULT:      -4.9      3.885      8.633
  Name = 
  6 active torsions:
  status: ('A' for Active; 'I' for Inactive)
    1  A    between atoms: C_3  and  C_36
    2  A    between atoms: C_11  and  O_38
    3  A    between atoms: C_12  and  C_24
    4  A    between atoms: C_12  and  C_30
    5  A    between atoms: C_21  and  C_25
    6  A    between atoms: C_25  and  C_32
                            x       y       z     vdW  Elec       q    Type
                         _______ _______ _______ _____ _____    ______ ____

>  <TORSDO>
F 6

$$$$
