=
 OpenBabel11042412083D

 37 41  0  0  1  0  0  0  0  0999 V2000
  183.4850  175.7000  136.4270 C   0  0  0  0  0  0  0  0  0  0  0  0
  182.0280  175.4550  136.2800 C   0  0  0  0  0  1  0  0  0  0  0  0
  185.7590  174.9950  136.0160 N   0  0  0  0  0  0  0  0  0  0  0  0
  185.3170  177.0130  137.2140 C   0  0  0  0  0  0  0  0  0  0  0  0
  187.4680  176.4470  136.9100 N   0  0  0  0  0  0  0  0  0  0  0  0
  183.9420  176.8420  137.1070 C   0  0  0  0  0  3  0  0  0  0  0  0
  184.4140  174.7860  135.8810 C   0  0  0  0  0  3  0  0  0  0  0  0
  186.1890  176.0960  136.6840 C   0  0  0  0  0  0  0  0  0  0  0  0
  186.0900  177.9980  137.8000 C   0  0  0  0  0  0  0  0  0  0  0  0
  188.6460  175.7380  136.4260 C   0  0  0  0  0  1  0  0  0  0  0  0
  187.4100  177.6220  137.5950 C   0  0  0  0  0  0  0  0  0  0  0  0
  188.5030  178.3790  138.0250 O   0  0  0  0  0  0  0  0  0  0  0  0
  188.8800  178.4920  139.3890 C   0  0  0  0  0  2  0  0  0  0  0  0
  189.6340  177.2430  139.8030 C   0  0  0  0  0  2  0  0  0  0  0  0
  189.6200  177.0960  141.2840 C   0  0  0  0  0  0  0  0  0  0  0  0
  189.4200  177.3230  143.7020 C   0  0  0  0  0  0  0  0  0  0  0  0
  190.0600  175.9910  141.9290 N   0  0  0  0  0  0  0  0  0  0  0  0
  189.0510  178.2650  142.3510 S   0  0  0  0  0  0  0  0  0  0  0  0
  189.9510  176.1100  143.2800 C   0  0  0  0  0  3  0  0  0  0  0  0
  189.2110  176.6520  147.5160 C   0  0  0  0  0  2  0  0  0  0  0  0
  189.1680  177.6900  145.1320 C   0  0  1  0  0  3  0  0  0  0  0  0
  188.2430  177.8090  147.7820 C   0  0  0  0  0  2  0  0  0  0  0  0
  187.6940  177.8510  145.3970 C   0  0  0  0  0  3  0  0  0  0  0  0
  187.2540  177.9140  146.6590 C   0  0  0  0  0  3  0  0  0  0  0  0
  189.8250  176.6800  146.0980 C   0  0  1  0  0  3  0  0  0  0  0  0
  191.3090  176.8740  146.1660 C   0  0  0  0  0  0  0  0  0  0  0  0
  192.1480  175.8820  146.8920 C   0  0  0  0  0  1  0  0  0  0  0  0
  191.8350  177.8380  145.6350 O   0  0  0  0  0  0  0  0  0  0  0  0
  185.6770  179.1390  138.4950 O   0  0  0  0  0  0  0  0  0  0  0  0
  184.7360  179.0980  139.5570 C   0  0  0  0  0  2  0  0  0  0  0  0
  185.4510  178.8820  140.8870 C   0  0  0  0  0  2  0  0  0  0  0  0
  184.5190  178.9390  142.0030 N   0  0  0  0  0  0  0  0  0  0  0  0
  183.1310  178.5270  141.7710 C   0  0  0  0  0  2  0  0  0  0  0  0
  182.2430  178.8420  142.9460 C   0  0  0  0  0  3  0  0  0  0  0  0
  182.7440  179.1090  144.1530 C   0  0  0  0  0  3  0  0  0  0  0  0
  184.1970  179.1730  144.3700 C   0  0  0  0  0  3  0  0  0  0  0  0
  185.0310  179.0930  143.3340 C   0  0  0  0  0  3  0  0  0  0  0  0
  1  6  1  0  0  0  0
  2  1  1  0  0  0  0
  3  8  2  0  0  0  0
  4  9  1  0  0  0  0
  5 11  1  0  0  0  0
  6  4  2  0  0  0  0
  7  3  1  0  0  0  0
  7  1  2  0  0  0  0
  8  5  1  0  0  0  0
  8  4  1  0  0  0  0
  9 29  1  0  0  0  0
 10  5  1  0  0  0  0
 11  9  2  0  0  0  0
 11 12  1  0  0  0  0
 12 13  1  0  0  0  0
 13 14  1  0  0  0  0
 14 15  1  0  0  0  0
 15 17  2  0  0  0  0
 15 18  1  0  0  0  0
 17 19  1  0  0  0  0
 18 16  1  0  0  0  0
 19 16  2  0  0  0  0
 20 22  1  0  0  0  0
 21 16  1  6  0  0  0
 21 23  1  0  0  0  0
 21 25  1  0  0  0  0
 23 24  2  0  0  0  0
 24 22  1  0  0  0  0
 25 26  1  1  0  0  0
 25 20  1  0  0  0  0
 26 27  1  0  0  0  0
 28 26  2  0  0  0  0
 29 30  1  0  0  0  0
 30 31  1  0  0  0  0
 31 32  1  0  0  0  0
 32 37  1  0  0  0  0
 33 32  1  0  0  0  0
 33 34  1  0  0  0  0
 34 35  2  0  0  0  0
 35 36  1  0  0  0  0
 37 36  2  0  0  0  0
M  END
>  <MODEL>
1

>  <REMARK>
 VINA RESULT:      -8.9      0.000      0.000
  Name = 
  10 active torsions:
  status: ('A' for Active; 'I' for Inactive)
    1  A    between atoms: C_3  and  C_26
    2  A    between atoms: O_4  and  C_18
    3  A    between atoms: O_4  and  C_37
    4  A    between atoms: C_5  and  C_13
    5  A    between atoms: N_8  and  C_23
    6  A    between atoms: C_9  and  C_34
    7  A    between atoms: C_18  and  C_26
    8  A    between atoms: C_19  and  C_23
    9  A    between atoms: C_19  and  O_36
   10  A    between atoms: C_32  and  O_36
                            x       y       z     vdW  Elec       q    Type
                         _______ _______ _______ _____ _____    ______ ____

>  <TORSDO>
F 10

$$$$
=
 OpenBabel11042412083D

 37 41  0  0  1  0  0  0  0  0999 V2000
  187.7220  177.8800  146.9060 C   0  0  0  0  0  0  0  0  0  0  0  0
  188.8180  177.5980  147.8660 C   0  0  0  0  0  1  0  0  0  0  0  0
  185.4970  178.7250  146.4870 N   0  0  0  0  0  0  0  0  0  0  0  0
  186.8160  177.8530  144.6970 C   0  0  0  0  0  0  0  0  0  0  0  0
  184.7560  178.5900  144.1930 N   0  0  0  0  0  0  0  0  0  0  0  0
  187.8800  177.5680  145.5450 C   0  0  0  0  0  3  0  0  0  0  0  0
  186.5180  178.4660  147.3590 C   0  0  0  0  0  3  0  0  0  0  0  0
  185.6570  178.4080  145.1760 C   0  0  0  0  0  0  0  0  0  0  0  0
  186.6370  177.6820  143.3370 C   0  0  0  0  0  0  0  0  0  0  0  0
  183.4500  179.2200  144.3370 C   0  0  0  0  0  1  0  0  0  0  0  0
  185.3610  178.1460  143.0570 C   0  0  0  0  0  0  0  0  0  0  0  0
  184.8100  178.1620  141.7720 O   0  0  0  0  0  0  0  0  0  0  0  0
  184.9460  179.2610  140.8840 C   0  0  0  0  0  2  0  0  0  0  0  0
  183.9290  179.1290  139.7670 C   0  0  0  0  0  2  0  0  0  0  0  0
  184.5000  178.3500  138.6350 C   0  0  0  0  0  0  0  0  0  0  0  0
  185.8740  177.2410  136.9550 C   0  0  0  0  0  0  0  0  0  0  0  0
  183.7450  177.6800  137.7330 N   0  0  0  0  0  0  0  0  0  0  0  0
  186.1450  178.1840  138.3270 S   0  0  0  0  0  0  0  0  0  0  0  0
  184.5050  177.0580  136.7920 C   0  0  0  0  0  3  0  0  0  0  0  0
  188.9090  174.9600  136.1650 C   0  0  0  0  0  2  0  0  0  0  0  0
  186.9230  176.6370  136.0740 C   0  0  1  0  0  3  0  0  0  0  0  0
  189.3390  175.7660  134.9350 C   0  0  0  0  0  2  0  0  0  0  0  0
  187.9920  177.6440  135.7400 C   0  0  0  0  0  3  0  0  0  0  0  0
  189.1400  177.2310  135.1920 C   0  0  0  0  0  3  0  0  0  0  0  0
  187.5120  175.3520  136.6960 C   0  0  1  0  0  3  0  0  0  0  0  0
  186.5570  174.2020  136.5790 C   0  0  0  0  0  0  0  0  0  0  0  0
  186.0170  173.8270  135.2440 C   0  0  0  0  0  1  0  0  0  0  0  0
  186.2150  173.5750  137.5680 O   0  0  0  0  0  0  0  0  0  0  0  0
  187.5160  177.1300  142.4000 O   0  0  0  0  0  0  0  0  0  0  0  0
  188.2960  177.9180  141.5140 C   0  0  0  0  0  2  0  0  0  0  0  0
  189.7120  177.3590  141.4190 C   0  0  0  0  0  2  0  0  0  0  0  0
  190.3660  177.3530  142.7190 N   0  0  0  0  0  0  0  0  0  0  0  0
  190.8740  176.0800  143.2360 C   0  0  0  0  0  2  0  0  0  0  0  0
  191.3250  176.1900  144.6700 C   0  0  0  0  0  3  0  0  0  0  0  0
  191.5690  177.3710  145.2400 C   0  0  0  0  0  3  0  0  0  0  0  0
  191.3400  178.6240  144.5070 C   0  0  0  0  0  3  0  0  0  0  0  0
  190.7630  178.6010  143.3070 C   0  0  0  0  0  3  0  0  0  0  0  0
  1  7  1  0  0  0  0
  1  2  1  0  0  0  0
  3  7  2  0  0  0  0
  4  8  2  0  0  0  0
  4  6  1  0  0  0  0
  5 10  1  0  0  0  0
  5  8  1  0  0  0  0
  6  1  2  0  0  0  0
  8  3  1  0  0  0  0
  9  4  1  0  0  0  0
 11  9  2  0  0  0  0
 11  5  1  0  0  0  0
 12 11  1  0  0  0  0
 13 12  1  0  0  0  0
 14 13  1  0  0  0  0
 15 14  1  0  0  0  0
 16 18  1  0  0  0  0
 17 15  2  0  0  0  0
 18 15  1  0  0  0  0
 19 16  2  0  0  0  0
 19 17  1  0  0  0  0
 20 25  1  0  0  0  0
 21 25  1  0  0  0  0
 21 16  1  1  0  0  0
 22 24  1  0  0  0  0
 22 20  1  0  0  0  0
 23 21  1  0  0  0  0
 24 23  2  0  0  0  0
 25 26  1  6  0  0  0
 26 28  2  0  0  0  0
 27 26  1  0  0  0  0
 29  9  1  0  0  0  0
 30 29  1  0  0  0  0
 31 30  1  0  0  0  0
 31 32  1  0  0  0  0
 32 33  1  0  0  0  0
 32 37  1  0  0  0  0
 33 34  1  0  0  0  0
 34 35  2  0  0  0  0
 36 35  1  0  0  0  0
 37 36  2  0  0  0  0
M  END
>  <MODEL>
2

>  <REMARK>
 VINA RESULT:      -8.8      2.251      8.905
  Name = 
  10 active torsions:
  status: ('A' for Active; 'I' for Inactive)
    1  A    between atoms: C_3  and  C_26
    2  A    between atoms: O_4  and  C_18
    3  A    between atoms: O_4  and  C_37
    4  A    between atoms: C_5  and  C_13
    5  A    between atoms: N_8  and  C_23
    6  A    between atoms: C_9  and  C_34
    7  A    between atoms: C_18  and  C_26
    8  A    between atoms: C_19  and  C_23
    9  A    between atoms: C_19  and  O_36
   10  A    between atoms: C_32  and  O_36
                            x       y       z     vdW  Elec       q    Type
                         _______ _______ _______ _____ _____    ______ ____

>  <TORSDO>
F 10

$$$$
=
 OpenBabel11042412083D

 37 41  0  0  1  0  0  0  0  0999 V2000
  188.2580  177.7750  146.9530 C   0  0  0  0  0  0  0  0  0  0  0  0
  187.3950  178.3300  148.0260 C   0  0  0  0  0  1  0  0  0  0  0  0
  190.3520  176.7720  146.2850 N   0  0  0  0  0  0  0  0  0  0  0  0
  188.6530  177.2130  144.6660 C   0  0  0  0  0  0  0  0  0  0  0  0
  190.5650  176.2980  143.9270 N   0  0  0  0  0  0  0  0  0  0  0  0
  187.7960  177.7400  145.6260 C   0  0  0  0  0  3  0  0  0  0  0  0
  189.5440  177.2800  147.2650 C   0  0  0  0  0  3  0  0  0  0  0  0
  189.9000  176.7540  145.0050 C   0  0  0  0  0  0  0  0  0  0  0  0
  188.5220  177.0290  143.3020 C   0  0  0  0  0  0  0  0  0  0  0  0
  191.8840  175.6780  143.9370 C   0  0  0  0  0  1  0  0  0  0  0  0
  189.7150  176.4630  142.8770 C   0  0  0  0  0  0  0  0  0  0  0  0
  189.9680  176.1040  141.5490 O   0  0  0  0  0  0  0  0  0  0  0  0
  190.6690  176.9390  140.6410 C   0  0  0  0  0  2  0  0  0  0  0  0
  190.1540  176.6910  139.2360 C   0  0  0  0  0  2  0  0  0  0  0  0
  191.1690  175.9550  138.4350 C   0  0  0  0  0  0  0  0  0  0  0  0
  193.1020  175.1660  137.1770 C   0  0  0  0  0  0  0  0  0  0  0  0
  190.9660  174.7160  137.9290 N   0  0  0  0  0  0  0  0  0  0  0  0
  192.6970  176.5480  138.0570 S   0  0  0  0  0  0  0  0  0  0  0  0
  192.0410  174.2680  137.2270 C   0  0  0  0  0  3  0  0  0  0  0  0
  196.9430  174.6630  137.0210 C   0  0  0  0  0  2  0  0  0  0  0  0
  194.4080  174.9030  136.4950 C   0  0  1  0  0  3  0  0  0  0  0  0
  197.0460  175.0350  135.5390 C   0  0  0  0  0  2  0  0  0  0  0  0
  194.8470  176.0980  135.6900 C   0  0  0  0  0  3  0  0  0  0  0  0
  196.1020  176.1580  135.2290 C   0  0  0  0  0  3  0  0  0  0  0  0
  195.4900  174.4520  137.5000 C   0  0  1  0  0  3  0  0  0  0  0  0
  195.2740  173.0350  137.9350 C   0  0  0  0  0  0  0  0  0  0  0  0
  195.1580  171.9600  136.9120 C   0  0  0  0  0  1  0  0  0  0  0  0
  195.1870  172.7540  139.1190 O   0  0  0  0  0  0  0  0  0  0  0  0
  187.4470  177.3580  142.4720 O   0  0  0  0  0  0  0  0  0  0  0  0
  187.2940  178.6380  141.8770 C   0  0  0  0  0  2  0  0  0  0  0  0
  185.9210  178.7550  141.2230 C   0  0  0  0  0  2  0  0  0  0  0  0
  184.8660  178.8300  142.2220 N   0  0  0  0  0  0  0  0  0  0  0  0
  185.1790  179.4300  143.5210 C   0  0  0  0  0  2  0  0  0  0  0  0
  184.0640  179.2430  144.5160 C   0  0  0  0  0  3  0  0  0  0  0  0
  182.8290  178.9110  144.1330 C   0  0  0  0  0  3  0  0  0  0  0  0
  182.5250  178.6450  142.7190 C   0  0  0  0  0  3  0  0  0  0  0  0
  183.5060  178.6070  141.8200 C   0  0  0  0  0  3  0  0  0  0  0  0
  1  7  1  0  0  0  0
  1  2  1  0  0  0  0
  3  7  2  0  0  0  0
  4  8  2  0  0  0  0
  4  6  1  0  0  0  0
  5 10  1  0  0  0  0
  5  8  1  0  0  0  0
  6  1  2  0  0  0  0
  8  3  1  0  0  0  0
  9  4  1  0  0  0  0
 11  9  2  0  0  0  0
 11  5  1  0  0  0  0
 12 11  1  0  0  0  0
 13 12  1  0  0  0  0
 14 13  1  0  0  0  0
 15 14  1  0  0  0  0
 16 19  2  0  0  0  0
 16 18  1  0  0  0  0
 17 15  2  0  0  0  0
 18 15  1  0  0  0  0
 19 17  1  0  0  0  0
 20 25  1  0  0  0  0
 21 16  1  1  0  0  0
 21 25  1  0  0  0  0
 22 20  1  0  0  0  0
 23 21  1  0  0  0  0
 24 22  1  0  0  0  0
 24 23  2  0  0  0  0
 25 26  1  6  0  0  0
 26 28  2  0  0  0  0
 27 26  1  0  0  0  0
 29  9  1  0  0  0  0
 30 29  1  0  0  0  0
 31 30  1  0  0  0  0
 31 32  1  0  0  0  0
 32 33  1  0  0  0  0
 33 34  1  0  0  0  0
 35 34  2  0  0  0  0
 36 35  1  0  0  0  0
 37 32  1  0  0  0  0
 37 36  2  0  0  0  0
M  END
>  <MODEL>
3

>  <REMARK>
 VINA RESULT:      -8.7      4.288      8.367
  Name = 
  10 active torsions:
  status: ('A' for Active; 'I' for Inactive)
    1  A    between atoms: C_3  and  C_26
    2  A    between atoms: O_4  and  C_18
    3  A    between atoms: O_4  and  C_37
    4  A    between atoms: C_5  and  C_13
    5  A    between atoms: N_8  and  C_23
    6  A    between atoms: C_9  and  C_34
    7  A    between atoms: C_18  and  C_26
    8  A    between atoms: C_19  and  C_23
    9  A    between atoms: C_19  and  O_36
   10  A    between atoms: C_32  and  O_36
                            x       y       z     vdW  Elec       q    Type
                         _______ _______ _______ _____ _____    ______ ____

>  <TORSDO>
F 10

$$$$
=
 OpenBabel11042412083D

 37 41  0  0  1  0  0  0  0  0999 V2000
  187.7310  177.8950  146.8690 C   0  0  0  0  0  0  0  0  0  0  0  0
  188.8590  177.6270  147.7970 C   0  0  0  0  0  1  0  0  0  0  0  0
  185.4770  178.6900  146.5200 N   0  0  0  0  0  0  0  0  0  0  0  0
  186.7680  177.8730  144.6850 C   0  0  0  0  0  0  0  0  0  0  0  0
  184.6790  178.5670  144.2440 N   0  0  0  0  0  0  0  0  0  0  0  0
  187.8620  177.6030  145.5010 C   0  0  0  0  0  3  0  0  0  0  0  0
  186.5270  178.4450  147.3620 C   0  0  0  0  0  3  0  0  0  0  0  0
  185.6100  178.3940  145.2020 C   0  0  0  0  0  0  0  0  0  0  0  0
  186.5580  177.7150  143.3280 C   0  0  0  0  0  0  0  0  0  0  0  0
  183.3620  179.1620  144.4310 C   0  0  0  0  0  1  0  0  0  0  0  0
  185.2640  178.1520  143.0870 C   0  0  0  0  0  0  0  0  0  0  0  0
  184.6800  178.1710  141.8170 O   0  0  0  0  0  0  0  0  0  0  0  0
  184.9400  179.1850  140.8590 C   0  0  0  0  0  2  0  0  0  0  0  0
  183.8480  179.1690  139.8070 C   0  0  0  0  0  2  0  0  0  0  0  0
  184.0360  178.0190  138.8820 C   0  0  0  0  0  0  0  0  0  0  0  0
  183.9650  175.9320  137.6240 C   0  0  0  0  0  0  0  0  0  0  0  0
  185.0070  177.9680  137.9410 N   0  0  0  0  0  0  0  0  0  0  0  0
  183.0740  176.6390  138.8700 S   0  0  0  0  0  0  0  0  0  0  0  0
  184.9730  176.8070  137.2330 C   0  0  0  0  0  3  0  0  0  0  0  0
  181.9200  172.7050  136.9620 C   0  0  0  0  0  2  0  0  0  0  0  0
  183.6950  174.6050  136.9860 C   0  0  1  0  0  3  0  0  0  0  0  0
  183.1320  171.8990  136.4840 C   0  0  0  0  0  2  0  0  0  0  0  0
  184.6000  173.5410  137.5510 C   0  0  0  0  0  3  0  0  0  0  0  0
  184.3350  172.2520  137.3070 C   0  0  0  0  0  3  0  0  0  0  0  0
  182.2050  174.2180  137.0960 C   0  0  1  0  0  3  0  0  0  0  0  0
  181.3640  175.0040  136.1380 C   0  0  0  0  0  0  0  0  0  0  0  0
  181.7630  175.0880  134.7060 C   0  0  0  0  0  1  0  0  0  0  0  0
  180.3580  175.5800  136.5200 O   0  0  0  0  0  0  0  0  0  0  0  0
  187.4260  177.1970  142.3610 O   0  0  0  0  0  0  0  0  0  0  0  0
  188.2690  178.0130  141.5630 C   0  0  0  0  0  2  0  0  0  0  0  0
  189.6540  177.3840  141.4460 C   0  0  0  0  0  2  0  0  0  0  0  0
  190.3350  177.3660  142.7310 N   0  0  0  0  0  0  0  0  0  0  0  0
  190.8520  176.0880  143.2270 C   0  0  0  0  0  2  0  0  0  0  0  0
  191.3330  176.1850  144.6520 C   0  0  0  0  0  3  0  0  0  0  0  0
  191.5920  177.3610  145.2270 C   0  0  0  0  0  3  0  0  0  0  0  0
  191.3500  178.6210  144.5090 C   0  0  0  0  0  3  0  0  0  0  0  0
  190.7470  178.6080  143.3210 C   0  0  0  0  0  3  0  0  0  0  0  0
  1  7  1  0  0  0  0
  1  2  1  0  0  0  0
  3  7  2  0  0  0  0
  4  8  2  0  0  0  0
  4  6  1  0  0  0  0
  5 10  1  0  0  0  0
  5  8  1  0  0  0  0
  6  1  2  0  0  0  0
  8  3  1  0  0  0  0
  9  4  1  0  0  0  0
 11  9  2  0  0  0  0
 11  5  1  0  0  0  0
 12 11  1  0  0  0  0
 13 12  1  0  0  0  0
 14 13  1  0  0  0  0
 15 14  1  0  0  0  0
 16 18  1  0  0  0  0
 17 15  2  0  0  0  0
 18 15  1  0  0  0  0
 19 16  2  0  0  0  0
 19 17  1  0  0  0  0
 20 25  1  0  0  0  0
 21 25  1  0  0  0  0
 21 23  1  0  0  0  0
 21 16  1  1  0  0  0
 22 20  1  0  0  0  0
 22 24  1  0  0  0  0
 24 23  2  0  0  0  0
 25 26  1  6  0  0  0
 26 28  2  0  0  0  0
 27 26  1  0  0  0  0
 29  9  1  0  0  0  0
 30 29  1  0  0  0  0
 31 30  1  0  0  0  0
 31 32  1  0  0  0  0
 32 33  1  0  0  0  0
 32 37  1  0  0  0  0
 33 34  1  0  0  0  0
 34 35  2  0  0  0  0
 36 35  1  0  0  0  0
 37 36  2  0  0  0  0
M  END
>  <MODEL>
4

>  <REMARK>
 VINA RESULT:      -8.7      2.550      9.498
  Name = 
  10 active torsions:
  status: ('A' for Active; 'I' for Inactive)
    1  A    between atoms: C_3  and  C_26
    2  A    between atoms: O_4  and  C_18
    3  A    between atoms: O_4  and  C_37
    4  A    between atoms: C_5  and  C_13
    5  A    between atoms: N_8  and  C_23
    6  A    between atoms: C_9  and  C_34
    7  A    between atoms: C_18  and  C_26
    8  A    between atoms: C_19  and  C_23
    9  A    between atoms: C_19  and  O_36
   10  A    between atoms: C_32  and  O_36
                            x       y       z     vdW  Elec       q    Type
                         _______ _______ _______ _____ _____    ______ ____

>  <TORSDO>
F 10

$$$$
=
 OpenBabel11042412083D

 37 41  0  0  1  0  0  0  0  0999 V2000
  190.1420  177.0560  146.8150 C   0  0  0  0  0  0  0  0  0  0  0  0
  191.5320  176.6610  147.1560 C   0  0  0  0  0  1  0  0  0  0  0  0
  187.9760  177.8510  147.5320 N   0  0  0  0  0  0  0  0  0  0  0  0
  188.3880  177.3760  145.2280 C   0  0  0  0  0  0  0  0  0  0  0  0
  186.3320  178.0900  145.7800 N   0  0  0  0  0  0  0  0  0  0  0  0
  189.7010  176.9980  145.4820 C   0  0  0  0  0  3  0  0  0  0  0  0
  189.2620  177.4910  147.8300 C   0  0  0  0  0  3  0  0  0  0  0  0
  187.5580  177.7810  146.2420 C   0  0  0  0  0  0  0  0  0  0  0  0
  187.6460  177.4420  144.0630 C   0  0  0  0  0  0  0  0  0  0  0  0
  185.2290  178.6190  146.5720 C   0  0  0  0  0  1  0  0  0  0  0  0
  186.3860  177.8850  144.4350 C   0  0  0  0  0  0  0  0  0  0  0  0
  185.3450  178.1020  143.5280 O   0  0  0  0  0  0  0  0  0  0  0  0
  185.2940  179.2250  142.6600 C   0  0  0  0  0  2  0  0  0  0  0  0
  185.3000  178.7450  141.2220 C   0  0  0  0  0  2  0  0  0  0  0  0
  183.9770  178.9960  140.5870 C   0  0  0  0  0  0  0  0  0  0  0  0
  182.0820  179.6340  139.1930 C   0  0  0  0  0  0  0  0  0  0  0  0
  182.8000  178.6290  141.1440 N   0  0  0  0  0  0  0  0  0  0  0  0
  183.7630  179.7530  139.1000 S   0  0  0  0  0  0  0  0  0  0  0  0
  181.7370  178.9810  140.3710 C   0  0  0  0  0  3  0  0  0  0  0  0
  180.7410  180.0880  135.5840 C   0  0  0  0  0  2  0  0  0  0  0  0
  181.1040  180.0970  138.1590 C   0  0  1  0  0  3  0  0  0  0  0  0
  179.8600  181.2900  135.9400 C   0  0  0  0  0  2  0  0  0  0  0  0
  181.1650  181.5920  137.9890 C   0  0  0  0  0  3  0  0  0  0  0  0
  180.5670  182.1620  136.9360 C   0  0  0  0  0  3  0  0  0  0  0  0
  181.3030  179.3530  136.8200 C   0  0  1  0  0  3  0  0  0  0  0  0
  180.7760  177.9520  136.8900 C   0  0  0  0  0  0  0  0  0  0  0  0
  179.4020  177.7080  137.4090 C   0  0  0  0  0  1  0  0  0  0  0  0
  181.4640  177.0100  136.5320 O   0  0  0  0  0  0  0  0  0  0  0  0
  188.0290  177.1090  142.7600 O   0  0  0  0  0  0  0  0  0  0  0  0
  188.9500  177.8810  142.0040 C   0  0  0  0  0  2  0  0  0  0  0  0
  189.9320  176.9680  141.2770 C   0  0  0  0  0  2  0  0  0  0  0  0
  189.8790  177.1760  139.8380 N   0  0  0  0  0  0  0  0  0  0  0  0
  188.9910  178.2200  139.3180 C   0  0  0  0  0  2  0  0  0  0  0  0
  188.8800  178.1730  137.8160 C   0  0  0  0  0  3  0  0  0  0  0  0
  189.7650  177.5130  137.0670 C   0  0  0  0  0  3  0  0  0  0  0  0
  190.8530  176.7430  137.6870 C   0  0  0  0  0  3  0  0  0  0  0  0
  190.8930  176.5890  139.0090 C   0  0  0  0  0  3  0  0  0  0  0  0
  1  2  1  0  0  0  0
  1  7  1  0  0  0  0
  3  7  2  0  0  0  0
  4  6  1  0  0  0  0
  4  8  2  0  0  0  0
  5  8  1  0  0  0  0
  5 10  1  0  0  0  0
  6  1  2  0  0  0  0
  8  3  1  0  0  0  0
  9 11  2  0  0  0  0
  9  4  1  0  0  0  0
 11  5  1  0  0  0  0
 12 11  1  0  0  0  0
 13 12  1  0  0  0  0
 14 13  1  0  0  0  0
 15 17  2  0  0  0  0
 15 14  1  0  0  0  0
 16 19  2  0  0  0  0
 18 16  1  0  0  0  0
 18 15  1  0  0  0  0
 19 17  1  0  0  0  0
 20 22  1  0  0  0  0
 20 25  1  0  0  0  0
 21 16  1  1  0  0  0
 22 24  1  0  0  0  0
 23 21  1  0  0  0  0
 24 23  2  0  0  0  0
 25 26  1  1  0  0  0
 25 21  1  0  0  0  0
 26 27  1  0  0  0  0
 28 26  2  0  0  0  0
 29  9  1  0  0  0  0
 30 29  1  0  0  0  0
 31 30  1  0  0  0  0
 32 31  1  0  0  0  0
 33 32  1  0  0  0  0
 34 33  1  0  0  0  0
 35 36  1  0  0  0  0
 35 34  2  0  0  0  0
 36 37  2  0  0  0  0
 37 32  1  0  0  0  0
M  END
>  <MODEL>
5

>  <REMARK>
 VINA RESULT:      -8.3      3.271     10.093
  Name = 
  10 active torsions:
  status: ('A' for Active; 'I' for Inactive)
    1  A    between atoms: C_3  and  C_26
    2  A    between atoms: O_4  and  C_18
    3  A    between atoms: O_4  and  C_37
    4  A    between atoms: C_5  and  C_13
    5  A    between atoms: N_8  and  C_23
    6  A    between atoms: C_9  and  C_34
    7  A    between atoms: C_18  and  C_26
    8  A    between atoms: C_19  and  C_23
    9  A    between atoms: C_19  and  O_36
   10  A    between atoms: C_32  and  O_36
                            x       y       z     vdW  Elec       q    Type
                         _______ _______ _______ _____ _____    ______ ____

>  <TORSDO>
F 10

$$$$
=
 OpenBabel11042412083D

 37 41  0  0  1  0  0  0  0  0999 V2000
  190.1980  177.0860  147.1070 C   0  0  0  0  0  0  0  0  0  0  0  0
  191.5960  176.7550  147.4850 C   0  0  0  0  0  1  0  0  0  0  0  0
  187.9870  177.8060  147.7630 N   0  0  0  0  0  0  0  0  0  0  0  0
  188.4660  177.3030  145.4790 C   0  0  0  0  0  0  0  0  0  0  0  0
  186.3720  177.9430  145.9740 N   0  0  0  0  0  0  0  0  0  0  0  0
  189.7880  176.9840  145.7670 C   0  0  0  0  0  3  0  0  0  0  0  0
  189.2800  177.5050  148.0960 C   0  0  0  0  0  3  0  0  0  0  0  0
  187.5990  177.6930  146.4670 C   0  0  0  0  0  0  0  0  0  0  0  0
  187.7470  177.3140  144.2980 C   0  0  0  0  0  0  0  0  0  0  0  0
  185.2320  178.4420  146.7330 C   0  0  0  0  0  1  0  0  0  0  0  0
  186.4630  177.7140  144.6350 C   0  0  0  0  0  0  0  0  0  0  0  0
  185.4330  177.8700  143.7020 O   0  0  0  0  0  0  0  0  0  0  0  0
  185.1320  179.1100  143.0800 C   0  0  0  0  0  2  0  0  0  0  0  0
  183.7960  179.0010  142.3720 C   0  0  0  0  0  2  0  0  0  0  0  0
  183.9980  178.7060  140.9270 C   0  0  0  0  0  0  0  0  0  0  0  0
  184.0030  177.8540  138.6440 C   0  0  0  0  0  0  0  0  0  0  0  0
  184.8600  179.3900  140.1390 N   0  0  0  0  0  0  0  0  0  0  0  0
  183.1860  177.5030  140.0780 S   0  0  0  0  0  0  0  0  0  0  0  0
  184.8670  178.9210  138.8620 C   0  0  0  0  0  3  0  0  0  0  0  0
  182.2340  175.4630  136.1550 C   0  0  0  0  0  2  0  0  0  0  0  0
  183.8020  177.1780  137.3230 C   0  0  1  0  0  3  0  0  0  0  0  0
  183.4630  175.3080  135.2540 C   0  0  0  0  0  2  0  0  0  0  0  0
  184.8640  176.1360  137.0830 C   0  0  0  0  0  3  0  0  0  0  0  0
  184.7060  175.2490  136.0930 C   0  0  0  0  0  3  0  0  0  0  0  0
  182.3780  176.5940  137.1970 C   0  0  1  0  0  3  0  0  0  0  0  0
  181.3660  177.6720  136.9560 C   0  0  0  0  0  0  0  0  0  0  0  0
  181.5340  178.5930  135.7990 C   0  0  0  0  0  1  0  0  0  0  0  0
  180.4080  177.8040  137.7000 O   0  0  0  0  0  0  0  0  0  0  0  0
  188.1710  176.9720  143.0100 O   0  0  0  0  0  0  0  0  0  0  0  0
  188.8730  177.8690  142.1630 C   0  0  0  0  0  2  0  0  0  0  0  0
  189.9420  177.1220  141.3720 C   0  0  0  0  0  2  0  0  0  0  0  0
  189.7640  177.3070  139.9400 N   0  0  0  0  0  0  0  0  0  0  0  0
  190.5540  176.4750  139.0280 C   0  0  0  0  0  2  0  0  0  0  0  0
  190.4260  176.9250  137.5960 C   0  0  0  0  0  3  0  0  0  0  0  0
  189.4350  177.7260  137.1980 C   0  0  0  0  0  3  0  0  0  0  0  0
  188.4620  178.2590  138.1620 C   0  0  0  0  0  3  0  0  0  0  0  0
  188.6340  178.0530  139.4670 C   0  0  0  0  0  3  0  0  0  0  0  0
  1  2  1  0  0  0  0
  1  7  1  0  0  0  0
  3  7  2  0  0  0  0
  4  6  1  0  0  0  0
  4  8  2  0  0  0  0
  5  8  1  0  0  0  0
  5 10  1  0  0  0  0
  6  1  2  0  0  0  0
  8  3  1  0  0  0  0
  9 11  2  0  0  0  0
  9  4  1  0  0  0  0
 11  5  1  0  0  0  0
 12 11  1  0  0  0  0
 13 12  1  0  0  0  0
 14 13  1  0  0  0  0
 15 14  1  0  0  0  0
 16 19  2  0  0  0  0
 16 18  1  0  0  0  0
 17 15  2  0  0  0  0
 18 15  1  0  0  0  0
 19 17  1  0  0  0  0
 20 25  1  0  0  0  0
 21 16  1  1  0  0  0
 22 24  1  0  0  0  0
 22 20  1  0  0  0  0
 23 21  1  0  0  0  0
 24 23  2  0  0  0  0
 25 26  1  6  0  0  0
 25 21  1  0  0  0  0
 26 28  2  0  0  0  0
 27 26  1  0  0  0  0
 29  9  1  0  0  0  0
 30 29  1  0  0  0  0
 31 30  1  0  0  0  0
 32 31  1  0  0  0  0
 33 32  1  0  0  0  0
 34 33  1  0  0  0  0
 35 34  2  0  0  0  0
 35 36  1  0  0  0  0
 36 37  2  0  0  0  0
 37 32  1  0  0  0  0
M  END
>  <MODEL>
6

>  <REMARK>
 VINA RESULT:      -8.2      2.589      9.757
  Name = 
  10 active torsions:
  status: ('A' for Active; 'I' for Inactive)
    1  A    between atoms: C_3  and  C_26
    2  A    between atoms: O_4  and  C_18
    3  A    between atoms: O_4  and  C_37
    4  A    between atoms: C_5  and  C_13
    5  A    between atoms: N_8  and  C_23
    6  A    between atoms: C_9  and  C_34
    7  A    between atoms: C_18  and  C_26
    8  A    between atoms: C_19  and  C_23
    9  A    between atoms: C_19  and  O_36
   10  A    between atoms: C_32  and  O_36
                            x       y       z     vdW  Elec       q    Type
                         _______ _______ _______ _____ _____    ______ ____

>  <TORSDO>
F 10

$$$$
=
 OpenBabel11042412083D

 37 41  0  0  1  0  0  0  0  0999 V2000
  186.7480  177.8060  146.5380 C   0  0  0  0  0  0  0  0  0  0  0  0
  185.4180  178.1290  147.1140 C   0  0  0  0  0  1  0  0  0  0  0  0
  189.0830  177.2860  146.8740 N   0  0  0  0  0  0  0  0  0  0  0  0
  188.1810  177.4250  144.6670 C   0  0  0  0  0  0  0  0  0  0  0  0
  190.3680  176.9560  144.8560 N   0  0  0  0  0  0  0  0  0  0  0  0
  186.9100  177.7270  145.1440 C   0  0  0  0  0  3  0  0  0  0  0  0
  187.8510  177.5770  147.3910 C   0  0  0  0  0  3  0  0  0  0  0  0
  189.2310  177.2230  145.5260 C   0  0  0  0  0  0  0  0  0  0  0  0
  188.6830  177.2700  143.3880 C   0  0  0  0  0  0  0  0  0  0  0  0
  191.6540  176.6230  145.4570 C   0  0  0  0  0  1  0  0  0  0  0  0
  190.0310  176.9810  143.5380 C   0  0  0  0  0  0  0  0  0  0  0  0
  190.8900  176.7330  142.4640 O   0  0  0  0  0  0  0  0  0  0  0  0
  191.3400  177.7480  141.5800 C   0  0  0  0  0  2  0  0  0  0  0  0
  192.2870  177.1420  140.5630 C   0  0  0  0  0  2  0  0  0  0  0  0
  191.5440  176.7400  139.3380 C   0  0  0  0  0  0  0  0  0  0  0  0
  189.9310  176.0790  137.6350 C   0  0  0  0  0  0  0  0  0  0  0  0
  192.1380  176.5290  138.1400 N   0  0  0  0  0  0  0  0  0  0  0  0
  189.8810  176.5040  139.2670 S   0  0  0  0  0  0  0  0  0  0  0  0
  191.2430  176.1610  137.1840 C   0  0  0  0  0  3  0  0  0  0  0  0
  186.1580  175.8360  136.7720 C   0  0  0  0  0  2  0  0  0  0  0  0
  188.7560  175.7250  136.7770 C   0  0  1  0  0  3  0  0  0  0  0  0
  186.3460  174.6980  135.7630 C   0  0  0  0  0  2  0  0  0  0  0  0
  188.5380  174.2350  136.7490 C   0  0  0  0  0  3  0  0  0  0  0  0
  187.3920  173.7450  136.2600 C   0  0  0  0  0  3  0  0  0  0  0  0
  187.4870  176.4890  137.2130 C   0  0  1  0  0  3  0  0  0  0  0  0
  187.5410  177.9250  136.7870 C   0  0  0  0  0  0  0  0  0  0  0  0
  187.1990  178.2900  135.3850 C   0  0  0  0  0  1  0  0  0  0  0  0
  187.8670  178.7960  137.5770 O   0  0  0  0  0  0  0  0  0  0  0  0
  188.0190  177.4010  142.1640 O   0  0  0  0  0  0  0  0  0  0  0  0
  187.7190  178.6590  141.5780 C   0  0  0  0  0  2  0  0  0  0  0  0
  186.3780  178.5970  140.8550 C   0  0  0  0  0  2  0  0  0  0  0  0
  185.2700  178.7760  141.7810 N   0  0  0  0  0  0  0  0  0  0  0  0
  185.4270  179.7400  142.8740 C   0  0  0  0  0  2  0  0  0  0  0  0
  184.2960  179.6600  143.8660 C   0  0  0  0  0  3  0  0  0  0  0  0
  183.1430  179.0570  143.5700 C   0  0  0  0  0  3  0  0  0  0  0  0
  182.9550  178.3830  142.2770 C   0  0  0  0  0  3  0  0  0  0  0  0
  183.9790  178.2550  141.4350 C   0  0  0  0  0  3  0  0  0  0  0  0
  1  2  1  0  0  0  0
  1  7  1  0  0  0  0
  3  7  2  0  0  0  0
  4  6  1  0  0  0  0
  4  8  2  0  0  0  0
  5 10  1  0  0  0  0
  5  8  1  0  0  0  0
  6  1  2  0  0  0  0
  8  3  1  0  0  0  0
  9 11  2  0  0  0  0
  9  4  1  0  0  0  0
 11  5  1  0  0  0  0
 12 11  1  0  0  0  0
 13 12  1  0  0  0  0
 14 13  1  0  0  0  0
 15 14  1  0  0  0  0
 16 18  1  0  0  0  0
 17 15  2  0  0  0  0
 18 15  1  0  0  0  0
 19 16  2  0  0  0  0
 19 17  1  0  0  0  0
 20 25  1  0  0  0  0
 21 25  1  0  0  0  0
 21 16  1  1  0  0  0
 22 24  1  0  0  0  0
 22 20  1  0  0  0  0
 23 21  1  0  0  0  0
 24 23  2  0  0  0  0
 25 26  1  6  0  0  0
 26 28  2  0  0  0  0
 27 26  1  0  0  0  0
 29  9  1  0  0  0  0
 30 29  1  0  0  0  0
 31 30  1  0  0  0  0
 31 32  1  0  0  0  0
 32 33  1  0  0  0  0
 33 34  1  0  0  0  0
 35 34  2  0  0  0  0
 36 35  1  0  0  0  0
 37 32  1  0  0  0  0
 37 36  2  0  0  0  0
M  END
>  <MODEL>
7

>  <REMARK>
 VINA RESULT:      -8.2      2.248      7.783
  Name = 
  10 active torsions:
  status: ('A' for Active; 'I' for Inactive)
    1  A    between atoms: C_3  and  C_26
    2  A    between atoms: O_4  and  C_18
    3  A    between atoms: O_4  and  C_37
    4  A    between atoms: C_5  and  C_13
    5  A    between atoms: N_8  and  C_23
    6  A    between atoms: C_9  and  C_34
    7  A    between atoms: C_18  and  C_26
    8  A    between atoms: C_19  and  C_23
    9  A    between atoms: C_19  and  O_36
   10  A    between atoms: C_32  and  O_36
                            x       y       z     vdW  Elec       q    Type
                         _______ _______ _______ _____ _____    ______ ____

>  <TORSDO>
F 10

$$$$
=
 OpenBabel11042412083D

 37 41  0  0  1  0  0  0  0  0999 V2000
  188.6380  177.5180  147.2560 C   0  0  0  0  0  0  0  0  0  0  0  0
  188.1910  177.6500  148.6660 C   0  0  0  0  0  1  0  0  0  0  0  0
  190.4410  177.2750  145.6670 N   0  0  0  0  0  0  0  0  0  0  0  0
  188.1770  177.3930  144.9170 C   0  0  0  0  0  0  0  0  0  0  0  0
  189.7700  177.1890  143.3490 N   0  0  0  0  0  0  0  0  0  0  0  0
  187.6940  177.5160  146.2160 C   0  0  0  0  0  3  0  0  0  0  0  0
  190.0140  177.3910  146.9610 C   0  0  0  0  0  3  0  0  0  0  0  0
  189.5210  177.2870  144.6680 C   0  0  0  0  0  0  0  0  0  0  0  0
  187.5440  177.3540  143.6890 C   0  0  0  0  0  0  0  0  0  0  0  0
  191.0790  176.9930  142.7390 C   0  0  0  0  0  1  0  0  0  0  0  0
  188.5510  177.2260  142.7440 C   0  0  0  0  0  0  0  0  0  0  0  0
  188.3120  177.1300  141.3700 O   0  0  0  0  0  0  0  0  0  0  0  0
  187.9670  178.2460  140.5630 C   0  0  0  0  0  2  0  0  0  0  0  0
  189.1730  178.6600  139.7420 C   0  0  0  0  0  2  0  0  0  0  0  0
  189.5720  177.5640  138.8180 C   0  0  0  0  0  0  0  0  0  0  0  0
  190.6040  175.7070  137.6240 C   0  0  0  0  0  0  0  0  0  0  0  0
  188.9070  177.2700  137.6770 N   0  0  0  0  0  0  0  0  0  0  0  0
  190.8840  176.5400  139.0640 S   0  0  0  0  0  0  0  0  0  0  0  0
  189.4760  176.2340  137.0050 C   0  0  0  0  0  3  0  0  0  0  0  0
  193.1310  173.9520  135.2640 C   0  0  0  0  0  2  0  0  0  0  0  0
  191.3950  174.5450  137.1060 C   0  0  1  0  0  3  0  0  0  0  0  0
  192.5590  172.5520  135.5060 C   0  0  0  0  0  2  0  0  0  0  0  0
  190.5100  173.5780  136.3650 C   0  0  0  0  0  3  0  0  0  0  0  0
  191.0640  172.6240  135.6080 C   0  0  0  0  0  3  0  0  0  0  0  0
  192.5900  175.0130  136.2470 C   0  0  1  0  0  3  0  0  0  0  0  0
  193.6940  175.5620  137.0990 C   0  0  0  0  0  0  0  0  0  0  0  0
  194.4790  174.6430  137.9670 C   0  0  0  0  0  1  0  0  0  0  0  0
  193.9510  176.7540  137.0910 O   0  0  0  0  0  0  0  0  0  0  0  0
  186.1790  177.4520  143.4020 O   0  0  0  0  0  0  0  0  0  0  0  0
  185.4500  178.6640  143.5220 C   0  0  0  0  0  2  0  0  0  0  0  0
  184.7750  179.0060  142.1970 C   0  0  0  0  0  2  0  0  0  0  0  0
  183.3270  178.9030  142.3010 N   0  0  0  0  0  0  0  0  0  0  0  0
  182.5810  178.3950  141.1460 C   0  0  0  0  0  2  0  0  0  0  0  0
  181.0920  178.5480  141.3210 C   0  0  0  0  0  3  0  0  0  0  0  0
  180.5450  178.7670  142.5180 C   0  0  0  0  0  3  0  0  0  0  0  0
  181.3860  178.9370  143.7120 C   0  0  0  0  0  3  0  0  0  0  0  0
  182.7100  179.0020  143.5930 C   0  0  0  0  0  3  0  0  0  0  0  0
  1  2  1  0  0  0  0
  3  7  2  0  0  0  0
  4  6  1  0  0  0  0
  5  8  1  0  0  0  0
  6  1  2  0  0  0  0
  7  1  1  0  0  0  0
  8  4  2  0  0  0  0
  8  3  1  0  0  0  0
  9  4  1  0  0  0  0
 10  5  1  0  0  0  0
 11  5  1  0  0  0  0
 11  9  2  0  0  0  0
 12 11  1  0  0  0  0
 13 12  1  0  0  0  0
 14 13  1  0  0  0  0
 15 18  1  0  0  0  0
 15 14  1  0  0  0  0
 16 18  1  0  0  0  0
 17 15  2  0  0  0  0
 19 16  2  0  0  0  0
 19 17  1  0  0  0  0
 20 22  1  0  0  0  0
 20 25  1  0  0  0  0
 21 16  1  6  0  0  0
 22 24  1  0  0  0  0
 23 21  1  0  0  0  0
 24 23  2  0  0  0  0
 25 26  1  1  0  0  0
 25 21  1  0  0  0  0
 26 27  1  0  0  0  0
 28 26  2  0  0  0  0
 29 30  1  0  0  0  0
 29  9  1  0  0  0  0
 31 32  1  0  0  0  0
 31 30  1  0  0  0  0
 32 37  1  0  0  0  0
 33 34  1  0  0  0  0
 33 32  1  0  0  0  0
 34 35  2  0  0  0  0
 35 36  1  0  0  0  0
 37 36  2  0  0  0  0
M  END
>  <MODEL>
8

>  <REMARK>
 VINA RESULT:      -8.1      2.884      7.928
  Name = 
  10 active torsions:
  status: ('A' for Active; 'I' for Inactive)
    1  A    between atoms: C_3  and  C_26
    2  A    between atoms: O_4  and  C_18
    3  A    between atoms: O_4  and  C_37
    4  A    between atoms: C_5  and  C_13
    5  A    between atoms: N_8  and  C_23
    6  A    between atoms: C_9  and  C_34
    7  A    between atoms: C_18  and  C_26
    8  A    between atoms: C_19  and  C_23
    9  A    between atoms: C_19  and  O_36
   10  A    between atoms: C_32  and  O_36
                            x       y       z     vdW  Elec       q    Type
                         _______ _______ _______ _____ _____    ______ ____

>  <TORSDO>
F 10

$$$$
=
 OpenBabel11042412083D

 37 41  0  0  1  0  0  0  0  0999 V2000
  188.5900  177.4270  146.9090 C   0  0  0  0  0  0  0  0  0  0  0  0
  188.0080  177.4440  148.2750 C   0  0  0  0  0  1  0  0  0  0  0  0
  190.5420  177.3670  145.4860 N   0  0  0  0  0  0  0  0  0  0  0  0
  188.3530  177.4480  144.5330 C   0  0  0  0  0  0  0  0  0  0  0  0
  190.0920  177.4170  143.1140 N   0  0  0  0  0  0  0  0  0  0  0  0
  187.7470  177.4620  145.7850 C   0  0  0  0  0  3  0  0  0  0  0  0
  189.9920  177.3750  146.7380 C   0  0  0  0  0  3  0  0  0  0  0  0
  189.7180  177.4120  144.4070 C   0  0  0  0  0  0  0  0  0  0  0  0
  187.8400  177.4700  143.2500 C   0  0  0  0  0  0  0  0  0  0  0  0
  191.4600  177.3150  142.6200 C   0  0  0  0  0  1  0  0  0  0  0  0
  188.9350  177.4490  142.3990 C   0  0  0  0  0  0  0  0  0  0  0  0
  188.8280  177.4400  141.0050 O   0  0  0  0  0  0  0  0  0  0  0  0
  188.5880  178.6100  140.2380 C   0  0  0  0  0  2  0  0  0  0  0  0
  189.1670  178.4230  138.8490 C   0  0  0  0  0  2  0  0  0  0  0  0
  188.1460  177.8400  137.9370 C   0  0  0  0  0  0  0  0  0  0  0  0
  186.6750  176.4490  136.5790 C   0  0  0  0  0  0  0  0  0  0  0  0
  187.2860  178.5850  137.2040 N   0  0  0  0  0  0  0  0  0  0  0  0
  187.9110  176.1920  137.6990 S   0  0  0  0  0  0  0  0  0  0  0  0
  186.4610  177.8160  136.4440 C   0  0  0  0  0  3  0  0  0  0  0  0
  184.5570  173.2070  136.3700 C   0  0  0  0  0  2  0  0  0  0  0  0
  185.8820  175.3900  135.8780 C   0  0  1  0  0  3  0  0  0  0  0  0
  184.8720  172.9610  134.8910 C   0  0  0  0  0  2  0  0  0  0  0  0
  186.7820  174.4800  135.0830 C   0  0  0  0  0  3  0  0  0  0  0  0
  186.3000  173.3260  134.6080 C   0  0  0  0  0  3  0  0  0  0  0  0
  184.9900  174.6060  136.8640 C   0  0  1  0  0  3  0  0  0  0  0  0
  183.7990  175.4130  137.2840 C   0  0  0  0  0  0  0  0  0  0  0  0
  183.0640  176.2200  136.2720 C   0  0  0  0  0  1  0  0  0  0  0  0
  183.4310  175.4190  138.4460 O   0  0  0  0  0  0  0  0  0  0  0  0
  186.5040  177.5350  142.8410 O   0  0  0  0  0  0  0  0  0  0  0  0
  185.7560  178.7410  142.8320 C   0  0  0  0  0  2  0  0  0  0  0  0
  184.2640  178.4360  142.7350 C   0  0  0  0  0  2  0  0  0  0  0  0
  183.7740  178.6310  141.3790 N   0  0  0  0  0  0  0  0  0  0  0  0
  182.3250  178.6850  141.1650 C   0  0  0  0  0  2  0  0  0  0  0  0
  181.9670  178.6740  139.7020 C   0  0  0  0  0  3  0  0  0  0  0  0
  182.8660  178.9560  138.7570 C   0  0  0  0  0  3  0  0  0  0  0  0
  184.2680  179.2250  139.1070 C   0  0  0  0  0  3  0  0  0  0  0  0
  184.6870  179.0640  140.3610 C   0  0  0  0  0  3  0  0  0  0  0  0
  1  2  1  0  0  0  0
  3  7  2  0  0  0  0
  4  6  1  0  0  0  0
  5  8  1  0  0  0  0
  6  1  2  0  0  0  0
  7  1  1  0  0  0  0
  8  4  2  0  0  0  0
  8  3  1  0  0  0  0
  9  4  1  0  0  0  0
 10  5  1  0  0  0  0
 11  5  1  0  0  0  0
 11  9  2  0  0  0  0
 12 11  1  0  0  0  0
 13 12  1  0  0  0  0
 14 13  1  0  0  0  0
 15 14  1  0  0  0  0
 16 18  1  0  0  0  0
 17 15  2  0  0  0  0
 18 15  1  0  0  0  0
 19 16  2  0  0  0  0
 19 17  1  0  0  0  0
 20 25  1  0  0  0  0
 21 16  1  1  0  0  0
 21 25  1  0  0  0  0
 22 20  1  0  0  0  0
 23 21  1  0  0  0  0
 24 22  1  0  0  0  0
 24 23  2  0  0  0  0
 25 26  1  6  0  0  0
 26 28  2  0  0  0  0
 27 26  1  0  0  0  0
 29  9  1  0  0  0  0
 30 29  1  0  0  0  0
 31 30  1  0  0  0  0
 32 31  1  0  0  0  0
 33 32  1  0  0  0  0
 34 33  1  0  0  0  0
 35 36  1  0  0  0  0
 35 34  2  0  0  0  0
 36 37  2  0  0  0  0
 37 32  1  0  0  0  0
M  END
>  <MODEL>
9

>  <REMARK>
 VINA RESULT:      -8.0      2.112      8.426
  Name = 
  10 active torsions:
  status: ('A' for Active; 'I' for Inactive)
    1  A    between atoms: C_3  and  C_26
    2  A    between atoms: O_4  and  C_18
    3  A    between atoms: O_4  and  C_37
    4  A    between atoms: C_5  and  C_13
    5  A    between atoms: N_8  and  C_23
    6  A    between atoms: C_9  and  C_34
    7  A    between atoms: C_18  and  C_26
    8  A    between atoms: C_19  and  C_23
    9  A    between atoms: C_19  and  O_36
   10  A    between atoms: C_32  and  O_36
                            x       y       z     vdW  Elec       q    Type
                         _______ _______ _______ _____ _____    ______ ____

>  <TORSDO>
F 10

$$$$
