=
 OpenBabel11032420503D

 63 64  0  0  1  0  0  0  0  0999 V2000
  189.9130  177.4400  138.8510 C   0  0  1  0  0  0  0  0  0  0  0  0
  191.3040  177.5980  139.4550 C   0  0  0  0  0  1  0  0  0  0  0  0
  189.9790  176.4740  137.6680 C   0  0  0  0  0  2  0  0  0  0  0  0
  190.4300  175.1500  138.0760 N   0  0  0  0  0  2  0  0  0  0  0  0
  190.0110  174.2300  137.0280 C   0  0  0  0  0  2  0  0  0  0  0  0
  191.1350  173.2670  136.6680 C   0  0  1  0  0  3  0  0  0  0  0  0
  189.6250  172.3610  135.0560 O   0  0  0  0  0  1  0  0  0  0  0  0
  190.9570  172.7210  135.2600 C   0  0  0  0  0  2  0  0  0  0  0  0
  192.4970  173.9340  136.8240 C   0  0  0  0  0  2  0  0  0  0  0  0
  193.5750  173.0990  136.1460 C   0  0  2  0  0  3  0  0  0  0  0  0
  194.3380  172.4240  137.1020 O   0  0  0  0  0  0  0  0  0  0  0  0
  195.4790  172.0040  136.4160 C   0  0  0  0  0  2  0  0  0  0  0  0
  196.0020  170.7130  137.0200 C   0  0  0  0  0  2  0  0  0  0  0  0
  194.9090  170.0200  137.8140 C   0  0  0  0  0  1  0  0  0  0  0  0
  194.4630  173.9560  135.2340 C   0  0  0  0  0  2  0  0  0  0  0  0
  194.3300  175.4380  135.4600 C   0  0  0  0  0  0  0  0  0  0  0  0
  195.4750  176.2310  135.7830 N   0  0  0  0  0  2  0  0  0  0  0  0
  193.2170  176.0050  135.3010 O   0  0  0  0  0  0  0  0  0  0  0  0
  196.8050  175.6610  135.9330 C   0  0  0  0  0  1  0  0  0  0  0  0
  188.9580  176.9100  139.9230 C   0  0  0  0  0  2  0  0  0  0  0  0
  187.9490  177.9090  140.2720 N   0  0  0  0  0  2  0  0  0  0  0  0
  185.0680  178.6540  144.1620 C   0  0  0  0  0  0  0  0  0  0  0  0
  184.2490  178.9970  141.9140 C   0  0  0  0  0  3  0  0  0  0  0  0
  187.7450  177.8480  141.6620 N   0  0  0  0  0  0  0  0  0  0  0  0
  184.0360  179.0290  143.2950 C   0  0  0  0  0  3  0  0  0  0  0  0
  186.2900  178.2430  143.6200 C   0  0  0  0  0  3  0  0  0  0  0  0
  185.4520  178.6010  141.4180 N   0  0  0  0  0  0  0  0  0  0  0  0
  186.4780  178.2280  142.2300 C   0  0  0  0  0  0  0  0  0  0  0  0
  183.7680  179.0230  146.0990 O   0  0  0  0  0  0  0  0  0  0  0  0
  186.8890  177.2500  146.3010 C   0  0  0  0  0  0  0  0  0  0  0  0
  186.7710  176.4590  145.3270 O   0  0  0  0  0  0  0  0  0  0  0  0
  184.8740  178.6520  145.6260 C   0  0  0  0  0  0  0  0  0  0  0  0
  185.9170  178.2730  146.5340 N   0  0  0  0  0  2  0  0  0  0  0  0
  188.0080  177.0630  147.2690 C   0  0  0  0  0  2  0  0  0  0  0  0
  189.0300  178.1790  147.1330 C   0  0  0  0  0  2  0  0  0  0  0  0
  189.9670  177.8980  145.9740 C   0  0  0  0  0  2  0  0  0  0  0  0
  191.6600  176.2810  144.7550 C   0  0  0  0  0  1  0  0  0  0  0  0
  191.2500  176.7090  146.4750 S   0  0  0  0  0  0  0  0  0  0  0  0
  189.6640  178.6110  142.7590 O   0  0  0  0  0  1  0  0  0  0  0  0
  188.8780  177.4880  142.5070 C   0  0  0  0  0  2  0  0  0  0  0  0
  189.4450  178.7900  138.3080 C   0  0  0  0  0  2  0  0  0  0  0  0
  189.0400  178.7500  136.8360 C   0  0  0  0  0  2  0  0  0  0  0  0
  187.0720  177.6300  135.7580 C   0  0  0  0  0  0  0  0  0  0  0  0
  187.7830  177.2740  134.7750 O   0  0  0  0  0  0  0  0  0  0  0  0
  187.6060  178.5200  136.7440 N   0  0  0  0  0  0  0  0  0  0  0  0
  186.8010  178.9850  137.7260 O   0  0  0  0  0  1  0  0  0  0  0  0
  185.7800  177.1250  135.9170 O   0  0  0  0  0  0  0  0  0  0  0  0
  183.6660  174.6970  137.3260 C   0  0  0  0  0  0  0  0  0  0  0  0
  185.5120  175.7640  135.8230 C   0  0  0  0  0  3  0  0  0  0  0  0
  184.5840  175.2290  136.5620 C   0  0  0  0  0  0  0  0  0  0  0  0
  183.5480  172.5520  136.0770 C   0  0  0  0  0  1  0  0  0  0  0  0
  183.3550  173.3320  137.2530 O   0  0  0  0  0  0  0  0  0  0  0  0
  182.9630  175.5380  138.2380 N   0  0  0  0  0  2  0  0  0  0  0  0
  179.7730  177.2590  138.5050 N   0  0  0  0  0  2  0  0  0  0  0  0
  181.0160  175.5660  139.7040 C   0  0  0  0  0  2  0  0  0  0  0  0
  180.9490  176.8970  137.7170 C   0  0  2  0  0  3  0  0  0  0  0  0
  181.5070  175.5950  138.2840 C   0  0  1  0  0  3  0  0  0  0  0  0
  179.7290  176.3590  139.6610 C   0  0  0  0  0  2  0  0  0  0  0  0
  181.9450  178.0690  137.6550 C   0  0  1  0  0  3  0  0  0  0  0  0
  182.2350  178.3760  136.3270 O   0  0  0  0  0  1  0  0  0  0  0  0
  181.1630  181.7050  138.5810 C   0  0  0  0  0  1  0  0  0  0  0  0
  181.6610  180.5030  137.8610 C   0  0  0  0  0  3  0  0  0  0  0  0
  181.4460  179.2900  138.3660 C   0  0  0  0  0  3  0  0  0  0  0  0
  1  2  1  1  0  0  0
  1 20  1  0  0  0  0
  3  4  1  0  0  0  0
  3  1  1  0  0  0  0
  5  4  1  0  0  0  0
  6  8  1  6  0  0  0
  6  9  1  0  0  0  0
  6  5  1  0  0  0  0
  7  8  1  0  0  0  0
 10 15  1  1  0  0  0
 10  9  1  0  0  0  0
 10 11  1  0  0  0  0
 12 13  1  0  0  0  0
 12 11  1  0  0  0  0
 13 14  1  0  0  0  0
 15 16  1  0  0  0  0
 16 17  1  0  0  0  0
 17 19  1  0  0  0  0
 18 16  2  0  0  0  0
 20 21  1  0  0  0  0
 21 24  1  0  0  0  0
 22 32  1  0  0  0  0
 23 25  1  0  0  0  0
 24 28  1  0  0  0  0
 24 40  1  0  0  0  0
 25 22  2  0  0  0  0
 26 22  1  0  0  0  0
 27 23  2  0  0  0  0
 27 28  1  0  0  0  0
 28 26  2  0  0  0  0
 30 33  1  0  0  0  0
 30 34  1  0  0  0  0
 31 30  2  0  0  0  0
 32 29  2  0  0  0  0
 32 33  1  0  0  0  0
 35 34  1  0  0  0  0
 36 38  1  0  0  0  0
 36 35  1  0  0  0  0
 37 38  1  0  0  0  0
 40 39  1  0  0  0  0
 41  1  1  0  0  0  0
 42 41  1  0  0  0  0
 43 47  1  0  0  0  0
 43 45  1  0  0  0  0
 44 43  2  0  0  0  0
 45 42  1  0  0  0  0
 45 46  1  0  0  0  0
 48 53  1  0  0  0  0
 49 47  1  0  0  0  0
 49 50  2  0  0  0  0
 50 48  2  0  0  0  0
 51 52  1  0  0  0  0
 52 48  1  0  0  0  0
 54 58  1  0  0  0  0
 56 59  1  1  0  0  0
 56 57  1  0  0  0  0
 56 54  1  0  0  0  0
 57 53  1  1  0  0  0
 57 55  1  0  0  0  0
 58 55  1  0  0  0  0
 59 60  1  6  0  0  0
 59 63  1  0  0  0  0
 62 63  2  0  0  0  0
 62 61  1  0  0  0  0
M  END
>  <MODEL>
1

>  <REMARK>
 VINA RESULT:      -5.7      0.000      0.000
  Name = 
  31 active torsions:
  status: ('A' for Active; 'I' for Inactive)
    1  A    between atoms: C_1  and  N_12
    2  A    between atoms: C_1  and  C_22
    3  A    between atoms: C_2  and  C_22
    4  A    between atoms: C_2  and  C_35
    5  A    between atoms: C_2  and  C_44
    6  A    between atoms: C_3  and  N_37
    7  A    between atoms: C_3  and  O_40
    8  A    between atoms: C_5  and  O_42
    9  A    between atoms: O_7  and  C_18
   10  A    between atoms: O_7  and  C_20
   11  A    between atoms: C_9  and  C_36
   12  A    between atoms: N_10  and  C_33
   13  A    between atoms: N_10  and  C_44
   14  A    between atoms: C_13  and  C_29
   15  A    between atoms: C_13  and  C_54
   16  A    between atoms: C_15  and  C_39
   17  A    between atoms: N_17  and  C_35
   18  A    between atoms: N_17  and  N_48
   19  A    between atoms: C_18  and  C_36
   20  A    between atoms: C_18  and  C_57
   21  A    between atoms: C_19  and  N_48
   22  A    between atoms: C_20  and  C_47
   23  A    between atoms: C_24  and  C_46
   24  A    between atoms: C_29  and  C_31
   25  A    between atoms: C_30  and  O_42
   26  A    between atoms: C_33  and  C_53
   27  A    between atoms: N_37  and  C_51
   28  A    between atoms: C_38  and  C_39
   29  A    between atoms: C_45  and  C_53
   30  A    between atoms: C_53  and  C_57
   31  A    between atoms: C_54  and  S_55
                            x       y       z     vdW  Elec       q    Type
                         _______ _______ _______ _____ _____    ______ ____

>  <TORSDO>
F 31

$$$$
=
 OpenBabel11032420503D

 63 64  0  0  1  0  0  0  0  0999 V2000
  186.3700  177.8990  143.0300 C   0  0  1  0  0  0  0  0  0  0  0  0
  186.9800  176.5440  143.3680 C   0  0  0  0  0  1  0  0  0  0  0  0
  187.2170  178.5860  141.9590 C   0  0  0  0  0  2  0  0  0  0  0  0
  187.7880  177.6250  141.0240 N   0  0  0  0  0  2  0  0  0  0  0  0
  188.4390  178.4030  139.9790 C   0  0  0  0  0  2  0  0  0  0  0  0
  188.2120  177.7740  138.6110 C   0  0  1  0  0  3  0  0  0  0  0  0
  187.5830  178.2580  136.3590 O   0  0  0  0  0  1  0  0  0  0  0  0
  187.5450  178.7570  137.6610 C   0  0  0  0  0  2  0  0  0  0  0  0
  189.5190  177.2530  138.0240 C   0  0  0  0  0  2  0  0  0  0  0  0
  189.4920  175.7330  137.9410 C   0  0  2  0  0  3  0  0  0  0  0  0
  190.7470  175.2080  138.2610 O   0  0  0  0  0  0  0  0  0  0  0  0
  191.0680  174.3730  137.1900 C   0  0  0  0  0  2  0  0  0  0  0  0
  192.5690  174.3780  136.9590 C   0  0  0  0  0  2  0  0  0  0  0  0
  193.0640  175.7960  136.7380 C   0  0  0  0  0  1  0  0  0  0  0  0
  189.0280  175.2510  136.5600 C   0  0  0  0  0  2  0  0  0  0  0  0
  187.6940  174.5560  136.5660 C   0  0  0  0  0  0  0  0  0  0  0  0
  187.4730  173.3950  135.7610 N   0  0  0  0  0  2  0  0  0  0  0  0
  186.7760  174.9530  137.3320 O   0  0  0  0  0  0  0  0  0  0  0  0
  188.4960  172.8410  134.8890 C   0  0  0  0  0  1  0  0  0  0  0  0
  184.9370  177.6930  142.5300 C   0  0  0  0  0  2  0  0  0  0  0  0
  184.4230  178.9030  141.8900 N   0  0  0  0  0  2  0  0  0  0  0  0
  181.5650  177.8150  138.0650 C   0  0  0  0  0  0  0  0  0  0  0  0
  183.9640  177.9810  137.8270 C   0  0  0  0  0  3  0  0  0  0  0  0
  183.1510  178.6060  141.3700 N   0  0  0  0  0  0  0  0  0  0  0  0
  182.7060  177.7620  137.2580 C   0  0  0  0  0  3  0  0  0  0  0  0
  181.7130  178.0730  139.4310 C   0  0  0  0  0  3  0  0  0  0  0  0
  184.0750  178.2390  139.1580 N   0  0  0  0  0  0  0  0  0  0  0  0
  182.9880  178.2960  139.9730 C   0  0  0  0  0  0  0  0  0  0  0  0
  179.6180  178.5020  136.9170 O   0  0  0  0  0  0  0  0  0  0  0  0
  180.2010  175.0230  137.6090 C   0  0  0  0  0  0  0  0  0  0  0  0
  181.4080  174.9160  137.2630 O   0  0  0  0  0  0  0  0  0  0  0  0
  180.2210  177.5660  137.5050 C   0  0  0  0  0  0  0  0  0  0  0  0
  179.5600  176.3010  137.6390 N   0  0  0  0  0  2  0  0  0  0  0  0
  179.4100  173.7950  137.9090 C   0  0  0  0  0  2  0  0  0  0  0  0
  180.2940  172.5590  137.8630 C   0  0  0  0  0  2  0  0  0  0  0  0
  179.6310  171.4650  137.0490 C   0  0  0  0  0  2  0  0  0  0  0  0
  181.4140  172.0620  135.1960 C   0  0  0  0  0  1  0  0  0  0  0  0
  179.6030  171.9200  135.2870 S   0  0  0  0  0  0  0  0  0  0  0  0
  182.3810  179.3160  143.4610 O   0  0  0  0  0  1  0  0  0  0  0  0
  182.0000  178.7210  142.2610 C   0  0  0  0  0  2  0  0  0  0  0  0
  186.4030  178.7890  144.2730 C   0  0  0  0  0  2  0  0  0  0  0  0
  185.5130  178.2870  145.4070 C   0  0  0  0  0  2  0  0  0  0  0  0
  187.1210  178.0660  147.3190 C   0  0  0  0  0  0  0  0  0  0  0  0
  187.4130  176.8870  146.9690 O   0  0  0  0  0  0  0  0  0  0  0  0
  186.0480  178.7610  146.6750 N   0  0  0  0  0  0  0  0  0  0  0  0
  185.6700  179.9750  147.1360 O   0  0  0  0  0  1  0  0  0  0  0  0
  187.8700  178.7190  148.3010 O   0  0  0  0  0  0  0  0  0  0  0  0
  190.7080  177.0320  147.0990 C   0  0  0  0  0  0  0  0  0  0  0  0
  189.0760  178.2030  148.7620 C   0  0  0  0  0  3  0  0  0  0  0  0
  189.8990  177.6280  147.9340 C   0  0  0  0  0  0  0  0  0  0  0  0
  192.1570  175.1210  147.7500 C   0  0  0  0  0  1  0  0  0  0  0  0
  191.9390  176.5100  147.5190 O   0  0  0  0  0  0  0  0  0  0  0  0
  190.3230  176.9300  145.7290 N   0  0  0  0  0  2  0  0  0  0  0  0
  190.7470  179.0440  142.8030 N   0  0  0  0  0  2  0  0  0  0  0  0
  191.0160  179.2060  145.2010 C   0  0  0  0  0  2  0  0  0  0  0  0
  190.2070  177.8330  143.4170 C   0  0  2  0  0  3  0  0  0  0  0  0
  190.0400  178.1020  144.9090 C   0  0  1  0  0  3  0  0  0  0  0  0
  191.1260  179.9510  143.8890 C   0  0  0  0  0  2  0  0  0  0  0  0
  191.0700  176.6100  143.0600 C   0  0  1  0  0  3  0  0  0  0  0  0
  190.2680  175.5960  142.5400 O   0  0  0  0  0  1  0  0  0  0  0  0
  193.0040  177.4650  139.8630 C   0  0  0  0  0  1  0  0  0  0  0  0
  191.9010  177.1430  140.8080 C   0  0  0  0  0  3  0  0  0  0  0  0
  192.1690  176.9390  142.0960 C   0  0  0  0  0  3  0  0  0  0  0  0
  1  2  1  1  0  0  0
  1 41  1  0  0  0  0
  3  1  1  0  0  0  0
  4  3  1  0  0  0  0
  5  4  1  0  0  0  0
  6  8  1  6  0  0  0
  6  5  1  0  0  0  0
  7  8  1  0  0  0  0
  9  6  1  0  0  0  0
 10 15  1  6  0  0  0
 10  9  1  0  0  0  0
 10 11  1  0  0  0  0
 12 11  1  0  0  0  0
 13 12  1  0  0  0  0
 14 13  1  0  0  0  0
 15 16  1  0  0  0  0
 16 18  2  0  0  0  0
 17 16  1  0  0  0  0
 19 17  1  0  0  0  0
 20  1  1  0  0  0  0
 21 20  1  0  0  0  0
 22 26  1  0  0  0  0
 23 27  2  0  0  0  0
 24 21  1  0  0  0  0
 24 40  1  0  0  0  0
 25 23  1  0  0  0  0
 25 22  2  0  0  0  0
 26 28  2  0  0  0  0
 27 28  1  0  0  0  0
 28 24  1  0  0  0  0
 29 32  2  0  0  0  0
 30 33  1  0  0  0  0
 30 34  1  0  0  0  0
 31 30  2  0  0  0  0
 32 33  1  0  0  0  0
 32 22  1  0  0  0  0
 35 34  1  0  0  0  0
 36 35  1  0  0  0  0
 37 38  1  0  0  0  0
 38 36  1  0  0  0  0
 40 39  1  0  0  0  0
 41 42  1  0  0  0  0
 42 45  1  0  0  0  0
 43 47  1  0  0  0  0
 44 43  2  0  0  0  0
 45 46  1  0  0  0  0
 45 43  1  0  0  0  0
 47 49  1  0  0  0  0
 48 52  1  0  0  0  0
 48 50  2  0  0  0  0
 50 49  2  0  0  0  0
 52 51  1  0  0  0  0
 53 48  1  0  0  0  0
 54 56  1  0  0  0  0
 54 58  1  0  0  0  0
 56 59  1  1  0  0  0
 56 57  1  0  0  0  0
 57 55  1  0  0  0  0
 57 53  1  1  0  0  0
 58 55  1  0  0  0  0
 59 60  1  6  0  0  0
 61 62  1  0  0  0  0
 62 63  2  0  0  0  0
 63 59  1  0  0  0  0
M  END
>  <MODEL>
2

>  <REMARK>
 VINA RESULT:      -5.5      3.376      9.585
  Name = 
  31 active torsions:
  status: ('A' for Active; 'I' for Inactive)
    1  A    between atoms: C_1  and  N_12
    2  A    between atoms: C_1  and  C_22
    3  A    between atoms: C_2  and  C_22
    4  A    between atoms: C_2  and  C_35
    5  A    between atoms: C_2  and  C_44
    6  A    between atoms: C_3  and  N_37
    7  A    between atoms: C_3  and  O_40
    8  A    between atoms: C_5  and  O_42
    9  A    between atoms: O_7  and  C_18
   10  A    between atoms: O_7  and  C_20
   11  A    between atoms: C_9  and  C_36
   12  A    between atoms: N_10  and  C_33
   13  A    between atoms: N_10  and  C_44
   14  A    between atoms: C_13  and  C_29
   15  A    between atoms: C_13  and  C_54
   16  A    between atoms: C_15  and  C_39
   17  A    between atoms: N_17  and  C_35
   18  A    between atoms: N_17  and  N_48
   19  A    between atoms: C_18  and  C_36
   20  A    between atoms: C_18  and  C_57
   21  A    between atoms: C_19  and  N_48
   22  A    between atoms: C_20  and  C_47
   23  A    between atoms: C_24  and  C_46
   24  A    between atoms: C_29  and  C_31
   25  A    between atoms: C_30  and  O_42
   26  A    between atoms: C_33  and  C_53
   27  A    between atoms: N_37  and  C_51
   28  A    between atoms: C_38  and  C_39
   29  A    between atoms: C_45  and  C_53
   30  A    between atoms: C_53  and  C_57
   31  A    between atoms: C_54  and  S_55
                            x       y       z     vdW  Elec       q    Type
                         _______ _______ _______ _____ _____    ______ ____

>  <TORSDO>
F 31

$$$$
=
 OpenBabel11032420503D

 63 64  0  0  1  0  0  0  0  0999 V2000
  189.8700  177.4880  138.9060 C   0  0  1  0  0  0  0  0  0  0  0  0
  191.2110  177.6860  139.6050 C   0  0  0  0  0  1  0  0  0  0  0  0
  190.0810  176.6890  137.6200 C   0  0  0  0  0  2  0  0  0  0  0  0
  190.5860  175.3500  137.8920 N   0  0  0  0  0  2  0  0  0  0  0  0
  190.5470  174.6290  136.6280 C   0  0  0  0  0  2  0  0  0  0  0  0
  191.9380  174.1560  136.2270 C   0  0  1  0  0  3  0  0  0  0  0  0
  191.1830  171.9890  135.5670 O   0  0  0  0  0  1  0  0  0  0  0  0
  191.8650  173.1200  135.1160 C   0  0  0  0  0  2  0  0  0  0  0  0
  192.8180  175.3310  135.8160 C   0  0  0  0  0  2  0  0  0  0  0  0
  194.1860  175.2230  136.4770 C   0  0  2  0  0  3  0  0  0  0  0  0
  195.0480  174.4620  135.6830 O   0  0  0  0  0  0  0  0  0  0  0  0
  196.2100  175.2280  135.5840 C   0  0  0  0  0  2  0  0  0  0  0  0
  197.2930  174.4390  134.8680 C   0  0  0  0  0  2  0  0  0  0  0  0
  198.6520  175.0720  135.1040 C   0  0  0  0  0  1  0  0  0  0  0  0
  194.0840  174.6450  137.8950 C   0  0  0  0  0  2  0  0  0  0  0  0
  194.9420  173.4300  138.1270 C   0  0  0  0  0  0  0  0  0  0  0  0
  196.0390  173.4770  139.0420 N   0  0  0  0  0  2  0  0  0  0  0  0
  194.6600  172.3390  137.5650 O   0  0  0  0  0  0  0  0  0  0  0  0
  196.3990  174.6830  139.7710 C   0  0  0  0  0  1  0  0  0  0  0  0
  188.9180  176.7460  139.8480 C   0  0  0  0  0  2  0  0  0  0  0  0
  187.8710  177.6340  140.3480 N   0  0  0  0  0  2  0  0  0  0  0  0
  185.5420  178.4470  144.5790 C   0  0  0  0  0  0  0  0  0  0  0  0
  184.6020  179.1720  142.4730 C   0  0  0  0  0  3  0  0  0  0  0  0
  187.7850  177.4590  141.7400 N   0  0  0  0  0  0  0  0  0  0  0  0
  184.5240  179.0890  143.8670 C   0  0  0  0  0  3  0  0  0  0  0  0
  186.6120  177.8880  143.8730 C   0  0  0  0  0  3  0  0  0  0  0  0
  185.6600  178.6260  141.8160 N   0  0  0  0  0  0  0  0  0  0  0  0
  186.6680  177.9920  142.4750 C   0  0  0  0  0  0  0  0  0  0  0  0
  184.3610  178.2460  146.6150 O   0  0  0  0  0  0  0  0  0  0  0  0
  187.9150  177.7170  146.5020 C   0  0  0  0  0  0  0  0  0  0  0  0
  188.0080  176.9750  145.4880 O   0  0  0  0  0  0  0  0  0  0  0  0
  185.4830  178.3190  146.0490 C   0  0  0  0  0  0  0  0  0  0  0  0
  186.6630  178.3090  146.8630 N   0  0  0  0  0  2  0  0  0  0  0  0
  189.1020  177.9110  147.3830 C   0  0  0  0  0  2  0  0  0  0  0  0
  190.1020  176.7820  147.1960 C   0  0  0  0  0  2  0  0  0  0  0  0
  191.5050  177.2600  147.5170 C   0  0  0  0  0  2  0  0  0  0  0  0
  191.2250  174.6840  148.0170 C   0  0  0  0  0  1  0  0  0  0  0  0
  192.6100  175.8400  147.7840 S   0  0  0  0  0  0  0  0  0  0  0  0
  188.5060  175.5820  142.9340 O   0  0  0  0  0  1  0  0  0  0  0  0
  188.9030  176.8150  142.4220 C   0  0  0  0  0  2  0  0  0  0  0  0
  189.3060  178.8510  138.5060 C   0  0  0  0  0  2  0  0  0  0  0  0
  189.0040  178.9730  137.0150 C   0  0  0  0  0  2  0  0  0  0  0  0
  187.1370  178.0780  135.5980 C   0  0  0  0  0  0  0  0  0  0  0  0
  187.9050  177.9920  134.5980 O   0  0  0  0  0  0  0  0  0  0  0  0
  187.5870  178.7240  136.7950 N   0  0  0  0  0  0  0  0  0  0  0  0
  186.7190  178.9120  137.8150 O   0  0  0  0  0  1  0  0  0  0  0  0
  185.8640  177.5060  135.5640 O   0  0  0  0  0  0  0  0  0  0  0  0
  183.4920  175.2410  136.8260 C   0  0  0  0  0  0  0  0  0  0  0  0
  185.6750  176.1370  135.7140 C   0  0  0  0  0  3  0  0  0  0  0  0
  184.5820  175.6840  136.2580 C   0  0  0  0  0  0  0  0  0  0  0  0
  184.2550  172.9530  137.4240 C   0  0  0  0  0  1  0  0  0  0  0  0
  183.2550  173.8690  136.9850 O   0  0  0  0  0  0  0  0  0  0  0  0
  182.5220  176.1860  137.2760 N   0  0  0  0  0  2  0  0  0  0  0  0
  181.2480  178.2130  140.0110 N   0  0  0  0  0  2  0  0  0  0  0  0
  183.0450  178.2870  138.3940 C   0  0  0  0  0  2  0  0  0  0  0  0
  181.2880  176.9370  139.2980 C   0  0  2  0  0  3  0  0  0  0  0  0
  182.6250  176.8540  138.5670 C   0  0  1  0  0  3  0  0  0  0  0  0
  182.3980  179.0000  139.5610 C   0  0  0  0  0  2  0  0  0  0  0  0
  180.0420  176.7690  138.4110 C   0  0  1  0  0  3  0  0  0  0  0  0
  178.9540  176.3790  139.1890 O   0  0  0  0  0  1  0  0  0  0  0  0
  179.5330  179.3030  135.5810 C   0  0  0  0  0  1  0  0  0  0  0  0
  179.8690  178.0600  136.3250 C   0  0  0  0  0  3  0  0  0  0  0  0
  179.7040  178.0120  137.6460 C   0  0  0  0  0  3  0  0  0  0  0  0
  1  2  1  1  0  0  0
  1 20  1  0  0  0  0
  3  4  1  0  0  0  0
  3  1  1  0  0  0  0
  5  4  1  0  0  0  0
  6  8  1  6  0  0  0
  6  5  1  0  0  0  0
  8  7  1  0  0  0  0
  9  6  1  0  0  0  0
 10  9  1  6  0  0  0
 10 15  1  0  0  0  0
 11 10  1  0  0  0  0
 12 11  1  0  0  0  0
 13 14  1  0  0  0  0
 13 12  1  0  0  0  0
 15 16  1  0  0  0  0
 16 17  1  0  0  0  0
 17 19  1  0  0  0  0
 18 16  2  0  0  0  0
 20 21  1  0  0  0  0
 21 24  1  0  0  0  0
 22 32  1  0  0  0  0
 23 25  1  0  0  0  0
 24 40  1  0  0  0  0
 24 28  1  0  0  0  0
 25 22  2  0  0  0  0
 26 22  1  0  0  0  0
 27 23  2  0  0  0  0
 27 28  1  0  0  0  0
 28 26  2  0  0  0  0
 30 33  1  0  0  0  0
 30 34  1  0  0  0  0
 31 30  2  0  0  0  0
 32 29  2  0  0  0  0
 32 33  1  0  0  0  0
 35 34  1  0  0  0  0
 35 36  1  0  0  0  0
 36 38  1  0  0  0  0
 38 37  1  0  0  0  0
 40 39  1  0  0  0  0
 41  1  1  0  0  0  0
 42 41  1  0  0  0  0
 43 45  1  0  0  0  0
 44 43  2  0  0  0  0
 45 42  1  0  0  0  0
 45 46  1  0  0  0  0
 47 43  1  0  0  0  0
 47 49  1  0  0  0  0
 48 52  1  0  0  0  0
 48 53  1  0  0  0  0
 49 50  2  0  0  0  0
 50 48  2  0  0  0  0
 52 51  1  0  0  0  0
 55 57  1  0  0  0  0
 55 58  1  0  0  0  0
 56 59  1  6  0  0  0
 56 54  1  0  0  0  0
 57 53  1  6  0  0  0
 57 56  1  0  0  0  0
 58 54  1  0  0  0  0
 59 60  1  1  0  0  0
 61 62  1  0  0  0  0
 62 63  2  0  0  0  0
 63 59  1  0  0  0  0
M  END
>  <MODEL>
3

>  <REMARK>
 VINA RESULT:      -4.9      1.663      2.285
  Name = 
  31 active torsions:
  status: ('A' for Active; 'I' for Inactive)
    1  A    between atoms: C_1  and  N_12
    2  A    between atoms: C_1  and  C_22
    3  A    between atoms: C_2  and  C_22
    4  A    between atoms: C_2  and  C_35
    5  A    between atoms: C_2  and  C_44
    6  A    between atoms: C_3  and  N_37
    7  A    between atoms: C_3  and  O_40
    8  A    between atoms: C_5  and  O_42
    9  A    between atoms: O_7  and  C_18
   10  A    between atoms: O_7  and  C_20
   11  A    between atoms: C_9  and  C_36
   12  A    between atoms: N_10  and  C_33
   13  A    between atoms: N_10  and  C_44
   14  A    between atoms: C_13  and  C_29
   15  A    between atoms: C_13  and  C_54
   16  A    between atoms: C_15  and  C_39
   17  A    between atoms: N_17  and  C_35
   18  A    between atoms: N_17  and  N_48
   19  A    between atoms: C_18  and  C_36
   20  A    between atoms: C_18  and  C_57
   21  A    between atoms: C_19  and  N_48
   22  A    between atoms: C_20  and  C_47
   23  A    between atoms: C_24  and  C_46
   24  A    between atoms: C_29  and  C_31
   25  A    between atoms: C_30  and  O_42
   26  A    between atoms: C_33  and  C_53
   27  A    between atoms: N_37  and  C_51
   28  A    between atoms: C_38  and  C_39
   29  A    between atoms: C_45  and  C_53
   30  A    between atoms: C_53  and  C_57
   31  A    between atoms: C_54  and  S_55
                            x       y       z     vdW  Elec       q    Type
                         _______ _______ _______ _____ _____    ______ ____

>  <TORSDO>
F 31

$$$$
=
 OpenBabel11032420503D

 63 64  0  0  1  0  0  0  0  0999 V2000
  187.9380  178.0480  139.2340 C   0  0  1  0  0  0  0  0  0  0  0  0
  189.0270  179.1160  139.2320 C   0  0  0  0  0  1  0  0  0  0  0  0
  186.8440  178.4390  140.2280 C   0  0  0  0  0  2  0  0  0  0  0  0
  185.5150  178.3140  139.6460 N   0  0  0  0  0  2  0  0  0  0  0  0
  184.5680  178.4510  140.7440 C   0  0  0  0  0  2  0  0  0  0  0  0
  183.4470  179.4140  140.3790 C   0  0  1  0  0  3  0  0  0  0  0  0
  183.3920  181.2240  138.8230 O   0  0  0  0  0  1  0  0  0  0  0  0
  183.5450  179.8410  138.9220 C   0  0  0  0  0  2  0  0  0  0  0  0
  182.0820  178.8010  140.6740 C   0  0  0  0  0  2  0  0  0  0  0  0
  181.0410  179.3350  139.6980 C   0  0  2  0  0  3  0  0  0  0  0  0
  180.1100  180.1300  140.3700 O   0  0  0  0  0  0  0  0  0  0  0  0
  180.3850  179.9320  141.7240 C   0  0  0  0  0  2  0  0  0  0  0  0
  179.2360  179.1890  142.3840 C   0  0  0  0  0  2  0  0  0  0  0  0
  179.7590  178.2560  143.4600 C   0  0  0  0  0  1  0  0  0  0  0  0
  180.3490  178.1980  138.9340 C   0  0  0  0  0  2  0  0  0  0  0  0
  180.1880  178.4550  137.4600 C   0  0  0  0  0  0  0  0  0  0  0  0
  181.1800  178.0120  136.5310 N   0  0  0  0  0  2  0  0  0  0  0  0
  179.1430  179.0060  137.0240 O   0  0  0  0  0  0  0  0  0  0  0  0
  182.3900  177.3220  136.9470 C   0  0  0  0  0  1  0  0  0  0  0  0
  187.3590  177.9200  137.8230 C   0  0  0  0  0  2  0  0  0  0  0  0
  188.0410  176.8720  137.0650 N   0  0  0  0  0  2  0  0  0  0  0  0
  186.5350  172.3470  135.9500 C   0  0  0  0  0  0  0  0  0  0  0  0
  188.6050  172.7200  137.1410 C   0  0  0  0  0  3  0  0  0  0  0  0
  187.0600  176.0140  136.5380 N   0  0  0  0  0  0  0  0  0  0  0  0
  187.6910  171.8400  136.5520 C   0  0  0  0  0  3  0  0  0  0  0  0
  186.3150  173.7280  135.9640 C   0  0  0  0  0  3  0  0  0  0  0  0
  188.3670  174.0590  137.1300 N   0  0  0  0  0  0  0  0  0  0  0  0
  187.2530  174.5870  136.5550 C   0  0  0  0  0  0  0  0  0  0  0  0
  185.9250  170.4940  134.6190 O   0  0  0  0  0  0  0  0  0  0  0  0
  183.4920  172.1300  136.6990 C   0  0  0  0  0  0  0  0  0  0  0  0
  184.1400  172.2370  137.7750 O   0  0  0  0  0  0  0  0  0  0  0  0
  185.5340  171.4490  135.3390 C   0  0  0  0  0  0  0  0  0  0  0  0
  184.1250  171.6470  135.5100 N   0  0  0  0  0  2  0  0  0  0  0  0
  182.0320  172.4290  136.6870 C   0  0  0  0  0  2  0  0  0  0  0  0
  181.7180  173.5470  135.7070 C   0  0  0  0  0  2  0  0  0  0  0  0
  180.5960  174.4170  136.2390 C   0  0  0  0  0  2  0  0  0  0  0  0
  180.3440  174.5100  138.8650 C   0  0  0  0  0  1  0  0  0  0  0  0
  179.6500  173.5190  137.5070 S   0  0  0  0  0  0  0  0  0  0  0  0
  186.2840  177.7380  135.1610 O   0  0  0  0  0  1  0  0  0  0  0  0
  185.8990  176.6140  135.8890 C   0  0  0  0  0  2  0  0  0  0  0  0
  188.5330  176.7240  139.7130 C   0  0  0  0  0  2  0  0  0  0  0  0
  189.9780  176.5080  139.2700 C   0  0  0  0  0  2  0  0  0  0  0  0
  190.7140  177.1350  141.5850 C   0  0  0  0  0  0  0  0  0  0  0  0
  189.6470  176.6670  142.0770 O   0  0  0  0  0  0  0  0  0  0  0  0
  190.8640  177.2390  140.1640 N   0  0  0  0  0  0  0  0  0  0  0  0
  191.9590  177.8470  139.6540 O   0  0  0  0  0  1  0  0  0  0  0  0
  191.7720  177.5100  142.4160 O   0  0  0  0  0  0  0  0  0  0  0  0
  190.4280  176.6510  145.5470 C   0  0  0  0  0  0  0  0  0  0  0  0
  192.1020  176.7780  143.5510 C   0  0  0  0  0  3  0  0  0  0  0  0
  191.2650  176.7020  144.5450 C   0  0  0  0  0  0  0  0  0  0  0  0
  191.8700  176.1450  147.5060 C   0  0  0  0  0  1  0  0  0  0  0  0
  190.7150  175.9150  146.7040 O   0  0  0  0  0  0  0  0  0  0  0  0
  189.1910  177.3540  145.4410 N   0  0  0  0  0  2  0  0  0  0  0  0
  186.0050  178.2590  146.9380 N   0  0  0  0  0  2  0  0  0  0  0  0
  188.3570  178.3810  147.4870 C   0  0  0  0  0  2  0  0  0  0  0  0
  186.7600  177.5200  145.9280 C   0  0  2  0  0  3  0  0  0  0  0  0
  188.1650  177.2870  146.4750 C   0  0  1  0  0  3  0  0  0  0  0  0
  186.9550  178.6810  147.9700 C   0  0  0  0  0  2  0  0  0  0  0  0
  186.6930  178.2340  144.5670 C   0  0  1  0  0  3  0  0  0  0  0  0
  186.7660  177.3000  143.5350 O   0  0  0  0  0  1  0  0  0  0  0  0
  183.0420  179.3480  144.2170 C   0  0  0  0  0  1  0  0  0  0  0  0
  184.2560  178.5030  144.3740 C   0  0  0  0  0  3  0  0  0  0  0  0
  185.4590  179.0710  144.4130 C   0  0  0  0  0  3  0  0  0  0  0  0
  1  2  1  1  0  0  0
  1 41  1  0  0  0  0
  1  3  1  0  0  0  0
  4  3  1  0  0  0  0
  4  5  1  0  0  0  0
  6  8  1  6  0  0  0
  6  9  1  0  0  0  0
  6  5  1  0  0  0  0
  7  8  1  0  0  0  0
 10 15  1  1  0  0  0
 10 11  1  0  0  0  0
 10  9  1  0  0  0  0
 11 12  1  0  0  0  0
 12 13  1  0  0  0  0
 13 14  1  0  0  0  0
 16 15  1  0  0  0  0
 17 19  1  0  0  0  0
 17 16  1  0  0  0  0
 18 16  2  0  0  0  0
 20  1  1  0  0  0  0
 21 20  1  0  0  0  0
 22 26  2  0  0  0  0
 22 25  1  0  0  0  0
 24 28  1  0  0  0  0
 24 21  1  0  0  0  0
 25 23  2  0  0  0  0
 26 28  1  0  0  0  0
 27 23  1  0  0  0  0
 28 27  2  0  0  0  0
 29 32  2  0  0  0  0
 30 31  2  0  0  0  0
 32 33  1  0  0  0  0
 32 22  1  0  0  0  0
 33 30  1  0  0  0  0
 34 30  1  0  0  0  0
 35 36  1  0  0  0  0
 35 34  1  0  0  0  0
 36 38  1  0  0  0  0
 38 37  1  0  0  0  0
 39 40  1  0  0  0  0
 40 24  1  0  0  0  0
 42 41  1  0  0  0  0
 42 45  1  0  0  0  0
 43 44  2  0  0  0  0
 43 47  1  0  0  0  0
 45 43  1  0  0  0  0
 46 45  1  0  0  0  0
 47 49  1  0  0  0  0
 48 52  1  0  0  0  0
 49 50  2  0  0  0  0
 50 48  2  0  0  0  0
 52 51  1  0  0  0  0
 53 48  1  0  0  0  0
 54 58  1  0  0  0  0
 55 58  1  0  0  0  0
 56 59  1  6  0  0  0
 56 57  1  0  0  0  0
 56 54  1  0  0  0  0
 57 53  1  6  0  0  0
 57 55  1  0  0  0  0
 59 60  1  6  0  0  0
 61 62  1  0  0  0  0
 62 63  2  0  0  0  0
 63 59  1  0  0  0  0
M  END
>  <MODEL>
4

>  <REMARK>
 VINA RESULT:      -4.4      3.720     10.904
  Name = 
  31 active torsions:
  status: ('A' for Active; 'I' for Inactive)
    1  A    between atoms: C_1  and  N_12
    2  A    between atoms: C_1  and  C_22
    3  A    between atoms: C_2  and  C_22
    4  A    between atoms: C_2  and  C_35
    5  A    between atoms: C_2  and  C_44
    6  A    between atoms: C_3  and  N_37
    7  A    between atoms: C_3  and  O_40
    8  A    between atoms: C_5  and  O_42
    9  A    between atoms: O_7  and  C_18
   10  A    between atoms: O_7  and  C_20
   11  A    between atoms: C_9  and  C_36
   12  A    between atoms: N_10  and  C_33
   13  A    between atoms: N_10  and  C_44
   14  A    between atoms: C_13  and  C_29
   15  A    between atoms: C_13  and  C_54
   16  A    between atoms: C_15  and  C_39
   17  A    between atoms: N_17  and  C_35
   18  A    between atoms: N_17  and  N_48
   19  A    between atoms: C_18  and  C_36
   20  A    between atoms: C_18  and  C_57
   21  A    between atoms: C_19  and  N_48
   22  A    between atoms: C_20  and  C_47
   23  A    between atoms: C_24  and  C_46
   24  A    between atoms: C_29  and  C_31
   25  A    between atoms: C_30  and  O_42
   26  A    between atoms: C_33  and  C_53
   27  A    between atoms: N_37  and  C_51
   28  A    between atoms: C_38  and  C_39
   29  A    between atoms: C_45  and  C_53
   30  A    between atoms: C_53  and  C_57
   31  A    between atoms: C_54  and  S_55
                            x       y       z     vdW  Elec       q    Type
                         _______ _______ _______ _____ _____    ______ ____

>  <TORSDO>
F 31

$$$$
=
 OpenBabel11032420503D

 63 64  0  0  1  0  0  0  0  0999 V2000
  188.7570  176.9260  137.7530 C   0  0  1  0  0  0  0  0  0  0  0  0
  188.9360  177.6950  136.4490 C   0  0  0  0  0  1  0  0  0  0  0  0
  187.3370  176.3650  137.8220 C   0  0  0  0  0  2  0  0  0  0  0  0
  186.3380  177.3840  137.5270 N   0  0  0  0  0  2  0  0  0  0  0  0
  185.6150  176.9240  136.3490 C   0  0  0  0  0  2  0  0  0  0  0  0
  184.5410  175.9140  136.7300 C   0  0  1  0  0  3  0  0  0  0  0  0
  183.3910  175.4860  138.7780 O   0  0  0  0  0  1  0  0  0  0  0  0
  183.6300  176.4670  137.8150 C   0  0  0  0  0  2  0  0  0  0  0  0
  183.7340  175.4880  135.5090 C   0  0  0  0  0  2  0  0  0  0  0  0
  182.6380  174.5100  135.9150 C   0  0  2  0  0  3  0  0  0  0  0  0
  182.8330  173.2770  135.2870 O   0  0  0  0  0  0  0  0  0  0  0  0
  184.0610  172.8210  135.7720 C   0  0  0  0  0  2  0  0  0  0  0  0
  184.8270  172.1170  134.6650 C   0  0  0  0  0  2  0  0  0  0  0  0
  185.8510  171.1660  135.2550 C   0  0  0  0  0  1  0  0  0  0  0  0
  181.2410  175.0690  135.6120 C   0  0  0  0  0  2  0  0  0  0  0  0
  180.2440  174.8660  136.7200 C   0  0  0  0  0  0  0  0  0  0  0  0
  179.8650  173.5490  137.1260 N   0  0  0  0  0  2  0  0  0  0  0  0
  179.7820  175.8560  137.3460 O   0  0  0  0  0  0  0  0  0  0  0  0
  180.3920  172.3520  136.4910 C   0  0  0  0  0  1  0  0  0  0  0  0
  189.7850  175.7940  137.8130 C   0  0  0  0  0  2  0  0  0  0  0  0
  190.8140  175.9600  136.7880 N   0  0  0  0  0  2  0  0  0  0  0  0
  193.8730  172.1360  136.7100 C   0  0  0  0  0  0  0  0  0  0  0  0
  191.9940  172.2670  135.1950 C   0  0  0  0  0  3  0  0  0  0  0  0
  191.9850  175.3320  137.2480 N   0  0  0  0  0  0  0  0  0  0  0  0
  193.1050  171.5740  135.6850 C   0  0  0  0  0  3  0  0  0  0  0  0
  193.5140  173.3910  137.2140 C   0  0  0  0  0  3  0  0  0  0  0  0
  191.6660  173.4820  135.7120 N   0  0  0  0  0  0  0  0  0  0  0  0
  192.3900  174.0600  136.7080 C   0  0  0  0  0  0  0  0  0  0  0  0
  194.9210  170.3920  137.9100 O   0  0  0  0  0  0  0  0  0  0  0  0
  196.8570  172.6250  135.8630 C   0  0  0  0  0  0  0  0  0  0  0  0
  196.1580  172.6450  134.8150 O   0  0  0  0  0  0  0  0  0  0  0  0
  195.0680  171.4460  137.2370 C   0  0  0  0  0  0  0  0  0  0  0  0
  196.3930  171.9550  137.0390 N   0  0  0  0  0  2  0  0  0  0  0  0
  198.2190  173.2330  135.8510 C   0  0  0  0  0  2  0  0  0  0  0  0
  198.1800  174.6300  135.2540 C   0  0  0  0  0  2  0  0  0  0  0  0
  197.2500  175.5210  136.0540 C   0  0  0  0  0  2  0  0  0  0  0  0
  196.2500  177.4790  134.5940 C   0  0  0  0  0  1  0  0  0  0  0  0
  195.7150  175.8240  135.1260 S   0  0  0  0  0  0  0  0  0  0  0  0
  193.7270  176.7710  137.8490 O   0  0  0  0  0  1  0  0  0  0  0  0
  192.7130  175.9560  138.3480 C   0  0  0  0  0  2  0  0  0  0  0  0
  188.9200  177.8890  138.9300 C   0  0  0  0  0  2  0  0  0  0  0  0
  188.4660  177.3050  140.2650 C   0  0  0  0  0  2  0  0  0  0  0  0
  189.7980  177.4410  142.3850 C   0  0  0  0  0  0  0  0  0  0  0  0
  189.7100  176.1910  142.5500 O   0  0  0  0  0  0  0  0  0  0  0  0
  189.0490  178.0830  141.3470 N   0  0  0  0  0  0  0  0  0  0  0  0
  189.0620  179.4330  141.2550 O   0  0  0  0  0  1  0  0  0  0  0  0
  190.6590  178.2010  143.1810 O   0  0  0  0  0  0  0  0  0  0  0  0
  189.1150  177.1230  146.1480 C   0  0  0  0  0  0  0  0  0  0  0  0
  190.9930  177.8110  144.4730 C   0  0  0  0  0  3  0  0  0  0  0  0
  190.0600  177.4560  145.3090 C   0  0  0  0  0  0  0  0  0  0  0  0
  189.6910  177.6210  148.5130 C   0  0  0  0  0  1  0  0  0  0  0  0
  189.4090  176.7110  147.4540 O   0  0  0  0  0  0  0  0  0  0  0  0
  187.7600  177.1710  145.7050 N   0  0  0  0  0  2  0  0  0  0  0  0
  184.7450  179.0450  146.4860 N   0  0  0  0  0  2  0  0  0  0  0  0
  187.0180  178.8640  147.2920 C   0  0  0  0  0  2  0  0  0  0  0  0
  185.3950  177.9250  145.8070 C   0  0  2  0  0  3  0  0  0  0  0  0
  186.6690  177.5900  146.5760 C   0  0  1  0  0  3  0  0  0  0  0  0
  185.6840  179.5470  147.4930 C   0  0  0  0  0  2  0  0  0  0  0  0
  185.5890  178.2330  144.3120 C   0  0  1  0  0  3  0  0  0  0  0  0
  186.2540  177.1770  143.6920 O   0  0  0  0  0  1  0  0  0  0  0  0
  182.9580  178.8360  141.5910 C   0  0  0  0  0  1  0  0  0  0  0  0
  184.2490  178.5560  142.2760 C   0  0  0  0  0  3  0  0  0  0  0  0
  184.2970  178.5100  143.6060 C   0  0  0  0  0  3  0  0  0  0  0  0
  1  2  1  6  0  0  0
  1 20  1  0  0  0  0
  1  3  1  0  0  0  0
  1 41  1  0  0  0  0
  4  3  1  0  0  0  0
  5  6  1  0  0  0  0
  5  4  1  0  0  0  0
  6  9  1  6  0  0  0
  6  8  1  0  0  0  0
  8  7  1  0  0  0  0
 10  9  1  6  0  0  0
 11 12  1  0  0  0  0
 11 10  1  0  0  0  0
 13 14  1  0  0  0  0
 13 12  1  0  0  0  0
 15 10  1  0  0  0  0
 15 16  1  0  0  0  0
 16 17  1  0  0  0  0
 16 18  2  0  0  0  0
 19 17  1  0  0  0  0
 21 24  1  0  0  0  0
 21 20  1  0  0  0  0
 22 26  1  0  0  0  0
 22 32  1  0  0  0  0
 23 25  1  0  0  0  0
 23 27  2  0  0  0  0
 24 40  1  0  0  0  0
 25 22  2  0  0  0  0
 27 28  1  0  0  0  0
 28 26  2  0  0  0  0
 28 24  1  0  0  0  0
 30 33  1  0  0  0  0
 31 30  2  0  0  0  0
 32 29  2  0  0  0  0
 33 32  1  0  0  0  0
 34 30  1  0  0  0  0
 35 34  1  0  0  0  0
 35 36  1  0  0  0  0
 37 38  1  0  0  0  0
 38 36  1  0  0  0  0
 39 40  1  0  0  0  0
 41 42  1  0  0  0  0
 42 45  1  0  0  0  0
 43 44  2  0  0  0  0
 43 47  1  0  0  0  0
 45 43  1  0  0  0  0
 46 45  1  0  0  0  0
 47 49  1  0  0  0  0
 48 52  1  0  0  0  0
 49 50  2  0  0  0  0
 50 48  2  0  0  0  0
 52 51  1  0  0  0  0
 53 48  1  0  0  0  0
 54 58  1  0  0  0  0
 55 58  1  0  0  0  0
 56 59  1  6  0  0  0
 56 54  1  0  0  0  0
 56 57  1  0  0  0  0
 57 53  1  6  0  0  0
 57 55  1  0  0  0  0
 59 60  1  6  0  0  0
 61 62  1  0  0  0  0
 62 63  2  0  0  0  0
 63 59  1  0  0  0  0
M  END
>  <MODEL>
5

>  <REMARK>
 VINA RESULT:      -4.2      2.911     10.431
  Name = 
  31 active torsions:
  status: ('A' for Active; 'I' for Inactive)
    1  A    between atoms: C_1  and  N_12
    2  A    between atoms: C_1  and  C_22
    3  A    between atoms: C_2  and  C_22
    4  A    between atoms: C_2  and  C_35
    5  A    between atoms: C_2  and  C_44
    6  A    between atoms: C_3  and  N_37
    7  A    between atoms: C_3  and  O_40
    8  A    between atoms: C_5  and  O_42
    9  A    between atoms: O_7  and  C_18
   10  A    between atoms: O_7  and  C_20
   11  A    between atoms: C_9  and  C_36
   12  A    between atoms: N_10  and  C_33
   13  A    between atoms: N_10  and  C_44
   14  A    between atoms: C_13  and  C_29
   15  A    between atoms: C_13  and  C_54
   16  A    between atoms: C_15  and  C_39
   17  A    between atoms: N_17  and  C_35
   18  A    between atoms: N_17  and  N_48
   19  A    between atoms: C_18  and  C_36
   20  A    between atoms: C_18  and  C_57
   21  A    between atoms: C_19  and  N_48
   22  A    between atoms: C_20  and  C_47
   23  A    between atoms: C_24  and  C_46
   24  A    between atoms: C_29  and  C_31
   25  A    between atoms: C_30  and  O_42
   26  A    between atoms: C_33  and  C_53
   27  A    between atoms: N_37  and  C_51
   28  A    between atoms: C_38  and  C_39
   29  A    between atoms: C_45  and  C_53
   30  A    between atoms: C_53  and  C_57
   31  A    between atoms: C_54  and  S_55
                            x       y       z     vdW  Elec       q    Type
                         _______ _______ _______ _____ _____    ______ ____

>  <TORSDO>
F 31

$$$$
=
 OpenBabel11032420503D

 63 64  0  0  1  0  0  0  0  0999 V2000
  188.0860  178.7860  141.0050 C   0  0  1  0  0  0  0  0  0  0  0  0
  188.5930  180.1490  140.5480 C   0  0  0  0  0  1  0  0  0  0  0  0
  186.6660  178.9280  141.5520 C   0  0  0  0  0  2  0  0  0  0  0  0
  185.7170  179.2890  140.5060 N   0  0  0  0  0  2  0  0  0  0  0  0
  184.4370  178.7150  140.8940 C   0  0  0  0  0  2  0  0  0  0  0  0
  183.5340  178.5300  139.6810 C   0  0  1  0  0  3  0  0  0  0  0  0
  183.2960  177.3870  137.5980 O   0  0  0  0  0  1  0  0  0  0  0  0
  184.0800  177.4590  138.7500 C   0  0  0  0  0  2  0  0  0  0  0  0
  182.1070  178.2020  140.1070 C   0  0  0  0  0  2  0  0  0  0  0  0
  181.2310  179.4460  140.0210 C   0  0  2  0  0  3  0  0  0  0  0  0
  179.8930  179.0850  139.8450 O   0  0  0  0  0  0  0  0  0  0  0  0
  179.9410  177.8370  139.2200 C   0  0  0  0  0  2  0  0  0  0  0  0
  179.1970  176.8100  140.0560 C   0  0  0  0  0  2  0  0  0  0  0  0
  179.1710  175.4700  139.3440 C   0  0  0  0  0  1  0  0  0  0  0  0
  181.7000  180.3910  138.9060 C   0  0  0  0  0  2  0  0  0  0  0  0
  180.5840  181.1170  138.2040 C   0  0  0  0  0  0  0  0  0  0  0  0
  180.2980  180.8550  136.8280 N   0  0  0  0  0  2  0  0  0  0  0  0
  179.8480  181.9150  138.8420 O   0  0  0  0  0  0  0  0  0  0  0  0
  181.0660  179.9100  136.0350 C   0  0  0  0  0  1  0  0  0  0  0  0
  188.1090  177.8180  139.8190 C   0  0  0  0  0  2  0  0  0  0  0  0
  189.0040  178.2950  138.7660 N   0  0  0  0  0  2  0  0  0  0  0  0
  190.9070  174.5140  136.3030 C   0  0  0  0  0  0  0  0  0  0  0  0
  191.8890  175.2800  138.3750 C   0  0  0  0  0  3  0  0  0  0  0  0
  188.9360  177.3840  137.6980 N   0  0  0  0  0  0  0  0  0  0  0  0
  191.9010  174.4090  137.2810 C   0  0  0  0  0  3  0  0  0  0  0  0
  189.9120  175.4860  136.4520 C   0  0  0  0  0  3  0  0  0  0  0  0
  190.9130  176.2210  138.4860 N   0  0  0  0  0  0  0  0  0  0  0  0
  189.9290  176.3510  137.5560 C   0  0  0  0  0  0  0  0  0  0  0  0
  191.9540  173.2540  134.6020 O   0  0  0  0  0  0  0  0  0  0  0  0
  188.4690  172.7790  135.3470 C   0  0  0  0  0  0  0  0  0  0  0  0
  188.5070  172.7190  136.6050 O   0  0  0  0  0  0  0  0  0  0  0  0
  190.8720  173.5970  135.1460 C   0  0  0  0  0  0  0  0  0  0  0  0
  189.6420  173.1070  134.5960 N   0  0  0  0  0  2  0  0  0  0  0  0
  187.2120  172.4220  134.6300 C   0  0  0  0  0  2  0  0  0  0  0  0
  186.0830  173.3610  135.0220 C   0  0  0  0  0  2  0  0  0  0  0  0
  184.7410  172.7540  134.6570 C   0  0  0  0  0  2  0  0  0  0  0  0
  182.7580  171.0680  135.0940 C   0  0  0  0  0  1  0  0  0  0  0  0
  184.5350  171.1430  135.4760 S   0  0  0  0  0  0  0  0  0  0  0  0
  187.2780  178.8150  136.8770 O   0  0  0  0  0  1  0  0  0  0  0  0
  187.8960  177.5800  136.6930 C   0  0  0  0  0  2  0  0  0  0  0  0
  188.9640  178.2820  142.1510 C   0  0  0  0  0  2  0  0  0  0  0  0
  190.4220  178.0680  141.7540 C   0  0  0  0  0  2  0  0  0  0  0  0
  191.5100  176.4940  143.3770 C   0  0  0  0  0  0  0  0  0  0  0  0
  192.0360  177.4600  143.9980 O   0  0  0  0  0  0  0  0  0  0  0  0
  190.8260  176.7240  142.1390 N   0  0  0  0  0  0  0  0  0  0  0  0
  190.3690  175.6690  141.4260 O   0  0  0  0  0  1  0  0  0  0  0  0
  191.5470  175.2040  143.9100 O   0  0  0  0  0  0  0  0  0  0  0  0
  191.6540  176.1920  147.2810 C   0  0  0  0  0  0  0  0  0  0  0  0
  192.2410  174.9190  145.0810 C   0  0  0  0  0  3  0  0  0  0  0  0
  191.9440  175.5430  146.1840 C   0  0  0  0  0  0  0  0  0  0  0  0
  193.2710  176.8160  149.0620 C   0  0  0  0  0  1  0  0  0  0  0  0
  192.3200  175.9260  148.4860 O   0  0  0  0  0  0  0  0  0  0  0  0
  190.6260  177.1790  147.2400 N   0  0  0  0  0  2  0  0  0  0  0  0
  187.0790  177.7030  147.8380 N   0  0  0  0  0  2  0  0  0  0  0  0
  189.1880  178.2760  148.8740 C   0  0  0  0  0  2  0  0  0  0  0  0
  188.1500  176.9920  147.1430 C   0  0  2  0  0  3  0  0  0  0  0  0
  189.3980  177.0590  148.0180 C   0  0  1  0  0  3  0  0  0  0  0  0
  187.6840  178.3900  148.9820 C   0  0  0  0  0  2  0  0  0  0  0  0
  188.3190  177.5270  145.7110 C   0  0  1  0  0  3  0  0  0  0  0  0
  188.4520  176.4650  144.8180 O   0  0  0  0  0  1  0  0  0  0  0  0
  184.8690  178.7970  144.6240 C   0  0  0  0  0  1  0  0  0  0  0  0
  185.9810  177.9040  145.0480 C   0  0  0  0  0  3  0  0  0  0  0  0
  187.1870  178.4130  145.2870 C   0  0  0  0  0  3  0  0  0  0  0  0
  1  2  1  6  0  0  0
  1  3  1  0  0  0  0
  1 41  1  0  0  0  0
  4  5  1  0  0  0  0
  4  3  1  0  0  0  0
  6  8  1  6  0  0  0
  6  9  1  0  0  0  0
  6  5  1  0  0  0  0
  7  8  1  0  0  0  0
 10 15  1  6  0  0  0
 10  9  1  0  0  0  0
 11 10  1  0  0  0  0
 12 11  1  0  0  0  0
 12 13  1  0  0  0  0
 14 13  1  0  0  0  0
 16 18  2  0  0  0  0
 16 15  1  0  0  0  0
 17 16  1  0  0  0  0
 19 17  1  0  0  0  0
 20  1  1  0  0  0  0
 21 20  1  0  0  0  0
 22 26  2  0  0  0  0
 22 25  1  0  0  0  0
 23 27  1  0  0  0  0
 24 21  1  0  0  0  0
 25 23  2  0  0  0  0
 26 28  1  0  0  0  0
 28 24  1  0  0  0  0
 28 27  2  0  0  0  0
 29 32  2  0  0  0  0
 30 31  2  0  0  0  0
 32 22  1  0  0  0  0
 33 32  1  0  0  0  0
 33 30  1  0  0  0  0
 34 35  1  0  0  0  0
 34 30  1  0  0  0  0
 36 35  1  0  0  0  0
 36 38  1  0  0  0  0
 37 38  1  0  0  0  0
 40 39  1  0  0  0  0
 40 24  1  0  0  0  0
 42 45  1  0  0  0  0
 42 41  1  0  0  0  0
 43 47  1  0  0  0  0
 43 44  2  0  0  0  0
 45 43  1  0  0  0  0
 46 45  1  0  0  0  0
 47 49  1  0  0  0  0
 48 52  1  0  0  0  0
 49 50  2  0  0  0  0
 50 48  2  0  0  0  0
 52 51  1  0  0  0  0
 53 48  1  0  0  0  0
 54 58  1  0  0  0  0
 55 58  1  0  0  0  0
 56 59  1  6  0  0  0
 56 54  1  0  0  0  0
 56 57  1  0  0  0  0
 57 53  1  6  0  0  0
 57 55  1  0  0  0  0
 59 60  1  6  0  0  0
 61 62  1  0  0  0  0
 62 63  2  0  0  0  0
 63 59  1  0  0  0  0
M  END
>  <MODEL>
6

>  <REMARK>
 VINA RESULT:      -3.9      3.137     11.347
  Name = 
  31 active torsions:
  status: ('A' for Active; 'I' for Inactive)
    1  A    between atoms: C_1  and  N_12
    2  A    between atoms: C_1  and  C_22
    3  A    between atoms: C_2  and  C_22
    4  A    between atoms: C_2  and  C_35
    5  A    between atoms: C_2  and  C_44
    6  A    between atoms: C_3  and  N_37
    7  A    between atoms: C_3  and  O_40
    8  A    between atoms: C_5  and  O_42
    9  A    between atoms: O_7  and  C_18
   10  A    between atoms: O_7  and  C_20
   11  A    between atoms: C_9  and  C_36
   12  A    between atoms: N_10  and  C_33
   13  A    between atoms: N_10  and  C_44
   14  A    between atoms: C_13  and  C_29
   15  A    between atoms: C_13  and  C_54
   16  A    between atoms: C_15  and  C_39
   17  A    between atoms: N_17  and  C_35
   18  A    between atoms: N_17  and  N_48
   19  A    between atoms: C_18  and  C_36
   20  A    between atoms: C_18  and  C_57
   21  A    between atoms: C_19  and  N_48
   22  A    between atoms: C_20  and  C_47
   23  A    between atoms: C_24  and  C_46
   24  A    between atoms: C_29  and  C_31
   25  A    between atoms: C_30  and  O_42
   26  A    between atoms: C_33  and  C_53
   27  A    between atoms: N_37  and  C_51
   28  A    between atoms: C_38  and  C_39
   29  A    between atoms: C_45  and  C_53
   30  A    between atoms: C_53  and  C_57
   31  A    between atoms: C_54  and  S_55
                            x       y       z     vdW  Elec       q    Type
                         _______ _______ _______ _____ _____    ______ ____

>  <TORSDO>
F 31

$$$$
=
 OpenBabel11032420503D

 63 64  0  0  1  0  0  0  0  0999 V2000
  190.5790  177.4090  140.6080 C   0  0  1  0  0  0  0  0  0  0  0  0
  189.6510  176.2940  141.0800 C   0  0  0  0  0  1  0  0  0  0  0  0
  189.7460  178.5500  140.0250 C   0  0  0  0  0  2  0  0  0  0  0  0
  188.3440  178.4460  140.4050 N   0  0  0  0  0  2  0  0  0  0  0  0
  187.5890  178.3080  139.1670 C   0  0  0  0  0  2  0  0  0  0  0  0
  186.1080  178.0970  139.4540 C   0  0  1  0  0  3  0  0  0  0  0  0
  185.0400  180.1230  140.1280 O   0  0  0  0  0  1  0  0  0  0  0  0
  185.6460  178.9640  140.6150 C   0  0  0  0  0  2  0  0  0  0  0  0
  185.2680  178.3620  138.2100 C   0  0  0  0  0  2  0  0  0  0  0  0
  185.1830  177.1060  137.3520 C   0  0  2  0  0  3  0  0  0  0  0  0
  184.4810  176.1050  138.0290 O   0  0  0  0  0  0  0  0  0  0  0  0
  184.3810  175.0580  137.1110 C   0  0  0  0  0  2  0  0  0  0  0  0
  184.0830  173.7580  137.8370 C   0  0  0  0  0  2  0  0  0  0  0  0
  183.6860  172.6780  136.8470 C   0  0  0  0  0  1  0  0  0  0  0  0
  186.5740  176.6160  136.9280 C   0  0  0  0  0  2  0  0  0  0  0  0
  186.8900  176.8430  135.4740 C   0  0  0  0  0  0  0  0  0  0  0  0
  187.5480  175.8320  134.7060 N   0  0  0  0  0  2  0  0  0  0  0  0
  186.5180  177.9010  134.9020 O   0  0  0  0  0  0  0  0  0  0  0  0
  187.9640  174.5610  135.2770 C   0  0  0  0  0  1  0  0  0  0  0  0
  191.4120  177.9030  141.7930 C   0  0  0  0  0  2  0  0  0  0  0  0
  191.2910  177.0010  142.9370 N   0  0  0  0  0  2  0  0  0  0  0  0
  187.0480  177.8730  145.2230 C   0  0  0  0  0  0  0  0  0  0  0  0
  187.2170  176.1880  143.4980 C   0  0  0  0  0  3  0  0  0  0  0  0
  190.5660  177.6700  143.9380 N   0  0  0  0  0  0  0  0  0  0  0  0
  186.4460  176.8930  144.4270 C   0  0  0  0  0  3  0  0  0  0  0  0
  188.4180  178.1160  145.0760 C   0  0  0  0  0  3  0  0  0  0  0  0
  188.5450  176.4540  143.3720 N   0  0  0  0  0  0  0  0  0  0  0  0
  189.1650  177.3990  144.1300 C   0  0  0  0  0  0  0  0  0  0  0  0
  186.8300  178.9580  147.3100 O   0  0  0  0  0  0  0  0  0  0  0  0
  184.2820  179.2980  144.7960 C   0  0  0  0  0  0  0  0  0  0  0  0
  184.9880  179.5300  143.7790 O   0  0  0  0  0  0  0  0  0  0  0  0
  186.2720  178.6210  146.2320 C   0  0  0  0  0  0  0  0  0  0  0  0
  184.8890  178.9490  146.0440 N   0  0  0  0  0  2  0  0  0  0  0  0
  182.8030  179.4710  144.7200 C   0  0  0  0  0  2  0  0  0  0  0  0
  182.2250  178.6680  143.5670 C   0  0  0  0  0  2  0  0  0  0  0  0
  180.7090  178.7250  143.5920 C   0  0  0  0  0  2  0  0  0  0  0  0
  179.1970  179.8280  141.7310 C   0  0  0  0  0  1  0  0  0  0  0  0
  180.0340  178.2320  141.9760 S   0  0  0  0  0  0  0  0  0  0  0  0
  190.9330  179.9660  144.1910 O   0  0  0  0  0  1  0  0  0  0  0  0
  191.2490  178.7090  144.7020 C   0  0  0  0  0  2  0  0  0  0  0  0
  191.4700  176.8780  139.4850 C   0  0  0  0  0  2  0  0  0  0  0  0
  190.7010  176.1390  138.3920 C   0  0  0  0  0  2  0  0  0  0  0  0
  192.8780  176.2230  137.1490 C   0  0  0  0  0  0  0  0  0  0  0  0
  193.5090  176.4490  138.2200 O   0  0  0  0  0  0  0  0  0  0  0  0
  191.4460  176.2270  137.1450 N   0  0  0  0  0  0  0  0  0  0  0  0
  190.7830  176.0990  135.9730 O   0  0  0  0  0  1  0  0  0  0  0  0
  193.5660  175.9210  135.9720 O   0  0  0  0  0  0  0  0  0  0  0  0
  194.7570  172.6220  136.1840 C   0  0  0  0  0  0  0  0  0  0  0  0
  193.4190  174.6940  135.3350 C   0  0  0  0  0  3  0  0  0  0  0  0
  194.0760  173.6540  135.7620 C   0  0  0  0  0  0  0  0  0  0  0  0
  195.6900  170.7260  134.8760 C   0  0  0  0  0  1  0  0  0  0  0  0
  194.6280  171.3640  135.5800 O   0  0  0  0  0  0  0  0  0  0  0  0
  195.6360  172.7900  137.2950 N   0  0  0  0  0  2  0  0  0  0  0  0
  198.7560  174.6040  137.7220 N   0  0  0  0  0  2  0  0  0  0  0  0
  197.3660  173.8060  135.9110 C   0  0  0  0  0  2  0  0  0  0  0  0
  197.6990  173.7640  138.2800 C   0  0  2  0  0  3  0  0  0  0  0  0
  197.0720  172.9790  137.1310 C   0  0  1  0  0  3  0  0  0  0  0  0
  198.6450  174.5330  136.2630 C   0  0  0  0  0  2  0  0  0  0  0  0
  196.7180  174.6050  139.1150 C   0  0  1  0  0  3  0  0  0  0  0  0
  195.6680  173.8060  139.5640 O   0  0  0  0  0  1  0  0  0  0  0  0
  197.3630  176.7690  142.2120 C   0  0  0  0  0  1  0  0  0  0  0  0
  196.6900  176.1030  141.0660 C   0  0  0  0  0  3  0  0  0  0  0  0
  197.3800  175.2820  140.2770 C   0  0  0  0  0  3  0  0  0  0  0  0
  1  2  1  1  0  0  0
  1 20  1  0  0  0  0
  3  4  1  0  0  0  0
  3  1  1  0  0  0  0
  5  6  1  0  0  0  0
  5  4  1  0  0  0  0
  6  9  1  6  0  0  0
  6  8  1  0  0  0  0
  7  8  1  0  0  0  0
 10 15  1  1  0  0  0
 10 11  1  0  0  0  0
 10  9  1  0  0  0  0
 12 13  1  0  0  0  0
 12 11  1  0  0  0  0
 14 13  1  0  0  0  0
 16 15  1  0  0  0  0
 17 19  1  0  0  0  0
 17 16  1  0  0  0  0
 18 16  2  0  0  0  0
 20 21  1  0  0  0  0
 21 24  1  0  0  0  0
 22 32  1  0  0  0  0
 23 25  1  0  0  0  0
 24 28  1  0  0  0  0
 24 40  1  0  0  0  0
 25 22  2  0  0  0  0
 26 22  1  0  0  0  0
 27 23  2  0  0  0  0
 27 28  1  0  0  0  0
 28 26  2  0  0  0  0
 30 33  1  0  0  0  0
 31 30  2  0  0  0  0
 32 29  2  0  0  0  0
 33 32  1  0  0  0  0
 34 30  1  0  0  0  0
 35 36  1  0  0  0  0
 35 34  1  0  0  0  0
 37 38  1  0  0  0  0
 38 36  1  0  0  0  0
 39 40  1  0  0  0  0
 41  1  1  0  0  0  0
 42 41  1  0  0  0  0
 43 44  2  0  0  0  0
 45 43  1  0  0  0  0
 45 42  1  0  0  0  0
 46 45  1  0  0  0  0
 47 43  1  0  0  0  0
 48 53  1  0  0  0  0
 49 50  2  0  0  0  0
 49 47  1  0  0  0  0
 50 48  2  0  0  0  0
 51 52  1  0  0  0  0
 52 48  1  0  0  0  0
 54 56  1  0  0  0  0
 55 58  1  0  0  0  0
 55 57  1  0  0  0  0
 56 59  1  6  0  0  0
 57 53  1  1  0  0  0
 57 56  1  0  0  0  0
 58 54  1  0  0  0  0
 59 60  1  1  0  0  0
 59 63  1  0  0  0  0
 62 61  1  0  0  0  0
 63 62  2  0  0  0  0
M  END
>  <MODEL>
7

>  <REMARK>
 VINA RESULT:      -3.4      3.119      9.618
  Name = 
  31 active torsions:
  status: ('A' for Active; 'I' for Inactive)
    1  A    between atoms: C_1  and  N_12
    2  A    between atoms: C_1  and  C_22
    3  A    between atoms: C_2  and  C_22
    4  A    between atoms: C_2  and  C_35
    5  A    between atoms: C_2  and  C_44
    6  A    between atoms: C_3  and  N_37
    7  A    between atoms: C_3  and  O_40
    8  A    between atoms: C_5  and  O_42
    9  A    between atoms: O_7  and  C_18
   10  A    between atoms: O_7  and  C_20
   11  A    between atoms: C_9  and  C_36
   12  A    between atoms: N_10  and  C_33
   13  A    between atoms: N_10  and  C_44
   14  A    between atoms: C_13  and  C_29
   15  A    between atoms: C_13  and  C_54
   16  A    between atoms: C_15  and  C_39
   17  A    between atoms: N_17  and  C_35
   18  A    between atoms: N_17  and  N_48
   19  A    between atoms: C_18  and  C_36
   20  A    between atoms: C_18  and  C_57
   21  A    between atoms: C_19  and  N_48
   22  A    between atoms: C_20  and  C_47
   23  A    between atoms: C_24  and  C_46
   24  A    between atoms: C_29  and  C_31
   25  A    between atoms: C_30  and  O_42
   26  A    between atoms: C_33  and  C_53
   27  A    between atoms: N_37  and  C_51
   28  A    between atoms: C_38  and  C_39
   29  A    between atoms: C_45  and  C_53
   30  A    between atoms: C_53  and  C_57
   31  A    between atoms: C_54  and  S_55
                            x       y       z     vdW  Elec       q    Type
                         _______ _______ _______ _____ _____    ______ ____

>  <TORSDO>
F 31

$$$$
=
 OpenBabel11032420503D

 63 64  0  0  1  0  0  0  0  0999 V2000
  187.8980  178.4050  140.9790 C   0  0  1  0  0  0  0  0  0  0  0  0
  188.1750  179.7900  140.4030 C   0  0  0  0  0  1  0  0  0  0  0  0
  186.4720  178.3600  141.5290 C   0  0  0  0  0  2  0  0  0  0  0  0
  185.4800  178.4430  140.4650 N   0  0  0  0  0  2  0  0  0  0  0  0
  184.2010  178.6990  141.1120 C   0  0  0  0  0  2  0  0  0  0  0  0
  183.0430  178.3950  140.1690 C   0  0  1  0  0  3  0  0  0  0  0  0
  180.7170  177.8700  140.0620 O   0  0  0  0  0  1  0  0  0  0  0  0
  181.7800  178.0550  140.9450 C   0  0  0  0  0  2  0  0  0  0  0  0
  182.7970  179.5580  139.2140 C   0  0  0  0  0  2  0  0  0  0  0  0
  182.7120  179.0540  137.7790 C   0  0  2  0  0  3  0  0  0  0  0  0
  181.4910  179.4210  137.2090 O   0  0  0  0  0  0  0  0  0  0  0  0
  181.1250  180.5930  137.8730 C   0  0  0  0  0  2  0  0  0  0  0  0
  180.6910  181.6460  136.8680 C   0  0  0  0  0  2  0  0  0  0  0  0
  179.2980  182.1490  137.1980 C   0  0  0  0  0  1  0  0  0  0  0  0
  182.9260  177.5370  137.7000 C   0  0  0  0  0  2  0  0  0  0  0  0
  181.8880  176.8100  136.8880 C   0  0  0  0  0  0  0  0  0  0  0  0
  182.2190  176.2540  135.6130 N   0  0  0  0  0  2  0  0  0  0  0  0
  180.7320  176.6280  137.3540 O   0  0  0  0  0  0  0  0  0  0  0  0
  183.5440  176.3740  135.0270 C   0  0  0  0  0  1  0  0  0  0  0  0
  188.0820  177.3580  139.8790 C   0  0  0  0  0  2  0  0  0  0  0  0
  188.8590  177.8950  138.7630 N   0  0  0  0  0  2  0  0  0  0  0  0
  191.1200  174.3060  136.3150 C   0  0  0  0  0  0  0  0  0  0  0  0
  192.1090  175.2910  138.2890 C   0  0  0  0  0  3  0  0  0  0  0  0
  188.8550  176.9370  137.7340 N   0  0  0  0  0  0  0  0  0  0  0  0
  192.1770  174.3820  137.2280 C   0  0  0  0  0  3  0  0  0  0  0  0
  190.0100  175.1380  136.4950 C   0  0  0  0  0  3  0  0  0  0  0  0
  191.0190  176.0920  138.4310 N   0  0  0  0  0  0  0  0  0  0  0  0
  189.9720  176.0450  137.5630 C   0  0  0  0  0  0  0  0  0  0  0  0
  192.2460  173.0490  134.6620 O   0  0  0  0  0  0  0  0  0  0  0  0
  188.7990  172.3810  135.4360 C   0  0  0  0  0  0  0  0  0  0  0  0
  188.8410  172.3740  136.6960 O   0  0  0  0  0  0  0  0  0  0  0  0
  191.1440  173.3430  135.1960 C   0  0  0  0  0  0  0  0  0  0  0  0
  189.9480  172.7540  134.6690 N   0  0  0  0  0  2  0  0  0  0  0  0
  187.5670  171.9150  134.7380 C   0  0  0  0  0  2  0  0  0  0  0  0
  186.3720  172.7720  135.1220 C   0  0  0  0  0  2  0  0  0  0  0  0
  185.6000  172.1240  136.2550 C   0  0  0  0  0  2  0  0  0  0  0  0
  183.3570  170.9530  135.5040 C   0  0  0  0  0  1  0  0  0  0  0  0
  183.8410  172.5790  136.1600 S   0  0  0  0  0  0  0  0  0  0  0  0
  186.5410  176.7210  137.4710 O   0  0  0  0  0  1  0  0  0  0  0  0
  187.7390  176.9430  136.7940 C   0  0  0  0  0  2  0  0  0  0  0  0
  188.8430  178.1520  142.1530 C   0  0  0  0  0  2  0  0  0  0  0  0
  190.3070  178.0210  141.7410 C   0  0  0  0  0  2  0  0  0  0  0  0
  191.3850  176.4350  143.3570 C   0  0  0  0  0  0  0  0  0  0  0  0
  191.7910  177.3980  144.0690 O   0  0  0  0  0  0  0  0  0  0  0  0
  190.7810  176.6890  142.0840 N   0  0  0  0  0  0  0  0  0  0  0  0
  190.4580  175.6480  141.2830 O   0  0  0  0  0  1  0  0  0  0  0  0
  191.4790  175.1220  143.8230 O   0  0  0  0  0  0  0  0  0  0  0  0
  191.6770  176.0660  147.2020 C   0  0  0  0  0  0  0  0  0  0  0  0
  192.1880  174.8060  144.9760 C   0  0  0  0  0  3  0  0  0  0  0  0
  191.9290  175.4240  146.0920 C   0  0  0  0  0  0  0  0  0  0  0  0
  193.0890  176.7430  149.1320 C   0  0  0  0  0  1  0  0  0  0  0  0
  192.3590  175.7700  148.3900 O   0  0  0  0  0  0  0  0  0  0  0  0
  190.6720  177.0790  147.1930 N   0  0  0  0  0  2  0  0  0  0  0  0
  187.0850  177.4630  147.6310 N   0  0  0  0  0  2  0  0  0  0  0  0
  189.1230  178.1980  148.7050 C   0  0  0  0  0  2  0  0  0  0  0  0
  188.2140  176.7660  147.0190 C   0  0  2  0  0  3  0  0  0  0  0  0
  189.4230  176.9450  147.9320 C   0  0  1  0  0  3  0  0  0  0  0  0
  187.6120  178.2440  148.7530 C   0  0  0  0  0  2  0  0  0  0  0  0
  188.4130  177.2240  145.5630 C   0  0  1  0  0  3  0  0  0  0  0  0
  188.3440  176.1290  144.7050 O   0  0  0  0  0  1  0  0  0  0  0  0
  185.1970  178.9730  144.4270 C   0  0  0  0  0  1  0  0  0  0  0  0
  186.1690  177.9270  144.8460 C   0  0  0  0  0  3  0  0  0  0  0  0
  187.4210  178.2660  145.1440 C   0  0  0  0  0  3  0  0  0  0  0  0
  1  2  1  6  0  0  0
  1  3  1  0  0  0  0
  1 41  1  0  0  0  0
  4  5  1  0  0  0  0
  4  3  1  0  0  0  0
  6  9  1  1  0  0  0
  6  8  1  0  0  0  0
  6  5  1  0  0  0  0
  7  8  1  0  0  0  0
 10 15  1  1  0  0  0
 10  9  1  0  0  0  0
 11 10  1  0  0  0  0
 11 12  1  0  0  0  0
 13 14  1  0  0  0  0
 13 12  1  0  0  0  0
 16 18  2  0  0  0  0
 16 15  1  0  0  0  0
 17 16  1  0  0  0  0
 19 17  1  0  0  0  0
 20  1  1  0  0  0  0
 21 20  1  0  0  0  0
 22 26  2  0  0  0  0
 22 25  1  0  0  0  0
 23 27  1  0  0  0  0
 24 21  1  0  0  0  0
 25 23  2  0  0  0  0
 26 28  1  0  0  0  0
 28 24  1  0  0  0  0
 28 27  2  0  0  0  0
 29 32  2  0  0  0  0
 30 31  2  0  0  0  0
 32 22  1  0  0  0  0
 33 32  1  0  0  0  0
 33 30  1  0  0  0  0
 34 35  1  0  0  0  0
 34 30  1  0  0  0  0
 35 36  1  0  0  0  0
 37 38  1  0  0  0  0
 38 36  1  0  0  0  0
 40 39  1  0  0  0  0
 40 24  1  0  0  0  0
 42 45  1  0  0  0  0
 42 41  1  0  0  0  0
 43 47  1  0  0  0  0
 43 44  2  0  0  0  0
 45 43  1  0  0  0  0
 46 45  1  0  0  0  0
 47 49  1  0  0  0  0
 48 52  1  0  0  0  0
 49 50  2  0  0  0  0
 50 48  2  0  0  0  0
 52 51  1  0  0  0  0
 53 48  1  0  0  0  0
 54 58  1  0  0  0  0
 55 58  1  0  0  0  0
 56 59  1  6  0  0  0
 56 54  1  0  0  0  0
 56 57  1  0  0  0  0
 57 53  1  6  0  0  0
 57 55  1  0  0  0  0
 59 60  1  6  0  0  0
 61 62  1  0  0  0  0
 62 63  2  0  0  0  0
 63 59  1  0  0  0  0
M  END
>  <MODEL>
8

>  <REMARK>
 VINA RESULT:      -3.2      2.998     11.159
  Name = 
  31 active torsions:
  status: ('A' for Active; 'I' for Inactive)
    1  A    between atoms: C_1  and  N_12
    2  A    between atoms: C_1  and  C_22
    3  A    between atoms: C_2  and  C_22
    4  A    between atoms: C_2  and  C_35
    5  A    between atoms: C_2  and  C_44
    6  A    between atoms: C_3  and  N_37
    7  A    between atoms: C_3  and  O_40
    8  A    between atoms: C_5  and  O_42
    9  A    between atoms: O_7  and  C_18
   10  A    between atoms: O_7  and  C_20
   11  A    between atoms: C_9  and  C_36
   12  A    between atoms: N_10  and  C_33
   13  A    between atoms: N_10  and  C_44
   14  A    between atoms: C_13  and  C_29
   15  A    between atoms: C_13  and  C_54
   16  A    between atoms: C_15  and  C_39
   17  A    between atoms: N_17  and  C_35
   18  A    between atoms: N_17  and  N_48
   19  A    between atoms: C_18  and  C_36
   20  A    between atoms: C_18  and  C_57
   21  A    between atoms: C_19  and  N_48
   22  A    between atoms: C_20  and  C_47
   23  A    between atoms: C_24  and  C_46
   24  A    between atoms: C_29  and  C_31
   25  A    between atoms: C_30  and  O_42
   26  A    between atoms: C_33  and  C_53
   27  A    between atoms: N_37  and  C_51
   28  A    between atoms: C_38  and  C_39
   29  A    between atoms: C_45  and  C_53
   30  A    between atoms: C_53  and  C_57
   31  A    between atoms: C_54  and  S_55
                            x       y       z     vdW  Elec       q    Type
                         _______ _______ _______ _____ _____    ______ ____

>  <TORSDO>
F 31

$$$$
=
 OpenBabel11032420503D

 63 64  0  0  1  0  0  0  0  0999 V2000
  186.6590  178.2370  141.0530 C   0  0  1  0  0  0  0  0  0  0  0  0
  187.1810  179.6510  141.2850 C   0  0  0  0  0  1  0  0  0  0  0  0
  185.1440  178.2810  140.8540 C   0  0  0  0  0  2  0  0  0  0  0  0
  184.7350  179.4360  140.0660 N   0  0  0  0  0  2  0  0  0  0  0  0
  183.3920  179.7830  140.5070 C   0  0  0  0  0  2  0  0  0  0  0  0
  182.3440  179.0040  139.7230 C   0  0  1  0  0  3  0  0  0  0  0  0
  181.4940  176.8970  140.4580 O   0  0  0  0  0  1  0  0  0  0  0  0
  181.3920  178.2740  140.6590 C   0  0  0  0  0  2  0  0  0  0  0  0
  181.5770  179.9200  138.7750 C   0  0  0  0  0  2  0  0  0  0  0  0
  181.7380  179.4440  137.3370 C   0  0  2  0  0  3  0  0  0  0  0  0
  180.8790  180.1550  136.4940 O   0  0  0  0  0  0  0  0  0  0  0  0
  181.2730  181.4870  136.6260 C   0  0  0  0  0  2  0  0  0  0  0  0
  180.5560  182.3440  135.5970 C   0  0  0  0  0  2  0  0  0  0  0  0
  180.0700  183.6350  136.2300 C   0  0  0  0  0  1  0  0  0  0  0  0
  181.5090  177.9320  137.2130 C   0  0  0  0  0  2  0  0  0  0  0  0
  181.8730  177.3620  135.8680 C   0  0  0  0  0  0  0  0  0  0  0  0
  183.2360  177.3230  135.4390 N   0  0  0  0  0  2  0  0  0  0  0  0
  180.9850  176.8530  135.1340 O   0  0  0  0  0  0  0  0  0  0  0  0
  184.3270  177.8410  136.2490 C   0  0  0  0  0  1  0  0  0  0  0  0
  187.3450  177.6460  139.8180 C   0  0  0  0  0  2  0  0  0  0  0  0
  187.9880  178.6890  139.0210 N   0  0  0  0  0  2  0  0  0  0  0  0
  191.4850  176.0890  136.7850 C   0  0  0  0  0  0  0  0  0  0  0  0
  191.5360  176.4620  139.1720 C   0  0  0  0  0  3  0  0  0  0  0  0
  188.4980  178.0880  137.8570 N   0  0  0  0  0  0  0  0  0  0  0  0
  192.1160  175.9200  138.0210 C   0  0  0  0  0  3  0  0  0  0  0  0
  190.2750  176.7890  136.7330 C   0  0  0  0  0  3  0  0  0  0  0  0
  190.3630  177.1450  139.0880 N   0  0  0  0  0  0  0  0  0  0  0  0
  189.7200  177.3280  137.9030 C   0  0  0  0  0  0  0  0  0  0  0  0
  191.2850  175.2290  134.5940 O   0  0  0  0  0  0  0  0  0  0  0  0
  194.5160  176.0110  135.9650 C   0  0  0  0  0  0  0  0  0  0  0  0
  194.2880  177.1450  136.4650 O   0  0  0  0  0  0  0  0  0  0  0  0
  192.0540  175.5120  135.5500 C   0  0  0  0  0  0  0  0  0  0  0  0
  193.4520  175.2280  135.4140 N   0  0  0  0  0  2  0  0  0  0  0  0
  195.9190  175.5160  135.8710 C   0  0  0  0  0  2  0  0  0  0  0  0
  196.0090  174.0620  136.3040 C   0  0  0  0  0  2  0  0  0  0  0  0
  196.1540  173.1590  135.0950 C   0  0  0  0  0  2  0  0  0  0  0  0
  194.2060  172.2710  136.6380 C   0  0  0  0  0  1  0  0  0  0  0  0
  195.3320  171.5640  135.3970 S   0  0  0  0  0  0  0  0  0  0  0  0
  187.4790  179.6910  136.4920 O   0  0  0  0  0  1  0  0  0  0  0  0
  187.8100  178.3410  136.5950 C   0  0  0  0  0  2  0  0  0  0  0  0
  186.9290  177.3920  142.2970 C   0  0  0  0  0  2  0  0  0  0  0  0
  188.0430  177.9450  143.1820 C   0  0  0  0  0  2  0  0  0  0  0  0
  190.5270  178.2330  142.9890 C   0  0  0  0  0  0  0  0  0  0  0  0
  190.4580  179.3840  143.5060 O   0  0  0  0  0  0  0  0  0  0  0  0
  189.3290  177.5280  142.6430 N   0  0  0  0  0  0  0  0  0  0  0  0
  189.4170  176.3500  141.9860 O   0  0  0  0  0  1  0  0  0  0  0  0
  191.7650  177.6170  142.7930 O   0  0  0  0  0  0  0  0  0  0  0  0
  191.2570  176.5910  146.1160 C   0  0  0  0  0  0  0  0  0  0  0  0
  192.2970  176.7350  143.7280 C   0  0  0  0  0  3  0  0  0  0  0  0
  191.7740  176.6510  144.9170 C   0  0  0  0  0  0  0  0  0  0  0  0
  192.1370  174.3660  146.7890 C   0  0  0  0  0  1  0  0  0  0  0  0
  191.7530  175.7070  147.0830 O   0  0  0  0  0  0  0  0  0  0  0  0
  190.1530  177.4380  146.4280 N   0  0  0  0  0  2  0  0  0  0  0  0
  187.2120  177.8200  148.5290 N   0  0  0  0  0  2  0  0  0  0  0  0
  189.4910  178.6240  148.4510 C   0  0  0  0  0  2  0  0  0  0  0  0
  187.9270  177.0990  147.4770 C   0  0  2  0  0  3  0  0  0  0  0  0
  189.4200  177.3340  147.6830 C   0  0  1  0  0  3  0  0  0  0  0  0
  188.1900  178.6630  149.2210 C   0  0  0  0  0  2  0  0  0  0  0  0
  187.3850  177.4820  146.0890 C   0  0  1  0  0  3  0  0  0  0  0  0
  187.1590  176.3340  145.3330 O   0  0  0  0  0  1  0  0  0  0  0  0
  183.9020  178.9210  145.3860 C   0  0  0  0  0  1  0  0  0  0  0  0
  185.1370  178.0960  145.3020 C   0  0  0  0  0  3  0  0  0  0  0  0
  186.1320  178.3010  146.1630 C   0  0  0  0  0  3  0  0  0  0  0  0
  1  2  1  1  0  0  0
  1 41  1  0  0  0  0
  3  1  1  0  0  0  0
  4  5  1  0  0  0  0
  4  3  1  0  0  0  0
  6  9  1  1  0  0  0
  6  5  1  0  0  0  0
  6  8  1  0  0  0  0
  7  8  1  0  0  0  0
 10 15  1  1  0  0  0
 10  9  1  0  0  0  0
 11 12  1  0  0  0  0
 11 10  1  0  0  0  0
 13 14  1  0  0  0  0
 13 12  1  0  0  0  0
 16 15  1  0  0  0  0
 17 16  1  0  0  0  0
 17 19  1  0  0  0  0
 18 16  2  0  0  0  0
 20  1  1  0  0  0  0
 21 20  1  0  0  0  0
 22 25  1  0  0  0  0
 24 28  1  0  0  0  0
 24 21  1  0  0  0  0
 25 23  2  0  0  0  0
 26 22  2  0  0  0  0
 26 28  1  0  0  0  0
 27 23  1  0  0  0  0
 28 27  2  0  0  0  0
 29 32  2  0  0  0  0
 30 31  2  0  0  0  0
 32 22  1  0  0  0  0
 33 32  1  0  0  0  0
 33 30  1  0  0  0  0
 34 30  1  0  0  0  0
 34 35  1  0  0  0  0
 36 38  1  0  0  0  0
 36 35  1  0  0  0  0
 38 37  1  0  0  0  0
 39 40  1  0  0  0  0
 40 24  1  0  0  0  0
 41 42  1  0  0  0  0
 43 44  2  0  0  0  0
 45 43  1  0  0  0  0
 45 42  1  0  0  0  0
 46 45  1  0  0  0  0
 47 43  1  0  0  0  0
 47 49  1  0  0  0  0
 48 53  1  0  0  0  0
 48 52  1  0  0  0  0
 49 50  2  0  0  0  0
 50 48  2  0  0  0  0
 51 52  1  0  0  0  0
 54 58  1  0  0  0  0
 55 58  1  0  0  0  0
 56 59  1  6  0  0  0
 56 57  1  0  0  0  0
 56 54  1  0  0  0  0
 57 53  1  6  0  0  0
 57 55  1  0  0  0  0
 59 60  1  6  0  0  0
 59 63  1  0  0  0  0
 62 61  1  0  0  0  0
 62 63  2  0  0  0  0
M  END
>  <MODEL>
9

>  <REMARK>
 VINA RESULT:      -2.8      2.793     11.043
  Name = 
  31 active torsions:
  status: ('A' for Active; 'I' for Inactive)
    1  A    between atoms: C_1  and  N_12
    2  A    between atoms: C_1  and  C_22
    3  A    between atoms: C_2  and  C_22
    4  A    between atoms: C_2  and  C_35
    5  A    between atoms: C_2  and  C_44
    6  A    between atoms: C_3  and  N_37
    7  A    between atoms: C_3  and  O_40
    8  A    between atoms: C_5  and  O_42
    9  A    between atoms: O_7  and  C_18
   10  A    between atoms: O_7  and  C_20
   11  A    between atoms: C_9  and  C_36
   12  A    between atoms: N_10  and  C_33
   13  A    between atoms: N_10  and  C_44
   14  A    between atoms: C_13  and  C_29
   15  A    between atoms: C_13  and  C_54
   16  A    between atoms: C_15  and  C_39
   17  A    between atoms: N_17  and  C_35
   18  A    between atoms: N_17  and  N_48
   19  A    between atoms: C_18  and  C_36
   20  A    between atoms: C_18  and  C_57
   21  A    between atoms: C_19  and  N_48
   22  A    between atoms: C_20  and  C_47
   23  A    between atoms: C_24  and  C_46
   24  A    between atoms: C_29  and  C_31
   25  A    between atoms: C_30  and  O_42
   26  A    between atoms: C_33  and  C_53
   27  A    between atoms: N_37  and  C_51
   28  A    between atoms: C_38  and  C_39
   29  A    between atoms: C_45  and  C_53
   30  A    between atoms: C_53  and  C_57
   31  A    between atoms: C_54  and  S_55
                            x       y       z     vdW  Elec       q    Type
                         _______ _______ _______ _____ _____    ______ ____

>  <TORSDO>
F 31

$$$$
