=
 OpenBabel11042412173D

 34 35  0  0  1  0  0  0  0  0999 V2000
  187.7070  178.2790  139.5470 C   0  0  0  0  0  0  0  0  0  0  0  0
  187.0880  178.5430  140.7660 C   0  0  0  0  0  3  0  0  0  0  0  0
  187.0400  178.5920  138.3680 O   0  0  0  0  0  1  0  0  0  0  0  0
  188.9880  177.7080  139.5130 C   0  0  0  0  0  0  0  0  0  0  0  0
  187.7390  178.2470  141.9590 C   0  0  0  0  0  3  0  0  0  0  0  0
  189.6500  177.3810  140.7200 C   0  0  0  0  0  0  0  0  0  0  0  0
  189.0170  177.6700  141.9590 C   0  0  0  0  0  0  0  0  0  0  0  0
  190.4210  176.1140  143.3590 C   0  0  0  0  0  1  0  0  0  0  0  0
  189.7160  177.4600  143.2800 C   0  0  2  0  0  3  0  0  0  0  0  0
  187.5550  176.9760  144.4370 C   0  0  0  0  0  3  0  0  0  0  0  0
  189.5680  177.4710  145.8050 C   0  0  0  0  0  3  0  0  0  0  0  0
  188.8460  177.7280  144.5170 C   0  0  1  0  0  3  0  0  0  0  0  0
  186.5920  178.0130  146.4970 C   0  0  0  0  0  0  0  0  0  0  0  0
  187.6790  178.2340  147.2490 C   0  0  0  0  0  3  0  0  0  0  0  0
  189.0480  177.7360  147.0010 C   0  0  0  0  0  3  0  0  0  0  0  0
  186.5570  177.1440  145.3020 C   0  0  0  0  0  3  0  0  0  0  0  0
  185.2980  178.5720  146.9760 C   0  0  0  0  0  2  0  0  0  0  0  0
  184.5430  179.0110  145.8900 O   0  0  0  0  0  1  0  0  0  0  0  0
  192.1510  177.5090  140.5990 C   0  0  0  0  0  1  0  0  0  0  0  0
  190.9240  176.7940  140.6300 O   0  0  0  0  0  0  0  0  0  0  0  0
  189.6190  177.4390  138.1760 C   0  0  2  0  0  3  0  0  0  0  0  0
  189.4310  178.5250  137.3170 O   0  0  0  0  0  1  0  0  0  0  0  0
  189.0710  176.1580  137.5580 C   0  0  0  0  0  2  0  0  0  0  0  0
  188.6100  173.3240  136.8400 C   0  0  0  0  0  1  0  0  0  0  0  0
  190.1580  175.3430  137.0290 N   0  0  0  0  0  0  0  0  0  0  0  0
  189.9470  173.9640  136.6790 C   0  0  0  0  0  0  0  0  0  0  0  0
  190.9000  173.2700  136.2350 O   0  0  0  0  0  0  0  0  0  0  0  0
  191.4880  175.9340  136.9640 C   0  0  0  0  0  2  0  0  0  0  0  0
  192.4340  175.1970  137.8940 C   0  0  0  0  0  2  0  0  0  0  0  0
  193.8240  175.7810  137.7660 C   0  0  0  0  0  2  0  0  0  0  0  0
  194.8100  174.6730  137.4570 C   0  0  0  0  0  2  0  0  0  0  0  0
  195.3970  174.1530  138.7220 C   0  0  0  0  0  0  0  0  0  0  0  0
  195.3360  172.7960  139.0110 O   0  0  0  0  0  0  0  0  0  0  0  0
  195.9680  174.9410  139.5200 O   0  0  0  0  0  1  0  0  0  0  0  0
  1  2  1  0  0  0  0
  2  5  2  0  0  0  0
  3  1  1  0  0  0  0
  4  1  2  0  0  0  0
  4  6  1  0  0  0  0
  6  7  2  0  0  0  0
  7  5  1  0  0  0  0
  7  9  1  0  0  0  0
  9  8  1  1  0  0  0
 10 12  1  0  0  0  0
 10 16  2  0  0  0  0
 11 15  2  0  0  0  0
 12  9  1  6  0  0  0
 12 11  1  0  0  0  0
 13 17  1  0  0  0  0
 13 14  2  0  0  0  0
 15 14  1  0  0  0  0
 16 13  1  0  0  0  0
 18 17  1  0  0  0  0
 19 20  1  0  0  0  0
 20  6  1  0  0  0  0
 21 22  1  6  0  0  0
 21  4  1  0  0  0  0
 23 21  1  0  0  0  0
 25 23  1  0  0  0  0
 26 24  1  0  0  0  0
 26 25  1  0  0  0  0
 27 26  2  0  0  0  0
 28 25  1  0  0  0  0
 28 29  1  0  0  0  0
 30 29  1  0  0  0  0
 31 30  1  0  0  0  0
 31 32  1  0  0  0  0
 32 33  2  0  0  0  0
 32 34  1  0  0  0  0
M  END
>  <MODEL>
1

>  <REMARK>
 VINA RESULT:      -8.1      0.000      0.000
  Name = 
  12 active torsions:
  status: ('A' for Active; 'I' for Inactive)
    1  A    between atoms: C_2  and  C_5
    2  A    between atoms: C_2  and  C_10
    3  A    between atoms: C_6  and  C_7
    4  A    between atoms: C_6  and  N_19
    5  A    between atoms: C_7  and  C_21
    6  A    between atoms: C_9  and  C_17
    7  A    between atoms: C_10  and  C_27
    8  A    between atoms: C_15  and  C_32
    9  A    between atoms: N_19  and  C_23
   10  A    between atoms: C_23  and  C_27
   11  A    between atoms: O_25  and  C_30
   12  A    between atoms: C_31  and  C_32
                            x       y       z     vdW  Elec       q    Type
                         _______ _______ _______ _____ _____    ______ ____

>  <TORSDO>
F 12

$$$$
=
 OpenBabel11042412173D

 34 35  0  0  1  0  0  0  0  0999 V2000
  184.3470  178.6420  145.3920 C   0  0  0  0  0  0  0  0  0  0  0  0
  185.2660  178.1610  146.3200 C   0  0  0  0  0  3  0  0  0  0  0  0
  183.1300  179.1400  145.8420 O   0  0  0  0  0  1  0  0  0  0  0  0
  184.6510  178.6240  144.0230 C   0  0  0  0  0  0  0  0  0  0  0  0
  186.4950  177.6660  145.8960 C   0  0  0  0  0  3  0  0  0  0  0  0
  185.8870  178.1010  143.5770 C   0  0  0  0  0  0  0  0  0  0  0  0
  186.8260  177.6290  144.5340 C   0  0  0  0  0  0  0  0  0  0  0  0
  188.1810  175.9470  143.2340 C   0  0  0  0  0  1  0  0  0  0  0  0
  188.2090  177.1720  144.1370 C   0  0  2  0  0  3  0  0  0  0  0  0
  190.6020  176.9430  144.8150 C   0  0  0  0  0  3  0  0  0  0  0  0
  189.0100  178.0440  146.3700 C   0  0  0  0  0  3  0  0  0  0  0  0
  189.1900  177.0050  145.3060 C   0  0  1  0  0  3  0  0  0  0  0  0
  191.5720  176.4340  147.0610 C   0  0  0  0  0  0  0  0  0  0  0  0
  190.7350  177.0720  147.8920 C   0  0  0  0  0  3  0  0  0  0  0  0
  189.6770  178.0340  147.5230 C   0  0  0  0  0  3  0  0  0  0  0  0
  191.6360  176.6530  145.6010 C   0  0  0  0  0  3  0  0  0  0  0  0
  192.6020  175.5480  147.6680 C   0  0  0  0  0  2  0  0  0  0  0  0
  193.2410  176.2130  148.7130 O   0  0  0  0  0  1  0  0  0  0  0  0
  187.0560  178.9370  141.5220 C   0  0  0  0  0  1  0  0  0  0  0  0
  186.1330  178.0900  142.1930 O   0  0  0  0  0  0  0  0  0  0  0  0
  183.6290  179.1530  143.0540 C   0  0  2  0  0  3  0  0  0  0  0  0
  183.0660  180.3370  143.5330 O   0  0  0  0  0  1  0  0  0  0  0  0
  182.5490  178.1130  142.7740 C   0  0  0  0  0  2  0  0  0  0  0  0
  179.9750  178.6270  144.1410 C   0  0  0  0  0  1  0  0  0  0  0  0
  181.4370  178.7170  142.0510 N   0  0  0  0  0  0  0  0  0  0  0  0
  180.1800  178.9700  142.7030 C   0  0  0  0  0  0  0  0  0  0  0  0
  179.2250  179.4820  142.0620 O   0  0  0  0  0  0  0  0  0  0  0  0
  181.5990  178.9610  140.6250 C   0  0  0  0  0  2  0  0  0  0  0  0
  181.3880  177.6750  139.8460 C   0  0  0  0  0  2  0  0  0  0  0  0
  182.6940  177.2500  139.2120 C   0  0  0  0  0  2  0  0  0  0  0  0
  183.1580  178.3220  138.2480 C   0  0  0  0  0  2  0  0  0  0  0  0
  184.5070  178.8090  138.6450 C   0  0  0  0  0  0  0  0  0  0  0  0
  184.6450  180.0330  139.2860 O   0  0  0  0  0  1  0  0  0  0  0  0
  185.5220  178.1010  138.4170 O   0  0  0  0  0  0  0  0  0  0  0  0
  1  3  1  0  0  0  0
  1  2  1  0  0  0  0
  4  1  2  0  0  0  0
  5  2  2  0  0  0  0
  6  4  1  0  0  0  0
  6  7  2  0  0  0  0
  7  5  1  0  0  0  0
  9  8  1  1  0  0  0
  9  7  1  0  0  0  0
 10 12  1  0  0  0  0
 10 16  2  0  0  0  0
 11 15  2  0  0  0  0
 12  9  1  6  0  0  0
 12 11  1  0  0  0  0
 13 17  1  0  0  0  0
 13 14  2  0  0  0  0
 15 14  1  0  0  0  0
 16 13  1  0  0  0  0
 17 18  1  0  0  0  0
 19 20  1  0  0  0  0
 20  6  1  0  0  0  0
 21 22  1  1  0  0  0
 21  4  1  0  0  0  0
 23 21  1  0  0  0  0
 25 26  1  0  0  0  0
 25 23  1  0  0  0  0
 26 24  1  0  0  0  0
 27 26  2  0  0  0  0
 28 25  1  0  0  0  0
 29 28  1  0  0  0  0
 30 29  1  0  0  0  0
 31 32  1  0  0  0  0
 31 30  1  0  0  0  0
 32 33  1  0  0  0  0
 34 32  2  0  0  0  0
M  END
>  <MODEL>
2

>  <REMARK>
 VINA RESULT:      -7.9      5.242      8.312
  Name = 
  12 active torsions:
  status: ('A' for Active; 'I' for Inactive)
    1  A    between atoms: C_2  and  C_5
    2  A    between atoms: C_2  and  C_10
    3  A    between atoms: C_6  and  C_7
    4  A    between atoms: C_6  and  N_19
    5  A    between atoms: C_7  and  C_21
    6  A    between atoms: C_9  and  C_17
    7  A    between atoms: C_10  and  C_27
    8  A    between atoms: C_15  and  C_32
    9  A    between atoms: N_19  and  C_23
   10  A    between atoms: C_23  and  C_27
   11  A    between atoms: O_25  and  C_30
   12  A    between atoms: C_31  and  C_32
                            x       y       z     vdW  Elec       q    Type
                         _______ _______ _______ _____ _____    ______ ____

>  <TORSDO>
F 12

$$$$
=
 OpenBabel11042412173D

 34 35  0  0  1  0  0  0  0  0999 V2000
  185.5260  178.5610  139.7100 C   0  0  0  0  0  0  0  0  0  0  0  0
  185.3160  178.3110  138.3570 C   0  0  0  0  0  3  0  0  0  0  0  0
  186.8210  178.5170  140.2130 O   0  0  0  0  0  1  0  0  0  0  0  0
  184.4430  178.8570  140.5510 C   0  0  0  0  0  0  0  0  0  0  0  0
  184.0310  178.3580  137.8290 C   0  0  0  0  0  3  0  0  0  0  0  0
  183.1280  178.8850  140.0300 C   0  0  0  0  0  0  0  0  0  0  0  0
  182.9260  178.6450  138.6430 C   0  0  0  0  0  0  0  0  0  0  0  0
  181.3630  177.7960  136.8570 C   0  0  0  0  0  1  0  0  0  0  0  0
  181.5670  178.7790  138.0000 C   0  0  2  0  0  3  0  0  0  0  0  0
  180.7600  180.2760  136.1710 C   0  0  0  0  0  3  0  0  0  0  0  0
  180.1600  180.8150  138.5190 C   0  0  0  0  0  3  0  0  0  0  0  0
  181.1830  180.2120  137.6040 C   0  0  1  0  0  3  0  0  0  0  0  0
  180.5480  182.7660  136.1370 C   0  0  0  0  0  0  0  0  0  0  0  0
  180.1780  183.0450  137.3950 C   0  0  0  0  0  3  0  0  0  0  0  0
  179.7580  182.0810  138.4320 C   0  0  0  0  0  3  0  0  0  0  0  0
  180.5210  181.4190  135.5310 C   0  0  0  0  0  3  0  0  0  0  0  0
  180.8780  183.9120  135.2470 C   0  0  0  0  0  2  0  0  0  0  0  0
  181.0430  185.0680  136.0080 O   0  0  0  0  0  1  0  0  0  0  0  0
  181.0650  178.2480  141.3050 C   0  0  0  0  0  1  0  0  0  0  0  0
  182.0760  179.1680  140.9190 O   0  0  0  0  0  0  0  0  0  0  0  0
  184.7140  179.1200  142.0070 C   0  0  2  0  0  3  0  0  0  0  0  0
  185.7890  179.9990  142.1530 O   0  0  0  0  0  1  0  0  0  0  0  0
  184.9690  177.8210  142.7610 C   0  0  0  0  0  2  0  0  0  0  0  0
  182.8860  179.0060  144.4990 C   0  0  0  0  0  1  0  0  0  0  0  0
  185.2460  178.0940  144.1660 N   0  0  0  0  0  0  0  0  0  0  0  0
  184.2440  178.6720  145.0200 C   0  0  0  0  0  0  0  0  0  0  0  0
  184.5030  178.9140  146.2290 O   0  0  0  0  0  0  0  0  0  0  0  0
  186.5990  177.8640  144.6540 C   0  0  0  0  0  2  0  0  0  0  0  0
  187.4490  177.2350  143.5640 C   0  0  0  0  0  2  0  0  0  0  0  0
  188.7860  176.8260  144.1410 C   0  0  0  0  0  2  0  0  0  0  0  0
  189.1880  177.8060  145.2240 C   0  0  0  0  0  2  0  0  0  0  0  0
  189.9870  177.1060  146.2670 C   0  0  0  0  0  0  0  0  0  0  0  0
  191.3250  176.8110  146.0370 O   0  0  0  0  0  0  0  0  0  0  0  0
  189.4550  176.7980  147.3650 O   0  0  0  0  0  1  0  0  0  0  0  0
  1  3  1  0  0  0  0
  1  4  1  0  0  0  0
  2  1  2  0  0  0  0
  4 21  1  0  0  0  0
  5  2  1  0  0  0  0
  5  7  2  0  0  0  0
  6  4  2  0  0  0  0
  6 20  1  0  0  0  0
  7  6  1  0  0  0  0
  9  8  1  6  0  0  0
  9  7  1  0  0  0  0
 10 12  1  0  0  0  0
 12  9  1  1  0  0  0
 12 11  1  0  0  0  0
 13 14  2  0  0  0  0
 14 15  1  0  0  0  0
 15 11  2  0  0  0  0
 16 13  1  0  0  0  0
 16 10  2  0  0  0  0
 17 18  1  0  0  0  0
 17 13  1  0  0  0  0
 20 19  1  0  0  0  0
 21 22  1  6  0  0  0
 21 23  1  0  0  0  0
 23 25  1  0  0  0  0
 24 26  1  0  0  0  0
 25 28  1  0  0  0  0
 25 26  1  0  0  0  0
 26 27  2  0  0  0  0
 29 30  1  0  0  0  0
 29 28  1  0  0  0  0
 30 31  1  0  0  0  0
 31 32  1  0  0  0  0
 32 34  1  0  0  0  0
 33 32  2  0  0  0  0
M  END
>  <MODEL>
3

>  <REMARK>
 VINA RESULT:      -7.7      5.653      9.735
  Name = 
  12 active torsions:
  status: ('A' for Active; 'I' for Inactive)
    1  A    between atoms: C_2  and  C_5
    2  A    between atoms: C_2  and  C_10
    3  A    between atoms: C_6  and  C_7
    4  A    between atoms: C_6  and  N_19
    5  A    between atoms: C_7  and  C_21
    6  A    between atoms: C_9  and  C_17
    7  A    between atoms: C_10  and  C_27
    8  A    between atoms: C_15  and  C_32
    9  A    between atoms: N_19  and  C_23
   10  A    between atoms: C_23  and  C_27
   11  A    between atoms: O_25  and  C_30
   12  A    between atoms: C_31  and  C_32
                            x       y       z     vdW  Elec       q    Type
                         _______ _______ _______ _____ _____    ______ ____

>  <TORSDO>
F 12

$$$$
=
 OpenBabel11042412173D

 34 35  0  0  1  0  0  0  0  0999 V2000
  184.3510  178.6040  145.1740 C   0  0  0  0  0  0  0  0  0  0  0  0
  185.2350  178.1590  146.1530 C   0  0  0  0  0  3  0  0  0  0  0  0
  183.1010  179.0770  145.5560 O   0  0  0  0  0  1  0  0  0  0  0  0
  184.7220  178.5760  143.8210 C   0  0  0  0  0  0  0  0  0  0  0  0
  186.4950  177.6900  145.7960 C   0  0  0  0  0  3  0  0  0  0  0  0
  185.9920  178.0790  143.4440 C   0  0  0  0  0  0  0  0  0  0  0  0
  186.8940  177.6440  144.4530 C   0  0  0  0  0  0  0  0  0  0  0  0
  188.3530  176.0020  143.2150 C   0  0  0  0  0  1  0  0  0  0  0  0
  188.3050  177.2180  144.1300 C   0  0  2  0  0  3  0  0  0  0  0  0
  190.6600  177.0160  144.9400 C   0  0  0  0  0  3  0  0  0  0  0  0
  188.9690  178.0860  146.4110 C   0  0  0  0  0  3  0  0  0  0  0  0
  189.2220  177.0560  145.3520 C   0  0  1  0  0  3  0  0  0  0  0  0
  191.5090  176.5050  147.2350 C   0  0  0  0  0  0  0  0  0  0  0  0
  190.6180  177.1260  148.0210 C   0  0  0  0  0  3  0  0  0  0  0  0
  189.5700  178.0760  147.5990 C   0  0  0  0  0  3  0  0  0  0  0  0
  191.6520  176.7340  145.7820 C   0  0  0  0  0  3  0  0  0  0  0  0
  192.5150  175.6280  147.8930 C   0  0  0  0  0  2  0  0  0  0  0  0
  193.2130  176.3520  148.8580 O   0  0  0  0  0  1  0  0  0  0  0  0
  187.1550  178.9860  141.4170 C   0  0  0  0  0  1  0  0  0  0  0  0
  186.3060  178.0560  142.0740 O   0  0  0  0  0  0  0  0  0  0  0  0
  183.7360  179.0650  142.7960 C   0  0  2  0  0  3  0  0  0  0  0  0
  182.5340  179.4290  143.4070 O   0  0  0  0  0  1  0  0  0  0  0  0
  183.5000  178.0140  141.7180 C   0  0  0  0  0  2  0  0  0  0  0  0
  180.6610  178.0670  140.8830 C   0  0  0  0  0  1  0  0  0  0  0  0
  183.1100  178.6500  140.4650 N   0  0  0  0  0  0  0  0  0  0  0  0
  181.7340  178.6810  140.0470 C   0  0  0  0  0  0  0  0  0  0  0  0
  181.4140  179.2230  138.9560 O   0  0  0  0  0  0  0  0  0  0  0  0
  184.1640  179.1610  139.5990 C   0  0  0  0  0  2  0  0  0  0  0  0
  184.6940  178.0510  138.7100 C   0  0  0  0  0  2  0  0  0  0  0  0
  185.8230  178.5850  137.8570 C   0  0  0  0  0  2  0  0  0  0  0  0
  186.9540  177.5770  137.8280 C   0  0  0  0  0  2  0  0  0  0  0  0
  188.2360  178.2660  137.5200 C   0  0  0  0  0  0  0  0  0  0  0  0
  188.9280  177.9600  136.3550 O   0  0  0  0  0  0  0  0  0  0  0  0
  188.6850  179.1400  138.3060 O   0  0  0  0  0  1  0  0  0  0  0  0
  1  3  1  0  0  0  0
  1  2  1  0  0  0  0
  4  1  2  0  0  0  0
  5  2  2  0  0  0  0
  6  4  1  0  0  0  0
  6  7  2  0  0  0  0
  7  5  1  0  0  0  0
  9  8  1  1  0  0  0
  9  7  1  0  0  0  0
 10 12  1  0  0  0  0
 10 16  2  0  0  0  0
 11 15  2  0  0  0  0
 12  9  1  6  0  0  0
 12 11  1  0  0  0  0
 13 17  1  0  0  0  0
 13 14  2  0  0  0  0
 15 14  1  0  0  0  0
 16 13  1  0  0  0  0
 17 18  1  0  0  0  0
 19 20  1  0  0  0  0
 20  6  1  0  0  0  0
 21 22  1  1  0  0  0
 21  4  1  0  0  0  0
 23 21  1  0  0  0  0
 25 23  1  0  0  0  0
 26 25  1  0  0  0  0
 26 24  1  0  0  0  0
 27 26  2  0  0  0  0
 28 25  1  0  0  0  0
 29 28  1  0  0  0  0
 30 29  1  0  0  0  0
 31 30  1  0  0  0  0
 32 31  1  0  0  0  0
 32 34  1  0  0  0  0
 33 32  2  0  0  0  0
M  END
>  <MODEL>
4

>  <REMARK>
 VINA RESULT:      -7.6      4.137      6.905
  Name = 
  12 active torsions:
  status: ('A' for Active; 'I' for Inactive)
    1  A    between atoms: C_2  and  C_5
    2  A    between atoms: C_2  and  C_10
    3  A    between atoms: C_6  and  C_7
    4  A    between atoms: C_6  and  N_19
    5  A    between atoms: C_7  and  C_21
    6  A    between atoms: C_9  and  C_17
    7  A    between atoms: C_10  and  C_27
    8  A    between atoms: C_15  and  C_32
    9  A    between atoms: N_19  and  C_23
   10  A    between atoms: C_23  and  C_27
   11  A    between atoms: O_25  and  C_30
   12  A    between atoms: C_31  and  C_32
                            x       y       z     vdW  Elec       q    Type
                         _______ _______ _______ _____ _____    ______ ____

>  <TORSDO>
F 12

$$$$
=
 OpenBabel11042412173D

 34 35  0  0  1  0  0  0  0  0999 V2000
  186.4090  177.8700  145.4520 C   0  0  0  0  0  0  0  0  0  0  0  0
  185.1530  178.3560  145.8020 C   0  0  0  0  0  3  0  0  0  0  0  0
  187.2780  177.4560  146.4550 O   0  0  0  0  0  1  0  0  0  0  0  0
  186.7880  177.7970  144.1030 C   0  0  0  0  0  0  0  0  0  0  0  0
  184.2630  178.7680  144.8170 C   0  0  0  0  0  3  0  0  0  0  0  0
  185.9000  178.2350  143.0920 C   0  0  0  0  0  0  0  0  0  0  0  0
  184.6130  178.7140  143.4600 C   0  0  0  0  0  0  0  0  0  0  0  0
  182.1570  179.0190  142.9790 C   0  0  0  0  0  1  0  0  0  0  0  0
  183.5740  179.0810  142.4280 C   0  0  2  0  0  3  0  0  0  0  0  0
  182.4810  177.5300  140.8040 C   0  0  0  0  0  3  0  0  0  0  0  0
  184.0610  179.2450  139.9530 C   0  0  0  0  0  3  0  0  0  0  0  0
  183.7060  178.3380  141.0910 C   0  0  1  0  0  3  0  0  0  0  0  0
  183.4270  176.4520  138.7570 C   0  0  0  0  0  0  0  0  0  0  0  0
  184.2420  177.4020  138.2780 C   0  0  0  0  0  3  0  0  0  0  0  0
  184.3310  178.8070  138.7250 C   0  0  0  0  0  3  0  0  0  0  0  0
  182.3910  176.6740  139.7880 C   0  0  0  0  0  3  0  0  0  0  0  0
  183.4740  175.1130  138.1090 C   0  0  0  0  0  2  0  0  0  0  0  0
  182.2160  174.7910  137.6020 O   0  0  0  0  0  1  0  0  0  0  0  0
  187.4800  178.8200  141.2350 C   0  0  0  0  0  1  0  0  0  0  0  0
  186.3360  178.1590  141.7580 O   0  0  0  0  0  0  0  0  0  0  0  0
  188.1550  177.2670  143.7680 C   0  0  2  0  0  3  0  0  0  0  0  0
  188.1540  175.8700  143.7800 O   0  0  0  0  0  1  0  0  0  0  0  0
  189.2070  177.8170  144.7240 C   0  0  0  0  0  2  0  0  0  0  0  0
  190.5090  177.0940  147.2820 C   0  0  0  0  0  1  0  0  0  0  0  0
  190.3820  176.9560  144.7370 N   0  0  0  0  0  0  0  0  0  0  0  0
  191.0260  176.5990  145.9740 C   0  0  0  0  0  0  0  0  0  0  0  0
  192.0480  175.8630  145.9670 O   0  0  0  0  0  0  0  0  0  0  0  0
  190.9490  176.5520  143.4580 C   0  0  0  0  0  2  0  0  0  0  0  0
  191.5900  177.7430  142.7700 C   0  0  0  0  0  2  0  0  0  0  0  0
  191.6660  177.4850  141.2820 C   0  0  0  0  0  2  0  0  0  0  0  0
  190.4320  176.7250  140.8390 C   0  0  0  0  0  2  0  0  0  0  0  0
  190.3890  176.6540  139.3530 C   0  0  0  0  0  0  0  0  0  0  0  0
  189.9440  177.7440  138.6170 O   0  0  0  0  0  0  0  0  0  0  0  0
  190.7740  175.6120  138.7630 O   0  0  0  0  0  1  0  0  0  0  0  0
  1  2  1  0  0  0  0
  1  3  1  0  0  0  0
  4  1  2  0  0  0  0
  5  2  2  0  0  0  0
  6  7  2  0  0  0  0
  6  4  1  0  0  0  0
  7  5  1  0  0  0  0
  9  8  1  1  0  0  0
  9  7  1  0  0  0  0
 10 12  1  0  0  0  0
 11 12  1  0  0  0  0
 12  9  1  1  0  0  0
 13 16  1  0  0  0  0
 14 15  1  0  0  0  0
 14 13  2  0  0  0  0
 15 11  2  0  0  0  0
 16 10  2  0  0  0  0
 17 13  1  0  0  0  0
 18 17  1  0  0  0  0
 19 20  1  0  0  0  0
 20  6  1  0  0  0  0
 21 22  1  1  0  0  0
 21  4  1  0  0  0  0
 21 23  1  0  0  0  0
 23 25  1  0  0  0  0
 25 26  1  0  0  0  0
 26 24  1  0  0  0  0
 27 26  2  0  0  0  0
 28 25  1  0  0  0  0
 29 28  1  0  0  0  0
 30 29  1  0  0  0  0
 31 30  1  0  0  0  0
 32 31  1  0  0  0  0
 33 32  2  0  0  0  0
 34 32  1  0  0  0  0
M  END
>  <MODEL>
5

>  <REMARK>
 VINA RESULT:      -7.6      3.467      7.258
  Name = 
  12 active torsions:
  status: ('A' for Active; 'I' for Inactive)
    1  A    between atoms: C_2  and  C_5
    2  A    between atoms: C_2  and  C_10
    3  A    between atoms: C_6  and  C_7
    4  A    between atoms: C_6  and  N_19
    5  A    between atoms: C_7  and  C_21
    6  A    between atoms: C_9  and  C_17
    7  A    between atoms: C_10  and  C_27
    8  A    between atoms: C_15  and  C_32
    9  A    between atoms: N_19  and  C_23
   10  A    between atoms: C_23  and  C_27
   11  A    between atoms: O_25  and  C_30
   12  A    between atoms: C_31  and  C_32
                            x       y       z     vdW  Elec       q    Type
                         _______ _______ _______ _____ _____    ______ ____

>  <TORSDO>
F 12

$$$$
=
 OpenBabel11042412173D

 34 35  0  0  1  0  0  0  0  0999 V2000
  186.3640  177.3450  137.3610 C   0  0  0  0  0  0  0  0  0  0  0  0
  185.1200  177.0210  136.8260 C   0  0  0  0  0  3  0  0  0  0  0  0
  187.5120  176.8800  136.7310 O   0  0  0  0  0  1  0  0  0  0  0  0
  186.4520  178.1320  138.5190 C   0  0  0  0  0  0  0  0  0  0  0  0
  183.9570  177.4820  137.4330 C   0  0  0  0  0  3  0  0  0  0  0  0
  185.2750  178.5860  139.1590 C   0  0  0  0  0  0  0  0  0  0  0  0
  184.0110  178.2650  138.5950 C   0  0  0  0  0  0  0  0  0  0  0  0
  181.7390  177.7250  139.5440 C   0  0  0  0  0  1  0  0  0  0  0  0
  182.7230  178.8190  139.1560 C   0  0  2  0  0  3  0  0  0  0  0  0
  181.2940  179.3080  137.1670 C   0  0  0  0  0  3  0  0  0  0  0  0
  181.2330  180.8610  139.1030 C   0  0  0  0  0  3  0  0  0  0  0  0
  182.0660  179.9090  138.2980 C   0  0  1  0  0  3  0  0  0  0  0  0
  180.7510  181.5050  136.1060 C   0  0  0  0  0  0  0  0  0  0  0  0
  180.6730  182.3280  137.1620 C   0  0  0  0  0  3  0  0  0  0  0  0
  180.6570  181.9450  138.5880 C   0  0  0  0  0  3  0  0  0  0  0  0
  180.7530  180.0300  136.1870 C   0  0  0  0  0  3  0  0  0  0  0  0
  180.6930  182.1180  134.7510 C   0  0  0  0  0  2  0  0  0  0  0  0
  180.8930  183.4940  134.8470 O   0  0  0  0  0  1  0  0  0  0  0  0
  185.3240  178.8520  141.6510 C   0  0  0  0  0  1  0  0  0  0  0  0
  185.4200  179.3560  140.3270 O   0  0  0  0  0  0  0  0  0  0  0  0
  187.8160  178.4570  139.0640 C   0  0  2  0  0  3  0  0  0  0  0  0
  188.5670  179.1590  138.1190 O   0  0  0  0  0  1  0  0  0  0  0  0
  188.5450  177.1930  139.5070 C   0  0  0  0  0  2  0  0  0  0  0  0
  191.4620  176.8410  139.1480 C   0  0  0  0  0  1  0  0  0  0  0  0
  189.4650  177.4930  140.5970 N   0  0  0  0  0  0  0  0  0  0  0  0
  190.8850  177.3240  140.4360 C   0  0  0  0  0  0  0  0  0  0  0  0
  191.6650  177.5750  141.3910 O   0  0  0  0  0  0  0  0  0  0  0  0
  188.9000  177.8680  141.8860 C   0  0  0  0  0  2  0  0  0  0  0  0
  188.4460  176.6310  142.6380 C   0  0  0  0  0  2  0  0  0  0  0  0
  187.7780  177.0440  143.9310 C   0  0  0  0  0  2  0  0  0  0  0  0
  188.7730  177.7870  144.7980 C   0  0  0  0  0  2  0  0  0  0  0  0
  188.6200  177.3650  146.2170 C   0  0  0  0  0  0  0  0  0  0  0  0
  187.4400  177.6290  146.8990 O   0  0  0  0  0  1  0  0  0  0  0  0
  189.5550  176.7500  146.7930 O   0  0  0  0  0  0  0  0  0  0  0  0
  1  4  1  0  0  0  0
  2  1  2  0  0  0  0
  2  5  1  0  0  0  0
  3  1  1  0  0  0  0
  4 21  1  0  0  0  0
  4  6  2  0  0  0  0
  5  7  2  0  0  0  0
  6 20  1  0  0  0  0
  7  9  1  0  0  0  0
  7  6  1  0  0  0  0
  9  8  1  6  0  0  0
 10 12  1  0  0  0  0
 12 11  1  0  0  0  0
 12  9  1  1  0  0  0
 13 16  1  0  0  0  0
 13 14  2  0  0  0  0
 14 15  1  0  0  0  0
 15 11  2  0  0  0  0
 16 10  2  0  0  0  0
 17 18  1  0  0  0  0
 17 13  1  0  0  0  0
 20 19  1  0  0  0  0
 21 22  1  6  0  0  0
 21 23  1  0  0  0  0
 23 25  1  0  0  0  0
 24 26  1  0  0  0  0
 25 28  1  0  0  0  0
 26 25  1  0  0  0  0
 26 27  2  0  0  0  0
 28 29  1  0  0  0  0
 29 30  1  0  0  0  0
 30 31  1  0  0  0  0
 31 32  1  0  0  0  0
 32 34  2  0  0  0  0
 32 33  1  0  0  0  0
M  END
>  <MODEL>
6

>  <REMARK>
 VINA RESULT:      -7.6      4.697      8.364
  Name = 
  12 active torsions:
  status: ('A' for Active; 'I' for Inactive)
    1  A    between atoms: C_2  and  C_5
    2  A    between atoms: C_2  and  C_10
    3  A    between atoms: C_6  and  C_7
    4  A    between atoms: C_6  and  N_19
    5  A    between atoms: C_7  and  C_21
    6  A    between atoms: C_9  and  C_17
    7  A    between atoms: C_10  and  C_27
    8  A    between atoms: C_15  and  C_32
    9  A    between atoms: N_19  and  C_23
   10  A    between atoms: C_23  and  C_27
   11  A    between atoms: O_25  and  C_30
   12  A    between atoms: C_31  and  C_32
                            x       y       z     vdW  Elec       q    Type
                         _______ _______ _______ _____ _____    ______ ____

>  <TORSDO>
F 12

$$$$
=
 OpenBabel11042412173D

 34 35  0  0  1  0  0  0  0  0999 V2000
  185.6800  178.6320  139.4590 C   0  0  0  0  0  0  0  0  0  0  0  0
  184.4740  178.2860  138.8560 C   0  0  0  0  0  3  0  0  0  0  0  0
  185.6610  179.3760  140.6330 O   0  0  0  0  0  1  0  0  0  0  0  0
  186.8970  178.2300  138.8880 C   0  0  0  0  0  0  0  0  0  0  0  0
  184.4670  177.5340  137.6870 C   0  0  0  0  0  3  0  0  0  0  0  0
  186.9040  177.4850  137.6850 C   0  0  0  0  0  0  0  0  0  0  0  0
  185.6660  177.1220  137.0870 C   0  0  0  0  0  0  0  0  0  0  0  0
  185.0530  176.9460  134.6480 C   0  0  0  0  0  1  0  0  0  0  0  0
  185.5990  176.2270  135.8730 C   0  0  2  0  0  3  0  0  0  0  0  0
  184.7330  174.1330  134.8230 C   0  0  0  0  0  3  0  0  0  0  0  0
  185.5830  174.0470  137.1540 C   0  0  0  0  0  3  0  0  0  0  0  0
  184.9040  174.8790  136.1080 C   0  0  1  0  0  3  0  0  0  0  0  0
  183.3920  172.2850  135.8400 C   0  0  0  0  0  0  0  0  0  0  0  0
  183.8890  172.2140  137.0830 C   0  0  0  0  0  3  0  0  0  0  0  0
  185.0970  172.8900  137.5970 C   0  0  0  0  0  3  0  0  0  0  0  0
  184.0300  173.0080  134.7190 C   0  0  0  0  0  3  0  0  0  0  0  0
  182.1870  171.4680  135.5320 C   0  0  0  0  0  2  0  0  0  0  0  0
  181.3130  171.4900  136.6180 O   0  0  0  0  0  1  0  0  0  0  0  0
  188.7340  175.8320  137.2330 C   0  0  0  0  0  1  0  0  0  0  0  0
  188.1500  177.1240  137.1440 O   0  0  0  0  0  0  0  0  0  0  0  0
  188.1770  178.6260  139.5700 C   0  0  2  0  0  3  0  0  0  0  0  0
  189.0740  179.1740  138.6510 O   0  0  0  0  0  1  0  0  0  0  0  0
  188.8010  177.4400  140.2960 C   0  0  0  0  0  2  0  0  0  0  0  0
  191.6230  177.4980  141.1870 C   0  0  0  0  0  1  0  0  0  0  0  0
  189.1360  177.8020  141.6680 N   0  0  0  0  0  0  0  0  0  0  0  0
  190.5030  177.8320  142.1140 C   0  0  0  0  0  0  0  0  0  0  0  0
  190.7750  178.1350  143.3050 O   0  0  0  0  0  0  0  0  0  0  0  0
  188.0420  178.0320  142.6020 C   0  0  0  0  0  2  0  0  0  0  0  0
  187.7530  176.7670  143.3900 C   0  0  0  0  0  2  0  0  0  0  0  0
  187.3670  177.1320  144.8060 C   0  0  0  0  0  2  0  0  0  0  0  0
  186.1870  178.0820  144.7780 C   0  0  0  0  0  2  0  0  0  0  0  0
  185.8300  178.4850  146.1650 C   0  0  0  0  0  0  0  0  0  0  0  0
  184.5640  178.9830  146.4410 O   0  0  0  0  0  0  0  0  0  0  0  0
  186.6700  178.3550  147.0930 O   0  0  0  0  0  1  0  0  0  0  0  0
  1  3  1  0  0  0  0
  2  1  2  0  0  0  0
  4  1  1  0  0  0  0
  4 21  1  0  0  0  0
  5  2  1  0  0  0  0
  6  4  2  0  0  0  0
  7  6  1  0  0  0  0
  7  5  2  0  0  0  0
  9  8  1  6  0  0  0
  9  7  1  0  0  0  0
 10 12  1  0  0  0  0
 11 15  2  0  0  0  0
 12  9  1  6  0  0  0
 12 11  1  0  0  0  0
 13 14  2  0  0  0  0
 14 15  1  0  0  0  0
 16 10  2  0  0  0  0
 16 13  1  0  0  0  0
 17 13  1  0  0  0  0
 17 18  1  0  0  0  0
 20 19  1  0  0  0  0
 20  6  1  0  0  0  0
 21 22  1  6  0  0  0
 21 23  1  0  0  0  0
 23 25  1  0  0  0  0
 24 26  1  0  0  0  0
 25 26  1  0  0  0  0
 25 28  1  0  0  0  0
 26 27  2  0  0  0  0
 28 29  1  0  0  0  0
 29 30  1  0  0  0  0
 31 30  1  0  0  0  0
 31 32  1  0  0  0  0
 32 33  2  0  0  0  0
 32 34  1  0  0  0  0
M  END
>  <MODEL>
7

>  <REMARK>
 VINA RESULT:      -7.4      3.527      8.798
  Name = 
  12 active torsions:
  status: ('A' for Active; 'I' for Inactive)
    1  A    between atoms: C_2  and  C_5
    2  A    between atoms: C_2  and  C_10
    3  A    between atoms: C_6  and  C_7
    4  A    between atoms: C_6  and  N_19
    5  A    between atoms: C_7  and  C_21
    6  A    between atoms: C_9  and  C_17
    7  A    between atoms: C_10  and  C_27
    8  A    between atoms: C_15  and  C_32
    9  A    between atoms: N_19  and  C_23
   10  A    between atoms: C_23  and  C_27
   11  A    between atoms: O_25  and  C_30
   12  A    between atoms: C_31  and  C_32
                            x       y       z     vdW  Elec       q    Type
                         _______ _______ _______ _____ _____    ______ ____

>  <TORSDO>
F 12

$$$$
=
 OpenBabel11042412173D

 34 35  0  0  1  0  0  0  0  0999 V2000
  191.6600  177.4340  141.7900 C   0  0  0  0  0  0  0  0  0  0  0  0
  192.3630  177.1430  140.6240 C   0  0  0  0  0  3  0  0  0  0  0  0
  192.3480  177.5040  142.9960 O   0  0  0  0  0  1  0  0  0  0  0  0
  190.2750  177.6560  141.7430 C   0  0  0  0  0  0  0  0  0  0  0  0
  191.6980  177.0770  139.4050 C   0  0  0  0  0  3  0  0  0  0  0  0
  189.5840  177.5680  140.5120 C   0  0  0  0  0  0  0  0  0  0  0  0
  190.3140  177.2880  139.3250 C   0  0  0  0  0  0  0  0  0  0  0  0
  188.9920  178.6310  137.6510 C   0  0  0  0  0  1  0  0  0  0  0  0
  189.6600  177.3000  137.9650 C   0  0  2  0  0  3  0  0  0  0  0  0
  187.5520  176.5280  136.8710 C   0  0  0  0  0  3  0  0  0  0  0  0
  189.4480  174.9390  137.0840 C   0  0  0  0  0  3  0  0  0  0  0  0
  188.7320  176.1090  137.6880 C   0  0  1  0  0  3  0  0  0  0  0  0
  186.4090  174.3100  137.0150 C   0  0  0  0  0  0  0  0  0  0  0  0
  187.4400  173.4550  137.0820 C   0  0  0  0  0  3  0  0  0  0  0  0
  188.8670  173.7630  136.8590 C   0  0  0  0  0  3  0  0  0  0  0  0
  186.5180  175.7290  136.6160 C   0  0  0  0  0  3  0  0  0  0  0  0
  185.0430  173.7590  137.2240 C   0  0  0  0  0  2  0  0  0  0  0  0
  185.1060  172.6480  138.0650 O   0  0  0  0  0  1  0  0  0  0  0  0
  187.5520  178.9480  141.0170 C   0  0  0  0  0  1  0  0  0  0  0  0
  188.1940  177.7810  140.5240 O   0  0  0  0  0  0  0  0  0  0  0  0
  189.5540  177.9670  143.0260 C   0  0  2  0  0  3  0  0  0  0  0  0
  190.1720  179.0270  143.6920 O   0  0  0  0  0  1  0  0  0  0  0  0
  189.4740  176.7360  143.9220 C   0  0  0  0  0  2  0  0  0  0  0  0
  191.6260  176.3780  145.9230 C   0  0  0  0  0  1  0  0  0  0  0  0
  189.2650  177.1300  145.3100 N   0  0  0  0  0  0  0  0  0  0  0  0
  190.3020  176.9600  146.2920 C   0  0  0  0  0  0  0  0  0  0  0  0
  190.1020  177.2940  147.4900 O   0  0  0  0  0  0  0  0  0  0  0  0
  187.9430  177.6050  145.6950 C   0  0  0  0  0  2  0  0  0  0  0  0
  186.8740  176.8770  144.9010 C   0  0  0  0  0  2  0  0  0  0  0  0
  186.0340  177.8840  144.1470 C   0  0  0  0  0  2  0  0  0  0  0  0
  185.7230  179.0590  145.0510 C   0  0  0  0  0  2  0  0  0  0  0  0
  184.4800  178.7870  145.8230 C   0  0  0  0  0  0  0  0  0  0  0  0
  184.5600  178.2890  147.1160 O   0  0  0  0  0  1  0  0  0  0  0  0
  183.3570  179.0270  145.3100 O   0  0  0  0  0  0  0  0  0  0  0  0
  1  3  1  0  0  0  0
  2  1  2  0  0  0  0
  4  1  1  0  0  0  0
  4 21  1  0  0  0  0
  5  2  1  0  0  0  0
  6 20  1  0  0  0  0
  6  4  2  0  0  0  0
  7  5  2  0  0  0  0
  7  6  1  0  0  0  0
  9  8  1  1  0  0  0
  9  7  1  0  0  0  0
 10 12  1  0  0  0  0
 11 12  1  0  0  0  0
 12  9  1  6  0  0  0
 13 14  2  0  0  0  0
 13 17  1  0  0  0  0
 15 14  1  0  0  0  0
 15 11  2  0  0  0  0
 16 10  2  0  0  0  0
 16 13  1  0  0  0  0
 17 18  1  0  0  0  0
 20 19  1  0  0  0  0
 21 22  1  1  0  0  0
 21 23  1  0  0  0  0
 23 25  1  0  0  0  0
 24 26  1  0  0  0  0
 25 28  1  0  0  0  0
 25 26  1  0  0  0  0
 26 27  2  0  0  0  0
 29 28  1  0  0  0  0
 30 29  1  0  0  0  0
 30 31  1  0  0  0  0
 31 32  1  0  0  0  0
 32 33  1  0  0  0  0
 34 32  2  0  0  0  0
M  END
>  <MODEL>
8

>  <REMARK>
 VINA RESULT:      -7.4      2.991      8.836
  Name = 
  12 active torsions:
  status: ('A' for Active; 'I' for Inactive)
    1  A    between atoms: C_2  and  C_5
    2  A    between atoms: C_2  and  C_10
    3  A    between atoms: C_6  and  C_7
    4  A    between atoms: C_6  and  N_19
    5  A    between atoms: C_7  and  C_21
    6  A    between atoms: C_9  and  C_17
    7  A    between atoms: C_10  and  C_27
    8  A    between atoms: C_15  and  C_32
    9  A    between atoms: N_19  and  C_23
   10  A    between atoms: C_23  and  C_27
   11  A    between atoms: O_25  and  C_30
   12  A    between atoms: C_31  and  C_32
                            x       y       z     vdW  Elec       q    Type
                         _______ _______ _______ _____ _____    ______ ____

>  <TORSDO>
F 12

$$$$
=
 OpenBabel11042412173D

 34 35  0  0  1  0  0  0  0  0999 V2000
  188.0920  178.2710  139.9510 C   0  0  0  0  0  0  0  0  0  0  0  0
  187.2950  178.2210  138.8120 C   0  0  0  0  0  3  0  0  0  0  0  0
  187.7360  179.1240  140.9900 O   0  0  0  0  0  1  0  0  0  0  0  0
  189.2390  177.4680  140.0480 C   0  0  0  0  0  0  0  0  0  0  0  0
  187.6260  177.3690  137.7640 C   0  0  0  0  0  3  0  0  0  0  0  0
  189.5990  176.6150  138.9790 C   0  0  0  0  0  0  0  0  0  0  0  0
  188.7680  176.5580  137.8270 C   0  0  0  0  0  0  0  0  0  0  0  0
  189.4590  176.2730  135.4190 C   0  0  0  0  0  1  0  0  0  0  0  0
  189.0270  175.5820  136.7040 C   0  0  2  0  0  3  0  0  0  0  0  0
  187.2760  174.7700  135.1180 C   0  0  0  0  0  3  0  0  0  0  0  0
  188.3360  173.1500  136.6730 C   0  0  0  0  0  3  0  0  0  0  0  0
  187.8990  174.5680  136.4630 C   0  0  1  0  0  3  0  0  0  0  0  0
  185.4730  173.0780  135.4760 C   0  0  0  0  0  0  0  0  0  0  0  0
  186.0680  172.1830  136.2780 C   0  0  0  0  0  3  0  0  0  0  0  0
  187.5020  172.1130  136.6230 C   0  0  0  0  0  3  0  0  0  0  0  0
  186.1820  174.1280  134.7160 C   0  0  0  0  0  3  0  0  0  0  0  0
  184.0150  172.9160  135.2270 C   0  0  0  0  0  2  0  0  0  0  0  0
  183.6020  171.6510  135.6430 O   0  0  0  0  0  1  0  0  0  0  0  0
  191.8960  175.9130  138.2600 C   0  0  0  0  0  1  0  0  0  0  0  0
  190.7670  175.8450  139.1190 O   0  0  0  0  0  0  0  0  0  0  0  0
  190.0730  177.5540  141.2970 C   0  0  2  0  0  3  0  0  0  0  0  0
  191.4320  177.5140  140.9810 O   0  0  0  0  0  1  0  0  0  0  0  0
  189.7100  176.4430  142.2760 C   0  0  0  0  0  2  0  0  0  0  0  0
  191.8490  175.5630  144.1230 C   0  0  0  0  0  1  0  0  0  0  0  0
  189.7540  176.9400  143.6460 N   0  0  0  0  0  0  0  0  0  0  0  0
  190.7870  176.5180  144.5540 C   0  0  0  0  0  0  0  0  0  0  0  0
  190.8030  176.9460  145.7380 O   0  0  0  0  0  0  0  0  0  0  0  0
  188.6640  177.7920  144.1000 C   0  0  0  0  0  2  0  0  0  0  0  0
  187.3300  177.1070  143.8640 C   0  0  0  0  0  2  0  0  0  0  0  0
  186.5440  177.0750  145.1550 C   0  0  0  0  0  2  0  0  0  0  0  0
  186.9490  178.2500  146.0210 C   0  0  0  0  0  2  0  0  0  0  0  0
  185.7350  178.9410  146.5360 C   0  0  0  0  0  0  0  0  0  0  0  0
  184.4880  178.6470  146.0020 O   0  0  0  0  0  0  0  0  0  0  0  0
  185.8370  179.7770  147.4710 O   0  0  0  0  0  1  0  0  0  0  0  0
  1  4  1  0  0  0  0
  1  3  1  0  0  0  0
  2  1  2  0  0  0  0
  4 21  1  0  0  0  0
  5  7  2  0  0  0  0
  5  2  1  0  0  0  0
  6 20  1  0  0  0  0
  6  4  2  0  0  0  0
  7  6  1  0  0  0  0
  9  8  1  6  0  0  0
  9  7  1  0  0  0  0
 10 12  1  0  0  0  0
 12 11  1  0  0  0  0
 12  9  1  6  0  0  0
 13 14  2  0  0  0  0
 14 15  1  0  0  0  0
 15 11  2  0  0  0  0
 16 10  2  0  0  0  0
 16 13  1  0  0  0  0
 17 13  1  0  0  0  0
 17 18  1  0  0  0  0
 19 20  1  0  0  0  0
 21 22  1  6  0  0  0
 21 23  1  0  0  0  0
 23 25  1  0  0  0  0
 24 26  1  0  0  0  0
 25 28  1  0  0  0  0
 25 26  1  0  0  0  0
 26 27  2  0  0  0  0
 29 28  1  0  0  0  0
 29 30  1  0  0  0  0
 30 31  1  0  0  0  0
 31 32  1  0  0  0  0
 32 34  1  0  0  0  0
 33 32  2  0  0  0  0
M  END
>  <MODEL>
9

>  <REMARK>
 VINA RESULT:      -7.4      2.624      8.811
  Name = 
  12 active torsions:
  status: ('A' for Active; 'I' for Inactive)
    1  A    between atoms: C_2  and  C_5
    2  A    between atoms: C_2  and  C_10
    3  A    between atoms: C_6  and  C_7
    4  A    between atoms: C_6  and  N_19
    5  A    between atoms: C_7  and  C_21
    6  A    between atoms: C_9  and  C_17
    7  A    between atoms: C_10  and  C_27
    8  A    between atoms: C_15  and  C_32
    9  A    between atoms: N_19  and  C_23
   10  A    between atoms: C_23  and  C_27
   11  A    between atoms: O_25  and  C_30
   12  A    between atoms: C_31  and  C_32
                            x       y       z     vdW  Elec       q    Type
                         _______ _______ _______ _____ _____    ______ ____

>  <TORSDO>
F 12

$$$$
