=
 OpenBabel11032419353D

 49 56  0  0  1  0  0  0  0  0999 V2000
  190.7360  176.9350  146.3830 C   0  0  0  0  0  0  0  0  0  0  0  0
  189.5940  176.3450  140.9280 O   0  0  0  0  0  0  0  0  0  0  0  0
  186.8650  178.0530  144.8320 C   0  0  0  0  0  0  0  0  0  0  0  0
  189.0550  177.0500  143.1090 C   0  0  0  0  0  0  0  0  0  0  0  0
  183.8770  179.5060  143.1610 C   0  0  0  0  0  2  0  0  0  0  0  0
  190.4550  176.4750  144.9720 C   0  0  0  0  0  2  0  0  0  0  0  0
  185.8950  178.5760  145.8200 C   0  0  0  0  0  0  0  0  0  0  0  0
  189.4030  176.7040  139.6130 N   0  0  0  0  0  2  0  0  0  0  0  0
  186.6360  177.8530  141.2450 O   0  0  0  0  0  0  0  0  0  0  0  0
  185.9000  178.0810  142.4180 C   0  0  0  0  0  0  0  0  0  0  0  0
  184.3840  178.2570  142.3920 C   0  0  2  0  0  3  0  0  0  0  0  0
  188.8810  177.1040  141.8150 C   0  0  0  0  0  0  0  0  0  0  0  0
  186.0770  178.2030  147.2540 C   0  0  0  0  0  2  0  0  0  0  0  0
  187.9680  177.1360  145.3220 C   0  0  1  0  0  3  0  0  0  0  0  0
  188.4340  177.8160  139.6480 C   0  0  1  0  0  3  0  0  0  0  0  0
  187.5000  178.0290  147.5620 N   0  0  0  0  0  0  0  0  0  0  0  0
  184.7310  178.9850  145.3710 C   0  0  0  0  0  0  0  0  0  0  0  0
  186.4720  178.0420  143.5830 C   0  0  0  0  0  0  0  0  0  0  0  0
  189.1850  177.0400  144.4140 C   0  0  0  0  0  0  0  0  0  0  0  0
  188.0420  178.0920  141.1030 C   0  0  1  0  0  3  0  0  0  0  0  0
  183.6910  179.3040  144.6490 C   0  0  0  0  0  3  0  0  0  0  0  0
  189.7660  177.3940  147.1760 C   0  0  0  0  0  3  0  0  0  0  0  0
  188.3700  177.5280  146.7310 C   0  0  0  0  0  0  0  0  0  0  0  0
  183.7860  178.2550  140.9800 C   0  0  1  0  0  3  0  0  0  0  0  0
  183.5990  176.9460  140.5250 O   0  0  0  0  0  1  0  0  0  0  0  0
  182.4710  179.0200  140.8940 C   0  0  0  0  0  2  0  0  0  0  0  0
  180.3350  178.7770  139.5040 C   0  0  2  0  0  3  0  0  0  0  0  0
  181.3130  178.1130  140.4710 C   0  0  2  0  0  3  0  0  0  0  0  0
  180.6290  180.1440  139.3080 O   0  0  0  0  0  0  0  0  0  0  0  0
  179.6650  179.9310  141.4630 C   0  0  2  0  0  3  0  0  0  0  0  0
  179.9610  180.8620  140.3140 C   0  0  0  0  0  2  0  0  0  0  0  0
  180.4920  180.2300  142.6190 N   0  0  0  0  0  1  0  0  0  0  0  0
  179.9110  178.5340  140.9410 C   0  0  1  0  0  3  0  0  0  0  0  0
  192.0280  176.8550  146.9090 O   0  0  0  0  0  0  0  0  0  0  0  0
  192.5410  175.6690  147.5000 C   0  0  0  0  0  2  0  0  0  0  0  0
  193.1460  177.2710  149.3090 O   0  0  0  0  0  0  0  0  0  0  0  0
  193.1210  175.0140  149.7170 O   0  0  0  0  0  1  0  0  0  0  0  0
  192.9660  175.9570  148.8970 C   0  0  0  0  0  0  0  0  0  0  0  0
  189.0480  179.0660  139.0470 C   0  0  0  0  0  2  0  0  0  0  0  0
  188.4840  179.3200  137.7340 N   0  0  0  0  0  2  0  0  0  0  0  0
  189.1540  178.4230  136.8080 C   0  0  0  0  0  2  0  0  0  0  0  0
  187.8200  176.4160  136.2650 C   0  0  1  0  0  3  0  0  0  0  0  0
  188.7510  176.6630  135.0970 C   0  0  0  0  0  2  0  0  0  0  0  0
  188.1400  177.8360  135.8410 C   0  0  2  0  0  3  0  0  0  0  0  0
  186.5400  176.0610  135.7740 O   0  0  0  0  0  0  0  0  0  0  0  0
  184.6990  175.8880  137.2210 N   0  0  0  0  0  0  0  0  0  0  0  0
  185.6700  175.3190  136.5690 C   0  0  0  0  0  3  0  0  0  0  0  0
  184.4490  177.3240  137.1740 C   0  0  0  0  0  2  0  0  0  0  0  0
  182.9580  177.5930  137.0370 C   0  0  0  0  0  1  0  0  0  0  0  0
  1 34  1  0  0  0  0
  1 22  2  0  0  0  0
  2 12  1  0  0  0  0
  3 14  1  0  0  0  0
  3  7  1  0  0  0  0
  4 19  2  0  0  0  0
  5 21  1  0  0  0  0
  6  1  1  0  0  0  0
  7 13  1  0  0  0  0
  8 15  1  0  0  0  0
  8  2  1  0  0  0  0
  9 10  1  0  0  0  0
 10 18  2  0  0  0  0
 11 24  1  6  0  0  0
 11 10  1  0  0  0  0
 11  5  1  0  0  0  0
 12  4  2  0  0  0  0
 13 16  1  0  0  0  0
 14 19  1  6  0  0  0
 14 23  1  0  0  0  0
 15 39  1  1  0  0  0
 15 20  1  0  0  0  0
 17  7  2  0  0  0  0
 18  3  2  0  0  0  0
 19  6  1  0  0  0  0
 20  9  1  6  0  0  0
 20 12  1  0  0  0  0
 21 17  2  0  0  0  0
 23 22  1  0  0  0  0
 23 16  2  0  0  0  0
 24 25  1  1  0  0  0
 26 24  1  0  0  0  0
 27 29  1  1  0  0  0
 27 28  1  0  0  0  0
 27 33  1  0  0  0  0
 28 26  1  1  0  0  0
 28 33  1  0  0  0  0
 29 31  1  0  0  0  0
 30 32  1  1  0  0  0
 31 30  1  0  0  0  0
 33 30  1  0  0  0  0
 34 35  1  0  0  0  0
 35 38  1  0  0  0  0
 38 36  2  0  0  0  0
 38 37  1  0  0  0  0
 40 39  1  0  0  0  0
 41 40  1  0  0  0  0
 43 44  1  0  0  0  0
 43 42  1  0  0  0  0
 44 42  1  0  0  0  0
 44 41  1  0  0  0  0
 45 42  1  0  0  0  0
 45 47  1  0  0  0  0
 47 46  2  0  0  0  0
 48 46  1  0  0  0  0
 49 48  1  0  0  0  0
M  END
>  <MODEL>
1

>  <REMARK>
 VINA RESULT:      -8.8      0.000      0.000
  Name = 
  13 active torsions:
  status: ('A' for Active; 'I' for Inactive)
    1  A    between atoms: C_1  and  O_9
    2  A    between atoms: C_2  and  O_15
    3  A    between atoms: C_3  and  N_29
    4  A    between atoms: C_5  and  C_22
    5  A    between atoms: C_5  and  C_38
    6  A    between atoms: C_6  and  N_17
    7  A    between atoms: C_6  and  C_33
    8  A    between atoms: O_9  and  C_49
    9  A    between atoms: O_15  and  C_31
   10  A    between atoms: N_17  and  C_32
   11  A    between atoms: C_25  and  C_38
   12  A    between atoms: C_31  and  C_34
   13  A    between atoms: C_32  and  C_36
                            x       y       z     vdW  Elec       q    Type
                         _______ _______ _______ _____ _____    ______ ____

>  <TORSDO>
F 13

$$$$
=
 OpenBabel11032419353D

 49 56  0  0  1  0  0  0  0  0999 V2000
  183.1800  178.8300  144.0610 C   0  0  0  0  0  0  0  0  0  0  0  0
  185.3750  179.3770  138.9350 O   0  0  0  0  0  0  0  0  0  0  0  0
  187.2940  177.7490  143.3240 C   0  0  0  0  0  0  0  0  0  0  0  0
  185.4790  178.7030  141.1880 C   0  0  0  0  0  0  0  0  0  0  0  0
  190.5710  176.3200  142.2990 C   0  0  0  0  0  2  0  0  0  0  0  0
  183.7300  179.2780  142.7290 C   0  0  0  0  0  2  0  0  0  0  0  0
  188.0540  177.2490  144.4920 C   0  0  0  0  0  0  0  0  0  0  0  0
  185.8280  179.0070  137.6880 N   0  0  0  0  0  2  0  0  0  0  0  0
  188.2290  177.9130  139.8520 O   0  0  0  0  0  0  0  0  0  0  0  0
  188.7190  177.7080  141.1500 C   0  0  0  0  0  0  0  0  0  0  0  0
  190.2120  177.5530  141.4280 C   0  0  2  0  0  3  0  0  0  0  0  0
  185.9070  178.6370  139.9550 C   0  0  0  0  0  0  0  0  0  0  0  0
  187.5870  177.6360  145.8570 C   0  0  0  0  0  2  0  0  0  0  0  0
  186.1050  178.6560  143.5730 C   0  0  1  0  0  3  0  0  0  0  0  0
  186.7830  177.9080  137.9290 C   0  0  1  0  0  3  0  0  0  0  0  0
  186.1290  177.7930  145.8730 N   0  0  0  0  0  0  0  0  0  0  0  0
  189.2900  176.8520  144.2880 C   0  0  0  0  0  0  0  0  0  0  0  0
  187.9270  177.7520  142.1780 C   0  0  0  0  0  0  0  0  0  0  0  0
  185.0920  178.7250  142.4410 C   0  0  0  0  0  0  0  0  0  0  0  0
  186.8810  177.6530  139.4360 C   0  0  1  0  0  3  0  0  0  0  0  0
  190.4550  176.5400  143.7910 C   0  0  0  0  0  3  0  0  0  0  0  0
  183.9790  178.3930  145.0380 C   0  0  0  0  0  3  0  0  0  0  0  0
  185.4360  178.2740  144.8800 C   0  0  0  0  0  0  0  0  0  0  0  0
  191.0790  177.5480  140.1630 C   0  0  1  0  0  3  0  0  0  0  0  0
  192.4180  177.7920  140.4820 O   0  0  0  0  0  1  0  0  0  0  0  0
  190.9670  176.2490  139.3750 C   0  0  0  0  0  2  0  0  0  0  0  0
  190.2370  175.2060  137.1540 C   0  0  2  0  0  3  0  0  0  0  0  0
  190.3230  176.4710  138.0030 C   0  0  2  0  0  3  0  0  0  0  0  0
  190.8970  174.1140  137.7600 O   0  0  0  0  0  0  0  0  0  0  0  0
  192.5670  175.5730  136.9240 C   0  0  2  0  0  3  0  0  0  0  0  0
  192.2430  174.1670  137.3590 C   0  0  0  0  0  2  0  0  0  0  0  0
  193.4380  176.2390  137.8760 N   0  0  0  0  0  1  0  0  0  0  0  0
  191.2400  176.2830  136.7830 C   0  0  1  0  0  3  0  0  0  0  0  0
  181.8090  178.8970  144.3200 O   0  0  0  0  0  0  0  0  0  0  0  0
  180.8590  179.2590  143.3260 C   0  0  0  0  0  2  0  0  0  0  0  0
  179.3120  177.5580  142.3690 O   0  0  0  0  0  0  0  0  0  0  0  0
  179.0070  178.3330  144.5060 O   0  0  0  0  0  1  0  0  0  0  0  0
  179.6680  178.3750  143.4350 C   0  0  0  0  0  0  0  0  0  0  0  0
  186.3150  176.6440  137.2350 C   0  0  0  0  0  2  0  0  0  0  0  0
  184.9350  176.7870  136.8080 N   0  0  0  0  0  2  0  0  0  0  0  0
  184.1490  175.8610  137.6040 C   0  0  0  0  0  2  0  0  0  0  0  0
  182.7950  177.0120  139.3210 C   0  0  1  0  0  3  0  0  0  0  0  0
  182.1090  175.6960  139.0160 C   0  0  0  0  0  2  0  0  0  0  0  0
  182.7900  176.4710  137.9040 C   0  0  2  0  0  3  0  0  0  0  0  0
  181.8200  178.0320  139.4320 O   0  0  0  0  0  0  0  0  0  0  0  0
  180.9790  179.6990  138.0090 N   0  0  0  0  0  0  0  0  0  0  0  0
  181.1060  178.4400  138.3090 C   0  0  0  0  0  3  0  0  0  0  0  0
  181.5640  180.7660  138.8110 C   0  0  0  0  0  2  0  0  0  0  0  0
  181.3020  182.1160  138.1620 C   0  0  0  0  0  1  0  0  0  0  0  0
  1 34  1  0  0  0  0
  1 22  2  0  0  0  0
  2 12  1  0  0  0  0
  3 14  1  0  0  0  0
  3  7  1  0  0  0  0
  4 19  2  0  0  0  0
  5 21  1  0  0  0  0
  6  1  1  0  0  0  0
  7 13  1  0  0  0  0
  8 15  1  0  0  0  0
  8  2  1  0  0  0  0
  9 10  1  0  0  0  0
 10 11  1  0  0  0  0
 10 18  2  0  0  0  0
 11 24  1  6  0  0  0
 11  5  1  0  0  0  0
 12  4  2  0  0  0  0
 13 16  1  0  0  0  0
 14 19  1  6  0  0  0
 14 23  1  0  0  0  0
 15 39  1  6  0  0  0
 15 20  1  0  0  0  0
 17  7  2  0  0  0  0
 18  3  2  0  0  0  0
 19  6  1  0  0  0  0
 20  9  1  1  0  0  0
 20 12  1  0  0  0  0
 21 17  2  0  0  0  0
 23 22  1  0  0  0  0
 23 16  2  0  0  0  0
 24 25  1  1  0  0  0
 26 24  1  0  0  0  0
 27 29  1  1  0  0  0
 27 28  1  0  0  0  0
 28 26  1  1  0  0  0
 30 31  1  0  0  0  0
 30 32  1  1  0  0  0
 31 29  1  0  0  0  0
 33 30  1  0  0  0  0
 33 27  1  0  0  0  0
 33 28  1  0  0  0  0
 35 38  1  0  0  0  0
 35 34  1  0  0  0  0
 36 38  2  0  0  0  0
 38 37  1  0  0  0  0
 40 39  1  0  0  0  0
 40 41  1  0  0  0  0
 41 44  1  0  0  0  0
 42 45  1  0  0  0  0
 43 42  1  0  0  0  0
 44 43  1  0  0  0  0
 44 42  1  0  0  0  0
 46 47  2  0  0  0  0
 46 48  1  0  0  0  0
 47 45  1  0  0  0  0
 49 48  1  0  0  0  0
M  END
>  <MODEL>
2

>  <REMARK>
 VINA RESULT:      -8.6      3.089      8.040
  Name = 
  13 active torsions:
  status: ('A' for Active; 'I' for Inactive)
    1  A    between atoms: C_1  and  O_9
    2  A    between atoms: C_2  and  O_15
    3  A    between atoms: C_3  and  N_29
    4  A    between atoms: C_5  and  C_22
    5  A    between atoms: C_5  and  C_38
    6  A    between atoms: C_6  and  N_17
    7  A    between atoms: C_6  and  C_33
    8  A    between atoms: O_9  and  C_49
    9  A    between atoms: O_15  and  C_31
   10  A    between atoms: N_17  and  C_32
   11  A    between atoms: C_25  and  C_38
   12  A    between atoms: C_31  and  C_34
   13  A    between atoms: C_32  and  C_36
                            x       y       z     vdW  Elec       q    Type
                         _______ _______ _______ _____ _____    ______ ____

>  <TORSDO>
F 13

$$$$
=
 OpenBabel11032419353D

 49 56  0  0  1  0  0  0  0  0999 V2000
  190.1890  177.2080  146.4870 C   0  0  0  0  0  0  0  0  0  0  0  0
  189.5020  176.4440  140.9790 O   0  0  0  0  0  0  0  0  0  0  0  0
  186.4130  178.1340  144.6110 C   0  0  0  0  0  0  0  0  0  0  0  0
  188.7670  177.1790  143.0910 C   0  0  0  0  0  0  0  0  0  0  0  0
  183.5110  179.4270  142.6760 C   0  0  0  0  0  2  0  0  0  0  0  0
  190.0380  176.7040  145.0720 C   0  0  0  0  0  2  0  0  0  0  0  0
  185.3490  178.6420  145.5070 C   0  0  0  0  0  0  0  0  0  0  0  0
  189.4010  176.7640  139.6430 N   0  0  0  0  0  2  0  0  0  0  0  0
  186.4730  177.8410  141.0240 O   0  0  0  0  0  0  0  0  0  0  0  0
  185.6400  178.0670  142.1300 C   0  0  0  0  0  0  0  0  0  0  0  0
  184.1250  178.1820  141.9820 C   0  0  2  0  0  3  0  0  0  0  0  0
  188.6930  177.1960  141.7870 C   0  0  0  0  0  0  0  0  0  0  0  0
  185.4310  178.3100  146.9610 C   0  0  0  0  0  2  0  0  0  0  0  0
  187.5080  177.2740  145.2100 C   0  0  1  0  0  3  0  0  0  0  0  0
  188.3920  177.8370  139.5730 C   0  0  1  0  0  3  0  0  0  0  0  0
  186.8310  178.2000  147.3820 N   0  0  0  0  0  0  0  0  0  0  0  0
  184.2080  178.9930  144.9580 C   0  0  0  0  0  0  0  0  0  0  0  0
  186.1190  178.0780  143.3370 C   0  0  0  0  0  0  0  0  0  0  0  0
  188.7950  177.2050  144.4020 C   0  0  0  0  0  0  0  0  0  0  0  0
  187.8760  178.1320  140.9850 C   0  0  1  0  0  3  0  0  0  0  0  0
  183.2170  179.2530  144.1500 C   0  0  0  0  0  3  0  0  0  0  0  0
  189.1430  177.6470  147.1910 C   0  0  0  0  0  3  0  0  0  0  0  0
  187.7830  177.7140  146.6350 C   0  0  0  0  0  0  0  0  0  0  0  0
  183.6400  178.1220  140.5280 C   0  0  1  0  0  3  0  0  0  0  0  0
  183.1890  176.8380  140.2110 O   0  0  0  0  0  1  0  0  0  0  0  0
  182.5450  179.1390  140.2290 C   0  0  0  0  0  2  0  0  0  0  0  0
  181.7130  180.8650  138.5310 C   0  0  2  0  0  3  0  0  0  0  0  0
  182.6830  179.7220  138.8190 C   0  0  2  0  0  3  0  0  0  0  0  0
  180.7920  181.0580  139.5830 O   0  0  0  0  0  0  0  0  0  0  0  0
  180.1420  179.0930  138.4270 C   0  0  2  0  0  3  0  0  0  0  0  0
  179.7000  180.2070  139.3410 C   0  0  0  0  0  2  0  0  0  0  0  0
  180.2190  177.8250  139.1280 N   0  0  0  0  0  1  0  0  0  0  0  0
  181.4860  179.5140  137.8760 C   0  0  1  0  0  3  0  0  0  0  0  0
  191.4370  177.1930  147.1140 O   0  0  0  0  0  0  0  0  0  0  0  0
  192.2180  176.0110  147.2340 C   0  0  0  0  0  2  0  0  0  0  0  0
  193.1490  177.1570  149.2410 O   0  0  0  0  0  1  0  0  0  0  0  0
  193.0760  174.8660  149.1410 O   0  0  0  0  0  0  0  0  0  0  0  0
  192.8500  175.9710  148.5810 C   0  0  0  0  0  0  0  0  0  0  0  0
  189.0030  179.0960  138.9890 C   0  0  0  0  0  2  0  0  0  0  0  0
  189.2360  178.9270  137.5660 N   0  0  0  0  0  2  0  0  0  0  0  0
  187.9460  178.6510  136.9580 C   0  0  0  0  0  2  0  0  0  0  0  0
  189.2840  177.0930  135.5840 C   0  0  1  0  0  3  0  0  0  0  0  0
  188.0240  177.4090  134.8050 C   0  0  0  0  0  2  0  0  0  0  0  0
  187.9670  177.2750  136.3150 C   0  0  2  0  0  3  0  0  0  0  0  0
  189.5670  175.7110  135.4730 O   0  0  0  0  0  0  0  0  0  0  0  0
  189.4430  173.8790  136.9360 N   0  0  0  0  0  0  0  0  0  0  0  0
  190.0050  174.9970  136.5850 C   0  0  0  0  0  3  0  0  0  0  0  0
  188.3260  173.2910  136.2050 C   0  0  0  0  0  2  0  0  0  0  0  0
  187.0070  173.6930  136.8470 C   0  0  0  0  0  1  0  0  0  0  0  0
  1 34  1  0  0  0  0
  1 22  2  0  0  0  0
  2 12  1  0  0  0  0
  3 14  1  0  0  0  0
  3  7  1  0  0  0  0
  4 19  2  0  0  0  0
  5 21  1  0  0  0  0
  6  1  1  0  0  0  0
  7 13  1  0  0  0  0
  8  2  1  0  0  0  0
  9 10  1  0  0  0  0
 10 18  2  0  0  0  0
 11 24  1  6  0  0  0
 11 10  1  0  0  0  0
 11  5  1  0  0  0  0
 12  4  2  0  0  0  0
 13 16  1  0  0  0  0
 14 19  1  6  0  0  0
 14 23  1  0  0  0  0
 15 39  1  1  0  0  0
 15  8  1  0  0  0  0
 15 20  1  0  0  0  0
 17  7  2  0  0  0  0
 18  3  2  0  0  0  0
 19  6  1  0  0  0  0
 20  9  1  6  0  0  0
 20 12  1  0  0  0  0
 21 17  2  0  0  0  0
 23 22  1  0  0  0  0
 23 16  2  0  0  0  0
 24 25  1  1  0  0  0
 26 24  1  0  0  0  0
 27 28  1  0  0  0  0
 27 29  1  1  0  0  0
 28 26  1  1  0  0  0
 30 32  1  1  0  0  0
 30 31  1  0  0  0  0
 31 29  1  0  0  0  0
 33 30  1  0  0  0  0
 33 27  1  0  0  0  0
 33 28  1  0  0  0  0
 34 35  1  0  0  0  0
 35 38  1  0  0  0  0
 38 37  2  0  0  0  0
 38 36  1  0  0  0  0
 40 39  1  0  0  0  0
 41 40  1  0  0  0  0
 42 44  1  0  0  0  0
 43 42  1  0  0  0  0
 43 44  1  0  0  0  0
 44 41  1  0  0  0  0
 45 42  1  0  0  0  0
 45 47  1  0  0  0  0
 47 46  2  0  0  0  0
 48 49  1  0  0  0  0
 48 46  1  0  0  0  0
M  END
>  <MODEL>
3

>  <REMARK>
 VINA RESULT:      -8.4      1.466      1.978
  Name = 
  13 active torsions:
  status: ('A' for Active; 'I' for Inactive)
    1  A    between atoms: C_1  and  O_9
    2  A    between atoms: C_2  and  O_15
    3  A    between atoms: C_3  and  N_29
    4  A    between atoms: C_5  and  C_22
    5  A    between atoms: C_5  and  C_38
    6  A    between atoms: C_6  and  N_17
    7  A    between atoms: C_6  and  C_33
    8  A    between atoms: O_9  and  C_49
    9  A    between atoms: O_15  and  C_31
   10  A    between atoms: N_17  and  C_32
   11  A    between atoms: C_25  and  C_38
   12  A    between atoms: C_31  and  C_34
   13  A    between atoms: C_32  and  C_36
                            x       y       z     vdW  Elec       q    Type
                         _______ _______ _______ _____ _____    ______ ____

>  <TORSDO>
F 13

$$$$
=
 OpenBabel11032419353D

 49 56  0  0  1  0  0  0  0  0999 V2000
  182.8660  178.9870  144.2560 C   0  0  0  0  0  0  0  0  0  0  0  0
  185.0350  179.6480  139.1320 O   0  0  0  0  0  0  0  0  0  0  0  0
  186.9400  177.8110  143.4440 C   0  0  0  0  0  0  0  0  0  0  0  0
  185.1360  178.8930  141.3590 C   0  0  0  0  0  0  0  0  0  0  0  0
  190.1640  176.3230  142.3390 C   0  0  0  0  0  2  0  0  0  0  0  0
  183.4180  179.4650  142.9350 C   0  0  0  0  0  2  0  0  0  0  0  0
  187.6950  177.2490  144.5870 C   0  0  0  0  0  0  0  0  0  0  0  0
  185.4660  179.3090  137.8690 N   0  0  0  0  0  2  0  0  0  0  0  0
  187.8510  178.0700  139.9710 O   0  0  0  0  0  0  0  0  0  0  0  0
  188.3460  177.8050  141.2570 C   0  0  0  0  0  0  0  0  0  0  0  0
  189.8350  177.5960  141.5150 C   0  0  2  0  0  3  0  0  0  0  0  0
  185.5520  178.8580  140.1210 C   0  0  0  0  0  0  0  0  0  0  0  0
  187.2500  177.6010  145.9680 C   0  0  0  0  0  2  0  0  0  0  0  0
  185.7810  178.7440  143.7360 C   0  0  1  0  0  3  0  0  0  0  0  0
  186.3890  178.1750  138.0630 C   0  0  1  0  0  3  0  0  0  0  0  0
  185.7980  177.8000  146.0040 N   0  0  0  0  0  0  0  0  0  0  0  0
  188.9160  176.8230  144.3570 C   0  0  0  0  0  0  0  0  0  0  0  0
  187.5630  177.8360  142.2930 C   0  0  0  0  0  0  0  0  0  0  0  0
  184.7610  178.8820  142.6160 C   0  0  0  0  0  0  0  0  0  0  0  0
  186.4930  177.8650  139.5590 C   0  0  1  0  0  3  0  0  0  0  0  0
  190.0680  176.4940  143.8390 C   0  0  0  0  0  3  0  0  0  0  0  0
  183.6590  178.4920  145.2090 C   0  0  0  0  0  3  0  0  0  0  0  0
  185.1110  178.3360  145.0340 C   0  0  0  0  0  0  0  0  0  0  0  0
  190.6910  177.6100  140.2430 C   0  0  1  0  0  3  0  0  0  0  0  0
  192.0340  177.8460  140.5530 O   0  0  0  0  0  1  0  0  0  0  0  0
  190.5700  176.3230  139.4350 C   0  0  0  0  0  2  0  0  0  0  0  0
  189.7700  175.3080  137.2260 C   0  0  2  0  0  3  0  0  0  0  0  0
  189.8820  176.5620  138.0880 C   0  0  2  0  0  3  0  0  0  0  0  0
  190.4500  174.2090  137.7950 O   0  0  0  0  0  0  0  0  0  0  0  0
  192.0910  175.6820  136.9250 C   0  0  2  0  0  3  0  0  0  0  0  0
  191.7830  174.2700  137.3520 C   0  0  0  0  0  2  0  0  0  0  0  0
  192.9910  176.3370  137.8570 N   0  0  0  0  0  1  0  0  0  0  0  0
  190.7590  176.3910  136.8360 C   0  0  1  0  0  3  0  0  0  0  0  0
  181.5000  179.0850  144.5300 O   0  0  0  0  0  0  0  0  0  0  0  0
  180.5510  178.1500  144.0350 C   0  0  0  0  0  2  0  0  0  0  0  0
  179.5390  180.2140  143.0750 O   0  0  0  0  0  1  0  0  0  0  0  0
  179.0110  178.1540  142.2160 O   0  0  0  0  0  0  0  0  0  0  0  0
  179.6460  178.8290  143.0680 C   0  0  0  0  0  0  0  0  0  0  0  0
  185.8780  176.9500  137.3300 C   0  0  0  0  0  2  0  0  0  0  0  0
  184.5680  177.2150  136.7630 N   0  0  0  0  0  2  0  0  0  0  0  0
  183.5900  176.6960  137.7030 C   0  0  0  0  0  2  0  0  0  0  0  0
  182.7610  174.8930  136.2330 C   0  0  1  0  0  3  0  0  0  0  0  0
  182.0100  174.7830  137.5430 C   0  0  0  0  0  2  0  0  0  0  0  0
  183.4710  175.1910  137.5390 C   0  0  2  0  0  3  0  0  0  0  0  0
  183.1230  173.5970  135.7920 O   0  0  0  0  0  0  0  0  0  0  0  0
  184.2620  171.8880  136.9310 N   0  0  0  0  0  0  0  0  0  0  0  0
  183.1600  172.5380  136.6960 C   0  0  0  0  0  3  0  0  0  0  0  0
  185.5250  172.2100  136.2770 C   0  0  0  0  0  2  0  0  0  0  0  0
  186.4710  172.8810  137.2610 C   0  0  0  0  0  1  0  0  0  0  0  0
  1 34  1  0  0  0  0
  1 22  2  0  0  0  0
  2 12  1  0  0  0  0
  3 14  1  0  0  0  0
  3  7  1  0  0  0  0
  4 19  2  0  0  0  0
  5 21  1  0  0  0  0
  6  1  1  0  0  0  0
  7 13  1  0  0  0  0
  8 15  1  0  0  0  0
  8  2  1  0  0  0  0
  9 10  1  0  0  0  0
 10 11  1  0  0  0  0
 10 18  2  0  0  0  0
 11 24  1  6  0  0  0
 11  5  1  0  0  0  0
 12  4  2  0  0  0  0
 13 16  1  0  0  0  0
 14 19  1  6  0  0  0
 14 23  1  0  0  0  0
 15 39  1  6  0  0  0
 15 20  1  0  0  0  0
 17  7  2  0  0  0  0
 18  3  2  0  0  0  0
 19  6  1  0  0  0  0
 20  9  1  1  0  0  0
 20 12  1  0  0  0  0
 21 17  2  0  0  0  0
 23 22  1  0  0  0  0
 23 16  2  0  0  0  0
 24 25  1  1  0  0  0
 26 24  1  0  0  0  0
 27 29  1  1  0  0  0
 27 28  1  0  0  0  0
 28 26  1  1  0  0  0
 30 31  1  0  0  0  0
 30 32  1  1  0  0  0
 31 29  1  0  0  0  0
 33 30  1  0  0  0  0
 33 27  1  0  0  0  0
 33 28  1  0  0  0  0
 35 34  1  0  0  0  0
 37 38  2  0  0  0  0
 38 36  1  0  0  0  0
 38 35  1  0  0  0  0
 40 39  1  0  0  0  0
 40 41  1  0  0  0  0
 42 44  1  0  0  0  0
 42 43  1  0  0  0  0
 44 43  1  0  0  0  0
 44 41  1  0  0  0  0
 45 42  1  0  0  0  0
 45 47  1  0  0  0  0
 47 46  2  0  0  0  0
 48 46  1  0  0  0  0
 48 49  1  0  0  0  0
M  END
>  <MODEL>
4

>  <REMARK>
 VINA RESULT:      -8.1      3.272      7.897
  Name = 
  13 active torsions:
  status: ('A' for Active; 'I' for Inactive)
    1  A    between atoms: C_1  and  O_9
    2  A    between atoms: C_2  and  O_15
    3  A    between atoms: C_3  and  N_29
    4  A    between atoms: C_5  and  C_22
    5  A    between atoms: C_5  and  C_38
    6  A    between atoms: C_6  and  N_17
    7  A    between atoms: C_6  and  C_33
    8  A    between atoms: O_9  and  C_49
    9  A    between atoms: O_15  and  C_31
   10  A    between atoms: N_17  and  C_32
   11  A    between atoms: C_25  and  C_38
   12  A    between atoms: C_31  and  C_34
   13  A    between atoms: C_32  and  C_36
                            x       y       z     vdW  Elec       q    Type
                         _______ _______ _______ _____ _____    ______ ____

>  <TORSDO>
F 13

$$$$
=
 OpenBabel11032419353D

 49 56  0  0  1  0  0  0  0  0999 V2000
  192.2510  175.0340  137.6280 C   0  0  0  0  0  0  0  0  0  0  0  0
  190.1030  178.2740  141.6640 O   0  0  0  0  0  0  0  0  0  0  0  0
  188.1960  176.4850  137.3330 C   0  0  0  0  0  0  0  0  0  0  0  0
  189.9330  177.0420  139.6660 C   0  0  0  0  0  0  0  0  0  0  0  0
  184.5860  177.3330  137.6230 C   0  0  0  0  0  2  0  0  0  0  0  0
  191.8830  176.1100  138.6210 C   0  0  0  0  0  2  0  0  0  0  0  0
  187.4470  176.0820  136.1210 C   0  0  0  0  0  0  0  0  0  0  0  0
  189.3620  178.6200  142.7720 N   0  0  0  0  0  2  0  0  0  0  0  0
  187.0730  178.2380  140.2700 O   0  0  0  0  0  0  0  0  0  0  0  0
  186.7280  177.8900  138.9550 C   0  0  0  0  0  0  0  0  0  0  0  0
  185.4620  178.4250  138.2900 C   0  0  2  0  0  3  0  0  0  0  0  0
  189.3850  177.6130  140.7060 C   0  0  0  0  0  0  0  0  0  0  0  0
  188.2250  175.7030  134.9040 C   0  0  0  0  0  2  0  0  0  0  0  0
  189.7090  176.5280  137.2630 C   0  0  1  0  0  3  0  0  0  0  0  0
  187.9940  178.1440  142.4900 C   0  0  1  0  0  3  0  0  0  0  0  0
  189.5020  175.0900  135.2830 N   0  0  0  0  0  0  0  0  0  0  0  0
  186.1910  176.4540  136.0310 C   0  0  0  0  0  0  0  0  0  0  0  0
  187.5320  177.1860  138.2180 C   0  0  0  0  0  0  0  0  0  0  0  0
  190.4240  176.4490  138.6040 C   0  0  0  0  0  0  0  0  0  0  0  0
  187.9670  177.4900  141.1050 C   0  0  1  0  0  3  0  0  0  0  0  0
  185.0000  176.9560  136.2170 C   0  0  0  0  0  3  0  0  0  0  0  0
  191.4810  174.7640  136.5710 C   0  0  0  0  0  3  0  0  0  0  0  0
  190.2080  175.4530  136.3160 C   0  0  0  0  0  0  0  0  0  0  0  0
  184.5890  179.2770  139.2200 C   0  0  1  0  0  3  0  0  0  0  0  0
  184.4560  180.5750  138.7190 O   0  0  0  0  0  1  0  0  0  0  0  0
  183.2100  178.6720  139.4530 C   0  0  0  0  0  2  0  0  0  0  0  0
  181.0440  179.8920  140.0650 C   0  0  2  0  0  3  0  0  0  0  0  0
  182.0930  179.6130  138.9920 C   0  0  2  0  0  3  0  0  0  0  0  0
  181.2500  179.1110  141.2240 O   0  0  0  0  0  0  0  0  0  0  0  0
  180.3770  177.6760  139.5510 C   0  0  2  0  0  3  0  0  0  0  0  0
  180.5770  177.8930  141.0290 C   0  0  0  0  0  2  0  0  0  0  0  0
  181.2250  176.6110  139.0480 N   0  0  0  0  0  1  0  0  0  0  0  0
  180.6860  179.0010  138.8900 C   0  0  1  0  0  3  0  0  0  0  0  0
  193.4380  174.3120  137.7740 O   0  0  0  0  0  0  0  0  0  0  0  0
  194.6940  174.9420  137.9870 C   0  0  0  0  0  2  0  0  0  0  0  0
  196.4490  174.6290  139.7270 O   0  0  0  0  0  1  0  0  0  0  0  0
  195.4300  172.8130  138.7650 O   0  0  0  0  0  0  0  0  0  0  0  0
  195.5500  174.0640  138.8310 C   0  0  0  0  0  0  0  0  0  0  0  0
  187.5660  177.1290  143.5330 C   0  0  0  0  0  2  0  0  0  0  0  0
  186.4260  177.6280  144.2810 N   0  0  0  0  0  2  0  0  0  0  0  0
  186.5690  177.1400  145.6410 C   0  0  0  0  0  2  0  0  0  0  0  0
  188.1670  176.9210  147.5140 C   0  0  1  0  0  3  0  0  0  0  0  0
  187.5370  178.2940  147.6200 C   0  0  0  0  0  2  0  0  0  0  0  0
  187.8390  177.7030  146.2560 C   0  0  2  0  0  3  0  0  0  0  0  0
  189.5540  177.0220  147.7760 O   0  0  0  0  0  0  0  0  0  0  0  0
  191.5320  176.7610  146.5400 N   0  0  0  0  0  0  0  0  0  0  0  0
  190.4290  177.4100  146.7650 C   0  0  0  0  0  3  0  0  0  0  0  0
  191.9370  175.5940  147.3160 C   0  0  0  0  0  2  0  0  0  0  0  0
  193.0010  175.9810  148.3320 C   0  0  0  0  0  1  0  0  0  0  0  0
  1 34  1  0  0  0  0
  1  6  1  0  0  0  0
  2  8  1  0  0  0  0
  3 18  2  0  0  0  0
  4 12  2  0  0  0  0
  5 11  1  0  0  0  0
  7  3  1  0  0  0  0
 10  9  1  0  0  0  0
 11 10  1  0  0  0  0
 11 24  1  1  0  0  0
 12 20  1  0  0  0  0
 12  2  1  0  0  0  0
 13 16  1  0  0  0  0
 13  7  1  0  0  0  0
 14 23  1  6  0  0  0
 14  3  1  0  0  0  0
 14 19  1  0  0  0  0
 15  8  1  0  0  0  0
 15 39  1  1  0  0  0
 16 23  2  0  0  0  0
 17  7  2  0  0  0  0
 17 21  2  0  0  0  0
 18 10  2  0  0  0  0
 19  6  1  0  0  0  0
 19  4  2  0  0  0  0
 20  9  1  6  0  0  0
 20 15  1  0  0  0  0
 21  5  1  0  0  0  0
 22  1  2  0  0  0  0
 23 22  1  0  0  0  0
 24 25  1  6  0  0  0
 24 26  1  0  0  0  0
 27 29  1  1  0  0  0
 28 26  1  1  0  0  0
 28 27  1  0  0  0  0
 30 32  1  6  0  0  0
 30 31  1  0  0  0  0
 31 29  1  0  0  0  0
 33 28  1  0  0  0  0
 33 30  1  0  0  0  0
 33 27  1  0  0  0  0
 34 35  1  0  0  0  0
 35 38  1  0  0  0  0
 37 38  2  0  0  0  0
 38 36  1  0  0  0  0
 39 40  1  0  0  0  0
 40 41  1  0  0  0  0
 41 44  1  0  0  0  0
 42 43  1  0  0  0  0
 42 45  1  0  0  0  0
 44 42  1  0  0  0  0
 44 43  1  0  0  0  0
 46 47  2  0  0  0  0
 46 48  1  0  0  0  0
 47 45  1  0  0  0  0
 48 49  1  0  0  0  0
M  END
>  <MODEL>
5

>  <REMARK>
 VINA RESULT:      -7.6      3.089      8.168
  Name = 
  13 active torsions:
  status: ('A' for Active; 'I' for Inactive)
    1  A    between atoms: C_1  and  O_9
    2  A    between atoms: C_2  and  O_15
    3  A    between atoms: C_3  and  N_29
    4  A    between atoms: C_5  and  C_22
    5  A    between atoms: C_5  and  C_38
    6  A    between atoms: C_6  and  N_17
    7  A    between atoms: C_6  and  C_33
    8  A    between atoms: O_9  and  C_49
    9  A    between atoms: O_15  and  C_31
   10  A    between atoms: N_17  and  C_32
   11  A    between atoms: C_25  and  C_38
   12  A    between atoms: C_31  and  C_34
   13  A    between atoms: C_32  and  C_36
                            x       y       z     vdW  Elec       q    Type
                         _______ _______ _______ _____ _____    ______ ____

>  <TORSDO>
F 13

$$$$
=
 OpenBabel11032419353D

 49 56  0  0  1  0  0  0  0  0999 V2000
  191.0080  176.8520  146.5690 C   0  0  0  0  0  0  0  0  0  0  0  0
  189.7130  176.2450  141.1510 O   0  0  0  0  0  0  0  0  0  0  0  0
  187.1190  178.0280  145.1110 C   0  0  0  0  0  0  0  0  0  0  0  0
  189.2440  176.9750  143.3400 C   0  0  0  0  0  0  0  0  0  0  0  0
  184.1140  179.5230  143.5090 C   0  0  0  0  0  2  0  0  0  0  0  0
  190.6830  176.3880  145.1700 C   0  0  0  0  0  2  0  0  0  0  0  0
  186.1840  178.5760  146.1210 C   0  0  0  0  0  0  0  0  0  0  0  0
  189.4950  176.5990  139.8380 N   0  0  0  0  0  2  0  0  0  0  0  0
  186.7920  177.8080  141.5330 O   0  0  0  0  0  0  0  0  0  0  0  0
  186.0910  178.0580  142.7230 C   0  0  0  0  0  0  0  0  0  0  0  0
  184.5790  178.2610  142.7360 C   0  0  2  0  0  3  0  0  0  0  0  0
  189.0380  177.0230  142.0500 C   0  0  0  0  0  0  0  0  0  0  0  0
  186.3970  178.2090  147.5530 C   0  0  0  0  0  2  0  0  0  0  0  0
  188.2180  177.0950  145.5790 C   0  0  1  0  0  3  0  0  0  0  0  0
  188.5470  177.7280  139.8900 C   0  0  1  0  0  3  0  0  0  0  0  0
  187.8240  178.0120  147.8240 N   0  0  0  0  0  0  0  0  0  0  0  0
  185.0160  179.0020  145.6990 C   0  0  0  0  0  0  0  0  0  0  0  0
  186.6930  178.0160  143.8740 C   0  0  0  0  0  0  0  0  0  0  0  0
  189.4090  176.9710  144.6410 C   0  0  0  0  0  0  0  0  0  0  0  0
  188.1980  178.0210  141.3530 C   0  0  1  0  0  3  0  0  0  0  0  0
  183.9640  179.3350  145.0020 C   0  0  0  0  0  3  0  0  0  0  0  0
  190.0670  177.3330  147.3840 C   0  0  0  0  0  3  0  0  0  0  0  0
  188.6630  177.4890  146.9750 C   0  0  0  0  0  0  0  0  0  0  0  0
  183.9440  178.2600  141.3400 C   0  0  1  0  0  3  0  0  0  0  0  0
  184.3540  177.1390  140.6120 O   0  0  0  0  0  1  0  0  0  0  0  0
  182.4220  178.3140  141.3830 C   0  0  0  0  0  2  0  0  0  0  0  0
  180.3580  179.4620  140.3950 C   0  0  2  0  0  3  0  0  0  0  0  0
  181.8530  179.1880  140.2610 C   0  0  2  0  0  3  0  0  0  0  0  0
  179.7780  178.7360  141.4580 O   0  0  0  0  0  0  0  0  0  0  0  0
  180.1960  177.2020  139.6990 C   0  0  2  0  0  3  0  0  0  0  0  0
  179.3970  177.4830  140.9470 C   0  0  0  0  0  2  0  0  0  0  0  0
  181.1780  176.1560  139.9180 N   0  0  0  0  0  1  0  0  0  0  0  0
  180.8450  178.5130  139.3160 C   0  0  1  0  0  3  0  0  0  0  0  0
  192.3120  176.7530  147.0620 O   0  0  0  0  0  0  0  0  0  0  0  0
  192.6270  176.0400  148.2510 C   0  0  0  0  0  2  0  0  0  0  0  0
  194.3980  176.7270  149.8630 O   0  0  0  0  0  1  0  0  0  0  0  0
  192.5440  178.0390  149.5470 O   0  0  0  0  0  0  0  0  0  0  0  0
  193.1720  176.9850  149.2640 C   0  0  0  0  0  0  0  0  0  0  0  0
  189.1670  178.9630  139.2650 C   0  0  0  0  0  2  0  0  0  0  0  0
  188.4970  179.2830  138.0170 N   0  0  0  0  0  2  0  0  0  0  0  0
  189.3900  178.8790  136.9450 C   0  0  0  0  0  2  0  0  0  0  0  0
  190.3740  176.7970  136.0500 C   0  0  1  0  0  3  0  0  0  0  0  0
  189.3240  177.2570  135.0600 C   0  0  0  0  0  2  0  0  0  0  0  0
  189.0950  177.4420  136.5490 C   0  0  2  0  0  3  0  0  0  0  0  0
  190.2800  175.3930  136.2100 O   0  0  0  0  0  0  0  0  0  0  0  0
  192.2580  174.1760  135.8660 N   0  0  0  0  0  0  0  0  0  0  0  0
  191.0840  174.5490  135.4490 C   0  0  0  0  0  3  0  0  0  0  0  0
  192.8170  174.6040  137.1430 C   0  0  0  0  0  2  0  0  0  0  0  0
  193.9960  173.7230  137.5240 C   0  0  0  0  0  1  0  0  0  0  0  0
  1 34  1  0  0  0  0
  1 22  2  0  0  0  0
  2 12  1  0  0  0  0
  3 14  1  0  0  0  0
  3  7  1  0  0  0  0
  4 19  2  0  0  0  0
  5 21  1  0  0  0  0
  6  1  1  0  0  0  0
  7 13  1  0  0  0  0
  8 15  1  0  0  0  0
  8  2  1  0  0  0  0
  9 10  1  0  0  0  0
 10 11  1  0  0  0  0
 10 18  2  0  0  0  0
 11 24  1  6  0  0  0
 11  5  1  0  0  0  0
 12  4  2  0  0  0  0
 13 16  1  0  0  0  0
 14 19  1  6  0  0  0
 14 23  1  0  0  0  0
 15 39  1  1  0  0  0
 15 20  1  0  0  0  0
 17  7  2  0  0  0  0
 18  3  2  0  0  0  0
 19  6  1  0  0  0  0
 20  9  1  6  0  0  0
 20 12  1  0  0  0  0
 21 17  2  0  0  0  0
 23 22  1  0  0  0  0
 23 16  2  0  0  0  0
 24 25  1  1  0  0  0
 24 26  1  0  0  0  0
 27 29  1  1  0  0  0
 28 27  1  0  0  0  0
 28 26  1  1  0  0  0
 30 32  1  1  0  0  0
 30 31  1  0  0  0  0
 31 29  1  0  0  0  0
 33 30  1  0  0  0  0
 33 28  1  0  0  0  0
 33 27  1  0  0  0  0
 34 35  1  0  0  0  0
 35 38  1  0  0  0  0
 38 37  2  0  0  0  0
 38 36  1  0  0  0  0
 40 39  1  0  0  0  0
 41 40  1  0  0  0  0
 42 45  1  0  0  0  0
 42 44  1  0  0  0  0
 43 42  1  0  0  0  0
 43 44  1  0  0  0  0
 44 41  1  0  0  0  0
 46 48  1  0  0  0  0
 47 46  2  0  0  0  0
 47 45  1  0  0  0  0
 48 49  1  0  0  0  0
M  END
>  <MODEL>
6

>  <REMARK>
 VINA RESULT:      -7.2      1.857      2.895
  Name = 
  13 active torsions:
  status: ('A' for Active; 'I' for Inactive)
    1  A    between atoms: C_1  and  O_9
    2  A    between atoms: C_2  and  O_15
    3  A    between atoms: C_3  and  N_29
    4  A    between atoms: C_5  and  C_22
    5  A    between atoms: C_5  and  C_38
    6  A    between atoms: C_6  and  N_17
    7  A    between atoms: C_6  and  C_33
    8  A    between atoms: O_9  and  C_49
    9  A    between atoms: O_15  and  C_31
   10  A    between atoms: N_17  and  C_32
   11  A    between atoms: C_25  and  C_38
   12  A    between atoms: C_31  and  C_34
   13  A    between atoms: C_32  and  C_36
                            x       y       z     vdW  Elec       q    Type
                         _______ _______ _______ _____ _____    ______ ____

>  <TORSDO>
F 13

$$$$
=
 OpenBabel11032419353D

 49 56  0  0  1  0  0  0  0  0999 V2000
  192.9650  175.8280  137.7820 C   0  0  0  0  0  0  0  0  0  0  0  0
  190.2950  178.3630  142.0060 O   0  0  0  0  0  0  0  0  0  0  0  0
  188.7900  176.8650  137.4140 C   0  0  0  0  0  0  0  0  0  0  0  0
  190.3500  177.3440  139.8850 C   0  0  0  0  0  0  0  0  0  0  0  0
  185.0990  177.2890  137.5880 C   0  0  0  0  0  2  0  0  0  0  0  0
  192.4360  176.7440  138.8590 C   0  0  0  0  0  2  0  0  0  0  0  0
  188.1450  176.5200  136.1260 C   0  0  0  0  0  0  0  0  0  0  0  0
  189.4710  178.5040  143.1010 N   0  0  0  0  0  2  0  0  0  0  0  0
  187.3520  178.1580  140.4500 O   0  0  0  0  0  0  0  0  0  0  0  0
  187.1060  177.9210  139.0890 C   0  0  0  0  0  0  0  0  0  0  0  0
  185.8190  178.3890  138.4140 C   0  0  2  0  0  3  0  0  0  0  0  0
  189.6980  177.7370  140.9460 C   0  0  0  0  0  0  0  0  0  0  0  0
  189.0130  176.3600  134.9220 C   0  0  0  0  0  2  0  0  0  0  0  0
  190.2910  177.0760  137.4330 C   0  0  1  0  0  3  0  0  0  0  0  0
  188.1790  177.9200  142.6960 C   0  0  1  0  0  3  0  0  0  0  0  0
  190.3330  175.8480  135.3060 N   0  0  0  0  0  0  0  0  0  0  0  0
  186.8610  176.7640  136.0060 C   0  0  0  0  0  0  0  0  0  0  0  0
  188.0150  177.3910  138.3280 C   0  0  0  0  0  0  0  0  0  0  0  0
  190.9510  176.9270  138.7960 C   0  0  0  0  0  0  0  0  0  0  0  0
  188.2860  177.4220  141.2510 C   0  0  1  0  0  3  0  0  0  0  0  0
  185.6150  177.1140  136.1770 C   0  0  0  0  0  3  0  0  0  0  0  0
  192.2780  175.5940  136.6610 C   0  0  0  0  0  3  0  0  0  0  0  0
  190.9480  176.1690  136.4090 C   0  0  0  0  0  0  0  0  0  0  0  0
  184.8160  179.0370  139.3760 C   0  0  1  0  0  3  0  0  0  0  0  0
  184.5650  180.3620  139.0090 O   0  0  0  0  0  1  0  0  0  0  0  0
  183.5020  178.2710  139.4640 C   0  0  0  0  0  2  0  0  0  0  0  0
  181.1300  179.1540  139.0770 C   0  0  2  0  0  3  0  0  0  0  0  0
  182.4750  178.7890  138.4530 C   0  0  2  0  0  3  0  0  0  0  0  0
  181.0680  178.8070  140.4450 O   0  0  0  0  0  0  0  0  0  0  0  0
  180.8970  176.7980  139.1970 C   0  0  2  0  0  3  0  0  0  0  0  0
  180.6230  177.4750  140.5160 C   0  0  0  0  0  2  0  0  0  0  0  0
  181.9690  175.8250  139.3080 N   0  0  0  0  0  1  0  0  0  0  0  0
  181.2390  177.9030  138.2230 C   0  0  1  0  0  3  0  0  0  0  0  0
  194.2170  175.2240  137.9180 O   0  0  0  0  0  0  0  0  0  0  0  0
  195.0000  175.3430  139.0980 C   0  0  0  0  0  2  0  0  0  0  0  0
  195.6650  172.9670  138.7560 O   0  0  0  0  0  0  0  0  0  0  0  0
  197.2080  174.5180  139.4470 O   0  0  0  0  0  1  0  0  0  0  0  0
  196.0180  174.2590  139.1280 C   0  0  0  0  0  0  0  0  0  0  0  0
  187.8210  176.7580  143.6020 C   0  0  0  0  0  2  0  0  0  0  0  0
  188.8080  176.6230  144.6590 N   0  0  0  0  0  2  0  0  0  0  0  0
  188.6330  177.7600  145.5450 C   0  0  0  0  0  2  0  0  0  0  0  0
  186.9850  179.0320  146.8760 C   0  0  1  0  0  3  0  0  0  0  0  0
  187.3400  177.7920  147.6700 C   0  0  0  0  0  2  0  0  0  0  0  0
  187.2430  177.7210  146.1580 C   0  0  2  0  0  3  0  0  0  0  0  0
  185.5890  179.2520  146.9550 O   0  0  0  0  0  0  0  0  0  0  0  0
  184.1060  178.3640  145.3660 N   0  0  0  0  0  0  0  0  0  0  0  0
  184.7020  178.2710  146.5170 C   0  0  0  0  0  3  0  0  0  0  0  0
  184.3120  179.4850  144.4560 C   0  0  0  0  0  2  0  0  0  0  0  0
  184.2920  179.0020  143.0140 C   0  0  0  0  0  1  0  0  0  0  0  0
  1 34  1  0  0  0  0
  1  6  1  0  0  0  0
  2  8  1  0  0  0  0
  3 14  1  0  0  0  0
  3 18  2  0  0  0  0
  4 12  2  0  0  0  0
  5 11  1  0  0  0  0
  7  3  1  0  0  0  0
 10  9  1  0  0  0  0
 11 10  1  0  0  0  0
 11 24  1  1  0  0  0
 12 20  1  0  0  0  0
 12  2  1  0  0  0  0
 13 16  1  0  0  0  0
 13  7  1  0  0  0  0
 14 23  1  6  0  0  0
 14 19  1  0  0  0  0
 15  8  1  0  0  0  0
 15 39  1  1  0  0  0
 16 23  2  0  0  0  0
 17  7  2  0  0  0  0
 17 21  2  0  0  0  0
 18 10  2  0  0  0  0
 19  6  1  0  0  0  0
 19  4  2  0  0  0  0
 20  9  1  6  0  0  0
 20 15  1  0  0  0  0
 21  5  1  0  0  0  0
 22  1  2  0  0  0  0
 23 22  1  0  0  0  0
 24 25  1  6  0  0  0
 24 26  1  0  0  0  0
 27 29  1  1  0  0  0
 28 27  1  0  0  0  0
 28 26  1  1  0  0  0
 29 31  1  0  0  0  0
 30 32  1  1  0  0  0
 30 31  1  0  0  0  0
 33 28  1  0  0  0  0
 33 27  1  0  0  0  0
 33 30  1  0  0  0  0
 34 35  1  0  0  0  0
 35 38  1  0  0  0  0
 36 38  2  0  0  0  0
 38 37  1  0  0  0  0
 39 40  1  0  0  0  0
 40 41  1  0  0  0  0
 41 44  1  0  0  0  0
 42 45  1  0  0  0  0
 42 43  1  0  0  0  0
 44 42  1  0  0  0  0
 44 43  1  0  0  0  0
 46 47  2  0  0  0  0
 47 45  1  0  0  0  0
 48 46  1  0  0  0  0
 49 48  1  0  0  0  0
M  END
>  <MODEL>
7

>  <REMARK>
 VINA RESULT:      -7.1      3.275      7.653
  Name = 
  13 active torsions:
  status: ('A' for Active; 'I' for Inactive)
    1  A    between atoms: C_1  and  O_9
    2  A    between atoms: C_2  and  O_15
    3  A    between atoms: C_3  and  N_29
    4  A    between atoms: C_5  and  C_22
    5  A    between atoms: C_5  and  C_38
    6  A    between atoms: C_6  and  N_17
    7  A    between atoms: C_6  and  C_33
    8  A    between atoms: O_9  and  C_49
    9  A    between atoms: O_15  and  C_31
   10  A    between atoms: N_17  and  C_32
   11  A    between atoms: C_25  and  C_38
   12  A    between atoms: C_31  and  C_34
   13  A    between atoms: C_32  and  C_36
                            x       y       z     vdW  Elec       q    Type
                         _______ _______ _______ _____ _____    ______ ____

>  <TORSDO>
F 13

$$$$
=
 OpenBabel11032419353D

 49 56  0  0  1  0  0  0  0  0999 V2000
  187.6560  177.3370  145.5860 C   0  0  0  0  0  0  0  0  0  0  0  0
  184.5570  179.5040  141.4510 O   0  0  0  0  0  0  0  0  0  0  0  0
  189.1600  177.4050  141.5400 C   0  0  0  0  0  0  0  0  0  0  0  0
  186.4600  178.3810  142.2650 C   0  0  0  0  0  0  0  0  0  0  0  0
  189.9480  177.0190  137.9260 C   0  0  0  0  0  2  0  0  0  0  0  0
  186.8620  178.1860  144.6230 C   0  0  0  0  0  2  0  0  0  0  0  0
  190.5140  176.8400  141.3400 C   0  0  0  0  0  0  0  0  0  0  0  0
  183.7230  179.5350  140.3560 N   0  0  0  0  0  2  0  0  0  0  0  0
  186.7500  178.5530  139.1250 O   0  0  0  0  0  0  0  0  0  0  0  0
  188.0910  178.1770  139.2990 C   0  0  0  0  0  0  0  0  0  0  0  0
  189.1120  178.3030  138.1720 C   0  0  2  0  0  3  0  0  0  0  0  0
  185.6470  178.6920  141.2900 C   0  0  0  0  0  0  0  0  0  0  0  0
  191.4400  176.7940  142.5100 C   0  0  0  0  0  2  0  0  0  0  0  0
  188.7990  177.9410  142.9120 C   0  0  1  0  0  3  0  0  0  0  0  0
  184.3580  178.6550  139.3560 C   0  0  1  0  0  3  0  0  0  0  0  0
  190.6850  176.6110  143.7540 N   0  0  0  0  0  0  0  0  0  0  0  0
  190.9750  176.7880  140.1110 C   0  0  0  0  0  0  0  0  0  0  0  0
  188.5350  177.8080  140.4630 C   0  0  0  0  0  0  0  0  0  0  0  0
  187.3090  178.0330  143.2020 C   0  0  0  0  0  0  0  0  0  0  0  0
  185.6610  178.0960  139.9370 C   0  0  1  0  0  3  0  0  0  0  0  0
  191.1580  176.8660  138.8210 C   0  0  0  0  0  3  0  0  0  0  0  0
  188.8740  176.8830  145.2800 C   0  0  0  0  0  3  0  0  0  0  0  0
  189.5130  177.1330  143.9800 C   0  0  0  0  0  0  0  0  0  0  0  0
  188.5110  178.7790  136.8440 C   0  0  1  0  0  3  0  0  0  0  0  0
  189.4140  178.5800  135.7950 O   0  0  0  0  0  1  0  0  0  0  0  0
  187.1870  178.0990  136.5180 C   0  0  0  0  0  2  0  0  0  0  0  0
  185.7340  177.2350  134.5950 C   0  0  2  0  0  3  0  0  0  0  0  0
  187.1330  177.6340  135.0600 C   0  0  2  0  0  3  0  0  0  0  0  0
  184.7990  177.2490  135.6530 O   0  0  0  0  0  0  0  0  0  0  0  0
  186.1650  175.3330  135.9430 C   0  0  2  0  0  3  0  0  0  0  0  0
  184.8440  175.9840  136.2650 C   0  0  0  0  0  2  0  0  0  0  0  0
  187.0300  175.2740  137.1080 N   0  0  0  0  0  1  0  0  0  0  0  0
  186.7750  176.1560  134.8300 C   0  0  1  0  0  3  0  0  0  0  0  0
  187.1450  177.0330  146.8510 O   0  0  0  0  0  0  0  0  0  0  0  0
  187.9660  176.9530  148.0080 C   0  0  0  0  0  2  0  0  0  0  0  0
  187.4250  179.3450  148.4440 O   0  0  0  0  0  0  0  0  0  0  0  0
  189.5460  178.5490  148.8040 O   0  0  0  0  0  1  0  0  0  0  0  0
  188.3670  178.3240  148.4260 C   0  0  0  0  0  0  0  0  0  0  0  0
  183.4320  177.5070  139.0040 C   0  0  0  0  0  2  0  0  0  0  0  0
  182.0790  177.9950  138.8090 N   0  0  0  0  0  2  0  0  0  0  0  0
  181.8650  178.0790  137.3750 C   0  0  0  0  0  2  0  0  0  0  0  0
  180.2890  179.8560  138.0560 C   0  0  1  0  0  3  0  0  0  0  0  0
  179.8390  179.3540  136.6990 C   0  0  0  0  0  2  0  0  0  0  0  0
  181.3190  179.4510  137.0180 C   0  0  2  0  0  3  0  0  0  0  0  0
  180.1890  181.2670  138.0870 O   0  0  0  0  0  0  0  0  0  0  0  0
  181.6470  183.0720  137.7260 N   0  0  0  0  0  0  0  0  0  0  0  0
  181.2980  182.0370  138.4310 C   0  0  0  0  0  3  0  0  0  0  0  0
  180.9190  183.5040  136.5390 C   0  0  0  0  0  2  0  0  0  0  0  0
  180.8640  185.0220  136.4790 C   0  0  0  0  0  1  0  0  0  0  0  0
  1 34  1  0  0  0  0
  4 19  2  0  0  0  0
  5 11  1  0  0  0  0
  5 21  1  0  0  0  0
  6  1  1  0  0  0  0
  7  3  1  0  0  0  0
  7 13  1  0  0  0  0
  8  2  1  0  0  0  0
  9 10  1  0  0  0  0
 10 18  2  0  0  0  0
 11 24  1  6  0  0  0
 11 10  1  0  0  0  0
 12  2  1  0  0  0  0
 12  4  2  0  0  0  0
 13 16  1  0  0  0  0
 14  3  1  6  0  0  0
 14 19  1  0  0  0  0
 14 23  1  0  0  0  0
 15 39  1  1  0  0  0
 15 20  1  0  0  0  0
 15  8  1  0  0  0  0
 16 23  2  0  0  0  0
 17  7  2  0  0  0  0
 18  3  2  0  0  0  0
 19  6  1  0  0  0  0
 20  9  1  6  0  0  0
 20 12  1  0  0  0  0
 21 17  2  0  0  0  0
 22  1  2  0  0  0  0
 23 22  1  0  0  0  0
 24 25  1  6  0  0  0
 26 24  1  0  0  0  0
 27 33  1  0  0  0  0
 27 28  1  0  0  0  0
 27 29  1  1  0  0  0
 28 26  1  1  0  0  0
 29 31  1  0  0  0  0
 30 31  1  0  0  0  0
 30 32  1  1  0  0  0
 33 28  1  0  0  0  0
 33 30  1  0  0  0  0
 34 35  1  0  0  0  0
 35 38  1  0  0  0  0
 38 36  2  0  0  0  0
 38 37  1  0  0  0  0
 40 39  1  0  0  0  0
 41 40  1  0  0  0  0
 42 45  1  0  0  0  0
 43 44  1  0  0  0  0
 43 42  1  0  0  0  0
 44 41  1  0  0  0  0
 44 42  1  0  0  0  0
 45 47  1  0  0  0  0
 46 47  2  0  0  0  0
 48 46  1  0  0  0  0
 49 48  1  0  0  0  0
M  END
>  <MODEL>
8

>  <REMARK>
 VINA RESULT:      -7.1      2.635      6.494
  Name = 
  13 active torsions:
  status: ('A' for Active; 'I' for Inactive)
    1  A    between atoms: C_1  and  O_9
    2  A    between atoms: C_2  and  O_15
    3  A    between atoms: C_3  and  N_29
    4  A    between atoms: C_5  and  C_22
    5  A    between atoms: C_5  and  C_38
    6  A    between atoms: C_6  and  N_17
    7  A    between atoms: C_6  and  C_33
    8  A    between atoms: O_9  and  C_49
    9  A    between atoms: O_15  and  C_31
   10  A    between atoms: N_17  and  C_32
   11  A    between atoms: C_25  and  C_38
   12  A    between atoms: C_31  and  C_34
   13  A    between atoms: C_32  and  C_36
                            x       y       z     vdW  Elec       q    Type
                         _______ _______ _______ _____ _____    ______ ____

>  <TORSDO>
F 13

$$$$
=
 OpenBabel11032419353D

 49 56  0  0  1  0  0  0  0  0999 V2000
  190.6250  176.8690  146.1760 C   0  0  0  0  0  0  0  0  0  0  0  0
  189.5840  176.4750  140.6840 O   0  0  0  0  0  0  0  0  0  0  0  0
  186.8090  178.1110  144.5840 C   0  0  0  0  0  0  0  0  0  0  0  0
  189.0140  177.1210  142.8750 C   0  0  0  0  0  0  0  0  0  0  0  0
  183.8830  179.6750  142.9020 C   0  0  0  0  0  2  0  0  0  0  0  0
  190.3640  176.4600  144.7460 C   0  0  0  0  0  2  0  0  0  0  0  0
  185.8280  178.6220  145.5690 C   0  0  0  0  0  0  0  0  0  0  0  0
  189.4270  176.8800  139.3770 N   0  0  0  0  0  2  0  0  0  0  0  0
  186.6500  178.0300  140.9890 O   0  0  0  0  0  0  0  0  0  0  0  0
  185.8940  178.2350  142.1540 C   0  0  0  0  0  0  0  0  0  0  0  0
  184.3830  178.4420  142.1030 C   0  0  2  0  0  3  0  0  0  0  0  0
  188.8680  177.2200  141.5800 C   0  0  0  0  0  0  0  0  0  0  0  0
  185.9730  178.2000  146.9940 C   0  0  0  0  0  2  0  0  0  0  0  0
  187.8840  177.1580  145.0670 C   0  0  1  0  0  3  0  0  0  0  0  0
  188.4800  178.0090  139.4280 C   0  0  1  0  0  3  0  0  0  0  0  0
  187.3860  177.9880  147.3240 N   0  0  0  0  0  0  0  0  0  0  0  0
  184.6810  179.0670  145.1100 C   0  0  0  0  0  0  0  0  0  0  0  0
  186.4410  178.1480  143.3290 C   0  0  0  0  0  0  0  0  0  0  0  0
  189.1170  177.0670  144.1810 C   0  0  0  0  0  0  0  0  0  0  0  0
  188.0630  178.2460  140.8830 C   0  0  1  0  0  3  0  0  0  0  0  0
  183.6630  179.4300  144.3780 C   0  0  0  0  0  3  0  0  0  0  0  0
  189.6470  177.3210  146.9640 C   0  0  0  0  0  3  0  0  0  0  0  0
  188.2640  177.4970  146.4960 C   0  0  0  0  0  0  0  0  0  0  0  0
  183.8140  178.4960  140.6800 C   0  0  1  0  0  3  0  0  0  0  0  0
  184.7120  179.1260  139.8140 O   0  0  0  0  0  1  0  0  0  0  0  0
  183.4530  177.1200  140.1340 C   0  0  0  0  0  2  0  0  0  0  0  0
  181.5100  175.6000  139.4540 C   0  0  2  0  0  3  0  0  0  0  0  0
  181.9440  176.8670  140.1850 C   0  0  2  0  0  3  0  0  0  0  0  0
  182.5800  174.9930  138.7610 O   0  0  0  0  0  0  0  0  0  0  0  0
  181.9540  176.9250  137.5390 C   0  0  2  0  0  3  0  0  0  0  0  0
  182.6400  175.5840  137.4870 C   0  0  0  0  0  2  0  0  0  0  0  0
  182.9050  178.0170  137.4420 N   0  0  0  0  0  1  0  0  0  0  0  0
  181.1940  176.9540  138.8460 C   0  0  1  0  0  3  0  0  0  0  0  0
  191.9030  176.7470  146.7250 O   0  0  0  0  0  0  0  0  0  0  0  0
  192.1630  175.9830  147.8950 C   0  0  0  0  0  2  0  0  0  0  0  0
  194.2250  176.4450  149.2150 O   0  0  0  0  0  0  0  0  0  0  0  0
  192.4260  177.8640  149.3360 O   0  0  0  0  0  1  0  0  0  0  0  0
  192.9310  176.8110  148.8650 C   0  0  0  0  0  0  0  0  0  0  0  0
  189.1290  179.2650  138.8810 C   0  0  0  0  0  2  0  0  0  0  0  0
  188.8340  179.4060  137.4660 N   0  0  0  0  0  2  0  0  0  0  0  0
  187.6370  178.6270  137.2060 C   0  0  0  0  0  2  0  0  0  0  0  0
  187.6710  176.4400  136.0580 C   0  0  1  0  0  3  0  0  0  0  0  0
  189.0150  177.0940  135.8150 C   0  0  0  0  0  2  0  0  0  0  0  0
  187.7560  177.9400  135.8560 C   0  0  2  0  0  3  0  0  0  0  0  0
  187.2230  175.8340  134.8600 O   0  0  0  0  0  0  0  0  0  0  0  0
  186.5910  173.5740  134.9410 N   0  0  0  0  0  0  0  0  0  0  0  0
  187.4670  174.4820  134.6280 C   0  0  0  0  0  3  0  0  0  0  0  0
  185.3040  173.8910  135.5490 C   0  0  0  0  0  2  0  0  0  0  0  0
  185.1830  173.2160  136.9060 C   0  0  0  0  0  1  0  0  0  0  0  0
  1 34  1  0  0  0  0
  1 22  2  0  0  0  0
  2 12  1  0  0  0  0
  3 14  1  0  0  0  0
  3  7  1  0  0  0  0
  4 19  2  0  0  0  0
  5 21  1  0  0  0  0
  6  1  1  0  0  0  0
  7 13  1  0  0  0  0
  8 15  1  0  0  0  0
  8  2  1  0  0  0  0
  9 10  1  0  0  0  0
 10 18  2  0  0  0  0
 11 24  1  6  0  0  0
 11 10  1  0  0  0  0
 11  5  1  0  0  0  0
 12  4  2  0  0  0  0
 13 16  1  0  0  0  0
 14 19  1  6  0  0  0
 14 23  1  0  0  0  0
 15 39  1  1  0  0  0
 15 20  1  0  0  0  0
 17  7  2  0  0  0  0
 18  3  2  0  0  0  0
 19  6  1  0  0  0  0
 20  9  1  6  0  0  0
 20 12  1  0  0  0  0
 21 17  2  0  0  0  0
 23 22  1  0  0  0  0
 23 16  2  0  0  0  0
 24 25  1  6  0  0  0
 26 24  1  0  0  0  0
 27 29  1  6  0  0  0
 27 28  1  0  0  0  0
 28 26  1  6  0  0  0
 30 32  1  1  0  0  0
 30 33  1  0  0  0  0
 31 30  1  0  0  0  0
 31 29  1  0  0  0  0
 33 27  1  0  0  0  0
 33 28  1  0  0  0  0
 34 35  1  0  0  0  0
 35 38  1  0  0  0  0
 38 36  2  0  0  0  0
 38 37  1  0  0  0  0
 40 39  1  0  0  0  0
 41 40  1  0  0  0  0
 43 44  1  0  0  0  0
 43 42  1  0  0  0  0
 44 42  1  0  0  0  0
 44 41  1  0  0  0  0
 45 42  1  0  0  0  0
 46 48  1  0  0  0  0
 47 45  1  0  0  0  0
 47 46  2  0  0  0  0
 48 49  1  0  0  0  0
M  END
>  <MODEL>
9

>  <REMARK>
 VINA RESULT:      -7.1      1.720      2.279
  Name = 
  13 active torsions:
  status: ('A' for Active; 'I' for Inactive)
    1  A    between atoms: C_1  and  O_9
    2  A    between atoms: C_2  and  O_15
    3  A    between atoms: C_3  and  N_29
    4  A    between atoms: C_5  and  C_22
    5  A    between atoms: C_5  and  C_38
    6  A    between atoms: C_6  and  N_17
    7  A    between atoms: C_6  and  C_33
    8  A    between atoms: O_9  and  C_49
    9  A    between atoms: O_15  and  C_31
   10  A    between atoms: N_17  and  C_32
   11  A    between atoms: C_25  and  C_38
   12  A    between atoms: C_31  and  C_34
   13  A    between atoms: C_32  and  C_36
                            x       y       z     vdW  Elec       q    Type
                         _______ _______ _______ _____ _____    ______ ____

>  <TORSDO>
F 13

$$$$
