=
 OpenBabel11042411493D

 53 58  0  0  1  0  0  0  0  0999 V2000
  182.1070  176.3810  138.6310 C   0  0  1  0  0  3  0  0  0  0  0  0
  186.7580  176.2750  134.5940 C   0  0  0  0  0  2  0  0  0  0  0  0
  181.4960  176.2570  137.2420 C   0  0  0  0  0  0  0  0  0  0  0  0
  183.8970  173.8100  135.4340 C   0  0  2  0  0  3  0  0  0  0  0  0
  183.5140  176.2300  138.6880 O   0  0  0  0  0  0  0  0  0  0  0  0
  180.4050  176.8400  136.9950 O   0  0  0  0  0  0  0  0  0  0  0  0
  185.8980  175.3710  135.4590 C   0  0  0  0  0  2  0  0  0  0  0  0
  184.8080  174.7300  134.6150 C   0  0  0  0  0  2  0  0  0  0  0  0
  185.2650  177.8650  138.7280 C   0  0  0  0  0  2  0  0  0  0  0  0
  181.6490  175.4910  135.0110 O   0  0  0  0  0  0  0  0  0  0  0  0
  187.7750  178.2310  135.8220 C   0  0  0  0  0  2  0  0  0  0  0  0
  187.9480  176.7690  135.4120 C   0  0  2  0  0  3  0  0  0  0  0  0
  184.1150  177.2600  137.9440 C   0  0  0  0  0  2  0  0  0  0  0  0
  186.5250  178.4740  136.6600 C   0  0  0  0  0  2  0  0  0  0  0  0
  183.1960  174.5510  136.4760 N   0  0  0  0  0  2  0  0  0  0  0  0
  182.1060  175.4270  136.1850 C   0  0  0  0  0  0  0  0  0  0  0  0
  186.5720  177.7010  137.9680 C   0  0  0  0  0  2  0  0  0  0  0  0
  181.6910  178.8840  141.4860 C   0  0  0  0  0  0  0  0  0  0  0  0
  180.7470  178.5030  138.8810 C   0  0  0  0  0  3  0  0  0  0  0  0
  180.3450  179.6240  139.6120 C   0  0  0  0  0  3  0  0  0  0  0  0
  182.9750  176.8690  141.2950 F   0  0  0  0  0  0  0  0  0  0  0  0
  180.8200  179.8150  140.9100 C   0  0  0  0  0  3  0  0  0  0  0  0
  181.6170  177.5560  139.4480 C   0  0  0  0  0  0  0  0  0  0  0  0
  182.0970  177.7550  140.7520 C   0  0  0  0  0  0  0  0  0  0  0  0
  182.2310  179.1420  142.8510 C   0  0  0  0  0  2  0  0  0  0  0  0
  183.6390  179.4930  142.7590 N   0  0  0  0  0  2  0  0  0  0  0  0
  185.1620  180.4240  144.7200 O   0  0  0  0  0  0  0  0  0  0  0  0
  183.2630  178.9950  145.3210 O   0  0  0  0  0  0  0  0  0  0  0  0
  184.3540  179.2220  144.3120 S   0  0  0  0  0  0  0  0  0  0  0  0
  185.4060  177.7840  144.2470 C   0  0  0  0  0  2  0  0  0  0  0  0
  187.9380  177.8360  146.9610 C   0  0  0  0  0  2  0  0  0  0  0  0
  187.7010  177.3590  144.1020 C   0  0  0  0  0  2  0  0  0  0  0  0
  186.6840  178.0750  144.8730 N   0  0  0  0  0  0  0  0  0  0  0  0
  189.0510  177.4670  144.7630 C   0  0  0  0  0  3  0  0  0  0  0  0
  189.1540  177.6460  146.0900 C   0  0  0  0  0  3  0  0  0  0  0  0
  186.6490  177.4870  146.2120 C   0  0  0  0  0  2  0  0  0  0  0  0
  182.5440  171.8100  136.8670 O   0  0  0  0  0  1  0  0  0  0  0  0
  184.6920  172.5860  137.5400 C   0  0  0  0  0  2  0  0  0  0  0  0
  184.6490  172.6180  136.0310 C   0  0  1  0  0  0  0  0  0  0  0  0
  183.9060  171.5230  136.7780 C   0  0  2  0  0  3  0  0  0  0  0  0
  185.8570  172.2290  135.4510 O   0  0  0  0  0  1  0  0  0  0  0  0
  189.2290  176.6520  134.6040 C   0  0  0  0  0  2  0  0  0  0  0  0
  192.9750  174.7300  137.4610 C   0  0  0  0  0  0  0  0  0  0  0  0
  189.7410  174.8090  136.0530 O   0  0  0  0  0  0  0  0  0  0  0  0
  194.0520  174.5260  137.9960 O   0  0  0  0  0  0  0  0  0  0  0  0
  191.5640  176.4370  136.3230 C   0  0  0  0  0  2  0  0  0  0  0  0
  191.8780  174.1030  135.4080 O   0  0  0  0  0  0  0  0  0  0  0  0
  192.2940  173.6390  136.6750 C   0  0  0  0  0  2  0  0  0  0  0  0
  192.2720  176.0450  137.6280 C   0  0  1  0  0  3  0  0  0  0  0  0
  191.0110  175.2000  135.5970 C   0  0  1  0  0  0  0  0  0  0  0  0
  189.8200  175.2510  134.7120 C   0  0  2  0  0  3  0  0  0  0  0  0
  191.2910  175.9550  138.7560 C   0  0  0  0  0  3  0  0  0  0  0  0
  190.4580  176.8290  138.9290 O   0  0  0  0  0  0  0  0  0  0  0  0
  1  5  1  0  0  0  0
  1 23  1  6  0  0  0
  2 12  1  0  0  0  0
  2  7  1  0  0  0  0
  3  1  1  0  0  0  0
  4  8  1  1  0  0  0
  4 39  1  0  0  0  0
  4 15  1  0  0  0  0
  6  3  2  0  0  0  0
  8  7  1  0  0  0  0
 10 16  2  0  0  0  0
 11 14  1  0  0  0  0
 12 42  1  6  0  0  0
 12 11  1  0  0  0  0
 13  5  1  0  0  0  0
 13  9  1  0  0  0  0
 14 17  1  0  0  0  0
 16 15  1  0  0  0  0
 16  3  1  0  0  0  0
 17  9  1  0  0  0  0
 18 25  1  0  0  0  0
 19 23  2  0  0  0  0
 19 20  1  0  0  0  0
 20 22  2  0  0  0  0
 22 18  1  0  0  0  0
 23 24  1  0  0  0  0
 24 21  1  0  0  0  0
 24 18  2  0  0  0  0
 26 25  1  0  0  0  0
 26 29  1  0  0  0  0
 29 27  2  0  0  0  0
 29 28  2  0  0  0  0
 30 29  1  0  0  0  0
 30 33  1  0  0  0  0
 32 34  1  0  0  0  0
 32 33  1  0  0  0  0
 33 36  1  0  0  0  0
 34 35  2  0  0  0  0
 35 31  1  0  0  0  0
 36 31  1  0  0  0  0
 39 41  1  6  0  0  0
 39 40  1  0  0  0  0
 39 38  1  0  0  0  0
 40 37  1  1  0  0  0
 40 38  1  0  0  0  0
 43 49  1  0  0  0  0
 43 45  2  0  0  0  0
 46 49  1  0  0  0  0
 47 50  1  0  0  0  0
 47 48  1  0  0  0  0
 48 43  1  0  0  0  0
 49 52  1  1  0  0  0
 50 44  1  0  0  0  0
 50 46  1  1  0  0  0
 51 42  1  1  0  0  0
 51 50  1  0  0  0  0
 51 44  1  0  0  0  0
 52 53  2  0  0  0  0
M  END
>  <MODEL>
1

>  <REMARK>
 VINA RESULT:      -6.7      0.000      0.000
  Name = 
  10 active torsions:
  status: ('A' for Active; 'I' for Inactive)
    1  A    between atoms: C_2  and  C_51
    2  A    between atoms: C_3  and  C_52
    3  A    between atoms: C_11  and  C_28
    4  A    between atoms: C_15  and  C_39
    5  A    between atoms: N_27  and  C_42
    6  A    between atoms: N_31  and  S_40
    7  A    between atoms: N_31  and  C_51
    8  A    between atoms: C_33  and  C_46
    9  A    between atoms: C_35  and  C_46
   10  A    between atoms: S_40  and  C_42
                            x       y       z     vdW  Elec       q    Type
                         _______ _______ _______ _____ _____    ______ ____

>  <TORSDO>
F 10

$$$$
=
 OpenBabel11042411493D

 53 58  0  0  1  0  0  0  0  0999 V2000
  184.7360  177.8670  143.7140 C   0  0  1  0  0  3  0  0  0  0  0  0
  186.4310  178.8300  137.8700 C   0  0  0  0  0  2  0  0  0  0  0  0
  183.8680  178.9930  143.1710 C   0  0  0  0  0  0  0  0  0  0  0  0
  183.0890  177.8480  139.5530 C   0  0  2  0  0  3  0  0  0  0  0  0
  185.5270  177.1960  142.7490 O   0  0  0  0  0  0  0  0  0  0  0  0
  183.5350  179.9380  143.9390 O   0  0  0  0  0  0  0  0  0  0  0  0
  185.4820  178.0090  138.7260 C   0  0  0  0  0  2  0  0  0  0  0  0
  184.0930  178.6270  138.6980 C   0  0  0  0  0  2  0  0  0  0  0  0
  187.8230  177.4880  142.1260 C   0  0  0  0  0  2  0  0  0  0  0  0
  182.7740  180.0240  141.3470 O   0  0  0  0  0  0  0  0  0  0  0  0
  188.8360  178.7710  138.6330 C   0  0  0  0  0  2  0  0  0  0  0  0
  187.7690  178.1040  137.7650 C   0  0  2  0  0  3  0  0  0  0  0  0
  186.4390  178.1090  142.1900 C   0  0  0  0  0  2  0  0  0  0  0  0
  188.4660  178.8140  140.1100 C   0  0  0  0  0  2  0  0  0  0  0  0
  183.4820  177.8410  140.9560 N   0  0  0  0  0  2  0  0  0  0  0  0
  183.3490  178.9920  141.7900 C   0  0  0  0  0  0  0  0  0  0  0  0
  188.3080  177.4160  140.6860 C   0  0  0  0  0  2  0  0  0  0  0  0
  187.3110  177.6960  146.5300 C   0  0  0  0  0  0  0  0  0  0  0  0
  185.2660  179.3950  145.6640 C   0  0  0  0  0  3  0  0  0  0  0  0
  186.0260  179.7350  146.7850 C   0  0  0  0  0  3  0  0  0  0  0  0
  186.8250  176.2140  144.7110 F   0  0  0  0  0  0  0  0  0  0  0  0
  187.0490  178.8880  147.2150 C   0  0  0  0  0  3  0  0  0  0  0  0
  185.5130  178.1990  144.9690 C   0  0  0  0  0  0  0  0  0  0  0  0
  186.5470  177.3520  145.4010 C   0  0  0  0  0  0  0  0  0  0  0  0
  188.4470  176.8400  146.9740 C   0  0  0  0  0  2  0  0  0  0  0  0
  189.6850  177.6010  146.9070 N   0  0  0  0  0  2  0  0  0  0  0  0
  191.9600  177.1900  148.2050 O   0  0  0  0  0  0  0  0  0  0  0  0
  190.4360  175.2900  147.9300 O   0  0  0  0  0  0  0  0  0  0  0  0
  190.9890  176.5220  147.2700 S   0  0  0  0  0  0  0  0  0  0  0  0
  191.8250  176.0610  145.7640 C   0  0  0  0  0  2  0  0  0  0  0  0
  191.3160  179.0660  143.6450 C   0  0  0  0  0  2  0  0  0  0  0  0
  191.8150  176.2090  143.4310 C   0  0  0  0  0  2  0  0  0  0  0  0
  191.3040  176.8340  144.6510 N   0  0  0  0  0  0  0  0  0  0  0  0
  191.4600  177.0290  142.2170 C   0  0  0  0  0  3  0  0  0  0  0  0
  191.2720  178.3550  142.3150 C   0  0  0  0  0  3  0  0  0  0  0  0
  191.8940  178.1690  144.7430 C   0  0  0  0  0  2  0  0  0  0  0  0
  180.6140  177.0520  138.4920 O   0  0  0  0  0  1  0  0  0  0  0  0
  181.9040  175.5980  139.8670 C   0  0  0  0  0  2  0  0  0  0  0  0
  182.8670  176.4210  139.0450 C   0  0  1  0  0  0  0  0  0  0  0  0
  181.5350  176.0060  138.4430 C   0  0  2  0  0  3  0  0  0  0  0  0
  183.9710  175.6830  138.6150 O   0  0  0  0  0  1  0  0  0  0  0  0
  188.2590  178.1040  136.3270 C   0  0  0  0  0  2  0  0  0  0  0  0
  191.2880  174.0830  135.5890 C   0  0  0  0  0  0  0  0  0  0  0  0
  188.3250  175.7190  136.5860 O   0  0  0  0  0  0  0  0  0  0  0  0
  192.2130  173.3600  135.2580 O   0  0  0  0  0  0  0  0  0  0  0  0
  190.6250  176.4320  136.0820 C   0  0  0  0  0  2  0  0  0  0  0  0
  189.2570  174.9170  134.5940 O   0  0  0  0  0  0  0  0  0  0  0  0
  189.8820  173.7770  135.1440 C   0  0  0  0  0  2  0  0  0  0  0  0
  191.5180  175.2550  136.4980 C   0  0  1  0  0  3  0  0  0  0  0  0
  189.2640  175.9410  135.5640 C   0  0  1  0  0  0  0  0  0  0  0  0
  188.0230  176.7510  135.6670 C   0  0  2  0  0  3  0  0  0  0  0  0
  191.2430  174.8560  137.9160 C   0  0  0  0  0  3  0  0  0  0  0  0
  190.7870  175.6600  138.7120 O   0  0  0  0  0  0  0  0  0  0  0  0
  1 23  1  1  0  0  0
  2  7  1  0  0  0  0
  3  1  1  0  0  0  0
  3  6  2  0  0  0  0
  4  8  1  6  0  0  0
  4 15  1  0  0  0  0
  5  1  1  0  0  0  0
  8  7  1  0  0  0  0
  9 13  1  0  0  0  0
 10 16  2  0  0  0  0
 11 14  1  0  0  0  0
 12 42  1  6  0  0  0
 12  2  1  0  0  0  0
 12 11  1  0  0  0  0
 13  5  1  0  0  0  0
 14 17  1  0  0  0  0
 15 16  1  0  0  0  0
 16  3  1  0  0  0  0
 17  9  1  0  0  0  0
 18 25  1  0  0  0  0
 18 22  1  0  0  0  0
 19 20  1  0  0  0  0
 20 22  2  0  0  0  0
 21 24  1  0  0  0  0
 23 24  1  0  0  0  0
 23 19  2  0  0  0  0
 24 18  2  0  0  0  0
 26 25  1  0  0  0  0
 26 29  1  0  0  0  0
 29 28  2  0  0  0  0
 29 27  2  0  0  0  0
 30 29  1  0  0  0  0
 31 36  1  0  0  0  0
 32 33  1  0  0  0  0
 33 36  1  0  0  0  0
 33 30  1  0  0  0  0
 34 35  2  0  0  0  0
 34 32  1  0  0  0  0
 35 31  1  0  0  0  0
 39 41  1  6  0  0  0
 39  4  1  0  0  0  0
 39 38  1  0  0  0  0
 40 37  1  1  0  0  0
 40 39  1  0  0  0  0
 40 38  1  0  0  0  0
 43 49  1  0  0  0  0
 45 43  2  0  0  0  0
 46 49  1  0  0  0  0
 47 48  1  0  0  0  0
 47 50  1  0  0  0  0
 48 43  1  0  0  0  0
 49 52  1  1  0  0  0
 50 51  1  0  0  0  0
 50 46  1  1  0  0  0
 50 44  1  0  0  0  0
 51 42  1  1  0  0  0
 51 44  1  0  0  0  0
 52 53  2  0  0  0  0
M  END
>  <MODEL>
2

>  <REMARK>
 VINA RESULT:      -6.3      2.907      5.481
  Name = 
  10 active torsions:
  status: ('A' for Active; 'I' for Inactive)
    1  A    between atoms: C_2  and  C_51
    2  A    between atoms: C_3  and  C_52
    3  A    between atoms: C_11  and  C_28
    4  A    between atoms: C_15  and  C_39
    5  A    between atoms: N_27  and  C_42
    6  A    between atoms: N_31  and  S_40
    7  A    between atoms: N_31  and  C_51
    8  A    between atoms: C_33  and  C_46
    9  A    between atoms: C_35  and  C_46
   10  A    between atoms: S_40  and  C_42
                            x       y       z     vdW  Elec       q    Type
                         _______ _______ _______ _____ _____    ______ ____

>  <TORSDO>
F 10

$$$$
=
 OpenBabel11042411493D

 53 58  0  0  1  0  0  0  0  0999 V2000
  184.3920  177.9170  141.8760 C   0  0  1  0  0  3  0  0  0  0  0  0
  187.7480  178.0690  136.7130 C   0  0  0  0  0  2  0  0  0  0  0  0
  183.6490  178.7960  140.8810 C   0  0  0  0  0  0  0  0  0  0  0  0
  184.1380  176.9340  137.5180 C   0  0  2  0  0  3  0  0  0  0  0  0
  185.4970  177.2060  141.3480 O   0  0  0  0  0  0  0  0  0  0  0  0
  183.0160  179.8030  141.3020 O   0  0  0  0  0  0  0  0  0  0  0  0
  186.6490  177.2850  137.4080 C   0  0  0  0  0  2  0  0  0  0  0  0
  185.2930  177.6850  136.8480 C   0  0  0  0  0  2  0  0  0  0  0  0
  187.8410  177.7060  141.3730 C   0  0  0  0  0  2  0  0  0  0  0  0
  183.1010  179.3240  138.6430 O   0  0  0  0  0  0  0  0  0  0  0  0
  189.7890  178.4860  138.1370 C   0  0  0  0  0  2  0  0  0  0  0  0
  189.1060  177.5330  137.1570 C   0  0  2  0  0  3  0  0  0  0  0  0
  186.4610  178.1260  140.8990 C   0  0  0  0  0  2  0  0  0  0  0  0
  188.9730  178.7350  139.3990 C   0  0  0  0  0  2  0  0  0  0  0  0
  184.0710  177.2290  138.9440 N   0  0  0  0  0  2  0  0  0  0  0  0
  183.5910  178.4780  139.4410 C   0  0  0  0  0  0  0  0  0  0  0  0
  188.7570  177.4520  140.1850 C   0  0  0  0  0  2  0  0  0  0  0  0
  185.8550  178.5390  145.3500 C   0  0  0  0  0  0  0  0  0  0  0  0
  184.2720  179.8800  143.4740 C   0  0  0  0  0  3  0  0  0  0  0  0
  184.6170  180.5090  144.6720 C   0  0  0  0  0  3  0  0  0  0  0  0
  185.9740  176.6540  143.8760 F   0  0  0  0  0  0  0  0  0  0  0  0
  185.4100  179.8410  145.6060 C   0  0  0  0  0  3  0  0  0  0  0  0
  184.7060  178.5700  143.2040 C   0  0  0  0  0  0  0  0  0  0  0  0
  185.5100  177.9030  144.1440 C   0  0  0  0  0  0  0  0  0  0  0  0
  186.7500  177.8710  146.3360 C   0  0  0  0  0  2  0  0  0  0  0  0
  188.1380  178.1370  145.9930 N   0  0  0  0  0  2  0  0  0  0  0  0
  189.3820  178.4490  148.3130 O   0  0  0  0  0  0  0  0  0  0  0  0
  188.4220  176.2490  147.8120 O   0  0  0  0  0  0  0  0  0  0  0  0
  189.1320  177.4380  147.2260 S   0  0  0  0  0  0  0  0  0  0  0  0
  190.6830  176.9130  146.5230 C   0  0  0  0  0  2  0  0  0  0  0  0
  191.3090  178.7110  143.3370 C   0  0  0  0  0  2  0  0  0  0  0  0
  191.4820  176.0520  144.5010 C   0  0  0  0  0  2  0  0  0  0  0  0
  190.6730  177.1220  145.0860 N   0  0  0  0  0  0  0  0  0  0  0  0
  191.6660  176.2660  143.0210 C   0  0  0  0  0  3  0  0  0  0  0  0
  191.6270  177.5010  142.4950 C   0  0  0  0  0  3  0  0  0  0  0  0
  191.3620  178.3870  144.8320 C   0  0  0  0  0  2  0  0  0  0  0  0
  182.2610  175.6390  135.8800 O   0  0  0  0  0  1  0  0  0  0  0  0
  183.0650  174.6360  137.8840 C   0  0  0  0  0  2  0  0  0  0  0  0
  184.2030  175.4230  137.2800 C   0  0  1  0  0  0  0  0  0  0  0  0
  183.2030  174.7340  136.3670 C   0  0  2  0  0  3  0  0  0  0  0  0
  185.4330  174.7760  137.4130 O   0  0  0  0  0  1  0  0  0  0  0  0
  190.0190  177.3500  135.9580 C   0  0  0  0  0  2  0  0  0  0  0  0
  193.9850  174.1660  135.7820 C   0  0  0  0  0  0  0  0  0  0  0  0
  190.7120  175.1590  136.6490 O   0  0  0  0  0  0  0  0  0  0  0  0
  195.0620  173.6510  135.5320 O   0  0  0  0  0  0  0  0  0  0  0  0
  192.7370  176.3200  135.8730 C   0  0  0  0  0  2  0  0  0  0  0  0
  191.7930  174.2450  134.7830 O   0  0  0  0  0  0  0  0  0  0  0  0
  192.7020  173.4320  135.4940 C   0  0  0  0  0  2  0  0  0  0  0  0
  193.9130  175.5130  136.4420 C   0  0  1  0  0  3  0  0  0  0  0  0
  191.5450  175.4070  135.5440 C   0  0  1  0  0  0  0  0  0  0  0  0
  190.1370  175.8790  135.5760 C   0  0  2  0  0  3  0  0  0  0  0  0
  193.7720  175.3430  137.9240 C   0  0  0  0  0  3  0  0  0  0  0  0
  194.7430  175.4330  138.6560 O   0  0  0  0  0  0  0  0  0  0  0  0
  1 23  1  1  0  0  0
  2 12  1  0  0  0  0
  2  7  1  0  0  0  0
  3  6  2  0  0  0  0
  3  1  1  0  0  0  0
  4  8  1  1  0  0  0
  4 15  1  0  0  0  0
  5  1  1  0  0  0  0
  8  7  1  0  0  0  0
 10 16  2  0  0  0  0
 11 14  1  0  0  0  0
 12 42  1  6  0  0  0
 12 11  1  0  0  0  0
 13  5  1  0  0  0  0
 13  9  1  0  0  0  0
 14 17  1  0  0  0  0
 15 16  1  0  0  0  0
 16  3  1  0  0  0  0
 17  9  1  0  0  0  0
 18 22  1  0  0  0  0
 18 25  1  0  0  0  0
 19 20  1  0  0  0  0
 20 22  2  0  0  0  0
 21 24  1  0  0  0  0
 23 19  2  0  0  0  0
 23 24  1  0  0  0  0
 24 18  2  0  0  0  0
 26 25  1  0  0  0  0
 26 29  1  0  0  0  0
 29 28  2  0  0  0  0
 29 27  2  0  0  0  0
 30 29  1  0  0  0  0
 31 36  1  0  0  0  0
 32 33  1  0  0  0  0
 33 30  1  0  0  0  0
 34 32  1  0  0  0  0
 35 34  2  0  0  0  0
 35 31  1  0  0  0  0
 36 33  1  0  0  0  0
 39 41  1  1  0  0  0
 39  4  1  0  0  0  0
 39 38  1  0  0  0  0
 40 37  1  1  0  0  0
 40 39  1  0  0  0  0
 40 38  1  0  0  0  0
 43 49  1  0  0  0  0
 45 43  2  0  0  0  0
 46 49  1  0  0  0  0
 47 48  1  0  0  0  0
 47 50  1  0  0  0  0
 48 43  1  0  0  0  0
 49 52  1  1  0  0  0
 50 51  1  0  0  0  0
 50 46  1  1  0  0  0
 50 44  1  0  0  0  0
 51 42  1  1  0  0  0
 51 44  1  0  0  0  0
 52 53  2  0  0  0  0
M  END
>  <MODEL>
3

>  <REMARK>
 VINA RESULT:      -5.5      2.665      4.157
  Name = 
  10 active torsions:
  status: ('A' for Active; 'I' for Inactive)
    1  A    between atoms: C_2  and  C_51
    2  A    between atoms: C_3  and  C_52
    3  A    between atoms: C_11  and  C_28
    4  A    between atoms: C_15  and  C_39
    5  A    between atoms: N_27  and  C_42
    6  A    between atoms: N_31  and  S_40
    7  A    between atoms: N_31  and  C_51
    8  A    between atoms: C_33  and  C_46
    9  A    between atoms: C_35  and  C_46
   10  A    between atoms: S_40  and  C_42
                            x       y       z     vdW  Elec       q    Type
                         _______ _______ _______ _____ _____    ______ ____

>  <TORSDO>
F 10

$$$$
=
 OpenBabel11042411493D

 53 58  0  0  1  0  0  0  0  0999 V2000
  189.8770  174.4000  136.5820 C   0  0  1  0  0  3  0  0  0  0  0  0
  184.2560  176.8470  137.1930 C   0  0  0  0  0  2  0  0  0  0  0  0
  189.8400  175.6640  135.7350 C   0  0  0  0  0  0  0  0  0  0  0  0
  187.8270  178.1430  137.9280 C   0  0  2  0  0  3  0  0  0  0  0  0
  188.7600  174.2100  137.4320 O   0  0  0  0  0  0  0  0  0  0  0  0
  190.4700  175.6900  134.6410 O   0  0  0  0  0  0  0  0  0  0  0  0
  185.6440  176.8550  137.8110 C   0  0  0  0  0  2  0  0  0  0  0  0
  186.4110  178.0820  137.3460 C   0  0  0  0  0  2  0  0  0  0  0  0
  186.7700  172.9060  137.1410 C   0  0  0  0  0  2  0  0  0  0  0  0
  189.0060  177.8440  135.3640 O   0  0  0  0  0  0  0  0  0  0  0  0
  183.2920  174.5430  136.8310 C   0  0  0  0  0  2  0  0  0  0  0  0
  183.4410  175.7110  137.8040 C   0  0  2  0  0  3  0  0  0  0  0  0
  187.6030  174.0750  136.6450 C   0  0  0  0  0  2  0  0  0  0  0  0
  184.6270  173.9510  136.3970 C   0  0  0  0  0  2  0  0  0  0  0  0
  188.6250  177.0010  137.5010 N   0  0  0  0  0  2  0  0  0  0  0  0
  189.1400  176.8860  136.1740 C   0  0  0  0  0  0  0  0  0  0  0  0
  185.3950  173.3810  137.5800 C   0  0  0  0  0  2  0  0  0  0  0  0
  191.9540  171.5300  135.1540 C   0  0  0  0  0  0  0  0  0  0  0  0
  189.2720  172.3130  135.2780 C   0  0  0  0  0  3  0  0  0  0  0  0
  189.6200  171.1150  134.6520 C   0  0  0  0  0  3  0  0  0  0  0  0
  192.5680  173.5030  136.3670 F   0  0  0  0  0  0  0  0  0  0  0  0
  190.9580  170.7220  134.5940 C   0  0  0  0  0  3  0  0  0  0  0  0
  190.2610  173.1380  135.8410 C   0  0  0  0  0  0  0  0  0  0  0  0
  191.6060  172.7370  135.7860 C   0  0  0  0  0  0  0  0  0  0  0  0
  193.3670  171.0590  135.1310 C   0  0  0  0  0  2  0  0  0  0  0  0
  193.5980  170.1570  136.2490 N   0  0  0  0  0  2  0  0  0  0  0  0
  195.4020  169.6740  138.1310 O   0  0  0  0  0  0  0  0  0  0  0  0
  196.2080  170.2690  135.8930 O   0  0  0  0  0  0  0  0  0  0  0  0
  195.1470  170.5350  136.9230 S   0  0  0  0  0  0  0  0  0  0  0  0
  195.1950  172.2550  137.3910 C   0  0  0  0  0  2  0  0  0  0  0  0
  196.8430  174.8730  135.3380 C   0  0  0  0  0  2  0  0  0  0  0  0
  197.2610  173.2920  137.7430 C   0  0  0  0  0  2  0  0  0  0  0  0
  196.2910  172.9230  136.7120 N   0  0  0  0  0  0  0  0  0  0  0  0
  198.3690  174.1330  137.1630 C   0  0  0  0  0  3  0  0  0  0  0  0
  198.1580  174.8930  136.0770 C   0  0  0  0  0  3  0  0  0  0  0  0
  195.7540  174.1610  136.1470 C   0  0  0  0  0  2  0  0  0  0  0  0
  190.2320  178.2480  139.3730 O   0  0  0  0  0  1  0  0  0  0  0  0
  188.3430  177.0490  140.1870 C   0  0  0  0  0  2  0  0  0  0  0  0
  187.8290  178.2650  139.4550 C   0  0  1  0  0  0  0  0  0  0  0  0
  189.1350  178.3530  140.2270 C   0  0  2  0  0  3  0  0  0  0  0  0
  186.7250  178.8420  140.0830 O   0  0  0  0  0  1  0  0  0  0  0  0
  182.0510  176.2000  138.1750 C   0  0  0  0  0  2  0  0  0  0  0  0
  180.1080  180.1720  140.6910 C   0  0  0  0  0  0  0  0  0  0  0  0
  182.5150  178.4850  138.7390 O   0  0  0  0  0  0  0  0  0  0  0  0
  179.3690  180.9110  141.3200 O   0  0  0  0  0  0  0  0  0  0  0  0
  180.6000  177.7980  140.1230 C   0  0  0  0  0  2  0  0  0  0  0  0
  180.5000  179.6220  138.3780 O   0  0  0  0  0  0  0  0  0  0  0  0
  180.6820  180.6110  139.3690 C   0  0  0  0  0  2  0  0  0  0  0  0
  180.5160  178.8390  141.2480 C   0  0  1  0  0  3  0  0  0  0  0  0
  181.1130  178.4300  138.8190 C   0  0  1  0  0  0  0  0  0  0  0  0
  181.8630  177.6620  137.7920 C   0  0  2  0  0  3  0  0  0  0  0  0
  181.8320  178.9660  141.9530 C   0  0  0  0  0  3  0  0  0  0  0  0
  181.8810  179.3090  143.1220 O   0  0  0  0  0  0  0  0  0  0  0  0
  1 23  1  6  0  0  0
  1  5  1  0  0  0  0
  2 12  1  0  0  0  0
  2  7  1  0  0  0  0
  3 16  1  0  0  0  0
  3  1  1  0  0  0  0
  4  8  1  1  0  0  0
  4 39  1  0  0  0  0
  6  3  2  0  0  0  0
  8  7  1  0  0  0  0
  9 17  1  0  0  0  0
 10 16  2  0  0  0  0
 11 12  1  0  0  0  0
 12 42  1  6  0  0  0
 13  9  1  0  0  0  0
 13  5  1  0  0  0  0
 14 11  1  0  0  0  0
 14 17  1  0  0  0  0
 15  4  1  0  0  0  0
 16 15  1  0  0  0  0
 18 24  1  0  0  0  0
 19 23  1  0  0  0  0
 20 19  2  0  0  0  0
 22 20  1  0  0  0  0
 22 18  2  0  0  0  0
 24 23  2  0  0  0  0
 24 21  1  0  0  0  0
 25 18  1  0  0  0  0
 25 26  1  0  0  0  0
 26 29  1  0  0  0  0
 28 29  2  0  0  0  0
 29 30  1  0  0  0  0
 29 27  2  0  0  0  0
 31 35  1  0  0  0  0
 31 36  1  0  0  0  0
 33 30  1  0  0  0  0
 33 32  1  0  0  0  0
 34 32  1  0  0  0  0
 35 34  2  0  0  0  0
 36 33  1  0  0  0  0
 38 40  1  0  0  0  0
 39 41  1  1  0  0  0
 39 38  1  0  0  0  0
 39 40  1  0  0  0  0
 40 37  1  6  0  0  0
 43 49  1  0  0  0  0
 43 45  2  0  0  0  0
 44 50  1  0  0  0  0
 46 49  1  0  0  0  0
 47 50  1  0  0  0  0
 47 48  1  0  0  0  0
 48 43  1  0  0  0  0
 49 52  1  6  0  0  0
 50 46  1  1  0  0  0
 51 42  1  1  0  0  0
 51 44  1  0  0  0  0
 51 50  1  0  0  0  0
 52 53  2  0  0  0  0
M  END
>  <MODEL>
4

>  <REMARK>
 VINA RESULT:      -5.5      4.569     10.982
  Name = 
  10 active torsions:
  status: ('A' for Active; 'I' for Inactive)
    1  A    between atoms: C_2  and  C_51
    2  A    between atoms: C_3  and  C_52
    3  A    between atoms: C_11  and  C_28
    4  A    between atoms: C_15  and  C_39
    5  A    between atoms: N_27  and  C_42
    6  A    between atoms: N_31  and  S_40
    7  A    between atoms: N_31  and  C_51
    8  A    between atoms: C_33  and  C_46
    9  A    between atoms: C_35  and  C_46
   10  A    between atoms: S_40  and  C_42
                            x       y       z     vdW  Elec       q    Type
                         _______ _______ _______ _____ _____    ______ ____

>  <TORSDO>
F 10

$$$$
=
 OpenBabel11042411493D

 53 58  0  0  1  0  0  0  0  0999 V2000
  186.8060  177.9450  136.6570 C   0  0  1  0  0  3  0  0  0  0  0  0
  183.9650  177.5260  142.1070 C   0  0  0  0  0  2  0  0  0  0  0  0
  185.7720  176.8340  136.5430 C   0  0  0  0  0  0  0  0  0  0  0  0
  182.7410  178.2400  138.5060 C   0  0  2  0  0  3  0  0  0  0  0  0
  186.7300  178.7220  137.8390 O   0  0  0  0  0  0  0  0  0  0  0  0
  186.0340  175.8180  135.8420 O   0  0  0  0  0  0  0  0  0  0  0  0
  183.8940  178.2380  140.7670 C   0  0  0  0  0  2  0  0  0  0  0  0
  182.8540  177.5720  139.8800 C   0  0  0  0  0  2  0  0  0  0  0  0
  187.9500  178.5700  139.8960 C   0  0  0  0  0  2  0  0  0  0  0  0
  183.6910  175.9140  137.1850 O   0  0  0  0  0  0  0  0  0  0  0  0
  186.2310  177.6160  143.2140 C   0  0  0  0  0  2  0  0  0  0  0  0
  184.8800  178.3100  143.0440 C   0  0  2  0  0  3  0  0  0  0  0  0
  186.9760  177.8930  138.9470 C   0  0  0  0  0  2  0  0  0  0  0  0
  186.9830  177.4380  141.9010 C   0  0  0  0  0  2  0  0  0  0  0  0
  183.9950  178.1480  137.7690 N   0  0  0  0  0  2  0  0  0  0  0  0
  184.4430  176.9280  137.1760 C   0  0  0  0  0  0  0  0  0  0  0  0
  187.3070  178.7780  141.2590 C   0  0  0  0  0  2  0  0  0  0  0  0
  190.1990  176.1950  136.7780 C   0  0  0  0  0  0  0  0  0  0  0  0
  188.8410  178.0190  135.1500 C   0  0  0  0  0  3  0  0  0  0  0  0
  190.1260  177.5960  134.8020 C   0  0  0  0  0  3  0  0  0  0  0  0
  188.3030  176.1150  138.2390 F   0  0  0  0  0  0  0  0  0  0  0  0
  190.8020  176.6830  135.6130 C   0  0  0  0  0  3  0  0  0  0  0  0
  188.2250  177.5420  136.3190 C   0  0  0  0  0  0  0  0  0  0  0  0
  188.9050  176.6180  137.1300 C   0  0  0  0  0  0  0  0  0  0  0  0
  190.9180  175.1760  137.5940 C   0  0  0  0  0  2  0  0  0  0  0  0
  192.1450  174.7870  136.9160 N   0  0  0  0  0  2  0  0  0  0  0  0
  194.1510  176.5040  136.6710 O   0  0  0  0  0  0  0  0  0  0  0  0
  192.9160  176.4770  138.7880 O   0  0  0  0  0  0  0  0  0  0  0  0
  193.4570  175.6240  137.6750 S   0  0  0  0  0  0  0  0  0  0  0  0
  194.6150  174.4450  138.3440 C   0  0  0  0  0  2  0  0  0  0  0  0
  198.2810  174.8780  138.7350 C   0  0  0  0  0  2  0  0  0  0  0  0
  196.3110  173.9230  136.8210 C   0  0  0  0  0  2  0  0  0  0  0  0
  195.9670  174.7960  137.9440 N   0  0  0  0  0  0  0  0  0  0  0  0
  197.7560  174.0980  136.4280 C   0  0  0  0  0  3  0  0  0  0  0  0
  198.6690  174.4990  137.3280 C   0  0  0  0  0  3  0  0  0  0  0  0
  196.8470  174.4500  139.0590 C   0  0  0  0  0  2  0  0  0  0  0  0
  180.1390  178.8760  139.3460 O   0  0  0  0  0  1  0  0  0  0  0  0
  181.2100  180.0810  137.5950 C   0  0  0  0  0  2  0  0  0  0  0  0
  182.2720  179.6940  138.5960 C   0  0  1  0  0  0  0  0  0  0  0  0
  180.8720  180.0320  139.0820 C   0  0  2  0  0  3  0  0  0  0  0  0
  183.2250  180.6960  138.7810 O   0  0  0  0  0  1  0  0  0  0  0  0
  184.2400  178.4460  144.4150 C   0  0  0  0  0  2  0  0  0  0  0  0
  187.7110  178.3160  148.1320 C   0  0  0  0  0  0  0  0  0  0  0  0
  186.3160  179.4390  145.0930 O   0  0  0  0  0  0  0  0  0  0  0  0
  188.3070  178.0750  149.1690 O   0  0  0  0  0  0  0  0  0  0  0  0
  185.9530  177.5040  146.5670 C   0  0  0  0  0  2  0  0  0  0  0  0
  186.0560  179.8950  147.3750 O   0  0  0  0  0  0  0  0  0  0  0  0
  187.4120  179.7380  147.7360 C   0  0  0  0  0  2  0  0  0  0  0  0
  187.3220  177.2090  147.1970 C   0  0  1  0  0  3  0  0  0  0  0  0
  185.7710  179.0090  146.3140 C   0  0  1  0  0  0  0  0  0  0  0  0
  184.9120  179.5460  145.2280 C   0  0  2  0  0  3  0  0  0  0  0  0
  188.3700  177.0490  146.1380 C   0  0  0  0  0  3  0  0  0  0  0  0
  189.5400  176.8890  146.4400 O   0  0  0  0  0  0  0  0  0  0  0  0
  1 23  1  1  0  0  0
  1  5  1  0  0  0  0
  2 12  1  0  0  0  0
  3  1  1  0  0  0  0
  3 16  1  0  0  0  0
  4 39  1  0  0  0  0
  4  8  1  1  0  0  0
  5 13  1  0  0  0  0
  6  3  2  0  0  0  0
  7  2  1  0  0  0  0
  8  7  1  0  0  0  0
  9 17  1  0  0  0  0
 12 11  1  0  0  0  0
 12 42  1  1  0  0  0
 13  9  1  0  0  0  0
 14 11  1  0  0  0  0
 15  4  1  0  0  0  0
 16 10  2  0  0  0  0
 16 15  1  0  0  0  0
 17 14  1  0  0  0  0
 18 24  1  0  0  0  0
 18 25  1  0  0  0  0
 19 23  1  0  0  0  0
 20 19  2  0  0  0  0
 20 22  1  0  0  0  0
 22 18  2  0  0  0  0
 23 24  2  0  0  0  0
 24 21  1  0  0  0  0
 26 25  1  0  0  0  0
 26 29  1  0  0  0  0
 27 29  2  0  0  0  0
 29 30  1  0  0  0  0
 29 28  2  0  0  0  0
 31 36  1  0  0  0  0
 32 33  1  0  0  0  0
 33 30  1  0  0  0  0
 33 36  1  0  0  0  0
 34 32  1  0  0  0  0
 34 35  2  0  0  0  0
 35 31  1  0  0  0  0
 38 39  1  0  0  0  0
 38 40  1  0  0  0  0
 39 41  1  1  0  0  0
 39 40  1  0  0  0  0
 40 37  1  6  0  0  0
 43 45  2  0  0  0  0
 44 51  1  0  0  0  0
 44 50  1  0  0  0  0
 46 49  1  0  0  0  0
 47 48  1  0  0  0  0
 48 43  1  0  0  0  0
 49 52  1  6  0  0  0
 49 43  1  0  0  0  0
 50 46  1  1  0  0  0
 50 47  1  0  0  0  0
 51 42  1  6  0  0  0
 51 50  1  0  0  0  0
 52 53  2  0  0  0  0
M  END
>  <MODEL>
5

>  <REMARK>
 VINA RESULT:      -5.3      3.830      9.606
  Name = 
  10 active torsions:
  status: ('A' for Active; 'I' for Inactive)
    1  A    between atoms: C_2  and  C_51
    2  A    between atoms: C_3  and  C_52
    3  A    between atoms: C_11  and  C_28
    4  A    between atoms: C_15  and  C_39
    5  A    between atoms: N_27  and  C_42
    6  A    between atoms: N_31  and  S_40
    7  A    between atoms: N_31  and  C_51
    8  A    between atoms: C_33  and  C_46
    9  A    between atoms: C_35  and  C_46
   10  A    between atoms: S_40  and  C_42
                            x       y       z     vdW  Elec       q    Type
                         _______ _______ _______ _____ _____    ______ ____

>  <TORSDO>
F 10

$$$$
=
 OpenBabel11042411493D

 53 58  0  0  1  0  0  0  0  0999 V2000
  186.4790  178.0220  136.7280 C   0  0  1  0  0  3  0  0  0  0  0  0
  183.4190  177.8330  142.0710 C   0  0  0  0  0  2  0  0  0  0  0  0
  185.3890  176.9700  136.5870 C   0  0  0  0  0  0  0  0  0  0  0  0
  182.3720  178.5680  138.4190 C   0  0  2  0  0  3  0  0  0  0  0  0
  186.4040  178.8170  137.8980 O   0  0  0  0  0  0  0  0  0  0  0  0
  185.6200  175.9320  135.9070 O   0  0  0  0  0  0  0  0  0  0  0  0
  183.4390  178.5300  140.7220 C   0  0  0  0  0  2  0  0  0  0  0  0
  182.3960  177.9130  139.8040 C   0  0  0  0  0  2  0  0  0  0  0  0
  187.5360  178.6230  140.0010 C   0  0  0  0  0  2  0  0  0  0  0  0
  183.2380  176.1770  137.1600 O   0  0  0  0  0  0  0  0  0  0  0  0
  185.6440  177.8090  143.2620 C   0  0  0  0  0  2  0  0  0  0  0  0
  184.3420  178.5750  143.0330 C   0  0  2  0  0  3  0  0  0  0  0  0
  186.5610  177.9900  139.0240 C   0  0  0  0  0  2  0  0  0  0  0  0
  186.4330  177.5730  141.9800 C   0  0  0  0  0  2  0  0  0  0  0  0
  183.6450  178.3970  137.7310 N   0  0  0  0  0  2  0  0  0  0  0  0
  184.0450  177.1460  137.1690 C   0  0  0  0  0  0  0  0  0  0  0  0
  186.8560  178.8840  141.3370 C   0  0  0  0  0  2  0  0  0  0  0  0
  189.7990  176.1600  137.0540 C   0  0  0  0  0  0  0  0  0  0  0  0
  188.5330  177.8830  135.2500 C   0  0  0  0  0  3  0  0  0  0  0  0
  189.8030  177.3820  134.9610 C   0  0  0  0  0  3  0  0  0  0  0  0
  187.8840  176.2850  138.4880 F   0  0  0  0  0  0  0  0  0  0  0  0
  190.4330  176.5190  135.8590 C   0  0  0  0  0  3  0  0  0  0  0  0
  187.8850  177.5360  136.4480 C   0  0  0  0  0  0  0  0  0  0  0  0
  188.5190  176.6630  137.3480 C   0  0  0  0  0  0  0  0  0  0  0  0
  190.4670  175.1910  137.9670 C   0  0  0  0  0  2  0  0  0  0  0  0
  191.7730  175.7050  138.3510 N   0  0  0  0  0  2  0  0  0  0  0  0
  192.8520  177.5090  139.9660 O   0  0  0  0  0  0  0  0  0  0  0  0
  190.7650  178.0950  138.8210 O   0  0  0  0  0  0  0  0  0  0  0  0
  191.5240  176.9840  139.4900 S   0  0  0  0  0  0  0  0  0  0  0  0
  190.5840  176.3790  140.8790 C   0  0  0  0  0  2  0  0  0  0  0  0
  191.3450  178.5130  143.8190 C   0  0  0  0  0  2  0  0  0  0  0  0
  190.8790  175.7330  143.1060 C   0  0  0  0  0  2  0  0  0  0  0  0
  191.2360  176.7540  142.1210 N   0  0  0  0  0  0  0  0  0  0  0  0
  191.3790  176.1110  144.4770 C   0  0  0  0  0  3  0  0  0  0  0  0
  191.5520  177.3990  144.8140 C   0  0  0  0  0  3  0  0  0  0  0  0
  190.6370  178.0160  142.5550 C   0  0  0  0  0  2  0  0  0  0  0  0
  179.7640  179.3570  139.0950 O   0  0  0  0  0  1  0  0  0  0  0  0
  181.0090  180.4880  137.4100 C   0  0  0  0  0  2  0  0  0  0  0  0
  181.9830  180.0480  138.4760 C   0  0  1  0  0  0  0  0  0  0  0  0
  180.5770  180.4680  138.8740 C   0  0  2  0  0  3  0  0  0  0  0  0
  182.9790  180.9950  138.7170 O   0  0  0  0  0  1  0  0  0  0  0  0
  183.6600  178.7640  144.3780 C   0  0  0  0  0  2  0  0  0  0  0  0
  187.3200  178.2340  147.8720 C   0  0  0  0  0  0  0  0  0  0  0  0
  185.8010  179.6410  145.0150 O   0  0  0  0  0  0  0  0  0  0  0  0
  187.9630  177.8940  148.8510 O   0  0  0  0  0  0  0  0  0  0  0  0
  185.4550  177.6030  146.3480 C   0  0  0  0  0  2  0  0  0  0  0  0
  185.6790  179.9170  147.3370 O   0  0  0  0  0  0  0  0  0  0  0  0
  187.0460  179.6920  147.6080 C   0  0  0  0  0  2  0  0  0  0  0  0
  186.8450  177.2190  146.8740 C   0  0  1  0  0  3  0  0  0  0  0  0
  185.3090  179.1280  146.2270 C   0  0  1  0  0  0  0  0  0  0  0  0
  184.4110  179.7750  145.2370 C   0  0  2  0  0  3  0  0  0  0  0  0
  187.8290  177.1160  145.7490 C   0  0  0  0  0  3  0  0  0  0  0  0
  188.5030  178.0770  145.4220 O   0  0  0  0  0  0  0  0  0  0  0  0
  1 23  1  1  0  0  0
  1  5  1  0  0  0  0
  2 12  1  0  0  0  0
  3  1  1  0  0  0  0
  3 16  1  0  0  0  0
  4 39  1  0  0  0  0
  4  8  1  1  0  0  0
  5 13  1  0  0  0  0
  6  3  2  0  0  0  0
  7  2  1  0  0  0  0
  8  7  1  0  0  0  0
  9 17  1  0  0  0  0
 10 16  2  0  0  0  0
 12 11  1  0  0  0  0
 12 42  1  1  0  0  0
 13  9  1  0  0  0  0
 14 11  1  0  0  0  0
 15  4  1  0  0  0  0
 16 15  1  0  0  0  0
 17 14  1  0  0  0  0
 18 24  1  0  0  0  0
 18 25  1  0  0  0  0
 19 23  1  0  0  0  0
 20 19  2  0  0  0  0
 20 22  1  0  0  0  0
 22 18  2  0  0  0  0
 23 24  2  0  0  0  0
 24 21  1  0  0  0  0
 25 26  1  0  0  0  0
 26 29  1  0  0  0  0
 28 29  2  0  0  0  0
 29 27  2  0  0  0  0
 29 30  1  0  0  0  0
 30 33  1  0  0  0  0
 31 35  1  0  0  0  0
 32 34  1  0  0  0  0
 33 36  1  0  0  0  0
 33 32  1  0  0  0  0
 34 35  2  0  0  0  0
 36 31  1  0  0  0  0
 38 39  1  0  0  0  0
 38 40  1  0  0  0  0
 39 41  1  1  0  0  0
 39 40  1  0  0  0  0
 40 37  1  6  0  0  0
 43 45  2  0  0  0  0
 44 51  1  0  0  0  0
 44 50  1  0  0  0  0
 46 49  1  0  0  0  0
 47 48  1  0  0  0  0
 48 43  1  0  0  0  0
 49 52  1  6  0  0  0
 49 43  1  0  0  0  0
 50 46  1  1  0  0  0
 50 47  1  0  0  0  0
 51 42  1  6  0  0  0
 51 50  1  0  0  0  0
 53 52  2  0  0  0  0
M  END
>  <MODEL>
6

>  <REMARK>
 VINA RESULT:      -5.2      3.063      8.392
  Name = 
  10 active torsions:
  status: ('A' for Active; 'I' for Inactive)
    1  A    between atoms: C_2  and  C_51
    2  A    between atoms: C_3  and  C_52
    3  A    between atoms: C_11  and  C_28
    4  A    between atoms: C_15  and  C_39
    5  A    between atoms: N_27  and  C_42
    6  A    between atoms: N_31  and  S_40
    7  A    between atoms: N_31  and  C_51
    8  A    between atoms: C_33  and  C_46
    9  A    between atoms: C_35  and  C_46
   10  A    between atoms: S_40  and  C_42
                            x       y       z     vdW  Elec       q    Type
                         _______ _______ _______ _____ _____    ______ ____

>  <TORSDO>
F 10

$$$$
=
 OpenBabel11042411493D

 53 58  0  0  1  0  0  0  0  0999 V2000
  191.9270  175.6050  138.7090 C   0  0  1  0  0  3  0  0  0  0  0  0
  187.2270  179.0600  140.6890 C   0  0  0  0  0  2  0  0  0  0  0  0
  192.5200  176.8650  139.3220 C   0  0  0  0  0  0  0  0  0  0  0  0
  190.2920  177.4690  142.4340 C   0  0  2  0  0  3  0  0  0  0  0  0
  190.5370  175.4270  138.9190 O   0  0  0  0  0  0  0  0  0  0  0  0
  193.5570  177.3700  138.8100 O   0  0  0  0  0  0  0  0  0  0  0  0
  188.1720  177.9540  141.1250 C   0  0  0  0  0  2  0  0  0  0  0  0
  189.2950  178.5350  141.9700 C   0  0  0  0  0  2  0  0  0  0  0  0
  188.6610  175.9380  137.5180 C   0  0  0  0  0  2  0  0  0  0  0  0
  192.3890  178.6160  140.9050 O   0  0  0  0  0  0  0  0  0  0  0  0
  186.0790  178.6360  138.4820 C   0  0  0  0  0  2  0  0  0  0  0  0
  186.0160  178.4400  139.9960 C   0  0  2  0  0  3  0  0  0  0  0  0
  189.8430  176.4820  138.3020 C   0  0  0  0  0  2  0  0  0  0  0  0
  187.3200  178.0190  137.8490 C   0  0  0  0  0  2  0  0  0  0  0  0
  190.9490  176.8300  141.3010 N   0  0  0  0  0  2  0  0  0  0  0  0
  191.9600  177.4880  140.5370 C   0  0  0  0  0  0  0  0  0  0  0  0
  187.3580  176.5120  138.0530 C   0  0  0  0  0  2  0  0  0  0  0  0
  193.0350  173.7680  135.5480 C   0  0  0  0  0  0  0  0  0  0  0  0
  192.2530  176.3440  136.3070 C   0  0  0  0  0  3  0  0  0  0  0  0
  192.5660  176.0750  134.9730 C   0  0  0  0  0  3  0  0  0  0  0  0
  192.7600  173.0370  137.8130 F   0  0  0  0  0  0  0  0  0  0  0  0
  192.9530  174.7890  134.5940 C   0  0  0  0  0  3  0  0  0  0  0  0
  192.3360  175.3310  137.2780 C   0  0  0  0  0  0  0  0  0  0  0  0
  192.7190  174.0360  136.8920 C   0  0  0  0  0  0  0  0  0  0  0  0
  193.3920  172.3900  135.1070 C   0  0  0  0  0  2  0  0  0  0  0  0
  194.8390  172.2380  135.1080 N   0  0  0  0  0  2  0  0  0  0  0  0
  194.0270  170.3250  136.7540 O   0  0  0  0  0  0  0  0  0  0  0  0
  195.5580  169.7070  134.9420 O   0  0  0  0  0  0  0  0  0  0  0  0
  195.2160  170.7710  135.9460 S   0  0  0  0  0  0  0  0  0  0  0  0
  196.6110  171.0360  137.0250 C   0  0  0  0  0  2  0  0  0  0  0  0
  196.3430  174.4430  138.4740 C   0  0  0  0  0  2  0  0  0  0  0  0
  198.3140  172.5920  137.4050 C   0  0  0  0  0  2  0  0  0  0  0  0
  196.8800  172.4580  137.1470 N   0  0  0  0  0  0  0  0  0  0  0  0
  198.6750  174.0240  137.7040 C   0  0  0  0  0  3  0  0  0  0  0  0
  197.7720  174.8630  138.2370 C   0  0  0  0  0  3  0  0  0  0  0  0
  196.1720  172.9280  138.3370 C   0  0  0  0  0  2  0  0  0  0  0  0
  189.2390  178.1780  144.9380 O   0  0  0  0  0  1  0  0  0  0  0  0
  190.4130  176.1320  144.6160 C   0  0  0  0  0  2  0  0  0  0  0  0
  189.6480  176.4220  143.3480 C   0  0  1  0  0  0  0  0  0  0  0  0
  189.0520  176.8190  144.6880 C   0  0  2  0  0  3  0  0  0  0  0  0
  189.1080  175.2710  142.7720 O   0  0  0  0  0  1  0  0  0  0  0  0
  184.7340  179.0780  140.5040 C   0  0  0  0  0  2  0  0  0  0  0  0
  180.2500  177.4620  138.7240 C   0  0  0  0  0  0  0  0  0  0  0  0
  183.5260  177.0730  139.9770 O   0  0  0  0  0  0  0  0  0  0  0  0
  179.0990  177.4130  138.3230 O   0  0  0  0  0  0  0  0  0  0  0  0
  182.2310  178.9390  139.0320 C   0  0  0  0  0  2  0  0  0  0  0  0
  181.3800  177.4080  140.8530 O   0  0  0  0  0  0  0  0  0  0  0  0
  180.6840  176.6290  139.9030 C   0  0  0  0  0  2  0  0  0  0  0  0
  181.2750  178.2990  138.0160 C   0  0  1  0  0  3  0  0  0  0  0  0
  182.4940  177.9970  140.2170 C   0  0  1  0  0  0  0  0  0  0  0  0
  183.7550  178.0210  141.0010 C   0  0  2  0  0  3  0  0  0  0  0  0
  182.0300  177.4530  137.0370 C   0  0  0  0  0  3  0  0  0  0  0  0
  182.3940  177.9130  135.9680 O   0  0  0  0  0  0  0  0  0  0  0  0
  1 23  1  6  0  0  0
  1  5  1  0  0  0  0
  1  3  1  0  0  0  0
  2  7  1  0  0  0  0
  3 16  1  0  0  0  0
  4  8  1  6  0  0  0
  4 39  1  0  0  0  0
  6  3  2  0  0  0  0
  7  8  1  0  0  0  0
  9 17  1  0  0  0  0
  9 13  1  0  0  0  0
 11 12  1  0  0  0  0
 12 42  1  1  0  0  0
 12  2  1  0  0  0  0
 13  5  1  0  0  0  0
 14 17  1  0  0  0  0
 14 11  1  0  0  0  0
 15  4  1  0  0  0  0
 16 10  2  0  0  0  0
 16 15  1  0  0  0  0
 18 24  1  0  0  0  0
 19 23  1  0  0  0  0
 20 19  2  0  0  0  0
 22 20  1  0  0  0  0
 22 18  2  0  0  0  0
 24 23  2  0  0  0  0
 24 21  1  0  0  0  0
 25 26  1  0  0  0  0
 25 18  1  0  0  0  0
 26 29  1  0  0  0  0
 28 29  2  0  0  0  0
 29 27  2  0  0  0  0
 29 30  1  0  0  0  0
 30 33  1  0  0  0  0
 32 34  1  0  0  0  0
 33 32  1  0  0  0  0
 33 36  1  0  0  0  0
 34 35  2  0  0  0  0
 35 31  1  0  0  0  0
 36 31  1  0  0  0  0
 38 40  1  0  0  0  0
 39 41  1  6  0  0  0
 39 38  1  0  0  0  0
 39 40  1  0  0  0  0
 40 37  1  6  0  0  0
 43 48  1  0  0  0  0
 44 50  1  0  0  0  0
 44 51  1  0  0  0  0
 45 43  2  0  0  0  0
 48 47  1  0  0  0  0
 49 52  1  6  0  0  0
 49 43  1  0  0  0  0
 49 46  1  0  0  0  0
 50 46  1  6  0  0  0
 50 47  1  0  0  0  0
 50 51  1  0  0  0  0
 51 42  1  6  0  0  0
 53 52  2  0  0  0  0
M  END
>  <MODEL>
7

>  <REMARK>
 VINA RESULT:      -5.2      4.613     11.315
  Name = 
  10 active torsions:
  status: ('A' for Active; 'I' for Inactive)
    1  A    between atoms: C_2  and  C_51
    2  A    between atoms: C_3  and  C_52
    3  A    between atoms: C_11  and  C_28
    4  A    between atoms: C_15  and  C_39
    5  A    between atoms: N_27  and  C_42
    6  A    between atoms: N_31  and  S_40
    7  A    between atoms: N_31  and  C_51
    8  A    between atoms: C_33  and  C_46
    9  A    between atoms: C_35  and  C_46
   10  A    between atoms: S_40  and  C_42
                            x       y       z     vdW  Elec       q    Type
                         _______ _______ _______ _____ _____    ______ ____

>  <TORSDO>
F 10

$$$$
=
 OpenBabel11042411493D

 53 58  0  0  1  0  0  0  0  0999 V2000
  190.3930  174.7540  136.9070 C   0  0  1  0  0  3  0  0  0  0  0  0
  184.7360  177.1390  136.3940 C   0  0  0  0  0  2  0  0  0  0  0  0
  190.5330  176.1070  136.2230 C   0  0  0  0  0  0  0  0  0  0  0  0
  187.9880  178.3280  138.1210 C   0  0  2  0  0  3  0  0  0  0  0  0
  189.1070  174.4730  137.4320 O   0  0  0  0  0  0  0  0  0  0  0  0
  191.4090  176.2550  135.3270 O   0  0  0  0  0  0  0  0  0  0  0  0
  185.9300  177.0700  137.3300 C   0  0  0  0  0  2  0  0  0  0  0  0
  186.7590  178.3400  137.2070 C   0  0  0  0  0  2  0  0  0  0  0  0
  187.2800  173.2190  136.5190 C   0  0  0  0  0  2  0  0  0  0  0  0
  189.7620  178.3180  135.9060 O   0  0  0  0  0  0  0  0  0  0  0  0
  183.9440  174.8950  135.5530 C   0  0  0  0  0  2  0  0  0  0  0  0
  183.8230  175.9440  136.6580 C   0  0  2  0  0  3  0  0  0  0  0  0
  188.1810  174.4340  136.3760 C   0  0  0  0  0  2  0  0  0  0  0  0
  185.3580  174.3510  135.3960 C   0  0  0  0  0  2  0  0  0  0  0  0
  188.8930  177.2390  137.7770 N   0  0  0  0  0  2  0  0  0  0  0  0
  189.7190  177.2740  136.6120 C   0  0  0  0  0  0  0  0  0  0  0  0
  185.8280  173.6470  136.6590 C   0  0  0  0  0  2  0  0  0  0  0  0
  192.8400  172.0880  135.6850 C   0  0  0  0  0  0  0  0  0  0  0  0
  190.1620  172.8030  135.3080 C   0  0  0  0  0  3  0  0  0  0  0  0
  190.6830  171.6830  134.6570 C   0  0  0  0  0  3  0  0  0  0  0  0
  193.1030  173.9360  137.1860 F   0  0  0  0  0  0  0  0  0  0  0  0
  192.0180  171.3240  134.8480 C   0  0  0  0  0  3  0  0  0  0  0  0
  190.9760  173.5840  136.1470 C   0  0  0  0  0  0  0  0  0  0  0  0
  192.3170  173.2160  136.3420 C   0  0  0  0  0  0  0  0  0  0  0  0
  194.2440  171.6490  135.9190 C   0  0  0  0  0  2  0  0  0  0  0  0
  194.6370  171.9790  137.2800 N   0  0  0  0  0  2  0  0  0  0  0  0
  196.2750  173.8260  138.2460 O   0  0  0  0  0  0  0  0  0  0  0  0
  197.2500  171.7050  137.4980 O   0  0  0  0  0  0  0  0  0  0  0  0
  196.1930  172.7350  137.2130 S   0  0  0  0  0  0  0  0  0  0  0  0
  196.4580  173.4220  135.5900 C   0  0  0  0  0  2  0  0  0  0  0  0
  197.1590  177.0160  134.9840 C   0  0  0  0  0  2  0  0  0  0  0  0
  195.0030  175.0730  134.8010 C   0  0  0  0  0  2  0  0  0  0  0  0
  196.2030  174.8520  135.6080 N   0  0  0  0  0  0  0  0  0  0  0  0
  194.7390  176.5470  134.6250 C   0  0  0  0  0  3  0  0  0  0  0  0
  195.7450  177.4350  134.6690 C   0  0  0  0  0  3  0  0  0  0  0  0
  197.3230  175.4950  134.9220 C   0  0  0  0  0  2  0  0  0  0  0  0
  189.9440  178.5830  140.1180 O   0  0  0  0  0  1  0  0  0  0  0  0
  188.1270  177.0610  140.3440 C   0  0  0  0  0  2  0  0  0  0  0  0
  187.6160  178.2740  139.6050 C   0  0  1  0  0  0  0  0  0  0  0  0
  188.6760  178.4450  140.6800 C   0  0  2  0  0  3  0  0  0  0  0  0
  186.3200  178.6270  139.9840 O   0  0  0  0  0  1  0  0  0  0  0  0
  182.3740  176.3930  136.7290 C   0  0  0  0  0  2  0  0  0  0  0  0
  179.7210  176.8530  141.0470 C   0  0  0  0  0  0  0  0  0  0  0  0
  180.2230  175.9180  137.6820 O   0  0  0  0  0  0  0  0  0  0  0  0
  179.3930  177.0700  142.2010 O   0  0  0  0  0  0  0  0  0  0  0  0
  181.3810  177.3960  139.2710 C   0  0  0  0  0  2  0  0  0  0  0  0
  180.6790  175.0270  139.7990 O   0  0  0  0  0  0  0  0  0  0  0  0
  179.5080  175.4920  140.4360 C   0  0  0  0  0  2  0  0  0  0  0  0
  180.2810  177.9500  140.1880 C   0  0  1  0  0  3  0  0  0  0  0  0
  181.0550  175.9650  138.8140 C   0  0  1  0  0  0  0  0  0  0  0  0
  181.5310  175.4030  137.5250 C   0  0  2  0  0  3  0  0  0  0  0  0
  179.1820  178.5730  139.3830 C   0  0  0  0  0  3  0  0  0  0  0  0
  179.3200  179.6820  138.8960 O   0  0  0  0  0  0  0  0  0  0  0  0
  1 23  1  6  0  0  0
  1  5  1  0  0  0  0
  2 12  1  0  0  0  0
  2  7  1  0  0  0  0
  3 16  1  0  0  0  0
  3  1  1  0  0  0  0
  4  8  1  6  0  0  0
  4 39  1  0  0  0  0
  6  3  2  0  0  0  0
  8  7  1  0  0  0  0
  9 17  1  0  0  0  0
 10 16  2  0  0  0  0
 11 12  1  0  0  0  0
 12 42  1  6  0  0  0
 13  9  1  0  0  0  0
 13  5  1  0  0  0  0
 14 11  1  0  0  0  0
 14 17  1  0  0  0  0
 15  4  1  0  0  0  0
 16 15  1  0  0  0  0
 18 25  1  0  0  0  0
 18 24  1  0  0  0  0
 19 23  1  0  0  0  0
 20 22  1  0  0  0  0
 20 19  2  0  0  0  0
 22 18  2  0  0  0  0
 23 24  2  0  0  0  0
 24 21  1  0  0  0  0
 25 26  1  0  0  0  0
 29 26  1  0  0  0  0
 29 28  2  0  0  0  0
 29 27  2  0  0  0  0
 30 33  1  0  0  0  0
 30 29  1  0  0  0  0
 32 33  1  0  0  0  0
 34 35  2  0  0  0  0
 34 32  1  0  0  0  0
 35 31  1  0  0  0  0
 36 31  1  0  0  0  0
 36 33  1  0  0  0  0
 38 40  1  0  0  0  0
 39 41  1  1  0  0  0
 39 38  1  0  0  0  0
 39 40  1  0  0  0  0
 40 37  1  6  0  0  0
 43 45  2  0  0  0  0
 44 50  1  0  0  0  0
 46 49  1  0  0  0  0
 47 48  1  0  0  0  0
 48 43  1  0  0  0  0
 49 52  1  6  0  0  0
 49 43  1  0  0  0  0
 50 46  1  1  0  0  0
 50 47  1  0  0  0  0
 51 42  1  6  0  0  0
 51 44  1  0  0  0  0
 51 50  1  0  0  0  0
 53 52  2  0  0  0  0
M  END
>  <MODEL>
8

>  <REMARK>
 VINA RESULT:      -4.9      4.493     10.996
  Name = 
  10 active torsions:
  status: ('A' for Active; 'I' for Inactive)
    1  A    between atoms: C_2  and  C_51
    2  A    between atoms: C_3  and  C_52
    3  A    between atoms: C_11  and  C_28
    4  A    between atoms: C_15  and  C_39
    5  A    between atoms: N_27  and  C_42
    6  A    between atoms: N_31  and  S_40
    7  A    between atoms: N_31  and  C_51
    8  A    between atoms: C_33  and  C_46
    9  A    between atoms: C_35  and  C_46
   10  A    between atoms: S_40  and  C_42
                            x       y       z     vdW  Elec       q    Type
                         _______ _______ _______ _____ _____    ______ ____

>  <TORSDO>
F 10

$$$$
=
 OpenBabel11042411493D

 53 58  0  0  1  0  0  0  0  0999 V2000
  186.1050  175.6180  135.7180 C   0  0  1  0  0  3  0  0  0  0  0  0
  182.0180  176.6930  140.2000 C   0  0  0  0  0  2  0  0  0  0  0  0
  185.6330  174.2660  136.2320 C   0  0  0  0  0  0  0  0  0  0  0  0
  181.8430  174.8150  136.8220 C   0  0  2  0  0  3  0  0  0  0  0  0
  185.3810  176.7350  136.2020 O   0  0  0  0  0  0  0  0  0  0  0  0
  186.4520  173.3080  136.2850 O   0  0  0  0  0  0  0  0  0  0  0  0
  182.1300  176.5000  138.6970 C   0  0  0  0  0  2  0  0  0  0  0  0
  181.7400  175.0770  138.3270 C   0  0  0  0  0  2  0  0  0  0  0  0
  185.8450  178.2420  138.0070 C   0  0  0  0  0  2  0  0  0  0  0  0
  183.9330  172.9310  137.1880 O   0  0  0  0  0  0  0  0  0  0  0  0
  183.6170  178.3970  141.1510 C   0  0  0  0  0  2  0  0  0  0  0  0
  182.2390  178.1660  140.5340 C   0  0  2  0  0  3  0  0  0  0  0  0
  185.5380  176.8120  137.5970 C   0  0  0  0  0  2  0  0  0  0  0  0
  184.7610  177.9700  140.2410 C   0  0  0  0  0  2  0  0  0  0  0  0
  183.2120  174.9780  136.3480 N   0  0  0  0  0  2  0  0  0  0  0  0
  184.2310  174.0160  136.6180 C   0  0  0  0  0  0  0  0  0  0  0  0
  184.7710  178.7680  138.9460 C   0  0  0  0  0  2  0  0  0  0  0  0
  189.7180  175.7180  136.9530 C   0  0  0  0  0  0  0  0  0  0  0  0
  188.2960  176.2180  134.5970 C   0  0  0  0  0  3  0  0  0  0  0  0
  189.6850  176.3570  134.6150 C   0  0  0  0  0  3  0  0  0  0  0  0
  187.6630  175.1650  138.0540 F   0  0  0  0  0  0  0  0  0  0  0  0
  190.3950  176.1030  135.7900 C   0  0  0  0  0  3  0  0  0  0  0  0
  187.6010  175.8370  135.7580 C   0  0  0  0  0  0  0  0  0  0  0  0
  188.3190  175.5770  136.9360 C   0  0  0  0  0  0  0  0  0  0  0  0
  190.5040  175.3960  138.1760 C   0  0  0  0  0  2  0  0  0  0  0  0
  191.4970  176.4340  138.4050 N   0  0  0  0  0  2  0  0  0  0  0  0
  192.2150  178.0280  140.3980 O   0  0  0  0  0  0  0  0  0  0  0  0
  189.9850  178.3360  139.4280 O   0  0  0  0  0  0  0  0  0  0  0  0
  191.0230  177.3190  139.8140 S   0  0  0  0  0  0  0  0  0  0  0  0
  190.3350  176.2040  141.0230 C   0  0  0  0  0  2  0  0  0  0  0  0
  188.2790  177.7430  143.7020 C   0  0  0  0  0  2  0  0  0  0  0  0
  190.6530  176.1040  143.3370 C   0  0  0  0  0  2  0  0  0  0  0  0
  190.0760  176.9130  142.2630 N   0  0  0  0  0  0  0  0  0  0  0  0
  190.3030  176.6750  144.6870 C   0  0  0  0  0  3  0  0  0  0  0  0
  189.1830  177.3960  144.8590 C   0  0  0  0  0  3  0  0  0  0  0  0
  188.6260  176.9300  142.4530 C   0  0  0  0  0  2  0  0  0  0  0  0
  179.0630  174.6050  137.1530 O   0  0  0  0  0  1  0  0  0  0  0  0
  180.0390  174.9300  135.0060 C   0  0  0  0  0  2  0  0  0  0  0  0
  180.8800  175.6830  136.0070 C   0  0  1  0  0  0  0  0  0  0  0  0
  179.3780  175.5870  136.2150 C   0  0  2  0  0  3  0  0  0  0  0  0
  181.3360  176.9060  135.5120 O   0  0  0  0  0  1  0  0  0  0  0  0
  181.1900  178.6460  141.5220 C   0  0  0  0  0  2  0  0  0  0  0  0
  180.2010  181.6890  137.5670 C   0  0  0  0  0  0  0  0  0  0  0  0
  180.0060  178.7030  139.4360 O   0  0  0  0  0  0  0  0  0  0  0  0
  180.1280  182.6500  136.8190 O   0  0  0  0  0  0  0  0  0  0  0  0
  181.4540  180.6910  139.4730 C   0  0  0  0  0  2  0  0  0  0  0  0
  178.9310  180.7830  139.4040 O   0  0  0  0  0  0  0  0  0  0  0  0
  178.9540  180.9660  138.0040 C   0  0  0  0  0  2  0  0  0  0  0  0
  181.5340  181.1650  138.0150 C   0  0  1  0  0  3  0  0  0  0  0  0
  180.0850  180.0640  139.7790 C   0  0  1  0  0  0  0  0  0  0  0  0
  179.8930  179.0130  140.8110 C   0  0  2  0  0  3  0  0  0  0  0  0
  181.9660  180.0470  137.1170 C   0  0  0  0  0  3  0  0  0  0  0  0
  181.2940  179.7300  136.1500 O   0  0  0  0  0  0  0  0  0  0  0  0
  1 23  1  1  0  0  0
  1  5  1  0  0  0  0
  1  3  1  0  0  0  0
  2 12  1  0  0  0  0
  3  6  2  0  0  0  0
  3 16  1  0  0  0  0
  4  8  1  1  0  0  0
  5 13  1  0  0  0  0
  7  2  1  0  0  0  0
  8  7  1  0  0  0  0
  9 17  1  0  0  0  0
 12 11  1  0  0  0  0
 12 42  1  1  0  0  0
 13  9  1  0  0  0  0
 14 11  1  0  0  0  0
 15 16  1  0  0  0  0
 15  4  1  0  0  0  0
 16 10  2  0  0  0  0
 17 14  1  0  0  0  0
 18 25  1  0  0  0  0
 19 20  2  0  0  0  0
 19 23  1  0  0  0  0
 20 22  1  0  0  0  0
 22 18  2  0  0  0  0
 23 24  2  0  0  0  0
 24 18  1  0  0  0  0
 24 21  1  0  0  0  0
 25 26  1  0  0  0  0
 26 29  1  0  0  0  0
 28 29  2  0  0  0  0
 29 27  2  0  0  0  0
 29 30  1  0  0  0  0
 30 33  1  0  0  0  0
 31 35  1  0  0  0  0
 32 34  1  0  0  0  0
 33 36  1  0  0  0  0
 33 32  1  0  0  0  0
 34 35  2  0  0  0  0
 36 31  1  0  0  0  0
 38 39  1  0  0  0  0
 38 40  1  0  0  0  0
 39 41  1  6  0  0  0
 39 40  1  0  0  0  0
 39  4  1  0  0  0  0
 40 37  1  1  0  0  0
 43 48  1  0  0  0  0
 43 49  1  0  0  0  0
 44 50  1  0  0  0  0
 44 51  1  0  0  0  0
 45 43  2  0  0  0  0
 47 50  1  0  0  0  0
 48 47  1  0  0  0  0
 49 52  1  6  0  0  0
 49 46  1  0  0  0  0
 50 46  1  6  0  0  0
 50 51  1  0  0  0  0
 51 42  1  1  0  0  0
 53 52  2  0  0  0  0
M  END
>  <MODEL>
9

>  <REMARK>
 VINA RESULT:      -4.8      2.942      8.223
  Name = 
  10 active torsions:
  status: ('A' for Active; 'I' for Inactive)
    1  A    between atoms: C_2  and  C_51
    2  A    between atoms: C_3  and  C_52
    3  A    between atoms: C_11  and  C_28
    4  A    between atoms: C_15  and  C_39
    5  A    between atoms: N_27  and  C_42
    6  A    between atoms: N_31  and  S_40
    7  A    between atoms: N_31  and  C_51
    8  A    between atoms: C_33  and  C_46
    9  A    between atoms: C_35  and  C_46
   10  A    between atoms: S_40  and  C_42
                            x       y       z     vdW  Elec       q    Type
                         _______ _______ _______ _____ _____    ______ ____

>  <TORSDO>
F 10

$$$$
