=
 OpenBabel11032419483D

 27 30  0  0  1  0  0  0  0  0999 V2000
  190.3810  174.1690  135.9260 C   0  0  0  0  0  3  0  0  0  0  0  0
  190.3630  174.9140  134.7420 C   0  0  0  0  0  3  0  0  0  0  0  0
  189.9790  176.2580  134.7660 C   0  0  0  0  0  3  0  0  0  0  0  0
  189.6180  176.8630  135.9730 C   0  0  0  0  0  0  0  0  0  0  0  0
  189.6340  176.1140  137.1670 C   0  0  0  0  0  0  0  0  0  0  0  0
  189.2430  176.7490  138.4750 C   0  0  2  0  0  3  0  0  0  0  0  0
  189.2040  178.1990  135.9780 O   0  0  0  0  0  0  0  0  0  0  0  0
  189.0120  178.9290  137.1890 C   0  0  0  0  0  2  0  0  0  0  0  0
  190.0160  174.7680  137.1350 C   0  0  0  0  0  3  0  0  0  0  0  0
  188.4300  178.0390  138.2920 C   0  0  1  0  0  3  0  0  0  0  0  0
  191.1210  177.5920  145.0510 C   0  0  0  0  0  1  0  0  0  0  0  0
  190.2080  177.3390  141.8820 C   0  0  0  0  0  0  0  0  0  0  0  0
  190.3350  177.1840  140.5910 C   0  0  0  0  0  0  0  0  0  0  0  0
  187.8310  177.9940  141.9860 C   0  0  0  0  0  2  0  0  0  0  0  0
  190.3800  176.6930  144.1770 N   0  0  0  0  0  0  0  0  0  0  0  0
  188.9920  177.6920  142.5630 C   0  0  0  0  0  0  0  0  0  0  0  0
  191.0930  176.6740  142.8830 C   0  0  0  0  0  2  0  0  0  0  0  0
  190.4520  177.0240  139.3040 C   0  0  0  0  0  3  0  0  0  0  0  0
  189.1330  177.2910  143.9120 N   0  0  0  0  0  0  0  0  0  0  0  0
  188.0300  177.2220  144.8610 C   0  0  0  0  0  1  0  0  0  0  0  0
  184.6770  178.3340  138.6380 C   0  0  0  0  0  0  0  0  0  0  0  0
  185.1240  176.5300  137.1590 C   0  0  0  0  0  3  0  0  0  0  0  0
  186.4990  176.7380  137.2900 C   0  0  0  0  0  3  0  0  0  0  0  0
  183.5150  179.3230  139.4930 Cl  0  0  0  0  0  0  0  0  0  0  0  0
  186.9640  177.7720  138.1130 C   0  0  0  0  0  0  0  0  0  0  0  0
  184.2480  177.3240  137.8320 N   0  0  0  0  0  0  0  0  0  0  0  0
  186.0440  178.5740  138.7930 C   0  0  0  0  0  3  0  0  0  0  0  0
  1  9  1  0  0  0  0
  2  3  1  0  0  0  0
  2  1  2  0  0  0  0
  3  4  2  0  0  0  0
  4  7  1  0  0  0  0
  4  5  1  0  0  0  0
  5  6  1  0  0  0  0
  6 18  1  6  0  0  0
  7  8  1  0  0  0  0
  8 10  1  0  0  0  0
  9  5  2  0  0  0  0
 10 25  1  6  0  0  0
 10  6  1  0  0  0  0
 12 16  1  0  0  0  0
 12 17  1  0  0  0  0
 13 12  2  0  0  0  0
 14 16  2  0  0  0  0
 15 11  1  0  0  0  0
 16 19  1  0  0  0  0
 17 15  1  0  0  0  0
 18 13  2  0  0  0  0
 19 15  1  0  0  0  0
 19 20  1  0  0  0  0
 21 27  1  0  0  0  0
 21 24  1  0  0  0  0
 22 23  2  0  0  0  0
 22 26  1  0  0  0  0
 23 25  1  0  0  0  0
 25 27  2  0  0  0  0
 26 21  2  0  0  0  0
M  END
>  <MODEL>
1

>  <REMARK>
 VINA RESULT:      -7.1      0.000      0.000
  Name = 
  2 active torsions:
  status: ('A' for Active; 'I' for Inactive)
    1  A    between atoms: C_12  and  C_27
    2  A    between atoms: C_17  and  C_23
                            x       y       z     vdW  Elec       q    Type
                         _______ _______ _______ _____ _____    ______ ____

>  <TORSDO>
F 2

$$$$
=
 OpenBabel11032419483D

 27 30  0  0  1  0  0  0  0  0999 V2000
  185.9590  175.0170  136.5040 C   0  0  0  0  0  3  0  0  0  0  0  0
  185.1560  176.1600  136.4300 C   0  0  0  0  0  3  0  0  0  0  0  0
  185.6950  177.4160  136.7220 C   0  0  0  0  0  3  0  0  0  0  0  0
  187.0410  177.5350  137.0810 C   0  0  0  0  0  0  0  0  0  0  0  0
  187.8520  176.3850  137.1580 C   0  0  0  0  0  0  0  0  0  0  0  0
  189.3010  176.4940  137.5500 C   0  0  2  0  0  3  0  0  0  0  0  0
  187.5600  178.7930  137.4030 O   0  0  0  0  0  0  0  0  0  0  0  0
  188.9590  179.0130  137.5860 C   0  0  0  0  0  2  0  0  0  0  0  0
  187.3030  175.1300  136.8680 C   0  0  0  0  0  3  0  0  0  0  0  0
  189.6280  177.8140  138.2660 C   0  0  1  0  0  3  0  0  0  0  0  0
  195.7190  174.6470  135.8530 C   0  0  0  0  0  1  0  0  0  0  0  0
  192.6850  175.6790  136.6660 C   0  0  0  0  0  0  0  0  0  0  0  0
  191.4310  176.0100  136.5050 C   0  0  0  0  0  0  0  0  0  0  0  0
  193.0160  176.4460  138.9890 C   0  0  0  0  0  2  0  0  0  0  0  0
  194.5680  174.2070  136.6280 N   0  0  0  0  0  0  0  0  0  0  0  0
  193.4430  175.8520  137.8760 C   0  0  0  0  0  0  0  0  0  0  0  0
  193.3650  174.6150  135.8720 C   0  0  0  0  0  2  0  0  0  0  0  0
  190.1790  176.3360  136.3540 C   0  0  0  0  0  3  0  0  0  0  0  0
  194.5420  174.9640  137.8160 N   0  0  0  0  0  0  0  0  0  0  0  0
  195.3890  174.6370  138.9540 C   0  0  0  0  0  1  0  0  0  0  0  0
  189.8060  176.7550  141.8910 C   0  0  0  0  0  0  0  0  0  0  0  0
  188.1810  178.4790  141.7230 C   0  0  0  0  0  3  0  0  0  0  0  0
  188.4020  178.5810  140.3480 C   0  0  0  0  0  3  0  0  0  0  0  0
  190.6730  175.5990  142.8760 Cl  0  0  0  0  0  0  0  0  0  0  0  0
  189.3510  177.7500  139.7400 C   0  0  0  0  0  0  0  0  0  0  0  0
  188.8800  177.5750  142.4600 N   0  0  0  0  0  0  0  0  0  0  0  0
  190.0560  176.8290  140.5180 C   0  0  0  0  0  3  0  0  0  0  0  0
  1  9  1  0  0  0  0
  2  1  2  0  0  0  0
  2  3  1  0  0  0  0
  3  4  2  0  0  0  0
  4  5  1  0  0  0  0
  4  7  1  0  0  0  0
  5  6  1  0  0  0  0
  6 18  1  6  0  0  0
  6 10  1  0  0  0  0
  7  8  1  0  0  0  0
  8 10  1  0  0  0  0
  9  5  2  0  0  0  0
 10 25  1  1  0  0  0
 11 15  1  0  0  0  0
 12 16  1  0  0  0  0
 13 12  2  0  0  0  0
 15 19  1  0  0  0  0
 16 14  2  0  0  0  0
 17 15  1  0  0  0  0
 17 12  1  0  0  0  0
 18 13  2  0  0  0  0
 19 16  1  0  0  0  0
 19 20  1  0  0  0  0
 21 26  1  0  0  0  0
 21 24  1  0  0  0  0
 22 26  2  0  0  0  0
 23 22  1  0  0  0  0
 25 23  2  0  0  0  0
 25 27  1  0  0  0  0
 27 21  2  0  0  0  0
M  END
>  <MODEL>
2

>  <REMARK>
 VINA RESULT:      -6.9      3.577      5.810
  Name = 
  2 active torsions:
  status: ('A' for Active; 'I' for Inactive)
    1  A    between atoms: C_12  and  C_27
    2  A    between atoms: C_17  and  C_23
                            x       y       z     vdW  Elec       q    Type
                         _______ _______ _______ _____ _____    ______ ____

>  <TORSDO>
F 2

$$$$
=
 OpenBabel11032419483D

 27 30  0  0  1  0  0  0  0  0999 V2000
  191.6830  179.3410  144.3240 C   0  0  0  0  0  3  0  0  0  0  0  0
  191.4970  178.6060  145.5000 C   0  0  0  0  0  3  0  0  0  0  0  0
  190.5270  177.6010  145.5510 C   0  0  0  0  0  3  0  0  0  0  0  0
  189.7460  177.3220  144.4260 C   0  0  0  0  0  0  0  0  0  0  0  0
  189.9310  178.0620  143.2410 C   0  0  0  0  0  0  0  0  0  0  0  0
  189.0940  177.7800  142.0220 C   0  0  2  0  0  3  0  0  0  0  0  0
  188.7570  176.3360  144.5000 O   0  0  0  0  0  0  0  0  0  0  0  0
  188.0620  175.8690  143.3440 C   0  0  0  0  0  2  0  0  0  0  0  0
  190.9020  179.0700  143.1980 C   0  0  0  0  0  3  0  0  0  0  0  0
  187.8080  177.0060  142.3480 C   0  0  1  0  0  3  0  0  0  0  0  0
  189.4640  176.8080  135.2100 C   0  0  0  0  0  1  0  0  0  0  0  0
  189.2020  177.1470  138.4890 C   0  0  0  0  0  0  0  0  0  0  0  0
  189.5490  177.0860  139.7480 C   0  0  0  0  0  0  0  0  0  0  0  0
  186.8240  177.7540  138.7480 C   0  0  0  0  0  2  0  0  0  0  0  0
  189.3870  177.8590  136.2150 N   0  0  0  0  0  0  0  0  0  0  0  0
  187.8990  177.5070  138.0010 C   0  0  0  0  0  0  0  0  0  0  0  0
  190.1680  177.3930  137.3780 C   0  0  0  0  0  2  0  0  0  0  0  0
  189.8900  177.0340  141.0040 C   0  0  0  0  0  3  0  0  0  0  0  0
  188.0510  177.9240  136.6590 N   0  0  0  0  0  0  0  0  0  0  0  0
  187.0220  178.6220  135.9000 C   0  0  0  0  0  1  0  0  0  0  0  0
  185.1680  178.6630  144.4860 C   0  0  0  0  0  0  0  0  0  0  0  0
  185.0580  179.6370  142.3230 C   0  0  0  0  0  3  0  0  0  0  0  0
  186.1000  178.8200  141.8800 C   0  0  0  0  0  3  0  0  0  0  0  0
  184.5580  178.5660  146.1230 Cl  0  0  0  0  0  0  0  0  0  0  0  0
  186.6860  177.9100  142.7690 C   0  0  0  0  0  0  0  0  0  0  0  0
  184.6150  179.5410  143.6050 N   0  0  0  0  0  0  0  0  0  0  0  0
  186.2130  177.8300  144.0810 C   0  0  0  0  0  3  0  0  0  0  0  0
  1  2  1  0  0  0  0
  2  3  2  0  0  0  0
  4  7  1  0  0  0  0
  4  3  1  0  0  0  0
  5  4  2  0  0  0  0
  6 18  1  6  0  0  0
  6 10  1  0  0  0  0
  6  5  1  0  0  0  0
  8  7  1  0  0  0  0
  9  5  1  0  0  0  0
  9  1  2  0  0  0  0
 10 25  1  1  0  0  0
 10  8  1  0  0  0  0
 11 15  1  0  0  0  0
 12 13  2  0  0  0  0
 13 18  2  0  0  0  0
 15 19  1  0  0  0  0
 15 17  1  0  0  0  0
 16 12  1  0  0  0  0
 16 14  2  0  0  0  0
 17 12  1  0  0  0  0
 19 16  1  0  0  0  0
 20 19  1  0  0  0  0
 21 24  1  0  0  0  0
 22 26  1  0  0  0  0
 23 22  2  0  0  0  0
 23 25  1  0  0  0  0
 25 27  2  0  0  0  0
 26 21  2  0  0  0  0
 27 21  1  0  0  0  0
M  END
>  <MODEL>
3

>  <REMARK>
 VINA RESULT:      -6.7      3.108      6.910
  Name = 
  2 active torsions:
  status: ('A' for Active; 'I' for Inactive)
    1  A    between atoms: C_12  and  C_27
    2  A    between atoms: C_17  and  C_23
                            x       y       z     vdW  Elec       q    Type
                         _______ _______ _______ _____ _____    ______ ____

>  <TORSDO>
F 2

$$$$
=
 OpenBabel11032419483D

 27 30  0  0  1  0  0  0  0  0999 V2000
  180.9680  174.9540  139.3910 C   0  0  0  0  0  3  0  0  0  0  0  0
  179.8130  175.6700  139.7210 C   0  0  0  0  0  3  0  0  0  0  0  0
  179.8960  177.0310  140.0270 C   0  0  0  0  0  3  0  0  0  0  0  0
  181.1330  177.6820  139.9980 C   0  0  0  0  0  0  0  0  0  0  0  0
  182.2980  176.9630  139.6670 C   0  0  0  0  0  0  0  0  0  0  0  0
  183.6390  177.6470  139.6360 C   0  0  2  0  0  3  0  0  0  0  0  0
  181.2070  179.0370  140.3380 O   0  0  0  0  0  0  0  0  0  0  0  0
  182.3940  179.8050  140.1410 C   0  0  0  0  0  2  0  0  0  0  0  0
  182.2080  175.5990  139.3650 C   0  0  0  0  0  3  0  0  0  0  0  0
  183.6510  178.9710  140.4140 C   0  0  1  0  0  3  0  0  0  0  0  0
  189.3160  177.6150  135.7300 C   0  0  0  0  0  1  0  0  0  0  0  0
  186.6090  177.7810  137.6220 C   0  0  0  0  0  0  0  0  0  0  0  0
  185.3370  177.8350  137.9220 C   0  0  0  0  0  0  0  0  0  0  0  0
  187.5740  178.2330  139.8480 C   0  0  0  0  0  2  0  0  0  0  0  0
  188.5850  176.8060  136.6970 N   0  0  0  0  0  0  0  0  0  0  0  0
  187.6910  177.9340  138.5560 C   0  0  0  0  0  0  0  0  0  0  0  0
  187.1480  177.0380  136.4460 C   0  0  0  0  0  2  0  0  0  0  0  0
  184.0730  177.8820  138.2290 C   0  0  0  0  0  3  0  0  0  0  0  0
  188.8370  177.3440  137.9740 N   0  0  0  0  0  0  0  0  0  0  0  0
  190.0620  177.0480  138.7050 C   0  0  0  0  0  1  0  0  0  0  0  0
  185.4310  178.1450  143.6450 C   0  0  0  0  0  0  0  0  0  0  0  0
  183.2150  178.8020  144.1920 C   0  0  0  0  0  3  0  0  0  0  0  0
  182.9210  179.0040  142.8410 C   0  0  0  0  0  3  0  0  0  0  0  0
  187.0050  177.5900  144.1670 Cl  0  0  0  0  0  0  0  0  0  0  0  0
  183.9120  178.7730  141.8790 C   0  0  0  0  0  0  0  0  0  0  0  0
  184.4530  178.3780  144.5630 N   0  0  0  0  0  0  0  0  0  0  0  0
  185.1750  178.3380  142.2850 C   0  0  0  0  0  3  0  0  0  0  0  0
  1  2  1  0  0  0  0
  2  3  2  0  0  0  0
  4  3  1  0  0  0  0
  4  7  1  0  0  0  0
  5  4  2  0  0  0  0
  6 18  1  6  0  0  0
  6  5  1  0  0  0  0
  6 10  1  0  0  0  0
  8  7  1  0  0  0  0
  8 10  1  0  0  0  0
  9  1  2  0  0  0  0
  9  5  1  0  0  0  0
 10 25  1  1  0  0  0
 11 15  1  0  0  0  0
 12 13  2  0  0  0  0
 12 16  1  0  0  0  0
 13 18  2  0  0  0  0
 15 19  1  0  0  0  0
 16 14  2  0  0  0  0
 17 15  1  0  0  0  0
 17 12  1  0  0  0  0
 19 16  1  0  0  0  0
 19 20  1  0  0  0  0
 21 24  1  0  0  0  0
 21 26  1  0  0  0  0
 22 26  2  0  0  0  0
 23 22  1  0  0  0  0
 25 27  1  0  0  0  0
 25 23  2  0  0  0  0
 27 21  2  0  0  0  0
M  END
>  <MODEL>
4

>  <REMARK>
 VINA RESULT:      -6.7      3.878      7.326
  Name = 
  2 active torsions:
  status: ('A' for Active; 'I' for Inactive)
    1  A    between atoms: C_12  and  C_27
    2  A    between atoms: C_17  and  C_23
                            x       y       z     vdW  Elec       q    Type
                         _______ _______ _______ _____ _____    ______ ____

>  <TORSDO>
F 2

$$$$
=
 OpenBabel11032419483D

 27 30  0  0  1  0  0  0  0  0999 V2000
  185.1000  175.9760  135.8380 C   0  0  0  0  0  3  0  0  0  0  0  0
  184.9920  174.7410  136.4850 C   0  0  0  0  0  3  0  0  0  0  0  0
  184.1250  174.5930  137.5730 C   0  0  0  0  0  3  0  0  0  0  0  0
  183.3600  175.6780  138.0110 C   0  0  0  0  0  0  0  0  0  0  0  0
  183.4690  176.9240  137.3620 C   0  0  0  0  0  0  0  0  0  0  0  0
  182.6580  178.1040  137.8260 C   0  0  2  0  0  3  0  0  0  0  0  0
  182.5220  175.5260  139.1210 O   0  0  0  0  0  0  0  0  0  0  0  0
  181.5750  176.5250  139.4990 C   0  0  0  0  0  2  0  0  0  0  0  0
  184.3420  177.0640  136.2770 C   0  0  0  0  0  3  0  0  0  0  0  0
  182.1240  177.9350  139.2570 C   0  0  1  0  0  3  0  0  0  0  0  0
  179.1890  183.3150  134.9460 C   0  0  0  0  0  1  0  0  0  0  0  0
  180.7460  180.8080  136.4370 C   0  0  0  0  0  0  0  0  0  0  0  0
  181.1320  179.5790  136.6620 C   0  0  0  0  0  0  0  0  0  0  0  0
  181.5960  181.8860  138.4880 C   0  0  0  0  0  2  0  0  0  0  0  0
  180.5420  182.8250  135.1710 N   0  0  0  0  0  0  0  0  0  0  0  0
  181.0020  181.9310  137.2970 C   0  0  0  0  0  0  0  0  0  0  0  0
  180.4820  181.3520  135.0730 C   0  0  0  0  0  2  0  0  0  0  0  0
  181.5250  178.3590  136.8890 C   0  0  0  0  0  3  0  0  0  0  0  0
  180.8750  183.1000  136.5120 N   0  0  0  0  0  0  0  0  0  0  0  0
  181.3200  184.4210  136.9380 C   0  0  0  0  0  1  0  0  0  0  0  0
  183.6440  178.8010  142.6080 C   0  0  0  0  0  0  0  0  0  0  0  0
  185.3230  179.1020  140.9560 C   0  0  0  0  0  3  0  0  0  0  0  0
  184.4340  178.7140  139.9520 C   0  0  0  0  0  3  0  0  0  0  0  0
  183.1570  178.8750  144.2870 Cl  0  0  0  0  0  0  0  0  0  0  0  0
  183.1230  178.3580  140.2940 C   0  0  0  0  0  0  0  0  0  0  0  0
  184.9130  179.1400  142.2530 N   0  0  0  0  0  0  0  0  0  0  0  0
  182.7260  178.4050  141.6320 C   0  0  0  0  0  3  0  0  0  0  0  0
  1  9  2  0  0  0  0
  1  2  1  0  0  0  0
  2  3  2  0  0  0  0
  3  4  1  0  0  0  0
  4  7  1  0  0  0  0
  5  6  1  0  0  0  0
  5  4  2  0  0  0  0
  6 18  1  6  0  0  0
  6 10  1  0  0  0  0
  7  8  1  0  0  0  0
  9  5  1  0  0  0  0
 10  8  1  0  0  0  0
 10 25  1  1  0  0  0
 11 15  1  0  0  0  0
 12 13  2  0  0  0  0
 12 16  1  0  0  0  0
 13 18  2  0  0  0  0
 15 19  1  0  0  0  0
 16 14  2  0  0  0  0
 17 15  1  0  0  0  0
 17 12  1  0  0  0  0
 19 20  1  0  0  0  0
 19 16  1  0  0  0  0
 21 24  1  0  0  0  0
 22 26  2  0  0  0  0
 23 25  2  0  0  0  0
 23 22  1  0  0  0  0
 25 27  1  0  0  0  0
 26 21  1  0  0  0  0
 27 21  2  0  0  0  0
M  END
>  <MODEL>
5

>  <REMARK>
 VINA RESULT:      -6.6      4.927      8.793
  Name = 
  2 active torsions:
  status: ('A' for Active; 'I' for Inactive)
    1  A    between atoms: C_12  and  C_27
    2  A    between atoms: C_17  and  C_23
                            x       y       z     vdW  Elec       q    Type
                         _______ _______ _______ _____ _____    ______ ____

>  <TORSDO>
F 2

$$$$
=
 OpenBabel11032419483D

 27 30  0  0  1  0  0  0  0  0999 V2000
  185.9660  177.2410  146.1550 C   0  0  0  0  0  3  0  0  0  0  0  0
  186.4430  178.0350  147.2030 C   0  0  0  0  0  3  0  0  0  0  0  0
  187.7070  178.6260  147.1150 C   0  0  0  0  0  3  0  0  0  0  0  0
  188.4950  178.4300  145.9780 C   0  0  0  0  0  0  0  0  0  0  0  0
  188.0180  177.6290  144.9210 C   0  0  0  0  0  0  0  0  0  0  0  0
  188.8560  177.4020  143.6920 C   0  0  2  0  0  3  0  0  0  0  0  0
  189.7710  178.9990  145.9170 O   0  0  0  0  0  0  0  0  0  0  0  0
  190.5440  179.0030  144.7170 C   0  0  0  0  0  2  0  0  0  0  0  0
  186.7520  177.0380  145.0180 C   0  0  0  0  0  3  0  0  0  0  0  0
  190.3440  177.7100  143.9190 C   0  0  1  0  0  3  0  0  0  0  0  0
  189.4300  177.9490  136.8470 C   0  0  0  0  0  1  0  0  0  0  0  0
  189.2610  177.7960  140.1450 C   0  0  0  0  0  0  0  0  0  0  0  0
  188.7980  178.0100  141.3490 C   0  0  0  0  0  0  0  0  0  0  0  0
  191.4280  176.7640  140.7170 C   0  0  0  0  0  2  0  0  0  0  0  0
  189.1880  176.9750  137.9020 N   0  0  0  0  0  0  0  0  0  0  0  0
  190.5120  177.1600  139.8360 C   0  0  0  0  0  0  0  0  0  0  0  0
  188.3920  177.6620  138.9400 C   0  0  0  0  0  2  0  0  0  0  0  0
  188.3400  178.2130  142.5510 C   0  0  0  0  0  3  0  0  0  0  0  0
  190.4270  176.6870  138.5060 N   0  0  0  0  0  0  0  0  0  0  0  0
  191.3740  175.7540  137.9100 C   0  0  0  0  0  1  0  0  0  0  0  0
  192.2210  175.5430  146.3830 C   0  0  0  0  0  0  0  0  0  0  0  0
  192.0550  174.3370  144.3430 C   0  0  0  0  0  3  0  0  0  0  0  0
  191.3580  175.3930  143.7530 C   0  0  0  0  0  3  0  0  0  0  0  0
  192.7860  175.6280  148.0360 Cl  0  0  0  0  0  0  0  0  0  0  0  0
  191.0870  176.5440  144.5030 C   0  0  0  0  0  0  0  0  0  0  0  0
  192.4720  174.4340  145.6350 N   0  0  0  0  0  0  0  0  0  0  0  0
  191.5250  176.6190  145.8270 C   0  0  0  0  0  3  0  0  0  0  0  0
  1  2  1  0  0  0  0
  3  2  2  0  0  0  0
  4  3  1  0  0  0  0
  5  9  1  0  0  0  0
  5  4  2  0  0  0  0
  6 18  1  6  0  0  0
  6 10  1  0  0  0  0
  6  5  1  0  0  0  0
  7  4  1  0  0  0  0
  8  7  1  0  0  0  0
  9  1  2  0  0  0  0
 10 25  1  1  0  0  0
 10  8  1  0  0  0  0
 11 15  1  0  0  0  0
 12 13  2  0  0  0  0
 13 18  2  0  0  0  0
 15 19  1  0  0  0  0
 15 17  1  0  0  0  0
 16 12  1  0  0  0  0
 16 14  2  0  0  0  0
 17 12  1  0  0  0  0
 19 16  1  0  0  0  0
 20 19  1  0  0  0  0
 21 24  1  0  0  0  0
 22 26  1  0  0  0  0
 23 22  2  0  0  0  0
 23 25  1  0  0  0  0
 25 27  2  0  0  0  0
 26 21  2  0  0  0  0
 27 21  1  0  0  0  0
M  END
>  <MODEL>
6

>  <REMARK>
 VINA RESULT:      -6.5      3.966      8.548
  Name = 
  2 active torsions:
  status: ('A' for Active; 'I' for Inactive)
    1  A    between atoms: C_12  and  C_27
    2  A    between atoms: C_17  and  C_23
                            x       y       z     vdW  Elec       q    Type
                         _______ _______ _______ _____ _____    ______ ____

>  <TORSDO>
F 2

$$$$
=
 OpenBabel11032419483D

 27 30  0  0  1  0  0  0  0  0999 V2000
  182.7580  175.2650  137.3010 C   0  0  0  0  0  3  0  0  0  0  0  0
  181.6670  176.0160  136.8520 C   0  0  0  0  0  3  0  0  0  0  0  0
  181.5880  177.3810  137.1450 C   0  0  0  0  0  3  0  0  0  0  0  0
  182.6020  178.0000  137.8810 C   0  0  0  0  0  0  0  0  0  0  0  0
  183.7020  177.2450  138.3360 C   0  0  0  0  0  0  0  0  0  0  0  0
  184.8000  177.8950  139.1350 C   0  0  2  0  0  3  0  0  0  0  0  0
  182.4950  179.3590  138.1960 O   0  0  0  0  0  0  0  0  0  0  0  0
  183.5760  180.0930  138.7700 C   0  0  0  0  0  2  0  0  0  0  0  0
  183.7720  175.8780  138.0410 C   0  0  0  0  0  3  0  0  0  0  0  0
  184.3740  179.2330  139.7570 C   0  0  1  0  0  3  0  0  0  0  0  0
  191.6440  177.1360  139.3760 C   0  0  0  0  0  1  0  0  0  0  0  0
  188.3780  177.6470  139.3000 C   0  0  0  0  0  0  0  0  0  0  0  0
  187.1960  177.8730  138.7910 C   0  0  0  0  0  0  0  0  0  0  0  0
  187.8520  177.9190  141.6950 C   0  0  0  0  0  2  0  0  0  0  0  0
  190.4030  176.4210  139.6360 N   0  0  0  0  0  0  0  0  0  0  0  0
  188.6910  177.6300  140.7030 C   0  0  0  0  0  0  0  0  0  0  0  0
  189.4370  176.8560  138.6060 C   0  0  0  0  0  2  0  0  0  0  0  0
  186.0140  178.0920  138.2910 C   0  0  0  0  0  3  0  0  0  0  0  0
  189.8890  176.8950  140.8590 N   0  0  0  0  0  0  0  0  0  0  0  0
  190.3920  176.4170  142.1410 C   0  0  0  0  0  1  0  0  0  0  0  0
  183.8050  178.7590  143.4640 C   0  0  0  0  0  0  0  0  0  0  0  0
  181.6770  178.8410  142.4140 C   0  0  0  0  0  3  0  0  0  0  0  0
  182.2770  179.0090  141.1640 C   0  0  0  0  0  3  0  0  0  0  0  0
  184.7550  178.5850  144.9220 Cl  0  0  0  0  0  0  0  0  0  0  0  0
  183.6740  179.0570  141.0730 C   0  0  0  0  0  0  0  0  0  0  0  0
  182.4460  178.7180  143.5280 N   0  0  0  0  0  0  0  0  0  0  0  0
  184.4430  178.9280  142.2320 C   0  0  0  0  0  3  0  0  0  0  0  0
  1  9  1  0  0  0  0
  2  3  1  0  0  0  0
  2  1  2  0  0  0  0
  3  4  2  0  0  0  0
  4  7  1  0  0  0  0
  4  5  1  0  0  0  0
  5  6  1  0  0  0  0
  6 18  1  6  0  0  0
  6 10  1  0  0  0  0
  7  8  1  0  0  0  0
  8 10  1  0  0  0  0
  9  5  2  0  0  0  0
 10 25  1  1  0  0  0
 11 15  1  0  0  0  0
 12 16  1  0  0  0  0
 13 12  2  0  0  0  0
 15 19  1  0  0  0  0
 16 19  1  0  0  0  0
 16 14  2  0  0  0  0
 17 12  1  0  0  0  0
 17 15  1  0  0  0  0
 18 13  2  0  0  0  0
 19 20  1  0  0  0  0
 21 26  1  0  0  0  0
 21 24  1  0  0  0  0
 22 26  2  0  0  0  0
 23 22  1  0  0  0  0
 25 23  2  0  0  0  0
 25 27  1  0  0  0  0
 27 21  2  0  0  0  0
M  END
>  <MODEL>
7

>  <REMARK>
 VINA RESULT:      -6.5      3.236      5.572
  Name = 
  2 active torsions:
  status: ('A' for Active; 'I' for Inactive)
    1  A    between atoms: C_12  and  C_27
    2  A    between atoms: C_17  and  C_23
                            x       y       z     vdW  Elec       q    Type
                         _______ _______ _______ _____ _____    ______ ____

>  <TORSDO>
F 2

$$$$
=
 OpenBabel11032419483D

 27 30  0  0  1  0  0  0  0  0999 V2000
  183.4810  175.7100  136.5540 C   0  0  0  0  0  3  0  0  0  0  0  0
  182.5810  176.3480  135.6930 C   0  0  0  0  0  3  0  0  0  0  0  0
  182.0160  177.5740  136.0550 C   0  0  0  0  0  3  0  0  0  0  0  0
  182.3520  178.1690  137.2740 C   0  0  0  0  0  0  0  0  0  0  0  0
  183.2570  177.5280  138.1430 C   0  0  0  0  0  0  0  0  0  0  0  0
  183.6260  178.1520  139.4630 C   0  0  2  0  0  3  0  0  0  0  0  0
  181.7540  179.3800  137.6390 O   0  0  0  0  0  0  0  0  0  0  0  0
  182.1940  180.1340  138.7680 C   0  0  0  0  0  2  0  0  0  0  0  0
  183.8170  176.2980  137.7760 C   0  0  0  0  0  3  0  0  0  0  0  0
  182.6190  179.2180  139.9210 C   0  0  1  0  0  3  0  0  0  0  0  0
  189.4100  178.6300  143.1760 C   0  0  0  0  0  1  0  0  0  0  0  0
  186.5920  178.5360  141.4500 C   0  0  0  0  0  0  0  0  0  0  0  0
  185.7940  178.6430  140.4200 C   0  0  0  0  0  0  0  0  0  0  0  0
  184.9170  178.1970  143.2310 C   0  0  0  0  0  2  0  0  0  0  0  0
  188.4400  177.6600  142.6870 N   0  0  0  0  0  0  0  0  0  0  0  0
  186.1750  178.2820  142.8020 C   0  0  0  0  0  0  0  0  0  0  0  0
  188.0210  178.1180  141.3460 C   0  0  0  0  0  2  0  0  0  0  0  0
  184.9940  178.7420  139.3970 C   0  0  0  0  0  3  0  0  0  0  0  0
  187.2920  177.7630  143.4970 N   0  0  0  0  0  0  0  0  0  0  0  0
  187.2160  177.1280  144.8060 C   0  0  0  0  0  1  0  0  0  0  0  0
  180.1480  178.4570  142.6780 C   0  0  0  0  0  0  0  0  0  0  0  0
  179.5210  177.1800  140.7770 C   0  0  0  0  0  3  0  0  0  0  0  0
  180.5910  177.7020  140.0480 C   0  0  0  0  0  3  0  0  0  0  0  0
  179.8630  178.9120  144.3430 Cl  0  0  0  0  0  0  0  0  0  0  0  0
  181.4520  178.6260  140.6550 C   0  0  0  0  0  0  0  0  0  0  0  0
  179.3240  177.5620  142.0670 N   0  0  0  0  0  0  0  0  0  0  0  0
  181.2280  179.0030  141.9810 C   0  0  0  0  0  3  0  0  0  0  0  0
  1  9  1  0  0  0  0
  2  3  1  0  0  0  0
  2  1  2  0  0  0  0
  3  4  2  0  0  0  0
  4  7  1  0  0  0  0
  4  5  1  0  0  0  0
  5  6  1  0  0  0  0
  6 18  1  6  0  0  0
  6 10  1  0  0  0  0
  7  8  1  0  0  0  0
  8 10  1  0  0  0  0
  9  5  2  0  0  0  0
 10 25  1  6  0  0  0
 12 16  1  0  0  0  0
 13 12  2  0  0  0  0
 15 11  1  0  0  0  0
 15 19  1  0  0  0  0
 16 14  2  0  0  0  0
 16 19  1  0  0  0  0
 17 12  1  0  0  0  0
 17 15  1  0  0  0  0
 18 13  2  0  0  0  0
 19 20  1  0  0  0  0
 21 24  1  0  0  0  0
 22 26  2  0  0  0  0
 23 25  2  0  0  0  0
 23 22  1  0  0  0  0
 25 27  1  0  0  0  0
 26 21  1  0  0  0  0
 27 21  2  0  0  0  0
M  END
>  <MODEL>
8

>  <REMARK>
 VINA RESULT:      -6.4      4.225      5.777
  Name = 
  2 active torsions:
  status: ('A' for Active; 'I' for Inactive)
    1  A    between atoms: C_12  and  C_27
    2  A    between atoms: C_17  and  C_23
                            x       y       z     vdW  Elec       q    Type
                         _______ _______ _______ _____ _____    ______ ____

>  <TORSDO>
F 2

$$$$
=
 OpenBabel11032419483D

 27 30  0  0  1  0  0  0  0  0999 V2000
  184.9800  179.0100  142.5660 C   0  0  0  0  0  3  0  0  0  0  0  0
  184.4010  179.2540  143.8160 C   0  0  0  0  0  3  0  0  0  0  0  0
  183.0220  179.1060  143.9900 C   0  0  0  0  0  3  0  0  0  0  0  0
  182.2190  178.7080  142.9170 C   0  0  0  0  0  0  0  0  0  0  0  0
  182.7990  178.4630  141.6570 C   0  0  0  0  0  0  0  0  0  0  0  0
  181.9480  178.0400  140.4890 C   0  0  2  0  0  3  0  0  0  0  0  0
  180.8360  178.5960  143.0960 O   0  0  0  0  0  0  0  0  0  0  0  0
  179.9880  178.0110  142.1080 C   0  0  0  0  0  2  0  0  0  0  0  0
  184.1810  178.6160  141.4900 C   0  0  0  0  0  3  0  0  0  0  0  0
  180.4590  178.3580  140.6910 C   0  0  1  0  0  3  0  0  0  0  0  0
  184.2690  173.7720  135.6020 C   0  0  0  0  0  1  0  0  0  0  0  0
  183.0140  175.8010  137.8920 C   0  0  0  0  0  0  0  0  0  0  0  0
  182.5660  176.1890  139.0570 C   0  0  0  0  0  0  0  0  0  0  0  0
  182.3980  177.7720  136.5400 C   0  0  0  0  0  2  0  0  0  0  0  0
  184.6430  174.9580  136.3600 N   0  0  0  0  0  0  0  0  0  0  0  0
  182.9700  176.5780  136.6830 C   0  0  0  0  0  0  0  0  0  0  0  0
  184.0930  174.7850  137.7200 C   0  0  0  0  0  2  0  0  0  0  0  0
  182.1230  176.5840  140.2170 C   0  0  0  0  0  3  0  0  0  0  0  0
  183.9480  176.0510  135.8080 N   0  0  0  0  0  0  0  0  0  0  0  0
  184.4050  176.7220  134.5980 C   0  0  0  0  0  1  0  0  0  0  0  0
  180.4030  181.6100  138.7650 C   0  0  0  0  0  0  0  0  0  0  0  0
  178.9310  181.8420  140.6140 C   0  0  0  0  0  3  0  0  0  0  0  0
  179.2160  180.5400  141.0310 C   0  0  0  0  0  3  0  0  0  0  0  0
  181.1540  182.3040  137.3460 Cl  0  0  0  0  0  0  0  0  0  0  0  0
  180.1130  179.7610  140.2890 C   0  0  0  0  0  0  0  0  0  0  0  0
  179.5260  182.3470  139.5000 N   0  0  0  0  0  0  0  0  0  0  0  0
  180.7120  180.3030  139.1490 C   0  0  0  0  0  3  0  0  0  0  0  0
  1  2  1  0  0  0  0
  2  3  2  0  0  0  0
  4  7  1  0  0  0  0
  4  3  1  0  0  0  0
  5  4  2  0  0  0  0
  6 18  1  1  0  0  0
  6 10  1  0  0  0  0
  6  5  1  0  0  0  0
  8  7  1  0  0  0  0
  9  5  1  0  0  0  0
  9  1  2  0  0  0  0
 10 25  1  1  0  0  0
 10  8  1  0  0  0  0
 11 15  1  0  0  0  0
 12 13  2  0  0  0  0
 13 18  2  0  0  0  0
 14 16  2  0  0  0  0
 15 17  1  0  0  0  0
 16 12  1  0  0  0  0
 17 12  1  0  0  0  0
 19 15  1  0  0  0  0
 19 16  1  0  0  0  0
 20 19  1  0  0  0  0
 21 27  2  0  0  0  0
 21 26  1  0  0  0  0
 22 23  1  0  0  0  0
 24 21  1  0  0  0  0
 25 23  2  0  0  0  0
 26 22  2  0  0  0  0
 27 25  1  0  0  0  0
M  END
>  <MODEL>
9

>  <REMARK>
 VINA RESULT:      -6.2      5.832      9.023
  Name = 
  2 active torsions:
  status: ('A' for Active; 'I' for Inactive)
    1  A    between atoms: C_12  and  C_27
    2  A    between atoms: C_17  and  C_23
                            x       y       z     vdW  Elec       q    Type
                         _______ _______ _______ _____ _____    ______ ____

>  <TORSDO>
F 2

$$$$
