=
 OpenBabel11042412533D

 43 48  0  0  1  0  0  0  0  0999 V2000
  185.9150  178.2850  144.0820 C   0  0  0  0  0  0  0  0  0  0  0  0
  183.8670  179.7480  139.3640 O   0  0  0  0  0  0  0  0  0  0  0  0
  184.1710  178.7060  142.4000 C   0  0  0  0  0  0  0  0  0  0  0  0
  186.5190  178.1670  141.5190 C   0  0  2  0  0  3  0  0  0  0  0  0
  186.2000  178.2220  147.2680 N   0  0  0  0  0  0  0  0  0  0  0  0
  186.0510  178.8090  140.2810 N   0  0  0  0  0  0  0  0  0  0  0  0
  187.5160  177.8400  146.7850 C   0  0  0  0  0  2  0  0  0  0  0  0
  185.1500  178.5590  146.5770 C   0  0  0  0  0  3  0  0  0  0  0  0
  183.6710  178.5050  140.9950 C   0  0  1  0  0  3  0  0  0  0  0  0
  185.5390  178.4240  142.7080 C   0  0  0  0  0  0  0  0  0  0  0  0
  182.8900  179.5420  140.3760 C   0  0  2  0  0  3  0  0  0  0  0  0
  184.7800  178.9500  140.1420 C   0  0  0  0  0  0  0  0  0  0  0  0
  183.2580  178.9700  143.4130 C   0  0  0  0  0  3  0  0  0  0  0  0
  187.3120  177.8310  144.3950 C   0  0  0  0  0  2  0  0  0  0  0  0
  183.6620  178.9490  144.7380 C   0  0  0  0  0  3  0  0  0  0  0  0
  187.4110  176.9270  145.5940 C   0  0  0  0  0  2  0  0  0  0  0  0
  184.9650  178.6090  145.1020 C   0  0  0  0  0  0  0  0  0  0  0  0
  187.9260  178.6870  141.7750 C   0  0  0  0  0  2  0  0  0  0  0  0
  188.6950  178.5750  140.6140 O   0  0  0  0  0  0  0  0  0  0  0  0
  189.5320  177.4770  140.8450 C   0  0  1  0  0  3  0  0  0  0  0  0
  190.6410  177.3760  139.7950 C   0  0  0  0  0  2  0  0  0  0  0  0
  190.3950  176.2890  138.7940 C   0  0  0  0  0  3  0  0  0  0  0  0
  189.8000  176.5150  137.6660 N   0  0  0  0  0  0  0  0  0  0  0  0
  187.9680  178.1090  137.2590 C   0  0  0  0  0  0  0  0  0  0  0  0
  187.1060  177.2440  137.5700 O   0  0  0  0  0  1  0  0  0  0  0  0
  187.5620  179.3770  136.8620 O   0  0  0  0  0  0  0  0  0  0  0  0
  189.3580  177.7960  137.3100 N   0  0  0  0  0  2  0  0  0  0  0  0
  190.0550  177.4570  142.2810 C   0  0  0  0  0  2  0  0  0  0  0  0
  190.3610  176.0460  142.7700 C   0  0  0  0  0  2  0  0  0  0  0  0
  191.3380  176.0840  143.9280 C   0  0  0  0  0  2  0  0  0  0  0  0
  191.0710  177.2930  144.8070 C   0  0  0  0  0  2  0  0  0  0  0  0
  191.8790  177.2300  145.9410 O   0  0  0  0  0  0  0  0  0  0  0  0
  191.0740  176.6350  146.9120 C   0  0  0  0  0  1  0  0  0  0  0  0
  181.5900  179.0050  139.7780 C   0  0  0  0  0  2  0  0  0  0  0  0
  181.5480  177.6060  139.8080 O   0  0  0  0  0  0  0  0  0  0  0  0
  181.2890  177.2230  138.4870 C   0  0  2  0  0  3  0  0  0  0  0  0
  183.2190  175.6630  138.6690 C   0  0  1  0  0  3  0  0  0  0  0  0
  182.5710  176.7440  137.8230 C   0  0  1  0  0  3  0  0  0  0  0  0
  182.4380  175.2810  137.4380 C   0  0  1  0  0  3  0  0  0  0  0  0
  183.7470  174.5790  137.7480 C   0  0  0  0  0  2  0  0  0  0  0  0
  180.6860  178.3870  137.7030 C   0  0  0  0  0  3  0  0  0  0  0  0
  181.4420  178.6320  136.5570 O   0  0  0  0  0  1  0  0  0  0  0  0
  179.3650  178.1080  137.3410 O   0  0  0  0  0  1  0  0  0  0  0  0
  1 14  1  0  0  0  0
  1 17  1  0  0  0  0
  2 12  1  0  0  0  0
  2 11  1  0  0  0  0
  3 10  1  0  0  0  0
  3 13  2  0  0  0  0
  4 18  1  1  0  0  0
  4 10  1  0  0  0  0
  6  4  1  0  0  0  0
  7  5  1  0  0  0  0
  8  5  2  0  0  0  0
  9 12  1  6  0  0  0
  9  3  1  0  0  0  0
 10  1  2  0  0  0  0
 11 34  1  6  0  0  0
 11  9  1  0  0  0  0
 12  6  2  0  0  0  0
 13 15  1  0  0  0  0
 14 16  1  0  0  0  0
 15 17  2  0  0  0  0
 16  7  1  0  0  0  0
 17  8  1  0  0  0  0
 19 20  1  0  0  0  0
 19 18  1  0  0  0  0
 20 21  1  6  0  0  0
 20 28  1  0  0  0  0
 22 21  1  0  0  0  0
 23 22  2  0  0  0  0
 24 27  1  0  0  0  0
 24 25  1  0  0  0  0
 26 24  2  0  0  0  0
 27 23  1  0  0  0  0
 28 29  1  0  0  0  0
 29 30  1  0  0  0  0
 30 31  1  0  0  0  0
 31 32  1  0  0  0  0
 32 33  1  0  0  0  0
 34 35  1  0  0  0  0
 36 41  1  6  0  0  0
 36 35  1  0  0  0  0
 37 40  1  6  0  0  0
 38 36  1  1  0  0  0
 38 37  1  0  0  0  0
 39 40  1  6  0  0  0
 39 38  1  0  0  0  0
 39 37  1  0  0  0  0
 42 41  1  0  0  0  0
 43 41  1  0  0  0  0
M  END
>  <MODEL>
1

>  <REMARK>
 VINA RESULT:      -7.8      0.000      0.000
  Name = 
  16 active torsions:
  status: ('A' for Active; 'I' for Inactive)
    1  A    between atoms: C_1  and  C_11
    2  A    between atoms: C_1  and  O_30
    3  A    between atoms: O_2  and  C_3
    4  A    between atoms: O_2  and  C_4
    5  A    between atoms: C_3  and  C_27
    6  A    between atoms: C_4  and  C_15
    7  A    between atoms: C_4  and  C_23
    8  A    between atoms: C_6  and  C_25
    9  A    between atoms: C_6  and  C_43
   10  A    between atoms: C_7  and  C_20
   11  A    between atoms: C_7  and  C_25
   12  A    between atoms: O_17  and  C_22
   13  A    between atoms: C_22  and  C_39
   14  A    between atoms: C_25  and  O_30
   15  A    between atoms: N_37  and  N_42
   16  A    between atoms: C_39  and  C_43
                            x       y       z     vdW  Elec       q    Type
                         _______ _______ _______ _____ _____    ______ ____

>  <TORSDO>
F 16

$$$$
=
 OpenBabel11042412533D

 43 48  0  0  1  0  0  0  0  0999 V2000
  186.6280  178.1460  144.6520 C   0  0  0  0  0  0  0  0  0  0  0  0
  184.9050  179.3870  139.7440 O   0  0  0  0  0  0  0  0  0  0  0  0
  184.9960  178.6330  142.8780 C   0  0  0  0  0  0  0  0  0  0  0  0
  187.2590  177.6790  142.1350 C   0  0  2  0  0  3  0  0  0  0  0  0
  186.8390  178.3750  147.8360 N   0  0  0  0  0  0  0  0  0  0  0  0
  186.9130  178.2490  140.8240 N   0  0  0  0  0  0  0  0  0  0  0  0
  188.0960  177.7630  147.4390 C   0  0  0  0  0  2  0  0  0  0  0  0
  185.8630  178.7840  147.0800 C   0  0  0  0  0  3  0  0  0  0  0  0
  184.5000  178.3600  141.4840 C   0  0  1  0  0  3  0  0  0  0  0  0
  186.3040  178.1940  143.2590 C   0  0  0  0  0  0  0  0  0  0  0  0
  183.8890  179.4270  140.7380 C   0  0  2  0  0  3  0  0  0  0  0  0
  185.6780  178.5530  140.6290 C   0  0  0  0  0  0  0  0  0  0  0  0
  184.1110  179.1270  143.8270 C   0  0  0  0  0  3  0  0  0  0  0  0
  187.9390  177.5350  145.0560 C   0  0  0  0  0  2  0  0  0  0  0  0
  184.4820  179.1860  145.1620 C   0  0  0  0  0  3  0  0  0  0  0  0
  187.8840  176.7560  146.3420 C   0  0  0  0  0  2  0  0  0  0  0  0
  185.7160  178.7060  145.6020 C   0  0  0  0  0  0  0  0  0  0  0  0
  188.7220  178.0200  142.3860 C   0  0  0  0  0  2  0  0  0  0  0  0
  189.5330  176.9490  142.0050 O   0  0  0  0  0  0  0  0  0  0  0  0
  190.8390  177.3800  142.2660 C   0  0  1  0  0  3  0  0  0  0  0  0
  191.6500  177.5530  140.9790 C   0  0  0  0  0  2  0  0  0  0  0  0
  190.8480  177.2650  139.7460 C   0  0  0  0  0  3  0  0  0  0  0  0
  191.3950  176.8220  138.6590 N   0  0  0  0  0  0  0  0  0  0  0  0
  193.3500  176.0170  137.3960 C   0  0  0  0  0  0  0  0  0  0  0  0
  192.6330  175.7670  136.3900 O   0  0  0  0  0  0  0  0  0  0  0  0
  194.7120  175.7470  137.3600 O   0  0  0  0  0  1  0  0  0  0  0  0
  192.7720  176.5760  138.5740 N   0  0  0  0  0  2  0  0  0  0  0  0
  190.8560  178.6190  143.1620 C   0  0  0  0  0  2  0  0  0  0  0  0
  191.5680  178.3700  144.4860 C   0  0  0  0  0  2  0  0  0  0  0  0
  191.4730  176.9070  144.8740 C   0  0  0  0  0  2  0  0  0  0  0  0
  191.6070  176.7480  146.3780 C   0  0  0  0  0  2  0  0  0  0  0  0
  192.3340  175.5920  146.6600 O   0  0  0  0  0  0  0  0  0  0  0  0
  192.6160  175.6790  148.0230 C   0  0  0  0  0  1  0  0  0  0  0  0
  182.5370  179.0200  140.1530 C   0  0  0  0  0  2  0  0  0  0  0  0
  181.9960  177.9170  140.8230 O   0  0  0  0  0  0  0  0  0  0  0  0
  180.6090  178.0630  140.7030 C   0  0  2  0  0  3  0  0  0  0  0  0
  180.5150  178.6630  143.1150 C   0  0  1  0  0  3  0  0  0  0  0  0
  179.9370  177.7670  142.0350 C   0  0  1  0  0  3  0  0  0  0  0  0
  179.1730  178.9910  142.5110 C   0  0  1  0  0  3  0  0  0  0  0  0
  179.3820  179.1380  144.0070 C   0  0  0  0  0  2  0  0  0  0  0  0
  180.0690  177.1350  139.6170 C   0  0  0  0  0  3  0  0  0  0  0  0
  179.8040  177.8630  138.4570 O   0  0  0  0  0  1  0  0  0  0  0  0
  180.9860  176.1200  139.3320 O   0  0  0  0  0  1  0  0  0  0  0  0
  1 14  1  0  0  0  0
  1 17  1  0  0  0  0
  2 12  1  0  0  0  0
  2 11  1  0  0  0  0
  3 10  1  0  0  0  0
  3 13  2  0  0  0  0
  4 18  1  1  0  0  0
  4 10  1  0  0  0  0
  6  4  1  0  0  0  0
  7  5  1  0  0  0  0
  8  5  2  0  0  0  0
  9 12  1  6  0  0  0
  9  3  1  0  0  0  0
 10  1  2  0  0  0  0
 11 34  1  6  0  0  0
 11  9  1  0  0  0  0
 12  6  2  0  0  0  0
 13 15  1  0  0  0  0
 14 16  1  0  0  0  0
 15 17  2  0  0  0  0
 16  7  1  0  0  0  0
 17  8  1  0  0  0  0
 19 20  1  0  0  0  0
 19 18  1  0  0  0  0
 20 21  1  6  0  0  0
 20 28  1  0  0  0  0
 22 21  1  0  0  0  0
 23 22  2  0  0  0  0
 24 27  1  0  0  0  0
 25 24  2  0  0  0  0
 26 24  1  0  0  0  0
 27 23  1  0  0  0  0
 28 29  1  0  0  0  0
 29 30  1  0  0  0  0
 30 31  1  0  0  0  0
 31 32  1  0  0  0  0
 32 33  1  0  0  0  0
 34 35  1  0  0  0  0
 36 41  1  6  0  0  0
 36 35  1  0  0  0  0
 37 40  1  1  0  0  0
 38 36  1  6  0  0  0
 38 39  1  0  0  0  0
 38 37  1  0  0  0  0
 39 37  1  0  0  0  0
 39 40  1  1  0  0  0
 42 41  1  0  0  0  0
 43 41  1  0  0  0  0
M  END
>  <MODEL>
2

>  <REMARK>
 VINA RESULT:      -7.7      2.202      3.161
  Name = 
  16 active torsions:
  status: ('A' for Active; 'I' for Inactive)
    1  A    between atoms: C_1  and  C_11
    2  A    between atoms: C_1  and  O_30
    3  A    between atoms: O_2  and  C_3
    4  A    between atoms: O_2  and  C_4
    5  A    between atoms: C_3  and  C_27
    6  A    between atoms: C_4  and  C_15
    7  A    between atoms: C_4  and  C_23
    8  A    between atoms: C_6  and  C_25
    9  A    between atoms: C_6  and  C_43
   10  A    between atoms: C_7  and  C_20
   11  A    between atoms: C_7  and  C_25
   12  A    between atoms: O_17  and  C_22
   13  A    between atoms: C_22  and  C_39
   14  A    between atoms: C_25  and  O_30
   15  A    between atoms: N_37  and  N_42
   16  A    between atoms: C_39  and  C_43
                            x       y       z     vdW  Elec       q    Type
                         _______ _______ _______ _____ _____    ______ ____

>  <TORSDO>
F 16

$$$$
=
 OpenBabel11042412533D

 43 48  0  0  1  0  0  0  0  0999 V2000
  188.7670  177.4100  144.6090 C   0  0  0  0  0  0  0  0  0  0  0  0
  184.3210  179.5230  142.5190 O   0  0  0  0  0  0  0  0  0  0  0  0
  186.3890  178.0250  144.4880 C   0  0  0  0  0  0  0  0  0  0  0  0
  187.6180  177.7240  142.2560 C   0  0  2  0  0  3  0  0  0  0  0  0
  190.9830  176.8540  146.8480 N   0  0  0  0  0  0  0  0  0  0  0  0
  186.5240  178.5350  141.7030 N   0  0  0  0  0  0  0  0  0  0  0  0
  191.6740  176.6050  145.5940 C   0  0  0  0  0  2  0  0  0  0  0  0
  189.7590  177.2570  147.0330 C   0  0  0  0  0  3  0  0  0  0  0  0
  185.1050  178.0310  143.7030 C   0  0  1  0  0  3  0  0  0  0  0  0
  187.6230  177.7510  143.8190 C   0  0  0  0  0  0  0  0  0  0  0  0
  184.1850  179.1230  143.8760 C   0  0  2  0  0  3  0  0  0  0  0  0
  185.4610  178.6480  142.4190 C   0  0  0  0  0  0  0  0  0  0  0  0
  186.3350  178.0910  145.8740 C   0  0  0  0  0  3  0  0  0  0  0  0
  190.0140  176.9670  143.9000 C   0  0  0  0  0  2  0  0  0  0  0  0
  187.4790  177.8750  146.6270 C   0  0  0  0  0  3  0  0  0  0  0  0
  190.7800  175.8890  144.6180 C   0  0  0  0  0  2  0  0  0  0  0  0
  188.6940  177.5320  146.0320 C   0  0  0  0  0  0  0  0  0  0  0  0
  188.9070  178.2510  141.6410 C   0  0  0  0  0  2  0  0  0  0  0  0
  188.6660  178.7010  140.3410 O   0  0  0  0  0  0  0  0  0  0  0  0
  189.1090  177.6620  139.5150 C   0  0  1  0  0  3  0  0  0  0  0  0
  188.9480  178.0050  138.0320 C   0  0  0  0  0  2  0  0  0  0  0  0
  187.9100  177.1660  137.3520 C   0  0  0  0  0  3  0  0  0  0  0  0
  186.6630  177.5140  137.3130 N   0  0  0  0  0  0  0  0  0  0  0  0
  184.9680  178.7590  138.5930 C   0  0  0  0  0  0  0  0  0  0  0  0
  184.2650  177.7210  138.7270 O   0  0  0  0  0  0  0  0  0  0  0  0
  184.5290  179.9640  139.1260 O   0  0  0  0  0  1  0  0  0  0  0  0
  186.2110  178.7040  137.8970 N   0  0  0  0  0  2  0  0  0  0  0  0
  190.5240  177.2140  139.8820 C   0  0  0  0  0  2  0  0  0  0  0  0
  191.0860  176.1950  138.8970 C   0  0  0  0  0  2  0  0  0  0  0  0
  192.4450  176.6380  138.3900 C   0  0  0  0  0  2  0  0  0  0  0  0
  193.1990  175.4610  137.7970 C   0  0  0  0  0  2  0  0  0  0  0  0
  194.4720  175.8740  137.4080 O   0  0  0  0  0  0  0  0  0  0  0  0
  194.4400  175.8400  136.0140 C   0  0  0  0  0  1  0  0  0  0  0  0
  182.7630  178.6380  144.1610 C   0  0  0  0  0  2  0  0  0  0  0  0
  181.8050  179.5320  143.6670 O   0  0  0  0  0  0  0  0  0  0  0  0
  180.9180  178.7410  142.9280 C   0  0  2  0  0  3  0  0  0  0  0  0
  181.6300  178.8500  140.5460 C   0  0  1  0  0  3  0  0  0  0  0  0
  180.6510  179.3830  141.5750 C   0  0  1  0  0  3  0  0  0  0  0  0
  180.2180  178.3250  140.5760 C   0  0  1  0  0  3  0  0  0  0  0  0
  180.8860  178.6150  139.2450 C   0  0  0  0  0  2  0  0  0  0  0  0
  179.6110  178.5490  143.6940 C   0  0  0  0  0  3  0  0  0  0  0  0
  179.6670  177.3750  144.4460 O   0  0  0  0  0  1  0  0  0  0  0  0
  179.3700  179.6340  144.5400 O   0  0  0  0  0  1  0  0  0  0  0  0
  1 17  1  0  0  0  0
  2 11  1  0  0  0  0
  3 13  2  0  0  0  0
  4 18  1  6  0  0  0
  4 10  1  0  0  0  0
  5  8  2  0  0  0  0
  6  4  1  0  0  0  0
  6 12  2  0  0  0  0
  7  5  1  0  0  0  0
  9 12  1  6  0  0  0
  9 11  1  0  0  0  0
  9  3  1  0  0  0  0
 10  3  1  0  0  0  0
 10  1  2  0  0  0  0
 11 34  1  6  0  0  0
 12  2  1  0  0  0  0
 13 15  1  0  0  0  0
 14  1  1  0  0  0  0
 14 16  1  0  0  0  0
 16  7  1  0  0  0  0
 17 15  2  0  0  0  0
 17  8  1  0  0  0  0
 19 18  1  0  0  0  0
 20 21  1  6  0  0  0
 20 28  1  0  0  0  0
 20 19  1  0  0  0  0
 22 21  1  0  0  0  0
 23 22  2  0  0  0  0
 23 27  1  0  0  0  0
 24 25  2  0  0  0  0
 24 26  1  0  0  0  0
 27 24  1  0  0  0  0
 29 28  1  0  0  0  0
 30 29  1  0  0  0  0
 31 30  1  0  0  0  0
 32 31  1  0  0  0  0
 33 32  1  0  0  0  0
 35 34  1  0  0  0  0
 36 35  1  1  0  0  0
 36 41  1  0  0  0  0
 37 40  1  6  0  0  0
 37 39  1  0  0  0  0
 37 38  1  0  0  0  0
 38 36  1  1  0  0  0
 39 40  1  6  0  0  0
 39 38  1  0  0  0  0
 41 42  1  0  0  0  0
 41 43  1  0  0  0  0
M  END
>  <MODEL>
3

>  <REMARK>
 VINA RESULT:      -7.6      2.529      4.628
  Name = 
  16 active torsions:
  status: ('A' for Active; 'I' for Inactive)
    1  A    between atoms: C_1  and  C_11
    2  A    between atoms: C_1  and  O_30
    3  A    between atoms: O_2  and  C_3
    4  A    between atoms: O_2  and  C_4
    5  A    between atoms: C_3  and  C_27
    6  A    between atoms: C_4  and  C_15
    7  A    between atoms: C_4  and  C_23
    8  A    between atoms: C_6  and  C_25
    9  A    between atoms: C_6  and  C_43
   10  A    between atoms: C_7  and  C_20
   11  A    between atoms: C_7  and  C_25
   12  A    between atoms: O_17  and  C_22
   13  A    between atoms: C_22  and  C_39
   14  A    between atoms: C_25  and  O_30
   15  A    between atoms: N_37  and  N_42
   16  A    between atoms: C_39  and  C_43
                            x       y       z     vdW  Elec       q    Type
                         _______ _______ _______ _____ _____    ______ ____

>  <TORSDO>
F 16

$$$$
=
 OpenBabel11042412533D

 43 48  0  0  1  0  0  0  0  0999 V2000
  186.4550  178.2440  144.4480 C   0  0  0  0  0  0  0  0  0  0  0  0
  184.5480  179.5890  139.6370 O   0  0  0  0  0  0  0  0  0  0  0  0
  184.7590  178.6490  142.7150 C   0  0  0  0  0  0  0  0  0  0  0  0
  187.1100  178.0170  141.9050 C   0  0  2  0  0  3  0  0  0  0  0  0
  186.6710  178.2890  147.6400 N   0  0  0  0  0  0  0  0  0  0  0  0
  186.6860  178.6260  140.6350 N   0  0  0  0  0  0  0  0  0  0  0  0
  187.9860  177.8550  147.2010 C   0  0  0  0  0  2  0  0  0  0  0  0
  185.6450  178.6290  146.9140 C   0  0  0  0  0  3  0  0  0  0  0  0
  184.2840  178.4110  141.3070 C   0  0  1  0  0  3  0  0  0  0  0  0
  186.1130  178.3430  143.0630 C   0  0  0  0  0  0  0  0  0  0  0  0
  183.5450  179.4460  140.6340 C   0  0  2  0  0  3  0  0  0  0  0  0
  185.4220  178.7960  140.4630 C   0  0  0  0  0  0  0  0  0  0  0  0
  183.8320  178.9740  143.6960 C   0  0  0  0  0  3  0  0  0  0  0  0
  187.8320  177.7650  144.8080 C   0  0  0  0  0  2  0  0  0  0  0  0
  184.2080  178.9900  145.0310 C   0  0  0  0  0  3  0  0  0  0  0  0
  187.8820  176.9030  146.0410 C   0  0  0  0  0  2  0  0  0  0  0  0
  185.4940  178.6300  145.4350 C   0  0  0  0  0  0  0  0  0  0  0  0
  188.5250  178.5090  142.1730 C   0  0  0  0  0  2  0  0  0  0  0  0
  189.2350  178.5990  140.9740 O   0  0  0  0  0  0  0  0  0  0  0  0
  190.4040  177.8600  141.1950 C   0  0  1  0  0  3  0  0  0  0  0  0
  190.6540  177.6230  142.6860 C   0  0  0  0  0  2  0  0  0  0  0  0
  191.2780  176.2900  142.9640 C   0  0  0  0  0  3  0  0  0  0  0  0
  191.6350  175.9340  144.1580 N   0  0  0  0  0  0  0  0  0  0  0  0
  191.8230  176.3600  146.5760 C   0  0  0  0  0  0  0  0  0  0  0  0
  192.3650  175.2370  146.7610 O   0  0  0  0  0  0  0  0  0  0  0  0
  191.5870  177.2000  147.6560 O   0  0  0  0  0  1  0  0  0  0  0  0
  191.4490  176.7740  145.2640 N   0  0  0  0  0  2  0  0  0  0  0  0
  190.4230  176.5750  140.3670 C   0  0  0  0  0  2  0  0  0  0  0  0
  191.2150  176.7280  139.0730 C   0  0  0  0  0  2  0  0  0  0  0  0
  190.3830  176.2910  137.8840 C   0  0  0  0  0  2  0  0  0  0  0  0
  188.9870  176.8830  137.9680 C   0  0  0  0  0  2  0  0  0  0  0  0
  189.0360  178.2370  137.6400 O   0  0  0  0  0  0  0  0  0  0  0  0
  188.0070  178.4100  136.7140 C   0  0  0  0  0  1  0  0  0  0  0  0
  182.2430  178.9220  140.0270 C   0  0  0  0  0  2  0  0  0  0  0  0
  181.7720  177.7960  140.7110 O   0  0  0  0  0  0  0  0  0  0  0  0
  180.3770  177.8790  140.6300 C   0  0  2  0  0  3  0  0  0  0  0  0
  180.4230  178.5840  143.0160 C   0  0  1  0  0  3  0  0  0  0  0  0
  179.7620  177.6650  142.0050 C   0  0  1  0  0  3  0  0  0  0  0  0
  179.0650  178.9350  142.4620 C   0  0  1  0  0  3  0  0  0  0  0  0
  179.3530  179.1380  143.9380 C   0  0  0  0  0  2  0  0  0  0  0  0
  179.8390  176.8480  139.6400 C   0  0  0  0  0  3  0  0  0  0  0  0
  179.7260  177.4190  138.3720 O   0  0  0  0  0  1  0  0  0  0  0  0
  180.6820  175.7350  139.5770 O   0  0  0  0  0  1  0  0  0  0  0  0
  1 14  1  0  0  0  0
  1 17  1  0  0  0  0
  2 12  1  0  0  0  0
  2 11  1  0  0  0  0
  3 10  1  0  0  0  0
  3 13  2  0  0  0  0
  4 18  1  1  0  0  0
  4 10  1  0  0  0  0
  6  4  1  0  0  0  0
  7  5  1  0  0  0  0
  8  5  2  0  0  0  0
  9 12  1  6  0  0  0
  9  3  1  0  0  0  0
 10  1  2  0  0  0  0
 11 34  1  6  0  0  0
 11  9  1  0  0  0  0
 12  6  2  0  0  0  0
 13 15  1  0  0  0  0
 14 16  1  0  0  0  0
 15 17  2  0  0  0  0
 16  7  1  0  0  0  0
 17  8  1  0  0  0  0
 19 20  1  0  0  0  0
 19 18  1  0  0  0  0
 20 28  1  6  0  0  0
 20 21  1  0  0  0  0
 21 22  1  0  0  0  0
 22 23  2  0  0  0  0
 23 27  1  0  0  0  0
 24 25  2  0  0  0  0
 24 26  1  0  0  0  0
 27 24  1  0  0  0  0
 29 28  1  0  0  0  0
 30 31  1  0  0  0  0
 30 29  1  0  0  0  0
 32 31  1  0  0  0  0
 33 32  1  0  0  0  0
 34 35  1  0  0  0  0
 36 41  1  6  0  0  0
 36 35  1  0  0  0  0
 37 40  1  1  0  0  0
 38 36  1  6  0  0  0
 38 39  1  0  0  0  0
 38 37  1  0  0  0  0
 39 37  1  0  0  0  0
 39 40  1  1  0  0  0
 42 41  1  0  0  0  0
 43 41  1  0  0  0  0
M  END
>  <MODEL>
4

>  <REMARK>
 VINA RESULT:      -7.6      1.990      4.908
  Name = 
  16 active torsions:
  status: ('A' for Active; 'I' for Inactive)
    1  A    between atoms: C_1  and  C_11
    2  A    between atoms: C_1  and  O_30
    3  A    between atoms: O_2  and  C_3
    4  A    between atoms: O_2  and  C_4
    5  A    between atoms: C_3  and  C_27
    6  A    between atoms: C_4  and  C_15
    7  A    between atoms: C_4  and  C_23
    8  A    between atoms: C_6  and  C_25
    9  A    between atoms: C_6  and  C_43
   10  A    between atoms: C_7  and  C_20
   11  A    between atoms: C_7  and  C_25
   12  A    between atoms: O_17  and  C_22
   13  A    between atoms: C_22  and  C_39
   14  A    between atoms: C_25  and  O_30
   15  A    between atoms: N_37  and  N_42
   16  A    between atoms: C_39  and  C_43
                            x       y       z     vdW  Elec       q    Type
                         _______ _______ _______ _____ _____    ______ ____

>  <TORSDO>
F 16

$$$$
=
 OpenBabel11042412533D

 43 48  0  0  1  0  0  0  0  0999 V2000
  186.4910  178.1570  144.6490 C   0  0  0  0  0  0  0  0  0  0  0  0
  183.8310  179.3290  140.1600 O   0  0  0  0  0  0  0  0  0  0  0  0
  184.5390  178.4560  143.1830 C   0  0  0  0  0  0  0  0  0  0  0  0
  186.7710  177.9130  142.0380 C   0  0  2  0  0  3  0  0  0  0  0  0
  187.1750  178.2690  147.7720 N   0  0  0  0  0  0  0  0  0  0  0  0
  186.1350  178.4800  140.8390 N   0  0  0  0  0  0  0  0  0  0  0  0
  188.4300  177.8860  147.1460 C   0  0  0  0  0  2  0  0  0  0  0  0
  186.0390  178.5510  147.2030 C   0  0  0  0  0  3  0  0  0  0  0  0
  183.8720  178.1720  141.8640 C   0  0  1  0  0  3  0  0  0  0  0  0
  185.9420  178.2160  143.3280 C   0  0  0  0  0  0  0  0  0  0  0  0
  182.9940  179.1610  141.2970 C   0  0  2  0  0  3  0  0  0  0  0  0
  184.8530  178.5910  140.8560 C   0  0  0  0  0  0  0  0  0  0  0  0
  183.7550  178.7580  144.2880 C   0  0  0  0  0  3  0  0  0  0  0  0
  187.9270  177.7460  144.8040 C   0  0  0  0  0  2  0  0  0  0  0  0
  184.3230  178.8150  145.5510 C   0  0  0  0  0  3  0  0  0  0  0  0
  188.1980  176.9090  146.0250 C   0  0  0  0  0  2  0  0  0  0  0  0
  185.6700  178.5180  145.7630 C   0  0  0  0  0  0  0  0  0  0  0  0
  188.1860  178.4720  142.0870 C   0  0  0  0  0  2  0  0  0  0  0  0
  188.8520  178.1890  140.8930 O   0  0  0  0  0  0  0  0  0  0  0  0
  190.0040  177.4960  141.2820 C   0  0  1  0  0  3  0  0  0  0  0  0
  191.0080  177.3710  140.1330 C   0  0  0  0  0  2  0  0  0  0  0  0
  190.6580  176.2740  139.1750 C   0  0  0  0  0  3  0  0  0  0  0  0
  190.0880  176.5130  138.0360 N   0  0  0  0  0  0  0  0  0  0  0  0
  188.4180  178.2560  137.5500 C   0  0  0  0  0  0  0  0  0  0  0  0
  187.4760  177.4860  137.8810 O   0  0  0  0  0  1  0  0  0  0  0  0
  188.1370  179.5400  137.1030 O   0  0  0  0  0  0  0  0  0  0  0  0
  189.7720  177.8160  137.6290 N   0  0  0  0  0  2  0  0  0  0  0  0
  190.6130  178.0830  142.5560 C   0  0  0  0  0  2  0  0  0  0  0  0
  191.8020  177.2730  143.0590 C   0  0  0  0  0  2  0  0  0  0  0  0
  191.3500  176.2270  144.0590 C   0  0  0  0  0  2  0  0  0  0  0  0
  191.6750  176.6720  145.4740 C   0  0  0  0  0  2  0  0  0  0  0  0
  192.1510  175.5840  146.2040 O   0  0  0  0  0  0  0  0  0  0  0  0
  192.0480  175.9840  147.5370 C   0  0  0  0  0  1  0  0  0  0  0  0
  181.6420  178.5700  140.8970 C   0  0  0  0  0  2  0  0  0  0  0  0
  181.2610  178.9790  139.6140 O   0  0  0  0  0  0  0  0  0  0  0  0
  181.2910  177.8150  138.8370 C   0  0  2  0  0  3  0  0  0  0  0  0
  180.8160  179.4440  137.0170 C   0  0  1  0  0  3  0  0  0  0  0  0
  180.5460  178.0420  137.5310 C   0  0  1  0  0  3  0  0  0  0  0  0
  181.5360  178.2710  136.4030 C   0  0  1  0  0  3  0  0  0  0  0  0
  181.0070  179.3800  135.5130 C   0  0  0  0  0  2  0  0  0  0  0  0
  180.6760  176.6470  139.6050 C   0  0  0  0  0  3  0  0  0  0  0  0
  179.3850  176.3970  139.1410 O   0  0  0  0  0  1  0  0  0  0  0  0
  181.4550  175.4960  139.4620 O   0  0  0  0  0  1  0  0  0  0  0  0
  1 14  1  0  0  0  0
  1 17  1  0  0  0  0
  2 12  1  0  0  0  0
  2 11  1  0  0  0  0
  3 10  1  0  0  0  0
  3 13  2  0  0  0  0
  4 18  1  1  0  0  0
  4 10  1  0  0  0  0
  6 12  2  0  0  0  0
  6  4  1  0  0  0  0
  7  5  1  0  0  0  0
  8  5  2  0  0  0  0
  9 12  1  6  0  0  0
  9  3  1  0  0  0  0
 10  1  2  0  0  0  0
 11 34  1  6  0  0  0
 11  9  1  0  0  0  0
 13 15  1  0  0  0  0
 14 16  1  0  0  0  0
 15 17  2  0  0  0  0
 16  7  1  0  0  0  0
 17  8  1  0  0  0  0
 19 20  1  0  0  0  0
 19 18  1  0  0  0  0
 20 21  1  6  0  0  0
 20 28  1  0  0  0  0
 22 21  1  0  0  0  0
 23 22  2  0  0  0  0
 24 27  1  0  0  0  0
 24 25  1  0  0  0  0
 26 24  2  0  0  0  0
 27 23  1  0  0  0  0
 28 29  1  0  0  0  0
 29 30  1  0  0  0  0
 30 31  1  0  0  0  0
 31 32  1  0  0  0  0
 32 33  1  0  0  0  0
 35 34  1  0  0  0  0
 36 41  1  1  0  0  0
 36 35  1  0  0  0  0
 37 40  1  6  0  0  0
 37 38  1  0  0  0  0
 38 36  1  1  0  0  0
 39 40  1  6  0  0  0
 39 37  1  0  0  0  0
 39 38  1  0  0  0  0
 42 41  1  0  0  0  0
 43 41  1  0  0  0  0
M  END
>  <MODEL>
5

>  <REMARK>
 VINA RESULT:      -7.5      1.392      1.833
  Name = 
  16 active torsions:
  status: ('A' for Active; 'I' for Inactive)
    1  A    between atoms: C_1  and  C_11
    2  A    between atoms: C_1  and  O_30
    3  A    between atoms: O_2  and  C_3
    4  A    between atoms: O_2  and  C_4
    5  A    between atoms: C_3  and  C_27
    6  A    between atoms: C_4  and  C_15
    7  A    between atoms: C_4  and  C_23
    8  A    between atoms: C_6  and  C_25
    9  A    between atoms: C_6  and  C_43
   10  A    between atoms: C_7  and  C_20
   11  A    between atoms: C_7  and  C_25
   12  A    between atoms: O_17  and  C_22
   13  A    between atoms: C_22  and  C_39
   14  A    between atoms: C_25  and  O_30
   15  A    between atoms: N_37  and  N_42
   16  A    between atoms: C_39  and  C_43
                            x       y       z     vdW  Elec       q    Type
                         _______ _______ _______ _____ _____    ______ ____

>  <TORSDO>
F 16

$$$$
=
 OpenBabel11042412533D

 43 48  0  0  1  0  0  0  0  0999 V2000
  186.2410  178.2620  144.1330 C   0  0  0  0  0  0  0  0  0  0  0  0
  184.2930  179.5550  139.3240 O   0  0  0  0  0  0  0  0  0  0  0  0
  184.5310  178.6420  142.4080 C   0  0  0  0  0  0  0  0  0  0  0  0
  186.8810  178.0190  141.5870 C   0  0  2  0  0  3  0  0  0  0  0  0
  186.4780  178.3330  147.3230 N   0  0  0  0  0  0  0  0  0  0  0  0
  186.4440  178.6150  140.3150 N   0  0  0  0  0  0  0  0  0  0  0  0
  187.7930  177.9050  146.8780 C   0  0  0  0  0  2  0  0  0  0  0  0
  185.4450  178.6610  146.6010 C   0  0  0  0  0  3  0  0  0  0  0  0
  184.0480  178.3890  141.0050 C   0  0  1  0  0  3  0  0  0  0  0  0
  185.8890  178.3470  142.7490 C   0  0  0  0  0  0  0  0  0  0  0  0
  183.2970  179.4140  140.3290 C   0  0  2  0  0  3  0  0  0  0  0  0
  185.1780  178.7750  140.1510 C   0  0  0  0  0  0  0  0  0  0  0  0
  183.6090  178.9690  143.3930 C   0  0  0  0  0  3  0  0  0  0  0  0
  187.6240  177.7950  144.4870 C   0  0  0  0  0  2  0  0  0  0  0  0
  183.9930  178.9980  144.7240 C   0  0  0  0  0  3  0  0  0  0  0  0
  187.6870  176.9430  145.7260 C   0  0  0  0  0  2  0  0  0  0  0  0
  185.2840  178.6490  145.1230 C   0  0  0  0  0  0  0  0  0  0  0  0
  188.2940  178.5230  141.8420 C   0  0  0  0  0  2  0  0  0  0  0  0
  189.0730  178.3620  140.6940 O   0  0  0  0  0  0  0  0  0  0  0  0
  189.8980  177.2660  140.9730 C   0  0  1  0  0  3  0  0  0  0  0  0
  190.9180  177.0240  139.8590 C   0  0  0  0  0  2  0  0  0  0  0  0
  192.3010  177.4610  140.2340 C   0  0  0  0  0  3  0  0  0  0  0  0
  193.3090  177.3140  139.4340 N   0  0  0  0  0  0  0  0  0  0  0  0
  194.0070  175.6770  137.7310 C   0  0  0  0  0  0  0  0  0  0  0  0
  194.8810  175.2020  138.5040 O   0  0  0  0  0  1  0  0  0  0  0  0
  193.8640  175.1620  136.4490 O   0  0  0  0  0  0  0  0  0  0  0  0
  193.1640  176.7430  138.1620 N   0  0  0  0  0  2  0  0  0  0  0  0
  190.5310  177.3750  142.3600 C   0  0  0  0  0  2  0  0  0  0  0  0
  190.5580  176.0390  143.0940 C   0  0  0  0  0  2  0  0  0  0  0  0
  191.5660  176.0740  144.2270 C   0  0  0  0  0  2  0  0  0  0  0  0
  191.4470  177.3750  145.0020 C   0  0  0  0  0  2  0  0  0  0  0  0
  191.5990  177.1180  146.3640 O   0  0  0  0  0  0  0  0  0  0  0  0
  192.0540  175.8020  146.4240 C   0  0  0  0  0  1  0  0  0  0  0  0
  181.9950  178.8770  139.7350 C   0  0  0  0  0  2  0  0  0  0  0  0
  182.1660  178.4650  138.4070 O   0  0  0  0  0  0  0  0  0  0  0  0
  181.7620  177.1250  138.3880 C   0  0  2  0  0  3  0  0  0  0  0  0
  184.0120  176.6620  137.4340 C   0  0  1  0  0  3  0  0  0  0  0  0
  182.5290  176.3650  137.3170 C   0  0  1  0  0  3  0  0  0  0  0  0
  183.4670  175.3620  137.9660 C   0  0  1  0  0  3  0  0  0  0  0  0
  184.7840  175.3750  137.2120 C   0  0  0  0  0  2  0  0  0  0  0  0
  180.2590  177.0260  138.1380 C   0  0  0  0  0  3  0  0  0  0  0  0
  179.9630  175.8390  137.4690 O   0  0  0  0  0  1  0  0  0  0  0  0
  179.5520  177.0710  139.3430 O   0  0  0  0  0  1  0  0  0  0  0  0
  1 14  1  0  0  0  0
  1 17  1  0  0  0  0
  2 12  1  0  0  0  0
  2 11  1  0  0  0  0
  3 10  1  0  0  0  0
  3 13  2  0  0  0  0
  4 18  1  1  0  0  0
  4 10  1  0  0  0  0
  6  4  1  0  0  0  0
  7  5  1  0  0  0  0
  8  5  2  0  0  0  0
  9 12  1  6  0  0  0
  9  3  1  0  0  0  0
 10  1  2  0  0  0  0
 11 34  1  6  0  0  0
 11  9  1  0  0  0  0
 12  6  2  0  0  0  0
 13 15  1  0  0  0  0
 14 16  1  0  0  0  0
 15 17  2  0  0  0  0
 16  7  1  0  0  0  0
 17  8  1  0  0  0  0
 19 20  1  0  0  0  0
 19 18  1  0  0  0  0
 20 21  1  6  0  0  0
 20 28  1  0  0  0  0
 21 22  1  0  0  0  0
 23 22  2  0  0  0  0
 24 27  1  0  0  0  0
 24 25  1  0  0  0  0
 26 24  2  0  0  0  0
 27 23  1  0  0  0  0
 28 29  1  0  0  0  0
 29 30  1  0  0  0  0
 30 31  1  0  0  0  0
 31 32  1  0  0  0  0
 32 33  1  0  0  0  0
 35 34  1  0  0  0  0
 36 41  1  6  0  0  0
 36 35  1  0  0  0  0
 37 40  1  6  0  0  0
 37 39  1  0  0  0  0
 38 37  1  0  0  0  0
 38 39  1  0  0  0  0
 38 36  1  1  0  0  0
 39 40  1  6  0  0  0
 41 43  1  0  0  0  0
 42 41  1  0  0  0  0
M  END
>  <MODEL>
6

>  <REMARK>
 VINA RESULT:      -7.3      2.026      2.361
  Name = 
  16 active torsions:
  status: ('A' for Active; 'I' for Inactive)
    1  A    between atoms: C_1  and  C_11
    2  A    between atoms: C_1  and  O_30
    3  A    between atoms: O_2  and  C_3
    4  A    between atoms: O_2  and  C_4
    5  A    between atoms: C_3  and  C_27
    6  A    between atoms: C_4  and  C_15
    7  A    between atoms: C_4  and  C_23
    8  A    between atoms: C_6  and  C_25
    9  A    between atoms: C_6  and  C_43
   10  A    between atoms: C_7  and  C_20
   11  A    between atoms: C_7  and  C_25
   12  A    between atoms: O_17  and  C_22
   13  A    between atoms: C_22  and  C_39
   14  A    between atoms: C_25  and  O_30
   15  A    between atoms: N_37  and  N_42
   16  A    between atoms: C_39  and  C_43
                            x       y       z     vdW  Elec       q    Type
                         _______ _______ _______ _____ _____    ______ ____

>  <TORSDO>
F 16

$$$$
=
 OpenBabel11042412533D

 43 48  0  0  1  0  0  0  0  0999 V2000
  186.6260  178.1530  144.9390 C   0  0  0  0  0  0  0  0  0  0  0  0
  184.3160  179.3830  140.2760 O   0  0  0  0  0  0  0  0  0  0  0  0
  184.7870  178.5540  143.3560 C   0  0  0  0  0  0  0  0  0  0  0  0
  187.0290  177.8080  142.3570 C   0  0  2  0  0  3  0  0  0  0  0  0
  187.1440  178.3100  148.0920 N   0  0  0  0  0  0  0  0  0  0  0  0
  186.5070  178.3830  141.1080 N   0  0  0  0  0  0  0  0  0  0  0  0
  188.3970  177.8140  147.5500 C   0  0  0  0  0  2  0  0  0  0  0  0
  186.0660  178.6590  147.4520 C   0  0  0  0  0  3  0  0  0  0  0  0
  184.1730  178.2800  142.0100 C   0  0  1  0  0  3  0  0  0  0  0  0
  186.1570  178.2120  143.5890 C   0  0  0  0  0  0  0  0  0  0  0  0
  183.4070  179.3140  141.3670 C   0  0  2  0  0  3  0  0  0  0  0  0
  185.2380  178.5910  141.0490 C   0  0  0  0  0  0  0  0  0  0  0  0
  183.9690  178.9490  144.4060 C   0  0  0  0  0  3  0  0  0  0  0  0
  188.0150  177.6390  145.1880 C   0  0  0  0  0  2  0  0  0  0  0  0
  184.4690  179.0010  145.6980 C   0  0  0  0  0  3  0  0  0  0  0  0
  188.1530  176.8230  146.4450 C   0  0  0  0  0  2  0  0  0  0  0  0
  185.7750  178.6100  145.9950 C   0  0  0  0  0  0  0  0  0  0  0  0
  188.4790  178.2590  142.4720 C   0  0  0  0  0  2  0  0  0  0  0  0
  189.3210  177.1470  142.5300 O   0  0  0  0  0  0  0  0  0  0  0  0
  190.4390  177.5050  141.7660 C   0  0  1  0  0  3  0  0  0  0  0  0
  191.7200  177.5140  142.6030 C   0  0  0  0  0  2  0  0  0  0  0  0
  191.6560  178.4730  143.7520 C   0  0  0  0  0  3  0  0  0  0  0  0
  191.6350  178.0690  144.9830 N   0  0  0  0  0  0  0  0  0  0  0  0
  191.8730  176.2820  146.6610 C   0  0  0  0  0  0  0  0  0  0  0  0
  191.9700  177.1280  147.5900 O   0  0  0  0  0  1  0  0  0  0  0  0
  191.9550  174.9260  146.9490 O   0  0  0  0  0  0  0  0  0  0  0  0
  191.6810  176.7080  145.3140 N   0  0  0  0  0  2  0  0  0  0  0  0
  190.5510  176.6600  140.4970 C   0  0  0  0  0  2  0  0  0  0  0  0
  190.5870  177.5100  139.2330 C   0  0  0  0  0  2  0  0  0  0  0  0
  189.3090  178.3170  139.0970 C   0  0  0  0  0  2  0  0  0  0  0  0
  188.9600  178.5140  137.6330 C   0  0  0  0  0  2  0  0  0  0  0  0
  187.6590  179.0010  137.5280 O   0  0  0  0  0  0  0  0  0  0  0  0
  186.8630  177.8590  137.4370 C   0  0  0  0  0  1  0  0  0  0  0  0
  182.0380  178.8150  140.9060 C   0  0  0  0  0  2  0  0  0  0  0  0
  181.9530  178.7600  139.5100 O   0  0  0  0  0  0  0  0  0  0  0  0
  181.7040  177.4140  139.2140 C   0  0  2  0  0  3  0  0  0  0  0  0
  182.6240  177.8890  136.9520 C   0  0  1  0  0  3  0  0  0  0  0  0
  181.4860  177.2420  137.7190 C   0  0  1  0  0  3  0  0  0  0  0  0
  182.5980  176.3920  137.1280 C   0  0  1  0  0  3  0  0  0  0  0  0
  183.0010  176.9860  135.7920 C   0  0  0  0  0  2  0  0  0  0  0  0
  180.4880  176.9150  139.9910 C   0  0  0  0  0  3  0  0  0  0  0  0
  179.3200  177.2030  139.2850 O   0  0  0  0  0  1  0  0  0  0  0  0
  180.5720  175.5390  140.2130 O   0  0  0  0  0  1  0  0  0  0  0  0
  1 14  1  0  0  0  0
  1 17  1  0  0  0  0
  2 12  1  0  0  0  0
  2 11  1  0  0  0  0
  3 10  1  0  0  0  0
  3 13  2  0  0  0  0
  4 18  1  1  0  0  0
  4 10  1  0  0  0  0
  6  4  1  0  0  0  0
  7  5  1  0  0  0  0
  8  5  2  0  0  0  0
  9 12  1  6  0  0  0
  9  3  1  0  0  0  0
 10  1  2  0  0  0  0
 11 34  1  6  0  0  0
 11  9  1  0  0  0  0
 12  6  2  0  0  0  0
 13 15  1  0  0  0  0
 14 16  1  0  0  0  0
 15 17  2  0  0  0  0
 16  7  1  0  0  0  0
 17  8  1  0  0  0  0
 18 19  1  0  0  0  0
 20 28  1  6  0  0  0
 20 19  1  0  0  0  0
 20 21  1  0  0  0  0
 21 22  1  0  0  0  0
 22 23  2  0  0  0  0
 23 27  1  0  0  0  0
 24 26  2  0  0  0  0
 24 25  1  0  0  0  0
 27 24  1  0  0  0  0
 29 28  1  0  0  0  0
 30 29  1  0  0  0  0
 31 30  1  0  0  0  0
 32 31  1  0  0  0  0
 33 32  1  0  0  0  0
 35 34  1  0  0  0  0
 36 35  1  6  0  0  0
 36 41  1  0  0  0  0
 37 40  1  6  0  0  0
 37 39  1  0  0  0  0
 37 38  1  0  0  0  0
 38 36  1  1  0  0  0
 39 40  1  6  0  0  0
 39 38  1  0  0  0  0
 41 43  1  0  0  0  0
 42 41  1  0  0  0  0
M  END
>  <MODEL>
7

>  <REMARK>
 VINA RESULT:      -7.2      1.822      4.688
  Name = 
  16 active torsions:
  status: ('A' for Active; 'I' for Inactive)
    1  A    between atoms: C_1  and  C_11
    2  A    between atoms: C_1  and  O_30
    3  A    between atoms: O_2  and  C_3
    4  A    between atoms: O_2  and  C_4
    5  A    between atoms: C_3  and  C_27
    6  A    between atoms: C_4  and  C_15
    7  A    between atoms: C_4  and  C_23
    8  A    between atoms: C_6  and  C_25
    9  A    between atoms: C_6  and  C_43
   10  A    between atoms: C_7  and  C_20
   11  A    between atoms: C_7  and  C_25
   12  A    between atoms: O_17  and  C_22
   13  A    between atoms: C_22  and  C_39
   14  A    between atoms: C_25  and  O_30
   15  A    between atoms: N_37  and  N_42
   16  A    between atoms: C_39  and  C_43
                            x       y       z     vdW  Elec       q    Type
                         _______ _______ _______ _____ _____    ______ ____

>  <TORSDO>
F 16

$$$$
=
 OpenBabel11042412533D

 43 48  0  0  1  0  0  0  0  0999 V2000
  186.9590  178.1200  144.8260 C   0  0  0  0  0  0  0  0  0  0  0  0
  184.9500  179.4190  140.0440 O   0  0  0  0  0  0  0  0  0  0  0  0
  185.2240  178.5610  143.1400 C   0  0  0  0  0  0  0  0  0  0  0  0
  187.5100  177.7860  142.2700 C   0  0  2  0  0  3  0  0  0  0  0  0
  187.2910  178.2480  148.0060 N   0  0  0  0  0  0  0  0  0  0  0  0
  187.0710  178.3780  140.9970 N   0  0  0  0  0  0  0  0  0  0  0  0
  188.5670  177.7350  147.5350 C   0  0  0  0  0  2  0  0  0  0  0  0
  186.2590  178.6190  147.3060 C   0  0  0  0  0  3  0  0  0  0  0  0
  184.6870  178.3060  141.7580 C   0  0  1  0  0  3  0  0  0  0  0  0
  186.5730  178.1960  143.4510 C   0  0  0  0  0  0  0  0  0  0  0  0
  183.9770  179.3570  141.0790 C   0  0  2  0  0  3  0  0  0  0  0  0
  185.8130  178.6070  140.8640 C   0  0  0  0  0  0  0  0  0  0  0  0
  184.3510  178.9620  144.1420 C   0  0  0  0  0  3  0  0  0  0  0  0
  188.3230  177.5830  145.1530 C   0  0  0  0  0  2  0  0  0  0  0  0
  184.7750  178.9980  145.4620 C   0  0  0  0  0  3  0  0  0  0  0  0
  188.3730  176.7560  146.4090 C   0  0  0  0  0  2  0  0  0  0  0  0
  186.0540  178.5840  145.8330 C   0  0  0  0  0  0  0  0  0  0  0  0
  188.9570  178.2120  142.4740 C   0  0  0  0  0  2  0  0  0  0  0  0
  189.8180  177.2550  141.9330 O   0  0  0  0  0  0  0  0  0  0  0  0
  191.0960  177.8130  142.0580 C   0  0  1  0  0  3  0  0  0  0  0  0
  191.6700  177.6090  143.4620 C   0  0  0  0  0  2  0  0  0  0  0  0
  191.6850  176.1700  143.8800 C   0  0  0  0  0  3  0  0  0  0  0  0
  191.8090  175.8160  145.1200 N   0  0  0  0  0  0  0  0  0  0  0  0
  192.0080  176.3580  147.5130 C   0  0  0  0  0  0  0  0  0  0  0  0
  192.0100  175.1360  147.8200 O   0  0  0  0  0  0  0  0  0  0  0  0
  192.0830  177.3210  148.5110 O   0  0  0  0  0  1  0  0  0  0  0  0
  191.9280  176.7610  146.1480 N   0  0  0  0  0  2  0  0  0  0  0  0
  192.0310  177.3350  140.9470 C   0  0  0  0  0  2  0  0  0  0  0  0
  191.4460  177.5590  139.5580 C   0  0  0  0  0  2  0  0  0  0  0  0
  190.9740  176.2470  138.9610 C   0  0  0  0  0  2  0  0  0  0  0  0
  192.0110  175.7000  137.9960 C   0  0  0  0  0  2  0  0  0  0  0  0
  192.8350  176.7380  137.5640 O   0  0  0  0  0  0  0  0  0  0  0  0
  193.7530  176.1250  136.7120 C   0  0  0  0  0  1  0  0  0  0  0  0
  182.6300  178.8830  140.5330 C   0  0  0  0  0  2  0  0  0  0  0  0
  182.7260  177.6100  139.9590 O   0  0  0  0  0  0  0  0  0  0  0  0
  181.9970  177.6930  138.7670 C   0  0  2  0  0  3  0  0  0  0  0  0
  181.1110  175.6310  139.8410 C   0  0  1  0  0  3  0  0  0  0  0  0
  181.2210  176.4050  138.5400 C   0  0  1  0  0  3  0  0  0  0  0  0
  179.9330  176.4290  139.3440 C   0  0  1  0  0  3  0  0  0  0  0  0
  179.7120  175.0530  139.9430 C   0  0  0  0  0  2  0  0  0  0  0  0
  182.9320  177.9660  137.5910 C   0  0  0  0  0  3  0  0  0  0  0  0
  184.0960  177.2090  137.7210 O   0  0  0  0  0  1  0  0  0  0  0  0
  182.3070  177.6570  136.3800 O   0  0  0  0  0  1  0  0  0  0  0  0
  1 14  1  0  0  0  0
  1 17  1  0  0  0  0
  2 12  1  0  0  0  0
  2 11  1  0  0  0  0
  3 10  1  0  0  0  0
  3 13  2  0  0  0  0
  4 18  1  1  0  0  0
  4 10  1  0  0  0  0
  6  4  1  0  0  0  0
  7  5  1  0  0  0  0
  8  5  2  0  0  0  0
  9 12  1  6  0  0  0
  9  3  1  0  0  0  0
 10  1  2  0  0  0  0
 11 34  1  6  0  0  0
 11  9  1  0  0  0  0
 12  6  2  0  0  0  0
 13 15  1  0  0  0  0
 14 16  1  0  0  0  0
 15 17  2  0  0  0  0
 16  7  1  0  0  0  0
 17  8  1  0  0  0  0
 19 20  1  0  0  0  0
 19 18  1  0  0  0  0
 20 28  1  6  0  0  0
 20 21  1  0  0  0  0
 21 22  1  0  0  0  0
 22 23  2  0  0  0  0
 23 27  1  0  0  0  0
 24 25  2  0  0  0  0
 24 26  1  0  0  0  0
 27 24  1  0  0  0  0
 29 28  1  0  0  0  0
 30 29  1  0  0  0  0
 31 30  1  0  0  0  0
 32 31  1  0  0  0  0
 33 32  1  0  0  0  0
 35 34  1  0  0  0  0
 36 41  1  6  0  0  0
 36 35  1  0  0  0  0
 37 40  1  6  0  0  0
 38 36  1  1  0  0  0
 38 39  1  0  0  0  0
 38 37  1  0  0  0  0
 39 37  1  0  0  0  0
 39 40  1  6  0  0  0
 41 42  1  0  0  0  0
 43 41  1  0  0  0  0
M  END
>  <MODEL>
8

>  <REMARK>
 VINA RESULT:      -7.2      2.211      4.805
  Name = 
  16 active torsions:
  status: ('A' for Active; 'I' for Inactive)
    1  A    between atoms: C_1  and  C_11
    2  A    between atoms: C_1  and  O_30
    3  A    between atoms: O_2  and  C_3
    4  A    between atoms: O_2  and  C_4
    5  A    between atoms: C_3  and  C_27
    6  A    between atoms: C_4  and  C_15
    7  A    between atoms: C_4  and  C_23
    8  A    between atoms: C_6  and  C_25
    9  A    between atoms: C_6  and  C_43
   10  A    between atoms: C_7  and  C_20
   11  A    between atoms: C_7  and  C_25
   12  A    between atoms: O_17  and  C_22
   13  A    between atoms: C_22  and  C_39
   14  A    between atoms: C_25  and  O_30
   15  A    between atoms: N_37  and  N_42
   16  A    between atoms: C_39  and  C_43
                            x       y       z     vdW  Elec       q    Type
                         _______ _______ _______ _____ _____    ______ ____

>  <TORSDO>
F 16

$$$$
=
 OpenBabel11042412533D

 43 48  0  0  1  0  0  0  0  0999 V2000
  186.2220  178.2890  141.3020 C   0  0  0  0  0  0  0  0  0  0  0  0
  191.2510  176.7060  142.1960 O   0  0  0  0  0  0  0  0  0  0  0  0
  188.2920  177.9280  142.5800 C   0  0  0  0  0  0  0  0  0  0  0  0
  188.5310  178.1580  140.0360 C   0  0  2  0  0  3  0  0  0  0  0  0
  183.0830  178.5520  141.8590 N   0  0  0  0  0  0  0  0  0  0  0  0
  189.8210  177.4800  140.2350 N   0  0  0  0  0  0  0  0  0  0  0  0
  183.2090  178.7610  140.4270 C   0  0  0  0  0  2  0  0  0  0  0  0
  184.0160  178.2750  142.7230 C   0  0  0  0  0  3  0  0  0  0  0  0
  189.7870  178.0770  142.6660 C   0  0  1  0  0  3  0  0  0  0  0  0
  187.6390  178.0900  141.3170 C   0  0  0  0  0  0  0  0  0  0  0  0
  190.5490  177.0830  143.3730 C   0  0  2  0  0  3  0  0  0  0  0  0
  190.2900  177.4600  141.4320 C   0  0  0  0  0  0  0  0  0  0  0  0
  187.5530  177.8330  143.7520 C   0  0  0  0  0  3  0  0  0  0  0  0
  185.5640  178.6180  139.9930 C   0  0  0  0  0  2  0  0  0  0  0  0
  186.1690  177.9090  143.7100 C   0  0  0  0  0  3  0  0  0  0  0  0
  184.4220  179.5910  140.1060 C   0  0  0  0  0  2  0  0  0  0  0  0
  185.4830  178.1380  142.5180 C   0  0  0  0  0  0  0  0  0  0  0  0
  187.8830  177.5160  138.8170 C   0  0  0  0  0  2  0  0  0  0  0  0
  188.2490  178.2090  137.6620 O   0  0  0  0  0  0  0  0  0  0  0  0
  187.3530  177.7660  136.6810 C   0  0  1  0  0  3  0  0  0  0  0  0
  188.0620  177.4620  135.3590 C   0  0  0  0  0  2  0  0  0  0  0  0
  189.5540  177.5140  135.4750 C   0  0  0  0  0  3  0  0  0  0  0  0
  190.2610  176.4560  135.7230 N   0  0  0  0  0  0  0  0  0  0  0  0
  189.8700  174.4380  137.0790 C   0  0  0  0  0  0  0  0  0  0  0  0
  190.5580  174.9060  138.0260 O   0  0  0  0  0  1  0  0  0  0  0  0
  189.3040  173.1750  137.1940 O   0  0  0  0  0  0  0  0  0  0  0  0
  189.6690  175.1970  135.8880 N   0  0  0  0  0  2  0  0  0  0  0  0
  186.4910  176.6090  137.1850 C   0  0  0  0  0  2  0  0  0  0  0  0
  185.0280  176.7570  136.7850 C   0  0  0  0  0  2  0  0  0  0  0  0
  184.6180  175.6420  135.8420 C   0  0  0  0  0  2  0  0  0  0  0  0
  185.5840  174.4750  135.9500 C   0  0  0  0  0  2  0  0  0  0  0  0
  184.8820  173.3230  136.2990 O   0  0  0  0  0  0  0  0  0  0  0  0
  185.3060  173.0340  137.5960 C   0  0  0  0  0  1  0  0  0  0  0  0
  191.4980  177.7060  144.3980 C   0  0  0  0  0  2  0  0  0  0  0  0
  190.8240  178.0680  145.5710 O   0  0  0  0  0  0  0  0  0  0  0  0
  190.6840  176.8760  146.2910 C   0  0  2  0  0  3  0  0  0  0  0  0
  188.8680  178.2500  147.2930 C   0  0  1  0  0  3  0  0  0  0  0  0
  189.8470  177.1170  147.5380 C   0  0  1  0  0  3  0  0  0  0  0  0
  188.3860  176.8230  147.2450 C   0  0  1  0  0  3  0  0  0  0  0  0
  187.5350  177.8830  147.9190 C   0  0  0  0  0  2  0  0  0  0  0  0
  192.0550  176.3190  146.6700 C   0  0  0  0  0  3  0  0  0  0  0  0
  192.2790  176.4920  148.0350 O   0  0  0  0  0  1  0  0  0  0  0  0
  192.1440  174.9620  146.3490 O   0  0  0  0  0  1  0  0  0  0  0  0
  1 10  2  0  0  0  0
  1 17  1  0  0  0  0
  2 11  1  0  0  0  0
  3  9  1  0  0  0  0
  3 13  2  0  0  0  0
  4 18  1  6  0  0  0
  4  6  1  0  0  0  0
  4 10  1  0  0  0  0
  5  8  2  0  0  0  0
  6 12  2  0  0  0  0
  7  5  1  0  0  0  0
  9 12  1  6  0  0  0
  9 11  1  0  0  0  0
 10  3  1  0  0  0  0
 11 34  1  1  0  0  0
 12  2  1  0  0  0  0
 14 16  1  0  0  0  0
 14  1  1  0  0  0  0
 15 13  1  0  0  0  0
 16  7  1  0  0  0  0
 17  8  1  0  0  0  0
 17 15  2  0  0  0  0
 19 18  1  0  0  0  0
 20 21  1  6  0  0  0
 20 28  1  0  0  0  0
 20 19  1  0  0  0  0
 21 22  1  0  0  0  0
 22 23  2  0  0  0  0
 23 27  1  0  0  0  0
 24 26  2  0  0  0  0
 24 25  1  0  0  0  0
 27 24  1  0  0  0  0
 29 28  1  0  0  0  0
 30 31  1  0  0  0  0
 30 29  1  0  0  0  0
 31 32  1  0  0  0  0
 32 33  1  0  0  0  0
 34 35  1  0  0  0  0
 36 35  1  1  0  0  0
 36 41  1  0  0  0  0
 37 38  1  0  0  0  0
 37 40  1  1  0  0  0
 38 36  1  6  0  0  0
 39 37  1  0  0  0  0
 39 38  1  0  0  0  0
 39 40  1  1  0  0  0
 41 42  1  0  0  0  0
 43 41  1  0  0  0  0
M  END
>  <MODEL>
9

>  <REMARK>
 VINA RESULT:      -7.1      2.785      8.242
  Name = 
  16 active torsions:
  status: ('A' for Active; 'I' for Inactive)
    1  A    between atoms: C_1  and  C_11
    2  A    between atoms: C_1  and  O_30
    3  A    between atoms: O_2  and  C_3
    4  A    between atoms: O_2  and  C_4
    5  A    between atoms: C_3  and  C_27
    6  A    between atoms: C_4  and  C_15
    7  A    between atoms: C_4  and  C_23
    8  A    between atoms: C_6  and  C_25
    9  A    between atoms: C_6  and  C_43
   10  A    between atoms: C_7  and  C_20
   11  A    between atoms: C_7  and  C_25
   12  A    between atoms: O_17  and  C_22
   13  A    between atoms: C_22  and  C_39
   14  A    between atoms: C_25  and  O_30
   15  A    between atoms: N_37  and  N_42
   16  A    between atoms: C_39  and  C_43
                            x       y       z     vdW  Elec       q    Type
                         _______ _______ _______ _____ _____    ______ ____

>  <TORSDO>
F 16

$$$$
