=
 OpenBabel11042413133D

 56 60  0  0  1  0  0  0  0  0999 V2000
  185.4490  178.5990  143.0870 C   0  0  1  0  0  3  0  0  0  0  0  0
  184.0310  178.2740  142.9830 N   0  0  0  0  0  2  0  0  0  0  0  0
  182.9950  179.1090  143.5080 C   0  0  0  0  0  0  0  0  0  0  0  0
  183.2760  180.1390  144.1840 O   0  0  0  0  0  0  0  0  0  0  0  0
  181.5700  178.7400  143.2820 C   0  0  0  0  0  2  0  0  0  0  0  0
  181.1550  179.1420  141.9490 N   0  0  0  0  0  2  0  0  0  0  0  0
  179.8240  178.0590  139.3120 C   0  0  0  0  0  0  0  0  0  0  0  0
  179.8320  177.0990  140.8240 S   0  0  0  0  0  0  0  0  0  0  0  0
  179.3160  179.4470  139.4580 C   0  0  0  0  0  2  0  0  0  0  0  0
  178.9730  179.6370  140.9210 C   0  0  1  0  0  3  0  0  0  0  0  0
  179.7930  178.6560  141.7540 C   0  0  2  0  0  3  0  0  0  0  0  0
  179.2050  180.9560  141.3100 O   0  0  0  0  0  1  0  0  0  0  0  0
  180.3720  177.6870  138.1480 C   0  0  0  0  0  3  0  0  0  0  0  0
  180.9650  176.4130  137.8530 N   0  0  0  0  0  2  0  0  0  0  0  0
  180.4670  175.4290  136.9030 C   0  0  0  0  0  2  0  0  0  0  0  0
  181.5910  174.5140  136.4620 C   0  0  0  0  0  2  0  0  0  0  0  0
  183.0310  171.7550  137.0570 C   0  0  0  0  0  1  0  0  0  0  0  0
  182.9290  175.0410  136.9590 C   0  0  1  0  0  3  0  0  0  0  0  0
  185.2080  174.2150  137.5920 O   0  0  0  0  0  0  0  0  0  0  0  0
  185.3510  172.1540  136.3700 C   0  0  0  0  0  2  0  0  0  0  0  0
  184.0500  174.0130  136.8310 C   0  0  1  0  0  0  0  0  0  0  0  0
  183.9400  172.6370  136.2170 C   0  0  2  0  0  3  0  0  0  0  0  0
  185.9350  173.0130  137.4860 C   0  0  0  0  0  2  0  0  0  0  0  0
  183.9010  175.1050  135.7930 C   0  0  0  0  0  2  0  0  0  0  0  0
  186.1770  177.5340  143.9010 C   0  0  0  0  0  2  0  0  0  0  0  0
  186.2150  177.9040  145.3540 C   0  0  0  0  0  0  0  0  0  0  0  0
  185.2210  178.3480  145.9060 O   0  0  0  0  0  0  0  0  0  0  0  0
  187.4850  177.7290  146.1220 C   0  0  0  0  0  2  0  0  0  0  0  0
  188.6660  177.4370  145.2030 C   0  0  0  0  0  2  0  0  0  0  0  0
  192.0440  176.2570  145.5130 C   0  0  0  0  0  3  0  0  0  0  0  0
  190.0060  177.6530  145.9020 C   0  0  1  0  0  3  0  0  0  0  0  0
  189.9440  177.0340  147.3090 C   0  0  0  0  0  2  0  0  0  0  0  0
  191.3290  176.6900  147.8400 C   0  0  0  0  0  2  0  0  0  0  0  0
  191.1420  177.1270  145.0350 C   0  0  0  0  0  0  0  0  0  0  0  0
  191.9550  175.6780  146.8890 C   0  0  0  0  0  2  0  0  0  0  0  0
  191.0670  178.8810  143.4330 O   0  0  0  0  0  1  0  0  0  0  0  0
  191.8790  176.8850  142.6700 O   0  0  0  0  0  0  0  0  0  0  0  0
  191.3520  177.6800  143.6830 C   0  0  0  0  0  0  0  0  0  0  0  0
  186.0520  178.6550  141.6960 C   0  0  0  0  0  2  0  0  0  0  0  0
  187.5260  178.3090  141.7390 C   0  0  0  0  0  2  0  0  0  0  0  0
  188.1120  178.3690  140.3390 C   0  0  0  0  0  2  0  0  0  0  0  0
  189.6130  178.1140  140.3390 C   0  0  0  0  0  2  0  0  0  0  0  0
  189.9310  176.7040  139.8720 C   0  0  0  0  0  2  0  0  0  0  0  0
  191.1980  176.7000  139.0370 C   0  0  0  0  0  2  0  0  0  0  0  0
  190.8660  176.7060  137.6110 N   0  0  0  0  0  0  0  0  0  0  0  0
  191.7690  175.8170  136.8630 C   0  0  2  0  0  3  0  0  0  0  0  0
  193.1960  174.0620  137.3010 O   0  0  0  0  0  0  0  0  0  0  0  0
  191.8630  174.4270  137.4350 C   0  0  0  0  0  2  0  0  0  0  0  0
  193.0640  176.3330  136.8360 O   0  0  0  0  0  0  0  0  0  0  0  0
  195.0900  175.1600  136.3550 C   0  0  0  0  0  1  0  0  0  0  0  0
  193.8900  175.2810  137.2710 C   0  0  2  0  0  3  0  0  0  0  0  0
  189.6030  176.2250  137.4780 O   0  0  0  0  0  0  0  0  0  0  0  0
  187.8090  176.1490  135.8970 C   0  0  0  0  0  1  0  0  0  0  0  0
  189.1090  176.8160  136.3110 C   0  0  1  0  0  3  0  0  0  0  0  0
  188.9220  178.3160  136.5040 C   0  0  0  0  0  2  0  0  0  0  0  0
  187.4620  178.6960  136.6970 C   0  0  0  0  0  1  0  0  0  0  0  0
  1 39  1  6  0  0  0
  1 25  1  0  0  0  0
  2  1  1  0  0  0  0
  2  3  1  0  0  0  0
  3  4  2  0  0  0  0
  5  3  1  0  0  0  0
  6  5  1  0  0  0  0
  7  9  1  0  0  0  0
  7  8  1  0  0  0  0
  8 11  1  0  0  0  0
  9 10  1  0  0  0  0
 10 12  1  1  0  0  0
 10 11  1  0  0  0  0
 11  6  1  6  0  0  0
 13  7  2  0  0  0  0
 14 13  1  0  0  0  0
 15 14  1  0  0  0  0
 16 15  1  0  0  0  0
 18 16  1  6  0  0  0
 20 23  1  0  0  0  0
 21 24  1  6  0  0  0
 21 18  1  0  0  0  0
 21 19  1  0  0  0  0
 22 20  1  0  0  0  0
 22 21  1  0  0  0  0
 22 17  1  1  0  0  0
 23 19  1  0  0  0  0
 24 18  1  0  0  0  0
 25 26  1  0  0  0  0
 26 27  2  0  0  0  0
 26 28  1  0  0  0  0
 29 28  1  0  0  0  0
 30 35  1  0  0  0  0
 31 29  1  6  0  0  0
 31 32  1  0  0  0  0
 32 33  1  0  0  0  0
 34 30  2  0  0  0  0
 34 31  1  0  0  0  0
 35 33  1  0  0  0  0
 36 38  1  0  0  0  0
 37 38  2  0  0  0  0
 38 34  1  0  0  0  0
 39 40  1  0  0  0  0
 41 40  1  0  0  0  0
 42 41  1  0  0  0  0
 43 42  1  0  0  0  0
 44 43  1  0  0  0  0
 45 44  1  0  0  0  0
 46 48  1  0  0  0  0
 46 45  1  1  0  0  0
 47 48  1  0  0  0  0
 49 46  1  0  0  0  0
 49 51  1  0  0  0  0
 51 50  1  6  0  0  0
 51 47  1  0  0  0  0
 52 45  1  0  0  0  0
 54 53  1  1  0  0  0
 54 55  1  0  0  0  0
 54 52  1  0  0  0  0
 55 56  1  0  0  0  0
M  END
>  <MODEL>
1

>  <REMARK>
 VINA RESULT:      -6.9      0.000      0.000
  Name = 
  25 active torsions:
  status: ('A' for Active; 'I' for Inactive)
    1  A    between atoms: C_1  and  C_32
    2  A    between atoms: C_3  and  C_9
    3  A    between atoms: C_3  and  C_25
    4  A    between atoms: C_4  and  C_35
    5  A    between atoms: C_5  and  C_25
    6  A    between atoms: C_5  and  C_35
    7  A    between atoms: C_7  and  N_13
    8  A    between atoms: C_9  and  N_11
    9  A    between atoms: C_9  and  C_15
   10  A    between atoms: C_12  and  C_21
   11  A    between atoms: C_12  and  C_55
   12  A    between atoms: N_13  and  O_51
   13  A    between atoms: N_13  and  C_53
   14  A    between atoms: C_14  and  N_54
   15  A    between atoms: C_14  and  C_56
   16  A    between atoms: C_15  and  C_21
   17  A    between atoms: C_27  and  N_46
   18  A    between atoms: C_28  and  C_44
   19  A    between atoms: C_29  and  C_53
   20  A    between atoms: C_29  and  C_55
   21  A    between atoms: C_32  and  O_51
   22  A    between atoms: C_33  and  C_56
   23  A    between atoms: C_36  and  N_54
   24  A    between atoms: C_42  and  C_47
   25  A    between atoms: N_46  and  C_47
                            x       y       z     vdW  Elec       q    Type
                         _______ _______ _______ _____ _____    ______ ____

>  <TORSDO>
F 25

$$$$
=
 OpenBabel11042413133D

 56 60  0  0  1  0  0  0  0  0999 V2000
  183.6260  178.2830  143.0020 C   0  0  1  0  0  3  0  0  0  0  0  0
  183.8740  178.1190  141.5740 N   0  0  0  0  0  2  0  0  0  0  0  0
  184.8600  178.8700  140.8610 C   0  0  0  0  0  0  0  0  0  0  0  0
  185.5060  179.7950  141.4300 O   0  0  0  0  0  0  0  0  0  0  0  0
  185.1050  178.5770  139.4210 C   0  0  0  0  0  2  0  0  0  0  0  0
  186.4970  178.2200  139.2110 N   0  0  0  0  0  2  0  0  0  0  0  0
  187.6490  176.2680  137.0310 C   0  0  0  0  0  0  0  0  0  0  0  0
  186.1380  177.1910  136.7620 S   0  0  0  0  0  0  0  0  0  0  0  0
  188.8100  177.0850  137.4680 C   0  0  0  0  0  2  0  0  0  0  0  0
  188.3210  178.5140  137.5840 C   0  0  1  0  0  3  0  0  0  0  0  0
  186.8120  178.5050  137.8160 C   0  0  2  0  0  3  0  0  0  0  0  0
  188.9920  179.1770  138.6110 O   0  0  0  0  0  1  0  0  0  0  0  0
  187.7600  174.9330  137.0260 C   0  0  0  0  0  3  0  0  0  0  0  0
  186.7270  173.9920  136.6940 N   0  0  0  0  0  2  0  0  0  0  0  0
  185.9490  173.1980  137.6320 C   0  0  0  0  0  2  0  0  0  0  0  0
  184.4740  173.5140  137.4870 C   0  0  0  0  0  2  0  0  0  0  0  0
  181.5180  174.5910  137.8560 C   0  0  0  0  0  1  0  0  0  0  0  0
  183.7090  172.2770  137.0430 C   0  0  1  0  0  3  0  0  0  0  0  0
  181.3700  171.5420  136.5270 O   0  0  0  0  0  0  0  0  0  0  0  0
  180.3080  173.6190  135.9570 C   0  0  0  0  0  2  0  0  0  0  0  0
  182.2890  172.5980  136.5830 C   0  0  1  0  0  0  0  0  0  0  0  0
  181.6690  173.9710  136.4770 C   0  0  2  0  0  3  0  0  0  0  0  0
  180.1150  172.1560  136.3390 C   0  0  0  0  0  2  0  0  0  0  0  0
  183.3890  172.3970  135.5620 C   0  0  0  0  0  2  0  0  0  0  0  0
  184.9030  178.7140  143.7160 C   0  0  0  0  0  2  0  0  0  0  0  0
  184.7450  178.6140  145.2030 C   0  0  0  0  0  0  0  0  0  0  0  0
  183.7800  179.1140  145.7580 O   0  0  0  0  0  0  0  0  0  0  0  0
  185.7840  177.8980  146.0050 C   0  0  0  0  0  2  0  0  0  0  0  0
  186.9700  177.4760  145.1450 C   0  0  0  0  0  2  0  0  0  0  0  0
  190.4150  176.6640  145.7570 C   0  0  0  0  0  3  0  0  0  0  0  0
  188.2960  177.9900  145.7000 C   0  0  1  0  0  3  0  0  0  0  0  0
  188.2750  177.8780  147.2350 C   0  0  0  0  0  2  0  0  0  0  0  0
  189.6790  177.8130  147.8190 C   0  0  0  0  0  2  0  0  0  0  0  0
  189.4590  177.2700  145.0350 C   0  0  0  0  0  0  0  0  0  0  0  0
  190.3630  176.5770  147.2490 C   0  0  0  0  0  2  0  0  0  0  0  0
  189.5210  176.3140  142.8600 O   0  0  0  0  0  0  0  0  0  0  0  0
  189.9110  178.5640  142.9570 O   0  0  0  0  0  1  0  0  0  0  0  0
  189.6330  177.3470  143.5720 C   0  0  0  0  0  0  0  0  0  0  0  0
  182.5650  179.3480  143.2050 C   0  0  0  0  0  2  0  0  0  0  0  0
  181.2940  178.9860  142.4660 C   0  0  0  0  0  2  0  0  0  0  0  0
  180.2550  180.0780  142.6570 C   0  0  0  0  0  2  0  0  0  0  0  0
  179.6090  180.4850  141.3400 C   0  0  0  0  0  2  0  0  0  0  0  0
  180.1520  179.6630  140.1840 C   0  0  0  0  0  2  0  0  0  0  0  0
  180.9040  180.5550  139.2130 C   0  0  0  0  0  2  0  0  0  0  0  0
  180.4020  180.3610  137.8510 N   0  0  0  0  0  0  0  0  0  0  0  0
  179.9950  181.6440  137.2600 C   0  0  2  0  0  3  0  0  0  0  0  0
  180.7480  183.1030  135.6430 O   0  0  0  0  0  0  0  0  0  0  0  0
  180.3510  181.7830  135.8030 C   0  0  0  0  0  2  0  0  0  0  0  0
  180.5940  182.7110  137.9270 O   0  0  0  0  0  0  0  0  0  0  0  0
  180.8630  184.9540  137.1440 C   0  0  0  0  0  1  0  0  0  0  0  0
  181.1880  183.4910  136.9180 C   0  0  2  0  0  3  0  0  0  0  0  0
  181.4190  179.8600  137.1030 O   0  0  0  0  0  0  0  0  0  0  0  0
  179.9660  178.0820  136.4290 C   0  0  0  0  0  1  0  0  0  0  0  0
  181.2510  178.4730  137.1400 C   0  0  1  0  0  3  0  0  0  0  0  0
  182.4550  177.7680  136.5270 C   0  0  0  0  0  2  0  0  0  0  0  0
  182.3580  177.6700  135.0120 C   0  0  0  0  0  1  0  0  0  0  0  0
  1 39  1  6  0  0  0
  1 25  1  0  0  0  0
  2  1  1  0  0  0  0
  3  4  2  0  0  0  0
  3  2  1  0  0  0  0
  5  3  1  0  0  0  0
  6  5  1  0  0  0  0
  7  9  1  0  0  0  0
  8  7  1  0  0  0  0
  8 11  1  0  0  0  0
  9 10  1  0  0  0  0
 10 11  1  0  0  0  0
 10 12  1  1  0  0  0
 11  6  1  1  0  0  0
 13  7  2  0  0  0  0
 14 13  1  0  0  0  0
 14 15  1  0  0  0  0
 16 15  1  0  0  0  0
 18 16  1  1  0  0  0
 19 21  1  0  0  0  0
 20 23  1  0  0  0  0
 20 22  1  0  0  0  0
 21 24  1  6  0  0  0
 21 18  1  0  0  0  0
 22 21  1  0  0  0  0
 22 17  1  1  0  0  0
 23 19  1  0  0  0  0
 24 18  1  0  0  0  0
 25 26  1  0  0  0  0
 26 27  2  0  0  0  0
 26 28  1  0  0  0  0
 29 28  1  0  0  0  0
 30 35  1  0  0  0  0
 31 29  1  6  0  0  0
 31 32  1  0  0  0  0
 32 33  1  0  0  0  0
 34 31  1  0  0  0  0
 34 30  2  0  0  0  0
 35 33  1  0  0  0  0
 36 38  2  0  0  0  0
 37 38  1  0  0  0  0
 38 34  1  0  0  0  0
 40 41  1  0  0  0  0
 40 39  1  0  0  0  0
 42 41  1  0  0  0  0
 43 42  1  0  0  0  0
 44 43  1  0  0  0  0
 45 44  1  0  0  0  0
 46 45  1  1  0  0  0
 46 49  1  0  0  0  0
 47 48  1  0  0  0  0
 47 51  1  0  0  0  0
 48 46  1  0  0  0  0
 51 50  1  1  0  0  0
 51 49  1  0  0  0  0
 52 54  1  0  0  0  0
 52 45  1  0  0  0  0
 54 53  1  6  0  0  0
 55 54  1  0  0  0  0
 56 55  1  0  0  0  0
M  END
>  <MODEL>
2

>  <REMARK>
 VINA RESULT:      -6.7      2.808      7.449
  Name = 
  25 active torsions:
  status: ('A' for Active; 'I' for Inactive)
    1  A    between atoms: C_1  and  C_32
    2  A    between atoms: C_3  and  C_9
    3  A    between atoms: C_3  and  C_25
    4  A    between atoms: C_4  and  C_35
    5  A    between atoms: C_5  and  C_25
    6  A    between atoms: C_5  and  C_35
    7  A    between atoms: C_7  and  N_13
    8  A    between atoms: C_9  and  N_11
    9  A    between atoms: C_9  and  C_15
   10  A    between atoms: C_12  and  C_21
   11  A    between atoms: C_12  and  C_55
   12  A    between atoms: N_13  and  O_51
   13  A    between atoms: N_13  and  C_53
   14  A    between atoms: C_14  and  N_54
   15  A    between atoms: C_14  and  C_56
   16  A    between atoms: C_15  and  C_21
   17  A    between atoms: C_27  and  N_46
   18  A    between atoms: C_28  and  C_44
   19  A    between atoms: C_29  and  C_53
   20  A    between atoms: C_29  and  C_55
   21  A    between atoms: C_32  and  O_51
   22  A    between atoms: C_33  and  C_56
   23  A    between atoms: C_36  and  N_54
   24  A    between atoms: C_42  and  C_47
   25  A    between atoms: N_46  and  C_47
                            x       y       z     vdW  Elec       q    Type
                         _______ _______ _______ _____ _____    ______ ____

>  <TORSDO>
F 25

$$$$
=
 OpenBabel11042413133D

 56 60  0  0  1  0  0  0  0  0999 V2000
  190.7190  176.1590  137.6300 C   0  0  1  0  0  3  0  0  0  0  0  0
  190.0310  176.2820  138.9100 N   0  0  0  0  0  2  0  0  0  0  0  0
  189.4880  177.5150  139.3920 C   0  0  0  0  0  0  0  0  0  0  0  0
  189.6700  178.5920  138.7580 O   0  0  0  0  0  0  0  0  0  0  0  0
  188.7280  177.5300  140.6720 C   0  0  0  0  0  2  0  0  0  0  0  0
  189.6090  177.8750  141.7740 N   0  0  0  0  0  2  0  0  0  0  0  0
  188.6090  177.2800  144.6960 C   0  0  0  0  0  0  0  0  0  0  0  0
  188.2260  176.1850  143.3300 S   0  0  0  0  0  0  0  0  0  0  0  0
  190.0480  177.6150  144.8430 C   0  0  0  0  0  2  0  0  0  0  0  0
  190.7780  176.9130  143.7170 C   0  0  1  0  0  3  0  0  0  0  0  0
  189.8010  176.6670  142.5700 C   0  0  2  0  0  3  0  0  0  0  0  0
  191.8740  177.6690  143.3000 O   0  0  0  0  0  1  0  0  0  0  0  0
  187.7120  177.9190  145.4590 C   0  0  0  0  0  3  0  0  0  0  0  0
  186.2850  177.7670  145.4080 N   0  0  0  0  0  2  0  0  0  0  0  0
  185.2970  178.7980  145.6830 C   0  0  0  0  0  2  0  0  0  0  0  0
  185.1010  179.6730  144.4610 C   0  0  0  0  0  2  0  0  0  0  0  0
  185.3600  179.0330  141.3700 C   0  0  0  0  0  1  0  0  0  0  0  0
  183.6300  179.7270  144.0790 C   0  0  1  0  0  3  0  0  0  0  0  0
  182.1270  179.2380  142.1350 O   0  0  0  0  0  0  0  0  0  0  0  0
  183.4090  177.6220  140.9060 C   0  0  0  0  0  2  0  0  0  0  0  0
  183.3270  178.9520  142.7990 C   0  0  1  0  0  0  0  0  0  0  0  0
  184.3070  178.1330  141.9930 C   0  0  2  0  0  3  0  0  0  0  0  0
  182.2340  178.5930  140.8870 C   0  0  0  0  0  2  0  0  0  0  0  0
  183.0480  178.3260  144.1500 C   0  0  0  0  0  2  0  0  0  0  0  0
  191.9950  175.3380  137.7920 C   0  0  0  0  0  2  0  0  0  0  0  0
  193.2100  176.2000  137.6260 C   0  0  0  0  0  0  0  0  0  0  0  0
  193.5690  176.9440  138.5240 O   0  0  0  0  0  0  0  0  0  0  0  0
  193.9790  176.1450  136.3450 C   0  0  0  0  0  2  0  0  0  0  0  0
  194.0310  174.7300  135.7770 C   0  0  0  0  0  2  0  0  0  0  0  0
  196.8850  173.6890  137.6930 C   0  0  0  0  0  3  0  0  0  0  0  0
  195.4570  174.1930  135.7020 C   0  0  1  0  0  3  0  0  0  0  0  0
  196.4180  175.3570  135.4040 C   0  0  0  0  0  2  0  0  0  0  0  0
  197.8370  175.0550  135.8660 C   0  0  0  0  0  2  0  0  0  0  0  0
  195.7910  173.4110  136.9650 C   0  0  0  0  0  0  0  0  0  0  0  0
  197.7990  174.8270  137.3720 C   0  0  0  0  0  2  0  0  0  0  0  0
  194.0140  171.8730  136.6200 O   0  0  0  0  0  0  0  0  0  0  0  0
  195.2970  171.4940  138.4730 O   0  0  0  0  0  1  0  0  0  0  0  0
  194.9860  172.2320  137.3350 C   0  0  0  0  0  0  0  0  0  0  0  0
  189.8070  175.4620  136.6380 C   0  0  0  0  0  2  0  0  0  0  0  0
  189.3830  174.1050  137.1630 C   0  0  0  0  0  2  0  0  0  0  0  0
  188.5730  173.3720  136.1080 C   0  0  0  0  0  2  0  0  0  0  0  0
  187.6540  172.3260  136.7220 C   0  0  0  0  0  2  0  0  0  0  0  0
  186.1940  172.6540  136.4590 C   0  0  0  0  0  2  0  0  0  0  0  0
  185.6790  173.6270  137.5030 C   0  0  0  0  0  2  0  0  0  0  0  0
  184.7010  174.5400  136.9070 N   0  0  0  0  0  0  0  0  0  0  0  0
  183.3410  174.2130  137.3620 C   0  0  2  0  0  3  0  0  0  0  0  0
  181.1840  174.9140  136.9570 O   0  0  0  0  0  0  0  0  0  0  0  0
  182.2870  174.3870  136.3000 C   0  0  0  0  0  2  0  0  0  0  0  0
  182.9690  175.0180  138.4370 O   0  0  0  0  0  0  0  0  0  0  0  0
  180.7600  175.4460  139.2440 C   0  0  0  0  0  1  0  0  0  0  0  0
  181.7220  175.5610  138.0790 C   0  0  2  0  0  3  0  0  0  0  0  0
  184.9930  175.7960  137.3350 O   0  0  0  0  0  0  0  0  0  0  0  0
  185.7750  176.3330  135.1380 C   0  0  0  0  0  1  0  0  0  0  0  0
  186.1260  176.1740  136.6070 C   0  0  1  0  0  3  0  0  0  0  0  0
  186.7250  177.4570  137.1720 C   0  0  0  0  0  2  0  0  0  0  0  0
  187.3430  178.3310  136.0920 C   0  0  0  0  0  1  0  0  0  0  0  0
  1 39  1  6  0  0  0
  1 25  1  0  0  0  0
  1  2  1  0  0  0  0
  2  3  1  0  0  0  0
  3  5  1  0  0  0  0
  4  3  2  0  0  0  0
  5  6  1  0  0  0  0
  7  9  1  0  0  0  0
  7 13  2  0  0  0  0
  8  7  1  0  0  0  0
 10 12  1  6  0  0  0
 10  9  1  0  0  0  0
 11  6  1  1  0  0  0
 11  8  1  0  0  0  0
 11 10  1  0  0  0  0
 14 13  1  0  0  0  0
 14 15  1  0  0  0  0
 16 15  1  0  0  0  0
 18 24  1  0  0  0  0
 18 16  1  1  0  0  0
 19 21  1  0  0  0  0
 20 22  1  0  0  0  0
 21 18  1  0  0  0  0
 21 24  1  1  0  0  0
 22 17  1  6  0  0  0
 22 21  1  0  0  0  0
 23 20  1  0  0  0  0
 23 19  1  0  0  0  0
 26 25  1  0  0  0  0
 26 27  2  0  0  0  0
 28 26  1  0  0  0  0
 29 28  1  0  0  0  0
 31 29  1  1  0  0  0
 31 34  1  0  0  0  0
 32 31  1  0  0  0  0
 32 33  1  0  0  0  0
 33 35  1  0  0  0  0
 34 38  1  0  0  0  0
 34 30  2  0  0  0  0
 35 30  1  0  0  0  0
 36 38  2  0  0  0  0
 38 37  1  0  0  0  0
 39 40  1  0  0  0  0
 41 42  1  0  0  0  0
 41 40  1  0  0  0  0
 43 42  1  0  0  0  0
 43 44  1  0  0  0  0
 45 52  1  0  0  0  0
 45 44  1  0  0  0  0
 46 45  1  6  0  0  0
 46 49  1  0  0  0  0
 47 51  1  0  0  0  0
 48 47  1  0  0  0  0
 48 46  1  0  0  0  0
 51 49  1  0  0  0  0
 51 50  1  1  0  0  0
 54 53  1  6  0  0  0
 54 55  1  0  0  0  0
 54 52  1  0  0  0  0
 56 55  1  0  0  0  0
M  END
>  <MODEL>
3

>  <REMARK>
 VINA RESULT:      -6.6      2.521      9.337
  Name = 
  25 active torsions:
  status: ('A' for Active; 'I' for Inactive)
    1  A    between atoms: C_1  and  C_32
    2  A    between atoms: C_3  and  C_9
    3  A    between atoms: C_3  and  C_25
    4  A    between atoms: C_4  and  C_35
    5  A    between atoms: C_5  and  C_25
    6  A    between atoms: C_5  and  C_35
    7  A    between atoms: C_7  and  N_13
    8  A    between atoms: C_9  and  N_11
    9  A    between atoms: C_9  and  C_15
   10  A    between atoms: C_12  and  C_21
   11  A    between atoms: C_12  and  C_55
   12  A    between atoms: N_13  and  O_51
   13  A    between atoms: N_13  and  C_53
   14  A    between atoms: C_14  and  N_54
   15  A    between atoms: C_14  and  C_56
   16  A    between atoms: C_15  and  C_21
   17  A    between atoms: C_27  and  N_46
   18  A    between atoms: C_28  and  C_44
   19  A    between atoms: C_29  and  C_53
   20  A    between atoms: C_29  and  C_55
   21  A    between atoms: C_32  and  O_51
   22  A    between atoms: C_33  and  C_56
   23  A    between atoms: C_36  and  N_54
   24  A    between atoms: C_42  and  C_47
   25  A    between atoms: N_46  and  C_47
                            x       y       z     vdW  Elec       q    Type
                         _______ _______ _______ _____ _____    ______ ____

>  <TORSDO>
F 25

$$$$
=
 OpenBabel11042413133D

 56 60  0  0  1  0  0  0  0  0999 V2000
  184.5500  178.0550  142.3030 C   0  0  1  0  0  3  0  0  0  0  0  0
  184.7940  177.7190  140.9050 N   0  0  0  0  0  2  0  0  0  0  0  0
  185.0110  178.7040  139.8900 C   0  0  0  0  0  0  0  0  0  0  0  0
  184.9020  179.9350  140.1500 O   0  0  0  0  0  0  0  0  0  0  0  0
  185.3360  178.2680  138.5030 C   0  0  0  0  0  2  0  0  0  0  0  0
  186.7740  178.1330  138.3460 N   0  0  0  0  0  2  0  0  0  0  0  0
  188.3980  176.3990  136.2840 C   0  0  0  0  0  0  0  0  0  0  0  0
  186.7440  176.9850  135.9230 S   0  0  0  0  0  0  0  0  0  0  0  0
  189.3460  177.4480  136.7360 C   0  0  0  0  0  2  0  0  0  0  0  0
  188.5720  178.7490  136.7800 C   0  0  1  0  0  3  0  0  0  0  0  0
  187.0880  178.4370  136.9540 C   0  0  2  0  0  3  0  0  0  0  0  0
  189.0460  179.5640  137.8080 O   0  0  0  0  0  1  0  0  0  0  0  0
  188.7780  175.1150  136.3320 C   0  0  0  0  0  3  0  0  0  0  0  0
  187.9740  173.9740  135.9940 N   0  0  0  0  0  2  0  0  0  0  0  0
  187.7380  172.8070  136.8310 C   0  0  0  0  0  2  0  0  0  0  0  0
  186.3150  172.3170  136.6540 C   0  0  0  0  0  2  0  0  0  0  0  0
  183.6730  170.7160  135.9540 C   0  0  0  0  0  1  0  0  0  0  0  0
  185.3770  173.4910  136.4190 C   0  0  1  0  0  3  0  0  0  0  0  0
  182.9480  173.9640  136.0280 O   0  0  0  0  0  0  0  0  0  0  0  0
  181.8990  172.0390  137.0080 C   0  0  0  0  0  2  0  0  0  0  0  0
  183.9080  173.1100  136.5860 C   0  0  1  0  0  0  0  0  0  0  0  0
  183.3720  171.7630  137.0120 C   0  0  2  0  0  3  0  0  0  0  0  0
  181.7350  173.2500  136.0960 C   0  0  0  0  0  2  0  0  0  0  0  0
  184.6440  173.8050  137.7120 C   0  0  0  0  0  2  0  0  0  0  0  0
  185.8140  178.6270  142.9380 C   0  0  0  0  0  2  0  0  0  0  0  0
  186.0140  178.0780  144.3190 C   0  0  0  0  0  0  0  0  0  0  0  0
  185.1010  178.0880  145.1280 O   0  0  0  0  0  0  0  0  0  0  0  0
  187.3480  177.5190  144.7000 C   0  0  0  0  0  2  0  0  0  0  0  0
  188.3250  177.5390  143.5280 C   0  0  0  0  0  2  0  0  0  0  0  0
  191.5780  176.0590  143.8830 C   0  0  0  0  0  3  0  0  0  0  0  0
  189.7630  177.7760  143.9820 C   0  0  1  0  0  3  0  0  0  0  0  0
  189.8330  177.6510  145.5140 C   0  0  0  0  0  2  0  0  0  0  0  0
  191.2360  177.3040  145.9920 C   0  0  0  0  0  2  0  0  0  0  0  0
  190.7100  176.8500  143.2330 C   0  0  0  0  0  0  0  0  0  0  0  0
  191.6200  175.9650  145.3750 C   0  0  0  0  0  2  0  0  0  0  0  0
  190.0940  176.1320  141.0530 O   0  0  0  0  0  0  0  0  0  0  0  0
  191.6170  177.8350  141.1350 O   0  0  0  0  0  1  0  0  0  0  0  0
  190.7870  176.9100  141.7610 C   0  0  0  0  0  0  0  0  0  0  0  0
  183.4470  179.0920  142.3830 C   0  0  0  0  0  2  0  0  0  0  0  0
  182.0870  178.4380  142.2490 C   0  0  0  0  0  2  0  0  0  0  0  0
  181.0120  179.3640  142.7910 C   0  0  0  0  0  2  0  0  0  0  0  0
  179.6960  179.2100  142.0400 C   0  0  0  0  0  2  0  0  0  0  0  0
  179.9260  178.7020  140.6270 C   0  0  0  0  0  2  0  0  0  0  0  0
  180.2080  179.8640  139.6920 C   0  0  0  0  0  2  0  0  0  0  0  0
  180.7890  179.3770  138.4390 N   0  0  0  0  0  0  0  0  0  0  0  0
  181.3340  180.4930  137.6510 C   0  0  2  0  0  3  0  0  0  0  0  0
  180.9280  182.7420  137.3550 O   0  0  0  0  0  0  0  0  0  0  0  0
  181.2510  181.8260  138.3470 C   0  0  0  0  0  2  0  0  0  0  0  0
  180.6550  180.6250  136.4400 O   0  0  0  0  0  0  0  0  0  0  0  0
  180.5970  182.5320  135.0010 C   0  0  0  0  0  1  0  0  0  0  0  0
  180.2770  181.9780  136.3740 C   0  0  2  0  0  3  0  0  0  0  0  0
  181.8170  178.5470  138.7540 O   0  0  0  0  0  0  0  0  0  0  0  0
  182.3210  177.3940  136.7190 C   0  0  0  0  0  1  0  0  0  0  0  0
  181.5700  177.3720  138.0380 C   0  0  1  0  0  3  0  0  0  0  0  0
  181.9460  176.1490  138.8660 C   0  0  0  0  0  2  0  0  0  0  0  0
  180.7530  175.2450  139.1380 C   0  0  0  0  0  1  0  0  0  0  0  0
  1 39  1  6  0  0  0
  1 25  1  0  0  0  0
  2  1  1  0  0  0  0
  3  4  2  0  0  0  0
  3  2  1  0  0  0  0
  5  3  1  0  0  0  0
  6  5  1  0  0  0  0
  7 13  2  0  0  0  0
  7  9  1  0  0  0  0
  8  7  1  0  0  0  0
  8 11  1  0  0  0  0
  9 10  1  0  0  0  0
 10 11  1  0  0  0  0
 10 12  1  1  0  0  0
 11  6  1  1  0  0  0
 14 13  1  0  0  0  0
 14 15  1  0  0  0  0
 16 15  1  0  0  0  0
 18 21  1  0  0  0  0
 18 16  1  1  0  0  0
 18 24  1  0  0  0  0
 19 23  1  0  0  0  0
 19 21  1  0  0  0  0
 20 22  1  0  0  0  0
 21 22  1  0  0  0  0
 21 24  1  1  0  0  0
 22 17  1  6  0  0  0
 23 20  1  0  0  0  0
 25 26  1  0  0  0  0
 26 28  1  0  0  0  0
 26 27  2  0  0  0  0
 29 28  1  0  0  0  0
 30 35  1  0  0  0  0
 31 29  1  6  0  0  0
 31 32  1  0  0  0  0
 32 33  1  0  0  0  0
 34 30  2  0  0  0  0
 34 31  1  0  0  0  0
 35 33  1  0  0  0  0
 36 38  2  0  0  0  0
 37 38  1  0  0  0  0
 38 34  1  0  0  0  0
 40 39  1  0  0  0  0
 40 41  1  0  0  0  0
 42 41  1  0  0  0  0
 43 42  1  0  0  0  0
 44 43  1  0  0  0  0
 45 52  1  0  0  0  0
 45 44  1  0  0  0  0
 46 48  1  0  0  0  0
 46 45  1  1  0  0  0
 47 48  1  0  0  0  0
 49 46  1  0  0  0  0
 51 50  1  6  0  0  0
 51 49  1  0  0  0  0
 51 47  1  0  0  0  0
 54 53  1  6  0  0  0
 54 52  1  0  0  0  0
 54 55  1  0  0  0  0
 55 56  1  0  0  0  0
M  END
>  <MODEL>
4

>  <REMARK>
 VINA RESULT:      -6.5      2.643      7.379
  Name = 
  25 active torsions:
  status: ('A' for Active; 'I' for Inactive)
    1  A    between atoms: C_1  and  C_32
    2  A    between atoms: C_3  and  C_9
    3  A    between atoms: C_3  and  C_25
    4  A    between atoms: C_4  and  C_35
    5  A    between atoms: C_5  and  C_25
    6  A    between atoms: C_5  and  C_35
    7  A    between atoms: C_7  and  N_13
    8  A    between atoms: C_9  and  N_11
    9  A    between atoms: C_9  and  C_15
   10  A    between atoms: C_12  and  C_21
   11  A    between atoms: C_12  and  C_55
   12  A    between atoms: N_13  and  O_51
   13  A    between atoms: N_13  and  C_53
   14  A    between atoms: C_14  and  N_54
   15  A    between atoms: C_14  and  C_56
   16  A    between atoms: C_15  and  C_21
   17  A    between atoms: C_27  and  N_46
   18  A    between atoms: C_28  and  C_44
   19  A    between atoms: C_29  and  C_53
   20  A    between atoms: C_29  and  C_55
   21  A    between atoms: C_32  and  O_51
   22  A    between atoms: C_33  and  C_56
   23  A    between atoms: C_36  and  N_54
   24  A    between atoms: C_42  and  C_47
   25  A    between atoms: N_46  and  C_47
                            x       y       z     vdW  Elec       q    Type
                         _______ _______ _______ _____ _____    ______ ____

>  <TORSDO>
F 25

$$$$
=
 OpenBabel11042413133D

 56 60  0  0  1  0  0  0  0  0999 V2000
  185.8960  178.9490  141.8870 C   0  0  1  0  0  3  0  0  0  0  0  0
  185.1370  178.7810  140.6530 N   0  0  0  0  0  2  0  0  0  0  0  0
  183.7070  178.7820  140.6060 C   0  0  0  0  0  0  0  0  0  0  0  0
  183.0270  178.8320  141.6690 O   0  0  0  0  0  0  0  0  0  0  0  0
  183.0170  178.6890  139.2900 C   0  0  0  0  0  2  0  0  0  0  0  0
  182.7750  180.0180  138.7570 N   0  0  0  0  0  2  0  0  0  0  0  0
  180.5350  179.7570  136.5640 C   0  0  0  0  0  0  0  0  0  0  0  0
  180.4080  178.9200  138.1430 S   0  0  0  0  0  0  0  0  0  0  0  0
  180.8210  181.2110  136.6510 C   0  0  0  0  0  2  0  0  0  0  0  0
  180.9510  181.5460  138.1220 C   0  0  1  0  0  3  0  0  0  0  0  0
  181.3460  180.2840  138.8850 C   0  0  2  0  0  3  0  0  0  0  0  0
  181.8800  182.5680  138.3100 O   0  0  0  0  0  1  0  0  0  0  0  0
  180.5540  179.1610  135.3650 C   0  0  0  0  0  3  0  0  0  0  0  0
  180.3620  177.7620  135.1040 N   0  0  0  0  0  2  0  0  0  0  0  0
  181.3930  176.8030  134.7390 C   0  0  0  0  0  2  0  0  0  0  0  0
  182.1560  176.3620  135.9710 C   0  0  0  0  0  2  0  0  0  0  0  0
  184.5310  174.3510  135.3780 C   0  0  0  0  0  1  0  0  0  0  0  0
  181.5460  175.0920  136.5450 C   0  0  1  0  0  3  0  0  0  0  0  0
  182.1750  172.7260  137.0760 O   0  0  0  0  0  0  0  0  0  0  0  0
  184.5560  172.8890  137.3460 C   0  0  0  0  0  2  0  0  0  0  0  0
  182.6000  174.0510  136.9150 C   0  0  1  0  0  0  0  0  0  0  0  0
  184.0980  174.2190  136.8280 C   0  0  2  0  0  3  0  0  0  0  0  0
  183.3590  171.9650  137.1470 C   0  0  0  0  0  2  0  0  0  0  0  0
  181.9960  174.9340  137.9870 C   0  0  0  0  0  2  0  0  0  0  0  0
  185.6610  177.7620  142.8170 C   0  0  0  0  0  2  0  0  0  0  0  0
  185.7890  178.1740  144.2520 C   0  0  0  0  0  0  0  0  0  0  0  0
  185.1620  179.1300  144.6810 O   0  0  0  0  0  0  0  0  0  0  0  0
  186.6970  177.4060  145.1580 C   0  0  0  0  0  2  0  0  0  0  0  0
  188.0990  177.2740  144.5730 C   0  0  0  0  0  2  0  0  0  0  0  0
  191.3900  176.7820  145.9240 C   0  0  0  0  0  3  0  0  0  0  0  0
  189.1660  177.8450  145.5030 C   0  0  1  0  0  3  0  0  0  0  0  0
  188.8080  177.4910  146.9570 C   0  0  0  0  0  2  0  0  0  0  0  0
  190.0320  177.4980  147.8620 C   0  0  0  0  0  2  0  0  0  0  0  0
  190.5480  177.3790  145.0660 C   0  0  0  0  0  0  0  0  0  0  0  0
  191.0090  176.4550  147.3330 C   0  0  0  0  0  2  0  0  0  0  0  0
  190.9940  178.8880  143.2860 O   0  0  0  0  0  1  0  0  0  0  0  0
  191.5780  176.7130  142.9010 O   0  0  0  0  0  0  0  0  0  0  0  0
  191.0420  177.7050  143.7150 C   0  0  0  0  0  0  0  0  0  0  0  0
  187.3740  179.0310  141.5570 C   0  0  0  0  0  2  0  0  0  0  0  0
  187.6810  178.2710  140.2830 C   0  0  0  0  0  2  0  0  0  0  0  0
  189.0590  177.6370  140.3790 C   0  0  0  0  0  2  0  0  0  0  0  0
  189.8760  177.8590  139.1140 C   0  0  0  0  0  2  0  0  0  0  0  0
  190.7170  176.6390  138.7820 C   0  0  0  0  0  2  0  0  0  0  0  0
  190.9100  176.5270  137.2800 C   0  0  0  0  0  2  0  0  0  0  0  0
  191.2310  175.1470  136.9110 N   0  0  0  0  0  0  0  0  0  0  0  0
  190.1230  174.5400  136.1580 C   0  0  2  0  0  3  0  0  0  0  0  0
  187.8390  174.3100  136.3560 O   0  0  0  0  0  0  0  0  0  0  0  0
  188.8210  175.2870  136.2830 C   0  0  0  0  0  2  0  0  0  0  0  0
  189.8850  173.2360  136.5890 O   0  0  0  0  0  0  0  0  0  0  0  0
  187.9130  171.9270  136.2560 C   0  0  0  0  0  1  0  0  0  0  0  0
  188.5050  173.1830  136.8610 C   0  0  2  0  0  3  0  0  0  0  0  0
  192.3190  175.1790  136.0990 O   0  0  0  0  0  0  0  0  0  0  0  0
  193.8310  174.0180  137.5470 C   0  0  0  0  0  1  0  0  0  0  0  0
  193.4100  175.3530  136.9570 C   0  0  1  0  0  3  0  0  0  0  0  0
  194.5680  176.0230  136.2260 C   0  0  0  0  0  2  0  0  0  0  0  0
  195.5480  175.0120  135.6510 C   0  0  0  0  0  1  0  0  0  0  0  0
  1 39  1  6  0  0  0
  1 25  1  0  0  0  0
  2  1  1  0  0  0  0
  3  2  1  0  0  0  0
  3  4  2  0  0  0  0
  5  3  1  0  0  0  0
  6  5  1  0  0  0  0
  7  9  1  0  0  0  0
  7  8  1  0  0  0  0
  8 11  1  0  0  0  0
  9 10  1  0  0  0  0
 10 12  1  6  0  0  0
 10 11  1  0  0  0  0
 11  6  1  6  0  0  0
 13  7  2  0  0  0  0
 14 13  1  0  0  0  0
 15 14  1  0  0  0  0
 15 16  1  0  0  0  0
 18 16  1  6  0  0  0
 18 21  1  0  0  0  0
 18 24  1  0  0  0  0
 19 23  1  0  0  0  0
 21 19  1  0  0  0  0
 21 24  1  1  0  0  0
 22 17  1  6  0  0  0
 22 21  1  0  0  0  0
 22 20  1  0  0  0  0
 23 20  1  0  0  0  0
 25 26  1  0  0  0  0
 26 27  2  0  0  0  0
 26 28  1  0  0  0  0
 29 28  1  0  0  0  0
 30 35  1  0  0  0  0
 31 29  1  6  0  0  0
 31 32  1  0  0  0  0
 32 33  1  0  0  0  0
 34 31  1  0  0  0  0
 34 30  2  0  0  0  0
 35 33  1  0  0  0  0
 36 38  1  0  0  0  0
 37 38  2  0  0  0  0
 38 34  1  0  0  0  0
 40 41  1  0  0  0  0
 40 39  1  0  0  0  0
 42 41  1  0  0  0  0
 43 42  1  0  0  0  0
 44 43  1  0  0  0  0
 45 44  1  0  0  0  0
 46 48  1  0  0  0  0
 46 49  1  0  0  0  0
 46 45  1  1  0  0  0
 47 51  1  0  0  0  0
 48 47  1  0  0  0  0
 49 51  1  0  0  0  0
 51 50  1  6  0  0  0
 52 45  1  0  0  0  0
 52 54  1  0  0  0  0
 54 53  1  6  0  0  0
 55 54  1  0  0  0  0
 56 55  1  0  0  0  0
M  END
>  <MODEL>
5

>  <REMARK>
 VINA RESULT:      -6.4      1.975      3.285
  Name = 
  25 active torsions:
  status: ('A' for Active; 'I' for Inactive)
    1  A    between atoms: C_1  and  C_32
    2  A    between atoms: C_3  and  C_9
    3  A    between atoms: C_3  and  C_25
    4  A    between atoms: C_4  and  C_35
    5  A    between atoms: C_5  and  C_25
    6  A    between atoms: C_5  and  C_35
    7  A    between atoms: C_7  and  N_13
    8  A    between atoms: C_9  and  N_11
    9  A    between atoms: C_9  and  C_15
   10  A    between atoms: C_12  and  C_21
   11  A    between atoms: C_12  and  C_55
   12  A    between atoms: N_13  and  O_51
   13  A    between atoms: N_13  and  C_53
   14  A    between atoms: C_14  and  N_54
   15  A    between atoms: C_14  and  C_56
   16  A    between atoms: C_15  and  C_21
   17  A    between atoms: C_27  and  N_46
   18  A    between atoms: C_28  and  C_44
   19  A    between atoms: C_29  and  C_53
   20  A    between atoms: C_29  and  C_55
   21  A    between atoms: C_32  and  O_51
   22  A    between atoms: C_33  and  C_56
   23  A    between atoms: C_36  and  N_54
   24  A    between atoms: C_42  and  C_47
   25  A    between atoms: N_46  and  C_47
                            x       y       z     vdW  Elec       q    Type
                         _______ _______ _______ _____ _____    ______ ____

>  <TORSDO>
F 25

$$$$
=
 OpenBabel11042413133D

 56 60  0  0  1  0  0  0  0  0999 V2000
  185.4210  178.7960  143.2910 C   0  0  1  0  0  3  0  0  0  0  0  0
  184.0200  178.4330  143.1110 N   0  0  0  0  0  2  0  0  0  0  0  0
  182.9360  179.2970  143.4640 C   0  0  0  0  0  0  0  0  0  0  0  0
  183.1500  180.3960  144.0480 O   0  0  0  0  0  0  0  0  0  0  0  0
  181.5380  178.8780  143.1660 C   0  0  0  0  0  2  0  0  0  0  0  0
  181.2130  179.1680  141.7800 N   0  0  0  0  0  2  0  0  0  0  0  0
  179.8830  178.5620  138.9950 C   0  0  0  0  0  0  0  0  0  0  0  0
  180.0720  177.2910  140.2430 S   0  0  0  0  0  0  0  0  0  0  0  0
  179.2310  179.8100  139.4700 C   0  0  0  0  0  2  0  0  0  0  0  0
  178.9420  179.6190  140.9440 C   0  0  1  0  0  3  0  0  0  0  0  0
  179.9060  178.5800  141.5090 C   0  0  2  0  0  3  0  0  0  0  0  0
  179.0440  180.8330  141.6220 O   0  0  0  0  0  1  0  0  0  0  0  0
  180.4100  178.5320  137.7640 C   0  0  0  0  0  3  0  0  0  0  0  0
  181.1250  177.4390  137.1690 N   0  0  0  0  0  2  0  0  0  0  0  0
  180.5460  176.2110  136.6470 C   0  0  0  0  0  2  0  0  0  0  0  0
  181.6430  175.2550  136.2220 C   0  0  0  0  0  2  0  0  0  0  0  0
  184.1090  173.2820  136.4620 C   0  0  0  0  0  1  0  0  0  0  0  0
  181.0460  174.0370  135.5350 C   0  0  1  0  0  3  0  0  0  0  0  0
  181.5640  171.6240  135.1040 O   0  0  0  0  0  0  0  0  0  0  0  0
  183.0690  171.1060  136.9020 C   0  0  0  0  0  2  0  0  0  0  0  0
  181.7410  172.7380  135.9340 C   0  0  1  0  0  0  0  0  0  0  0  0
  182.8490  172.5880  136.9500 C   0  0  2  0  0  3  0  0  0  0  0  0
  182.5050  170.6760  135.5520 C   0  0  0  0  0  2  0  0  0  0  0  0
  180.4300  173.1270  136.5840 C   0  0  0  0  0  2  0  0  0  0  0  0
  186.1540  177.7070  144.0690 C   0  0  0  0  0  2  0  0  0  0  0  0
  186.2260  178.0480  145.5270 C   0  0  0  0  0  0  0  0  0  0  0  0
  185.2070  178.1730  146.1860 O   0  0  0  0  0  0  0  0  0  0  0  0
  187.5630  178.2390  146.1700 C   0  0  0  0  0  2  0  0  0  0  0  0
  188.4590  177.0190  145.9830 C   0  0  0  0  0  2  0  0  0  0  0  0
  191.8260  175.9430  145.3480 C   0  0  0  0  0  3  0  0  0  0  0  0
  189.9360  177.3560  146.1740 C   0  0  1  0  0  3  0  0  0  0  0  0
  190.3620  176.9590  147.5980 C   0  0  0  0  0  2  0  0  0  0  0  0
  191.8610  176.7170  147.6950 C   0  0  0  0  0  2  0  0  0  0  0  0
  190.7670  176.7190  145.0690 C   0  0  0  0  0  0  0  0  0  0  0  0
  192.2130  175.5800  146.7460 C   0  0  0  0  0  2  0  0  0  0  0  0
  189.9460  176.2310  142.8940 O   0  0  0  0  0  0  0  0  0  0  0  0
  190.8560  178.3110  143.1580 O   0  0  0  0  0  1  0  0  0  0  0  0
  190.5030  177.0610  143.6590 C   0  0  0  0  0  0  0  0  0  0  0  0
  186.0750  178.9550  141.9320 C   0  0  0  0  0  2  0  0  0  0  0  0
  187.3780  178.1840  141.8720 C   0  0  0  0  0  2  0  0  0  0  0  0
  188.2420  178.7160  140.7410 C   0  0  0  0  0  2  0  0  0  0  0  0
  188.5260  177.6500  139.6920 C   0  0  0  0  0  2  0  0  0  0  0  0
  187.9100  178.0190  138.3530 C   0  0  0  0  0  2  0  0  0  0  0  0
  188.9350  177.8700  137.2450 C   0  0  0  0  0  2  0  0  0  0  0  0
  189.7650  176.6860  137.4760 N   0  0  0  0  0  0  0  0  0  0  0  0
  189.4060  175.6080  136.5410 C   0  0  2  0  0  3  0  0  0  0  0  0
  187.5200  174.8140  135.4830 O   0  0  0  0  0  0  0  0  0  0  0  0
  188.2840  175.9670  135.6030 C   0  0  0  0  0  2  0  0  0  0  0  0
  189.0090  174.4640  137.2300 O   0  0  0  0  0  0  0  0  0  0  0  0
  187.7480  172.6170  136.3850 C   0  0  0  0  0  1  0  0  0  0  0  0
  187.7700  174.1050  136.6680 C   0  0  2  0  0  3  0  0  0  0  0  0
  191.0560  177.0320  137.2390 O   0  0  0  0  0  0  0  0  0  0  0  0
  193.2920  176.3630  137.7690 C   0  0  0  0  0  1  0  0  0  0  0  0
  191.8140  176.2210  138.0890 C   0  0  1  0  0  3  0  0  0  0  0  0
  191.5310  176.5590  139.5480 C   0  0  0  0  0  2  0  0  0  0  0  0
  192.6440  177.3850  140.1760 C   0  0  0  0  0  1  0  0  0  0  0  0
  1 39  1  6  0  0  0
  1 25  1  0  0  0  0
  2  1  1  0  0  0  0
  2  3  1  0  0  0  0
  3  4  2  0  0  0  0
  5  3  1  0  0  0  0
  6  5  1  0  0  0  0
  7  9  1  0  0  0  0
  7  8  1  0  0  0  0
  8 11  1  0  0  0  0
  9 10  1  0  0  0  0
 10 11  1  0  0  0  0
 10 12  1  1  0  0  0
 11  6  1  6  0  0  0
 13  7  2  0  0  0  0
 14 13  1  0  0  0  0
 15 14  1  0  0  0  0
 16 15  1  0  0  0  0
 18 21  1  0  0  0  0
 18 16  1  1  0  0  0
 18 24  1  0  0  0  0
 19 23  1  0  0  0  0
 19 21  1  0  0  0  0
 20 22  1  0  0  0  0
 21 24  1  1  0  0  0
 21 22  1  0  0  0  0
 22 17  1  6  0  0  0
 23 20  1  0  0  0  0
 25 26  1  0  0  0  0
 26 28  1  0  0  0  0
 26 27  2  0  0  0  0
 29 28  1  0  0  0  0
 30 35  1  0  0  0  0
 31 29  1  6  0  0  0
 31 32  1  0  0  0  0
 32 33  1  0  0  0  0
 34 30  2  0  0  0  0
 34 31  1  0  0  0  0
 35 33  1  0  0  0  0
 36 38  2  0  0  0  0
 37 38  1  0  0  0  0
 38 34  1  0  0  0  0
 40 39  1  0  0  0  0
 41 40  1  0  0  0  0
 42 41  1  0  0  0  0
 43 42  1  0  0  0  0
 44 45  1  0  0  0  0
 44 43  1  0  0  0  0
 46 49  1  0  0  0  0
 46 45  1  1  0  0  0
 47 48  1  0  0  0  0
 47 51  1  0  0  0  0
 48 46  1  0  0  0  0
 51 50  1  6  0  0  0
 51 49  1  0  0  0  0
 52 45  1  0  0  0  0
 52 54  1  0  0  0  0
 54 53  1  6  0  0  0
 54 55  1  0  0  0  0
 55 56  1  0  0  0  0
M  END
>  <MODEL>
6

>  <REMARK>
 VINA RESULT:      -6.1      1.307      2.737
  Name = 
  25 active torsions:
  status: ('A' for Active; 'I' for Inactive)
    1  A    between atoms: C_1  and  C_32
    2  A    between atoms: C_3  and  C_9
    3  A    between atoms: C_3  and  C_25
    4  A    between atoms: C_4  and  C_35
    5  A    between atoms: C_5  and  C_25
    6  A    between atoms: C_5  and  C_35
    7  A    between atoms: C_7  and  N_13
    8  A    between atoms: C_9  and  N_11
    9  A    between atoms: C_9  and  C_15
   10  A    between atoms: C_12  and  C_21
   11  A    between atoms: C_12  and  C_55
   12  A    between atoms: N_13  and  O_51
   13  A    between atoms: N_13  and  C_53
   14  A    between atoms: C_14  and  N_54
   15  A    between atoms: C_14  and  C_56
   16  A    between atoms: C_15  and  C_21
   17  A    between atoms: C_27  and  N_46
   18  A    between atoms: C_28  and  C_44
   19  A    between atoms: C_29  and  C_53
   20  A    between atoms: C_29  and  C_55
   21  A    between atoms: C_32  and  O_51
   22  A    between atoms: C_33  and  C_56
   23  A    between atoms: C_36  and  N_54
   24  A    between atoms: C_42  and  C_47
   25  A    between atoms: N_46  and  C_47
                            x       y       z     vdW  Elec       q    Type
                         _______ _______ _______ _____ _____    ______ ____

>  <TORSDO>
F 25

$$$$
=
 OpenBabel11042413133D

 56 60  0  0  1  0  0  0  0  0999 V2000
  189.6850  177.6590  140.3660 C   0  0  1  0  0  3  0  0  0  0  0  0
  188.6060  177.4140  139.4150 N   0  0  0  0  0  2  0  0  0  0  0  0
  188.2770  178.3160  138.3560 C   0  0  0  0  0  0  0  0  0  0  0  0
  188.8570  179.4330  138.2540 O   0  0  0  0  0  0  0  0  0  0  0  0
  187.2140  177.9440  137.3800 C   0  0  0  0  0  2  0  0  0  0  0  0
  187.4040  176.5770  136.9300 N   0  0  0  0  0  2  0  0  0  0  0  0
  184.6530  175.0570  136.8060 C   0  0  0  0  0  0  0  0  0  0  0  0
  184.8180  176.7490  136.2420 S   0  0  0  0  0  0  0  0  0  0  0  0
  185.6420  174.1090  136.2320 C   0  0  0  0  0  2  0  0  0  0  0  0
  186.5480  174.9160  135.3260 C   0  0  1  0  0  3  0  0  0  0  0  0
  186.5310  176.3740  135.7780 C   0  0  2  0  0  3  0  0  0  0  0  0
  187.8400  174.3930  135.3350 O   0  0  0  0  0  1  0  0  0  0  0  0
  183.8430  174.6360  137.7860 C   0  0  0  0  0  3  0  0  0  0  0  0
  182.8760  175.4280  138.4930 N   0  0  0  0  0  2  0  0  0  0  0  0
  181.4440  175.4700  138.2400 C   0  0  0  0  0  2  0  0  0  0  0  0
  180.8390  176.7130  138.8610 C   0  0  0  0  0  2  0  0  0  0  0  0
  181.1270  179.5220  140.2950 C   0  0  0  0  0  1  0  0  0  0  0  0
  180.2280  177.5970  137.7850 C   0  0  1  0  0  3  0  0  0  0  0  0
  179.9090  180.0210  137.2380 O   0  0  0  0  0  0  0  0  0  0  0  0
  181.6990  181.0500  138.4650 C   0  0  0  0  0  2  0  0  0  0  0  0
  180.6780  179.0520  137.8950 C   0  0  1  0  0  0  0  0  0  0  0  0
  181.6760  179.6110  138.8810 C   0  0  2  0  0  3  0  0  0  0  0  0
  180.3850  181.2570  137.7190 C   0  0  0  0  0  2  0  0  0  0  0  0
  181.3350  178.1280  136.8910 C   0  0  0  0  0  2  0  0  0  0  0  0
  189.3280  177.0810  141.7320 C   0  0  0  0  0  2  0  0  0  0  0  0
  190.0710  177.7920  142.8230 C   0  0  0  0  0  0  0  0  0  0  0  0
  191.1210  178.3660  142.5860 O   0  0  0  0  0  0  0  0  0  0  0  0
  189.5140  177.7880  144.2110 C   0  0  0  0  0  2  0  0  0  0  0  0
  187.9920  177.7020  144.2100 C   0  0  0  0  0  2  0  0  0  0  0  0
  186.4870  178.8160  147.2750 C   0  0  0  0  0  3  0  0  0  0  0  0
  187.4390  177.2610  145.5630 C   0  0  1  0  0  3  0  0  0  0  0  0
  188.6110  177.0330  146.5340 C   0  0  0  0  0  2  0  0  0  0  0  0
  188.1770  177.1580  147.9870 C   0  0  0  0  0  2  0  0  0  0  0  0
  186.4010  178.2590  146.0560 C   0  0  0  0  0  0  0  0  0  0  0  0
  187.6400  178.5690  148.1940 C   0  0  0  0  0  2  0  0  0  0  0  0
  185.2180  178.3780  143.9990 O   0  0  0  0  0  0  0  0  0  0  0  0
  184.0130  178.9320  145.8610 O   0  0  0  0  0  1  0  0  0  0  0  0
  185.1950  178.5260  145.2500 C   0  0  0  0  0  0  0  0  0  0  0  0
  190.9530  176.9930  139.8650 C   0  0  0  0  0  2  0  0  0  0  0  0
  190.6590  176.1220  138.6610 C   0  0  0  0  0  2  0  0  0  0  0  0
  191.9370  175.4550  138.1810 C   0  0  0  0  0  2  0  0  0  0  0  0
  192.4290  176.0460  136.8670 C   0  0  0  0  0  2  0  0  0  0  0  0
  192.8800  174.9570  135.9090 C   0  0  0  0  0  2  0  0  0  0  0  0
  193.4030  173.7610  136.6830 C   0  0  0  0  0  2  0  0  0  0  0  0
  194.8260  173.5570  136.4020 N   0  0  0  0  0  0  0  0  0  0  0  0
  195.6370  174.6050  137.0410 C   0  0  2  0  0  3  0  0  0  0  0  0
  197.7670  175.4660  136.8700 O   0  0  0  0  0  0  0  0  0  0  0  0
  196.6240  175.2600  136.1110 C   0  0  0  0  0  2  0  0  0  0  0  0
  196.3680  174.0860  138.1080 O   0  0  0  0  0  0  0  0  0  0  0  0
  198.2910  175.0410  139.1590 C   0  0  0  0  0  1  0  0  0  0  0  0
  197.6950  174.4920  137.8790 C   0  0  2  0  0  3  0  0  0  0  0  0
  195.1870  172.3630  136.9410 O   0  0  0  0  0  0  0  0  0  0  0  0
  196.8130  170.9100  135.9560 C   0  0  0  0  0  1  0  0  0  0  0  0
  195.4300  171.5280  135.8460 C   0  0  1  0  0  3  0  0  0  0  0  0
  194.3540  170.4540  135.7390 C   0  0  0  0  0  2  0  0  0  0  0  0
  194.1960  169.6640  137.0280 C   0  0  0  0  0  1  0  0  0  0  0  0
  1 39  1  6  0  0  0
  1 25  1  0  0  0  0
  2  1  1  0  0  0  0
  3  2  1  0  0  0  0
  4  3  2  0  0  0  0
  5  3  1  0  0  0  0
  6  5  1  0  0  0  0
  7 13  2  0  0  0  0
  8  7  1  0  0  0  0
  9  7  1  0  0  0  0
 10 12  1  1  0  0  0
 10 11  1  0  0  0  0
 10  9  1  0  0  0  0
 11  8  1  0  0  0  0
 11  6  1  1  0  0  0
 13 14  1  0  0  0  0
 15 14  1  0  0  0  0
 15 16  1  0  0  0  0
 18 21  1  0  0  0  0
 18 16  1  1  0  0  0
 19 23  1  0  0  0  0
 19 21  1  0  0  0  0
 20 22  1  0  0  0  0
 21 24  1  6  0  0  0
 21 22  1  0  0  0  0
 22 17  1  1  0  0  0
 23 20  1  0  0  0  0
 24 18  1  0  0  0  0
 25 26  1  0  0  0  0
 26 28  1  0  0  0  0
 27 26  2  0  0  0  0
 29 28  1  0  0  0  0
 30 35  1  0  0  0  0
 31 29  1  6  0  0  0
 31 34  1  0  0  0  0
 31 32  1  0  0  0  0
 32 33  1  0  0  0  0
 33 35  1  0  0  0  0
 34 30  2  0  0  0  0
 36 38  2  0  0  0  0
 38 37  1  0  0  0  0
 38 34  1  0  0  0  0
 40 39  1  0  0  0  0
 41 40  1  0  0  0  0
 42 41  1  0  0  0  0
 43 44  1  0  0  0  0
 43 42  1  0  0  0  0
 45 44  1  0  0  0  0
 45 52  1  0  0  0  0
 46 45  1  6  0  0  0
 46 49  1  0  0  0  0
 47 51  1  0  0  0  0
 48 47  1  0  0  0  0
 48 46  1  0  0  0  0
 51 49  1  0  0  0  0
 51 50  1  1  0  0  0
 54 53  1  1  0  0  0
 54 52  1  0  0  0  0
 55 54  1  0  0  0  0
 55 56  1  0  0  0  0
M  END
>  <MODEL>
7

>  <REMARK>
 VINA RESULT:      -5.9      2.641      6.590
  Name = 
  25 active torsions:
  status: ('A' for Active; 'I' for Inactive)
    1  A    between atoms: C_1  and  C_32
    2  A    between atoms: C_3  and  C_9
    3  A    between atoms: C_3  and  C_25
    4  A    between atoms: C_4  and  C_35
    5  A    between atoms: C_5  and  C_25
    6  A    between atoms: C_5  and  C_35
    7  A    between atoms: C_7  and  N_13
    8  A    between atoms: C_9  and  N_11
    9  A    between atoms: C_9  and  C_15
   10  A    between atoms: C_12  and  C_21
   11  A    between atoms: C_12  and  C_55
   12  A    between atoms: N_13  and  O_51
   13  A    between atoms: N_13  and  C_53
   14  A    between atoms: C_14  and  N_54
   15  A    between atoms: C_14  and  C_56
   16  A    between atoms: C_15  and  C_21
   17  A    between atoms: C_27  and  N_46
   18  A    between atoms: C_28  and  C_44
   19  A    between atoms: C_29  and  C_53
   20  A    between atoms: C_29  and  C_55
   21  A    between atoms: C_32  and  O_51
   22  A    between atoms: C_33  and  C_56
   23  A    between atoms: C_36  and  N_54
   24  A    between atoms: C_42  and  C_47
   25  A    between atoms: N_46  and  C_47
                            x       y       z     vdW  Elec       q    Type
                         _______ _______ _______ _____ _____    ______ ____

>  <TORSDO>
F 25

$$$$
=
 OpenBabel11042413133D

 56 60  0  0  1  0  0  0  0  0999 V2000
  190.8080  177.0300  137.6500 C   0  0  1  0  0  3  0  0  0  0  0  0
  190.0840  176.7240  138.8780 N   0  0  0  0  0  2  0  0  0  0  0  0
  190.4780  177.2170  140.1620 C   0  0  0  0  0  0  0  0  0  0  0  0
  191.5480  177.8740  140.3020 O   0  0  0  0  0  0  0  0  0  0  0  0
  189.6300  176.9230  141.3510 C   0  0  0  0  0  2  0  0  0  0  0  0
  190.3280  177.2980  142.5680 N   0  0  0  0  0  2  0  0  0  0  0  0
  188.0860  177.4870  144.7660 C   0  0  1  0  0  3  0  0  0  0  0  0
  188.1740  176.1050  143.6300 S   0  0  0  0  0  0  0  0  0  0  0  0
  189.3520  177.7880  145.4820 C   0  0  0  0  0  2  0  0  0  0  0  0
  190.3840  176.8000  144.9800 C   0  0  1  0  0  3  0  0  0  0  0  0
  189.9750  176.3180  143.5900 C   0  0  2  0  0  3  0  0  0  0  0  0
  191.6510  177.3830  144.9650 O   0  0  0  0  0  1  0  0  0  0  0  0
  187.0530  178.3310  144.8890 C   0  0  0  0  0  3  0  0  0  0  0  0
  185.7840  178.2300  144.2260 N   0  0  0  0  0  0  0  0  0  0  0  0
  184.6140  179.0590  144.4710 C   0  0  0  0  0  2  0  0  0  0  0  0
  183.4380  178.5550  143.6590 C   0  0  0  0  0  2  0  0  0  0  0  0
  182.5160  178.9760  140.6570 C   0  0  0  0  0  1  0  0  0  0  0  0
  182.2160  179.4280  143.9010 C   0  0  1  0  0  3  0  0  0  0  0  0
  180.2760  180.4110  142.6570 O   0  0  0  0  0  0  0  0  0  0  0  0
  180.0680  178.9150  140.7900 C   0  0  0  0  0  2  0  0  0  0  0  0
  181.2230  179.3820  142.7420 C   0  0  1  0  0  0  0  0  0  0  0  0
  181.3320  178.5310  141.4990 C   0  0  2  0  0  3  0  0  0  0  0  0
  179.6870  180.2660  141.3850 C   0  0  0  0  0  2  0  0  0  0  0  0
  180.9830  178.5430  143.9800 C   0  0  0  0  0  2  0  0  0  0  0  0
  191.7070  175.8600  137.2600 C   0  0  0  0  0  2  0  0  0  0  0  0
  193.1350  176.3010  137.1370 C   0  0  0  0  0  0  0  0  0  0  0  0
  193.7310  176.7470  138.1030 O   0  0  0  0  0  0  0  0  0  0  0  0
  193.8230  176.1930  135.8140 C   0  0  0  0  0  2  0  0  0  0  0  0
  194.4570  174.8200  135.6170 C   0  0  0  0  0  2  0  0  0  0  0  0
  197.3060  172.9330  136.7220 C   0  0  0  0  0  3  0  0  0  0  0  0
  195.2700  174.3810  136.8320 C   0  0  1  0  0  3  0  0  0  0  0  0
  194.5590  173.1980  137.5120 C   0  0  0  0  0  2  0  0  0  0  0  0
  195.5230  172.3530  138.3330 C   0  0  0  0  0  2  0  0  0  0  0  0
  196.7100  174.0990  136.4260 C   0  0  0  0  0  0  0  0  0  0  0  0
  196.5840  171.8050  137.3880 C   0  0  0  0  0  2  0  0  0  0  0  0
  197.3070  176.3750  136.0960 O   0  0  0  0  0  1  0  0  0  0  0  0
  198.5560  174.8520  134.9370 O   0  0  0  0  0  0  0  0  0  0  0  0
  197.5260  175.1660  135.8180 C   0  0  0  0  0  0  0  0  0  0  0  0
  189.8130  177.2790  136.5320 C   0  0  0  0  0  2  0  0  0  0  0  0
  188.8170  178.3480  136.9320 C   0  0  0  0  0  2  0  0  0  0  0  0
  187.4040  177.7950  136.8520 C   0  0  0  0  0  2  0  0  0  0  0  0
  187.1760  177.0010  135.5730 C   0  0  0  0  0  2  0  0  0  0  0  0
  185.9820  176.0720  135.7080 C   0  0  0  0  0  2  0  0  0  0  0  0
  185.8890  175.5400  137.1260 C   0  0  0  0  0  2  0  0  0  0  0  0
  184.5590  174.9780  137.3720 N   0  0  0  0  0  0  0  0  0  0  0  0
  183.6230  176.0270  137.8050 C   0  0  2  0  0  3  0  0  0  0  0  0
  181.5480  176.1710  138.7950 O   0  0  0  0  0  0  0  0  0  0  0  0
  182.8170  175.6580  139.0220 C   0  0  0  0  0  2  0  0  0  0  0  0
  182.7140  176.3300  136.7930 O   0  0  0  0  0  0  0  0  0  0  0  0
  180.6110  177.4460  137.0090 C   0  0  0  0  0  1  0  0  0  0  0  0
  181.4460  176.2430  137.3970 C   0  0  2  0  0  3  0  0  0  0  0  0
  184.1020  174.4690  136.1980 O   0  0  0  0  0  0  0  0  0  0  0  0
  182.9660  172.4590  136.8260 C   0  0  0  0  0  1  0  0  0  0  0  0
  184.2530  173.0840  136.3180 C   0  0  1  0  0  3  0  0  0  0  0  0
  184.6750  172.4720  134.9870 C   0  0  0  0  0  2  0  0  0  0  0  0
  185.0480  171.0040  135.1190 C   0  0  0  0  0  1  0  0  0  0  0  0
  1 39  1  6  0  0  0
  1  2  1  0  0  0  0
  2  3  1  0  0  0  0
  3  4  2  0  0  0  0
  3  5  1  0  0  0  0
  5  6  1  0  0  0  0
  7 13  1  6  0  0  0
  7  9  1  0  0  0  0
  8  7  1  0  0  0  0
 10 12  1  6  0  0  0
 10  9  1  0  0  0  0
 11  6  1  6  0  0  0
 11  8  1  0  0  0  0
 11 10  1  0  0  0  0
 14 15  1  0  0  0  0
 14 13  2  0  0  0  0
 16 15  1  0  0  0  0
 18 16  1  6  0  0  0
 18 24  1  0  0  0  0
 19 21  1  0  0  0  0
 20 23  1  0  0  0  0
 20 22  1  0  0  0  0
 21 18  1  0  0  0  0
 21 24  1  1  0  0  0
 22 17  1  6  0  0  0
 22 21  1  0  0  0  0
 23 19  1  0  0  0  0
 25  1  1  0  0  0  0
 26 25  1  0  0  0  0
 26 27  2  0  0  0  0
 28 26  1  0  0  0  0
 29 28  1  0  0  0  0
 30 35  1  0  0  0  0
 31 29  1  6  0  0  0
 31 32  1  0  0  0  0
 32 33  1  0  0  0  0
 34 30  2  0  0  0  0
 34 31  1  0  0  0  0
 35 33  1  0  0  0  0
 37 38  2  0  0  0  0
 38 36  1  0  0  0  0
 38 34  1  0  0  0  0
 39 40  1  0  0  0  0
 41 40  1  0  0  0  0
 42 43  1  0  0  0  0
 42 41  1  0  0  0  0
 43 44  1  0  0  0  0
 44 45  1  0  0  0  0
 46 45  1  6  0  0  0
 46 48  1  0  0  0  0
 47 48  1  0  0  0  0
 49 51  1  0  0  0  0
 49 46  1  0  0  0  0
 51 50  1  1  0  0  0
 51 47  1  0  0  0  0
 52 54  1  0  0  0  0
 52 45  1  0  0  0  0
 54 53  1  6  0  0  0
 55 56  1  0  0  0  0
 55 54  1  0  0  0  0
M  END
>  <MODEL>
8

>  <REMARK>
 VINA RESULT:      -5.8      2.485      9.502
  Name = 
  25 active torsions:
  status: ('A' for Active; 'I' for Inactive)
    1  A    between atoms: C_1  and  C_32
    2  A    between atoms: C_3  and  C_9
    3  A    between atoms: C_3  and  C_25
    4  A    between atoms: C_4  and  C_35
    5  A    between atoms: C_5  and  C_25
    6  A    between atoms: C_5  and  C_35
    7  A    between atoms: C_7  and  N_13
    8  A    between atoms: C_9  and  N_11
    9  A    between atoms: C_9  and  C_15
   10  A    between atoms: C_12  and  C_21
   11  A    between atoms: C_12  and  C_55
   12  A    between atoms: N_13  and  O_51
   13  A    between atoms: N_13  and  C_53
   14  A    between atoms: C_14  and  N_54
   15  A    between atoms: C_14  and  C_56
   16  A    between atoms: C_15  and  C_21
   17  A    between atoms: C_27  and  N_46
   18  A    between atoms: C_28  and  C_44
   19  A    between atoms: C_29  and  C_53
   20  A    between atoms: C_29  and  C_55
   21  A    between atoms: C_32  and  O_51
   22  A    between atoms: C_33  and  C_56
   23  A    between atoms: C_36  and  N_54
   24  A    between atoms: C_42  and  C_47
   25  A    between atoms: N_46  and  C_47
                            x       y       z     vdW  Elec       q    Type
                         _______ _______ _______ _____ _____    ______ ____

>  <TORSDO>
F 25

$$$$
=
 OpenBabel11042413133D

 56 60  0  0  1  0  0  0  0  0999 V2000
  183.6430  178.3240  141.6990 C   0  0  1  0  0  3  0  0  0  0  0  0
  184.7370  177.9220  140.8230 N   0  0  0  0  0  2  0  0  0  0  0  0
  185.2300  178.7420  139.7590 C   0  0  0  0  0  0  0  0  0  0  0  0
  184.6620  179.8320  139.4670 O   0  0  0  0  0  0  0  0  0  0  0  0
  186.4070  178.2870  138.9680 C   0  0  0  0  0  2  0  0  0  0  0  0
  186.1860  178.5340  137.5540 N   0  0  0  0  0  2  0  0  0  0  0  0
  188.9930  177.1480  137.2470 C   0  0  0  0  0  0  0  0  0  0  0  0
  187.5730  176.2640  137.8880 S   0  0  0  0  0  0  0  0  0  0  0  0
  188.7640  177.8430  135.9550 C   0  0  0  0  0  2  0  0  0  0  0  0
  187.3180  177.5990  135.5770 C   0  0  1  0  0  3  0  0  0  0  0  0
  186.5170  177.3040  136.8420 C   0  0  2  0  0  3  0  0  0  0  0  0
  186.8010  178.6970  134.8900 O   0  0  0  0  0  1  0  0  0  0  0  0
  190.1440  177.3540  137.9000 C   0  0  0  0  0  3  0  0  0  0  0  0
  190.5070  176.8170  139.1810 N   0  0  0  0  0  2  0  0  0  0  0  0
  189.9330  177.1870  140.4660 C   0  0  0  0  0  2  0  0  0  0  0  0
  191.0350  177.4490  141.4740 C   0  0  0  0  0  2  0  0  0  0  0  0
  192.0150  178.7440  144.1930 C   0  0  0  0  0  1  0  0  0  0  0  0
  191.3610  176.1780  142.2420 C   0  0  1  0  0  3  0  0  0  0  0  0
  192.0030  175.4340  144.5470 O   0  0  0  0  0  0  0  0  0  0  0  0
  191.1460  177.2190  145.9060 C   0  0  0  0  0  2  0  0  0  0  0  0
  191.3510  176.3880  143.7550 C   0  0  1  0  0  0  0  0  0  0  0  0
  190.9890  177.6610  144.4820 C   0  0  2  0  0  3  0  0  0  0  0  0
  192.0650  176.0050  145.8340 C   0  0  0  0  0  2  0  0  0  0  0  0
  190.1510  175.7720  143.0660 C   0  0  0  0  0  2  0  0  0  0  0  0
  184.1580  179.2460  142.8000 C   0  0  0  0  0  2  0  0  0  0  0  0
  183.4020  179.0290  144.0760 C   0  0  0  0  0  0  0  0  0  0  0  0
  182.2750  178.5630  144.0570 O   0  0  0  0  0  0  0  0  0  0  0  0
  184.0410  179.3940  145.3780 C   0  0  0  0  0  2  0  0  0  0  0  0
  184.8250  178.2270  145.9700 C   0  0  0  0  0  2  0  0  0  0  0  0
  188.2070  177.1140  146.4340 C   0  0  0  0  0  3  0  0  0  0  0  0
  186.2270  178.6410  146.4090 C   0  0  1  0  0  3  0  0  0  0  0  0
  186.2950  178.6290  147.9470 C   0  0  0  0  0  2  0  0  0  0  0  0
  187.7220  178.4600  148.4500 C   0  0  0  0  0  2  0  0  0  0  0  0
  187.2700  177.7660  145.7280 C   0  0  0  0  0  0  0  0  0  0  0  0
  188.2450  177.1280  147.9290 C   0  0  0  0  0  2  0  0  0  0  0  0
  188.0610  178.5710  143.6370 O   0  0  0  0  0  1  0  0  0  0  0  0
  186.6640  176.7650  143.5320 O   0  0  0  0  0  0  0  0  0  0  0  0
  187.3540  177.7320  144.2560 C   0  0  0  0  0  0  0  0  0  0  0  0
  182.5980  179.0650  140.8860 C   0  0  0  0  0  2  0  0  0  0  0  0
  181.4270  178.1580  140.5670 C   0  0  0  0  0  2  0  0  0  0  0  0
  180.1800  178.6560  141.2770 C   0  0  0  0  0  2  0  0  0  0  0  0
  179.3520  179.5780  140.3940 C   0  0  0  0  0  2  0  0  0  0  0  0
  179.1590  178.9850  139.0090 C   0  0  0  0  0  2  0  0  0  0  0  0
  179.0910  180.0900  137.9700 C   0  0  0  0  0  2  0  0  0  0  0  0
  180.1070  179.8790  136.9370 N   0  0  0  0  0  0  0  0  0  0  0  0
  180.9740  181.0610  136.8120 C   0  0  2  0  0  3  0  0  0  0  0  0
  181.4460  182.9740  138.0040 O   0  0  0  0  0  0  0  0  0  0  0  0
  181.4700  181.5920  138.1300 C   0  0  0  0  0  2  0  0  0  0  0  0
  180.3010  182.1050  136.1800 O   0  0  0  0  0  0  0  0  0  0  0  0
  180.8660  184.4280  136.2030 C   0  0  0  0  0  1  0  0  0  0  0  0
  180.4710  183.2180  137.0250 C   0  0  2  0  0  3  0  0  0  0  0  0
  180.8800  178.8320  137.3250 O   0  0  0  0  0  0  0  0  0  0  0  0
  181.2290  177.9820  135.1160 C   0  0  0  0  0  1  0  0  0  0  0  0
  180.5440  177.7890  136.4570 C   0  0  1  0  0  3  0  0  0  0  0  0
  180.9050  176.4410  137.0720 C   0  0  0  0  0  2  0  0  0  0  0  0
  180.0830  175.3020  136.4890 C   0  0  0  0  0  1  0  0  0  0  0  0
  1 39  1  6  0  0  0
  1 25  1  0  0  0  0
  2  1  1  0  0  0  0
  3  2  1  0  0  0  0
  4  3  2  0  0  0  0
  5  3  1  0  0  0  0
  6  5  1  0  0  0  0
  7  8  1  0  0  0  0
  7 13  2  0  0  0  0
  9  7  1  0  0  0  0
 10 12  1  1  0  0  0
 10  9  1  0  0  0  0
 10 11  1  0  0  0  0
 11  6  1  1  0  0  0
 11  8  1  0  0  0  0
 13 14  1  0  0  0  0
 14 15  1  0  0  0  0
 15 16  1  0  0  0  0
 18 16  1  6  0  0  0
 18 24  1  0  0  0  0
 18 21  1  0  0  0  0
 19 23  1  0  0  0  0
 21 24  1  1  0  0  0
 21 22  1  0  0  0  0
 21 19  1  0  0  0  0
 22 17  1  6  0  0  0
 22 20  1  0  0  0  0
 23 20  1  0  0  0  0
 25 26  1  0  0  0  0
 26 28  1  0  0  0  0
 27 26  2  0  0  0  0
 28 29  1  0  0  0  0
 30 35  1  0  0  0  0
 31 29  1  1  0  0  0
 31 32  1  0  0  0  0
 32 33  1  0  0  0  0
 34 31  1  0  0  0  0
 34 30  2  0  0  0  0
 35 33  1  0  0  0  0
 36 38  1  0  0  0  0
 37 38  2  0  0  0  0
 38 34  1  0  0  0  0
 40 39  1  0  0  0  0
 40 41  1  0  0  0  0
 42 41  1  0  0  0  0
 43 42  1  0  0  0  0
 44 43  1  0  0  0  0
 45 52  1  0  0  0  0
 45 44  1  0  0  0  0
 46 45  1  1  0  0  0
 46 48  1  0  0  0  0
 47 48  1  0  0  0  0
 49 46  1  0  0  0  0
 49 51  1  0  0  0  0
 51 50  1  6  0  0  0
 51 47  1  0  0  0  0
 54 53  1  6  0  0  0
 54 55  1  0  0  0  0
 54 52  1  0  0  0  0
 56 55  1  0  0  0  0
M  END
>  <MODEL>
9

>  <REMARK>
 VINA RESULT:      -5.7      3.168      8.980
  Name = 
  25 active torsions:
  status: ('A' for Active; 'I' for Inactive)
    1  A    between atoms: C_1  and  C_32
    2  A    between atoms: C_3  and  C_9
    3  A    between atoms: C_3  and  C_25
    4  A    between atoms: C_4  and  C_35
    5  A    between atoms: C_5  and  C_25
    6  A    between atoms: C_5  and  C_35
    7  A    between atoms: C_7  and  N_13
    8  A    between atoms: C_9  and  N_11
    9  A    between atoms: C_9  and  C_15
   10  A    between atoms: C_12  and  C_21
   11  A    between atoms: C_12  and  C_55
   12  A    between atoms: N_13  and  O_51
   13  A    between atoms: N_13  and  C_53
   14  A    between atoms: C_14  and  N_54
   15  A    between atoms: C_14  and  C_56
   16  A    between atoms: C_15  and  C_21
   17  A    between atoms: C_27  and  N_46
   18  A    between atoms: C_28  and  C_44
   19  A    between atoms: C_29  and  C_53
   20  A    between atoms: C_29  and  C_55
   21  A    between atoms: C_32  and  O_51
   22  A    between atoms: C_33  and  C_56
   23  A    between atoms: C_36  and  N_54
   24  A    between atoms: C_42  and  C_47
   25  A    between atoms: N_46  and  C_47
                            x       y       z     vdW  Elec       q    Type
                         _______ _______ _______ _____ _____    ______ ____

>  <TORSDO>
F 25

$$$$
