=
 OpenBabel11042411583D

 28 31  0  0  1  0  0  0  0  0999 V2000
  185.0440  178.4060  144.7030 C   0  0  0  0  0  3  0  0  0  0  0  0
  191.5580  177.1870  145.1140 C   0  0  0  0  0  3  0  0  0  0  0  0
  190.5630  177.0410  147.2610 C   0  0  0  0  0  0  0  0  0  0  0  0
  189.3680  177.1960  148.0280 N   0  0  0  0  0  0  0  0  0  0  0  0
  184.9800  179.1550  142.4090 C   0  0  0  0  0  3  0  0  0  0  0  0
  188.2570  175.8210  143.2190 C   0  0  0  0  0  2  0  0  0  0  0  0
  184.3910  179.0940  143.6790 C   0  0  0  0  0  0  0  0  0  0  0  0
  191.6390  176.8550  143.3530 S   0  0  0  0  0  0  0  0  0  0  0  0
  186.1980  178.5170  142.1670 C   0  0  0  0  0  3  0  0  0  0  0  0
  191.6890  176.9310  147.8880 N   0  0  0  0  0  2  0  0  0  0  0  0
  186.2710  177.7680  144.4730 C   0  0  0  0  0  0  0  0  0  0  0  0
  186.8520  177.8090  143.1860 C   0  0  0  0  0  0  0  0  0  0  0  0
  188.2680  177.6870  147.5570 C   0  0  0  0  0  0  0  0  0  0  0  0
  187.4960  178.2280  146.5530 C   0  0  2  0  0  3  0  0  0  0  0  0
  189.2350  177.7670  141.6450 S   0  0  0  0  0  0  0  0  0  0  0  0
  186.8490  178.1220  147.7530 O   0  0  0  0  0  0  0  0  0  0  0  0
  188.1020  177.0910  142.8580 C   0  0  0  0  0  0  0  0  0  0  0  0
  190.5200  176.8950  145.8320 N   0  0  0  0  0  0  0  0  0  0  0  0
  186.9790  177.1410  145.6320 C   0  0  0  0  0  2  0  0  0  0  0  0
  190.6580  179.3010  143.2370 O   0  0  0  0  0  0  0  0  0  0  0  0
  190.5060  178.1530  142.8500 C   0  0  0  0  0  0  0  0  0  0  0  0
  183.1670  179.7110  143.9510 O   0  0  0  0  0  0  0  0  0  0  0  0
  181.9420  178.9930  144.0090 C   0  0  0  0  0  2  0  0  0  0  0  0
  181.3010  178.9770  142.6380 C   0  0  0  0  0  2  0  0  0  0  0  0
  179.8690  179.4890  142.7390 C   0  0  2  0  0  3  0  0  0  0  0  0
  179.3430  180.1970  141.5300 C   0  0  1  0  0  3  0  0  0  0  0  0
  179.8700  180.8930  142.6350 O   0  0  0  0  0  0  0  0  0  0  0  0
  180.3100  180.3110  140.3570 C   0  0  0  0  0  1  0  0  0  0  0  0
  2 18  2  0  0  0  0
  3 10  2  0  0  0  0
  3  4  1  0  0  0  0
  5  7  1  0  0  0  0
  7 22  1  0  0  0  0
  7  1  2  0  0  0  0
  8  2  1  0  0  0  0
  9  5  2  0  0  0  0
  9 12  1  0  0  0  0
 11  1  1  0  0  0  0
 11 19  1  0  0  0  0
 12 11  2  0  0  0  0
 13 16  1  0  0  0  0
 13  4  2  0  0  0  0
 14 19  1  6  0  0  0
 14 13  1  0  0  0  0
 14 16  1  0  0  0  0
 15 21  1  0  0  0  0
 15 17  1  0  0  0  0
 17 12  1  0  0  0  0
 17  6  2  0  0  0  0
 18  3  1  0  0  0  0
 21 20  2  0  0  0  0
 21  8  1  0  0  0  0
 22 23  1  0  0  0  0
 24 23  1  0  0  0  0
 25 24  1  6  0  0  0
 26 28  1  6  0  0  0
 26 27  1  0  0  0  0
 26 25  1  0  0  0  0
 27 25  1  0  0  0  0
M  END
>  <MODEL>
1

>  <REMARK>
 VINA RESULT:      -9.0      0.000      0.000
  Name = 
  4 active torsions:
  status: ('A' for Active; 'I' for Inactive)
    1  A    between atoms: C_7  and  O_28
    2  A    between atoms: C_15  and  C_26
    3  A    between atoms: C_15  and  O_28
    4  A    between atoms: C_17  and  C_26
                            x       y       z     vdW  Elec       q    Type
                         _______ _______ _______ _____ _____    ______ ____

>  <TORSDO>
F 4

$$$$
=
 OpenBabel11042411583D

 28 31  0  0  1  0  0  0  0  0999 V2000
  185.2800  178.5130  142.2090 C   0  0  0  0  0  3  0  0  0  0  0  0
  190.2630  177.7090  146.5230 C   0  0  0  0  0  3  0  0  0  0  0  0
  188.2050  177.9120  147.6820 C   0  0  0  0  0  0  0  0  0  0  0  0
  186.8000  178.1470  147.5730 N   0  0  0  0  0  0  0  0  0  0  0  0
  186.6020  178.8230  140.2130 C   0  0  0  0  0  3  0  0  0  0  0  0
  188.5770  175.8590  143.3470 C   0  0  0  0  0  2  0  0  0  0  0  0
  185.3860  178.9670  140.8940 C   0  0  0  0  0  0  0  0  0  0  0  0
  191.3230  177.0630  145.2280 S   0  0  0  0  0  0  0  0  0  0  0  0
  187.6900  178.2110  140.8390 C   0  0  0  0  0  3  0  0  0  0  0  0
  188.7530  177.9740  148.8520 N   0  0  0  0  0  2  0  0  0  0  0  0
  186.3680  177.9040  142.8500 C   0  0  0  0  0  0  0  0  0  0  0  0
  187.5870  177.7350  142.1540 C   0  0  0  0  0  0  0  0  0  0  0  0
  186.2090  178.4890  146.4750 C   0  0  0  0  0  0  0  0  0  0  0  0
  186.1980  178.7980  145.1330 C   0  0  2  0  0  3  0  0  0  0  0  0
  190.4130  177.5270  142.3140 S   0  0  0  0  0  0  0  0  0  0  0  0
  184.9710  178.8830  145.7320 O   0  0  0  0  0  0  0  0  0  0  0  0
  188.7450  177.0310  142.7440 C   0  0  0  0  0  0  0  0  0  0  0  0
  188.9850  177.5040  146.5460 N   0  0  0  0  0  0  0  0  0  0  0  0
  186.2340  177.5360  144.2940 C   0  0  0  0  0  2  0  0  0  0  0  0
  190.7560  179.3950  144.1320 O   0  0  0  0  0  0  0  0  0  0  0  0
  190.7790  178.1890  143.9410 C   0  0  0  0  0  0  0  0  0  0  0  0
  184.2740  179.5640  140.2920 O   0  0  0  0  0  0  0  0  0  0  0  0
  183.2400  178.8110  139.6750 C   0  0  0  0  0  2  0  0  0  0  0  0
  182.3990  178.1400  140.7410 C   0  0  0  0  0  2  0  0  0  0  0  0
  181.0970  178.9110  140.9230 C   0  0  2  0  0  3  0  0  0  0  0  0
  180.7950  179.3600  142.3180 C   0  0  1  0  0  3  0  0  0  0  0  0
  180.2420  178.1840  141.7730 O   0  0  0  0  0  0  0  0  0  0  0  0
  181.8290  178.9880  143.3730 C   0  0  0  0  0  1  0  0  0  0  0  0
  1 11  1  0  0  0  0
  2 18  2  0  0  0  0
  3 10  2  0  0  0  0
  4  3  1  0  0  0  0
  5  9  2  0  0  0  0
  5  7  1  0  0  0  0
  7  1  2  0  0  0  0
  8  2  1  0  0  0  0
  9 12  1  0  0  0  0
 11 19  1  0  0  0  0
 12 17  1  0  0  0  0
 12 11  2  0  0  0  0
 13  4  2  0  0  0  0
 14 19  1  6  0  0  0
 14 16  1  0  0  0  0
 14 13  1  0  0  0  0
 15 17  1  0  0  0  0
 15 21  1  0  0  0  0
 16 13  1  0  0  0  0
 17  6  2  0  0  0  0
 18  3  1  0  0  0  0
 21 20  2  0  0  0  0
 21  8  1  0  0  0  0
 22  7  1  0  0  0  0
 23 22  1  0  0  0  0
 23 24  1  0  0  0  0
 25 24  1  1  0  0  0
 25 27  1  0  0  0  0
 25 26  1  0  0  0  0
 26 28  1  1  0  0  0
 27 26  1  0  0  0  0
M  END
>  <MODEL>
2

>  <REMARK>
 VINA RESULT:      -8.3      1.764      2.409
  Name = 
  4 active torsions:
  status: ('A' for Active; 'I' for Inactive)
    1  A    between atoms: C_7  and  O_28
    2  A    between atoms: C_15  and  C_26
    3  A    between atoms: C_15  and  O_28
    4  A    between atoms: C_17  and  C_26
                            x       y       z     vdW  Elec       q    Type
                         _______ _______ _______ _____ _____    ______ ____

>  <TORSDO>
F 4

$$$$
=
 OpenBabel11042411583D

 28 31  0  0  1  0  0  0  0  0999 V2000
  185.3690  178.5250  142.1120 C   0  0  0  0  0  3  0  0  0  0  0  0
  190.2200  177.6520  146.5620 C   0  0  0  0  0  3  0  0  0  0  0  0
  188.1280  177.8370  147.6600 C   0  0  0  0  0  0  0  0  0  0  0  0
  186.7260  178.0740  147.5130 N   0  0  0  0  0  0  0  0  0  0  0  0
  186.7520  178.8670  140.1620 C   0  0  0  0  0  3  0  0  0  0  0  0
  188.6310  175.8530  143.3070 C   0  0  0  0  0  2  0  0  0  0  0  0
  185.5150  179.0010  140.8080 C   0  0  0  0  0  0  0  0  0  0  0  0
  191.3180  177.0270  145.2890 S   0  0  0  0  0  0  0  0  0  0  0  0
  187.8200  178.2460  140.8110 C   0  0  0  0  0  3  0  0  0  0  0  0
  188.6390  177.8800  148.8480 N   0  0  0  0  0  2  0  0  0  0  0  0
  186.4380  177.9070  142.7760 C   0  0  0  0  0  0  0  0  0  0  0  0
  187.6770  177.7490  142.1140 C   0  0  0  0  0  0  0  0  0  0  0  0
  186.1690  178.4330  146.4030 C   0  0  0  0  0  0  0  0  0  0  0  0
  186.1980  178.7640  145.0660 C   0  0  2  0  0  3  0  0  0  0  0  0
  190.4970  177.5370  142.3570 S   0  0  0  0  0  0  0  0  0  0  0  0
  184.9530  178.8400  145.6290 O   0  0  0  0  0  0  0  0  0  0  0  0
  188.8170  177.0350  142.7280 C   0  0  0  0  0  0  0  0  0  0  0  0
  188.9410  177.4470  146.5420 N   0  0  0  0  0  0  0  0  0  0  0  0
  186.2600  177.5160  144.2080 C   0  0  0  0  0  2  0  0  0  0  0  0
  190.7850  179.3760  144.2140 O   0  0  0  0  0  0  0  0  0  0  0  0
  190.8130  178.1730  144.0040 C   0  0  0  0  0  0  0  0  0  0  0  0
  184.4220  179.6070  140.1820 O   0  0  0  0  0  0  0  0  0  0  0  0
  184.0430  179.3130  138.8450 C   0  0  0  0  0  2  0  0  0  0  0  0
  182.6560  178.7060  138.8360 C   0  0  0  0  0  2  0  0  0  0  0  0
  182.7640  177.1860  138.8560 C   0  0  2  0  0  3  0  0  0  0  0  0
  181.6780  176.4640  139.5900 C   0  0  1  0  0  3  0  0  0  0  0  0
  182.9220  176.7490  140.1850 O   0  0  0  0  0  0  0  0  0  0  0  0
  180.6060  177.3460  140.2200 C   0  0  0  0  0  1  0  0  0  0  0  0
  1 11  1  0  0  0  0
  3 10  2  0  0  0  0
  4  3  1  0  0  0  0
  5  7  1  0  0  0  0
  5  9  2  0  0  0  0
  7  1  2  0  0  0  0
  8  2  1  0  0  0  0
  9 12  1  0  0  0  0
 11 19  1  0  0  0  0
 12 17  1  0  0  0  0
 12 11  2  0  0  0  0
 13  4  2  0  0  0  0
 14 19  1  6  0  0  0
 14 16  1  0  0  0  0
 14 13  1  0  0  0  0
 15 17  1  0  0  0  0
 15 21  1  0  0  0  0
 16 13  1  0  0  0  0
 17  6  2  0  0  0  0
 18  2  2  0  0  0  0
 18  3  1  0  0  0  0
 21 20  2  0  0  0  0
 21  8  1  0  0  0  0
 22  7  1  0  0  0  0
 23 22  1  0  0  0  0
 24 23  1  0  0  0  0
 25 24  1  1  0  0  0
 25 26  1  0  0  0  0
 25 27  1  0  0  0  0
 26 27  1  0  0  0  0
 26 28  1  1  0  0  0
M  END
>  <MODEL>
3

>  <REMARK>
 VINA RESULT:      -8.1      2.326      3.016
  Name = 
  4 active torsions:
  status: ('A' for Active; 'I' for Inactive)
    1  A    between atoms: C_7  and  O_28
    2  A    between atoms: C_15  and  C_26
    3  A    between atoms: C_15  and  O_28
    4  A    between atoms: C_17  and  C_26
                            x       y       z     vdW  Elec       q    Type
                         _______ _______ _______ _____ _____    ______ ____

>  <TORSDO>
F 4

$$$$
=
 OpenBabel11042411583D

 28 31  0  0  1  0  0  0  0  0999 V2000
  187.5260  178.6130  141.3840 C   0  0  0  0  0  3  0  0  0  0  0  0
  180.9370  177.9240  140.9340 C   0  0  0  0  0  3  0  0  0  0  0  0
  181.5380  178.6110  143.1210 C   0  0  0  0  0  0  0  0  0  0  0  0
  182.6080  178.9040  144.0210 N   0  0  0  0  0  0  0  0  0  0  0  0
  188.1170  177.6430  139.2540 C   0  0  0  0  0  3  0  0  0  0  0  0
  183.9730  179.9520  139.1950 C   0  0  0  0  0  2  0  0  0  0  0  0
  188.4800  178.0260  140.5520 C   0  0  0  0  0  0  0  0  0  0  0  0
  181.0190  178.0030  139.1430 S   0  0  0  0  0  0  0  0  0  0  0  0
  186.8190  177.8650  138.7920 C   0  0  0  0  0  3  0  0  0  0  0  0
  180.3480  178.4640  143.6060 N   0  0  0  0  0  2  0  0  0  0  0  0
  186.2170  178.8330  140.9340 C   0  0  0  0  0  0  0  0  0  0  0  0
  185.8580  178.4710  139.6160 C   0  0  0  0  0  0  0  0  0  0  0  0
  183.8560  178.7010  143.7480 C   0  0  0  0  0  0  0  0  0  0  0  0
  184.8810  178.2910  142.9240 C   0  0  2  0  0  3  0  0  0  0  0  0
  183.7990  177.6310  137.8520 S   0  0  0  0  0  0  0  0  0  0  0  0
  185.2970  178.7240  144.1530 O   0  0  0  0  0  0  0  0  0  0  0  0
  184.5190  178.7490  139.0540 C   0  0  0  0  0  0  0  0  0  0  0  0
  181.7420  178.5900  141.6990 N   0  0  0  0  0  0  0  0  0  0  0  0
  185.2060  179.3620  141.9020 C   0  0  0  0  0  2  0  0  0  0  0  0
  182.6380  175.9530  139.5110 O   0  0  0  0  0  0  0  0  0  0  0  0
  182.5230  177.0410  138.9670 C   0  0  0  0  0  0  0  0  0  0  0  0
  189.7750  177.8290  141.0400 O   0  0  0  0  0  0  0  0  0  0  0  0
  190.2990  176.5400  141.3270 C   0  0  0  0  0  2  0  0  0  0  0  0
  190.0750  176.2180  142.7890 C   0  0  0  0  0  2  0  0  0  0  0  0
  191.4000  176.2950  143.5370 C   0  0  2  0  0  3  0  0  0  0  0  0
  191.3890  177.0900  144.8050 C   0  0  1  0  0  3  0  0  0  0  0  0
  191.8310  177.6340  143.5830 O   0  0  0  0  0  0  0  0  0  0  0  0
  190.0520  177.7180  145.1800 C   0  0  0  0  0  1  0  0  0  0  0  0
  2 18  2  0  0  0  0
  3 10  2  0  0  0  0
  3  4  1  0  0  0  0
  5  7  1  0  0  0  0
  7 22  1  0  0  0  0
  7  1  2  0  0  0  0
  8  2  1  0  0  0  0
  9  5  2  0  0  0  0
  9 12  1  0  0  0  0
 11  1  1  0  0  0  0
 11 19  1  0  0  0  0
 12 11  2  0  0  0  0
 13  4  2  0  0  0  0
 13 16  1  0  0  0  0
 14 19  1  6  0  0  0
 14 13  1  0  0  0  0
 14 16  1  0  0  0  0
 15 21  1  0  0  0  0
 15 17  1  0  0  0  0
 17  6  2  0  0  0  0
 17 12  1  0  0  0  0
 18  3  1  0  0  0  0
 21  8  1  0  0  0  0
 21 20  2  0  0  0  0
 22 23  1  0  0  0  0
 23 24  1  0  0  0  0
 25 24  1  6  0  0  0
 25 27  1  0  0  0  0
 25 26  1  0  0  0  0
 26 28  1  6  0  0  0
 27 26  1  0  0  0  0
M  END
>  <MODEL>
4

>  <REMARK>
 VINA RESULT:      -7.5      4.383      8.413
  Name = 
  4 active torsions:
  status: ('A' for Active; 'I' for Inactive)
    1  A    between atoms: C_7  and  O_28
    2  A    between atoms: C_15  and  C_26
    3  A    between atoms: C_15  and  O_28
    4  A    between atoms: C_17  and  C_26
                            x       y       z     vdW  Elec       q    Type
                         _______ _______ _______ _____ _____    ______ ____

>  <TORSDO>
F 4

$$$$
=
 OpenBabel11042411583D

 28 31  0  0  1  0  0  0  0  0999 V2000
  189.1030  177.8770  142.7680 C   0  0  0  0  0  3  0  0  0  0  0  0
  185.4700  177.8520  137.2100 C   0  0  0  0  0  3  0  0  0  0  0  0
  184.3100  178.9850  138.9390 C   0  0  0  0  0  0  0  0  0  0  0  0
  184.3100  179.3680  140.3160 N   0  0  0  0  0  0  0  0  0  0  0  0
  190.8320  176.3500  142.0530 C   0  0  0  0  0  3  0  0  0  0  0  0
  189.1040  179.0280  138.5390 C   0  0  0  0  0  2  0  0  0  0  0  0
  190.1400  176.9980  143.0850 C   0  0  0  0  0  0  0  0  0  0  0  0
  186.9210  177.4760  136.2250 S   0  0  0  0  0  0  0  0  0  0  0  0
  190.4990  176.5970  140.7200 C   0  0  0  0  0  3  0  0  0  0  0  0
  183.2100  179.0990  138.2670 N   0  0  0  0  0  2  0  0  0  0  0  0
  188.7550  178.1260  141.4330 C   0  0  0  0  0  0  0  0  0  0  0  0
  189.4700  177.4920  140.3920 C   0  0  0  0  0  0  0  0  0  0  0  0
  185.1860  178.9640  141.1760 C   0  0  0  0  0  0  0  0  0  0  0  0
  186.3040  178.2480  141.5460 C   0  0  2  0  0  3  0  0  0  0  0  0
  189.4210  176.4830  137.7400 S   0  0  0  0  0  0  0  0  0  0  0  0
  185.7100  178.9220  142.5780 O   0  0  0  0  0  0  0  0  0  0  0  0
  189.2070  177.7730  138.9640 C   0  0  0  0  0  0  0  0  0  0  0  0
  185.5200  178.5900  138.2730 N   0  0  0  0  0  0  0  0  0  0  0  0
  187.5660  178.9890  141.1530 C   0  0  0  0  0  2  0  0  0  0  0  0
  187.0240  175.4100  137.8620 O   0  0  0  0  0  0  0  0  0  0  0  0
  187.6680  176.3350  137.3920 C   0  0  0  0  0  0  0  0  0  0  0  0
  190.4570  176.7820  144.4300 O   0  0  0  0  0  0  0  0  0  0  0  0
  190.0510  177.6650  145.4650 C   0  0  0  0  0  2  0  0  0  0  0  0
  188.8030  177.1240  146.1290 C   0  0  0  0  0  2  0  0  0  0  0  0
  189.0040  177.0880  147.6390 C   0  0  2  0  0  3  0  0  0  0  0  0
  187.9650  177.7950  148.4530 C   0  0  1  0  0  3  0  0  0  0  0  0
  189.1920  178.3990  148.1150 O   0  0  0  0  0  0  0  0  0  0  0  0
  186.8430  178.4580  147.6620 C   0  0  0  0  0  1  0  0  0  0  0  0
  1  7  1  0  0  0  0
  2 18  2  0  0  0  0
  3  4  1  0  0  0  0
  4 13  2  0  0  0  0
  5  7  2  0  0  0  0
  6 17  2  0  0  0  0
  7 22  1  0  0  0  0
  8  2  1  0  0  0  0
  8 21  1  0  0  0  0
  9  5  1  0  0  0  0
 10  3  2  0  0  0  0
 11  1  2  0  0  0  0
 12  9  2  0  0  0  0
 12 11  1  0  0  0  0
 13 14  1  0  0  0  0
 13 16  1  0  0  0  0
 14 19  1  6  0  0  0
 14 16  1  0  0  0  0
 15 17  1  0  0  0  0
 17 12  1  0  0  0  0
 18  3  1  0  0  0  0
 19 11  1  0  0  0  0
 21 15  1  0  0  0  0
 21 20  2  0  0  0  0
 22 23  1  0  0  0  0
 23 24  1  0  0  0  0
 25 24  1  6  0  0  0
 25 27  1  0  0  0  0
 25 26  1  0  0  0  0
 26 28  1  6  0  0  0
 27 26  1  0  0  0  0
M  END
>  <MODEL>
5

>  <REMARK>
 VINA RESULT:      -7.4      4.504      7.901
  Name = 
  4 active torsions:
  status: ('A' for Active; 'I' for Inactive)
    1  A    between atoms: C_7  and  O_28
    2  A    between atoms: C_15  and  C_26
    3  A    between atoms: C_15  and  O_28
    4  A    between atoms: C_17  and  C_26
                            x       y       z     vdW  Elec       q    Type
                         _______ _______ _______ _____ _____    ______ ____

>  <TORSDO>
F 4

$$$$
=
 OpenBabel11042411583D

 28 31  0  0  1  0  0  0  0  0999 V2000
  187.6410  177.9530  139.9540 C   0  0  0  0  0  3  0  0  0  0  0  0
  189.7020  177.7620  146.2630 C   0  0  0  0  0  3  0  0  0  0  0  0
  187.3350  177.8730  146.1800 C   0  0  0  0  0  0  0  0  0  0  0  0
  186.1810  177.9960  145.3470 N   0  0  0  0  0  0  0  0  0  0  0  0
  189.7930  178.2530  138.9010 C   0  0  0  0  0  3  0  0  0  0  0  0
  189.9680  175.6200  142.8440 C   0  0  0  0  0  2  0  0  0  0  0  0
  188.3950  178.3430  138.8460 C   0  0  0  0  0  0  0  0  0  0  0  0
  191.3010  177.1280  145.7550 S   0  0  0  0  0  0  0  0  0  0  0  0
  190.4210  177.7600  140.0450 C   0  0  0  0  0  3  0  0  0  0  0  0
  187.1960  178.0400  147.4560 N   0  0  0  0  0  2  0  0  0  0  0  0
  188.2620  177.4640  141.1110 C   0  0  0  0  0  0  0  0  0  0  0  0
  189.6700  177.3490  141.1560 C   0  0  0  0  0  0  0  0  0  0  0  0
  186.2320  178.2320  144.0770 C   0  0  0  0  0  0  0  0  0  0  0  0
  186.9040  178.4660  142.8970 C   0  0  2  0  0  3  0  0  0  0  0  0
  192.0120  177.3620  142.7600 S   0  0  0  0  0  0  0  0  0  0  0  0
  185.5420  178.4910  142.7730 O   0  0  0  0  0  0  0  0  0  0  0  0
  190.3810  176.7670  142.3140 C   0  0  0  0  0  0  0  0  0  0  0  0
  188.6040  177.4630  145.6440 N   0  0  0  0  0  0  0  0  0  0  0  0
  187.4150  177.1660  142.3080 C   0  0  0  0  0  2  0  0  0  0  0  0
  191.2990  179.3470  144.3300 O   0  0  0  0  0  0  0  0  0  0  0  0
  191.4600  178.1380  144.2800 C   0  0  0  0  0  0  0  0  0  0  0  0
  187.7340  178.8200  137.7110 O   0  0  0  0  0  0  0  0  0  0  0  0
  186.5940  178.1760  137.1590 C   0  0  0  0  0  2  0  0  0  0  0  0
  187.0410  177.1110  136.1810 C   0  0  0  0  0  2  0  0  0  0  0  0
  186.7580  175.7320  136.7660 C   0  0  2  0  0  3  0  0  0  0  0  0
  187.9510  174.8520  136.9670 C   0  0  1  0  0  3  0  0  0  0  0  0
  187.1260  174.7460  135.8300 O   0  0  0  0  0  0  0  0  0  0  0  0
  189.2920  175.4510  136.5610 C   0  0  0  0  0  1  0  0  0  0  0  0
  1 11  1  0  0  0  0
  3 10  2  0  0  0  0
  4  3  1  0  0  0  0
  5  9  2  0  0  0  0
  7  5  1  0  0  0  0
  7  1  2  0  0  0  0
  8  2  1  0  0  0  0
  9 12  1  0  0  0  0
 11 12  2  0  0  0  0
 11 19  1  0  0  0  0
 12 17  1  0  0  0  0
 13  4  2  0  0  0  0
 14 19  1  6  0  0  0
 14 13  1  0  0  0  0
 15 21  1  0  0  0  0
 16 14  1  0  0  0  0
 16 13  1  0  0  0  0
 17 15  1  0  0  0  0
 17  6  2  0  0  0  0
 18  3  1  0  0  0  0
 18  2  2  0  0  0  0
 21 20  2  0  0  0  0
 21  8  1  0  0  0  0
 22  7  1  0  0  0  0
 23 22  1  0  0  0  0
 24 23  1  0  0  0  0
 25 24  1  6  0  0  0
 25 26  1  0  0  0  0
 26 28  1  6  0  0  0
 27 25  1  0  0  0  0
 27 26  1  0  0  0  0
M  END
>  <MODEL>
6

>  <REMARK>
 VINA RESULT:      -7.1      3.885      5.970
  Name = 
  4 active torsions:
  status: ('A' for Active; 'I' for Inactive)
    1  A    between atoms: C_7  and  O_28
    2  A    between atoms: C_15  and  C_26
    3  A    between atoms: C_15  and  O_28
    4  A    between atoms: C_17  and  C_26
                            x       y       z     vdW  Elec       q    Type
                         _______ _______ _______ _____ _____    ______ ____

>  <TORSDO>
F 4

$$$$
=
 OpenBabel11042411583D

 28 31  0  0  1  0  0  0  0  0999 V2000
  187.4100  178.6240  140.9300 C   0  0  0  0  0  3  0  0  0  0  0  0
  180.8030  177.9760  141.0750 C   0  0  0  0  0  3  0  0  0  0  0  0
  181.6060  178.6270  143.2080 C   0  0  0  0  0  0  0  0  0  0  0  0
  182.7560  178.9020  144.0100 N   0  0  0  0  0  0  0  0  0  0  0  0
  187.7970  177.6830  138.7400 C   0  0  0  0  0  3  0  0  0  0  0  0
  183.6800  180.0130  139.0940 C   0  0  0  0  0  2  0  0  0  0  0  0
  188.2800  178.0450  140.0050 C   0  0  0  0  0  0  0  0  0  0  0  0
  180.7210  178.0800  139.2860 S   0  0  0  0  0  0  0  0  0  0  0  0
  186.4640  177.9180  138.4030 C   0  0  0  0  0  3  0  0  0  0  0  0
  180.4640  178.4790  143.7970 N   0  0  0  0  0  2  0  0  0  0  0  0
  186.0660  178.8580  140.6040 C   0  0  0  0  0  0  0  0  0  0  0  0
  185.5860  178.5160  139.3200 C   0  0  0  0  0  0  0  0  0  0  0  0
  183.9720  178.6970  143.6200 C   0  0  0  0  0  0  0  0  0  0  0  0
  184.9150  178.2930  142.7010 C   0  0  2  0  0  3  0  0  0  0  0  0
  183.3690  177.7130  137.7410 S   0  0  0  0  0  0  0  0  0  0  0  0
  185.4450  178.7070  143.8920 O   0  0  0  0  0  0  0  0  0  0  0  0
  184.2040  178.8090  138.8870 C   0  0  0  0  0  0  0  0  0  0  0  0
  181.6790  178.6260  141.7730 N   0  0  0  0  0  0  0  0  0  0  0  0
  185.1520  179.3770  141.6680 C   0  0  0  0  0  2  0  0  0  0  0  0
  182.3540  176.0170  139.4750 O   0  0  0  0  0  0  0  0  0  0  0  0
  182.1970  177.1130  138.9590 C   0  0  0  0  0  0  0  0  0  0  0  0
  189.6130  177.8340  140.3700 O   0  0  0  0  0  0  0  0  0  0  0  0
  190.3040  176.6250  140.0890 C   0  0  0  0  0  2  0  0  0  0  0  0
  191.2820  176.8550  138.9560 C   0  0  0  0  0  2  0  0  0  0  0  0
  191.5700  175.5330  138.2550 C   0  0  2  0  0  3  0  0  0  0  0  0
  191.0480  175.4070  136.8590 C   0  0  1  0  0  3  0  0  0  0  0  0
  190.3540  174.8840  137.9680 O   0  0  0  0  0  0  0  0  0  0  0  0
  190.2950  176.6190  136.3220 C   0  0  0  0  0  1  0  0  0  0  0  0
  2 18  2  0  0  0  0
  3 10  2  0  0  0  0
  3  4  1  0  0  0  0
  5  7  1  0  0  0  0
  7 22  1  0  0  0  0
  7  1  2  0  0  0  0
  8  2  1  0  0  0  0
  9  5  2  0  0  0  0
  9 12  1  0  0  0  0
 11  1  1  0  0  0  0
 11 19  1  0  0  0  0
 12 11  2  0  0  0  0
 13 16  1  0  0  0  0
 13  4  2  0  0  0  0
 14 19  1  6  0  0  0
 14 13  1  0  0  0  0
 14 16  1  0  0  0  0
 15 17  1  0  0  0  0
 15 21  1  0  0  0  0
 17  6  2  0  0  0  0
 17 12  1  0  0  0  0
 18  3  1  0  0  0  0
 21  8  1  0  0  0  0
 21 20  2  0  0  0  0
 23 22  1  0  0  0  0
 24 23  1  0  0  0  0
 25 24  1  1  0  0  0
 26 28  1  1  0  0  0
 26 27  1  0  0  0  0
 26 25  1  0  0  0  0
 27 25  1  0  0  0  0
M  END
>  <MODEL>
7

>  <REMARK>
 VINA RESULT:      -6.5      5.114      8.722
  Name = 
  4 active torsions:
  status: ('A' for Active; 'I' for Inactive)
    1  A    between atoms: C_7  and  O_28
    2  A    between atoms: C_15  and  C_26
    3  A    between atoms: C_15  and  O_28
    4  A    between atoms: C_17  and  C_26
                            x       y       z     vdW  Elec       q    Type
                         _______ _______ _______ _____ _____    ______ ____

>  <TORSDO>
F 4

$$$$
=
 OpenBabel11042411583D

 28 31  0  0  1  0  0  0  0  0999 V2000
  184.5510  178.1460  142.4130 C   0  0  0  0  0  3  0  0  0  0  0  0
  180.2730  179.3130  137.4700 C   0  0  0  0  0  3  0  0  0  0  0  0
  182.2110  178.2340  136.6350 C   0  0  0  0  0  0  0  0  0  0  0  0
  183.5130  177.7280  136.9390 N   0  0  0  0  0  0  0  0  0  0  0  0
  183.4380  179.4180  144.1360 C   0  0  0  0  0  3  0  0  0  0  0  0
  180.4540  177.4180  141.0380 C   0  0  0  0  0  2  0  0  0  0  0  0
  184.5960  178.8020  143.6440 C   0  0  0  0  0  0  0  0  0  0  0  0
  178.9310  179.5300  138.6410 S   0  0  0  0  0  0  0  0  0  0  0  0
  182.2470  179.3590  143.4110 C   0  0  0  0  0  3  0  0  0  0  0  0
  181.8780  178.3730  135.3930 N   0  0  0  0  0  2  0  0  0  0  0  0
  183.3630  178.0870  141.6720 C   0  0  0  0  0  0  0  0  0  0  0  0
  182.1890  178.6860  142.1810 C   0  0  0  0  0  0  0  0  0  0  0  0
  184.1030  177.8940  138.0780 C   0  0  0  0  0  0  0  0  0  0  0  0
  184.1670  178.3720  139.3680 C   0  0  2  0  0  3  0  0  0  0  0  0
  179.7080  179.9370  141.6010 S   0  0  0  0  0  0  0  0  0  0  0  0
  185.2960  177.7130  138.9630 O   0  0  0  0  0  0  0  0  0  0  0  0
  180.8860  178.5910  141.4890 C   0  0  0  0  0  0  0  0  0  0  0  0
  181.2440  178.4800  137.6690 N   0  0  0  0  0  0  0  0  0  0  0  0
  183.3980  177.4680  140.3110 C   0  0  0  0  0  2  0  0  0  0  0  0
  180.5580  181.3830  139.5770 O   0  0  0  0  0  0  0  0  0  0  0  0
  179.8830  180.4120  139.8800 C   0  0  0  0  0  0  0  0  0  0  0  0
  185.8020  178.8320  144.3510 O   0  0  0  0  0  0  0  0  0  0  0  0
  186.3020  177.7090  145.0620 C   0  0  0  0  0  2  0  0  0  0  0  0
  187.6800  177.3570  144.5430 C   0  0  0  0  0  2  0  0  0  0  0  0
  188.7370  177.8570  145.5210 C   0  0  2  0  0  3  0  0  0  0  0  0
  190.1530  177.5050  145.1880 C   0  0  1  0  0  3  0  0  0  0  0  0
  189.3900  176.7540  146.1040 O   0  0  0  0  0  0  0  0  0  0  0  0
  190.3510  176.6930  143.9140 C   0  0  0  0  0  1  0  0  0  0  0  0
  1  7  1  0  0  0  0
  2 18  2  0  0  0  0
  2  8  1  0  0  0  0
  3  4  1  0  0  0  0
  3 18  1  0  0  0  0
  4 13  2  0  0  0  0
  6 17  2  0  0  0  0
  7  5  2  0  0  0  0
  7 22  1  0  0  0  0
  8 21  1  0  0  0  0
  9  5  1  0  0  0  0
 10  3  2  0  0  0  0
 11 12  1  0  0  0  0
 11  1  2  0  0  0  0
 12  9  2  0  0  0  0
 13 16  1  0  0  0  0
 13 14  1  0  0  0  0
 14 19  1  1  0  0  0
 16 14  1  0  0  0  0
 17 15  1  0  0  0  0
 17 12  1  0  0  0  0
 19 11  1  0  0  0  0
 20 21  2  0  0  0  0
 21 15  1  0  0  0  0
 22 23  1  0  0  0  0
 24 23  1  0  0  0  0
 25 24  1  6  0  0  0
 25 27  1  0  0  0  0
 26 28  1  6  0  0  0
 26 25  1  0  0  0  0
 26 27  1  0  0  0  0
M  END
>  <MODEL>
8

>  <REMARK>
 VINA RESULT:      -6.5      5.493      9.465
  Name = 
  4 active torsions:
  status: ('A' for Active; 'I' for Inactive)
    1  A    between atoms: C_7  and  O_28
    2  A    between atoms: C_15  and  C_26
    3  A    between atoms: C_15  and  O_28
    4  A    between atoms: C_17  and  C_26
                            x       y       z     vdW  Elec       q    Type
                         _______ _______ _______ _____ _____    ______ ____

>  <TORSDO>
F 4

$$$$
=
 OpenBabel11042411583D

 28 31  0  0  1  0  0  0  0  0999 V2000
  188.2840  178.2440  139.1470 C   0  0  0  0  0  3  0  0  0  0  0  0
  182.3110  176.1410  137.1500 C   0  0  0  0  0  3  0  0  0  0  0  0
  182.0930  178.1240  138.4290 C   0  0  0  0  0  0  0  0  0  0  0  0
  182.7650  179.1100  139.2140 N   0  0  0  0  0  0  0  0  0  0  0  0
  189.5690  176.3150  138.4730 C   0  0  0  0  0  3  0  0  0  0  0  0
  185.8920  177.2280  135.6180 C   0  0  0  0  0  2  0  0  0  0  0  0
  189.4440  177.4740  139.2500 C   0  0  0  0  0  0  0  0  0  0  0  0
  183.0610  175.1210  135.8780 S   0  0  0  0  0  0  0  0  0  0  0  0
  188.5530  175.9460  137.5910 C   0  0  0  0  0  3  0  0  0  0  0  0
  180.8010  178.0730  138.4770 N   0  0  0  0  0  2  0  0  0  0  0  0
  187.2540  177.8790  138.2700 C   0  0  0  0  0  0  0  0  0  0  0  0
  187.3920  176.7240  137.4680 C   0  0  0  0  0  0  0  0  0  0  0  0
  184.0100  179.0340  139.5550 C   0  0  0  0  0  0  0  0  0  0  0  0
  185.2420  178.4180  139.5740 C   0  0  2  0  0  3  0  0  0  0  0  0
  186.0940  174.5950  136.1120 S   0  0  0  0  0  0  0  0  0  0  0  0
  185.1940  179.5840  140.2870 O   0  0  0  0  0  0  0  0  0  0  0  0
  186.3790  176.3280  136.4660 C   0  0  0  0  0  0  0  0  0  0  0  0
  182.8110  177.2770  137.5160 N   0  0  0  0  0  0  0  0  0  0  0  0
  185.9880  178.6770  138.2800 C   0  0  0  0  0  2  0  0  0  0  0  0
  184.3000  174.0960  137.9680 O   0  0  0  0  0  0  0  0  0  0  0  0
  184.4620  174.5730  136.8560 C   0  0  0  0  0  0  0  0  0  0  0  0
  190.4480  177.8780  140.1340 O   0  0  0  0  0  0  0  0  0  0  0  0
  190.8240  177.1120  141.2690 C   0  0  0  0  0  2  0  0  0  0  0  0
  190.0630  177.6010  142.4830 C   0  0  0  0  0  2  0  0  0  0  0  0
  189.5190  176.4080  143.2590 C   0  0  2  0  0  3  0  0  0  0  0  0
  188.0360  176.3780  143.4550 C   0  0  1  0  0  3  0  0  0  0  0  0
  188.9130  176.8620  144.4460 O   0  0  0  0  0  0  0  0  0  0  0  0
  187.2650  177.5460  142.8530 C   0  0  0  0  0  1  0  0  0  0  0  0
  1  7  1  0  0  0  0
  2 18  2  0  0  0  0
  3 10  2  0  0  0  0
  3  4  1  0  0  0  0
  4 13  2  0  0  0  0
  5  7  2  0  0  0  0
  6 17  2  0  0  0  0
  7 22  1  0  0  0  0
  8 21  1  0  0  0  0
  8  2  1  0  0  0  0
  9  5  1  0  0  0  0
 11 19  1  0  0  0  0
 11  1  2  0  0  0  0
 12  9  2  0  0  0  0
 12 11  1  0  0  0  0
 13 14  1  0  0  0  0
 13 16  1  0  0  0  0
 14 19  1  6  0  0  0
 14 16  1  0  0  0  0
 15 17  1  0  0  0  0
 15 21  1  0  0  0  0
 17 12  1  0  0  0  0
 18  3  1  0  0  0  0
 21 20  2  0  0  0  0
 22 23  1  0  0  0  0
 23 24  1  0  0  0  0
 25 24  1  6  0  0  0
 25 26  1  0  0  0  0
 25 27  1  0  0  0  0
 26 28  1  6  0  0  0
 26 27  1  0  0  0  0
M  END
>  <MODEL>
9

>  <REMARK>
 VINA RESULT:      -6.4      5.851      9.127
  Name = 
  4 active torsions:
  status: ('A' for Active; 'I' for Inactive)
    1  A    between atoms: C_7  and  O_28
    2  A    between atoms: C_15  and  C_26
    3  A    between atoms: C_15  and  O_28
    4  A    between atoms: C_17  and  C_26
                            x       y       z     vdW  Elec       q    Type
                         _______ _______ _______ _____ _____    ______ ____

>  <TORSDO>
F 4

$$$$
