=
 OpenBabel11032419173D

 30 33  0  0  1  0  0  0  0  0999 V2000
  187.7290  177.1360  145.7400 C   0  0  2  0  0  3  0  0  0  0  0  0
  189.8830  178.0870  148.0360 N   0  0  0  0  0  0  0  0  0  0  0  0
  189.3330  176.1780  147.0870 O   0  0  0  0  0  0  0  0  0  0  0  0
  188.1120  176.8150  147.1180 N   0  0  0  0  0  0  0  0  0  0  0  0
  190.3270  176.9600  147.6190 C   0  0  0  0  0  0  0  0  0  0  0  0
  188.4440  178.0950  147.7790 C   0  0  0  0  0  2  0  0  0  0  0  0
  192.4940  177.0860  148.5420 O   0  0  0  0  0  0  0  0  0  0  0  0
  191.7340  176.5540  147.6890 C   0  0  0  0  0  0  0  0  0  0  0  0
  192.2790  175.5160  146.7670 C   0  0  0  0  0  1  0  0  0  0  0  0
  188.6980  176.7560  144.7710 O   0  0  0  0  0  0  0  0  0  0  0  0
  189.2330  177.8540  144.0440 C   0  0  1  0  0  3  0  0  0  0  0  0
  190.7500  179.6820  143.8420 F   0  0  0  0  0  0  0  0  0  0  0  0
  190.5040  178.5330  144.5710 C   0  0  0  0  0  3  0  0  0  0  0  0
  191.5910  177.6870  144.4260 F   0  0  0  0  0  0  0  0  0  0  0  0
  188.4950  178.8500  142.0460 O   0  0  0  0  0  0  0  0  0  0  0  0
  188.9610  177.8440  142.5590 C   0  0  0  0  0  0  0  0  0  0  0  0
  190.4390  176.7390  140.9400 C   0  0  0  0  0  2  0  0  0  0  0  0
  189.1780  176.6220  141.7060 C   0  0  1  0  0  3  0  0  0  0  0  0
  190.3530  175.9520  142.1000 O   0  0  0  0  0  0  0  0  0  0  0  0
  187.2270  178.5690  145.5590 C   0  0  0  0  0  2  0  0  0  0  0  0
  185.7120  178.6140  145.6550 C   0  0  1  0  0  0  0  0  0  0  0  0
  185.0850  178.2010  146.9300 C   0  0  0  0  0  2  0  0  0  0  0  0
  185.2790  179.5610  146.6000 O   0  0  0  0  0  0  0  0  0  0  0  0
  183.5280  179.0250  144.4830 C   0  0  0  0  0  3  0  0  0  0  0  0
  183.2960  178.5640  142.1300 C   0  0  0  0  0  0  0  0  0  0  0  0
  184.5920  178.1510  142.0910 N   0  0  0  0  0  0  0  0  0  0  0  0
  182.4670  178.5300  140.8970 C   0  0  0  0  0  1  0  0  0  0  0  0
  184.8640  178.6150  144.4210 C   0  0  0  0  0  0  0  0  0  0  0  0
  185.3800  178.1640  143.2020 C   0  0  0  0  0  3  0  0  0  0  0  0
  182.7380  179.0050  143.3330 C   0  0  0  0  0  3  0  0  0  0  0  0
  1 20  1  1  0  0  0
  1  4  1  0  0  0  0
  3  4  1  0  0  0  0
  3  5  1  0  0  0  0
  4  6  1  0  0  0  0
  5  8  1  0  0  0  0
  5  2  2  0  0  0  0
  6  2  1  0  0  0  0
  8  7  2  0  0  0  0
  9  8  1  0  0  0  0
 10  1  1  0  0  0  0
 11 16  1  6  0  0  0
 11 13  1  0  0  0  0
 11 10  1  0  0  0  0
 12 13  1  0  0  0  0
 14 13  1  0  0  0  0
 15 16  2  0  0  0  0
 17 18  1  0  0  0  0
 17 19  1  0  0  0  0
 18 19  1  0  0  0  0
 18 16  1  1  0  0  0
 21 20  1  6  0  0  0
 21 23  1  0  0  0  0
 21 22  1  0  0  0  0
 23 22  1  0  0  0  0
 25 30  1  0  0  0  0
 26 25  2  0  0  0  0
 26 29  1  0  0  0  0
 27 25  1  0  0  0  0
 28 24  1  0  0  0  0
 28 21  1  0  0  0  0
 29 28  2  0  0  0  0
 30 24  2  0  0  0  0
M  END
>  <MODEL>
1

>  <REMARK>
 VINA RESULT:      -7.6      0.000      0.000
  Name = 
  10 active torsions:
  status: ('A' for Active; 'I' for Inactive)
    1  A    between atoms: O_3  and  C_23
    2  A    between atoms: O_3  and  C_26
    3  A    between atoms: C_8  and  C_23
    4  A    between atoms: C_10  and  C_19
    5  A    between atoms: C_10  and  C_22
    6  A    between atoms: N_13  and  C_26
    7  A    between atoms: C_14  and  C_15
    8  A    between atoms: C_16  and  C_29
    9  A    between atoms: C_19  and  C_26
   10  A    between atoms: C_23  and  C_29
                            x       y       z     vdW  Elec       q    Type
                         _______ _______ _______ _____ _____    ______ ____

>  <TORSDO>
F 10

$$$$
=
 OpenBabel11032419173D

 30 33  0  0  1  0  0  0  0  0999 V2000
  188.2330  177.8600  141.4180 C   0  0  2  0  0  3  0  0  0  0  0  0
  184.9730  178.2400  141.6280 N   0  0  0  0  0  0  0  0  0  0  0  0
  186.6160  179.2790  140.5960 O   0  0  0  0  0  0  0  0  0  0  0  0
  187.2440  178.8870  141.7570 N   0  0  0  0  0  0  0  0  0  0  0  0
  185.3070  178.8700  140.5650 C   0  0  0  0  0  0  0  0  0  0  0  0
  186.1540  178.2080  142.4880 C   0  0  0  0  0  2  0  0  0  0  0  0
  184.1920  180.2990  139.0560 O   0  0  0  0  0  0  0  0  0  0  0  0
  184.4020  179.1170  139.4380 C   0  0  0  0  0  0  0  0  0  0  0  0
  183.7290  177.9870  138.7340 C   0  0  0  0  0  1  0  0  0  0  0  0
  188.1410  177.3950  140.0770 O   0  0  0  0  0  0  0  0  0  0  0  0
  189.1940  177.8590  139.2430 C   0  0  1  0  0  3  0  0  0  0  0  0
  191.4140  177.8090  140.1100 F   0  0  0  0  0  0  0  0  0  0  0  0
  190.5410  177.1250  139.2840 C   0  0  0  0  0  3  0  0  0  0  0  0
  191.0940  177.0740  138.0160 F   0  0  0  0  0  0  0  0  0  0  0  0
  189.1140  179.6900  137.7690 O   0  0  0  0  0  0  0  0  0  0  0  0
  188.7600  178.5370  137.9660 C   0  0  0  0  0  0  0  0  0  0  0  0
  188.6420  177.3020  135.8480 C   0  0  0  0  0  2  0  0  0  0  0  0
  187.8550  177.8700  136.9650 C   0  0  1  0  0  3  0  0  0  0  0  0
  188.1440  176.4940  136.8830 O   0  0  0  0  0  0  0  0  0  0  0  0
  188.3200  176.7280  142.4420 C   0  0  0  0  0  2  0  0  0  0  0  0
  189.4210  177.0120  143.4500 C   0  0  1  0  0  0  0  0  0  0  0  0
  190.7990  176.6030  143.1050 C   0  0  0  0  0  2  0  0  0  0  0  0
  190.3560  177.9360  142.9520 O   0  0  0  0  0  0  0  0  0  0  0  0
  187.7790  177.5030  145.2870 C   0  0  0  0  0  3  0  0  0  0  0  0
  188.5260  177.7440  147.5650 C   0  0  0  0  0  0  0  0  0  0  0  0
  189.8060  177.5160  147.1610 N   0  0  0  0  0  0  0  0  0  0  0  0
  188.2340  178.0070  148.9980 C   0  0  0  0  0  1  0  0  0  0  0  0
  189.0970  177.2530  144.8920 C   0  0  0  0  0  0  0  0  0  0  0  0
  190.1110  177.2760  145.8560 C   0  0  0  0  0  3  0  0  0  0  0  0
  187.4870  177.7460  146.6300 C   0  0  0  0  0  3  0  0  0  0  0  0
  1  4  1  0  0  0  0
  1 20  1  1  0  0  0
  2  6  1  0  0  0  0
  3  4  1  0  0  0  0
  4  6  1  0  0  0  0
  5  3  1  0  0  0  0
  5  2  2  0  0  0  0
  7  8  2  0  0  0  0
  8  5  1  0  0  0  0
  9  8  1  0  0  0  0
 10  1  1  0  0  0  0
 11 16  1  6  0  0  0
 11 13  1  0  0  0  0
 11 10  1  0  0  0  0
 13 12  1  0  0  0  0
 14 13  1  0  0  0  0
 15 16  2  0  0  0  0
 17 19  1  0  0  0  0
 17 18  1  0  0  0  0
 18 16  1  1  0  0  0
 19 18  1  0  0  0  0
 21 20  1  6  0  0  0
 21 28  1  0  0  0  0
 22 21  1  0  0  0  0
 23 22  1  0  0  0  0
 23 21  1  0  0  0  0
 24 30  1  0  0  0  0
 25 27  1  0  0  0  0
 26 25  1  0  0  0  0
 28 24  2  0  0  0  0
 28 29  1  0  0  0  0
 29 26  2  0  0  0  0
 30 25  2  0  0  0  0
M  END
>  <MODEL>
2

>  <REMARK>
 VINA RESULT:      -7.6      3.052      6.924
  Name = 
  10 active torsions:
  status: ('A' for Active; 'I' for Inactive)
    1  A    between atoms: O_3  and  C_23
    2  A    between atoms: O_3  and  C_26
    3  A    between atoms: C_8  and  C_23
    4  A    between atoms: C_10  and  C_19
    5  A    between atoms: C_10  and  C_22
    6  A    between atoms: N_13  and  C_26
    7  A    between atoms: C_14  and  C_15
    8  A    between atoms: C_16  and  C_29
    9  A    between atoms: C_19  and  C_26
   10  A    between atoms: C_23  and  C_29
                            x       y       z     vdW  Elec       q    Type
                         _______ _______ _______ _____ _____    ______ ____

>  <TORSDO>
F 10

$$$$
=
 OpenBabel11032419173D

 30 33  0  0  1  0  0  0  0  0999 V2000
  188.2130  177.8510  141.4100 C   0  0  2  0  0  3  0  0  0  0  0  0
  189.4730  178.4870  138.4400 N   0  0  0  0  0  0  0  0  0  0  0  0
  187.7460  177.3580  139.2090 O   0  0  0  0  0  0  0  0  0  0  0  0
  188.6670  177.1420  140.2100 N   0  0  0  0  0  0  0  0  0  0  0  0
  188.2580  178.1520  138.2140 C   0  0  0  0  0  0  0  0  0  0  0  0
  189.8520  177.8660  139.7070 C   0  0  0  0  0  2  0  0  0  0  0  0
  187.4350  179.7990  136.7390 O   0  0  0  0  0  0  0  0  0  0  0  0
  187.4940  178.5760  137.0360 C   0  0  0  0  0  0  0  0  0  0  0  0
  186.7880  177.5780  136.1810 C   0  0  0  0  0  1  0  0  0  0  0  0
  187.2880  178.8970  141.1430 O   0  0  0  0  0  0  0  0  0  0  0  0
  185.9760  178.6310  141.6200 C   0  0  1  0  0  3  0  0  0  0  0  0
  184.9250  177.8020  143.5930 F   0  0  0  0  0  0  0  0  0  0  0  0
  185.6760  178.8570  143.1080 C   0  0  0  0  0  3  0  0  0  0  0  0
  184.9460  180.0210  143.2740 F   0  0  0  0  0  0  0  0  0  0  0  0
  184.9520  179.7170  139.8040 O   0  0  0  0  0  0  0  0  0  0  0  0
  184.8690  178.8020  140.6080 C   0  0  0  0  0  0  0  0  0  0  0  0
  182.5210  178.6040  141.2970 C   0  0  0  0  0  2  0  0  0  0  0  0
  183.6410  177.9310  140.6010 C   0  0  1  0  0  3  0  0  0  0  0  0
  182.5970  178.5620  139.8950 O   0  0  0  0  0  0  0  0  0  0  0  0
  189.3490  178.2750  142.3410 C   0  0  0  0  0  2  0  0  0  0  0  0
  189.6350  177.1830  143.3580 C   0  0  1  0  0  0  0  0  0  0  0  0
  189.9090  175.8200  142.8540 C   0  0  0  0  0  2  0  0  0  0  0  0
  190.9480  176.6950  143.2420 O   0  0  0  0  0  0  0  0  0  0  0  0
  187.8570  177.4850  145.1070 C   0  0  0  0  0  3  0  0  0  0  0  0
  188.4480  177.6610  147.4360 C   0  0  0  0  0  0  0  0  0  0  0  0
  189.7610  177.5320  147.1040 N   0  0  0  0  0  0  0  0  0  0  0  0
  188.0530  177.8370  148.8580 C   0  0  0  0  0  1  0  0  0  0  0  0
  189.2100  177.3340  144.7850 C   0  0  0  0  0  0  0  0  0  0  0  0
  190.1600  177.3730  145.8110 C   0  0  0  0  0  3  0  0  0  0  0  0
  187.4690  177.6450  146.4380 C   0  0  0  0  0  3  0  0  0  0  0  0
  1 20  1  6  0  0  0
  2  6  1  0  0  0  0
  3  4  1  0  0  0  0
  4  1  1  0  0  0  0
  5  2  2  0  0  0  0
  5  3  1  0  0  0  0
  6  4  1  0  0  0  0
  7  8  2  0  0  0  0
  8  5  1  0  0  0  0
  9  8  1  0  0  0  0
 10  1  1  0  0  0  0
 10 11  1  0  0  0  0
 11 16  1  6  0  0  0
 11 13  1  0  0  0  0
 13 14  1  0  0  0  0
 13 12  1  0  0  0  0
 15 16  2  0  0  0  0
 18 16  1  1  0  0  0
 18 17  1  0  0  0  0
 19 18  1  0  0  0  0
 19 17  1  0  0  0  0
 21 20  1  6  0  0  0
 21 28  1  0  0  0  0
 22 23  1  0  0  0  0
 22 21  1  0  0  0  0
 23 21  1  0  0  0  0
 24 30  1  0  0  0  0
 25 27  1  0  0  0  0
 26 25  1  0  0  0  0
 28 24  2  0  0  0  0
 28 29  1  0  0  0  0
 29 26  2  0  0  0  0
 30 25  2  0  0  0  0
M  END
>  <MODEL>
3

>  <REMARK>
 VINA RESULT:      -7.5      3.362      7.412
  Name = 
  10 active torsions:
  status: ('A' for Active; 'I' for Inactive)
    1  A    between atoms: O_3  and  C_23
    2  A    between atoms: O_3  and  C_26
    3  A    between atoms: C_8  and  C_23
    4  A    between atoms: C_10  and  C_19
    5  A    between atoms: C_10  and  C_22
    6  A    between atoms: N_13  and  C_26
    7  A    between atoms: C_14  and  C_15
    8  A    between atoms: C_16  and  C_29
    9  A    between atoms: C_19  and  C_26
   10  A    between atoms: C_23  and  C_29
                            x       y       z     vdW  Elec       q    Type
                         _______ _______ _______ _____ _____    ______ ____

>  <TORSDO>
F 10

$$$$
=
 OpenBabel11032419173D

 30 33  0  0  1  0  0  0  0  0999 V2000
  188.8190  177.4530  143.6160 C   0  0  2  0  0  3  0  0  0  0  0  0
  185.8020  178.5450  142.8970 N   0  0  0  0  0  0  0  0  0  0  0  0
  186.6960  177.3270  144.4980 O   0  0  0  0  0  0  0  0  0  0  0  0
  187.4600  176.9410  143.4190 N   0  0  0  0  0  0  0  0  0  0  0  0
  185.7580  178.2650  144.1460 C   0  0  0  0  0  0  0  0  0  0  0  0
  186.8620  177.7240  142.3170 C   0  0  0  0  0  2  0  0  0  0  0  0
  185.2660  179.3820  146.1640 O   0  0  0  0  0  0  0  0  0  0  0  0
  184.8260  178.8820  145.0950 C   0  0  0  0  0  0  0  0  0  0  0  0
  183.3620  178.9280  144.8100 C   0  0  0  0  0  1  0  0  0  0  0  0
  189.0440  178.0070  144.9050 O   0  0  0  0  0  0  0  0  0  0  0  0
  189.8620  177.1960  145.7370 C   0  0  1  0  0  3  0  0  0  0  0  0
  192.0510  176.7000  146.5400 F   0  0  0  0  0  0  0  0  0  0  0  0
  191.3550  177.0770  145.4060 C   0  0  0  0  0  3  0  0  0  0  0  0
  191.8470  178.3000  144.9820 F   0  0  0  0  0  0  0  0  0  0  0  0
  189.3160  175.9580  147.6600 O   0  0  0  0  0  0  0  0  0  0  0  0
  189.4110  177.0730  147.1730 C   0  0  0  0  0  0  0  0  0  0  0  0
  187.5360  178.3740  148.0780 C   0  0  0  0  0  2  0  0  0  0  0  0
  189.0100  178.2680  147.9970 C   0  0  1  0  0  3  0  0  0  0  0  0
  188.2960  177.8570  149.1400 O   0  0  0  0  0  0  0  0  0  0  0  0
  189.3070  178.3540  142.4800 C   0  0  0  0  0  2  0  0  0  0  0  0
  190.2030  177.5730  141.5340 C   0  0  1  0  0  0  0  0  0  0  0  0
  191.5820  177.2730  141.9750 C   0  0  0  0  0  2  0  0  0  0  0  0
  190.5470  176.3160  142.0630 O   0  0  0  0  0  0  0  0  0  0  0  0
  189.1030  178.4890  139.4700 C   0  0  0  0  0  3  0  0  0  0  0  0
  189.3160  177.3460  137.3600 C   0  0  0  0  0  0  0  0  0  0  0  0
  190.0750  176.3910  137.9620 N   0  0  0  0  0  0  0  0  0  0  0  0
  189.0070  177.2470  135.9090 C   0  0  0  0  0  1  0  0  0  0  0  0
  189.9010  177.5090  140.0690 C   0  0  0  0  0  0  0  0  0  0  0  0
  190.3740  176.4480  139.2900 C   0  0  0  0  0  3  0  0  0  0  0  0
  188.8100  178.4130  138.1070 C   0  0  0  0  0  3  0  0  0  0  0  0
  1 20  1  6  0  0  0
  1 10  1  0  0  0  0
  2  5  2  0  0  0  0
  4  1  1  0  0  0  0
  4  3  1  0  0  0  0
  5  3  1  0  0  0  0
  5  8  1  0  0  0  0
  6  2  1  0  0  0  0
  6  4  1  0  0  0  0
  8  7  2  0  0  0  0
  9  8  1  0  0  0  0
 11 10  1  1  0  0  0
 11 16  1  0  0  0  0
 13 11  1  0  0  0  0
 13 12  1  0  0  0  0
 14 13  1  0  0  0  0
 16 15  2  0  0  0  0
 17 19  1  0  0  0  0
 18 16  1  6  0  0  0
 18 17  1  0  0  0  0
 18 19  1  0  0  0  0
 21 22  1  0  0  0  0
 21 23  1  0  0  0  0
 21 20  1  1  0  0  0
 22 23  1  0  0  0  0
 24 28  1  0  0  0  0
 25 26  2  0  0  0  0
 25 30  1  0  0  0  0
 26 29  1  0  0  0  0
 27 25  1  0  0  0  0
 28 21  1  0  0  0  0
 29 28  2  0  0  0  0
 30 24  2  0  0  0  0
M  END
>  <MODEL>
4

>  <REMARK>
 VINA RESULT:      -7.5      2.390      6.281
  Name = 
  10 active torsions:
  status: ('A' for Active; 'I' for Inactive)
    1  A    between atoms: O_3  and  C_23
    2  A    between atoms: O_3  and  C_26
    3  A    between atoms: C_8  and  C_23
    4  A    between atoms: C_10  and  C_19
    5  A    between atoms: C_10  and  C_22
    6  A    between atoms: N_13  and  C_26
    7  A    between atoms: C_14  and  C_15
    8  A    between atoms: C_16  and  C_29
    9  A    between atoms: C_19  and  C_26
   10  A    between atoms: C_23  and  C_29
                            x       y       z     vdW  Elec       q    Type
                         _______ _______ _______ _____ _____    ______ ____

>  <TORSDO>
F 10

$$$$
=
 OpenBabel11032419173D

 30 33  0  0  1  0  0  0  0  0999 V2000
  188.7880  177.2940  143.2900 C   0  0  2  0  0  3  0  0  0  0  0  0
  185.7720  178.5140  143.7660 N   0  0  0  0  0  0  0  0  0  0  0  0
  187.0450  177.0250  144.7700 O   0  0  0  0  0  0  0  0  0  0  0  0
  187.4070  176.8330  143.4550 N   0  0  0  0  0  0  0  0  0  0  0  0
  186.1050  178.0160  144.8980 C   0  0  0  0  0  0  0  0  0  0  0  0
  186.5450  177.8040  142.7490 C   0  0  0  0  0  2  0  0  0  0  0  0
  184.3350  178.7540  146.2720 O   0  0  0  0  0  0  0  0  0  0  0  0
  185.5570  178.4590  146.1830 C   0  0  0  0  0  0  0  0  0  0  0  0
  186.4260  178.5630  147.3920 C   0  0  0  0  0  1  0  0  0  0  0  0
  189.3860  177.7630  144.4910 O   0  0  0  0  0  0  0  0  0  0  0  0
  190.8000  177.6230  144.5140 C   0  0  1  0  0  3  0  0  0  0  0  0
  190.8500  179.9920  144.2520 F   0  0  0  0  0  0  0  0  0  0  0  0
  191.6650  178.8780  144.3380 C   0  0  0  0  0  3  0  0  0  0  0  0
  192.4010  178.7890  143.1690 F   0  0  0  0  0  0  0  0  0  0  0  0
  191.9570  175.5920  144.7720 O   0  0  0  0  0  0  0  0  0  0  0  0
  191.3260  176.4720  145.3380 C   0  0  0  0  0  0  0  0  0  0  0  0
  192.2190  175.7890  147.5200 C   0  0  0  0  0  2  0  0  0  0  0  0
  191.0420  176.3370  146.8100 C   0  0  1  0  0  3  0  0  0  0  0  0
  191.9110  177.1590  147.5550 O   0  0  0  0  0  0  0  0  0  0  0  0
  188.9810  178.2480  142.1100 C   0  0  0  0  0  2  0  0  0  0  0  0
  189.5490  177.5020  140.9150 C   0  0  1  0  0  0  0  0  0  0  0  0
  191.0050  177.2480  140.8830 C   0  0  0  0  0  2  0  0  0  0  0  0
  190.0840  176.2560  141.2860 O   0  0  0  0  0  0  0  0  0  0  0  0
  189.1630  176.5120  138.6380 C   0  0  0  0  0  3  0  0  0  0  0  0
  187.4070  177.3530  137.2190 C   0  0  0  0  0  0  0  0  0  0  0  0
  187.0710  178.2540  138.1810 N   0  0  0  0  0  0  0  0  0  0  0  0
  186.6590  177.3210  135.9350 C   0  0  0  0  0  1  0  0  0  0  0  0
  188.7930  177.4320  139.6240 C   0  0  0  0  0  0  0  0  0  0  0  0
  187.7380  178.3150  139.3680 C   0  0  0  0  0  3  0  0  0  0  0  0
  188.4660  176.4650  137.4290 C   0  0  0  0  0  3  0  0  0  0  0  0
  1 20  1  6  0  0  0
  1  4  1  0  0  0  0
  1 10  1  0  0  0  0
  2  5  2  0  0  0  0
  3  5  1  0  0  0  0
  4  3  1  0  0  0  0
  5  8  1  0  0  0  0
  6  4  1  0  0  0  0
  6  2  1  0  0  0  0
  8  7  2  0  0  0  0
  8  9  1  0  0  0  0
 10 11  1  0  0  0  0
 11 13  1  1  0  0  0
 11 16  1  0  0  0  0
 12 13  1  0  0  0  0
 14 13  1  0  0  0  0
 15 16  2  0  0  0  0
 17 19  1  0  0  0  0
 18 16  1  6  0  0  0
 18 17  1  0  0  0  0
 18 19  1  0  0  0  0
 21 23  1  0  0  0  0
 21 20  1  1  0  0  0
 22 21  1  0  0  0  0
 22 23  1  0  0  0  0
 24 28  1  0  0  0  0
 25 30  1  0  0  0  0
 25 26  2  0  0  0  0
 26 29  1  0  0  0  0
 27 25  1  0  0  0  0
 28 21  1  0  0  0  0
 29 28  2  0  0  0  0
 30 24  2  0  0  0  0
M  END
>  <MODEL>
5

>  <REMARK>
 VINA RESULT:      -7.4      2.432      5.637
  Name = 
  10 active torsions:
  status: ('A' for Active; 'I' for Inactive)
    1  A    between atoms: O_3  and  C_23
    2  A    between atoms: O_3  and  C_26
    3  A    between atoms: C_8  and  C_23
    4  A    between atoms: C_10  and  C_19
    5  A    between atoms: C_10  and  C_22
    6  A    between atoms: N_13  and  C_26
    7  A    between atoms: C_14  and  C_15
    8  A    between atoms: C_16  and  C_29
    9  A    between atoms: C_19  and  C_26
   10  A    between atoms: C_23  and  C_29
                            x       y       z     vdW  Elec       q    Type
                         _______ _______ _______ _____ _____    ______ ____

>  <TORSDO>
F 10

$$$$
=
 OpenBabel11032419173D

 30 33  0  0  1  0  0  0  0  0999 V2000
  187.4840  177.8820  141.9480 C   0  0  2  0  0  3  0  0  0  0  0  0
  184.2720  178.2510  141.3510 N   0  0  0  0  0  0  0  0  0  0  0  0
  186.1030  179.3700  140.8620 O   0  0  0  0  0  0  0  0  0  0  0  0
  186.4220  178.8790  142.1080 N   0  0  0  0  0  0  0  0  0  0  0  0
  184.8530  178.9690  140.4640 C   0  0  0  0  0  0  0  0  0  0  0  0
  185.1960  178.1430  142.4770 C   0  0  0  0  0  2  0  0  0  0  0  0
  184.0970  180.5250  138.8600 O   0  0  0  0  0  0  0  0  0  0  0  0
  184.2600  179.3140  139.1680 C   0  0  0  0  0  0  0  0  0  0  0  0
  183.8500  178.2500  138.2050 C   0  0  0  0  0  1  0  0  0  0  0  0
  187.5890  176.9740  143.0360 O   0  0  0  0  0  0  0  0  0  0  0  0
  188.3280  177.4880  144.1360 C   0  0  1  0  0  3  0  0  0  0  0  0
  188.3100  177.2960  146.5120 F   0  0  0  0  0  0  0  0  0  0  0  0
  187.5830  177.7880  145.4430 C   0  0  0  0  0  3  0  0  0  0  0  0
  186.3450  177.1690  145.4390 F   0  0  0  0  0  0  0  0  0  0  0  0
  190.0930  175.9750  143.7870 O   0  0  0  0  0  0  0  0  0  0  0  0
  189.7820  177.0860  144.1880 C   0  0  0  0  0  0  0  0  0  0  0  0
  191.6810  178.5650  143.7120 C   0  0  0  0  0  2  0  0  0  0  0  0
  190.8440  177.9740  144.7790 C   0  0  1  0  0  3  0  0  0  0  0  0
  190.6690  179.3030  144.3460 O   0  0  0  0  0  0  0  0  0  0  0  0
  188.8290  178.4780  141.5300 C   0  0  0  0  0  2  0  0  0  0  0  0
  189.3800  177.7410  140.3210 C   0  0  1  0  0  0  0  0  0  0  0  0
  190.7860  177.2860  140.3670 C   0  0  0  0  0  2  0  0  0  0  0  0
  189.7100  176.4100  140.6290 O   0  0  0  0  0  0  0  0  0  0  0  0
  187.9300  176.8300  138.4830 C   0  0  0  0  0  3  0  0  0  0  0  0
  187.5560  178.1040  136.4730 C   0  0  0  0  0  0  0  0  0  0  0  0
  188.3460  179.0960  136.9630 N   0  0  0  0  0  0  0  0  0  0  0  0
  186.9370  178.2410  135.1280 C   0  0  0  0  0  1  0  0  0  0  0  0
  188.7240  177.8680  138.9810 C   0  0  0  0  0  0  0  0  0  0  0  0
  188.9330  179.0030  138.1890 C   0  0  0  0  0  3  0  0  0  0  0  0
  187.3370  176.9460  137.2250 C   0  0  0  0  0  3  0  0  0  0  0  0
  1 20  1  1  0  0  0
  1  4  1  0  0  0  0
  1 10  1  0  0  0  0
  2  6  1  0  0  0  0
  3  4  1  0  0  0  0
  4  6  1  0  0  0  0
  5  3  1  0  0  0  0
  5  2  2  0  0  0  0
  7  8  2  0  0  0  0
  8  5  1  0  0  0  0
  9  8  1  0  0  0  0
 11 10  1  1  0  0  0
 11 16  1  0  0  0  0
 11 13  1  0  0  0  0
 13 12  1  0  0  0  0
 14 13  1  0  0  0  0
 15 16  2  0  0  0  0
 17 19  1  0  0  0  0
 17 18  1  0  0  0  0
 18 16  1  6  0  0  0
 19 18  1  0  0  0  0
 21 22  1  0  0  0  0
 21 23  1  0  0  0  0
 21 20  1  1  0  0  0
 22 23  1  0  0  0  0
 24 28  1  0  0  0  0
 25 26  2  0  0  0  0
 25 30  1  0  0  0  0
 26 29  1  0  0  0  0
 27 25  1  0  0  0  0
 28 21  1  0  0  0  0
 29 28  2  0  0  0  0
 30 24  2  0  0  0  0
M  END
>  <MODEL>
6

>  <REMARK>
 VINA RESULT:      -7.4      3.268      6.949
  Name = 
  10 active torsions:
  status: ('A' for Active; 'I' for Inactive)
    1  A    between atoms: O_3  and  C_23
    2  A    between atoms: O_3  and  C_26
    3  A    between atoms: C_8  and  C_23
    4  A    between atoms: C_10  and  C_19
    5  A    between atoms: C_10  and  C_22
    6  A    between atoms: N_13  and  C_26
    7  A    between atoms: C_14  and  C_15
    8  A    between atoms: C_16  and  C_29
    9  A    between atoms: C_19  and  C_26
   10  A    between atoms: C_23  and  C_29
                            x       y       z     vdW  Elec       q    Type
                         _______ _______ _______ _____ _____    ______ ____

>  <TORSDO>
F 10

$$$$
=
 OpenBabel11032419173D

 30 33  0  0  1  0  0  0  0  0999 V2000
  189.1620  177.5420  141.5090 C   0  0  2  0  0  3  0  0  0  0  0  0
  192.0970  177.4580  140.0290 N   0  0  0  0  0  0  0  0  0  0  0  0
  190.2450  176.2740  139.9210 O   0  0  0  0  0  0  0  0  0  0  0  0
  190.2630  176.6080  141.2570 N   0  0  0  0  0  0  0  0  0  0  0  0
  191.3220  176.8000  139.2520 C   0  0  0  0  0  0  0  0  0  0  0  0
  191.5160  177.3840  141.3680 C   0  0  0  0  0  2  0  0  0  0  0  0
  190.5940  176.8150  137.0080 O   0  0  0  0  0  0  0  0  0  0  0  0
  191.5470  176.6340  137.8130 C   0  0  0  0  0  0  0  0  0  0  0  0
  192.8910  176.2580  137.2860 C   0  0  0  0  0  1  0  0  0  0  0  0
  188.8480  178.3740  140.3990 O   0  0  0  0  0  0  0  0  0  0  0  0
  187.5860  178.0840  139.8120 C   0  0  1  0  0  3  0  0  0  0  0  0
  185.3820  178.9840  139.6840 F   0  0  0  0  0  0  0  0  0  0  0  0
  186.3150  178.4810  140.5740 C   0  0  0  0  0  3  0  0  0  0  0  0
  186.6040  179.4660  141.5030 F   0  0  0  0  0  0  0  0  0  0  0  0
  187.9340  179.0380  137.6920 O   0  0  0  0  0  0  0  0  0  0  0  0
  187.5640  178.0480  138.3030 C   0  0  0  0  0  0  0  0  0  0  0  0
  185.7040  177.1660  136.9650 C   0  0  0  0  0  2  0  0  0  0  0  0
  187.0380  176.8660  137.5320 C   0  0  1  0  0  3  0  0  0  0  0  0
  186.8650  177.2040  136.1750 O   0  0  0  0  0  0  0  0  0  0  0  0
  189.3010  178.3170  142.8200 C   0  0  0  0  0  2  0  0  0  0  0  0
  188.8480  177.4600  143.9900 C   0  0  1  0  0  0  0  0  0  0  0  0
  187.4030  177.4170  144.3000 C   0  0  0  0  0  2  0  0  0  0  0  0
  188.0390  176.3900  143.5690 O   0  0  0  0  0  0  0  0  0  0  0  0
  191.0630  176.5310  144.7250 C   0  0  0  0  0  3  0  0  0  0  0  0
  191.5640  176.2660  147.0670 C   0  0  0  0  0  0  0  0  0  0  0  0
  190.3360  176.7610  147.3780 N   0  0  0  0  0  0  0  0  0  0  0  0
  192.4930  175.8450  148.1480 C   0  0  0  0  0  1  0  0  0  0  0  0
  189.8110  177.0550  145.0620 C   0  0  0  0  0  0  0  0  0  0  0  0
  189.4570  177.1520  146.4120 C   0  0  0  0  0  3  0  0  0  0  0  0
  191.9490  176.1370  145.7290 C   0  0  0  0  0  3  0  0  0  0  0  0
  1 20  1  1  0  0  0
  2  6  1  0  0  0  0
  3  4  1  0  0  0  0
  4  6  1  0  0  0  0
  4  1  1  0  0  0  0
  5  3  1  0  0  0  0
  5  2  2  0  0  0  0
  7  8  2  0  0  0  0
  8  5  1  0  0  0  0
  9  8  1  0  0  0  0
 10  1  1  0  0  0  0
 11 16  1  6  0  0  0
 11 10  1  0  0  0  0
 11 13  1  0  0  0  0
 12 13  1  0  0  0  0
 13 14  1  0  0  0  0
 15 16  2  0  0  0  0
 17 18  1  0  0  0  0
 18 16  1  1  0  0  0
 19 17  1  0  0  0  0
 19 18  1  0  0  0  0
 21 20  1  6  0  0  0
 21 22  1  0  0  0  0
 21 28  1  0  0  0  0
 23 21  1  0  0  0  0
 23 22  1  0  0  0  0
 24 28  2  0  0  0  0
 24 30  1  0  0  0  0
 25 26  1  0  0  0  0
 25 27  1  0  0  0  0
 28 29  1  0  0  0  0
 29 26  2  0  0  0  0
 30 25  2  0  0  0  0
M  END
>  <MODEL>
7

>  <REMARK>
 VINA RESULT:      -7.2      3.642      7.164
  Name = 
  10 active torsions:
  status: ('A' for Active; 'I' for Inactive)
    1  A    between atoms: O_3  and  C_23
    2  A    between atoms: O_3  and  C_26
    3  A    between atoms: C_8  and  C_23
    4  A    between atoms: C_10  and  C_19
    5  A    between atoms: C_10  and  C_22
    6  A    between atoms: N_13  and  C_26
    7  A    between atoms: C_14  and  C_15
    8  A    between atoms: C_16  and  C_29
    9  A    between atoms: C_19  and  C_26
   10  A    between atoms: C_23  and  C_29
                            x       y       z     vdW  Elec       q    Type
                         _______ _______ _______ _____ _____    ______ ____

>  <TORSDO>
F 10

$$$$
=
 OpenBabel11032419173D

 30 33  0  0  1  0  0  0  0  0999 V2000
  186.4030  178.2880  143.1280 C   0  0  2  0  0  3  0  0  0  0  0  0
  183.5280  178.4740  141.5440 N   0  0  0  0  0  0  0  0  0  0  0  0
  185.4120  179.6120  141.5260 O   0  0  0  0  0  0  0  0  0  0  0  0
  185.3360  179.2540  142.8540 N   0  0  0  0  0  0  0  0  0  0  0  0
  184.3480  179.1260  140.8090 C   0  0  0  0  0  0  0  0  0  0  0  0
  184.0610  178.5090  142.9040 C   0  0  0  0  0  2  0  0  0  0  0  0
  184.1690  180.4920  138.8940 O   0  0  0  0  0  0  0  0  0  0  0  0
  184.1810  179.3230  139.3660 C   0  0  0  0  0  0  0  0  0  0  0  0
  184.0270  178.1590  138.4460 C   0  0  0  0  0  1  0  0  0  0  0  0
  186.8830  177.6170  141.9700 O   0  0  0  0  0  0  0  0  0  0  0  0
  188.2260  177.9460  141.6390 C   0  0  1  0  0  3  0  0  0  0  0  0
  190.4020  178.3210  142.5370 F   0  0  0  0  0  0  0  0  0  0  0  0
  189.3530  177.4190  142.5360 C   0  0  0  0  0  3  0  0  0  0  0  0
  189.8220  176.2100  142.0500 F   0  0  0  0  0  0  0  0  0  0  0  0
  187.5770  178.5690  139.4660 O   0  0  0  0  0  0  0  0  0  0  0  0
  188.4950  178.1790  140.1720 C   0  0  0  0  0  0  0  0  0  0  0  0
  189.7540  176.6470  138.7240 C   0  0  0  0  0  2  0  0  0  0  0  0
  189.8280  177.8810  139.5390 C   0  0  1  0  0  3  0  0  0  0  0  0
  189.7240  177.9210  138.1350 O   0  0  0  0  0  0  0  0  0  0  0  0
  186.0920  177.3400  144.2870 C   0  0  0  0  0  2  0  0  0  0  0  0
  186.5240  177.9580  145.6060 C   0  0  1  0  0  0  0  0  0  0  0  0
  185.8440  179.1940  146.0490 C   0  0  0  0  0  2  0  0  0  0  0  0
  185.4910  177.9250  146.5590 O   0  0  0  0  0  0  0  0  0  0  0  0
  188.1170  177.9220  147.5480 C   0  0  0  0  0  3  0  0  0  0  0  0
  190.3540  177.0690  147.2810 C   0  0  0  0  0  0  0  0  0  0  0  0
  190.0920  176.8120  145.9710 N   0  0  0  0  0  0  0  0  0  0  0  0
  191.6950  176.7640  147.8460 C   0  0  0  0  0  1  0  0  0  0  0  0
  187.8580  177.6340  146.2040 C   0  0  0  0  0  0  0  0  0  0  0  0
  188.8760  177.0830  145.4190 C   0  0  0  0  0  3  0  0  0  0  0  0
  189.3690  177.6350  148.0950 C   0  0  0  0  0  3  0  0  0  0  0  0
  1 20  1  1  0  0  0
  2  6  1  0  0  0  0
  3  4  1  0  0  0  0
  4  6  1  0  0  0  0
  4  1  1  0  0  0  0
  5  3  1  0  0  0  0
  5  2  2  0  0  0  0
  7  8  2  0  0  0  0
  8  5  1  0  0  0  0
  9  8  1  0  0  0  0
 10  1  1  0  0  0  0
 11 16  1  6  0  0  0
 11 10  1  0  0  0  0
 11 13  1  0  0  0  0
 13 12  1  0  0  0  0
 14 13  1  0  0  0  0
 15 16  2  0  0  0  0
 17 18  1  0  0  0  0
 18 16  1  1  0  0  0
 19 17  1  0  0  0  0
 19 18  1  0  0  0  0
 21 20  1  6  0  0  0
 21 22  1  0  0  0  0
 21 28  1  0  0  0  0
 21 23  1  0  0  0  0
 22 23  1  0  0  0  0
 24 30  1  0  0  0  0
 25 27  1  0  0  0  0
 25 30  2  0  0  0  0
 26 25  1  0  0  0  0
 28 24  2  0  0  0  0
 29 26  2  0  0  0  0
 29 28  1  0  0  0  0
M  END
>  <MODEL>
8

>  <REMARK>
 VINA RESULT:      -7.1      2.326      6.468
  Name = 
  10 active torsions:
  status: ('A' for Active; 'I' for Inactive)
    1  A    between atoms: O_3  and  C_23
    2  A    between atoms: O_3  and  C_26
    3  A    between atoms: C_8  and  C_23
    4  A    between atoms: C_10  and  C_19
    5  A    between atoms: C_10  and  C_22
    6  A    between atoms: N_13  and  C_26
    7  A    between atoms: C_14  and  C_15
    8  A    between atoms: C_16  and  C_29
    9  A    between atoms: C_19  and  C_26
   10  A    between atoms: C_23  and  C_29
                            x       y       z     vdW  Elec       q    Type
                         _______ _______ _______ _____ _____    ______ ____

>  <TORSDO>
F 10

$$$$
=
 OpenBabel11032419173D

 30 33  0  0  1  0  0  0  0  0999 V2000
  187.7780  178.5390  141.1210 C   0  0  2  0  0  3  0  0  0  0  0  0
  189.2730  176.6720  138.8640 N   0  0  0  0  0  0  0  0  0  0  0  0
  189.6860  178.6050  139.8320 O   0  0  0  0  0  0  0  0  0  0  0  0
  188.3110  178.6390  139.7590 N   0  0  0  0  0  0  0  0  0  0  0  0
  190.1930  177.4420  139.3110 C   0  0  0  0  0  0  0  0  0  0  0  0
  188.0030  177.3610  139.0840 C   0  0  0  0  0  2  0  0  0  0  0  0
  192.3670  177.5030  140.2240 O   0  0  0  0  0  0  0  0  0  0  0  0
  191.6220  177.1160  139.2850 C   0  0  0  0  0  0  0  0  0  0  0  0
  192.2080  176.3270  138.1610 C   0  0  0  0  0  1  0  0  0  0  0  0
  186.6230  179.3370  141.3460 O   0  0  0  0  0  0  0  0  0  0  0  0
  185.4030  178.6490  141.1050 C   0  0  1  0  0  3  0  0  0  0  0  0
  183.2100  178.5390  142.0330 F   0  0  0  0  0  0  0  0  0  0  0  0
  184.5350  178.2510  142.3060 C   0  0  0  0  0  3  0  0  0  0  0  0
  184.9140  178.9720  143.4260 F   0  0  0  0  0  0  0  0  0  0  0  0
  184.5550  180.1090  139.4690 O   0  0  0  0  0  0  0  0  0  0  0  0
  184.7420  178.9430  139.7800 C   0  0  0  0  0  0  0  0  0  0  0  0
  182.7750  177.7190  138.9690 C   0  0  0  0  0  2  0  0  0  0  0  0
  184.2450  177.8540  138.8670 C   0  0  1  0  0  3  0  0  0  0  0  0
  183.3780  178.3880  137.8930 O   0  0  0  0  0  0  0  0  0  0  0  0
  188.8400  178.6980  142.2100 C   0  0  0  0  0  2  0  0  0  0  0  0
  188.8880  177.4580  143.0860 C   0  0  1  0  0  0  0  0  0  0  0  0
  188.7390  176.1400  142.4320 C   0  0  0  0  0  2  0  0  0  0  0  0
  190.0040  176.6550  142.7910 O   0  0  0  0  0  0  0  0  0  0  0  0
  187.3140  177.6010  145.0390 C   0  0  0  0  0  3  0  0  0  0  0  0
  188.1650  177.7630  147.2870 C   0  0  0  0  0  0  0  0  0  0  0  0
  189.4350  177.7290  146.8010 N   0  0  0  0  0  0  0  0  0  0  0  0
  187.9310  177.8800  148.7500 C   0  0  0  0  0  1  0  0  0  0  0  0
  188.6260  177.5480  144.5570 C   0  0  0  0  0  0  0  0  0  0  0  0
  189.6870  177.6260  145.4660 C   0  0  0  0  0  3  0  0  0  0  0  0
  187.0780  177.7040  146.4110 C   0  0  0  0  0  3  0  0  0  0  0  0
  1 10  1  0  0  0  0
  1 20  1  1  0  0  0
  2  6  1  0  0  0  0
  2  5  2  0  0  0  0
  4  3  1  0  0  0  0
  4  1  1  0  0  0  0
  5  3  1  0  0  0  0
  6  4  1  0  0  0  0
  8  5  1  0  0  0  0
  8  7  2  0  0  0  0
  9  8  1  0  0  0  0
 11 16  1  6  0  0  0
 11 10  1  0  0  0  0
 11 13  1  0  0  0  0
 12 13  1  0  0  0  0
 13 14  1  0  0  0  0
 15 16  2  0  0  0  0
 18 17  1  0  0  0  0
 18 16  1  1  0  0  0
 19 18  1  0  0  0  0
 19 17  1  0  0  0  0
 21 20  1  6  0  0  0
 21 28  1  0  0  0  0
 22 23  1  0  0  0  0
 22 21  1  0  0  0  0
 23 21  1  0  0  0  0
 24 30  1  0  0  0  0
 25 27  1  0  0  0  0
 26 25  1  0  0  0  0
 28 24  2  0  0  0  0
 28 29  1  0  0  0  0
 29 26  2  0  0  0  0
 30 25  2  0  0  0  0
M  END
>  <MODEL>
9

>  <REMARK>
 VINA RESULT:      -7.1      3.196      6.813
  Name = 
  10 active torsions:
  status: ('A' for Active; 'I' for Inactive)
    1  A    between atoms: O_3  and  C_23
    2  A    between atoms: O_3  and  C_26
    3  A    between atoms: C_8  and  C_23
    4  A    between atoms: C_10  and  C_19
    5  A    between atoms: C_10  and  C_22
    6  A    between atoms: N_13  and  C_26
    7  A    between atoms: C_14  and  C_15
    8  A    between atoms: C_16  and  C_29
    9  A    between atoms: C_19  and  C_26
   10  A    between atoms: C_23  and  C_29
                            x       y       z     vdW  Elec       q    Type
                         _______ _______ _______ _____ _____    ______ ____

>  <TORSDO>
F 10

$$$$
