=
 OpenBabel11032419323D

 31 34  0  0  1  0  0  0  0  0999 V2000
  190.4500  177.3830  139.4610 C   0  0  2  0  0  3  0  0  0  0  0  0
  190.3860  177.5220  143.0650 C   0  0  0  0  0  0  0  0  0  0  0  0
  191.0660  177.4250  141.8720 C   0  0  0  0  0  3  0  0  0  0  0  0
  188.5300  177.2580  145.1920 C   0  0  1  0  0  3  0  0  0  0  0  0
  189.0550  177.6390  142.7860 C   0  0  0  0  0  0  0  0  0  0  0  0
  190.1450  177.4870  140.8850 N   0  0  0  0  0  0  0  0  0  0  0  0
  190.8970  177.5250  144.4360 C   0  0  0  0  0  3  0  0  0  0  0  0
  188.0250  177.8400  143.8510 C   0  0  0  0  0  2  0  0  0  0  0  0
  188.9090  177.6360  141.4200 C   0  0  0  0  0  3  0  0  0  0  0  0
  190.0170  177.4760  145.4490 C   0  0  0  0  0  0  0  0  0  0  0  0
  190.4890  177.4730  146.7210 F   0  0  0  0  0  0  0  0  0  0  0  0
  187.6890  177.7920  146.3400 C   0  0  0  0  0  2  0  0  0  0  0  0
  186.2130  177.5030  146.1040 C   0  0  0  0  0  2  0  0  0  0  0  0
  185.6880  179.4730  147.3410 O   0  0  0  0  0  0  0  0  0  0  0  0
  184.2470  179.0060  145.5810 N   0  0  0  0  0  1  0  0  0  0  0  0
  185.3940  178.7210  146.3770 C   0  0  0  0  0  0  0  0  0  0  0  0
  188.1810  177.0930  138.4850 O   0  0  0  0  0  0  0  0  0  0  0  0
  189.1370  179.0010  137.9790 C   0  0  0  0  0  3  0  0  0  0  0  0
  186.0380  177.3620  137.2950 C   0  0  0  0  0  1  0  0  0  0  0  0
  187.3850  177.8110  137.7330 C   0  0  0  0  0  0  0  0  0  0  0  0
  189.2680  177.8030  138.6510 C   0  0  0  0  0  0  0  0  0  0  0  0
  187.9190  179.0020  137.3920 N   0  0  0  0  0  0  0  0  0  0  0  0
  190.8230  176.0090  139.1270 N   0  0  0  0  0  2  0  0  0  0  0  0
  191.9010  176.0330  138.1400 C   0  0  0  0  0  2  0  0  0  0  0  0
  191.5530  175.2420  136.9610 N   0  0  0  0  0  2  0  0  0  0  0  0
  188.1170  174.5200  135.6540 C   0  0  0  0  0  3  0  0  0  0  0  0
  189.2950  174.4090  136.3990 C   0  0  0  0  0  3  0  0  0  0  0  0
  188.9760  176.5230  134.5940 C   0  0  0  0  0  3  0  0  0  0  0  0
  187.9600  175.5740  134.7490 C   0  0  0  0  0  3  0  0  0  0  0  0
  190.3180  175.3570  136.2470 C   0  0  0  0  0  0  0  0  0  0  0  0
  190.1520  176.4130  135.3430 C   0  0  0  0  0  3  0  0  0  0  0  0
  1 23  1  6  0  0  0
  1  6  1  0  0  0  0
  2  7  1  0  0  0  0
  3  2  2  0  0  0  0
  4 10  1  0  0  0  0
  4 12  1  1  0  0  0
  5  2  1  0  0  0  0
  5  8  1  0  0  0  0
  6  9  1  0  0  0  0
  6  3  1  0  0  0  0
  7 10  2  0  0  0  0
  8  4  1  0  0  0  0
  9  5  2  0  0  0  0
 10 11  1  0  0  0  0
 13 12  1  0  0  0  0
 13 16  1  0  0  0  0
 15 16  1  0  0  0  0
 16 14  2  0  0  0  0
 17 21  1  0  0  0  0
 18 21  2  0  0  0  0
 19 20  1  0  0  0  0
 20 17  1  0  0  0  0
 21  1  1  0  0  0  0
 22 20  2  0  0  0  0
 22 18  1  0  0  0  0
 24 23  1  0  0  0  0
 25 24  1  0  0  0  0
 26 27  1  0  0  0  0
 28 29  1  0  0  0  0
 28 31  2  0  0  0  0
 29 26  2  0  0  0  0
 30 27  2  0  0  0  0
 30 25  1  0  0  0  0
 31 30  1  0  0  0  0
M  END
>  <MODEL>
1

>  <REMARK>
 VINA RESULT:      -7.8      0.000      0.000
  Name = 
  9 active torsions:
  status: ('A' for Active; 'I' for Inactive)
    1  A    between atoms: C_2  and  N_13
    2  A    between atoms: C_2  and  N_25
    3  A    between atoms: C_2  and  C_28
    4  A    between atoms: N_4  and  C_22
    5  A    between atoms: N_4  and  C_27
    6  A    between atoms: C_8  and  C_23
    7  A    between atoms: C_11  and  C_21
    8  A    between atoms: C_11  and  C_23
    9  A    between atoms: C_22  and  N_25
                            x       y       z     vdW  Elec       q    Type
                         _______ _______ _______ _____ _____    ______ ____

>  <TORSDO>
F 9

$$$$
=
 OpenBabel11032419323D

 31 34  0  0  1  0  0  0  0  0999 V2000
  183.6720  178.9330  139.2940 C   0  0  2  0  0  3  0  0  0  0  0  0
  183.9070  178.6730  142.8840 C   0  0  0  0  0  0  0  0  0  0  0  0
  183.1920  178.9300  141.7370 C   0  0  0  0  0  3  0  0  0  0  0  0
  185.8940  178.5240  144.9010 C   0  0  1  0  0  3  0  0  0  0  0  0
  185.1760  178.3200  142.5240 C   0  0  0  0  0  0  0  0  0  0  0  0
  184.0300  178.7300  140.6950 N   0  0  0  0  0  0  0  0  0  0  0  0
  183.4810  178.7220  144.2830 C   0  0  0  0  0  3  0  0  0  0  0  0
  186.2070  177.9000  143.5210 C   0  0  0  0  0  2  0  0  0  0  0  0
  185.2440  178.3390  141.1520 C   0  0  0  0  0  3  0  0  0  0  0  0
  184.4080  178.5760  145.2420 C   0  0  0  0  0  0  0  0  0  0  0  0
  184.0160  178.6270  146.5400 F   0  0  0  0  0  0  0  0  0  0  0  0
  186.6820  177.8080  145.9870 C   0  0  0  0  0  2  0  0  0  0  0  0
  188.1600  177.7510  145.6260 C   0  0  0  0  0  2  0  0  0  0  0  0
  188.4400  177.1630  147.9200 O   0  0  0  0  0  0  0  0  0  0  0  0
  190.3190  176.8530  146.5910 N   0  0  0  0  0  1  0  0  0  0  0  0
  188.9570  177.2280  146.7760 C   0  0  0  0  0  0  0  0  0  0  0  0
  185.9070  179.0390  138.2080 O   0  0  0  0  0  0  0  0  0  0  0  0
  184.7420  177.2550  137.6880 C   0  0  0  0  0  3  0  0  0  0  0  0
  187.9500  178.6110  136.8960 C   0  0  0  0  0  1  0  0  0  0  0  0
  186.5890  178.2780  137.3890 C   0  0  0  0  0  0  0  0  0  0  0  0
  184.7640  178.4320  138.4080 C   0  0  0  0  0  0  0  0  0  0  0  0
  185.9220  177.1580  137.0370 N   0  0  0  0  0  0  0  0  0  0  0  0
  183.4300  180.3510  139.0380 N   0  0  0  0  0  2  0  0  0  0  0  0
  182.0960  180.5140  138.4640 C   0  0  0  0  0  2  0  0  0  0  0  0
  181.6520  181.9040  138.5460 N   0  0  0  0  0  2  0  0  0  0  0  0
  180.2660  182.8790  135.2050 C   0  0  0  0  0  3  0  0  0  0  0  0
  180.6170  182.0980  136.3100 C   0  0  0  0  0  3  0  0  0  0  0  0
  181.1580  184.8430  136.3090 C   0  0  0  0  0  3  0  0  0  0  0  0
  180.5400  184.2500  135.2030 C   0  0  0  0  0  3  0  0  0  0  0  0
  181.2380  182.6870  137.4220 C   0  0  0  0  0  0  0  0  0  0  0  0
  181.5060  184.0610  137.4160 C   0  0  0  0  0  3  0  0  0  0  0  0
  1 23  1  1  0  0  0
  1  6  1  0  0  0  0
  2  7  1  0  0  0  0
  3  2  2  0  0  0  0
  4 10  1  0  0  0  0
  4 12  1  1  0  0  0
  5  2  1  0  0  0  0
  5  8  1  0  0  0  0
  6  9  1  0  0  0  0
  6  3  1  0  0  0  0
  7 10  2  0  0  0  0
  8  4  1  0  0  0  0
  9  5  2  0  0  0  0
 10 11  1  0  0  0  0
 13 12  1  0  0  0  0
 13 16  1  0  0  0  0
 15 16  1  0  0  0  0
 16 14  2  0  0  0  0
 17 21  1  0  0  0  0
 18 21  2  0  0  0  0
 19 20  1  0  0  0  0
 20 17  1  0  0  0  0
 21  1  1  0  0  0  0
 22 20  2  0  0  0  0
 22 18  1  0  0  0  0
 24 25  1  0  0  0  0
 24 23  1  0  0  0  0
 26 27  1  0  0  0  0
 27 30  2  0  0  0  0
 28 31  2  0  0  0  0
 29 26  2  0  0  0  0
 29 28  1  0  0  0  0
 30 25  1  0  0  0  0
 31 30  1  0  0  0  0
M  END
>  <MODEL>
2

>  <REMARK>
 VINA RESULT:      -7.7      4.872      7.298
  Name = 
  9 active torsions:
  status: ('A' for Active; 'I' for Inactive)
    1  A    between atoms: C_2  and  N_13
    2  A    between atoms: C_2  and  N_25
    3  A    between atoms: C_2  and  C_28
    4  A    between atoms: N_4  and  C_22
    5  A    between atoms: N_4  and  C_27
    6  A    between atoms: C_8  and  C_23
    7  A    between atoms: C_11  and  C_21
    8  A    between atoms: C_11  and  C_23
    9  A    between atoms: C_22  and  N_25
                            x       y       z     vdW  Elec       q    Type
                         _______ _______ _______ _____ _____    ______ ____

>  <TORSDO>
F 9

$$$$
=
 OpenBabel11032419323D

 31 34  0  0  1  0  0  0  0  0999 V2000
  190.4430  177.3100  139.3270 C   0  0  2  0  0  3  0  0  0  0  0  0
  190.3230  177.4990  142.9270 C   0  0  0  0  0  0  0  0  0  0  0  0
  191.0240  177.4270  141.7450 C   0  0  0  0  0  3  0  0  0  0  0  0
  188.4590  177.1510  145.0360 C   0  0  1  0  0  3  0  0  0  0  0  0
  188.9910  177.5290  142.6310 C   0  0  0  0  0  0  0  0  0  0  0  0
  190.1130  177.4160  140.7460 N   0  0  0  0  0  0  0  0  0  0  0  0
  190.8150  177.5540  144.3050 C   0  0  0  0  0  3  0  0  0  0  0  0
  187.9370  177.6820  143.6800 C   0  0  0  0  0  2  0  0  0  0  0  0
  188.8640  177.4970  141.2630 C   0  0  0  0  0  3  0  0  0  0  0  0
  189.9270  177.4660  145.3080 C   0  0  0  0  0  0  0  0  0  0  0  0
  190.3810  177.5110  146.5850 F   0  0  0  0  0  0  0  0  0  0  0  0
  187.5720  177.6500  146.1660 C   0  0  0  0  0  2  0  0  0  0  0  0
  186.1030  177.5250  145.7880 C   0  0  0  0  0  2  0  0  0  0  0  0
  185.8030  179.3890  147.2450 O   0  0  0  0  0  0  0  0  0  0  0  0
  184.0300  178.9730  145.8040 N   0  0  0  0  0  1  0  0  0  0  0  0
  185.3290  178.6870  146.3150 C   0  0  0  0  0  0  0  0  0  0  0  0
  188.2300  176.9170  138.2620 O   0  0  0  0  0  0  0  0  0  0  0  0
  189.0710  178.9060  137.8740 C   0  0  0  0  0  3  0  0  0  0  0  0
  186.1130  177.1000  137.0110 C   0  0  0  0  0  1  0  0  0  0  0  0
  187.4120  177.6160  137.5150 C   0  0  0  0  0  0  0  0  0  0  0  0
  189.2620  177.6890  138.4970 C   0  0  0  0  0  0  0  0  0  0  0  0
  187.8760  178.8550  137.2460 N   0  0  0  0  0  0  0  0  0  0  0  0
  190.8610  175.9460  139.0100 N   0  0  0  0  0  2  0  0  0  0  0  0
  191.5620  175.9460  137.7280 C   0  0  0  0  0  2  0  0  0  0  0  0
  193.0090  175.8750  137.9180 N   0  0  0  0  0  2  0  0  0  0  0  0
  194.1520  172.5060  136.7430 C   0  0  0  0  0  3  0  0  0  0  0  0
  193.3980  173.6780  136.8540 C   0  0  0  0  0  3  0  0  0  0  0  0
  195.6910  173.3370  138.4200 C   0  0  0  0  0  3  0  0  0  0  0  0
  195.2960  172.3340  137.5290 C   0  0  0  0  0  3  0  0  0  0  0  0
  193.7890  174.6860  137.7480 C   0  0  0  0  0  0  0  0  0  0  0  0
  194.9380  174.5100  138.5290 C   0  0  0  0  0  3  0  0  0  0  0  0
  1 23  1  1  0  0  0
  1  6  1  0  0  0  0
  2  7  1  0  0  0  0
  3  2  2  0  0  0  0
  4 10  1  0  0  0  0
  4 12  1  1  0  0  0
  5  2  1  0  0  0  0
  5  8  1  0  0  0  0
  6  9  1  0  0  0  0
  6  3  1  0  0  0  0
  7 10  2  0  0  0  0
  8  4  1  0  0  0  0
  9  5  2  0  0  0  0
 10 11  1  0  0  0  0
 13 12  1  0  0  0  0
 13 16  1  0  0  0  0
 15 16  1  0  0  0  0
 16 14  2  0  0  0  0
 17 21  1  0  0  0  0
 18 21  2  0  0  0  0
 19 20  1  0  0  0  0
 20 17  1  0  0  0  0
 21  1  1  0  0  0  0
 22 20  2  0  0  0  0
 22 18  1  0  0  0  0
 24 25  1  0  0  0  0
 24 23  1  0  0  0  0
 26 27  2  0  0  0  0
 26 29  1  0  0  0  0
 27 30  1  0  0  0  0
 28 31  1  0  0  0  0
 29 28  2  0  0  0  0
 30 25  1  0  0  0  0
 30 31  2  0  0  0  0
M  END
>  <MODEL>
3

>  <REMARK>
 VINA RESULT:      -7.7      1.780      2.882
  Name = 
  9 active torsions:
  status: ('A' for Active; 'I' for Inactive)
    1  A    between atoms: C_2  and  N_13
    2  A    between atoms: C_2  and  N_25
    3  A    between atoms: C_2  and  C_28
    4  A    between atoms: N_4  and  C_22
    5  A    between atoms: N_4  and  C_27
    6  A    between atoms: C_8  and  C_23
    7  A    between atoms: C_11  and  C_21
    8  A    between atoms: C_11  and  C_23
    9  A    between atoms: C_22  and  N_25
                            x       y       z     vdW  Elec       q    Type
                         _______ _______ _______ _____ _____    ______ ____

>  <TORSDO>
F 9

$$$$
=
 OpenBabel11032419323D

 31 34  0  0  1  0  0  0  0  0999 V2000
  188.8750  177.9580  141.0740 C   0  0  2  0  0  3  0  0  0  0  0  0
  186.1050  178.3890  143.3450 C   0  0  0  0  0  0  0  0  0  0  0  0
  187.4270  178.1010  143.0950 C   0  0  0  0  0  3  0  0  0  0  0  0
  183.2760  178.5680  143.2740 C   0  0  1  0  0  3  0  0  0  0  0  0
  185.5000  178.6770  142.1560 C   0  0  0  0  0  0  0  0  0  0  0  0
  187.6120  178.2180  141.7610 N   0  0  0  0  0  0  0  0  0  0  0  0
  185.3790  178.4260  144.6160 C   0  0  0  0  0  3  0  0  0  0  0  0
  184.0730  179.1100  142.0640 C   0  0  0  0  0  2  0  0  0  0  0  0
  186.4520  178.5880  141.1680 C   0  0  0  0  0  3  0  0  0  0  0  0
  184.0470  178.5860  144.5900 C   0  0  0  0  0  0  0  0  0  0  0  0
  183.3720  178.6150  145.7660 F   0  0  0  0  0  0  0  0  0  0  0  0
  181.9540  179.3080  143.4000 C   0  0  0  0  0  2  0  0  0  0  0  0
  181.0330  178.9630  142.2380 C   0  0  0  0  0  2  0  0  0  0  0  0
  179.1500  177.5450  141.8770 O   0  0  0  0  0  0  0  0  0  0  0  0
  179.6040  178.0270  144.1030 N   0  0  0  0  0  1  0  0  0  0  0  0
  179.8910  178.1260  142.7110 C   0  0  0  0  0  0  0  0  0  0  0  0
  188.0950  178.6550  138.8180 O   0  0  0  0  0  0  0  0  0  0  0  0
  188.9580  176.6390  138.8850 C   0  0  0  0  0  3  0  0  0  0  0  0
  187.5290  178.7950  136.4220 C   0  0  0  0  0  1  0  0  0  0  0  0
  188.0750  178.1140  137.6240 C   0  0  0  0  0  0  0  0  0  0  0  0
  188.6340  177.7650  139.6130 C   0  0  0  0  0  0  0  0  0  0  0  0
  188.6000  176.8710  137.6030 N   0  0  0  0  0  0  0  0  0  0  0  0
  189.5160  176.7720  141.6370 N   0  0  0  0  0  2  0  0  0  0  0  0
  190.8840  177.1080  142.0300 C   0  0  0  0  0  2  0  0  0  0  0  0
  190.8940  178.0120  143.1780 N   0  0  0  0  0  2  0  0  0  0  0  0
  191.6280  176.2770  146.4180 C   0  0  0  0  0  3  0  0  0  0  0  0
  191.7610  176.7160  145.0970 C   0  0  0  0  0  3  0  0  0  0  0  0
  189.5900  177.5690  146.6410 C   0  0  0  0  0  3  0  0  0  0  0  0
  190.5400  176.7010  147.1880 C   0  0  0  0  0  3  0  0  0  0  0  0
  190.8090  177.5860  144.5420 C   0  0  0  0  0  0  0  0  0  0  0  0
  189.7250  178.0100  145.3200 C   0  0  0  0  0  3  0  0  0  0  0  0
  1 23  1  1  0  0  0
  1  6  1  0  0  0  0
  2  7  1  0  0  0  0
  3  2  2  0  0  0  0
  4 12  1  1  0  0  0
  4 10  1  0  0  0  0
  5  2  1  0  0  0  0
  6  3  1  0  0  0  0
  8  5  1  0  0  0  0
  8  4  1  0  0  0  0
  9  6  1  0  0  0  0
  9  5  2  0  0  0  0
 10  7  2  0  0  0  0
 10 11  1  0  0  0  0
 13 16  1  0  0  0  0
 13 12  1  0  0  0  0
 14 16  2  0  0  0  0
 16 15  1  0  0  0  0
 17 21  1  0  0  0  0
 18 21  2  0  0  0  0
 19 20  1  0  0  0  0
 20 17  1  0  0  0  0
 21  1  1  0  0  0  0
 22 20  2  0  0  0  0
 22 18  1  0  0  0  0
 23 24  1  0  0  0  0
 24 25  1  0  0  0  0
 25 30  1  0  0  0  0
 26 29  1  0  0  0  0
 27 26  2  0  0  0  0
 28 29  2  0  0  0  0
 30 27  1  0  0  0  0
 30 31  2  0  0  0  0
 31 28  1  0  0  0  0
M  END
>  <MODEL>
4

>  <REMARK>
 VINA RESULT:      -7.7      3.419      6.411
  Name = 
  9 active torsions:
  status: ('A' for Active; 'I' for Inactive)
    1  A    between atoms: C_2  and  N_13
    2  A    between atoms: C_2  and  N_25
    3  A    between atoms: C_2  and  C_28
    4  A    between atoms: N_4  and  C_22
    5  A    between atoms: N_4  and  C_27
    6  A    between atoms: C_8  and  C_23
    7  A    between atoms: C_11  and  C_21
    8  A    between atoms: C_11  and  C_23
    9  A    between atoms: C_22  and  N_25
                            x       y       z     vdW  Elec       q    Type
                         _______ _______ _______ _____ _____    ______ ____

>  <TORSDO>
F 9

$$$$
=
 OpenBabel11032419323D

 31 34  0  0  1  0  0  0  0  0999 V2000
  189.2000  177.9830  140.2030 C   0  0  2  0  0  3  0  0  0  0  0  0
  187.0100  178.0530  143.0680 C   0  0  0  0  0  0  0  0  0  0  0  0
  188.2030  177.7200  142.4690 C   0  0  0  0  0  3  0  0  0  0  0  0
  184.2760  178.5040  143.6730 C   0  0  1  0  0  3  0  0  0  0  0  0
  186.2370  178.6990  142.1470 C   0  0  0  0  0  0  0  0  0  0  0  0
  188.1440  178.1670  141.1940 N   0  0  0  0  0  0  0  0  0  0  0  0
  186.5540  177.8200  144.4400 C   0  0  0  0  0  3  0  0  0  0  0  0
  184.8970  179.2710  142.4810 C   0  0  0  0  0  2  0  0  0  0  0  0
  186.9580  178.7860  140.9800 C   0  0  0  0  0  3  0  0  0  0  0  0
  185.2800  178.1040  144.7500 C   0  0  0  0  0  0  0  0  0  0  0  0
  184.8530  177.8830  146.0190 F   0  0  0  0  0  0  0  0  0  0  0  0
  183.1260  179.3040  144.2630 C   0  0  0  0  0  2  0  0  0  0  0  0
  181.7950  178.6230  143.9730 C   0  0  0  0  0  2  0  0  0  0  0  0
  181.4320  178.7090  141.6180 O   0  0  0  0  0  0  0  0  0  0  0  0
  180.3240  180.3420  142.8430 N   0  0  0  0  0  1  0  0  0  0  0  0
  181.1720  179.2010  142.7460 C   0  0  0  0  0  0  0  0  0  0  0  0
  187.8530  176.7530  138.5120 O   0  0  0  0  0  0  0  0  0  0  0  0
  188.7310  178.6220  137.7710 C   0  0  0  0  0  3  0  0  0  0  0  0
  186.6710  176.0050  136.4810 C   0  0  0  0  0  1  0  0  0  0  0  0
  187.5180  176.9450  137.2600 C   0  0  0  0  0  0  0  0  0  0  0  0
  188.6020  177.7720  138.8510 C   0  0  0  0  0  0  0  0  0  0  0  0
  188.0270  178.0860  136.7500 N   0  0  0  0  0  0  0  0  0  0  0  0
  190.0340  176.8390  140.5660 N   0  0  0  0  0  2  0  0  0  0  0  0
  191.4230  177.1280  140.2130 C   0  0  0  0  0  2  0  0  0  0  0  0
  192.1990  177.5000  141.3940 N   0  0  0  0  0  2  0  0  0  0  0  0
  190.7770  178.6790  144.6540 C   0  0  0  0  0  3  0  0  0  0  0  0
  191.2310  178.6910  143.3310 C   0  0  0  0  0  3  0  0  0  0  0  0
  191.2290  176.3010  144.7870 C   0  0  0  0  0  3  0  0  0  0  0  0
  190.7800  177.4850  145.3830 C   0  0  0  0  0  3  0  0  0  0  0  0
  191.6840  177.5070  142.7300 C   0  0  0  0  0  0  0  0  0  0  0  0
  191.6800  176.3140  143.4630 C   0  0  0  0  0  3  0  0  0  0  0  0
  1 23  1  1  0  0  0
  1  6  1  0  0  0  0
  2  7  1  0  0  0  0
  3  2  2  0  0  0  0
  4 12  1  1  0  0  0
  4 10  1  0  0  0  0
  5  8  1  0  0  0  0
  5  2  1  0  0  0  0
  6  3  1  0  0  0  0
  7 10  2  0  0  0  0
  8  4  1  0  0  0  0
  9  6  1  0  0  0  0
  9  5  2  0  0  0  0
 10 11  1  0  0  0  0
 13 12  1  0  0  0  0
 14 16  2  0  0  0  0
 16 15  1  0  0  0  0
 16 13  1  0  0  0  0
 17 21  1  0  0  0  0
 18 21  2  0  0  0  0
 19 20  1  0  0  0  0
 20 17  1  0  0  0  0
 21  1  1  0  0  0  0
 22 20  2  0  0  0  0
 22 18  1  0  0  0  0
 24 23  1  0  0  0  0
 24 25  1  0  0  0  0
 25 30  1  0  0  0  0
 26 29  1  0  0  0  0
 27 26  2  0  0  0  0
 28 29  2  0  0  0  0
 30 27  1  0  0  0  0
 30 31  2  0  0  0  0
 31 28  1  0  0  0  0
M  END
>  <MODEL>
5

>  <REMARK>
 VINA RESULT:      -7.7      2.783      5.325
  Name = 
  9 active torsions:
  status: ('A' for Active; 'I' for Inactive)
    1  A    between atoms: C_2  and  N_13
    2  A    between atoms: C_2  and  N_25
    3  A    between atoms: C_2  and  C_28
    4  A    between atoms: N_4  and  C_22
    5  A    between atoms: N_4  and  C_27
    6  A    between atoms: C_8  and  C_23
    7  A    between atoms: C_11  and  C_21
    8  A    between atoms: C_11  and  C_23
    9  A    between atoms: C_22  and  N_25
                            x       y       z     vdW  Elec       q    Type
                         _______ _______ _______ _____ _____    ______ ____

>  <TORSDO>
F 9

$$$$
=
 OpenBabel11032419323D

 31 34  0  0  1  0  0  0  0  0999 V2000
  188.3600  178.2960  141.6890 C   0  0  2  0  0  3  0  0  0  0  0  0
  184.9240  178.6400  142.7340 C   0  0  0  0  0  0  0  0  0  0  0  0
  186.2590  178.4610  143.0150 C   0  0  0  0  0  3  0  0  0  0  0  0
  182.3190  178.5370  141.6190 C   0  0  1  0  0  3  0  0  0  0  0  0
  184.7880  178.7700  141.3820 C   0  0  0  0  0  0  0  0  0  0  0  0
  186.9190  178.4870  141.8360 N   0  0  0  0  0  0  0  0  0  0  0  0
  183.7770  178.7090  143.6410 C   0  0  0  0  0  3  0  0  0  0  0  0
  183.4740  179.0540  140.7290 C   0  0  0  0  0  2  0  0  0  0  0  0
  186.0420  178.6940  140.8240 C   0  0  0  0  0  3  0  0  0  0  0  0
  182.5430  178.7360  143.1140 C   0  0  0  0  0  0  0  0  0  0  0  0
  181.4780  178.7940  143.9530 F   0  0  0  0  0  0  0  0  0  0  0  0
  181.0030  179.1540  141.1730 C   0  0  0  0  0  2  0  0  0  0  0  0
  180.3710  178.3240  140.0630 C   0  0  0  0  0  2  0  0  0  0  0  0
  178.9310  177.2010  141.5960 O   0  0  0  0  0  0  0  0  0  0  0  0
  180.0560  175.8150  140.1100 N   0  0  0  0  0  1  0  0  0  0  0  0
  179.7290  177.1010  140.6290 C   0  0  0  0  0  0  0  0  0  0  0  0
  188.6300  178.9350  139.3010 O   0  0  0  0  0  0  0  0  0  0  0  0
  189.1560  176.8500  139.7360 C   0  0  0  0  0  3  0  0  0  0  0  0
  189.0840  178.9920  136.8780 C   0  0  0  0  0  1  0  0  0  0  0  0
  189.0240  178.3310  138.2080 C   0  0  0  0  0  0  0  0  0  0  0  0
  188.7000  178.0440  140.2580 C   0  0  0  0  0  0  0  0  0  0  0  0
  189.3670  177.0430  138.4150 N   0  0  0  0  0  0  0  0  0  0  0  0
  188.8030  177.1750  142.5150 N   0  0  0  0  0  2  0  0  0  0  0  0
  189.7270  177.6670  143.5350 C   0  0  0  0  0  2  0  0  0  0  0  0
  189.6430  176.8640  144.7530 N   0  0  0  0  0  2  0  0  0  0  0  0
  187.0490  178.0840  147.1670 C   0  0  0  0  0  3  0  0  0  0  0  0
  187.6380  177.6230  145.9860 C   0  0  0  0  0  3  0  0  0  0  0  0
  189.1800  177.8930  148.3050 C   0  0  0  0  0  3  0  0  0  0  0  0
  187.8210  178.2230  148.3250 C   0  0  0  0  0  3  0  0  0  0  0  0
  189.0020  177.2930  145.9600 C   0  0  0  0  0  0  0  0  0  0  0  0
  189.7680  177.4290  147.1240 C   0  0  0  0  0  3  0  0  0  0  0  0
  1  6  1  0  0  0  0
  1 23  1  1  0  0  0
  2  3  2  0  0  0  0
  2  7  1  0  0  0  0
  4 12  1  6  0  0  0
  4 10  1  0  0  0  0
  5  2  1  0  0  0  0
  6  3  1  0  0  0  0
  8  5  1  0  0  0  0
  8  4  1  0  0  0  0
  9  5  2  0  0  0  0
  9  6  1  0  0  0  0
 10  7  2  0  0  0  0
 10 11  1  0  0  0  0
 13 16  1  0  0  0  0
 13 12  1  0  0  0  0
 15 16  1  0  0  0  0
 16 14  2  0  0  0  0
 17 21  1  0  0  0  0
 18 21  2  0  0  0  0
 19 20  1  0  0  0  0
 20 22  2  0  0  0  0
 20 17  1  0  0  0  0
 21  1  1  0  0  0  0
 22 18  1  0  0  0  0
 23 24  1  0  0  0  0
 24 25  1  0  0  0  0
 25 30  1  0  0  0  0
 26 29  1  0  0  0  0
 27 26  2  0  0  0  0
 28 29  2  0  0  0  0
 30 27  1  0  0  0  0
 30 31  2  0  0  0  0
 31 28  1  0  0  0  0
M  END
>  <MODEL>
6

>  <REMARK>
 VINA RESULT:      -7.7      4.231      7.589
  Name = 
  9 active torsions:
  status: ('A' for Active; 'I' for Inactive)
    1  A    between atoms: C_2  and  N_13
    2  A    between atoms: C_2  and  N_25
    3  A    between atoms: C_2  and  C_28
    4  A    between atoms: N_4  and  C_22
    5  A    between atoms: N_4  and  C_27
    6  A    between atoms: C_8  and  C_23
    7  A    between atoms: C_11  and  C_21
    8  A    between atoms: C_11  and  C_23
    9  A    between atoms: C_22  and  N_25
                            x       y       z     vdW  Elec       q    Type
                         _______ _______ _______ _____ _____    ______ ____

>  <TORSDO>
F 9

$$$$
=
 OpenBabel11032419323D

 31 34  0  0  1  0  0  0  0  0999 V2000
  188.5940  177.7540  143.4520 C   0  0  2  0  0  3  0  0  0  0  0  0
  188.9370  178.0800  139.8750 C   0  0  0  0  0  0  0  0  0  0  0  0
  188.4030  178.4820  141.0790 C   0  0  0  0  0  3  0  0  0  0  0  0
  189.9010  176.5880  137.6650 C   0  0  1  0  0  3  0  0  0  0  0  0
  189.7830  177.0350  140.1130 C   0  0  0  0  0  0  0  0  0  0  0  0
  188.9300  177.6820  142.0320 N   0  0  0  0  0  0  0  0  0  0  0  0
  188.7190  178.6130  138.5300 C   0  0  0  0  0  3  0  0  0  0  0  0
  190.5950  176.3960  139.0340 C   0  0  0  0  0  2  0  0  0  0  0  0
  189.7910  176.8010  141.4680 C   0  0  0  0  0  3  0  0  0  0  0  0
  189.2380  177.9500  137.4850 C   0  0  0  0  0  0  0  0  0  0  0  0
  189.0330  178.4390  136.2360 F   0  0  0  0  0  0  0  0  0  0  0  0
  190.8820  176.3000  136.5400 C   0  0  0  0  0  2  0  0  0  0  0  0
  192.0580  175.4800  137.0510 C   0  0  0  0  0  2  0  0  0  0  0  0
  193.9170  176.9030  137.5050 O   0  0  0  0  0  0  0  0  0  0  0  0
  193.9120  175.9380  135.3930 N   0  0  0  0  0  1  0  0  0  0  0  0
  193.3490  176.1360  136.6860 C   0  0  0  0  0  0  0  0  0  0  0  0
  190.1250  176.6620  145.0790 O   0  0  0  0  0  0  0  0  0  0  0  0
  190.8590  178.5790  144.3050 C   0  0  0  0  0  3  0  0  0  0  0  0
  191.9880  176.0680  146.5810 C   0  0  0  0  0  1  0  0  0  0  0  0
  191.2930  176.9420  145.6010 C   0  0  0  0  0  0  0  0  0  0  0  0
  189.8340  177.6550  144.2780 C   0  0  0  0  0  0  0  0  0  0  0  0
  191.7990  178.1110  145.1560 N   0  0  0  0  0  0  0  0  0  0  0  0
  187.6710  176.6770  143.8030 N   0  0  0  0  0  2  0  0  0  0  0  0
  186.7820  177.1370  144.8690 C   0  0  0  0  0  2  0  0  0  0  0  0
  186.1290  178.3930  144.5050 N   0  0  0  0  0  2  0  0  0  0  0  0
  183.6850  178.4040  141.6640 C   0  0  0  0  0  3  0  0  0  0  0  0
  184.8820  178.2640  142.3750 C   0  0  0  0  0  3  0  0  0  0  0  0
  182.5350  178.9850  143.7170 C   0  0  0  0  0  3  0  0  0  0  0  0
  182.5140  178.7690  142.3350 C   0  0  0  0  0  3  0  0  0  0  0  0
  184.9090  178.4820  143.7610 C   0  0  0  0  0  0  0  0  0  0  0  0
  183.7320  178.8410  144.4270 C   0  0  0  0  0  3  0  0  0  0  0  0
  1 23  1  1  0  0  0
  1 21  1  0  0  0  0
  2  5  1  0  0  0  0
  2  3  2  0  0  0  0
  3  6  1  0  0  0  0
  4 12  1  6  0  0  0
  4  8  1  0  0  0  0
  5  9  2  0  0  0  0
  6  1  1  0  0  0  0
  7  2  1  0  0  0  0
  8  5  1  0  0  0  0
  9  6  1  0  0  0  0
 10  4  1  0  0  0  0
 10  7  2  0  0  0  0
 11 10  1  0  0  0  0
 12 13  1  0  0  0  0
 15 16  1  0  0  0  0
 16 13  1  0  0  0  0
 16 14  2  0  0  0  0
 17 20  1  0  0  0  0
 18 22  1  0  0  0  0
 20 19  1  0  0  0  0
 21 18  2  0  0  0  0
 21 17  1  0  0  0  0
 22 20  2  0  0  0  0
 23 24  1  0  0  0  0
 25 24  1  0  0  0  0
 26 29  2  0  0  0  0
 26 27  1  0  0  0  0
 27 30  2  0  0  0  0
 28 31  2  0  0  0  0
 29 28  1  0  0  0  0
 30 31  1  0  0  0  0
 30 25  1  0  0  0  0
M  END
>  <MODEL>
7

>  <REMARK>
 VINA RESULT:      -7.7      3.382      8.666
  Name = 
  9 active torsions:
  status: ('A' for Active; 'I' for Inactive)
    1  A    between atoms: C_2  and  N_13
    2  A    between atoms: C_2  and  N_25
    3  A    between atoms: C_2  and  C_28
    4  A    between atoms: N_4  and  C_22
    5  A    between atoms: N_4  and  C_27
    6  A    between atoms: C_8  and  C_23
    7  A    between atoms: C_11  and  C_21
    8  A    between atoms: C_11  and  C_23
    9  A    between atoms: C_22  and  N_25
                            x       y       z     vdW  Elec       q    Type
                         _______ _______ _______ _____ _____    ______ ____

>  <TORSDO>
F 9

$$$$
=
 OpenBabel11032419323D

 31 34  0  0  1  0  0  0  0  0999 V2000
  188.9740  177.9180  139.6490 C   0  0  2  0  0  3  0  0  0  0  0  0
  186.5930  178.4070  142.3140 C   0  0  0  0  0  0  0  0  0  0  0  0
  186.9870  178.5590  141.0040 C   0  0  0  0  0  3  0  0  0  0  0  0
  186.4770  178.2660  145.1440 C   0  0  1  0  0  3  0  0  0  0  0  0
  187.5650  177.7100  142.9720 C   0  0  0  0  0  0  0  0  0  0  0  0
  188.1890  177.9540  140.8800 N   0  0  0  0  0  0  0  0  0  0  0  0
  185.3710  178.8560  142.9830 C   0  0  0  0  0  3  0  0  0  0  0  0
  187.4320  177.3000  144.4030 C   0  0  0  0  0  2  0  0  0  0  0  0
  188.5540  177.4110  142.0660 C   0  0  0  0  0  3  0  0  0  0  0  0
  185.2800  178.7210  144.3150 C   0  0  0  0  0  0  0  0  0  0  0  0
  184.1510  179.1420  144.9370 F   0  0  0  0  0  0  0  0  0  0  0  0
  186.0300  177.6480  146.4600 C   0  0  0  0  0  2  0  0  0  0  0  0
  186.6760  178.3680  147.6360 C   0  0  0  0  0  2  0  0  0  0  0  0
  188.2530  176.5800  147.7050 O   0  0  0  0  0  0  0  0  0  0  0  0
  189.0510  178.6230  148.4680 N   0  0  0  0  0  1  0  0  0  0  0  0
  188.0290  177.7990  147.9150 C   0  0  0  0  0  0  0  0  0  0  0  0
  187.5850  176.3760  138.2800 O   0  0  0  0  0  0  0  0  0  0  0  0
  187.6890  178.4220  137.4960 C   0  0  0  0  0  3  0  0  0  0  0  0
  186.1230  175.3450  136.5820 C   0  0  0  0  0  1  0  0  0  0  0  0
  186.8730  176.4770  137.1850 C   0  0  0  0  0  0  0  0  0  0  0  0
  188.0990  177.5600  138.4930 C   0  0  0  0  0  0  0  0  0  0  0  0
  186.8950  177.7190  136.6580 N   0  0  0  0  0  0  0  0  0  0  0  0
  190.0600  176.9480  139.7750 N   0  0  0  0  0  2  0  0  0  0  0  0
  191.3210  177.6630  139.9620 C   0  0  0  0  0  2  0  0  0  0  0  0
  192.0590  177.1360  141.1080 N   0  0  0  0  0  2  0  0  0  0  0  0
  191.1130  178.7870  144.3360 C   0  0  0  0  0  3  0  0  0  0  0  0
  191.4370  178.6180  142.9860 C   0  0  0  0  0  3  0  0  0  0  0  0
  191.2730  176.3930  144.6750 C   0  0  0  0  0  3  0  0  0  0  0  0
  191.0360  177.6750  145.1810 C   0  0  0  0  0  3  0  0  0  0  0  0
  191.6790  177.3340  142.4740 C   0  0  0  0  0  0  0  0  0  0  0  0
  191.5940  176.2250  143.3230 C   0  0  0  0  0  3  0  0  0  0  0  0
  1 23  1  1  0  0  0
  1  6  1  0  0  0  0
  2  5  1  0  0  0  0
  2  7  1  0  0  0  0
  3  2  2  0  0  0  0
  4 12  1  1  0  0  0
  5  8  1  0  0  0  0
  6  3  1  0  0  0  0
  6  9  1  0  0  0  0
  7 10  2  0  0  0  0
  8  4  1  0  0  0  0
  9  5  2  0  0  0  0
 10 11  1  0  0  0  0
 10  4  1  0  0  0  0
 12 13  1  0  0  0  0
 13 16  1  0  0  0  0
 14 16  2  0  0  0  0
 16 15  1  0  0  0  0
 17 21  1  0  0  0  0
 18 21  2  0  0  0  0
 19 20  1  0  0  0  0
 20 17  1  0  0  0  0
 21  1  1  0  0  0  0
 22 20  2  0  0  0  0
 22 18  1  0  0  0  0
 23 24  1  0  0  0  0
 24 25  1  0  0  0  0
 25 30  1  0  0  0  0
 26 29  1  0  0  0  0
 27 26  2  0  0  0  0
 28 29  2  0  0  0  0
 30 27  1  0  0  0  0
 30 31  2  0  0  0  0
 31 28  1  0  0  0  0
M  END
>  <MODEL>
8

>  <REMARK>
 VINA RESULT:      -7.6      2.553      4.988
  Name = 
  9 active torsions:
  status: ('A' for Active; 'I' for Inactive)
    1  A    between atoms: C_2  and  N_13
    2  A    between atoms: C_2  and  N_25
    3  A    between atoms: C_2  and  C_28
    4  A    between atoms: N_4  and  C_22
    5  A    between atoms: N_4  and  C_27
    6  A    between atoms: C_8  and  C_23
    7  A    between atoms: C_11  and  C_21
    8  A    between atoms: C_11  and  C_23
    9  A    between atoms: C_22  and  N_25
                            x       y       z     vdW  Elec       q    Type
                         _______ _______ _______ _____ _____    ______ ____

>  <TORSDO>
F 9

$$$$
=
 OpenBabel11032419323D

 31 34  0  0  1  0  0  0  0  0999 V2000
  183.8370  179.0120  141.8190 C   0  0  2  0  0  3  0  0  0  0  0  0
  185.4860  178.6250  145.0030 C   0  0  0  0  0  0  0  0  0  0  0  0
  184.4750  179.1360  144.2220 C   0  0  0  0  0  3  0  0  0  0  0  0
  187.9780  177.7560  146.0400 C   0  0  1  0  0  3  0  0  0  0  0  0
  186.2900  177.8570  144.2100 C   0  0  0  0  0  0  0  0  0  0  0  0
  184.6730  178.6730  142.9670 N   0  0  0  0  0  0  0  0  0  0  0  0
  185.7410  178.7960  146.4340 C   0  0  0  0  0  3  0  0  0  0  0  0
  187.4510  177.0860  144.7500 C   0  0  0  0  0  2  0  0  0  0  0  0
  185.7660  177.8740  142.9400 C   0  0  0  0  0  3  0  0  0  0  0  0
  186.8870  178.3190  146.9440 C   0  0  0  0  0  0  0  0  0  0  0  0
  187.1270  178.4820  148.2700 F   0  0  0  0  0  0  0  0  0  0  0  0
  188.8770  176.7910  146.7970 C   0  0  0  0  0  2  0  0  0  0  0  0
  190.1880  177.4660  147.1780 C   0  0  0  0  0  2  0  0  0  0  0  0
  191.4730  176.8090  145.2790 O   0  0  0  0  0  0  0  0  0  0  0  0
  192.2560  176.0170  147.3170 N   0  0  0  0  0  1  0  0  0  0  0  0
  191.3380  176.7700  146.5290 C   0  0  0  0  0  0  0  0  0  0  0  0
  181.8610  178.9830  143.3290 O   0  0  0  0  0  0  0  0  0  0  0  0
  181.4220  178.3770  141.2670 C   0  0  0  0  0  3  0  0  0  0  0  0
  179.6120  178.7770  144.3200 C   0  0  0  0  0  1  0  0  0  0  0  0
  180.5880  178.6990  143.2020 C   0  0  0  0  0  0  0  0  0  0  0  0
  182.3970  178.7920  142.1500 C   0  0  0  0  0  0  0  0  0  0  0  0
  180.2570  178.3230  141.9490 N   0  0  0  0  0  0  0  0  0  0  0  0
  184.2150  178.1990  140.6650 N   0  0  0  0  0  2  0  0  0  0  0  0
  184.7900  179.0650  139.6370 C   0  0  0  0  0  2  0  0  0  0  0  0
  185.4290  178.2790  138.5840 N   0  0  0  0  0  2  0  0  0  0  0  0
  188.7290  178.2950  136.8090 C   0  0  0  0  0  3  0  0  0  0  0  0
  187.3500  178.3650  137.0300 C   0  0  0  0  0  3  0  0  0  0  0  0
  189.0970  178.0130  139.1870 C   0  0  0  0  0  3  0  0  0  0  0  0
  189.6020  178.1150  137.8860 C   0  0  0  0  0  3  0  0  0  0  0  0
  186.8390  178.2600  138.3330 C   0  0  0  0  0  0  0  0  0  0  0  0
  187.7180  178.0850  139.4080 C   0  0  0  0  0  3  0  0  0  0  0  0
  1 23  1  6  0  0  0
  1 21  1  0  0  0  0
  1  6  1  0  0  0  0
  2  7  1  0  0  0  0
  3  2  2  0  0  0  0
  4 12  1  1  0  0  0
  4 10  1  0  0  0  0
  5  8  1  0  0  0  0
  5  2  1  0  0  0  0
  6  3  1  0  0  0  0
  7 10  2  0  0  0  0
  8  4  1  0  0  0  0
  9  6  1  0  0  0  0
  9  5  2  0  0  0  0
 10 11  1  0  0  0  0
 12 13  1  0  0  0  0
 14 16  2  0  0  0  0
 16 13  1  0  0  0  0
 16 15  1  0  0  0  0
 18 22  1  0  0  0  0
 18 21  2  0  0  0  0
 20 17  1  0  0  0  0
 20 19  1  0  0  0  0
 21 17  1  0  0  0  0
 22 20  2  0  0  0  0
 24 23  1  0  0  0  0
 25 24  1  0  0  0  0
 26 27  2  0  0  0  0
 26 29  1  0  0  0  0
 27 30  1  0  0  0  0
 28 31  1  0  0  0  0
 29 28  2  0  0  0  0
 30 25  1  0  0  0  0
 30 31  2  0  0  0  0
M  END
>  <MODEL>
9

>  <REMARK>
 VINA RESULT:      -7.6      3.652      6.145
  Name = 
  9 active torsions:
  status: ('A' for Active; 'I' for Inactive)
    1  A    between atoms: C_2  and  N_13
    2  A    between atoms: C_2  and  N_25
    3  A    between atoms: C_2  and  C_28
    4  A    between atoms: N_4  and  C_22
    5  A    between atoms: N_4  and  C_27
    6  A    between atoms: C_8  and  C_23
    7  A    between atoms: C_11  and  C_21
    8  A    between atoms: C_11  and  C_23
    9  A    between atoms: C_22  and  N_25
                            x       y       z     vdW  Elec       q    Type
                         _______ _______ _______ _____ _____    ______ ____

>  <TORSDO>
F 9

$$$$
