=
 OpenBabel11042411033D

 39 42  0  0  1  0  0  0  0  0999 V2000
  188.8360  177.2730  140.4190 C   0  0  2  0  0  3  0  0  0  0  0  0
  185.2700  179.7630  141.0020 O   0  0  0  0  0  0  0  0  0  0  0  0
  187.5720  178.0730  140.4570 C   0  0  0  0  0  0  0  0  0  0  0  0
  187.1450  178.6360  139.4110 O   0  0  0  0  0  0  0  0  0  0  0  0
  186.8720  178.2010  141.7000 N   0  0  0  0  0  2  0  0  0  0  0  0
  185.7240  179.0270  141.9180 C   0  0  0  0  0  0  0  0  0  0  0  0
  185.0520  179.0080  143.2480 C   0  0  0  0  0  2  0  0  0  0  0  0
  185.7980  178.1040  144.2160 C   0  0  0  0  0  2  0  0  0  0  0  0
  185.8070  178.6750  145.4920 O   0  0  0  0  0  0  0  0  0  0  0  0
  189.0170  177.0570  146.4290 C   0  0  0  0  0  3  0  0  0  0  0  0
  186.8550  178.4620  147.6110 C   0  0  0  0  0  3  0  0  0  0  0  0
  189.0170  177.3350  147.7360 C   0  0  0  0  0  3  0  0  0  0  0  0
  187.9860  177.6740  145.5190 C   0  0  0  0  0  2  0  0  0  0  0  0
  186.6470  177.8560  146.2470 C   0  0  2  0  0  3  0  0  0  0  0  0
  187.9550  178.1800  148.3170 C   0  0  0  0  0  3  0  0  0  0  0  0
  189.0740  176.1580  142.5050 O   0  0  0  0  0  0  0  0  0  0  0  0
  190.3070  178.1360  142.2960 N   0  0  0  0  0  2  0  0  0  0  0  0
  189.4100  177.1410  141.7910 C   0  0  0  0  0  0  0  0  0  0  0  0
  192.0000  177.2610  143.6540 O   0  0  0  0  0  1  0  0  0  0  0  0
  191.2970  179.5050  144.0710 C   0  0  0  0  0  1  0  0  0  0  0  0
  190.8940  178.1100  143.6310 C   0  0  1  0  0  3  0  0  0  0  0  0
  189.8110  177.8780  139.5180 N   0  0  0  0  0  2  0  0  0  0  0  0
  191.1660  176.1200  136.5020 C   0  0  0  0  0  3  0  0  0  0  0  0
  192.4270  175.7390  136.9610 C   0  0  0  0  0  3  0  0  0  0  0  0
  190.6760  177.1350  138.6510 C   0  0  0  0  0  0  0  0  0  0  0  0
  192.8190  176.0560  138.2600 C   0  0  0  0  0  3  0  0  0  0  0  0
  191.9500  176.7520  139.0980 C   0  0  0  0  0  3  0  0  0  0  0  0
  190.2740  176.8190  137.3300 C   0  0  0  0  0  0  0  0  0  0  0  0
  187.7650  175.1080  137.1460 N   0  0  0  0  0  0  0  0  0  0  0  0
  187.0830  178.3230  135.9330 C   0  0  0  0  0  3  0  0  0  0  0  0
  187.8560  176.4070  136.7600 C   0  0  0  0  0  0  0  0  0  0  0  0
  185.5600  176.4140  136.1180 C   0  0  0  0  0  0  0  0  0  0  0  0
  188.9290  177.1860  136.8070 C   0  0  0  0  0  0  0  0  0  0  0  0
  185.4830  175.1120  136.5130 N   0  0  0  0  0  0  0  0  0  0  0  0
  186.5710  174.4590  137.0230 C   0  0  0  0  0  0  0  0  0  0  0  0
  186.4550  173.0370  137.4340 C   0  0  0  0  0  1  0  0  0  0  0  0
  184.4130  177.0740  135.5940 N   0  0  0  0  0  1  0  0  0  0  0  0
  188.5330  178.5340  136.2670 C   0  0  0  0  0  2  0  0  0  0  0  0
  186.7800  177.0740  136.2460 C   0  0  0  0  0  0  0  0  0  0  0  0
  1 22  1  6  0  0  0
  1  3  1  0  0  0  0
  1 18  1  0  0  0  0
  2  6  2  0  0  0  0
  3  5  1  0  0  0  0
  4  3  2  0  0  0  0
  5  6  1  0  0  0  0
  6  7  1  0  0  0  0
  7  8  1  0  0  0  0
  8  9  1  0  0  0  0
 10 12  2  0  0  0  0
 11 15  2  0  0  0  0
 12 15  1  0  0  0  0
 13 14  1  0  0  0  0
 13 10  1  0  0  0  0
 14  9  1  6  0  0  0
 14 11  1  0  0  0  0
 17 21  1  0  0  0  0
 18 17  1  0  0  0  0
 18 16  2  0  0  0  0
 21 19  1  0  0  0  0
 21 20  1  6  0  0  0
 23 24  2  0  0  0  0
 23 28  1  0  0  0  0
 24 26  1  0  0  0  0
 25 27  1  0  0  0  0
 25 22  1  0  0  0  0
 26 27  2  0  0  0  0
 28 25  2  0  0  0  0
 30 39  2  0  0  0  0
 30 38  1  0  0  0  0
 31 33  2  0  0  0  0
 31 29  1  0  0  0  0
 32 39  1  0  0  0  0
 32 34  2  0  0  0  0
 33 28  1  0  0  0  0
 34 35  1  0  0  0  0
 35 29  2  0  0  0  0
 35 36  1  0  0  0  0
 37 32  1  0  0  0  0
 38 33  1  0  0  0  0
 39 31  1  0  0  0  0
M  END
>  <MODEL>
1

>  <REMARK>
 VINA RESULT:      -8.8      0.000      0.000
  Name = 
  10 active torsions:
  status: ('A' for Active; 'I' for Inactive)
    1  A    between atoms: C_1  and  C_9
    2  A    between atoms: C_1  and  C_22
    3  A    between atoms: C_1  and  N_31
    4  A    between atoms: C_2  and  C_34
    5  A    between atoms: C_2  and  C_35
    6  A    between atoms: C_13  and  N_31
    7  A    between atoms: C_15  and  C_33
    8  A    between atoms: N_18  and  C_37
    9  A    between atoms: C_25  and  O_32
   10  A    between atoms: O_32  and  C_34
                            x       y       z     vdW  Elec       q    Type
                         _______ _______ _______ _____ _____    ______ ____

>  <TORSDO>
F 10

$$$$
=
 OpenBabel11042411033D

 39 42  0  0  1  0  0  0  0  0999 V2000
  184.9860  178.9220  140.7260 C   0  0  2  0  0  3  0  0  0  0  0  0
  180.9390  177.7420  139.5080 O   0  0  0  0  0  0  0  0  0  0  0  0
  183.6190  178.3900  140.4270 C   0  0  0  0  0  0  0  0  0  0  0  0
  183.4020  177.1470  140.4540 O   0  0  0  0  0  0  0  0  0  0  0  0
  182.5770  179.3130  140.0940 N   0  0  0  0  0  2  0  0  0  0  0  0
  181.2590  178.9500  139.6690 C   0  0  0  0  0  0  0  0  0  0  0  0
  180.2490  180.0180  139.4240 C   0  0  0  0  0  2  0  0  0  0  0  0
  180.5870  180.7990  138.1650 C   0  0  0  0  0  2  0  0  0  0  0  0
  181.0670  182.0670  138.5040 O   0  0  0  0  0  0  0  0  0  0  0  0
  181.0760  184.9920  136.2150 C   0  0  0  0  0  3  0  0  0  0  0  0
  180.5170  182.2110  136.2000 C   0  0  0  0  0  3  0  0  0  0  0  0
  180.7150  184.3740  135.0850 C   0  0  0  0  0  3  0  0  0  0  0  0
  181.4110  184.1910  137.4460 C   0  0  0  0  0  2  0  0  0  0  0  0
  180.5530  182.9210  137.5280 C   0  0  2  0  0  3  0  0  0  0  0  0
  180.5560  182.9070  135.0580 C   0  0  0  0  0  3  0  0  0  0  0  0
  185.3960  178.9080  138.3840 O   0  0  0  0  0  0  0  0  0  0  0  0
  187.2570  178.4150  139.7160 N   0  0  0  0  0  2  0  0  0  0  0  0
  185.8780  178.7610  139.5400 C   0  0  0  0  0  0  0  0  0  0  0  0
  188.9960  179.3370  138.4500 O   0  0  0  0  0  1  0  0  0  0  0  0
  189.0620  176.9880  138.8760 C   0  0  0  0  0  1  0  0  0  0  0  0
  188.1970  178.2080  138.6200 C   0  0  1  0  0  3  0  0  0  0  0  0
  185.5640  178.2550  141.8880 N   0  0  0  0  0  2  0  0  0  0  0  0
  185.3990  178.2960  145.6290 C   0  0  0  0  0  3  0  0  0  0  0  0
  184.1000  178.7610  145.8320 C   0  0  0  0  0  3  0  0  0  0  0  0
  185.0740  178.3990  143.2270 C   0  0  0  0  0  0  0  0  0  0  0  0
  183.2860  179.0500  144.7400 C   0  0  0  0  0  3  0  0  0  0  0  0
  183.7720  178.8730  143.4450 C   0  0  0  0  0  3  0  0  0  0  0  0
  185.9070  178.1070  144.3340 C   0  0  0  0  0  0  0  0  0  0  0  0
  188.1390  177.9070  146.3920 N   0  0  0  0  0  0  0  0  0  0  0  0
  189.2550  176.6340  143.3250 C   0  0  0  0  0  3  0  0  0  0  0  0
  188.2300  177.5060  145.0980 C   0  0  0  0  0  0  0  0  0  0  0  0
  190.4770  176.7860  145.4410 C   0  0  0  0  0  0  0  0  0  0  0  0
  187.2920  177.5870  144.1630 C   0  0  0  0  0  0  0  0  0  0  0  0
  190.3700  177.1900  146.7390 N   0  0  0  0  0  2  0  0  0  0  0  0
  189.2150  177.7450  147.2160 C   0  0  0  0  0  0  0  0  0  0  0  0
  189.1350  178.1840  148.6320 C   0  0  0  0  0  1  0  0  0  0  0  0
  191.6880  176.2070  144.9690 N   0  0  0  0  0  1  0  0  0  0  0  0
  187.8680  177.0200  142.8940 C   0  0  0  0  0  3  0  0  0  0  0  0
  189.3770  176.9520  144.6030 C   0  0  0  0  0  0  0  0  0  0  0  0
  1 18  1  6  0  0  0
  1 22  1  0  0  0  0
  2  6  2  0  0  0  0
  3  4  2  0  0  0  0
  3  1  1  0  0  0  0
  5  3  1  0  0  0  0
  6  5  1  0  0  0  0
  7  6  1  0  0  0  0
  8  9  1  0  0  0  0
  8  7  1  0  0  0  0
 10 13  1  0  0  0  0
 11 14  1  0  0  0  0
 12 10  2  0  0  0  0
 13 14  1  0  0  0  0
 14  9  1  1  0  0  0
 15 12  1  0  0  0  0
 15 11  2  0  0  0  0
 16 18  2  0  0  0  0
 18 17  1  0  0  0  0
 19 21  1  0  0  0  0
 21 20  1  1  0  0  0
 21 17  1  0  0  0  0
 22 25  1  0  0  0  0
 23 24  1  0  0  0  0
 25 27  2  0  0  0  0
 25 28  1  0  0  0  0
 26 24  2  0  0  0  0
 27 26  1  0  0  0  0
 28 23  2  0  0  0  0
 29 35  2  0  0  0  0
 30 39  1  0  0  0  0
 31 29  1  0  0  0  0
 32 34  1  0  0  0  0
 33 28  1  0  0  0  0
 33 31  2  0  0  0  0
 34 35  1  0  0  0  0
 35 36  1  0  0  0  0
 37 32  1  0  0  0  0
 38 30  2  0  0  0  0
 38 33  1  0  0  0  0
 39 31  1  0  0  0  0
 39 32  2  0  0  0  0
M  END
>  <MODEL>
2

>  <REMARK>
 VINA RESULT:      -8.8      4.305      9.430
  Name = 
  10 active torsions:
  status: ('A' for Active; 'I' for Inactive)
    1  A    between atoms: C_1  and  C_9
    2  A    between atoms: C_1  and  C_22
    3  A    between atoms: C_1  and  N_31
    4  A    between atoms: C_2  and  C_34
    5  A    between atoms: C_2  and  C_35
    6  A    between atoms: C_13  and  N_31
    7  A    between atoms: C_15  and  C_33
    8  A    between atoms: N_18  and  C_37
    9  A    between atoms: C_25  and  O_32
   10  A    between atoms: O_32  and  C_34
                            x       y       z     vdW  Elec       q    Type
                         _______ _______ _______ _____ _____    ______ ____

>  <TORSDO>
F 10

$$$$
=
 OpenBabel11042411033D

 39 42  0  0  1  0  0  0  0  0999 V2000
  185.8570  178.9650  140.9820 C   0  0  2  0  0  3  0  0  0  0  0  0
  182.2320  179.0650  138.5110 O   0  0  0  0  0  0  0  0  0  0  0  0
  184.7160  179.0840  140.0210 C   0  0  0  0  0  0  0  0  0  0  0  0
  184.5940  180.1160  139.3040 O   0  0  0  0  0  0  0  0  0  0  0  0
  183.7630  178.0180  139.9450 N   0  0  0  0  0  2  0  0  0  0  0  0
  182.5620  178.0400  139.1660 C   0  0  0  0  0  0  0  0  0  0  0  0
  181.6950  176.8290  139.1240 C   0  0  0  0  0  2  0  0  0  0  0  0
  180.6420  176.8830  140.2190 C   0  0  0  0  0  2  0  0  0  0  0  0
  179.5460  177.6370  139.7910 O   0  0  0  0  0  0  0  0  0  0  0  0
  179.7740  178.8620  143.2900 C   0  0  0  0  0  3  0  0  0  0  0  0
  179.4080  179.8440  140.6540 C   0  0  0  0  0  3  0  0  0  0  0  0
  179.6620  180.1740  143.0590 C   0  0  0  0  0  3  0  0  0  0  0  0
  179.9350  177.8990  142.1430 C   0  0  0  0  0  2  0  0  0  0  0  0
  179.1600  178.3790  140.9080 C   0  0  2  0  0  3  0  0  0  0  0  0
  179.6050  180.6840  141.6750 C   0  0  0  0  0  3  0  0  0  0  0  0
  188.2270  178.9200  140.8050 O   0  0  0  0  0  0  0  0  0  0  0  0
  187.0810  178.1220  138.9270 N   0  0  0  0  0  2  0  0  0  0  0  0
  187.1240  178.6650  140.2520 C   0  0  0  0  0  0  0  0  0  0  0  0
  188.0650  176.6550  137.3910 O   0  0  0  0  0  1  0  0  0  0  0  0
  188.5860  178.9770  137.1930 C   0  0  0  0  0  1  0  0  0  0  0  0
  188.2620  177.8240  138.1240 C   0  0  1  0  0  3  0  0  0  0  0  0
  185.5930  177.9370  141.9830 N   0  0  0  0  0  2  0  0  0  0  0  0
  185.3840  178.3120  145.7030 C   0  0  0  0  0  3  0  0  0  0  0  0
  184.0840  178.7970  145.8470 C   0  0  0  0  0  3  0  0  0  0  0  0
  185.0880  178.2010  143.2970 C   0  0  0  0  0  0  0  0  0  0  0  0
  183.2840  178.9900  144.7240 C   0  0  0  0  0  3  0  0  0  0  0  0
  183.7850  178.6970  143.4560 C   0  0  0  0  0  3  0  0  0  0  0  0
  185.9070  178.0070  144.4360 C   0  0  0  0  0  0  0  0  0  0  0  0
  188.0970  177.9410  146.5460 N   0  0  0  0  0  0  0  0  0  0  0  0
  189.2640  176.4510  143.5980 C   0  0  0  0  0  3  0  0  0  0  0  0
  188.2110  177.4490  145.2860 C   0  0  0  0  0  0  0  0  0  0  0  0
  190.4460  176.7460  145.7230 C   0  0  0  0  0  0  0  0  0  0  0  0
  187.2910  177.4690  144.3290 C   0  0  0  0  0  0  0  0  0  0  0  0
  190.3160  177.2390  146.9870 N   0  0  0  0  0  2  0  0  0  0  0  0
  189.1560  177.8320  147.4010 C   0  0  0  0  0  0  0  0  0  0  0  0
  189.0510  178.3690  148.7820 C   0  0  0  0  0  1  0  0  0  0  0  0
  191.6630  176.1290  145.3160 N   0  0  0  0  0  1  0  0  0  0  0  0
  187.8880  176.8130  143.1140 C   0  0  0  0  0  3  0  0  0  0  0  0
  189.3630  176.8570  144.8540 C   0  0  0  0  0  0  0  0  0  0  0  0
  1  3  1  6  0  0  0
  1 22  1  0  0  0  0
  2  6  2  0  0  0  0
  4  3  2  0  0  0  0
  5  3  1  0  0  0  0
  6  5  1  0  0  0  0
  7  6  1  0  0  0  0
  7  8  1  0  0  0  0
  9  8  1  0  0  0  0
 11 14  1  0  0  0  0
 11 15  2  0  0  0  0
 12 10  2  0  0  0  0
 13 10  1  0  0  0  0
 14  9  1  6  0  0  0
 14 13  1  0  0  0  0
 15 12  1  0  0  0  0
 17 18  1  0  0  0  0
 18 16  2  0  0  0  0
 18  1  1  0  0  0  0
 19 21  1  0  0  0  0
 21 20  1  6  0  0  0
 21 17  1  0  0  0  0
 22 25  1  0  0  0  0
 23 24  1  0  0  0  0
 25 27  2  0  0  0  0
 25 28  1  0  0  0  0
 26 24  2  0  0  0  0
 27 26  1  0  0  0  0
 28 23  2  0  0  0  0
 29 35  2  0  0  0  0
 30 39  1  0  0  0  0
 31 29  1  0  0  0  0
 32 34  1  0  0  0  0
 33 28  1  0  0  0  0
 33 31  2  0  0  0  0
 34 35  1  0  0  0  0
 35 36  1  0  0  0  0
 37 32  1  0  0  0  0
 38 30  2  0  0  0  0
 38 33  1  0  0  0  0
 39 31  1  0  0  0  0
 39 32  2  0  0  0  0
M  END
>  <MODEL>
3

>  <REMARK>
 VINA RESULT:      -8.6      3.485      8.473
  Name = 
  10 active torsions:
  status: ('A' for Active; 'I' for Inactive)
    1  A    between atoms: C_1  and  C_9
    2  A    between atoms: C_1  and  C_22
    3  A    between atoms: C_1  and  N_31
    4  A    between atoms: C_2  and  C_34
    5  A    between atoms: C_2  and  C_35
    6  A    between atoms: C_13  and  N_31
    7  A    between atoms: C_15  and  C_33
    8  A    between atoms: N_18  and  C_37
    9  A    between atoms: C_25  and  O_32
   10  A    between atoms: O_32  and  C_34
                            x       y       z     vdW  Elec       q    Type
                         _______ _______ _______ _____ _____    ______ ____

>  <TORSDO>
F 10

$$$$
=
 OpenBabel11042411033D

 39 42  0  0  1  0  0  0  0  0999 V2000
  189.2840  177.4060  139.9310 C   0  0  2  0  0  3  0  0  0  0  0  0
  193.4440  176.8860  138.6340 O   0  0  0  0  0  0  0  0  0  0  0  0
  190.7410  177.2060  139.6570 C   0  0  0  0  0  0  0  0  0  0  0  0
  191.6050  177.6390  140.4690 O   0  0  0  0  0  0  0  0  0  0  0  0
  191.1330  176.5350  138.4540 N   0  0  0  0  0  2  0  0  0  0  0  0
  192.4810  176.3780  138.0000 C   0  0  0  0  0  0  0  0  0  0  0  0
  192.7480  175.5920  136.7620 C   0  0  0  0  0  2  0  0  0  0  0  0
  194.2040  175.1570  136.7050 C   0  0  0  0  0  2  0  0  0  0  0  0
  194.3180  173.8160  137.0820 O   0  0  0  0  0  0  0  0  0  0  0  0
  197.9270  174.6400  137.3870 C   0  0  0  0  0  3  0  0  0  0  0  0
  195.6550  174.1510  139.0140 C   0  0  0  0  0  3  0  0  0  0  0  0
  198.0090  174.7260  138.7180 C   0  0  0  0  0  3  0  0  0  0  0  0
  196.5850  174.5060  136.7150 C   0  0  0  0  0  2  0  0  0  0  0  0
  195.6150  173.6900  137.5800 C   0  0  2  0  0  3  0  0  0  0  0  0
  196.7950  174.6000  139.5490 C   0  0  0  0  0  3  0  0  0  0  0  0
  188.9860  179.2980  138.5220 O   0  0  0  0  0  0  0  0  0  0  0  0
  187.6000  177.4760  138.0340 N   0  0  0  0  0  2  0  0  0  0  0  0
  188.6330  178.1180  138.7910 C   0  0  0  0  0  0  0  0  0  0  0  0
  187.6850  178.1070  135.7820 O   0  0  0  0  0  1  0  0  0  0  0  0
  185.5830  177.3750  136.6480 C   0  0  0  0  0  1  0  0  0  0  0  0
  186.8870  178.0990  136.9250 C   0  0  1  0  0  3  0  0  0  0  0  0
  189.0810  178.1460  141.1720 N   0  0  0  0  0  2  0  0  0  0  0  0
  186.7130  177.6570  144.0320 C   0  0  0  0  0  3  0  0  0  0  0  0
  185.5160  178.0910  143.4610 C   0  0  0  0  0  3  0  0  0  0  0  0
  187.8790  178.1000  141.9500 C   0  0  0  0  0  0  0  0  0  0  0  0
  185.4940  178.5320  142.1400 C   0  0  0  0  0  3  0  0  0  0  0  0
  186.6700  178.5390  141.3910 C   0  0  0  0  0  3  0  0  0  0  0  0
  187.9070  177.6540  143.2940 C   0  0  0  0  0  0  0  0  0  0  0  0
  188.7200  177.7580  146.2240 N   0  0  0  0  0  0  0  0  0  0  0  0
  191.2380  176.1850  144.3650 C   0  0  0  0  0  3  0  0  0  0  0  0
  189.4630  177.2170  145.2250 C   0  0  0  0  0  0  0  0  0  0  0  0
  191.1720  176.6140  146.7750 C   0  0  0  0  0  0  0  0  0  0  0  0
  189.1580  177.1620  143.9340 C   0  0  0  0  0  0  0  0  0  0  0  0
  190.4120  177.1570  147.7680 N   0  0  0  0  0  2  0  0  0  0  0  0
  189.1970  177.7250  147.5020 C   0  0  0  0  0  0  0  0  0  0  0  0
  188.3990  178.3170  148.6060 C   0  0  0  0  0  1  0  0  0  0  0  0
  192.4310  176.0240  147.0770 N   0  0  0  0  0  1  0  0  0  0  0  0
  190.2960  176.4750  143.2290 C   0  0  0  0  0  3  0  0  0  0  0  0
  190.6800  176.6480  145.4720 C   0  0  0  0  0  0  0  0  0  0  0  0
  1 18  1  6  0  0  0
  1 22  1  0  0  0  0
  3  1  1  0  0  0  0
  3  4  2  0  0  0  0
  5  3  1  0  0  0  0
  6  5  1  0  0  0  0
  6  2  2  0  0  0  0
  7  6  1  0  0  0  0
  8  7  1  0  0  0  0
  8  9  1  0  0  0  0
 10 12  2  0  0  0  0
 11 15  2  0  0  0  0
 12 15  1  0  0  0  0
 13 10  1  0  0  0  0
 13 14  1  0  0  0  0
 14  9  1  6  0  0  0
 14 11  1  0  0  0  0
 16 18  2  0  0  0  0
 17 18  1  0  0  0  0
 19 21  1  0  0  0  0
 21 20  1  6  0  0  0
 21 17  1  0  0  0  0
 22 25  1  0  0  0  0
 24 23  1  0  0  0  0
 25 28  1  0  0  0  0
 26 24  2  0  0  0  0
 27 25  2  0  0  0  0
 27 26  1  0  0  0  0
 28 33  1  0  0  0  0
 28 23  2  0  0  0  0
 29 35  2  0  0  0  0
 30 39  1  0  0  0  0
 31 39  1  0  0  0  0
 31 29  1  0  0  0  0
 32 37  1  0  0  0  0
 32 34  1  0  0  0  0
 33 31  2  0  0  0  0
 35 34  1  0  0  0  0
 35 36  1  0  0  0  0
 38 33  1  0  0  0  0
 38 30  2  0  0  0  0
 39 32  2  0  0  0  0
M  END
>  <MODEL>
4

>  <REMARK>
 VINA RESULT:      -8.6      3.113      9.516
  Name = 
  10 active torsions:
  status: ('A' for Active; 'I' for Inactive)
    1  A    between atoms: C_1  and  C_9
    2  A    between atoms: C_1  and  C_22
    3  A    between atoms: C_1  and  N_31
    4  A    between atoms: C_2  and  C_34
    5  A    between atoms: C_2  and  C_35
    6  A    between atoms: C_13  and  N_31
    7  A    between atoms: C_15  and  C_33
    8  A    between atoms: N_18  and  C_37
    9  A    between atoms: C_25  and  O_32
   10  A    between atoms: O_32  and  C_34
                            x       y       z     vdW  Elec       q    Type
                         _______ _______ _______ _____ _____    ______ ____

>  <TORSDO>
F 10

$$$$
=
 OpenBabel11042411033D

 39 42  0  0  1  0  0  0  0  0999 V2000
  186.7560  177.9720  139.2040 C   0  0  2  0  0  3  0  0  0  0  0  0
  190.8520  177.8750  140.7760 O   0  0  0  0  0  0  0  0  0  0  0  0
  188.1560  178.1110  139.7140 C   0  0  0  0  0  0  0  0  0  0  0  0
  188.9420  178.9480  139.1900 O   0  0  0  0  0  0  0  0  0  0  0  0
  188.5870  177.2690  140.7880 N   0  0  0  0  0  2  0  0  0  0  0  0
  189.9230  177.2020  141.2980 C   0  0  0  0  0  0  0  0  0  0  0  0
  190.2150  176.3300  142.4710 C   0  0  0  0  0  2  0  0  0  0  0  0
  189.9570  177.0730  143.7710 C   0  0  0  0  0  2  0  0  0  0  0  0
  188.7730  176.6160  144.3560 O   0  0  0  0  0  0  0  0  0  0  0  0
  186.6990  178.2480  146.9690 C   0  0  0  0  0  3  0  0  0  0  0  0
  189.3140  177.2160  146.5880 C   0  0  0  0  0  3  0  0  0  0  0  0
  187.5850  178.2470  147.9700 C   0  0  0  0  0  3  0  0  0  0  0  0
  186.9910  177.5020  145.6940 C   0  0  0  0  0  2  0  0  0  0  0  0
  188.4900  177.5350  145.3670 C   0  0  2  0  0  3  0  0  0  0  0  0
  188.8960  177.5900  147.8020 C   0  0  0  0  0  3  0  0  0  0  0  0
  186.9690  178.9990  137.0710 O   0  0  0  0  0  0  0  0  0  0  0  0
  186.4590  176.7160  137.0210 N   0  0  0  0  0  2  0  0  0  0  0  0
  186.7470  177.9370  137.7110 C   0  0  0  0  0  0  0  0  0  0  0  0
  186.8080  175.3150  135.1780 O   0  0  0  0  0  1  0  0  0  0  0  0
  184.9950  176.8660  135.0620 C   0  0  0  0  0  1  0  0  0  0  0  0
  186.3990  176.5890  135.5690 C   0  0  1  0  0  3  0  0  0  0  0  0
  185.9120  179.0590  139.6900 N   0  0  0  0  0  2  0  0  0  0  0  0
  183.0560  178.4270  142.0300 C   0  0  0  0  0  3  0  0  0  0  0  0
  183.6210  178.8100  143.2460 C   0  0  0  0  0  3  0  0  0  0  0  0
  185.1180  178.9910  140.8810 C   0  0  0  0  0  0  0  0  0  0  0  0
  184.9310  179.2810  143.2880 C   0  0  0  0  0  3  0  0  0  0  0  0
  185.6750  179.3680  142.1120 C   0  0  0  0  0  3  0  0  0  0  0  0
  183.7870  178.5090  140.8330 C   0  0  0  0  0  0  0  0  0  0  0  0
  182.1930  180.2200  138.8880 N   0  0  0  0  0  0  0  0  0  0  0  0
  182.3960  176.9410  137.6710 C   0  0  0  0  0  3  0  0  0  0  0  0
  182.4630  178.8990  138.7270 C   0  0  0  0  0  0  0  0  0  0  0  0
  181.2960  178.8750  136.6490 C   0  0  0  0  0  0  0  0  0  0  0  0
  183.1390  178.1100  139.5540 C   0  0  0  0  0  0  0  0  0  0  0  0
  181.0350  180.2020  136.8210 N   0  0  0  0  0  0  0  0  0  0  0  0
  181.4770  180.8740  137.9270 C   0  0  0  0  0  0  0  0  0  0  0  0
  181.1670  182.3170  138.0890 C   0  0  0  0  0  1  0  0  0  0  0  0
  180.8290  178.1990  135.4870 N   0  0  0  0  0  1  0  0  0  0  0  0
  183.1670  176.7350  138.9450 C   0  0  0  0  0  2  0  0  0  0  0  0
  182.0280  178.2110  137.6300 C   0  0  0  0  0  0  0  0  0  0  0  0
  1 18  1  6  0  0  0
  1 22  1  0  0  0  0
  1  3  1  0  0  0  0
  2  6  2  0  0  0  0
  3  5  1  0  0  0  0
  4  3  2  0  0  0  0
  5  6  1  0  0  0  0
  6  7  1  0  0  0  0
  7  8  1  0  0  0  0
  8  9  1  0  0  0  0
 10 12  2  0  0  0  0
 11 15  2  0  0  0  0
 13 10  1  0  0  0  0
 14  9  1  6  0  0  0
 14 13  1  0  0  0  0
 14 11  1  0  0  0  0
 15 12  1  0  0  0  0
 16 18  2  0  0  0  0
 17 18  1  0  0  0  0
 19 21  1  0  0  0  0
 21 20  1  1  0  0  0
 21 17  1  0  0  0  0
 22 25  1  0  0  0  0
 23 24  1  0  0  0  0
 24 26  2  0  0  0  0
 25 27  2  0  0  0  0
 27 26  1  0  0  0  0
 28 25  1  0  0  0  0
 28 23  2  0  0  0  0
 30 38  1  0  0  0  0
 31 29  1  0  0  0  0
 31 33  2  0  0  0  0
 32 34  2  0  0  0  0
 32 39  1  0  0  0  0
 33 28  1  0  0  0  0
 34 35  1  0  0  0  0
 35 36  1  0  0  0  0
 35 29  2  0  0  0  0
 37 32  1  0  0  0  0
 38 33  1  0  0  0  0
 39 30  2  0  0  0  0
 39 31  1  0  0  0  0
M  END
>  <MODEL>
5

>  <REMARK>
 VINA RESULT:      -8.5      2.963      6.380
  Name = 
  10 active torsions:
  status: ('A' for Active; 'I' for Inactive)
    1  A    between atoms: C_1  and  C_9
    2  A    between atoms: C_1  and  C_22
    3  A    between atoms: C_1  and  N_31
    4  A    between atoms: C_2  and  C_34
    5  A    between atoms: C_2  and  C_35
    6  A    between atoms: C_13  and  N_31
    7  A    between atoms: C_15  and  C_33
    8  A    between atoms: N_18  and  C_37
    9  A    between atoms: C_25  and  O_32
   10  A    between atoms: O_32  and  C_34
                            x       y       z     vdW  Elec       q    Type
                         _______ _______ _______ _____ _____    ______ ____

>  <TORSDO>
F 10

$$$$
=
 OpenBabel11042411033D

 39 42  0  0  1  0  0  0  0  0999 V2000
  185.8910  178.9490  141.0490 C   0  0  2  0  0  3  0  0  0  0  0  0
  182.3260  178.8030  138.4940 O   0  0  0  0  0  0  0  0  0  0  0  0
  184.7680  178.9900  140.0610 C   0  0  0  0  0  0  0  0  0  0  0  0
  184.5920  180.0130  139.3430 O   0  0  0  0  0  0  0  0  0  0  0  0
  183.8930  177.8610  139.9620 N   0  0  0  0  0  2  0  0  0  0  0  0
  182.7110  177.8030  139.1560 C   0  0  0  0  0  0  0  0  0  0  0  0
  181.9310  176.5350  139.0930 C   0  0  0  0  0  2  0  0  0  0  0  0
  182.6980  175.4690  138.3270 C   0  0  0  0  0  2  0  0  0  0  0  0
  183.3590  176.0450  137.2390 O   0  0  0  0  0  0  0  0  0  0  0  0
  186.7100  174.4950  136.8290 C   0  0  0  0  0  3  0  0  0  0  0  0
  184.0690  173.8100  137.6060 C   0  0  0  0  0  3  0  0  0  0  0  0
  186.4180  173.2570  137.2380 C   0  0  0  0  0  3  0  0  0  0  0  0
  185.7030  175.6050  136.9850 C   0  0  0  0  0  2  0  0  0  0  0  0
  184.2710  175.0770  136.8160 C   0  0  2  0  0  3  0  0  0  0  0  0
  185.0750  172.9440  137.7650 C   0  0  0  0  0  3  0  0  0  0  0  0
  188.2670  178.9200  140.9700 O   0  0  0  0  0  0  0  0  0  0  0  0
  187.2060  178.2890  138.9820 N   0  0  0  0  0  2  0  0  0  0  0  0
  187.1900  178.7140  140.3500 C   0  0  0  0  0  0  0  0  0  0  0  0
  188.8130  176.7290  138.3020 O   0  0  0  0  0  1  0  0  0  0  0  0
  188.2130  178.4450  136.7540 C   0  0  0  0  0  1  0  0  0  0  0  0
  188.4220  178.0630  138.2080 C   0  0  1  0  0  3  0  0  0  0  0  0
  185.6650  177.9170  142.0560 N   0  0  0  0  0  2  0  0  0  0  0  0
  185.4550  178.2640  145.7790 C   0  0  0  0  0  3  0  0  0  0  0  0
  184.1570  178.7520  145.9260 C   0  0  0  0  0  3  0  0  0  0  0  0
  185.1600  178.1730  143.3720 C   0  0  0  0  0  0  0  0  0  0  0  0
  183.3580  178.9560  144.8040 C   0  0  0  0  0  3  0  0  0  0  0  0
  183.8590  178.6710  143.5350 C   0  0  0  0  0  3  0  0  0  0  0  0
  185.9780  177.9670  144.5100 C   0  0  0  0  0  0  0  0  0  0  0  0
  188.1830  177.9220  146.6050 N   0  0  0  0  0  0  0  0  0  0  0  0
  189.3280  176.3980  143.6660 C   0  0  0  0  0  3  0  0  0  0  0  0
  188.2870  177.4160  145.3490 C   0  0  0  0  0  0  0  0  0  0  0  0
  190.5250  176.7140  145.7790 C   0  0  0  0  0  0  0  0  0  0  0  0
  187.3610  177.4270  144.3990 C   0  0  0  0  0  0  0  0  0  0  0  0
  190.4040  177.2220  147.0380 N   0  0  0  0  0  2  0  0  0  0  0  0
  189.2470  177.8210  147.4540 C   0  0  0  0  0  0  0  0  0  0  0  0
  189.1520  178.3730  148.8290 C   0  0  0  0  0  1  0  0  0  0  0  0
  191.7370  176.0910  145.3700 N   0  0  0  0  0  1  0  0  0  0  0  0
  187.9480  176.7560  143.1870 C   0  0  0  0  0  3  0  0  0  0  0  0
  189.4360  176.8170  144.9160 C   0  0  0  0  0  0  0  0  0  0  0  0
  1  3  1  6  0  0  0
  1 22  1  0  0  0  0
  2  6  2  0  0  0  0
  4  3  2  0  0  0  0
  5  3  1  0  0  0  0
  6  5  1  0  0  0  0
  7  6  1  0  0  0  0
  8  7  1  0  0  0  0
  9  8  1  0  0  0  0
 10 13  1  0  0  0  0
 10 12  2  0  0  0  0
 11 15  2  0  0  0  0
 12 15  1  0  0  0  0
 14 13  1  0  0  0  0
 14  9  1  1  0  0  0
 14 11  1  0  0  0  0
 17 18  1  0  0  0  0
 18 16  2  0  0  0  0
 18  1  1  0  0  0  0
 21 20  1  6  0  0  0
 21 19  1  0  0  0  0
 21 17  1  0  0  0  0
 22 25  1  0  0  0  0
 23 24  1  0  0  0  0
 25 27  2  0  0  0  0
 25 28  1  0  0  0  0
 26 24  2  0  0  0  0
 27 26  1  0  0  0  0
 28 23  2  0  0  0  0
 29 35  2  0  0  0  0
 30 39  1  0  0  0  0
 31 29  1  0  0  0  0
 32 34  1  0  0  0  0
 33 28  1  0  0  0  0
 33 31  2  0  0  0  0
 34 35  1  0  0  0  0
 35 36  1  0  0  0  0
 37 32  1  0  0  0  0
 38 30  2  0  0  0  0
 38 33  1  0  0  0  0
 39 31  1  0  0  0  0
 39 32  2  0  0  0  0
M  END
>  <MODEL>
6

>  <REMARK>
 VINA RESULT:      -8.5      2.709      8.644
  Name = 
  10 active torsions:
  status: ('A' for Active; 'I' for Inactive)
    1  A    between atoms: C_1  and  C_9
    2  A    between atoms: C_1  and  C_22
    3  A    between atoms: C_1  and  N_31
    4  A    between atoms: C_2  and  C_34
    5  A    between atoms: C_2  and  C_35
    6  A    between atoms: C_13  and  N_31
    7  A    between atoms: C_15  and  C_33
    8  A    between atoms: N_18  and  C_37
    9  A    between atoms: C_25  and  O_32
   10  A    between atoms: O_32  and  C_34
                            x       y       z     vdW  Elec       q    Type
                         _______ _______ _______ _____ _____    ______ ____

>  <TORSDO>
F 10

$$$$
=
 OpenBabel11042411033D

 39 42  0  0  1  0  0  0  0  0999 V2000
  189.0820  177.8250  143.2770 C   0  0  2  0  0  3  0  0  0  0  0  0
  190.8830  176.0040  139.7140 O   0  0  0  0  0  0  0  0  0  0  0  0
  189.6840  177.0520  142.1460 C   0  0  0  0  0  0  0  0  0  0  0  0
  190.4360  176.0660  142.3800 O   0  0  0  0  0  0  0  0  0  0  0  0
  189.4050  177.4630  140.8030 N   0  0  0  0  0  2  0  0  0  0  0  0
  190.0010  176.9010  139.6290 C   0  0  0  0  0  0  0  0  0  0  0  0
  189.5640  177.3780  138.2870 C   0  0  0  0  0  2  0  0  0  0  0  0
  188.2300  178.1000  138.3810 C   0  0  0  0  0  2  0  0  0  0  0  0
  188.1320  179.0580  137.3680 O   0  0  0  0  0  0  0  0  0  0  0  0
  186.2050  177.2460  134.7600 C   0  0  0  0  0  3  0  0  0  0  0  0
  186.0640  177.9030  137.5160 C   0  0  0  0  0  3  0  0  0  0  0  0
  185.1920  176.8110  135.5150 C   0  0  0  0  0  3  0  0  0  0  0  0
  187.4030  177.9000  135.3990 C   0  0  0  0  0  2  0  0  0  0  0  0
  186.9950  178.7020  136.6420 C   0  0  2  0  0  3  0  0  0  0  0  0
  185.1950  177.0450  136.9720 C   0  0  0  0  0  3  0  0  0  0  0  0
  190.7040  179.0480  144.5110 O   0  0  0  0  0  0  0  0  0  0  0  0
  190.3000  176.8790  145.2910 N   0  0  0  0  0  2  0  0  0  0  0  0
  190.0660  177.9690  144.3910 C   0  0  0  0  0  0  0  0  0  0  0  0
  190.6020  177.1300  147.5980 O   0  0  0  0  0  1  0  0  0  0  0  0
  192.0560  175.6230  146.4490 C   0  0  0  0  0  1  0  0  0  0  0  0
  191.2600  176.9140  146.3890 C   0  0  1  0  0  3  0  0  0  0  0  0
  187.8620  177.1840  143.7580 N   0  0  0  0  0  2  0  0  0  0  0  0
  184.9970  178.8210  145.5290 C   0  0  0  0  0  3  0  0  0  0  0  0
  185.3930  178.6810  146.8590 C   0  0  0  0  0  3  0  0  0  0  0  0
  187.0290  177.7160  144.7950 C   0  0  0  0  0  0  0  0  0  0  0  0
  186.6000  178.0580  147.1640 C   0  0  0  0  0  3  0  0  0  0  0  0
  187.4110  177.5750  146.1380 C   0  0  0  0  0  3  0  0  0  0  0  0
  185.8000  178.3460  144.4800 C   0  0  0  0  0  0  0  0  0  0  0  0
  182.9680  178.6070  143.4010 N   0  0  0  0  0  0  0  0  0  0  0  0
  185.2570  178.8670  140.7620 C   0  0  0  0  0  3  0  0  0  0  0  0
  184.0990  178.6600  142.6510 C   0  0  0  0  0  0  0  0  0  0  0  0
  182.8130  179.0000  140.6720 C   0  0  0  0  0  0  0  0  0  0  0  0
  185.3510  178.5360  143.0740 C   0  0  0  0  0  0  0  0  0  0  0  0
  181.6870  178.9490  141.4380 N   0  0  0  0  0  0  0  0  0  0  0  0
  181.7560  178.7550  142.7900 C   0  0  0  0  0  0  0  0  0  0  0  0
  180.5090  178.6940  143.5940 C   0  0  0  0  0  1  0  0  0  0  0  0
  182.7150  179.2070  139.2670 N   0  0  0  0  0  1  0  0  0  0  0  0
  186.2480  178.6600  141.8730 C   0  0  0  0  0  2  0  0  0  0  0  0
  184.0480  178.8500  141.2990 C   0  0  0  0  0  0  0  0  0  0  0  0
  1  3  1  6  0  0  0
  1 22  1  0  0  0  0
  1 18  1  0  0  0  0
  3  4  2  0  0  0  0
  5  3  1  0  0  0  0
  6  2  2  0  0  0  0
  6  5  1  0  0  0  0
  7  8  1  0  0  0  0
  7  6  1  0  0  0  0
  9  8  1  0  0  0  0
 10 13  1  0  0  0  0
 10 12  2  0  0  0  0
 12 15  1  0  0  0  0
 13 14  1  0  0  0  0
 14  9  1  1  0  0  0
 14 11  1  0  0  0  0
 15 11  2  0  0  0  0
 17 21  1  0  0  0  0
 18 16  2  0  0  0  0
 18 17  1  0  0  0  0
 21 20  1  1  0  0  0
 21 19  1  0  0  0  0
 22 25  1  0  0  0  0
 23 24  1  0  0  0  0
 24 26  2  0  0  0  0
 25 27  2  0  0  0  0
 27 26  1  0  0  0  0
 28 25  1  0  0  0  0
 28 23  2  0  0  0  0
 30 39  2  0  0  0  0
 30 38  1  0  0  0  0
 31 33  2  0  0  0  0
 31 29  1  0  0  0  0
 32 39  1  0  0  0  0
 32 34  2  0  0  0  0
 33 28  1  0  0  0  0
 34 35  1  0  0  0  0
 35 29  2  0  0  0  0
 35 36  1  0  0  0  0
 37 32  1  0  0  0  0
 38 33  1  0  0  0  0
 39 31  1  0  0  0  0
M  END
>  <MODEL>
7

>  <REMARK>
 VINA RESULT:      -8.3      2.523      7.689
  Name = 
  10 active torsions:
  status: ('A' for Active; 'I' for Inactive)
    1  A    between atoms: C_1  and  C_9
    2  A    between atoms: C_1  and  C_22
    3  A    between atoms: C_1  and  N_31
    4  A    between atoms: C_2  and  C_34
    5  A    between atoms: C_2  and  C_35
    6  A    between atoms: C_13  and  N_31
    7  A    between atoms: C_15  and  C_33
    8  A    between atoms: N_18  and  C_37
    9  A    between atoms: C_25  and  O_32
   10  A    between atoms: O_32  and  C_34
                            x       y       z     vdW  Elec       q    Type
                         _______ _______ _______ _____ _____    ______ ____

>  <TORSDO>
F 10

$$$$
=
 OpenBabel11042411033D

 39 42  0  0  1  0  0  0  0  0999 V2000
  189.3500  177.4240  140.0180 C   0  0  2  0  0  3  0  0  0  0  0  0
  193.5260  176.8770  138.7850 O   0  0  0  0  0  0  0  0  0  0  0  0
  190.8110  177.2200  139.7670 C   0  0  0  0  0  0  0  0  0  0  0  0
  191.6640  177.6780  140.5760 O   0  0  0  0  0  0  0  0  0  0  0  0
  191.2180  176.5160  138.5890 N   0  0  0  0  0  2  0  0  0  0  0  0
  192.5710  176.3490  138.1540 C   0  0  0  0  0  0  0  0  0  0  0  0
  192.8550  175.5280  136.9430 C   0  0  0  0  0  2  0  0  0  0  0  0
  192.0060  174.2670  136.9370 C   0  0  0  0  0  2  0  0  0  0  0  0
  191.0470  174.3410  135.9230 O   0  0  0  0  0  0  0  0  0  0  0  0
  187.5220  173.5750  136.8080 C   0  0  0  0  0  3  0  0  0  0  0  0
  189.6910  172.4810  135.3440 C   0  0  0  0  0  3  0  0  0  0  0  0
  187.3820  172.4290  136.1340 C   0  0  0  0  0  3  0  0  0  0  0  0
  188.7550  174.4210  136.6230 C   0  0  0  0  0  2  0  0  0  0  0  0
  189.9900  173.5460  136.3670 C   0  0  2  0  0  3  0  0  0  0  0  0
  188.4720  171.9370  135.2690 C   0  0  0  0  0  3  0  0  0  0  0  0
  189.0550  179.2740  138.5540 O   0  0  0  0  0  0  0  0  0  0  0  0
  187.6970  177.4250  138.0940 N   0  0  0  0  0  2  0  0  0  0  0  0
  188.7110  178.0990  138.8490 C   0  0  0  0  0  0  0  0  0  0  0  0
  187.7510  177.8640  135.7960 O   0  0  0  0  0  1  0  0  0  0  0  0
  185.6310  177.3710  136.7780 C   0  0  0  0  0  1  0  0  0  0  0  0
  186.9950  178.0110  136.9580 C   0  0  1  0  0  3  0  0  0  0  0  0
  189.1310  178.2020  141.2330 N   0  0  0  0  0  2  0  0  0  0  0  0
  186.7500  177.7290  144.0850 C   0  0  0  0  0  3  0  0  0  0  0  0
  185.5590  178.1720  143.5110 C   0  0  0  0  0  3  0  0  0  0  0  0
  187.9260  178.1640  142.0080 C   0  0  0  0  0  0  0  0  0  0  0  0
  185.5440  178.6140  142.1910 C   0  0  0  0  0  3  0  0  0  0  0  0
  186.7220  178.6130  141.4450 C   0  0  0  0  0  3  0  0  0  0  0  0
  187.9470  177.7170  143.3510 C   0  0  0  0  0  0  0  0  0  0  0  0
  188.7240  177.7560  146.2920 N   0  0  0  0  0  0  0  0  0  0  0  0
  191.2710  176.2360  144.4280 C   0  0  0  0  0  3  0  0  0  0  0  0
  189.4820  177.2410  145.2900 C   0  0  0  0  0  0  0  0  0  0  0  0
  191.1740  176.6080  146.8460 C   0  0  0  0  0  0  0  0  0  0  0  0
  189.1920  177.2150  143.9950 C   0  0  0  0  0  0  0  0  0  0  0  0
  190.4000  177.1250  147.8420 N   0  0  0  0  0  2  0  0  0  0  0  0
  189.1860  177.6950  147.5750 C   0  0  0  0  0  0  0  0  0  0  0  0
  188.3730  178.2580  148.6820 C   0  0  0  0  0  1  0  0  0  0  0  0
  192.4320  176.0160  147.1500 N   0  0  0  0  0  1  0  0  0  0  0  0
  190.3410  176.5490  143.2880 C   0  0  0  0  0  3  0  0  0  0  0  0
  190.6980  176.6710  145.5380 C   0  0  0  0  0  0  0  0  0  0  0  0
  1 18  1  6  0  0  0
  1 22  1  0  0  0  0
  3  1  1  0  0  0  0
  3  4  2  0  0  0  0
  5  3  1  0  0  0  0
  6  5  1  0  0  0  0
  6  2  2  0  0  0  0
  7  6  1  0  0  0  0
  8  7  1  0  0  0  0
  9  8  1  0  0  0  0
 11 14  1  0  0  0  0
 12 10  2  0  0  0  0
 13 10  1  0  0  0  0
 14  9  1  6  0  0  0
 14 13  1  0  0  0  0
 15 11  2  0  0  0  0
 15 12  1  0  0  0  0
 16 18  2  0  0  0  0
 17 18  1  0  0  0  0
 19 21  1  0  0  0  0
 21 20  1  6  0  0  0
 21 17  1  0  0  0  0
 22 25  1  0  0  0  0
 24 23  1  0  0  0  0
 25 28  1  0  0  0  0
 26 24  2  0  0  0  0
 27 25  2  0  0  0  0
 27 26  1  0  0  0  0
 28 33  1  0  0  0  0
 28 23  2  0  0  0  0
 29 35  2  0  0  0  0
 30 39  1  0  0  0  0
 31 39  1  0  0  0  0
 31 29  1  0  0  0  0
 32 37  1  0  0  0  0
 32 34  1  0  0  0  0
 33 31  2  0  0  0  0
 35 34  1  0  0  0  0
 35 36  1  0  0  0  0
 38 33  1  0  0  0  0
 38 30  2  0  0  0  0
 39 32  2  0  0  0  0
M  END
>  <MODEL>
8

>  <REMARK>
 VINA RESULT:      -8.3      2.690      9.289
  Name = 
  10 active torsions:
  status: ('A' for Active; 'I' for Inactive)
    1  A    between atoms: C_1  and  C_9
    2  A    between atoms: C_1  and  C_22
    3  A    between atoms: C_1  and  N_31
    4  A    between atoms: C_2  and  C_34
    5  A    between atoms: C_2  and  C_35
    6  A    between atoms: C_13  and  N_31
    7  A    between atoms: C_15  and  C_33
    8  A    between atoms: N_18  and  C_37
    9  A    between atoms: C_25  and  O_32
   10  A    between atoms: O_32  and  C_34
                            x       y       z     vdW  Elec       q    Type
                         _______ _______ _______ _____ _____    ______ ____

>  <TORSDO>
F 10

$$$$
=
 OpenBabel11042411033D

 39 42  0  0  1  0  0  0  0  0999 V2000
  186.3040  178.1840  140.8680 C   0  0  2  0  0  3  0  0  0  0  0  0
  185.0070  179.4970  144.8490 O   0  0  0  0  0  0  0  0  0  0  0  0
  185.7170  178.6910  142.1480 C   0  0  0  0  0  0  0  0  0  0  0  0
  185.0350  179.7520  142.1570 O   0  0  0  0  0  0  0  0  0  0  0  0
  185.9600  177.9620  143.3560 N   0  0  0  0  0  2  0  0  0  0  0  0
  185.5700  178.3850  144.6660 C   0  0  0  0  0  0  0  0  0  0  0  0
  185.8250  177.4900  145.8300 C   0  0  0  0  0  2  0  0  0  0  0  0
  187.1040  177.8910  146.5470 C   0  0  0  0  0  2  0  0  0  0  0  0
  188.0730  178.2760  145.6170 O   0  0  0  0  0  0  0  0  0  0  0  0
  191.4050  176.7550  144.9960 C   0  0  0  0  0  3  0  0  0  0  0  0
  189.5450  177.1520  147.1010 C   0  0  0  0  0  3  0  0  0  0  0  0
  191.6820  176.3470  146.2380 C   0  0  0  0  0  3  0  0  0  0  0  0
  190.2070  177.6300  144.7330 C   0  0  0  0  0  2  0  0  0  0  0  0
  189.0530  177.2840  145.6830 C   0  0  2  0  0  3  0  0  0  0  0  0
  190.7690  176.6750  147.3510 C   0  0  0  0  0  3  0  0  0  0  0  0
  188.3220  179.4370  140.9550 O   0  0  0  0  0  0  0  0  0  0  0  0
  188.6050  177.1180  140.8320 N   0  0  0  0  0  2  0  0  0  0  0  0
  187.7920  178.2950  140.8980 C   0  0  0  0  0  0  0  0  0  0  0  0
  190.5570  176.0980  141.6250 O   0  0  0  0  0  1  0  0  0  0  0  0
  190.5970  176.9900  139.4110 C   0  0  0  0  0  1  0  0  0  0  0  0
  190.0640  177.1270  140.8250 C   0  0  1  0  0  3  0  0  0  0  0  0
  185.7650  178.9080  139.7220 N   0  0  0  0  0  2  0  0  0  0  0  0
  183.5810  177.4580  137.0470 C   0  0  0  0  0  3  0  0  0  0  0  0
  184.5310  177.1290  136.0800 C   0  0  0  0  0  3  0  0  0  0  0  0
  185.3360  178.2860  138.5050 C   0  0  0  0  0  0  0  0  0  0  0  0
  185.8800  177.3780  136.3160 C   0  0  0  0  0  3  0  0  0  0  0  0
  186.2790  177.9560  137.5200 C   0  0  0  0  0  3  0  0  0  0  0  0
  183.9610  178.0380  138.2680 C   0  0  0  0  0  0  0  0  0  0  0  0
  182.0490  180.4010  138.3660 N   0  0  0  0  0  0  0  0  0  0  0  0
  181.4540  178.2980  141.1040 C   0  0  0  0  0  3  0  0  0  0  0  0
  182.0940  179.3930  139.2750 C   0  0  0  0  0  0  0  0  0  0  0  0
  180.3020  180.3740  140.5040 C   0  0  0  0  0  0  0  0  0  0  0  0
  182.9180  178.3530  139.2820 C   0  0  0  0  0  0  0  0  0  0  0  0
  180.2650  181.3770  139.5820 N   0  0  0  0  0  0  0  0  0  0  0  0
  181.1270  181.3960  138.5210 C   0  0  0  0  0  0  0  0  0  0  0  0
  181.0680  182.5090  137.5390 C   0  0  0  0  0  1  0  0  0  0  0  0
  179.3910  180.3730  141.5980 N   0  0  0  0  0  1  0  0  0  0  0  0
  182.5840  177.5200  140.4890 C   0  0  0  0  0  2  0  0  0  0  0  0
  181.2420  179.3590  140.3420 C   0  0  0  0  0  0  0  0  0  0  0  0
  1 22  1  6  0  0  0
  1 18  1  0  0  0  0
  1  3  1  0  0  0  0
  3  4  2  0  0  0  0
  3  5  1  0  0  0  0
  5  6  1  0  0  0  0
  6  2  2  0  0  0  0
  6  7  1  0  0  0  0
  7  8  1  0  0  0  0
  9  8  1  0  0  0  0
 10 12  2  0  0  0  0
 11 15  2  0  0  0  0
 12 15  1  0  0  0  0
 13 10  1  0  0  0  0
 13 14  1  0  0  0  0
 14  9  1  1  0  0  0
 14 11  1  0  0  0  0
 17 18  1  0  0  0  0
 18 16  2  0  0  0  0
 21 20  1  6  0  0  0
 21 17  1  0  0  0  0
 21 19  1  0  0  0  0
 23 28  1  0  0  0  0
 24 26  1  0  0  0  0
 24 23  2  0  0  0  0
 25 22  1  0  0  0  0
 26 27  2  0  0  0  0
 27 25  1  0  0  0  0
 28 25  2  0  0  0  0
 28 33  1  0  0  0  0
 29 35  2  0  0  0  0
 29 31  1  0  0  0  0
 31 33  2  0  0  0  0
 31 39  1  0  0  0  0
 32 37  1  0  0  0  0
 33 38  1  0  0  0  0
 34 32  2  0  0  0  0
 35 34  1  0  0  0  0
 36 35  1  0  0  0  0
 38 30  1  0  0  0  0
 39 32  1  0  0  0  0
 39 30  2  0  0  0  0
M  END
>  <MODEL>
9

>  <REMARK>
 VINA RESULT:      -8.3      3.332      5.615
  Name = 
  10 active torsions:
  status: ('A' for Active; 'I' for Inactive)
    1  A    between atoms: C_1  and  C_9
    2  A    between atoms: C_1  and  C_22
    3  A    between atoms: C_1  and  N_31
    4  A    between atoms: C_2  and  C_34
    5  A    between atoms: C_2  and  C_35
    6  A    between atoms: C_13  and  N_31
    7  A    between atoms: C_15  and  C_33
    8  A    between atoms: N_18  and  C_37
    9  A    between atoms: C_25  and  O_32
   10  A    between atoms: O_32  and  C_34
                            x       y       z     vdW  Elec       q    Type
                         _______ _______ _______ _____ _____    ______ ____

>  <TORSDO>
F 10

$$$$
