=
 OpenBabel11032420383D

 45 49  0  0  1  0  0  0  0  0999 V2000
  181.8760  175.3460  136.3520 C   0  0  0  0  0  2  0  0  0  0  0  0
  182.8030  176.5390  136.4870 C   0  0  2  0  0  0  0  0  0  0  0  0
  182.9180  176.9110  137.9480 C   0  0  2  0  0  3  0  0  0  0  0  0
  182.5510  177.7520  135.6060 C   0  0  0  0  0  1  0  0  0  0  0  0
  184.1370  176.3500  137.2160 C   0  0  2  0  0  3  0  0  0  0  0  0
  181.7220  174.7590  137.7490 C   0  0  1  0  0  3  0  0  0  0  0  0
  182.2200  175.8170  138.7480 C   0  0  2  0  0  3  0  0  0  0  0  0
  180.3580  174.0850  137.9960 C   0  0  1  0  0  3  0  0  0  0  0  0
  179.2760  174.7510  137.1590 C   0  0  0  0  0  1  0  0  0  0  0  0
  180.3730  172.5780  137.7590 C   0  0  0  0  0  2  0  0  0  0  0  0
  179.6520  172.2410  136.4640 C   0  0  0  0  0  2  0  0  0  0  0  0
  180.5830  172.1020  135.4310 O   0  0  0  0  0  0  0  0  0  0  0  0
  181.4700  171.1130  135.8750 C   0  0  1  0  0  3  0  0  0  0  0  0
  180.9720  169.8460  135.5270 O   0  0  0  0  0  1  0  0  0  0  0  0
  182.8400  171.3270  135.2470 C   0  0  0  0  0  2  0  0  0  0  0  0
  184.2700  171.8950  136.8510 C   0  0  0  0  0  1  0  0  0  0  0  0
  183.4730  172.4290  135.8320 O   0  0  0  0  0  0  0  0  0  0  0  0
  181.1350  176.4050  139.5320 N   0  0  0  0  0  2  0  0  0  0  0  0
  180.6600  177.7520  139.3660 C   0  0  0  0  0  0  0  0  0  0  0  0
  179.4010  177.9750  139.0040 C   0  0  0  0  0  2  0  0  0  0  0  0
  181.5270  178.9280  139.7690 C   0  0  1  0  0  3  0  0  0  0  0  0
  180.8130  180.2970  139.7860 C   0  0  2  0  0  3  0  0  0  0  0  0
  180.4240  179.1980  142.6710 C   0  0  0  0  0  2  0  0  0  0  0  0
  182.3150  178.6900  141.0320 C   0  0  0  0  0  0  0  0  0  0  0  0
  180.1270  180.5220  142.1520 N   0  0  0  0  0  2  0  0  0  0  0  0
  185.8460  178.3430  144.1180 C   0  0  0  0  0  3  0  0  0  0  0  0
  181.8280  178.8280  142.3260 C   0  0  0  0  0  0  0  0  0  0  0  0
  184.0550  178.4400  142.4010 C   0  0  0  0  0  0  0  0  0  0  0  0
  185.2000  178.6500  145.3210 C   0  0  0  0  0  0  0  0  0  0  0  0
  183.8280  178.8850  145.4970 C   0  0  0  0  0  3  0  0  0  0  0  0
  182.7870  178.9060  144.5780 C   0  0  0  0  0  3  0  0  0  0  0  0
  183.6800  178.4370  141.0640 C   0  0  0  0  0  3  0  0  0  0  0  0
  185.3570  178.2540  142.8210 C   0  0  0  0  0  3  0  0  0  0  0  0
  179.6470  180.3680  140.7830 C   0  0  0  0  0  2  0  0  0  0  0  0
  182.8770  178.7120  143.2090 C   0  0  0  0  0  0  0  0  0  0  0  0
  180.3560  180.6070  138.5170 F   0  0  0  0  0  0  0  0  0  0  0  0
  187.2430  178.0630  146.6360 O   0  0  0  0  0  0  0  0  0  0  0  0
  186.0510  178.7820  146.5210 C   0  0  0  0  0  0  0  0  0  0  0  0
  185.7510  179.6200  147.4170 O   0  0  0  0  0  1  0  0  0  0  0  0
  185.1400  177.4620  136.9200 C   0  0  0  0  0  2  0  0  0  0  0  0
  186.5690  176.9410  136.9380 C   0  0  0  0  0  2  0  0  0  0  0  0
  188.7570  176.8190  138.7740 O   0  0  0  0  0  1  0  0  0  0  0  0
  187.5940  177.8650  138.1270 P   0  0  0  0  0  0  0  0  0  0  0  0
  188.3670  179.1590  137.3550 O   0  0  0  0  0  0  0  0  0  0  0  0
  186.7210  178.3970  139.2440 O   0  0  0  0  0  1  0  0  0  0  0  0
  1  2  1  0  0  0  0
  1  6  1  0  0  0  0
  2  4  1  6  0  0  0
  2  5  1  0  0  0  0
  2  3  1  0  0  0  0
  3  7  1  0  0  0  0
  5  3  1  0  0  0  0
  6  8  1  0  0  0  0
  6  7  1  0  0  0  0
  7 18  1  0  0  0  0
  9  8  1  0  0  0  0
 10  8  1  0  0  0  0
 11 10  1  0  0  0  0
 12 13  1  0  0  0  0
 12 11  1  0  0  0  0
 14 13  1  0  0  0  0
 15 17  1  0  0  0  0
 15 13  1  0  0  0  0
 17 16  1  0  0  0  0
 19 18  1  0  0  0  0
 19 21  1  0  0  0  0
 20 19  2  0  0  0  0
 21 22  1  0  0  0  0
 21 24  1  0  0  0  0
 22 34  1  0  0  0  0
 24 32  2  0  0  0  0
 24 27  1  0  0  0  0
 25 23  1  0  0  0  0
 26 29  2  0  0  0  0
 27 23  1  0  0  0  0
 27 35  2  0  0  0  0
 28 33  2  0  0  0  0
 28 35  1  0  0  0  0
 29 30  1  0  0  0  0
 29 38  1  0  0  0  0
 31 30  2  0  0  0  0
 32 28  1  0  0  0  0
 33 26  1  0  0  0  0
 34 25  1  0  0  0  0
 35 31  1  0  0  0  0
 36 22  1  0  0  0  0
 38 37  2  0  0  0  0
 38 39  1  0  0  0  0
 40 41  1  0  0  0  0
 40  5  1  0  0  0  0
 41 43  1  0  0  0  0
 43 42  1  0  0  0  0
 43 45  1  0  0  0  0
 44 43  2  0  0  0  0
M  END
>  <MODEL>
1

>  <REMARK>
 VINA RESULT:      -7.2      0.000      0.000
  Name = 
  14 active torsions:
  status: ('A' for Active; 'I' for Inactive)
    1  A    between atoms: C_1  and  C_31
    2  A    between atoms: N_3  and  C_31
    3  A    between atoms: N_3  and  C_44
    4  A    between atoms: C_5  and  O_10
    5  A    between atoms: C_5  and  C_16
    6  A    between atoms: C_16  and  O_26
    7  A    between atoms: C_17  and  C_32
    8  A    between atoms: P_22  and  C_28
    9  A    between atoms: C_25  and  C_36
   10  A    between atoms: O_26  and  C_33
   11  A    between atoms: C_28  and  C_36
   12  A    between atoms: C_30  and  C_41
   13  A    between atoms: C_30  and  C_42
   14  A    between atoms: C_33  and  C_41
                            x       y       z     vdW  Elec       q    Type
                         _______ _______ _______ _____ _____    ______ ____

>  <TORSDO>
F 14

$$$$
=
 OpenBabel11032420383D

 45 49  0  0  1  0  0  0  0  0999 V2000
  186.2750  178.2460  144.0310 C   0  0  0  0  0  2  0  0  0  0  0  0
  185.1010  178.8420  143.2780 C   0  0  2  0  0  0  0  0  0  0  0  0
  185.3840  178.7770  141.7930 C   0  0  2  0  0  3  0  0  0  0  0  0
  184.5910  180.2100  143.7030 C   0  0  0  0  0  1  0  0  0  0  0  0
  184.2620  177.9230  142.3850 C   0  0  2  0  0  3  0  0  0  0  0  0
  187.1020  177.4810  143.0050 C   0  0  1  0  0  3  0  0  0  0  0  0
  186.6520  177.9490  141.6110 C   0  0  2  0  0  3  0  0  0  0  0  0
  188.6090  177.4390  143.3260 C   0  0  1  0  0  3  0  0  0  0  0  0
  188.8800  178.0500  144.6930 C   0  0  0  0  0  1  0  0  0  0  0  0
  189.2130  176.0410  143.2290 C   0  0  0  0  0  2  0  0  0  0  0  0
  190.5840  176.1030  142.5750 C   0  0  0  0  0  2  0  0  0  0  0  0
  191.5280  176.5430  143.5070 O   0  0  0  0  0  0  0  0  0  0  0  0
  191.4950  175.5900  144.5330 C   0  0  1  0  0  3  0  0  0  0  0  0
  192.3950  174.5530  144.2400 O   0  0  0  0  0  1  0  0  0  0  0  0
  191.8610  176.2440  145.8580 C   0  0  0  0  0  2  0  0  0  0  0  0
  192.3920  175.8750  147.9840 C   0  0  0  0  0  1  0  0  0  0  0  0
  192.4690  175.3130  146.7050 O   0  0  0  0  0  0  0  0  0  0  0  0
  187.6650  178.7550  140.9340 N   0  0  0  0  0  2  0  0  0  0  0  0
  188.3140  178.3700  139.7090 C   0  0  0  0  0  0  0  0  0  0  0  0
  189.4010  177.6070  139.7420 C   0  0  0  0  0  2  0  0  0  0  0  0
  187.6730  178.6770  138.3700 C   0  0  1  0  0  3  0  0  0  0  0  0
  188.6600  178.8850  137.2000 C   0  0  2  0  0  3  0  0  0  0  0  0
  188.0440  175.8350  137.1460 C   0  0  0  0  0  2  0  0  0  0  0  0
  186.5600  177.7270  138.0040 C   0  0  0  0  0  0  0  0  0  0  0  0
  188.7630  176.6380  136.1710 N   0  0  0  0  0  2  0  0  0  0  0  0
  182.3880  175.9990  136.6940 C   0  0  0  0  0  3  0  0  0  0  0  0
  186.7260  176.4680  137.4410 C   0  0  0  0  0  0  0  0  0  0  0  0
  184.5240  176.9850  137.4890 C   0  0  0  0  0  0  0  0  0  0  0  0
  182.7650  174.8250  136.0320 C   0  0  0  0  0  0  0  0  0  0  0  0
  184.0650  174.3090  135.9200 C   0  0  0  0  0  3  0  0  0  0  0  0
  185.2780  174.7990  136.3840 C   0  0  0  0  0  3  0  0  0  0  0  0
  185.2110  178.0510  138.0530 C   0  0  0  0  0  3  0  0  0  0  0  0
  183.1520  176.9650  137.3350 C   0  0  0  0  0  3  0  0  0  0  0  0
  189.5210  177.6510  136.8980 C   0  0  0  0  0  2  0  0  0  0  0  0
  185.4910  175.9800  137.0770 C   0  0  0  0  0  0  0  0  0  0  0  0
  189.4800  179.9690  137.4620 F   0  0  0  0  0  0  0  0  0  0  0  0
  181.9870  172.9300  134.6000 O   0  0  0  0  0  0  0  0  0  0  0  0
  181.6950  174.0750  135.3430 C   0  0  0  0  0  0  0  0  0  0  0  0
  180.4870  174.4140  135.4990 O   0  0  0  0  0  1  0  0  0  0  0  0
  182.8990  178.5150  142.0350 C   0  0  0  0  0  2  0  0  0  0  0  0
  182.5690  178.3180  140.5630 C   0  0  0  0  0  2  0  0  0  0  0  0
  181.4240  180.4290  139.0130 O   0  0  0  0  0  0  0  0  0  0  0  0
  181.0390  179.1950  140.1050 P   0  0  0  0  0  0  0  0  0  0  0  0
  179.9410  178.1260  139.3850 O   0  0  0  0  0  1  0  0  0  0  0  0
  180.4110  179.7980  141.3440 O   0  0  0  0  0  1  0  0  0  0  0  0
  2  4  1  1  0  0  0
  2  1  1  0  0  0  0
  3  5  1  0  0  0  0
  3  2  1  0  0  0  0
  5  2  1  0  0  0  0
  6  8  1  0  0  0  0
  6  1  1  0  0  0  0
  7  3  1  0  0  0  0
  7  6  1  0  0  0  0
  8  9  1  0  0  0  0
 10  8  1  0  0  0  0
 11 10  1  0  0  0  0
 11 12  1  0  0  0  0
 12 13  1  0  0  0  0
 13 15  1  0  0  0  0
 14 13  1  0  0  0  0
 15 17  1  0  0  0  0
 17 16  1  0  0  0  0
 18  7  1  0  0  0  0
 19 20  2  0  0  0  0
 19 18  1  0  0  0  0
 21 19  1  0  0  0  0
 22 36  1  0  0  0  0
 22 21  1  0  0  0  0
 23 27  1  0  0  0  0
 24 32  1  0  0  0  0
 24 21  1  0  0  0  0
 25 34  1  0  0  0  0
 25 23  1  0  0  0  0
 26 33  2  0  0  0  0
 27 24  2  0  0  0  0
 28 32  2  0  0  0  0
 29 26  1  0  0  0  0
 30 29  2  0  0  0  0
 30 31  1  0  0  0  0
 31 35  2  0  0  0  0
 33 28  1  0  0  0  0
 34 22  1  0  0  0  0
 35 27  1  0  0  0  0
 35 28  1  0  0  0  0
 37 38  2  0  0  0  0
 38 39  1  0  0  0  0
 38 29  1  0  0  0  0
 40  5  1  0  0  0  0
 41 40  1  0  0  0  0
 42 43  2  0  0  0  0
 43 41  1  0  0  0  0
 43 45  1  0  0  0  0
 44 43  1  0  0  0  0
M  END
>  <MODEL>
2

>  <REMARK>
 VINA RESULT:      -6.6      4.182      9.879
  Name = 
  14 active torsions:
  status: ('A' for Active; 'I' for Inactive)
    1  A    between atoms: C_1  and  C_31
    2  A    between atoms: N_3  and  C_31
    3  A    between atoms: N_3  and  C_44
    4  A    between atoms: C_5  and  O_10
    5  A    between atoms: C_5  and  C_16
    6  A    between atoms: C_16  and  O_26
    7  A    between atoms: C_17  and  C_32
    8  A    between atoms: P_22  and  C_28
    9  A    between atoms: C_25  and  C_36
   10  A    between atoms: O_26  and  C_33
   11  A    between atoms: C_28  and  C_36
   12  A    between atoms: C_30  and  C_41
   13  A    between atoms: C_30  and  C_42
   14  A    between atoms: C_33  and  C_41
                            x       y       z     vdW  Elec       q    Type
                         _______ _______ _______ _____ _____    ______ ____

>  <TORSDO>
F 14

$$$$
=
 OpenBabel11032420383D

 45 49  0  0  1  0  0  0  0  0999 V2000
  185.1100  174.7830  136.0580 C   0  0  0  0  0  2  0  0  0  0  0  0
  183.9740  173.7920  136.2240 C   0  0  2  0  0  0  0  0  0  0  0  0
  182.7140  174.5440  136.5900 C   0  0  2  0  0  3  0  0  0  0  0  0
  184.1970  172.5810  137.1160 C   0  0  0  0  0  1  0  0  0  0  0  0
  182.8070  173.8460  135.2340 C   0  0  2  0  0  3  0  0  0  0  0  0
  184.4690  176.1610  135.9540 C   0  0  1  0  0  3  0  0  0  0  0  0
  183.0200  176.0320  136.4520 C   0  0  2  0  0  3  0  0  0  0  0  0
  185.3470  177.3000  136.5070 C   0  0  1  0  0  3  0  0  0  0  0  0
  186.0390  176.8650  137.7910 C   0  0  0  0  0  1  0  0  0  0  0  0
  186.3640  177.8300  135.4990 C   0  0  0  0  0  2  0  0  0  0  0  0
  187.4710  178.5860  136.2150 C   0  0  0  0  0  2  0  0  0  0  0  0
  188.6880  177.9250  136.0250 O   0  0  0  0  0  0  0  0  0  0  0  0
  189.5120  178.3820  137.0610 C   0  0  1  0  0  3  0  0  0  0  0  0
  188.9900  179.5760  137.5850 O   0  0  0  0  0  1  0  0  0  0  0  0
  189.6020  177.3260  138.1550 C   0  0  0  0  0  2  0  0  0  0  0  0
  188.9740  177.5050  140.2790 C   0  0  0  0  0  1  0  0  0  0  0  0
  189.9560  177.9170  139.3710 O   0  0  0  0  0  0  0  0  0  0  0  0
  182.8050  176.6940  137.7370 N   0  0  0  0  0  2  0  0  0  0  0  0
  182.0430  177.9020  137.9030 C   0  0  0  0  0  0  0  0  0  0  0  0
  180.7500  177.9210  137.6000 C   0  0  0  0  0  2  0  0  0  0  0  0
  182.6550  179.1100  138.5850 C   0  0  1  0  0  3  0  0  0  0  0  0
  181.7710  180.3760  138.6010 C   0  0  2  0  0  3  0  0  0  0  0  0
  181.0180  178.8860  141.2270 C   0  0  0  0  0  2  0  0  0  0  0  0
  183.2260  178.8060  139.9480 C   0  0  0  0  0  0  0  0  0  0  0  0
  180.6430  180.2220  140.7970 N   0  0  0  0  0  2  0  0  0  0  0  0
  186.1530  178.4780  143.6130 C   0  0  0  0  0  3  0  0  0  0  0  0
  182.4980  178.7250  141.1280 C   0  0  0  0  0  0  0  0  0  0  0  0
  184.7060  178.5860  141.5980 C   0  0  0  0  0  0  0  0  0  0  0  0
  185.2630  178.5560  144.6910 C   0  0  0  0  0  0  0  0  0  0  0  0
  183.8630  178.6100  144.6180 C   0  0  0  0  0  3  0  0  0  0  0  0
  183.0130  178.6280  143.5200 C   0  0  0  0  0  3  0  0  0  0  0  0
  184.5840  178.7080  140.2200 C   0  0  0  0  0  3  0  0  0  0  0  0
  185.9230  178.4970  142.2440 C   0  0  0  0  0  3  0  0  0  0  0  0
  180.4450  180.1870  139.3520 C   0  0  0  0  0  2  0  0  0  0  0  0
  183.3750  178.6180  142.1820 C   0  0  0  0  0  0  0  0  0  0  0  0
  181.5140  180.7880  137.3050 F   0  0  0  0  0  0  0  0  0  0  0  0
  185.1790  179.2630  147.0880 O   0  0  0  0  0  1  0  0  0  0  0  0
  185.8570  178.6320  146.0420 C   0  0  0  0  0  0  0  0  0  0  0  0
  186.9490  178.0450  146.2840 O   0  0  0  0  0  0  0  0  0  0  0  0
  181.9680  172.5690  135.2320 C   0  0  0  0  0  2  0  0  0  0  0  0
  180.4950  172.8720  135.4560 C   0  0  0  0  0  2  0  0  0  0  0  0
  178.9880  170.6300  136.3930 O   0  0  0  0  0  0  0  0  0  0  0  0
  179.8530  171.9890  136.9140 P   0  0  0  0  0  0  0  0  0  0  0  0
  181.1290  171.4960  137.9120 O   0  0  0  0  0  1  0  0  0  0  0  0
  178.9310  172.9010  137.6950 O   0  0  0  0  0  1  0  0  0  0  0  0
  1  2  1  0  0  0  0
  2  3  1  0  0  0  0
  2  4  1  1  0  0  0
  5  2  1  0  0  0  0
  5  3  1  0  0  0  0
  6  1  1  0  0  0  0
  6  7  1  0  0  0  0
  6  8  1  0  0  0  0
  7  3  1  0  0  0  0
  7 18  1  0  0  0  0
  8  9  1  0  0  0  0
 10 11  1  0  0  0  0
 10  8  1  0  0  0  0
 12 11  1  0  0  0  0
 12 13  1  0  0  0  0
 13 14  1  0  0  0  0
 13 15  1  0  0  0  0
 15 17  1  0  0  0  0
 17 16  1  0  0  0  0
 18 19  1  0  0  0  0
 19 21  1  0  0  0  0
 20 19  2  0  0  0  0
 21 22  1  0  0  0  0
 21 24  1  0  0  0  0
 22 34  1  0  0  0  0
 24 32  2  0  0  0  0
 24 27  1  0  0  0  0
 25 23  1  0  0  0  0
 26 29  2  0  0  0  0
 27 23  1  0  0  0  0
 27 35  2  0  0  0  0
 28 35  1  0  0  0  0
 28 33  2  0  0  0  0
 29 38  1  0  0  0  0
 30 29  1  0  0  0  0
 31 30  2  0  0  0  0
 32 28  1  0  0  0  0
 33 26  1  0  0  0  0
 34 25  1  0  0  0  0
 35 31  1  0  0  0  0
 36 22  1  0  0  0  0
 38 39  2  0  0  0  0
 38 37  1  0  0  0  0
 40  5  1  0  0  0  0
 40 41  1  0  0  0  0
 41 43  1  0  0  0  0
 42 43  2  0  0  0  0
 43 45  1  0  0  0  0
 43 44  1  0  0  0  0
M  END
>  <MODEL>
3

>  <REMARK>
 VINA RESULT:      -6.6      2.230      5.878
  Name = 
  14 active torsions:
  status: ('A' for Active; 'I' for Inactive)
    1  A    between atoms: C_1  and  C_31
    2  A    between atoms: N_3  and  C_31
    3  A    between atoms: N_3  and  C_44
    4  A    between atoms: C_5  and  O_10
    5  A    between atoms: C_5  and  C_16
    6  A    between atoms: C_16  and  O_26
    7  A    between atoms: C_17  and  C_32
    8  A    between atoms: P_22  and  C_28
    9  A    between atoms: C_25  and  C_36
   10  A    between atoms: O_26  and  C_33
   11  A    between atoms: C_28  and  C_36
   12  A    between atoms: C_30  and  C_41
   13  A    between atoms: C_30  and  C_42
   14  A    between atoms: C_33  and  C_41
                            x       y       z     vdW  Elec       q    Type
                         _______ _______ _______ _____ _____    ______ ____

>  <TORSDO>
F 14

$$$$
=
 OpenBabel11032420383D

 45 49  0  0  1  0  0  0  0  0999 V2000
  186.6050  177.7270  142.4120 C   0  0  0  0  0  2  0  0  0  0  0  0
  188.0800  177.3900  142.5330 C   0  0  2  0  0  0  0  0  0  0  0  0
  188.7660  177.7010  141.2220 C   0  0  2  0  0  3  0  0  0  0  0  0
  188.4650  176.0200  143.0690 C   0  0  0  0  0  1  0  0  0  0  0  0
  189.0990  178.5310  142.4620 C   0  0  2  0  0  3  0  0  0  0  0  0
  186.4610  178.5880  141.1640 C   0  0  1  0  0  3  0  0  0  0  0  0
  187.7520  178.4280  140.3440 C   0  0  2  0  0  3  0  0  0  0  0  0
  185.1030  178.4310  140.4520 C   0  0  1  0  0  3  0  0  0  0  0  0
  183.9990  178.1590  141.4630 C   0  0  0  0  0  1  0  0  0  0  0  0
  184.7410  179.6180  139.5640 C   0  0  0  0  0  2  0  0  0  0  0  0
  183.4730  179.3230  138.7800 C   0  0  0  0  0  2  0  0  0  0  0  0
  182.5740  180.3840  138.9260 O   0  0  0  0  0  0  0  0  0  0  0  0
  181.3060  179.7970  138.8370 C   0  0  1  0  0  3  0  0  0  0  0  0
  181.4400  178.4100  138.6660 O   0  0  0  0  0  1  0  0  0  0  0  0
  180.5090  180.0940  140.1010 C   0  0  0  0  0  2  0  0  0  0  0  0
  180.5560  179.5190  142.2470 C   0  0  0  0  0  1  0  0  0  0  0  0
  180.5240  178.9860  140.9530 O   0  0  0  0  0  0  0  0  0  0  0  0
  187.5460  177.6710  139.1110 N   0  0  0  0  0  2  0  0  0  0  0  0
  187.9700  178.1180  137.8110 C   0  0  0  0  0  0  0  0  0  0  0  0
  189.0340  178.9030  137.6910 C   0  0  0  0  0  2  0  0  0  0  0  0
  187.3220  177.5620  136.5580 C   0  0  1  0  0  3  0  0  0  0  0  0
  188.3040  177.0860  135.4650 C   0  0  2  0  0  3  0  0  0  0  0  0
  187.8230  174.5550  137.2110 C   0  0  0  0  0  2  0  0  0  0  0  0
  186.2530  176.5350  136.8380 C   0  0  0  0  0  0  0  0  0  0  0  0
  188.5100  174.6670  135.9360 N   0  0  0  0  0  2  0  0  0  0  0  0
  182.1660  174.2100  136.8720 C   0  0  0  0  0  3  0  0  0  0  0  0
  186.4760  175.1920  137.1110 C   0  0  0  0  0  0  0  0  0  0  0  0
  184.2540  175.5550  136.8970 C   0  0  0  0  0  0  0  0  0  0  0  0
  182.5980  172.8860  137.0090 C   0  0  0  0  0  0  0  0  0  0  0  0
  183.9190  172.4510  137.1920 C   0  0  0  0  0  3  0  0  0  0  0  0
  185.1080  173.1660  137.2560 C   0  0  0  0  0  3  0  0  0  0  0  0
  184.8910  176.7750  136.7190 C   0  0  0  0  0  3  0  0  0  0  0  0
  182.8850  175.3970  136.8130 C   0  0  0  0  0  3  0  0  0  0  0  0
  189.2200  175.9410  135.9200 C   0  0  0  0  0  2  0  0  0  0  0  0
  185.2660  174.5370  137.1260 C   0  0  0  0  0  0  0  0  0  0  0  0
  189.0750  178.1490  135.0290 F   0  0  0  0  0  0  0  0  0  0  0  0
  181.5850  170.9060  135.8680 O   0  0  0  0  0  0  0  0  0  0  0  0
  181.5640  171.8340  136.9110 C   0  0  0  0  0  0  0  0  0  0  0  0
  180.7010  171.7120  137.8260 O   0  0  0  0  0  1  0  0  0  0  0  0
  190.4690  178.1420  143.0130 C   0  0  0  0  0  2  0  0  0  0  0  0
  190.6210  178.5590  144.4680 C   0  0  0  0  0  2  0  0  0  0  0  0
  189.4730  176.6290  146.2370 O   0  0  0  0  0  1  0  0  0  0  0  0
  190.9340  177.1190  145.5390 P   0  0  0  0  0  0  0  0  0  0  0  0
  191.5820  175.8420  144.6330 O   0  0  0  0  0  0  0  0  0  0  0  0
  191.9100  177.5020  146.6320 O   0  0  0  0  0  1  0  0  0  0  0  0
  1  2  1  0  0  0  0
  2  4  1  1  0  0  0
  3  5  1  0  0  0  0
  3  2  1  0  0  0  0
  5  2  1  0  0  0  0
  5 40  1  0  0  0  0
  6  1  1  0  0  0  0
  7  6  1  0  0  0  0
  7  3  1  0  0  0  0
  8  6  1  0  0  0  0
  8  9  1  0  0  0  0
 10  8  1  0  0  0  0
 11 12  1  0  0  0  0
 11 10  1  0  0  0  0
 13 12  1  0  0  0  0
 13 15  1  0  0  0  0
 14 13  1  0  0  0  0
 15 17  1  0  0  0  0
 17 16  1  0  0  0  0
 18  7  1  0  0  0  0
 19 18  1  0  0  0  0
 20 19  2  0  0  0  0
 21 24  1  0  0  0  0
 21 19  1  0  0  0  0
 22 34  1  0  0  0  0
 22 21  1  0  0  0  0
 24 27  1  0  0  0  0
 25 23  1  0  0  0  0
 26 29  2  0  0  0  0
 27 35  2  0  0  0  0
 27 23  1  0  0  0  0
 28 35  1  0  0  0  0
 29 30  1  0  0  0  0
 30 31  2  0  0  0  0
 32 24  2  0  0  0  0
 32 28  1  0  0  0  0
 33 26  1  0  0  0  0
 33 28  2  0  0  0  0
 34 25  1  0  0  0  0
 35 31  1  0  0  0  0
 36 22  1  0  0  0  0
 37 38  2  0  0  0  0
 38 29  1  0  0  0  0
 38 39  1  0  0  0  0
 40 41  1  0  0  0  0
 41 43  1  0  0  0  0
 43 42  1  0  0  0  0
 43 45  1  0  0  0  0
 44 43  2  0  0  0  0
M  END
>  <MODEL>
4

>  <REMARK>
 VINA RESULT:      -6.4      3.696      8.975
  Name = 
  14 active torsions:
  status: ('A' for Active; 'I' for Inactive)
    1  A    between atoms: C_1  and  C_31
    2  A    between atoms: N_3  and  C_31
    3  A    between atoms: N_3  and  C_44
    4  A    between atoms: C_5  and  O_10
    5  A    between atoms: C_5  and  C_16
    6  A    between atoms: C_16  and  O_26
    7  A    between atoms: C_17  and  C_32
    8  A    between atoms: P_22  and  C_28
    9  A    between atoms: C_25  and  C_36
   10  A    between atoms: O_26  and  C_33
   11  A    between atoms: C_28  and  C_36
   12  A    between atoms: C_30  and  C_41
   13  A    between atoms: C_30  and  C_42
   14  A    between atoms: C_33  and  C_41
                            x       y       z     vdW  Elec       q    Type
                         _______ _______ _______ _____ _____    ______ ____

>  <TORSDO>
F 14

$$$$
=
 OpenBabel11032420383D

 45 49  0  0  1  0  0  0  0  0999 V2000
  183.5550  177.9540  137.1840 C   0  0  0  0  0  2  0  0  0  0  0  0
  183.9960  177.1280  135.9900 C   0  0  2  0  0  0  0  0  0  0  0  0
  185.4620  176.7880  136.1410 C   0  0  2  0  0  3  0  0  0  0  0  0
  183.6680  177.6420  134.5970 C   0  0  0  0  0  1  0  0  0  0  0  0
  184.4180  175.6750  136.2230 C   0  0  2  0  0  3  0  0  0  0  0  0
  184.6440  177.8030  138.2390 C   0  0  1  0  0  3  0  0  0  0  0  0
  185.8870  177.2310  137.5370 C   0  0  2  0  0  3  0  0  0  0  0  0
  184.8040  179.0350  139.1510 C   0  0  1  0  0  3  0  0  0  0  0  0
  183.4910  179.7980  139.2500 C   0  0  0  0  0  1  0  0  0  0  0  0
  185.3390  178.6980  140.5390 C   0  0  0  0  0  2  0  0  0  0  0  0
  184.4350  179.2860  141.6100 C   0  0  0  0  0  2  0  0  0  0  0  0
  183.7030  178.2630  142.2190 O   0  0  0  0  0  0  0  0  0  0  0  0
  183.2690  178.8040  143.4360 C   0  0  1  0  0  3  0  0  0  0  0  0
  184.1690  179.7970  143.8560 O   0  0  0  0  0  1  0  0  0  0  0  0
  181.8760  179.3960  143.2710 C   0  0  0  0  0  2  0  0  0  0  0  0
  180.0120  178.2710  143.7140 C   0  0  0  0  0  1  0  0  0  0  0  0
  181.0040  178.4400  142.7420 O   0  0  0  0  0  0  0  0  0  0  0  0
  186.9700  178.2070  137.4280 N   0  0  0  0  0  0  0  0  0  0  0  0
  188.2580  178.0510  138.0480 C   0  0  0  0  0  0  0  0  0  0  0  0
  189.1110  179.0690  138.0760 C   0  0  0  0  0  1  0  0  0  0  0  0
  188.5910  176.7940  138.8270 C   0  0  1  0  0  3  0  0  0  0  0  0
  189.5510  175.8150  138.1180 C   0  0  2  0  0  3  0  0  0  0  0  0
  191.4340  177.6890  139.7390 C   0  0  0  0  0  2  0  0  0  0  0  0
  189.0120  177.0620  140.2510 C   0  0  0  0  0  0  0  0  0  0  0  0
  191.7580  176.4650  139.0260 N   0  0  0  0  0  2  0  0  0  0  0  0
  189.2920  176.9440  144.9430 C   0  0  0  0  0  3  0  0  0  0  0  0
  190.2840  177.4430  140.6580 C   0  0  0  0  0  0  0  0  0  0  0  0
  189.0040  177.0360  142.4780 C   0  0  0  0  0  0  0  0  0  0  0  0
  190.6510  177.2050  145.1500 C   0  0  0  0  0  0  0  0  0  0  0  0
  191.6030  177.5170  144.1670 C   0  0  0  0  0  3  0  0  0  0  0  0
  191.4790  177.6230  142.7870 C   0  0  0  0  0  3  0  0  0  0  0  0
  188.2110  176.8220  141.3590 C   0  0  0  0  0  3  0  0  0  0  0  0
  188.5520  176.8590  143.7710 C   0  0  0  0  0  3  0  0  0  0  0  0
  190.9320  176.4160  137.8240 C   0  0  0  0  0  2  0  0  0  0  0  0
  190.3370  177.4110  142.0320 C   0  0  0  0  0  0  0  0  0  0  0  0
  188.9810  175.3660  136.9400 F   0  0  0  0  0  0  0  0  0  0  0  0
  190.3370  177.4640  147.6160 O   0  0  0  0  0  1  0  0  0  0  0  0
  191.1460  177.1010  146.5380 C   0  0  0  0  0  0  0  0  0  0  0  0
  192.2810  176.5930  146.7650 O   0  0  0  0  0  0  0  0  0  0  0  0
  184.4220  174.8430  134.9410 C   0  0  0  0  0  2  0  0  0  0  0  0
  185.1860  173.5410  135.1260 C   0  0  0  0  0  2  0  0  0  0  0  0
  184.8730  172.7050  137.8420 O   0  0  0  0  0  1  0  0  0  0  0  0
  184.3160  172.4210  136.2690 P   0  0  0  0  0  0  0  0  0  0  0  0
  182.6460  172.6960  136.2050 O   0  0  0  0  0  1  0  0  0  0  0  0
  184.6020  170.9840  135.8870 O   0  0  0  0  0  0  0  0  0  0  0  0
  1  6  1  0  0  0  0
  2  4  1  6  0  0  0
  2  3  1  0  0  0  0
  2  5  1  0  0  0  0
  2  1  1  0  0  0  0
  3  5  1  0  0  0  0
  3  7  1  0  0  0  0
  6  8  1  0  0  0  0
  7  6  1  0  0  0  0
  8  9  1  0  0  0  0
  8 10  1  0  0  0  0
 10 11  1  0  0  0  0
 11 12  1  0  0  0  0
 12 13  1  0  0  0  0
 13 14  1  0  0  0  0
 15 13  1  0  0  0  0
 17 15  1  0  0  0  0
 17 16  1  0  0  0  0
 18  7  1  0  0  0  0
 18 19  2  0  0  0  0
 19 20  1  0  0  0  0
 19 21  1  0  0  0  0
 21 24  1  0  0  0  0
 22 21  1  0  0  0  0
 23 27  1  0  0  0  0
 24 27  2  0  0  0  0
 24 32  1  0  0  0  0
 25 23  1  0  0  0  0
 26 29  1  0  0  0  0
 27 35  1  0  0  0  0
 28 33  1  0  0  0  0
 29 38  1  0  0  0  0
 30 29  2  0  0  0  0
 31 30  1  0  0  0  0
 32 28  2  0  0  0  0
 33 26  2  0  0  0  0
 34 22  1  0  0  0  0
 34 25  1  0  0  0  0
 35 28  1  0  0  0  0
 35 31  2  0  0  0  0
 36 22  1  0  0  0  0
 38 39  2  0  0  0  0
 38 37  1  0  0  0  0
 40 41  1  0  0  0  0
 40  5  1  0  0  0  0
 41 43  1  0  0  0  0
 43 42  1  0  0  0  0
 44 43  1  0  0  0  0
 45 43  2  0  0  0  0
M  END
>  <MODEL>
5

>  <REMARK>
 VINA RESULT:      -6.3      4.233      7.779
  Name = 
  14 active torsions:
  status: ('A' for Active; 'I' for Inactive)
    1  A    between atoms: C_1  and  C_31
    2  A    between atoms: N_3  and  C_31
    3  A    between atoms: N_3  and  C_44
    4  A    between atoms: C_5  and  O_10
    5  A    between atoms: C_5  and  C_16
    6  A    between atoms: C_16  and  O_26
    7  A    between atoms: C_17  and  C_32
    8  A    between atoms: P_22  and  C_28
    9  A    between atoms: C_25  and  C_36
   10  A    between atoms: O_26  and  C_33
   11  A    between atoms: C_28  and  C_36
   12  A    between atoms: C_30  and  C_41
   13  A    between atoms: C_30  and  C_42
   14  A    between atoms: C_33  and  C_41
                            x       y       z     vdW  Elec       q    Type
                         _______ _______ _______ _____ _____    ______ ____

>  <TORSDO>
F 14

$$$$
=
 OpenBabel11032420383D

 45 49  0  0  1  0  0  0  0  0999 V2000
  183.2760  179.0680  140.6100 C   0  0  0  0  0  2  0  0  0  0  0  0
  182.5250  178.7880  139.3220 C   0  0  2  0  0  0  0  0  0  0  0  0
  183.4940  178.2410  138.2970 C   0  0  2  0  0  3  0  0  0  0  0  0
  181.6440  179.8860  138.7470 C   0  0  0  0  0  1  0  0  0  0  0  0
  182.3940  177.3360  138.8530 C   0  0  2  0  0  3  0  0  0  0  0  0
  184.6130  178.3480  140.4960 C   0  0  1  0  0  3  0  0  0  0  0  0
  184.8150  177.9860  139.0150 C   0  0  2  0  0  3  0  0  0  0  0  0
  185.7610  179.0390  141.2570 C   0  0  1  0  0  3  0  0  0  0  0  0
  185.3280  179.3860  142.6740 C   0  0  0  0  0  1  0  0  0  0  0  0
  187.0550  178.2300  141.2710 C   0  0  0  0  0  2  0  0  0  0  0  0
  187.4310  177.8600  142.6960 C   0  0  0  0  0  2  0  0  0  0  0  0
  188.7500  177.4020  142.7300 O   0  0  0  0  0  0  0  0  0  0  0  0
  189.2450  177.8150  143.9730 C   0  0  1  0  0  3  0  0  0  0  0  0
  188.2360  177.6950  144.9430 O   0  0  0  0  0  1  0  0  0  0  0  0
  190.4470  176.9640  144.3600 C   0  0  0  0  0  2  0  0  0  0  0  0
  191.6700  178.7830  143.9890 C   0  0  0  0  0  1  0  0  0  0  0  0
  191.5920  177.4160  143.6980 O   0  0  0  0  0  0  0  0  0  0  0  0
  185.8710  178.7740  138.3830 N   0  0  0  0  0  2  0  0  0  0  0  0
  186.8240  178.2390  137.4470 C   0  0  0  0  0  0  0  0  0  0  0  0
  187.3750  179.0300  136.5330 C   0  0  0  0  0  2  0  0  0  0  0  0
  187.3410  176.8230  137.6000 C   0  0  1  0  0  3  0  0  0  0  0  0
  186.5340  175.7420  136.8480 C   0  0  2  0  0  3  0  0  0  0  0  0
  188.6980  176.6410  134.8000 C   0  0  0  0  0  2  0  0  0  0  0  0
  188.8230  176.6930  137.3500 C   0  0  0  0  0  0  0  0  0  0  0  0
  187.7730  175.5250  134.7180 N   0  0  0  0  0  2  0  0  0  0  0  0
  193.3820  175.6610  137.8540 C   0  0  0  0  0  3  0  0  0  0  0  0
  189.4250  176.5930  136.1030 C   0  0  0  0  0  0  0  0  0  0  0  0
  190.9800  176.2730  137.7150 C   0  0  0  0  0  0  0  0  0  0  0  0
  193.7730  175.4590  136.5250 C   0  0  0  0  0  0  0  0  0  0  0  0
  192.9790  175.6400  135.3830 C   0  0  0  0  0  3  0  0  0  0  0  0
  191.6500  176.0220  135.2540 C   0  0  0  0  0  3  0  0  0  0  0  0
  189.7690  176.5120  138.3500 C   0  0  0  0  0  3  0  0  0  0  0  0
  192.1530  176.0130  138.3950 C   0  0  0  0  0  3  0  0  0  0  0  0
  186.5130  175.9420  135.3260 C   0  0  0  0  0  2  0  0  0  0  0  0
  190.7590  176.3030  136.2780 C   0  0  0  0  0  0  0  0  0  0  0  0
  185.2360  175.7040  137.3270 F   0  0  0  0  0  0  0  0  0  0  0  0
  196.1650  175.2390  137.2180 O   0  0  0  0  0  1  0  0  0  0  0  0
  195.1470  174.9640  136.3020 C   0  0  0  0  0  0  0  0  0  0  0  0
  195.3930  174.2070  135.3210 O   0  0  0  0  0  0  0  0  0  0  0  0
  181.2880  177.1430  137.8180 C   0  0  0  0  0  2  0  0  0  0  0  0
  181.7390  176.2320  136.6870 C   0  0  0  0  0  2  0  0  0  0  0  0
  180.3400  173.9160  135.7640 O   0  0  0  0  0  0  0  0  0  0  0  0
  181.3080  174.4940  137.0250 P   0  0  0  0  0  0  0  0  0  0  0  0
  182.7110  173.5520  137.1370 O   0  0  0  0  0  1  0  0  0  0  0  0
  180.5410  174.4060  138.3280 O   0  0  0  0  0  1  0  0  0  0  0  0
  2  4  1  6  0  0  0
  2  1  1  0  0  0  0
  3  5  1  0  0  0  0
  3  7  1  0  0  0  0
  3  2  1  0  0  0  0
  5  2  1  0  0  0  0
  6  1  1  0  0  0  0
  6  8  1  0  0  0  0
  7  6  1  0  0  0  0
  8 10  1  0  0  0  0
  8  9  1  0  0  0  0
 10 11  1  0  0  0  0
 11 12  1  0  0  0  0
 12 13  1  0  0  0  0
 13 15  1  0  0  0  0
 13 14  1  0  0  0  0
 17 16  1  0  0  0  0
 17 15  1  0  0  0  0
 18  7  1  0  0  0  0
 19 21  1  0  0  0  0
 19 18  1  0  0  0  0
 20 19  2  0  0  0  0
 22 36  1  0  0  0  0
 22 21  1  0  0  0  0
 23 27  1  0  0  0  0
 24 21  1  0  0  0  0
 24 32  1  0  0  0  0
 25 23  1  0  0  0  0
 25 34  1  0  0  0  0
 26 33  2  0  0  0  0
 27 35  1  0  0  0  0
 27 24  2  0  0  0  0
 28 32  2  0  0  0  0
 28 33  1  0  0  0  0
 29 26  1  0  0  0  0
 30 29  2  0  0  0  0
 31 30  1  0  0  0  0
 31 35  2  0  0  0  0
 34 22  1  0  0  0  0
 35 28  1  0  0  0  0
 38 29  1  0  0  0  0
 38 37  1  0  0  0  0
 39 38  2  0  0  0  0
 40  5  1  0  0  0  0
 41 43  1  0  0  0  0
 41 40  1  0  0  0  0
 42 43  2  0  0  0  0
 43 44  1  0  0  0  0
 43 45  1  0  0  0  0
M  END
>  <MODEL>
6

>  <REMARK>
 VINA RESULT:      -5.8      4.393      9.666
  Name = 
  14 active torsions:
  status: ('A' for Active; 'I' for Inactive)
    1  A    between atoms: C_1  and  C_31
    2  A    between atoms: N_3  and  C_31
    3  A    between atoms: N_3  and  C_44
    4  A    between atoms: C_5  and  O_10
    5  A    between atoms: C_5  and  C_16
    6  A    between atoms: C_16  and  O_26
    7  A    between atoms: C_17  and  C_32
    8  A    between atoms: P_22  and  C_28
    9  A    between atoms: C_25  and  C_36
   10  A    between atoms: O_26  and  C_33
   11  A    between atoms: C_28  and  C_36
   12  A    between atoms: C_30  and  C_41
   13  A    between atoms: C_30  and  C_42
   14  A    between atoms: C_33  and  C_41
                            x       y       z     vdW  Elec       q    Type
                         _______ _______ _______ _____ _____    ______ ____

>  <TORSDO>
F 14

$$$$
=
 OpenBabel11032420383D

 45 49  0  0  1  0  0  0  0  0999 V2000
  181.8860  178.1290  137.6170 C   0  0  0  0  0  2  0  0  0  0  0  0
  181.1620  179.3500  138.1500 C   0  0  2  0  0  0  0  0  0  0  0  0
  181.7490  179.7230  139.4940 C   0  0  2  0  0  3  0  0  0  0  0  0
  179.6410  179.3340  138.1750 C   0  0  0  0  0  1  0  0  0  0  0  0
  181.9460  180.6570  138.3010 C   0  0  2  0  0  3  0  0  0  0  0  0
  183.1530  177.9810  138.4490 C   0  0  1  0  0  3  0  0  0  0  0  0
  182.9820  178.8510  139.7050 C   0  0  2  0  0  3  0  0  0  0  0  0
  183.6260  176.5230  138.6120 C   0  0  1  0  0  3  0  0  0  0  0  0
  182.4340  175.5770  138.6380 C   0  0  0  0  0  1  0  0  0  0  0  0
  184.6370  176.0890  137.5550 C   0  0  0  0  0  2  0  0  0  0  0  0
  185.4320  177.2860  137.0620 C   0  0  0  0  0  2  0  0  0  0  0  0
  186.7280  176.8840  136.7280 O   0  0  0  0  0  0  0  0  0  0  0  0
  187.5260  178.0120  136.9550 C   0  0  1  0  0  3  0  0  0  0  0  0
  187.1400  178.6270  138.1570 O   0  0  0  0  0  1  0  0  0  0  0  0
  188.9910  177.6050  137.0210 C   0  0  0  0  0  2  0  0  0  0  0  0
  190.6230  176.6740  138.2080 C   0  0  0  0  0  1  0  0  0  0  0  0
  189.2380  176.8760  138.1880 O   0  0  0  0  0  0  0  0  0  0  0  0
  182.8150  178.0580  140.9200 N   0  0  0  0  0  2  0  0  0  0  0  0
  182.8410  178.6060  142.2500 C   0  0  0  0  0  0  0  0  0  0  0  0
  181.9250  178.2400  143.1390 C   0  0  0  0  0  2  0  0  0  0  0  0
  184.0050  179.4640  142.7050 C   0  0  1  0  0  3  0  0  0  0  0  0
  183.8040  180.1840  144.0570 C   0  0  2  0  0  3  0  0  0  0  0  0
  185.1030  177.4630  144.8280 C   0  0  0  0  0  2  0  0  0  0  0  0
  185.3360  178.7570  142.6390 C   0  0  0  0  0  0  0  0  0  0  0  0
  184.8570  178.6260  145.6640 N   0  0  0  0  0  2  0  0  0  0  0  0
  189.8210  177.7200  141.6820 C   0  0  0  0  0  3  0  0  0  0  0  0
  185.8320  177.8800  143.5940 C   0  0  0  0  0  0  0  0  0  0  0  0
  187.4310  178.2860  142.0470 C   0  0  0  0  0  0  0  0  0  0  0  0
  190.1810  176.9670  142.8050 C   0  0  0  0  0  0  0  0  0  0  0  0
  189.3370  176.5730  143.8540 C   0  0  0  0  0  3  0  0  0  0  0  0
  187.9900  176.8280  144.0780 C   0  0  0  0  0  3  0  0  0  0  0  0
  186.3030  179.0040  141.6740 C   0  0  0  0  0  3  0  0  0  0  0  0
  188.6150  178.3150  141.3360 C   0  0  0  0  0  3  0  0  0  0  0  0
  183.5960  179.2240  145.2370 C   0  0  0  0  0  2  0  0  0  0  0  0
  187.1400  177.5830  143.2860 C   0  0  0  0  0  0  0  0  0  0  0  0
  182.7300  181.0530  143.9730 F   0  0  0  0  0  0  0  0  0  0  0  0
  191.9990  175.5580  143.7850 O   0  0  0  0  0  1  0  0  0  0  0  0
  191.6030  176.5810  142.9210 C   0  0  0  0  0  0  0  0  0  0  0  0
  192.4650  177.1170  142.1680 O   0  0  0  0  0  0  0  0  0  0  0  0
  181.0420  181.8820  138.4270 C   0  0  0  0  0  2  0  0  0  0  0  0
  180.7610  182.5080  137.0690 C   0  0  0  0  0  2  0  0  0  0  0  0
  180.7940  184.9280  135.5480 O   0  0  0  0  0  0  0  0  0  0  0  0
  180.9990  184.3130  137.1110 P   0  0  0  0  0  0  0  0  0  0  0  0
  179.8710  185.0300  138.1510 O   0  0  0  0  0  1  0  0  0  0  0  0
  182.3980  184.6300  137.5960 O   0  0  0  0  0  1  0  0  0  0  0  0
  1  2  1  0  0  0  0
  1  6  1  0  0  0  0
  2  4  1  6  0  0  0
  2  5  1  0  0  0  0
  2  3  1  0  0  0  0
  3  7  1  0  0  0  0
  5 40  1  0  0  0  0
  5  3  1  0  0  0  0
  6  8  1  0  0  0  0
  6  7  1  0  0  0  0
  7 18  1  0  0  0  0
  8  9  1  0  0  0  0
 10  8  1  0  0  0  0
 11 10  1  0  0  0  0
 12 13  1  0  0  0  0
 12 11  1  0  0  0  0
 13 15  1  0  0  0  0
 13 14  1  0  0  0  0
 15 17  1  0  0  0  0
 17 16  1  0  0  0  0
 18 19  1  0  0  0  0
 19 21  1  0  0  0  0
 19 20  2  0  0  0  0
 21 22  1  0  0  0  0
 22 34  1  0  0  0  0
 23 25  1  0  0  0  0
 24 21  1  0  0  0  0
 24 27  1  0  0  0  0
 26 29  2  0  0  0  0
 27 23  1  0  0  0  0
 28 35  1  0  0  0  0
 29 38  1  0  0  0  0
 29 30  1  0  0  0  0
 30 31  2  0  0  0  0
 32 28  1  0  0  0  0
 32 24  2  0  0  0  0
 33 26  1  0  0  0  0
 33 28  2  0  0  0  0
 34 25  1  0  0  0  0
 35 27  2  0  0  0  0
 35 31  1  0  0  0  0
 36 22  1  0  0  0  0
 38 37  1  0  0  0  0
 39 38  2  0  0  0  0
 41 43  1  0  0  0  0
 41 40  1  0  0  0  0
 42 43  2  0  0  0  0
 43 45  1  0  0  0  0
 43 44  1  0  0  0  0
M  END
>  <MODEL>
7

>  <REMARK>
 VINA RESULT:      -5.5      3.890      6.306
  Name = 
  14 active torsions:
  status: ('A' for Active; 'I' for Inactive)
    1  A    between atoms: C_1  and  C_31
    2  A    between atoms: N_3  and  C_31
    3  A    between atoms: N_3  and  C_44
    4  A    between atoms: C_5  and  O_10
    5  A    between atoms: C_5  and  C_16
    6  A    between atoms: C_16  and  O_26
    7  A    between atoms: C_17  and  C_32
    8  A    between atoms: P_22  and  C_28
    9  A    between atoms: C_25  and  C_36
   10  A    between atoms: O_26  and  C_33
   11  A    between atoms: C_28  and  C_36
   12  A    between atoms: C_30  and  C_41
   13  A    between atoms: C_30  and  C_42
   14  A    between atoms: C_33  and  C_41
                            x       y       z     vdW  Elec       q    Type
                         _______ _______ _______ _____ _____    ______ ____

>  <TORSDO>
F 14

$$$$
=
 OpenBabel11032420383D

 45 49  0  0  1  0  0  0  0  0999 V2000
  183.8500  178.9980  140.8170 C   0  0  0  0  0  2  0  0  0  0  0  0
  183.5060  178.9940  139.3390 C   0  0  2  0  0  0  0  0  0  0  0  0
  184.7030  178.5010  138.5560 C   0  0  2  0  0  3  0  0  0  0  0  0
  182.9080  180.2540  138.7340 C   0  0  0  0  0  1  0  0  0  0  0  0
  183.4340  177.6500  138.6080 C   0  0  2  0  0  3  0  0  0  0  0  0
  185.1120  178.1600  140.9680 C   0  0  1  0  0  3  0  0  0  0  0  0
  185.7280  178.0000  139.5680 C   0  0  2  0  0  3  0  0  0  0  0  0
  186.0180  178.6010  142.1340 C   0  0  1  0  0  3  0  0  0  0  0  0
  185.9910  180.1150  142.2860 C   0  0  0  0  0  1  0  0  0  0  0  0
  185.6830  177.9200  143.4570 C   0  0  0  0  0  2  0  0  0  0  0  0
  185.1480  178.9360  144.4530 C   0  0  0  0  0  2  0  0  0  0  0  0
  185.0790  178.3570  145.7230 O   0  0  0  0  0  0  0  0  0  0  0  0
  186.1530  178.9100  146.4310 C   0  0  1  0  0  3  0  0  0  0  0  0
  185.6730  179.8590  147.3490 O   0  0  0  0  0  1  0  0  0  0  0  0
  186.9110  177.8110  147.1630 C   0  0  0  0  0  2  0  0  0  0  0  0
  188.3040  177.8660  148.8950 C   0  0  0  0  0  1  0  0  0  0  0  0
  188.1680  178.2740  147.5620 O   0  0  0  0  0  0  0  0  0  0  0  0
  186.9720  178.7510  139.4120 N   0  0  0  0  0  2  0  0  0  0  0  0
  188.2220  178.1650  139.0070 C   0  0  0  0  0  0  0  0  0  0  0  0
  189.0420  178.8330  138.2050 C   0  0  0  0  0  2  0  0  0  0  0  0
  188.6970  176.8650  139.6260 C   0  0  1  0  0  3  0  0  0  0  0  0
  189.6660  176.0360  138.7540 C   0  0  2  0  0  3  0  0  0  0  0  0
  191.5340  177.8780  140.4290 C   0  0  0  0  0  2  0  0  0  0  0  0
  189.2060  177.0210  141.0370 C   0  0  0  0  0  0  0  0  0  0  0  0
  191.8860  176.7590  139.5720 N   0  0  0  0  0  2  0  0  0  0  0  0
  189.8480  176.4590  145.6610 C   0  0  0  0  0  3  0  0  0  0  0  0
  190.4760  177.4550  141.3940 C   0  0  0  0  0  0  0  0  0  0  0  0
  189.3690  176.7730  143.2450 C   0  0  0  0  0  0  0  0  0  0  0  0
  191.1990  176.8010  145.8010 C   0  0  0  0  0  0  0  0  0  0  0  0
  192.0490  177.2800  144.7930 C   0  0  0  0  0  3  0  0  0  0  0  0
  191.8150  177.5120  143.4440 C   0  0  0  0  0  3  0  0  0  0  0  0
  188.5100  176.6130  142.1670 C   0  0  0  0  0  3  0  0  0  0  0  0
  189.0300  176.4350  144.5400 C   0  0  0  0  0  3  0  0  0  0  0  0
  190.9760  176.7670  138.4300 C   0  0  0  0  0  2  0  0  0  0  0  0
  190.6350  177.2910  142.7510 C   0  0  0  0  0  0  0  0  0  0  0  0
  189.0400  175.6650  137.5770 F   0  0  0  0  0  0  0  0  0  0  0  0
  192.6720  175.5290  147.3700 O   0  0  0  0  0  0  0  0  0  0  0  0
  191.8040  176.5960  147.1340 C   0  0  0  0  0  0  0  0  0  0  0  0
  191.6090  177.4450  148.0500 O   0  0  0  0  0  1  0  0  0  0  0  0
  182.6810  177.7320  137.2820 C   0  0  0  0  0  2  0  0  0  0  0  0
  183.5550  177.2910  136.1190 C   0  0  0  0  0  2  0  0  0  0  0  0
  184.8720  174.9070  135.2490 O   0  0  0  0  0  1  0  0  0  0  0  0
  183.3910  175.5030  135.8100 P   0  0  0  0  0  0  0  0  0  0  0  0
  182.9640  174.6970  137.2380 O   0  0  0  0  0  1  0  0  0  0  0  0
  182.3240  175.2640  134.7630 O   0  0  0  0  0  0  0  0  0  0  0  0
  1  6  1  0  0  0  0
  2  4  1  6  0  0  0
  2  1  1  0  0  0  0
  3  5  1  0  0  0  0
  3  2  1  0  0  0  0
  3  7  1  0  0  0  0
  5  2  1  0  0  0  0
  6  8  1  0  0  0  0
  7  6  1  0  0  0  0
  8  9  1  0  0  0  0
  8 10  1  0  0  0  0
 10 11  1  0  0  0  0
 11 12  1  0  0  0  0
 12 13  1  0  0  0  0
 13 15  1  0  0  0  0
 13 14  1  0  0  0  0
 15 17  1  0  0  0  0
 17 16  1  0  0  0  0
 18  7  1  0  0  0  0
 19 18  1  0  0  0  0
 19 21  1  0  0  0  0
 20 19  2  0  0  0  0
 21 24  1  0  0  0  0
 22 21  1  0  0  0  0
 23 27  1  0  0  0  0
 24 27  2  0  0  0  0
 24 32  1  0  0  0  0
 25 23  1  0  0  0  0
 26 29  1  0  0  0  0
 27 35  1  0  0  0  0
 28 33  1  0  0  0  0
 29 38  1  0  0  0  0
 30 29  2  0  0  0  0
 31 30  1  0  0  0  0
 32 28  2  0  0  0  0
 33 26  2  0  0  0  0
 34 22  1  0  0  0  0
 34 25  1  0  0  0  0
 35 28  1  0  0  0  0
 35 31  2  0  0  0  0
 36 22  1  0  0  0  0
 38 37  2  0  0  0  0
 38 39  1  0  0  0  0
 40  5  1  0  0  0  0
 41 40  1  0  0  0  0
 42 43  1  0  0  0  0
 43 41  1  0  0  0  0
 43 44  1  0  0  0  0
 45 43  2  0  0  0  0
M  END
>  <MODEL>
8

>  <REMARK>
 VINA RESULT:      -5.5      4.240      8.688
  Name = 
  14 active torsions:
  status: ('A' for Active; 'I' for Inactive)
    1  A    between atoms: C_1  and  C_31
    2  A    between atoms: N_3  and  C_31
    3  A    between atoms: N_3  and  C_44
    4  A    between atoms: C_5  and  O_10
    5  A    between atoms: C_5  and  C_16
    6  A    between atoms: C_16  and  O_26
    7  A    between atoms: C_17  and  C_32
    8  A    between atoms: P_22  and  C_28
    9  A    between atoms: C_25  and  C_36
   10  A    between atoms: O_26  and  C_33
   11  A    between atoms: C_28  and  C_36
   12  A    between atoms: C_30  and  C_41
   13  A    between atoms: C_30  and  C_42
   14  A    between atoms: C_33  and  C_41
                            x       y       z     vdW  Elec       q    Type
                         _______ _______ _______ _____ _____    ______ ____

>  <TORSDO>
F 14

$$$$
=
 OpenBabel11032420383D

 45 49  0  0  1  0  0  0  0  0999 V2000
  190.3360  177.0840  137.0330 C   0  0  0  0  0  2  0  0  0  0  0  0
  189.4150  177.8310  137.9800 C   0  0  2  0  0  0  0  0  0  0  0  0
  188.1840  176.9900  138.2350 C   0  0  2  0  0  3  0  0  0  0  0  0
  189.0640  179.2750  137.6560 C   0  0  0  0  0  1  0  0  0  0  0  0
  189.1700  177.2470  139.3750 C   0  0  2  0  0  3  0  0  0  0  0  0
  189.8480  175.6410  137.0070 C   0  0  1  0  0  3  0  0  0  0  0  0
  188.4320  175.6240  137.6060 C   0  0  2  0  0  3  0  0  0  0  0  0
  190.0980  174.9230  135.6660 C   0  0  1  0  0  3  0  0  0  0  0  0
  191.0470  175.7350  134.7960 C   0  0  0  0  0  1  0  0  0  0  0  0
  190.6040  173.4920  135.8280 C   0  0  0  0  0  2  0  0  0  0  0  0
  192.1220  173.4740  135.8900 C   0  0  0  0  0  2  0  0  0  0  0  0
  192.5390  173.6340  137.2140 O   0  0  0  0  0  0  0  0  0  0  0  0
  193.8950  173.2840  137.2110 C   0  0  1  0  0  3  0  0  0  0  0  0
  194.3640  173.2300  135.8890 O   0  0  0  0  0  1  0  0  0  0  0  0
  194.6950  174.3050  138.0090 C   0  0  0  0  0  2  0  0  0  0  0  0
  196.5430  174.5000  139.2290 C   0  0  0  0  0  1  0  0  0  0  0  0
  195.4420  173.6650  139.0020 O   0  0  0  0  0  0  0  0  0  0  0  0
  187.4010  175.3550  136.6060 N   0  0  0  0  0  2  0  0  0  0  0  0
  185.9890  175.4700  136.8530 C   0  0  0  0  0  0  0  0  0  0  0  0
  185.2850  174.4000  137.2040 C   0  0  0  0  0  2  0  0  0  0  0  0
  185.3230  176.8310  136.8910 C   0  0  1  0  0  3  0  0  0  0  0  0
  184.7080  177.3010  135.5550 C   0  0  2  0  0  3  0  0  0  0  0  0
  182.3890  175.7830  136.9710 C   0  0  0  0  0  2  0  0  0  0  0  0
  184.3630  176.9990  138.0420 C   0  0  0  0  0  0  0  0  0  0  0  0
  182.3460  176.5970  135.7680 N   0  0  0  0  0  2  0  0  0  0  0  0
  182.1720  178.6840  141.8460 C   0  0  0  0  0  3  0  0  0  0  0  0
  183.0490  176.5480  138.0690 C   0  0  0  0  0  0  0  0  0  0  0  0
  183.4520  177.7980  139.9110 C   0  0  0  0  0  0  0  0  0  0  0  0
  180.8580  178.2560  141.6260 C   0  0  0  0  0  0  0  0  0  0  0  0
  180.4070  177.4470  140.5730 C   0  0  0  0  0  3  0  0  0  0  0  0
  181.0900  176.8940  139.4970 C   0  0  0  0  0  3  0  0  0  0  0  0
  184.6280  177.7570  139.1750 C   0  0  0  0  0  3  0  0  0  0  0  0
  183.3250  178.4960  141.0960 C   0  0  0  0  0  3  0  0  0  0  0  0
  183.5910  176.3830  135.0390 C   0  0  0  0  0  2  0  0  0  0  0  0
  182.4350  177.0440  139.1960 C   0  0  0  0  0  0  0  0  0  0  0  0
  185.6970  177.4130  134.5940 F   0  0  0  0  0  0  0  0  0  0  0  0
  179.2690  180.0100  142.4320 O   0  0  0  0  0  0  0  0  0  0  0  0
  179.8320  178.7400  142.5730 C   0  0  0  0  0  0  0  0  0  0  0  0
  179.3880  177.9670  143.4690 O   0  0  0  0  0  1  0  0  0  0  0  0
  188.5990  178.2680  140.3560 C   0  0  0  0  0  2  0  0  0  0  0  0
  188.2130  177.6160  141.6750 C   0  0  0  0  0  2  0  0  0  0  0  0
  190.9830  178.2060  142.0610 O   0  0  0  0  0  0  0  0  0  0  0  0
  189.6610  177.4140  142.7610 P   0  0  0  0  0  0  0  0  0  0  0  0
  189.3490  178.0780  144.2870 O   0  0  0  0  0  1  0  0  0  0  0  0
  189.9810  175.9420  142.9110 O   0  0  0  0  0  1  0  0  0  0  0  0
  1  2  1  0  0  0  0
  2  4  1  6  0  0  0
  2  3  1  0  0  0  0
  2  5  1  0  0  0  0
  3  5  1  0  0  0  0
  5 40  1  0  0  0  0
  6  1  1  0  0  0  0
  6  7  1  0  0  0  0
  7  3  1  0  0  0  0
  8 10  1  0  0  0  0
  8  6  1  0  0  0  0
  9  8  1  0  0  0  0
 10 11  1  0  0  0  0
 11 12  1  0  0  0  0
 13 12  1  0  0  0  0
 13 15  1  0  0  0  0
 14 13  1  0  0  0  0
 15 17  1  0  0  0  0
 17 16  1  0  0  0  0
 18 19  1  0  0  0  0
 18  7  1  0  0  0  0
 19 21  1  0  0  0  0
 19 20  2  0  0  0  0
 21 24  1  0  0  0  0
 22 21  1  0  0  0  0
 23 27  1  0  0  0  0
 24 27  2  0  0  0  0
 24 32  1  0  0  0  0
 25 23  1  0  0  0  0
 27 35  1  0  0  0  0
 28 33  1  0  0  0  0
 29 26  1  0  0  0  0
 29 38  1  0  0  0  0
 30 29  2  0  0  0  0
 31 30  1  0  0  0  0
 32 28  2  0  0  0  0
 33 26  2  0  0  0  0
 34 22  1  0  0  0  0
 34 25  1  0  0  0  0
 35 31  2  0  0  0  0
 35 28  1  0  0  0  0
 36 22  1  0  0  0  0
 37 38  2  0  0  0  0
 38 39  1  0  0  0  0
 40 41  1  0  0  0  0
 41 43  1  0  0  0  0
 42 43  2  0  0  0  0
 43 45  1  0  0  0  0
 43 44  1  0  0  0  0
M  END
>  <MODEL>
9

>  <REMARK>
 VINA RESULT:      -5.4      4.590      7.937
  Name = 
  14 active torsions:
  status: ('A' for Active; 'I' for Inactive)
    1  A    between atoms: C_1  and  C_31
    2  A    between atoms: N_3  and  C_31
    3  A    between atoms: N_3  and  C_44
    4  A    between atoms: C_5  and  O_10
    5  A    between atoms: C_5  and  C_16
    6  A    between atoms: C_16  and  O_26
    7  A    between atoms: C_17  and  C_32
    8  A    between atoms: P_22  and  C_28
    9  A    between atoms: C_25  and  C_36
   10  A    between atoms: O_26  and  C_33
   11  A    between atoms: C_28  and  C_36
   12  A    between atoms: C_30  and  C_41
   13  A    between atoms: C_30  and  C_42
   14  A    between atoms: C_33  and  C_41
                            x       y       z     vdW  Elec       q    Type
                         _______ _______ _______ _____ _____    ______ ____

>  <TORSDO>
F 14

$$$$
