=
 OpenBabel11032420423D

 45 50  0  0  1  0  0  0  0  0999 V2000
  184.9710  177.9340  138.1210 C   0  0  0  0  0  0  0  0  0  0  0  0
  183.2180  179.3790  139.2740 C   0  0  1  0  0  3  0  0  0  0  0  0
  184.8870  176.4480  134.8030 O   0  0  0  0  0  0  0  0  0  0  0  0
  179.3960  180.9950  140.0650 C   0  0  0  0  0  2  0  0  0  0  0  0
  182.0420  178.3860  141.2150 C   0  0  0  0  0  2  0  0  0  0  0  0
  183.2030  177.7600  135.8630 C   0  0  0  0  0  2  0  0  0  0  0  0
  181.2180  180.5240  138.4460 N   0  0  0  0  0  0  0  0  0  0  0  0
  186.0020  178.3750  138.9780 O   0  0  0  0  0  0  0  0  0  0  0  0
  183.3860  178.9290  140.7400 C   0  0  1  0  0  3  0  0  0  0  0  0
  184.3940  177.9600  140.8790 O   0  0  0  0  0  0  0  0  0  0  0  0
  180.9800  179.0160  140.3250 C   0  0  2  0  0  3  0  0  0  0  0  0
  183.6720  178.3280  138.2550 C   0  0  0  0  0  0  0  0  0  0  0  0
  184.5180  177.0550  135.8450 C   0  0  0  0  0  0  0  0  0  0  0  0
  181.7550  179.6440  139.2170 C   0  0  0  0  0  0  0  0  0  0  0  0
  179.8040  180.8250  138.5800 C   0  0  2  0  0  3  0  0  0  0  0  0
  185.3390  177.0640  137.0250 N   0  0  0  0  0  0  0  0  0  0  0  0
  182.6510  177.7630  137.2870 C   0  0  2  0  0  3  0  0  0  0  0  0
  180.2090  180.1240  141.0460 C   0  0  0  0  0  2  0  0  0  0  0  0
  185.8220  179.2820  139.9510 O   0  0  0  0  0  0  0  0  0  0  0  0
  185.5410  178.6110  141.0670 O   0  0  0  0  0  0  0  0  0  0  0  0
  178.9310  181.8630  136.3570 C   0  0  0  0  0  2  0  0  0  0  0  0
  180.2380  182.3020  136.6730 O   0  0  0  0  0  0  0  0  0  0  0  0
  178.9310  183.3090  138.4470 C   0  0  0  0  0  1  0  0  0  0  0  0
  179.3790  182.0400  137.7520 C   0  0  2  0  0  0  0  0  0  0  0  0
  186.8520  175.1430  137.2200 C   0  0  0  0  0  0  0  0  0  0  0  0
  186.6350  176.4440  136.9750 C   0  0  0  0  0  3  0  0  0  0  0  0
  188.1840  174.6120  137.2690 N   0  0  0  0  0  2  0  0  0  0  0  0
  188.6370  174.4440  134.9770 O   0  0  0  0  0  0  0  0  0  0  0  0
  189.0720  174.4540  136.1560 C   0  0  0  0  0  0  0  0  0  0  0  0
  191.2310  172.9530  135.3560 S   0  0  0  0  0  0  0  0  0  0  0  0
  191.3190  176.0120  134.8430 O   0  0  0  0  0  1  0  0  0  0  0  0
  192.7440  175.5470  136.7920 C   0  0  0  0  0  0  0  0  0  0  0  0
  191.3110  175.6300  136.1930 C   0  0  2  0  0  3  0  0  0  0  0  0
  190.5400  174.3140  136.3740 C   0  0  1  0  0  3  0  0  0  0  0  0
  193.7620  176.3320  135.9670 C   0  0  0  0  0  1  0  0  0  0  0  0
  193.0100  173.3000  135.6540 C   0  0  0  0  0  2  0  0  0  0  0  0
  192.7130  176.1630  138.1790 C   0  0  0  0  0  1  0  0  0  0  0  0
  193.2410  174.0980  136.9350 C   0  0  0  0  0  2  0  0  0  0  0  0
  185.7160  174.2050  137.4650 C   0  0  0  0  0  2  0  0  0  0  0  0
  185.5990  173.2030  136.3310 C   0  0  0  0  0  2  0  0  0  0  0  0
  183.5780  171.5350  136.8350 C   0  0  0  0  0  3  0  0  0  0  0  0
  184.4900  172.2910  136.6050 C   0  0  0  0  0  0  0  0  0  0  0  0
  182.3000  176.4650  137.6700 O   0  0  0  0  0  0  0  0  0  0  0  0
  180.3940  175.0870  138.0290 C   0  0  0  0  0  1  0  0  0  0  0  0
  180.9210  176.3940  137.4740 C   0  0  0  0  0  2  0  0  0  0  0  0
  1 12  2  0  0  0  0
  1  8  1  0  0  0  0
  2 12  1  6  0  0  0
  2  9  1  0  0  0  0
  3 13  2  0  0  0  0
  4 18  1  0  0  0  0
  6 17  1  0  0  0  0
  7 15  1  0  0  0  0
  7 14  2  0  0  0  0
  8 19  1  0  0  0  0
  9 10  1  0  0  0  0
  9  5  1  6  0  0  0
 10 20  1  0  0  0  0
 11 18  1  1  0  0  0
 11  5  1  0  0  0  0
 13  6  1  0  0  0  0
 13 16  1  0  0  0  0
 14  2  1  0  0  0  0
 14 11  1  0  0  0  0
 15  4  1  1  0  0  0
 16  1  1  0  0  0  0
 17 43  1  1  0  0  0
 17 12  1  0  0  0  0
 19 20  1  0  0  0  0
 21 22  1  0  0  0  0
 21 24  1  0  0  0  0
 22 24  1  0  0  0  0
 24 23  1  1  0  0  0
 24 15  1  0  0  0  0
 25 27  1  0  0  0  0
 25 39  1  0  0  0  0
 26 16  1  0  0  0  0
 26 25  2  0  0  0  0
 28 29  2  0  0  0  0
 29 27  1  0  0  0  0
 30 36  1  0  0  0  0
 30 34  1  0  0  0  0
 32 38  1  0  0  0  0
 32 37  1  0  0  0  0
 33 31  1  6  0  0  0
 33 34  1  0  0  0  0
 33 32  1  0  0  0  0
 34 29  1  6  0  0  0
 35 32  1  0  0  0  0
 36 38  1  0  0  0  0
 40 42  1  0  0  0  0
 40 39  1  0  0  0  0
 42 41  3  0  0  0  0
 45 43  1  0  0  0  0
 45 44  1  0  0  0  0
M  END
>  <MODEL>
1

>  <REMARK>
 VINA RESULT:      -5.8      0.000      0.000
  Name = 
  9 active torsions:
  status: ('A' for Active; 'I' for Inactive)
    1  A    between atoms: C_6  and  N_7
    2  A    between atoms: C_6  and  C_10
    3  A    between atoms: C_8  and  C_10
    4  A    between atoms: C_8  and  C_36
    5  A    between atoms: C_23  and  C_31
    6  A    between atoms: C_26  and  C_34
    7  A    between atoms: C_29  and  O_41
    8  A    between atoms: N_37  and  C_45
    9  A    between atoms: C_39  and  O_41
                            x       y       z     vdW  Elec       q    Type
                         _______ _______ _______ _____ _____    ______ ____

>  <TORSDO>
F 9

$$$$
=
 OpenBabel11032420423D

 45 50  0  0  1  0  0  0  0  0999 V2000
  186.6530  177.6700  137.7830 C   0  0  0  0  0  0  0  0  0  0  0  0
  184.8690  178.8780  139.1410 C   0  0  1  0  0  3  0  0  0  0  0  0
  186.3260  175.9500  134.5950 O   0  0  0  0  0  0  0  0  0  0  0  0
  180.9880  179.8780  140.4760 C   0  0  0  0  0  2  0  0  0  0  0  0
  184.2020  177.8460  141.2930 C   0  0  0  0  0  2  0  0  0  0  0  0
  184.6180  177.0330  135.8560 C   0  0  0  0  0  2  0  0  0  0  0  0
  182.5930  179.6040  138.6030 N   0  0  0  0  0  0  0  0  0  0  0  0
  187.7080  178.3400  138.4370 O   0  0  0  0  0  0  0  0  0  0  0  0
  185.3390  178.5720  140.5790 C   0  0  1  0  0  3  0  0  0  0  0  0
  186.5120  177.8000  140.5940 O   0  0  0  0  0  0  0  0  0  0  0  0
  182.9210  178.2200  140.5610 C   0  0  2  0  0  3  0  0  0  0  0  0
  185.3410  177.8470  138.1100 C   0  0  0  0  0  0  0  0  0  0  0  0
  186.0190  176.5610  135.6540 C   0  0  0  0  0  0  0  0  0  0  0  0
  183.3910  178.8860  139.3140 C   0  0  0  0  0  0  0  0  0  0  0  0
  181.1860  179.6710  138.9540 C   0  0  2  0  0  3  0  0  0  0  0  0
  186.9970  176.7950  136.6810 N   0  0  0  0  0  0  0  0  0  0  0  0
  184.3000  177.0480  137.3500 C   0  0  2  0  0  3  0  0  0  0  0  0
  182.0850  179.2320  141.3480 C   0  0  0  0  0  2  0  0  0  0  0  0
  187.5210  179.2730  139.3840 O   0  0  0  0  0  0  0  0  0  0  0  0
  187.5400  178.6480  140.5610 O   0  0  0  0  0  0  0  0  0  0  0  0
  179.8910  180.4060  136.8180 C   0  0  0  0  0  2  0  0  0  0  0  0
  181.0980  181.1250  136.9820 O   0  0  0  0  0  0  0  0  0  0  0  0
  179.7890  181.9060  138.8670 C   0  0  0  0  0  1  0  0  0  0  0  0
  180.4280  180.7320  138.1530 C   0  0  2  0  0  0  0  0  0  0  0  0
  188.8380  175.1740  136.7000 C   0  0  0  0  0  0  0  0  0  0  0  0
  188.3600  176.4020  136.4470 C   0  0  0  0  0  3  0  0  0  0  0  0
  190.2350  174.8800  136.5550 N   0  0  0  0  0  2  0  0  0  0  0  0
  190.9770  175.3610  138.7230 O   0  0  0  0  0  0  0  0  0  0  0  0
  191.2000  174.8190  137.6110 C   0  0  0  0  0  0  0  0  0  0  0  0
  192.4220  173.0160  135.9350 S   0  0  0  0  0  0  0  0  0  0  0  0
  193.7260  175.8130  136.2580 O   0  0  0  0  0  1  0  0  0  0  0  0
  195.0380  174.2250  137.6010 C   0  0  0  0  0  0  0  0  0  0  0  0
  193.7140  175.0190  137.4150 C   0  0  2  0  0  3  0  0  0  0  0  0
  192.4880  174.0940  137.4180 C   0  0  1  0  0  3  0  0  0  0  0  0
  196.1900  174.8220  136.7950 C   0  0  0  0  0  1  0  0  0  0  0  0
  194.2030  172.5730  135.8720 C   0  0  0  0  0  2  0  0  0  0  0  0
  195.4280  174.2920  139.0670 C   0  0  0  0  0  1  0  0  0  0  0  0
  194.8930  172.7400  137.2240 C   0  0  0  0  0  2  0  0  0  0  0  0
  187.9360  174.0750  137.1570 C   0  0  0  0  0  2  0  0  0  0  0  0
  188.2780  172.7770  136.4480 C   0  0  0  0  0  2  0  0  0  0  0  0
  186.0280  171.6400  135.5710 C   0  0  0  0  0  3  0  0  0  0  0  0
  187.0470  172.1530  135.9650 C   0  0  0  0  0  0  0  0  0  0  0  0
  184.2510  175.7410  137.8440 O   0  0  0  0  0  0  0  0  0  0  0  0
  182.4020  174.3650  137.2520 C   0  0  0  0  0  1  0  0  0  0  0  0
  182.9010  175.5090  138.1100 C   0  0  0  0  0  2  0  0  0  0  0  0
  1 12  2  0  0  0  0
  1  8  1  0  0  0  0
  2 12  1  6  0  0  0
  2 14  1  0  0  0  0
  2  9  1  0  0  0  0
  3 13  2  0  0  0  0
  4 18  1  0  0  0  0
  6 17  1  0  0  0  0
  7 15  1  0  0  0  0
  7 14  2  0  0  0  0
  8 19  1  0  0  0  0
  9 10  1  0  0  0  0
  9  5  1  1  0  0  0
 11  5  1  1  0  0  0
 11 18  1  0  0  0  0
 13  6  1  0  0  0  0
 13 16  1  0  0  0  0
 14 11  1  0  0  0  0
 15  4  1  1  0  0  0
 16  1  1  0  0  0  0
 17 43  1  1  0  0  0
 17 12  1  0  0  0  0
 19 20  1  0  0  0  0
 20 10  1  0  0  0  0
 21 22  1  0  0  0  0
 21 24  1  0  0  0  0
 22 24  1  0  0  0  0
 24 23  1  1  0  0  0
 24 15  1  0  0  0  0
 25 39  1  0  0  0  0
 26 16  1  0  0  0  0
 26 25  2  0  0  0  0
 27 25  1  0  0  0  0
 27 29  1  0  0  0  0
 29 28  2  0  0  0  0
 30 34  1  0  0  0  0
 32 37  1  0  0  0  0
 33 31  1  6  0  0  0
 33 34  1  0  0  0  0
 33 32  1  0  0  0  0
 34 29  1  6  0  0  0
 35 32  1  0  0  0  0
 36 30  1  0  0  0  0
 36 38  1  0  0  0  0
 38 32  1  0  0  0  0
 40 39  1  0  0  0  0
 41 42  3  0  0  0  0
 42 40  1  0  0  0  0
 43 45  1  0  0  0  0
 44 45  1  0  0  0  0
M  END
>  <MODEL>
2

>  <REMARK>
 VINA RESULT:      -5.2      1.755      2.203
  Name = 
  9 active torsions:
  status: ('A' for Active; 'I' for Inactive)
    1  A    between atoms: C_6  and  N_7
    2  A    between atoms: C_6  and  C_10
    3  A    between atoms: C_8  and  C_10
    4  A    between atoms: C_8  and  C_36
    5  A    between atoms: C_23  and  C_31
    6  A    between atoms: C_26  and  C_34
    7  A    between atoms: C_29  and  O_41
    8  A    between atoms: N_37  and  C_45
    9  A    between atoms: C_39  and  O_41
                            x       y       z     vdW  Elec       q    Type
                         _______ _______ _______ _____ _____    ______ ____

>  <TORSDO>
F 9

$$$$
=
 OpenBabel11032420423D

 45 50  0  0  1  0  0  0  0  0999 V2000
  189.1950  174.8030  137.2550 C   0  0  0  0  0  0  0  0  0  0  0  0
  186.7360  175.3230  136.8420 C   0  0  1  0  0  3  0  0  0  0  0  0
  191.5580  176.5090  139.4300 O   0  0  0  0  0  0  0  0  0  0  0  0
  183.2020  177.6350  136.7050 C   0  0  0  0  0  2  0  0  0  0  0  0
  186.1280  176.1750  134.5970 C   0  0  0  0  0  2  0  0  0  0  0  0
  189.2720  177.0550  139.0380 C   0  0  0  0  0  2  0  0  0  0  0  0
  185.1370  176.7730  138.0000 N   0  0  0  0  0  0  0  0  0  0  0  0
  189.0700  173.4810  136.7810 O   0  0  0  0  0  0  0  0  0  0  0  0
  186.6010  174.9380  135.3540 C   0  0  1  0  0  3  0  0  0  0  0  0
  187.8120  174.4610  134.8250 O   0  0  0  0  0  0  0  0  0  0  0  0
  185.4360  177.0700  135.6160 C   0  0  2  0  0  3  0  0  0  0  0  0
  188.1640  175.6970  137.2510 C   0  0  0  0  0  0  0  0  0  0  0  0
  190.5030  176.2490  138.7920 C   0  0  0  0  0  0  0  0  0  0  0  0
  185.7900  176.4690  136.9330 C   0  0  0  0  0  0  0  0  0  0  0  0
  184.1170  177.8040  137.9440 C   0  0  2  0  0  3  0  0  0  0  0  0
  190.4710  175.1960  137.8140 N   0  0  0  0  0  0  0  0  0  0  0  0
  188.4320  177.0990  137.7640 C   0  0  2  0  0  3  0  0  0  0  0  0
  183.9130  177.0290  135.4760 C   0  0  0  0  0  2  0  0  0  0  0  0
  187.9110  172.9500  136.3590 O   0  0  0  0  0  0  0  0  0  0  0  0
  187.8450  173.1470  135.0430 O   0  0  0  0  0  0  0  0  0  0  0  0
  182.3380  178.9950  139.4270 C   0  0  0  0  0  2  0  0  0  0  0  0
  183.6170  178.9910  140.0300 O   0  0  0  0  0  0  0  0  0  0  0  0
  183.0460  176.6360  140.0520 C   0  0  0  0  0  1  0  0  0  0  0  0
  183.2890  177.8850  139.2290 C   0  0  2  0  0  0  0  0  0  0  0  0
  192.5930  174.6240  136.7230 C   0  0  0  0  0  0  0  0  0  0  0  0
  191.6400  174.3780  137.6350 C   0  0  0  0  0  3  0  0  0  0  0  0
  193.6740  173.7030  136.5170 N   0  0  0  0  0  2  0  0  0  0  0  0
  195.1770  174.4750  138.1390 O   0  0  0  0  0  0  0  0  0  0  0  0
  194.8330  173.5630  137.3450 C   0  0  0  0  0  0  0  0  0  0  0  0
  194.5970  170.8470  136.9900 S   0  0  0  0  0  0  0  0  0  0  0  0
  196.3770  172.4230  134.9970 O   0  0  0  0  0  1  0  0  0  0  0  0
  197.8720  171.2700  136.5730 C   0  0  0  0  0  0  0  0  0  0  0  0
  196.8350  172.4020  136.3230 C   0  0  2  0  0  3  0  0  0  0  0  0
  195.6510  172.3170  137.2970 C   0  0  1  0  0  3  0  0  0  0  0  0
  198.5020  170.7660  135.2760 C   0  0  0  0  0  1  0  0  0  0  0  0
  195.9430  169.6330  136.7000 C   0  0  0  0  0  2  0  0  0  0  0  0
  198.9900  171.8340  137.4300 C   0  0  0  0  0  1  0  0  0  0  0  0
  197.2670  170.0710  137.3230 C   0  0  0  0  0  2  0  0  0  0  0  0
  192.5530  175.8560  135.8800 C   0  0  0  0  0  2  0  0  0  0  0  0
  193.5900  176.8580  136.3550 C   0  0  0  0  0  2  0  0  0  0  0  0
  195.7690  176.6560  134.8250 C   0  0  0  0  0  3  0  0  0  0  0  0
  194.7830  176.7500  135.5160 C   0  0  0  0  0  0  0  0  0  0  0  0
  189.0880  177.8460  136.7810 O   0  0  0  0  0  0  0  0  0  0  0  0
  187.5640  179.6310  136.3910 C   0  0  0  0  0  1  0  0  0  0  0  0
  188.8200  179.1770  137.1040 C   0  0  0  0  0  2  0  0  0  0  0  0
  1 16  1  0  0  0  0
  2 14  1  6  0  0  0
  2 12  1  0  0  0  0
  8  1  1  0  0  0  0
  9  5  1  6  0  0  0
  9  2  1  0  0  0  0
 10 20  1  0  0  0  0
 10  9  1  0  0  0  0
 11  5  1  6  0  0  0
 11 14  1  0  0  0  0
 12  1  2  0  0  0  0
 12 17  1  0  0  0  0
 13  6  1  0  0  0  0
 13  3  2  0  0  0  0
 14  7  2  0  0  0  0
 15  4  1  6  0  0  0
 15  7  1  0  0  0  0
 15 24  1  0  0  0  0
 16 13  1  0  0  0  0
 17 43  1  6  0  0  0
 17  6  1  0  0  0  0
 18 11  1  0  0  0  0
 18  4  1  0  0  0  0
 19  8  1  0  0  0  0
 20 19  1  0  0  0  0
 21 22  1  0  0  0  0
 24 21  1  0  0  0  0
 24 22  1  0  0  0  0
 24 23  1  1  0  0  0
 25 26  2  0  0  0  0
 26 16  1  0  0  0  0
 27 25  1  0  0  0  0
 27 29  1  0  0  0  0
 29 28  2  0  0  0  0
 30 34  1  0  0  0  0
 32 38  1  0  0  0  0
 32 37  1  0  0  0  0
 33 31  1  6  0  0  0
 33 32  1  0  0  0  0
 33 34  1  0  0  0  0
 34 29  1  6  0  0  0
 35 32  1  0  0  0  0
 36 30  1  0  0  0  0
 36 38  1  0  0  0  0
 39 40  1  0  0  0  0
 39 25  1  0  0  0  0
 41 42  3  0  0  0  0
 42 40  1  0  0  0  0
 43 45  1  0  0  0  0
 44 45  1  0  0  0  0
M  END
>  <MODEL>
3

>  <REMARK>
 VINA RESULT:      -4.5      3.117      6.999
  Name = 
  9 active torsions:
  status: ('A' for Active; 'I' for Inactive)
    1  A    between atoms: C_6  and  N_7
    2  A    between atoms: C_6  and  C_10
    3  A    between atoms: C_8  and  C_10
    4  A    between atoms: C_8  and  C_36
    5  A    between atoms: C_23  and  C_31
    6  A    between atoms: C_26  and  C_34
    7  A    between atoms: C_29  and  O_41
    8  A    between atoms: N_37  and  C_45
    9  A    between atoms: C_39  and  O_41
                            x       y       z     vdW  Elec       q    Type
                         _______ _______ _______ _____ _____    ______ ____

>  <TORSDO>
F 9

$$$$
=
 OpenBabel11032420423D

 45 50  0  0  1  0  0  0  0  0999 V2000
  183.7680  178.6030  140.8900 C   0  0  0  0  0  0  0  0  0  0  0  0
  181.6870  179.6080  139.8190 C   0  0  1  0  0  3  0  0  0  0  0  0
  187.1990  178.6270  139.6850 O   0  0  0  0  0  0  0  0  0  0  0  0
  179.2230  181.1180  136.7380 C   0  0  0  0  0  2  0  0  0  0  0  0
  179.9820  178.0240  138.9700 C   0  0  0  0  0  2  0  0  0  0  0  0
  185.2700  179.5440  138.6280 C   0  0  0  0  0  2  0  0  0  0  0  0
  181.3790  181.1810  137.9670 N   0  0  0  0  0  0  0  0  0  0  0  0
  183.1730  178.5490  142.1680 O   0  0  0  0  0  0  0  0  0  0  0  0
  180.6150  178.5810  140.2410 C   0  0  1  0  0  3  0  0  0  0  0  0
  181.1580  177.5480  141.0230 O   0  0  0  0  0  0  0  0  0  0  0  0
  180.2060  179.0640  137.8810 C   0  0  2  0  0  3  0  0  0  0  0  0
  183.1060  179.0300  139.7770 C   0  0  0  0  0  0  0  0  0  0  0  0
  185.9480  178.7850  139.7190 C   0  0  0  0  0  0  0  0  0  0  0  0
  181.1880  180.0130  138.4760 C   0  0  0  0  0  0  0  0  0  0  0  0
  180.7150  181.5350  136.7250 C   0  0  2  0  0  3  0  0  0  0  0  0
  185.1620  178.2290  140.7850 N   0  0  0  0  0  0  0  0  0  0  0  0
  183.8470  179.0160  138.4550 C   0  0  2  0  0  3  0  0  0  0  0  0
  178.9310  179.8470  137.5630 C   0  0  0  0  0  2  0  0  0  0  0  0
  181.9310  178.9890  142.4280 O   0  0  0  0  0  0  0  0  0  0  0  0
  181.1090  177.9490  142.2930 O   0  0  0  0  0  0  0  0  0  0  0  0
  181.7350  183.8840  137.2000 C   0  0  0  0  0  2  0  0  0  0  0  0
  180.3280  183.8730  137.3550 O   0  0  0  0  0  0  0  0  0  0  0  0
  180.5730  183.5000  134.9730 C   0  0  0  0  0  1  0  0  0  0  0  0
  180.8670  183.0180  136.3780 C   0  0  2  0  0  0  0  0  0  0  0  0
  186.2550  178.1820  142.9820 C   0  0  0  0  0  0  0  0  0  0  0  0
  185.8320  177.5620  141.8690 C   0  0  0  0  0  3  0  0  0  0  0  0
  187.0210  177.4800  143.9720 N   0  0  0  0  0  2  0  0  0  0  0  0
  188.9240  176.9520  142.7130 O   0  0  0  0  0  0  0  0  0  0  0  0
  188.3820  177.0560  143.8430 C   0  0  0  0  0  0  0  0  0  0  0  0
  190.9690  176.5570  144.6260 S   0  0  0  0  0  0  0  0  0  0  0  0
  189.5090  178.9820  145.8970 O   0  0  0  0  0  1  0  0  0  0  0  0
  189.5140  177.1680  147.5570 C   0  0  0  0  0  0  0  0  0  0  0  0
  188.9700  177.7250  146.2110 C   0  0  2  0  0  3  0  0  0  0  0  0
  189.1940  176.7420  145.0530 C   0  0  1  0  0  3  0  0  0  0  0  0
  190.1080  178.2640  148.4390 C   0  0  0  0  0  1  0  0  0  0  0  0
  191.6310  176.4970  146.3380 C   0  0  0  0  0  2  0  0  0  0  0  0
  188.3530  176.5530  148.3180 C   0  0  0  0  0  1  0  0  0  0  0  0
  190.5740  176.0710  147.3560 C   0  0  0  0  0  2  0  0  0  0  0  0
  185.9560  179.6250  143.2210 C   0  0  0  0  0  2  0  0  0  0  0  0
  184.8380  179.7760  144.2360 C   0  0  0  0  0  2  0  0  0  0  0  0
  185.7280  179.0270  146.6390 C   0  0  0  0  0  3  0  0  0  0  0  0
  185.3240  179.3630  145.5520 C   0  0  0  0  0  0  0  0  0  0  0  0
  183.8770  177.7150  137.9410 O   0  0  0  0  0  0  0  0  0  0  0  0
  182.5170  176.7720  136.2330 C   0  0  0  0  0  1  0  0  0  0  0  0
  183.5130  177.8510  136.6010 C   0  0  0  0  0  2  0  0  0  0  0  0
  1  8  1  0  0  0  0
  2 14  1  6  0  0  0
  2  9  1  0  0  0  0
  3 13  2  0  0  0  0
  4 18  1  0  0  0  0
  6 13  1  0  0  0  0
  7 14  2  0  0  0  0
  8 19  1  0  0  0  0
  9  5  1  6  0  0  0
  9 10  1  0  0  0  0
 10 20  1  0  0  0  0
 11 18  1  1  0  0  0
 11 14  1  0  0  0  0
 11  5  1  0  0  0  0
 12  2  1  0  0  0  0
 12  1  2  0  0  0  0
 13 16  1  0  0  0  0
 15  4  1  1  0  0  0
 15  7  1  0  0  0  0
 16  1  1  0  0  0  0
 16 26  1  0  0  0  0
 17 43  1  1  0  0  0
 17  6  1  0  0  0  0
 17 12  1  0  0  0  0
 20 19  1  0  0  0  0
 21 22  1  0  0  0  0
 24 23  1  6  0  0  0
 24 15  1  0  0  0  0
 24 21  1  0  0  0  0
 24 22  1  0  0  0  0
 25 39  1  0  0  0  0
 25 27  1  0  0  0  0
 26 25  2  0  0  0  0
 28 29  2  0  0  0  0
 29 27  1  0  0  0  0
 30 34  1  0  0  0  0
 30 36  1  0  0  0  0
 32 37  1  0  0  0  0
 32 35  1  0  0  0  0
 33 31  1  6  0  0  0
 33 32  1  0  0  0  0
 34 29  1  6  0  0  0
 34 33  1  0  0  0  0
 36 38  1  0  0  0  0
 38 32  1  0  0  0  0
 39 40  1  0  0  0  0
 40 42  1  0  0  0  0
 42 41  3  0  0  0  0
 44 45  1  0  0  0  0
 45 43  1  0  0  0  0
M  END
>  <MODEL>
4

>  <REMARK>
 VINA RESULT:      -4.3      4.782      6.830
  Name = 
  9 active torsions:
  status: ('A' for Active; 'I' for Inactive)
    1  A    between atoms: C_6  and  N_7
    2  A    between atoms: C_6  and  C_10
    3  A    between atoms: C_8  and  C_10
    4  A    between atoms: C_8  and  C_36
    5  A    between atoms: C_23  and  C_31
    6  A    between atoms: C_26  and  C_34
    7  A    between atoms: C_29  and  O_41
    8  A    between atoms: N_37  and  C_45
    9  A    between atoms: C_39  and  O_41
                            x       y       z     vdW  Elec       q    Type
                         _______ _______ _______ _____ _____    ______ ____

>  <TORSDO>
F 9

$$$$
