=
 OpenBabel11042410423D

 38 41  0  0  1  0  0  0  0  0999 V2000
  188.9470  176.8630  143.3030 C   0  0  0  0  0  2  0  0  0  0  0  0
  191.8910  177.5260  141.2360 O   0  0  0  0  0  0  0  0  0  0  0  0
  190.2790  177.3140  142.9210 N   0  0  0  0  0  0  0  0  0  0  0  0
  190.6880  177.3030  141.5410 C   0  0  0  0  0  0  0  0  0  0  0  0
  190.2180  176.1270  139.4760 O   0  0  0  0  0  0  0  0  0  0  0  0
  190.8440  176.8620  138.4480 C   0  0  0  0  0  2  0  0  0  0  0  0
  189.0460  178.3010  139.9030 C   0  0  0  0  0  2  0  0  0  0  0  0
  189.6960  177.0170  140.4530 C   0  0  2  0  0  3  0  0  0  0  0  0
  189.8040  177.6230  137.6120 C   0  0  2  0  0  3  0  0  0  0  0  0
  188.6140  178.0880  138.4590 C   0  0  0  0  0  2  0  0  0  0  0  0
  189.3430  176.8190  136.3980 C   0  0  0  0  0  2  0  0  0  0  0  0
  187.8660  177.0310  136.0860 C   0  0  0  0  0  2  0  0  0  0  0  0
  187.1570  175.6940  135.9610 C   0  0  0  0  0  2  0  0  0  0  0  0
  185.3920  177.0980  137.0540 C   0  0  0  0  0  1  0  0  0  0  0  0
  185.8600  175.6860  136.7560 C   0  0  0  0  0  2  0  0  0  0  0  0
  191.2530  177.5450  143.9850 C   0  0  0  0  0  2  0  0  0  0  0  0
  192.0500  176.6760  146.0780 O   0  0  0  0  0  1  0  0  0  0  0  0
  191.3910  176.3300  144.8990 C   0  0  2  0  0  3  0  0  0  0  0  0
  192.1040  175.2540  144.2330 N   0  0  0  0  0  1  0  0  0  0  0  0
  188.6590  177.2490  144.7450 C   0  0  0  0  0  2  0  0  0  0  0  0
  183.3390  179.0140  144.7590 C   0  0  0  0  0  3  0  0  0  0  0  0
  185.4020  178.5210  146.1620 C   0  0  0  0  0  0  0  0  0  0  0  0
  185.2820  178.3960  143.7930 C   0  0  0  0  0  0  0  0  0  0  0  0
  187.4770  177.9030  147.3030 C   0  0  0  0  0  1  0  0  0  0  0  0
  184.4090  178.5720  142.8040 N   0  0  0  0  0  0  0  0  0  0  0  0
  184.6820  178.6840  144.9860 C   0  0  0  0  0  0  0  0  0  0  0  0
  184.8660  178.7670  147.2780 O   0  0  0  0  0  0  0  0  0  0  0  0
  182.1970  178.8570  142.4000 C   0  0  0  0  0  0  0  0  0  0  0  0
  186.7000  178.0750  146.0780 N   0  0  0  0  0  0  0  0  0  0  0  0
  182.7630  178.4690  141.2340 C   0  0  0  0  0  0  0  0  0  0  0  0
  183.2660  178.9250  143.3660 C   0  0  0  0  0  0  0  0  0  0  0  0
  184.2410  178.1870  141.4190 C   0  0  0  0  0  3  0  0  0  0  0  0
  187.2660  177.7780  144.8520 C   0  0  2  0  0  3  0  0  0  0  0  0
  186.5450  177.9270  143.7000 N   0  0  0  0  0  0  0  0  0  0  0  0
  180.8490  179.0900  142.6900 O   0  0  0  0  0  0  0  0  0  0  0  0
  180.1120  178.3070  143.6160 C   0  0  0  0  0  1  0  0  0  0  0  0
  182.1290  178.3520  139.9950 O   0  0  0  0  0  0  0  0  0  0  0  0
  182.0880  177.1300  139.2740 C   0  0  0  0  0  1  0  0  0  0  0  0
  1 20  1  0  0  0  0
  2  4  2  0  0  0  0
  3  1  1  0  0  0  0
  3 16  1  0  0  0  0
  4  3  1  0  0  0  0
  5  8  1  0  0  0  0
  6  5  1  0  0  0  0
  7  8  1  0  0  0  0
  8  4  1  1  0  0  0
  9 11  1  6  0  0  0
  9  6  1  0  0  0  0
  9 10  1  0  0  0  0
 10  7  1  0  0  0  0
 12 11  1  0  0  0  0
 13 12  1  0  0  0  0
 13 15  1  0  0  0  0
 15 14  1  0  0  0  0
 16 18  1  0  0  0  0
 18 19  1  6  0  0  0
 18 17  1  0  0  0  0
 21 26  2  0  0  0  0
 22 27  2  0  0  0  0
 23 26  1  0  0  0  0
 25 31  1  0  0  0  0
 25 23  1  0  0  0  0
 26 22  1  0  0  0  0
 28 35  1  0  0  0  0
 28 31  2  0  0  0  0
 29 22  1  0  0  0  0
 29 24  1  0  0  0  0
 30 32  2  0  0  0  0
 30 28  1  0  0  0  0
 31 21  1  0  0  0  0
 32 25  1  0  0  0  0
 33 20  1  1  0  0  0
 33 29  1  0  0  0  0
 34 23  2  0  0  0  0
 34 33  1  0  0  0  0
 35 36  1  0  0  0  0
 37 30  1  0  0  0  0
 38 37  1  0  0  0  0
M  END
>  <MODEL>
1

>  <REMARK>
 VINA RESULT:      -8.2      0.000      0.000
  Name = 
  12 active torsions:
  status: ('A' for Active; 'I' for Inactive)
    1  A    between atoms: C_4  and  C_12
    2  A    between atoms: C_4  and  N_21
    3  A    between atoms: O_9  and  C_14
    4  A    between atoms: C_12  and  C_24
    5  A    between atoms: C_13  and  C_32
    6  A    between atoms: C_16  and  O_28
    7  A    between atoms: N_21  and  C_32
    8  A    between atoms: C_22  and  C_30
    9  A    between atoms: C_26  and  C_31
   10  A    between atoms: C_26  and  C_35
   11  A    between atoms: C_27  and  C_38
   12  A    between atoms: C_30  and  C_31
                            x       y       z     vdW  Elec       q    Type
                         _______ _______ _______ _____ _____    ______ ____

>  <TORSDO>
F 12

$$$$
=
 OpenBabel11042410423D

 38 41  0  0  1  0  0  0  0  0999 V2000
  188.9580  177.2060  139.4440 C   0  0  0  0  0  2  0  0  0  0  0  0
  190.1610  176.8040  136.0130 O   0  0  0  0  0  0  0  0  0  0  0  0
  188.9980  177.2800  137.9890 N   0  0  0  0  0  0  0  0  0  0  0  0
  190.0270  176.5970  137.2490 C   0  0  0  0  0  0  0  0  0  0  0  0
  192.0330  176.3150  138.5780 O   0  0  0  0  0  0  0  0  0  0  0  0
  193.1200  176.4310  137.6880 C   0  0  0  0  0  2  0  0  0  0  0  0
  191.3560  174.4610  137.0340 C   0  0  0  0  0  2  0  0  0  0  0  0
  190.9570  175.6430  137.9390 C   0  0  2  0  0  3  0  0  0  0  0  0
  193.7590  175.0590  137.4270 C   0  0  2  0  0  3  0  0  0  0  0  0
  192.7220  173.9290  137.4450 C   0  0  0  0  0  2  0  0  0  0  0  0
  194.9130  174.7700  138.3840 C   0  0  0  0  0  2  0  0  0  0  0  0
  195.2650  173.2880  138.4410 C   0  0  0  0  0  2  0  0  0  0  0  0
  196.5640  173.0270  137.6970 C   0  0  0  0  0  2  0  0  0  0  0  0
  197.9800  174.6280  136.3880 C   0  0  0  0  0  1  0  0  0  0  0  0
  197.4870  174.2340  137.7680 C   0  0  0  0  0  2  0  0  0  0  0  0
  188.1230  178.2450  137.3300 C   0  0  0  0  0  2  0  0  0  0  0  0
  186.8050  177.9170  135.3480 O   0  0  0  0  0  1  0  0  0  0  0  0
  186.9100  177.5700  136.6940 C   0  0  2  0  0  3  0  0  0  0  0  0
  185.6890  177.9280  137.3940 N   0  0  0  0  0  1  0  0  0  0  0  0
  188.2020  178.3980  140.0070 C   0  0  0  0  0  2  0  0  0  0  0  0
  187.2910  177.5130  145.4660 C   0  0  0  0  0  3  0  0  0  0  0  0
  186.2520  178.1160  143.2240 C   0  0  0  0  0  0  0  0  0  0  0  0
  188.5220  177.5110  143.5750 C   0  0  0  0  0  0  0  0  0  0  0  0
  185.5020  178.7530  140.9830 C   0  0  0  0  0  1  0  0  0  0  0  0
  189.3450  177.1630  144.5610 N   0  0  0  0  0  0  0  0  0  0  0  0
  187.2650  177.6990  144.0770 C   0  0  0  0  0  0  0  0  0  0  0  0
  185.0850  178.3120  143.6660 O   0  0  0  0  0  0  0  0  0  0  0  0
  189.4980  177.0890  146.8220 C   0  0  0  0  0  0  0  0  0  0  0  0
  186.5550  178.3210  141.8990 N   0  0  0  0  0  0  0  0  0  0  0  0
  190.7600  177.0060  146.3390 C   0  0  0  0  0  0  0  0  0  0  0  0
  188.6300  177.1710  145.6720 C   0  0  0  0  0  0  0  0  0  0  0  0
  190.7670  177.1160  144.8260 C   0  0  0  0  0  3  0  0  0  0  0  0
  187.8430  178.1360  141.4330 C   0  0  2  0  0  3  0  0  0  0  0  0
  188.8390  177.7400  142.2830 N   0  0  0  0  0  0  0  0  0  0  0  0
  189.0660  177.1550  148.1500 O   0  0  0  0  0  0  0  0  0  0  0  0
  188.3860  178.2790  148.6850 C   0  0  0  0  0  1  0  0  0  0  0  0
  191.9280  176.8210  147.0800 O   0  0  0  0  0  0  0  0  0  0  0  0
  192.2650  175.5760  147.6720 C   0  0  0  0  0  1  0  0  0  0  0  0
  1 20  1  0  0  0  0
  2  4  2  0  0  0  0
  3  1  1  0  0  0  0
  4  3  1  0  0  0  0
  6  5  1  0  0  0  0
  7 10  1  0  0  0  0
  7  8  1  0  0  0  0
  8  4  1  6  0  0  0
  8  5  1  0  0  0  0
  9 10  1  0  0  0  0
  9  6  1  0  0  0  0
  9 11  1  1  0  0  0
 11 12  1  0  0  0  0
 13 15  1  0  0  0  0
 13 12  1  0  0  0  0
 14 15  1  0  0  0  0
 16  3  1  0  0  0  0
 18 17  1  6  0  0  0
 18 16  1  0  0  0  0
 18 19  1  0  0  0  0
 21 31  1  0  0  0  0
 22 27  2  0  0  0  0
 22 26  1  0  0  0  0
 23 26  1  0  0  0  0
 23 25  1  0  0  0  0
 24 29  1  0  0  0  0
 25 32  1  0  0  0  0
 25 31  1  0  0  0  0
 26 21  2  0  0  0  0
 28 35  1  0  0  0  0
 29 22  1  0  0  0  0
 30 28  1  0  0  0  0
 30 37  1  0  0  0  0
 31 28  2  0  0  0  0
 32 30  2  0  0  0  0
 33 20  1  1  0  0  0
 33 29  1  0  0  0  0
 33 34  1  0  0  0  0
 34 23  2  0  0  0  0
 35 36  1  0  0  0  0
 37 38  1  0  0  0  0
M  END
>  <MODEL>
2

>  <REMARK>
 VINA RESULT:      -8.1      3.383      7.384
  Name = 
  12 active torsions:
  status: ('A' for Active; 'I' for Inactive)
    1  A    between atoms: C_4  and  C_12
    2  A    between atoms: C_4  and  N_21
    3  A    between atoms: O_9  and  C_14
    4  A    between atoms: C_12  and  C_24
    5  A    between atoms: C_13  and  C_32
    6  A    between atoms: C_16  and  O_28
    7  A    between atoms: N_21  and  C_32
    8  A    between atoms: C_22  and  C_30
    9  A    between atoms: C_26  and  C_31
   10  A    between atoms: C_26  and  C_35
   11  A    between atoms: C_27  and  C_38
   12  A    between atoms: C_30  and  C_31
                            x       y       z     vdW  Elec       q    Type
                         _______ _______ _______ _____ _____    ______ ____

>  <TORSDO>
F 12

$$$$
=
 OpenBabel11042410423D

 38 41  0  0  1  0  0  0  0  0999 V2000
  184.3080  179.2230  140.7370 C   0  0  0  0  0  2  0  0  0  0  0  0
  182.3910  178.3850  143.7380 O   0  0  0  0  0  0  0  0  0  0  0  0
  183.1730  178.8970  141.5900 N   0  0  0  0  0  0  0  0  0  0  0  0
  183.3260  178.8350  143.0200 C   0  0  0  0  0  0  0  0  0  0  0  0
  185.7470  178.8780  142.9470 O   0  0  0  0  0  0  0  0  0  0  0  0
  186.1820  177.6220  143.4170 C   0  0  0  0  0  2  0  0  0  0  0  0
  184.6200  178.9880  145.1830 C   0  0  0  0  0  2  0  0  0  0  0  0
  184.5980  179.2910  143.6720 C   0  0  2  0  0  3  0  0  0  0  0  0
  186.7680  177.7440  144.8310 C   0  0  2  0  0  3  0  0  0  0  0  0
  186.0570  178.8210  145.6580 C   0  0  0  0  0  2  0  0  0  0  0  0
  188.2790  177.9660  144.8100 C   0  0  0  0  0  2  0  0  0  0  0  0
  189.0480  176.8010  145.4230 C   0  0  0  0  0  2  0  0  0  0  0  0
  189.5910  177.1900  146.7880 C   0  0  0  0  0  2  0  0  0  0  0  0
  188.3250  178.3190  148.6330 C   0  0  0  0  0  1  0  0  0  0  0  0
  188.5310  177.0250  147.8660 C   0  0  0  0  0  2  0  0  0  0  0  0
  181.9550  178.4080  140.9490 C   0  0  0  0  0  2  0  0  0  0  0  0
  179.6090  178.7710  141.3170 O   0  0  0  0  0  1  0  0  0  0  0  0
  180.8150  179.4190  141.0540 C   0  0  2  0  0  3  0  0  0  0  0  0
  180.7000  180.2020  139.8360 N   0  0  0  0  0  1  0  0  0  0  0  0
  184.0100  178.8300  139.2990 C   0  0  0  0  0  2  0  0  0  0  0  0
  188.7800  176.6000  137.3780 C   0  0  0  0  0  3  0  0  0  0  0  0
  186.3090  177.0050  136.9300 C   0  0  0  0  0  0  0  0  0  0  0  0
  187.5270  177.8310  138.7940 C   0  0  0  0  0  0  0  0  0  0  0  0
  183.9080  177.4450  136.7610 C   0  0  0  0  0  1  0  0  0  0  0  0
  188.7560  177.8030  139.3050 N   0  0  0  0  0  0  0  0  0  0  0  0
  187.5100  177.1430  137.6140 C   0  0  0  0  0  0  0  0  0  0  0  0
  186.2640  176.3610  135.8440 O   0  0  0  0  0  0  0  0  0  0  0  0
  190.7540  176.7520  139.1020 C   0  0  0  0  0  0  0  0  0  0  0  0
  185.1800  177.5730  137.4690 N   0  0  0  0  0  0  0  0  0  0  0  0
  190.7430  177.3430  140.3190 C   0  0  0  0  0  0  0  0  0  0  0  0
  189.4910  177.0750  138.4840 C   0  0  0  0  0  0  0  0  0  0  0  0
  189.4100  178.0210  140.5780 C   0  0  0  0  0  3  0  0  0  0  0  0
  185.2350  178.2470  138.6740 C   0  0  2  0  0  3  0  0  0  0  0  0
  186.4180  178.3650  139.3500 N   0  0  0  0  0  0  0  0  0  0  0  0
  191.7300  175.9290  138.5320 O   0  0  0  0  0  0  0  0  0  0  0  0
  192.5120  176.3180  137.4140 C   0  0  0  0  0  1  0  0  0  0  0  0
  191.7900  177.3790  141.2420 O   0  0  0  0  0  0  0  0  0  0  0  0
  191.5770  177.5990  142.6270 C   0  0  0  0  0  1  0  0  0  0  0  0
  1  3  1  0  0  0  0
  3  4  1  0  0  0  0
  4  2  2  0  0  0  0
  5  6  1  0  0  0  0
  5  8  1  0  0  0  0
  6  9  1  0  0  0  0
  7 10  1  0  0  0  0
  8  4  1  6  0  0  0
  8  7  1  0  0  0  0
  9 11  1  6  0  0  0
  9 10  1  0  0  0  0
 11 12  1  0  0  0  0
 12 13  1  0  0  0  0
 13 15  1  0  0  0  0
 15 14  1  0  0  0  0
 16 18  1  0  0  0  0
 16  3  1  0  0  0  0
 18 19  1  6  0  0  0
 18 17  1  0  0  0  0
 20  1  1  0  0  0  0
 21 26  2  0  0  0  0
 21 31  1  0  0  0  0
 22 29  1  0  0  0  0
 22 26  1  0  0  0  0
 23 25  1  0  0  0  0
 23 34  2  0  0  0  0
 24 29  1  0  0  0  0
 25 32  1  0  0  0  0
 26 23  1  0  0  0  0
 27 22  2  0  0  0  0
 28 30  1  0  0  0  0
 29 33  1  0  0  0  0
 30 32  2  0  0  0  0
 30 37  1  0  0  0  0
 31 28  2  0  0  0  0
 31 25  1  0  0  0  0
 33 20  1  1  0  0  0
 33 34  1  0  0  0  0
 35 28  1  0  0  0  0
 36 35  1  0  0  0  0
 37 38  1  0  0  0  0
M  END
>  <MODEL>
3

>  <REMARK>
 VINA RESULT:      -8.0      2.410      9.233
  Name = 
  12 active torsions:
  status: ('A' for Active; 'I' for Inactive)
    1  A    between atoms: C_4  and  C_12
    2  A    between atoms: C_4  and  N_21
    3  A    between atoms: O_9  and  C_14
    4  A    between atoms: C_12  and  C_24
    5  A    between atoms: C_13  and  C_32
    6  A    between atoms: C_16  and  O_28
    7  A    between atoms: N_21  and  C_32
    8  A    between atoms: C_22  and  C_30
    9  A    between atoms: C_26  and  C_31
   10  A    between atoms: C_26  and  C_35
   11  A    between atoms: C_27  and  C_38
   12  A    between atoms: C_30  and  C_31
                            x       y       z     vdW  Elec       q    Type
                         _______ _______ _______ _____ _____    ______ ____

>  <TORSDO>
F 12

$$$$
=
 OpenBabel11042410423D

 38 41  0  0  1  0  0  0  0  0999 V2000
  188.9870  178.6950  139.0620 C   0  0  0  0  0  2  0  0  0  0  0  0
  190.8330  176.2240  141.0290 O   0  0  0  0  0  0  0  0  0  0  0  0
  189.8020  177.5300  139.3800 N   0  0  0  0  0  0  0  0  0  0  0  0
  189.9920  177.1210  140.7470 C   0  0  0  0  0  0  0  0  0  0  0  0
  190.0430  178.3280  142.8470 O   0  0  0  0  0  0  0  0  0  0  0  0
  190.3090  177.3720  143.8490 C   0  0  0  0  0  2  0  0  0  0  0  0
  188.0810  176.8430  142.3740 C   0  0  0  0  0  2  0  0  0  0  0  0
  189.2030  177.7600  141.8520 C   0  0  2  0  0  3  0  0  0  0  0  0
  189.0460  177.0840  144.6750 C   0  0  2  0  0  3  0  0  0  0  0  0
  187.7720  177.1750  143.8270 C   0  0  0  0  0  2  0  0  0  0  0  0
  188.9540  177.9720  145.9140 C   0  0  0  0  0  2  0  0  0  0  0  0
  188.6760  177.1750  147.1830 C   0  0  0  0  0  2  0  0  0  0  0  0
  187.4530  177.7280  147.8940 C   0  0  0  0  0  2  0  0  0  0  0  0
  185.3260  178.3330  146.7120 C   0  0  0  0  0  1  0  0  0  0  0  0
  186.7440  178.7660  147.0360 C   0  0  0  0  0  2  0  0  0  0  0  0
  190.6030  176.9440  138.3090 C   0  0  0  0  0  2  0  0  0  0  0  0
  191.1500  174.6090  138.1510 O   0  0  0  0  0  1  0  0  0  0  0  0
  190.1280  175.5370  137.9520 C   0  0  2  0  0  3  0  0  0  0  0  0
  189.6670  175.4760  136.5760 N   0  0  0  0  0  1  0  0  0  0  0  0
  188.4700  178.5970  137.6360 C   0  0  0  0  0  2  0  0  0  0  0  0
  182.9940  177.4690  138.0490 C   0  0  0  0  0  3  0  0  0  0  0  0
  185.0370  177.4860  136.5330 C   0  0  0  0  0  0  0  0  0  0  0  0
  185.0320  178.0140  138.8490 C   0  0  0  0  0  0  0  0  0  0  0  0
  187.1160  177.6670  135.2550 C   0  0  0  0  0  1  0  0  0  0  0  0
  184.1890  178.1040  139.8740 N   0  0  0  0  0  0  0  0  0  0  0  0
  184.3540  177.6020  137.7370 C   0  0  0  0  0  0  0  0  0  0  0  0
  184.4300  177.1210  135.4880 O   0  0  0  0  0  0  0  0  0  0  0  0
  181.9780  178.1430  140.3730 C   0  0  0  0  0  0  0  0  0  0  0  0
  186.3780  177.7890  136.5100 N   0  0  0  0  0  0  0  0  0  0  0  0
  182.6320  178.6510  141.4440 C   0  0  0  0  0  0  0  0  0  0  0  0
  182.9920  177.7950  139.4080 C   0  0  0  0  0  0  0  0  0  0  0  0
  184.1230  178.7300  141.1780 C   0  0  0  0  0  3  0  0  0  0  0  0
  187.0250  178.2190  137.6530 C   0  0  2  0  0  3  0  0  0  0  0  0
  186.3410  178.3460  138.8310 N   0  0  0  0  0  0  0  0  0  0  0  0
  180.6010  178.0200  140.1600 O   0  0  0  0  0  0  0  0  0  0  0  0
  179.8120  179.0560  139.5960 C   0  0  0  0  0  1  0  0  0  0  0  0
  182.0680  179.0430  142.6600 O   0  0  0  0  0  0  0  0  0  0  0  0
  182.7800  178.9770  143.8850 C   0  0  0  0  0  1  0  0  0  0  0  0
  1  3  1  0  0  0  0
  3  4  1  0  0  0  0
  4  2  2  0  0  0  0
  5  6  1  0  0  0  0
  6  9  1  0  0  0  0
  7 10  1  0  0  0  0
  8  4  1  6  0  0  0
  8  7  1  0  0  0  0
  8  5  1  0  0  0  0
  9 11  1  1  0  0  0
 10  9  1  0  0  0  0
 11 12  1  0  0  0  0
 12 13  1  0  0  0  0
 14 15  1  0  0  0  0
 15 13  1  0  0  0  0
 16  3  1  0  0  0  0
 18 19  1  6  0  0  0
 18 17  1  0  0  0  0
 18 16  1  0  0  0  0
 20  1  1  0  0  0  0
 21 31  1  0  0  0  0
 22 26  1  0  0  0  0
 23 25  1  0  0  0  0
 24 29  1  0  0  0  0
 25 32  1  0  0  0  0
 26 21  2  0  0  0  0
 26 23  1  0  0  0  0
 27 22  2  0  0  0  0
 28 30  1  0  0  0  0
 29 22  1  0  0  0  0
 29 33  1  0  0  0  0
 30 37  1  0  0  0  0
 31 25  1  0  0  0  0
 31 28  2  0  0  0  0
 32 30  2  0  0  0  0
 33 20  1  6  0  0  0
 33 34  1  0  0  0  0
 34 23  2  0  0  0  0
 35 28  1  0  0  0  0
 36 35  1  0  0  0  0
 37 38  1  0  0  0  0
M  END
>  <MODEL>
4

>  <REMARK>
 VINA RESULT:      -7.9      2.447      6.848
  Name = 
  12 active torsions:
  status: ('A' for Active; 'I' for Inactive)
    1  A    between atoms: C_4  and  C_12
    2  A    between atoms: C_4  and  N_21
    3  A    between atoms: O_9  and  C_14
    4  A    between atoms: C_12  and  C_24
    5  A    between atoms: C_13  and  C_32
    6  A    between atoms: C_16  and  O_28
    7  A    between atoms: N_21  and  C_32
    8  A    between atoms: C_22  and  C_30
    9  A    between atoms: C_26  and  C_31
   10  A    between atoms: C_26  and  C_35
   11  A    between atoms: C_27  and  C_38
   12  A    between atoms: C_30  and  C_31
                            x       y       z     vdW  Elec       q    Type
                         _______ _______ _______ _____ _____    ______ ____

>  <TORSDO>
F 12

$$$$
=
 OpenBabel11042410423D

 38 41  0  0  1  0  0  0  0  0999 V2000
  184.4480  178.6480  140.2030 C   0  0  0  0  0  2  0  0  0  0  0  0
  183.8550  177.7440  136.7080 O   0  0  0  0  0  0  0  0  0  0  0  0
  183.7360  178.3540  138.9660 N   0  0  0  0  0  0  0  0  0  0  0  0
  184.4380  177.8320  137.8230 C   0  0  0  0  0  0  0  0  0  0  0  0
  186.7720  178.4680  137.7070 O   0  0  0  0  0  0  0  0  0  0  0  0
  187.1020  178.5260  136.3380 C   0  0  0  0  0  2  0  0  0  0  0  0
  186.1520  176.1050  137.1490 C   0  0  0  0  0  2  0  0  0  0  0  0
  185.8690  177.3970  137.9400 C   0  0  2  0  0  3  0  0  0  0  0  0
  187.9740  177.3280  135.9360 C   0  0  2  0  0  3  0  0  0  0  0  0
  187.6140  176.0640  136.7260 C   0  0  0  0  0  2  0  0  0  0  0  0
  189.4650  177.6420  136.0390 C   0  0  0  0  0  2  0  0  0  0  0  0
  190.3020  176.4040  136.3380 C   0  0  0  0  0  2  0  0  0  0  0  0
  191.2710  176.6860  137.4740 C   0  0  0  0  0  2  0  0  0  0  0  0
  190.1150  177.2010  139.6370 C   0  0  0  0  0  1  0  0  0  0  0  0
  190.7550  176.1190  138.7870 C   0  0  0  0  0  2  0  0  0  0  0  0
  182.3590  178.8230  138.8440 C   0  0  0  0  0  2  0  0  0  0  0  0
  180.7780  177.4380  137.6790 O   0  0  0  0  0  1  0  0  0  0  0  0
  181.3580  177.6720  138.9250 C   0  0  2  0  0  3  0  0  0  0  0  0
  180.3250  177.9480  139.9080 N   0  0  0  0  0  1  0  0  0  0  0  0
  183.4870  178.6140  141.3800 C   0  0  0  0  0  2  0  0  0  0  0  0
  186.7570  178.0820  145.9020 C   0  0  0  0  0  3  0  0  0  0  0  0
  184.4380  178.6570  145.0310 C   0  0  0  0  0  0  0  0  0  0  0  0
  186.2550  177.8830  143.7110 C   0  0  0  0  0  0  0  0  0  0  0  0
  182.3200  179.2400  143.9520 C   0  0  0  0  0  1  0  0  0  0  0  0
  187.5280  177.5180  143.8400 N   0  0  0  0  0  0  0  0  0  0  0  0
  185.7460  178.2000  144.9390 C   0  0  0  0  0  0  0  0  0  0  0  0
  183.9480  178.9700  146.1520 O   0  0  0  0  0  0  0  0  0  0  0  0
  189.2570  177.5450  145.3060 C   0  0  0  0  0  0  0  0  0  0  0  0
  183.7010  178.7690  143.8750 N   0  0  0  0  0  0  0  0  0  0  0  0
  189.7850  177.3340  144.0780 C   0  0  0  0  0  0  0  0  0  0  0  0
  187.8290  177.6410  145.1210 C   0  0  0  0  0  0  0  0  0  0  0  0
  188.7060  177.3660  143.0130 C   0  0  0  0  0  3  0  0  0  0  0  0
  184.2570  178.4540  142.6500 C   0  0  2  0  0  3  0  0  0  0  0  0
  185.5520  178.0210  142.5660 N   0  0  0  0  0  0  0  0  0  0  0  0
  189.9120  177.7130  146.5300 O   0  0  0  0  0  0  0  0  0  0  0  0
  190.4080  176.6260  147.2960 C   0  0  0  0  0  1  0  0  0  0  0  0
  191.1260  177.0890  143.7760 O   0  0  0  0  0  0  0  0  0  0  0  0
  191.7070  175.7980  143.8780 C   0  0  0  0  0  1  0  0  0  0  0  0
  1 20  1  0  0  0  0
  2  4  2  0  0  0  0
  3  1  1  0  0  0  0
  4  3  1  0  0  0  0
  5  8  1  0  0  0  0
  6  5  1  0  0  0  0
  7  8  1  0  0  0  0
  8  4  1  6  0  0  0
  9 11  1  1  0  0  0
  9  6  1  0  0  0  0
  9 10  1  0  0  0  0
 10  7  1  0  0  0  0
 11 12  1  0  0  0  0
 12 13  1  0  0  0  0
 13 15  1  0  0  0  0
 15 14  1  0  0  0  0
 16 18  1  0  0  0  0
 16  3  1  0  0  0  0
 18 17  1  6  0  0  0
 18 19  1  0  0  0  0
 22 27  2  0  0  0  0
 23 25  1  0  0  0  0
 23 26  1  0  0  0  0
 25 31  1  0  0  0  0
 26 22  1  0  0  0  0
 26 21  2  0  0  0  0
 28 35  1  0  0  0  0
 29 24  1  0  0  0  0
 29 22  1  0  0  0  0
 30 28  1  0  0  0  0
 31 28  2  0  0  0  0
 31 21  1  0  0  0  0
 32 25  1  0  0  0  0
 32 30  2  0  0  0  0
 33 20  1  6  0  0  0
 33 29  1  0  0  0  0
 34 33  1  0  0  0  0
 34 23  2  0  0  0  0
 35 36  1  0  0  0  0
 37 38  1  0  0  0  0
 37 30  1  0  0  0  0
M  END
>  <MODEL>
5

>  <REMARK>
 VINA RESULT:      -7.7      1.994      6.817
  Name = 
  12 active torsions:
  status: ('A' for Active; 'I' for Inactive)
    1  A    between atoms: C_4  and  C_12
    2  A    between atoms: C_4  and  N_21
    3  A    between atoms: O_9  and  C_14
    4  A    between atoms: C_12  and  C_24
    5  A    between atoms: C_13  and  C_32
    6  A    between atoms: C_16  and  O_28
    7  A    between atoms: N_21  and  C_32
    8  A    between atoms: C_22  and  C_30
    9  A    between atoms: C_26  and  C_31
   10  A    between atoms: C_26  and  C_35
   11  A    between atoms: C_27  and  C_38
   12  A    between atoms: C_30  and  C_31
                            x       y       z     vdW  Elec       q    Type
                         _______ _______ _______ _____ _____    ______ ____

>  <TORSDO>
F 12

$$$$
=
 OpenBabel11042410423D

 38 41  0  0  1  0  0  0  0  0999 V2000
  188.6780  177.0460  139.3500 C   0  0  0  0  0  2  0  0  0  0  0  0
  188.9900  177.1220  135.7060 O   0  0  0  0  0  0  0  0  0  0  0  0
  189.2420  177.2900  138.0290 N   0  0  0  0  0  0  0  0  0  0  0  0
  188.4500  177.0800  136.8450 C   0  0  0  0  0  0  0  0  0  0  0  0
  186.7150  175.4160  137.1460 O   0  0  0  0  0  0  0  0  0  0  0  0
  186.5540  174.7790  135.8990 C   0  0  0  0  0  2  0  0  0  0  0  0
  186.1740  177.4750  135.8240 C   0  0  0  0  0  2  0  0  0  0  0  0
  186.9800  176.7980  136.9500 C   0  0  2  0  0  3  0  0  0  0  0  0
  185.2480  175.2240  135.2250 C   0  0  2  0  0  3  0  0  0  0  0  0
  184.9040  176.6830  135.5450 C   0  0  0  0  0  2  0  0  0  0  0  0
  184.0830  174.2930  135.5570 C   0  0  0  0  0  2  0  0  0  0  0  0
  184.5330  172.8550  135.7810 C   0  0  0  0  0  2  0  0  0  0  0  0
  183.9690  172.3250  137.0880 C   0  0  0  0  0  2  0  0  0  0  0  0
  183.2780  170.5510  135.4580 C   0  0  0  0  0  1  0  0  0  0  0  0
  183.0690  171.1220  136.8480 C   0  0  0  0  0  2  0  0  0  0  0  0
  190.6810  177.5160  137.9320 C   0  0  0  0  0  2  0  0  0  0  0  0
  192.8440  176.6660  138.5400 O   0  0  0  0  0  1  0  0  0  0  0  0
  191.4770  176.4020  138.6090 C   0  0  2  0  0  3  0  0  0  0  0  0
  191.1900  175.1140  138.0020 N   0  0  0  0  0  1  0  0  0  0  0  0
  188.3680  178.3660  140.0370 C   0  0  0  0  0  2  0  0  0  0  0  0
  187.0550  177.4910  145.4150 C   0  0  0  0  0  3  0  0  0  0  0  0
  186.1870  178.1000  143.1030 C   0  0  0  0  0  0  0  0  0  0  0  0
  188.4210  177.4810  143.6200 C   0  0  0  0  0  0  0  0  0  0  0  0
  185.6070  178.7390  140.8140 C   0  0  0  0  0  1  0  0  0  0  0  0
  189.1670  177.1280  144.6640 N   0  0  0  0  0  0  0  0  0  0  0  0
  187.1320  177.6770  144.0290 C   0  0  0  0  0  0  0  0  0  0  0  0
  184.9920  178.3030  143.4580 O   0  0  0  0  0  0  0  0  0  0  0  0
  189.1540  177.0550  146.9290 C   0  0  0  0  0  0  0  0  0  0  0  0
  186.5870  178.3020  141.8040 N   0  0  0  0  0  0  0  0  0  0  0  0
  190.4470  176.9640  146.5400 C   0  0  0  0  0  0  0  0  0  0  0  0
  188.3730  177.1420  145.7190 C   0  0  0  0  0  0  0  0  0  0  0  0
  190.5660  177.0720  145.0320 C   0  0  0  0  0  3  0  0  0  0  0  0
  187.9050  178.1080  141.4330 C   0  0  2  0  0  3  0  0  0  0  0  0
  188.8330  177.7070  142.3540 N   0  0  0  0  0  0  0  0  0  0  0  0
  188.6270  177.1250  148.2220 O   0  0  0  0  0  0  0  0  0  0  0  0
  188.3220  178.3520  148.8660 C   0  0  0  0  0  1  0  0  0  0  0  0
  191.5570  176.7720  147.3650 O   0  0  0  0  0  0  0  0  0  0  0  0
  192.3910  175.6280  147.2640 C   0  0  0  0  0  1  0  0  0  0  0  0
  1 20  1  0  0  0  0
  2  4  2  0  0  0  0
  3  1  1  0  0  0  0
  4  3  1  0  0  0  0
  6  5  1  0  0  0  0
  7  8  1  0  0  0  0
  8  4  1  6  0  0  0
  8  5  1  0  0  0  0
  9 10  1  0  0  0  0
  9 11  1  1  0  0  0
  9  6  1  0  0  0  0
 10  7  1  0  0  0  0
 11 12  1  0  0  0  0
 12 13  1  0  0  0  0
 14 15  1  0  0  0  0
 15 13  1  0  0  0  0
 16  3  1  0  0  0  0
 16 18  1  0  0  0  0
 17 18  1  0  0  0  0
 18 19  1  6  0  0  0
 21 31  1  0  0  0  0
 22 27  2  0  0  0  0
 22 26  1  0  0  0  0
 23 26  1  0  0  0  0
 23 25  1  0  0  0  0
 24 29  1  0  0  0  0
 25 32  1  0  0  0  0
 25 31  1  0  0  0  0
 26 21  2  0  0  0  0
 28 35  1  0  0  0  0
 29 22  1  0  0  0  0
 30 28  1  0  0  0  0
 30 37  1  0  0  0  0
 31 28  2  0  0  0  0
 32 30  2  0  0  0  0
 33 20  1  1  0  0  0
 33 29  1  0  0  0  0
 33 34  1  0  0  0  0
 34 23  2  0  0  0  0
 35 36  1  0  0  0  0
 38 37  1  0  0  0  0
M  END
>  <MODEL>
6

>  <REMARK>
 VINA RESULT:      -7.6      2.727      6.385
  Name = 
  12 active torsions:
  status: ('A' for Active; 'I' for Inactive)
    1  A    between atoms: C_4  and  C_12
    2  A    between atoms: C_4  and  N_21
    3  A    between atoms: O_9  and  C_14
    4  A    between atoms: C_12  and  C_24
    5  A    between atoms: C_13  and  C_32
    6  A    between atoms: C_16  and  O_28
    7  A    between atoms: N_21  and  C_32
    8  A    between atoms: C_22  and  C_30
    9  A    between atoms: C_26  and  C_31
   10  A    between atoms: C_26  and  C_35
   11  A    between atoms: C_27  and  C_38
   12  A    between atoms: C_30  and  C_31
                            x       y       z     vdW  Elec       q    Type
                         _______ _______ _______ _____ _____    ______ ____

>  <TORSDO>
F 12

$$$$
=
 OpenBabel11042410423D

 38 41  0  0  1  0  0  0  0  0999 V2000
  190.3450  176.1450  139.3840 C   0  0  0  0  0  2  0  0  0  0  0  0
  190.5510  176.3910  135.7400 O   0  0  0  0  0  0  0  0  0  0  0  0
  190.9160  176.1800  138.0440 N   0  0  0  0  0  0  0  0  0  0  0  0
  190.1010  176.5310  136.9100 C   0  0  0  0  0  0  0  0  0  0  0  0
  187.7450  176.0120  137.1240 O   0  0  0  0  0  0  0  0  0  0  0  0
  187.2690  175.7770  135.8180 C   0  0  0  0  0  2  0  0  0  0  0  0
  188.3940  178.2340  136.1630 C   0  0  0  0  0  2  0  0  0  0  0  0
  188.7090  177.0550  137.1040 C   0  0  2  0  0  3  0  0  0  0  0  0
  186.4060  176.9510  135.3330 C   0  0  2  0  0  3  0  0  0  0  0  0
  186.8970  178.2930  135.8870 C   0  0  0  0  0  2  0  0  0  0  0  0
  184.9230  176.7360  135.6300 C   0  0  0  0  0  2  0  0  0  0  0  0
  184.5450  177.1590  137.0440 C   0  0  0  0  0  2  0  0  0  0  0  0
  183.0840  177.5700  137.0970 C   0  0  0  0  0  2  0  0  0  0  0  0
  183.9760  178.9870  138.9630 C   0  0  0  0  0  1  0  0  0  0  0  0
  182.7590  178.2680  138.4100 C   0  0  0  0  0  2  0  0  0  0  0  0
  192.2530  175.6240  137.8570 C   0  0  0  0  0  2  0  0  0  0  0  0
  194.3230  176.4850  136.9930 O   0  0  0  0  0  1  0  0  0  0  0  0
  193.3320  176.7010  137.9500 C   0  0  2  0  0  3  0  0  0  0  0  0
  193.9250  176.7320  139.2760 N   0  0  0  0  0  1  0  0  0  0  0  0
  190.2370  177.5550  139.9430 C   0  0  0  0  0  2  0  0  0  0  0  0
  187.8990  177.5130  145.0370 C   0  0  0  0  0  3  0  0  0  0  0  0
  187.5260  177.8750  142.5470 C   0  0  0  0  0  0  0  0  0  0  0  0
  189.5560  177.1540  143.5490 C   0  0  0  0  0  0  0  0  0  0  0  0
  187.4350  178.2470  140.1300 C   0  0  0  0  0  1  0  0  0  0  0  0
  190.0630  176.8860  144.7490 N   0  0  0  0  0  0  0  0  0  0  0  0
  188.2420  177.5050  143.6780 C   0  0  0  0  0  0  0  0  0  0  0  0
  186.3150  178.2180  142.6410 O   0  0  0  0  0  0  0  0  0  0  0  0
  189.6370  177.1170  146.9630 C   0  0  0  0  0  0  0  0  0  0  0  0
  188.1720  177.8690  141.3330 N   0  0  0  0  0  0  0  0  0  0  0  0
  190.9620  176.8720  146.8410 C   0  0  0  0  0  0  0  0  0  0  0  0
  189.0980  177.1030  145.6250 C   0  0  0  0  0  0  0  0  0  0  0  0
  191.3600  176.7680  145.3810 C   0  0  0  0  0  3  0  0  0  0  0  0
  189.5070  177.5230  141.2460 C   0  0  2  0  0  3  0  0  0  0  0  0
  190.2090  177.1760  142.3670 N   0  0  0  0  0  0  0  0  0  0  0  0
  188.8960  177.4010  148.1150 O   0  0  0  0  0  0  0  0  0  0  0  0
  189.0390  178.6090  148.8460 C   0  0  0  0  0  1  0  0  0  0  0  0
  191.8810  176.7040  147.8800 O   0  0  0  0  0  0  0  0  0  0  0  0
  192.8040  175.6280  147.9120 C   0  0  0  0  0  1  0  0  0  0  0  0
  1 20  1  0  0  0  0
  2  4  2  0  0  0  0
  3  1  1  0  0  0  0
  4  3  1  0  0  0  0
  6  5  1  0  0  0  0
  7  8  1  0  0  0  0
  8  4  1  6  0  0  0
  8  5  1  0  0  0  0
  9 11  1  1  0  0  0
  9  6  1  0  0  0  0
  9 10  1  0  0  0  0
 10  7  1  0  0  0  0
 11 12  1  0  0  0  0
 12 13  1  0  0  0  0
 13 15  1  0  0  0  0
 15 14  1  0  0  0  0
 16 18  1  0  0  0  0
 16  3  1  0  0  0  0
 18 17  1  6  0  0  0
 18 19  1  0  0  0  0
 21 31  1  0  0  0  0
 22 27  2  0  0  0  0
 22 26  1  0  0  0  0
 23 26  1  0  0  0  0
 23 25  1  0  0  0  0
 24 29  1  0  0  0  0
 25 32  1  0  0  0  0
 25 31  1  0  0  0  0
 26 21  2  0  0  0  0
 28 35  1  0  0  0  0
 29 22  1  0  0  0  0
 30 28  1  0  0  0  0
 30 37  1  0  0  0  0
 31 28  2  0  0  0  0
 32 30  2  0  0  0  0
 33 20  1  1  0  0  0
 33 29  1  0  0  0  0
 33 34  1  0  0  0  0
 34 23  2  0  0  0  0
 35 36  1  0  0  0  0
 37 38  1  0  0  0  0
M  END
>  <MODEL>
7

>  <REMARK>
 VINA RESULT:      -7.6      2.917      6.491
  Name = 
  12 active torsions:
  status: ('A' for Active; 'I' for Inactive)
    1  A    between atoms: C_4  and  C_12
    2  A    between atoms: C_4  and  N_21
    3  A    between atoms: O_9  and  C_14
    4  A    between atoms: C_12  and  C_24
    5  A    between atoms: C_13  and  C_32
    6  A    between atoms: C_16  and  O_28
    7  A    between atoms: N_21  and  C_32
    8  A    between atoms: C_22  and  C_30
    9  A    between atoms: C_26  and  C_31
   10  A    between atoms: C_26  and  C_35
   11  A    between atoms: C_27  and  C_38
   12  A    between atoms: C_30  and  C_31
                            x       y       z     vdW  Elec       q    Type
                         _______ _______ _______ _____ _____    ______ ____

>  <TORSDO>
F 12

$$$$
=
 OpenBabel11042410423D

 38 41  0  0  1  0  0  0  0  0999 V2000
  185.0570  178.5460  138.3870 C   0  0  0  0  0  2  0  0  0  0  0  0
  182.4420  176.3800  139.7470 O   0  0  0  0  0  0  0  0  0  0  0  0
  184.0840  177.4650  138.4790 N   0  0  0  0  0  0  0  0  0  0  0  0
  183.1590  177.4040  139.5800 C   0  0  0  0  0  0  0  0  0  0  0  0
  184.2910  178.8670  141.1430 O   0  0  0  0  0  0  0  0  0  0  0  0
  184.4530  178.1300  142.3330 C   0  0  0  0  0  2  0  0  0  0  0  0
  181.8640  178.3700  141.5200 C   0  0  0  0  0  2  0  0  0  0  0  0
  183.0430  178.5470  140.5440 C   0  0  2  0  0  3  0  0  0  0  0  0
  183.4840  178.6250  143.4170 C   0  0  2  0  0  3  0  0  0  0  0  0
  182.1540  179.1020  142.8230 C   0  0  0  0  0  2  0  0  0  0  0  0
  184.1130  179.6970  144.3050 C   0  0  0  0  0  2  0  0  0  0  0  0
  185.3960  179.2190  144.9740 C   0  0  0  0  0  2  0  0  0  0  0  0
  185.0800  178.5510  146.3020 C   0  0  0  0  0  2  0  0  0  0  0  0
  187.1260  177.9410  147.6150 C   0  0  0  0  0  1  0  0  0  0  0  0
  186.0560  178.9920  147.3820 C   0  0  0  0  0  2  0  0  0  0  0  0
  184.2330  176.3340  137.5670 C   0  0  0  0  0  2  0  0  0  0  0  0
  183.5540  175.7190  135.3460 O   0  0  0  0  0  1  0  0  0  0  0  0
  183.1040  176.2820  136.5400 C   0  0  2  0  0  3  0  0  0  0  0  0
  182.5650  177.6070  136.2900 N   0  0  0  0  0  1  0  0  0  0  0  0
  186.0930  178.2280  137.3220 C   0  0  0  0  0  2  0  0  0  0  0  0
  190.8180  177.1160  140.1250 C   0  0  0  0  0  3  0  0  0  0  0  0
  189.7270  177.3590  137.8400 C   0  0  0  0  0  0  0  0  0  0  0  0
  188.6710  177.7820  139.9250 C   0  0  0  0  0  0  0  0  0  0  0  0
  188.4420  177.5690  135.7680 C   0  0  0  0  0  1  0  0  0  0  0  0
  188.9360  177.7500  141.2290 N   0  0  0  0  0  0  0  0  0  0  0  0
  189.7930  177.4370  139.2250 C   0  0  0  0  0  0  0  0  0  0  0  0
  190.7450  177.0280  137.1710 O   0  0  0  0  0  0  0  0  0  0  0  0
  190.4710  177.0120  142.7250 C   0  0  0  0  0  0  0  0  0  0  0  0
  188.5300  177.6380  137.2250 N   0  0  0  0  0  0  0  0  0  0  0  0
  189.3320  177.2510  143.4160 C   0  0  0  0  0  0  0  0  0  0  0  0
  190.1900  177.3510  141.3510 C   0  0  0  0  0  0  0  0  0  0  0  0
  188.2170  177.6880  142.4840 C   0  0  0  0  0  3  0  0  0  0  0  0
  187.4130  177.9670  137.9700 C   0  0  2  0  0  3  0  0  0  0  0  0
  187.4820  178.0260  139.3340 N   0  0  0  0  0  0  0  0  0  0  0  0
  191.6810  176.4800  143.1800 O   0  0  0  0  0  0  0  0  0  0  0  0
  191.7590  175.3020  143.9670 C   0  0  0  0  0  1  0  0  0  0  0  0
  189.1550  177.1510  144.7970 O   0  0  0  0  0  0  0  0  0  0  0  0
  189.8670  177.9640  145.7170 C   0  0  0  0  0  1  0  0  0  0  0  0
  1  3  1  0  0  0  0
  3  4  1  0  0  0  0
  4  2  2  0  0  0  0
  5  6  1  0  0  0  0
  6  9  1  0  0  0  0
  7 10  1  0  0  0  0
  8  4  1  1  0  0  0
  8  5  1  0  0  0  0
  8  7  1  0  0  0  0
  9 11  1  6  0  0  0
 10  9  1  0  0  0  0
 11 12  1  0  0  0  0
 12 13  1  0  0  0  0
 13 15  1  0  0  0  0
 15 14  1  0  0  0  0
 16  3  1  0  0  0  0
 18 17  1  6  0  0  0
 18 16  1  0  0  0  0
 19 18  1  0  0  0  0
 20  1  1  0  0  0  0
 21 31  1  0  0  0  0
 22 26  1  0  0  0  0
 23 25  1  0  0  0  0
 24 29  1  0  0  0  0
 25 31  1  0  0  0  0
 25 32  1  0  0  0  0
 26 23  1  0  0  0  0
 26 21  2  0  0  0  0
 27 22  2  0  0  0  0
 28 35  1  0  0  0  0
 28 30  1  0  0  0  0
 29 22  1  0  0  0  0
 29 33  1  0  0  0  0
 30 37  1  0  0  0  0
 31 28  2  0  0  0  0
 32 30  2  0  0  0  0
 33 20  1  1  0  0  0
 33 34  1  0  0  0  0
 34 23  2  0  0  0  0
 35 36  1  0  0  0  0
 37 38  1  0  0  0  0
M  END
>  <MODEL>
8

>  <REMARK>
 VINA RESULT:      -7.5      2.447      9.069
  Name = 
  12 active torsions:
  status: ('A' for Active; 'I' for Inactive)
    1  A    between atoms: C_4  and  C_12
    2  A    between atoms: C_4  and  N_21
    3  A    between atoms: O_9  and  C_14
    4  A    between atoms: C_12  and  C_24
    5  A    between atoms: C_13  and  C_32
    6  A    between atoms: C_16  and  O_28
    7  A    between atoms: N_21  and  C_32
    8  A    between atoms: C_22  and  C_30
    9  A    between atoms: C_26  and  C_31
   10  A    between atoms: C_26  and  C_35
   11  A    between atoms: C_27  and  C_38
   12  A    between atoms: C_30  and  C_31
                            x       y       z     vdW  Elec       q    Type
                         _______ _______ _______ _____ _____    ______ ____

>  <TORSDO>
F 12

$$$$
=
 OpenBabel11042410423D

 38 41  0  0  1  0  0  0  0  0999 V2000
  188.0410  177.4220  142.3090 C   0  0  0  0  0  2  0  0  0  0  0  0
  189.0120  178.2450  145.7380 O   0  0  0  0  0  0  0  0  0  0  0  0
  188.8840  177.7110  143.4610 N   0  0  0  0  0  0  0  0  0  0  0  0
  188.3110  177.8260  144.7770 C   0  0  0  0  0  0  0  0  0  0  0  0
  186.0480  177.7920  143.9130 O   0  0  0  0  0  0  0  0  0  0  0  0
  185.5430  179.0990  144.0690 C   0  0  0  0  0  2  0  0  0  0  0  0
  186.3750  177.9470  146.3930 C   0  0  0  0  0  2  0  0  0  0  0  0
  186.8760  177.4620  145.0190 C   0  0  2  0  0  3  0  0  0  0  0  0
  184.5210  179.1550  145.2140 C   0  0  2  0  0  3  0  0  0  0  0  0
  184.8710  178.1810  146.3450 C   0  0  0  0  0  2  0  0  0  0  0  0
  183.0920  178.9430  144.7200 C   0  0  0  0  0  2  0  0  0  0  0  0
  182.9370  179.2480  143.2350 C   0  0  0  0  0  2  0  0  0  0  0  0
  181.5040  179.0060  142.7940 C   0  0  0  0  0  2  0  0  0  0  0  0
  179.3110  179.3890  143.9450 C   0  0  0  0  0  1  0  0  0  0  0  0
  180.6240  178.6300  143.9770 C   0  0  0  0  0  2  0  0  0  0  0  0
  190.2660  178.1110  143.2130 C   0  0  0  0  0  2  0  0  0  0  0  0
  190.7020  175.9240  142.3160 O   0  0  0  0  0  1  0  0  0  0  0  0
  191.2050  176.9070  143.1670 C   0  0  2  0  0  3  0  0  0  0  0  0
  191.4090  176.3540  144.4950 N   0  0  0  0  0  1  0  0  0  0  0  0
  188.0510  178.5990  141.3460 C   0  0  0  0  0  2  0  0  0  0  0  0
  189.9540  176.6370  136.4530 C   0  0  0  0  0  3  0  0  0  0  0  0
  187.9320  177.4770  137.7470 C   0  0  0  0  0  0  0  0  0  0  0  0
  190.1640  177.4210  138.5580 C   0  0  0  0  0  0  0  0  0  0  0  0
  186.1290  178.2420  139.2140 C   0  0  0  0  0  1  0  0  0  0  0  0
  191.3830  177.0590  138.1680 N   0  0  0  0  0  0  0  0  0  0  0  0
  189.2790  177.2110  137.5380 C   0  0  0  0  0  0  0  0  0  0  0  0
  187.0920  177.2780  136.8250 O   0  0  0  0  0  0  0  0  0  0  0  0
  192.4760  175.9140  136.5450 C   0  0  0  0  0  0  0  0  0  0  0  0
  187.5410  177.9490  138.9780 N   0  0  0  0  0  0  0  0  0  0  0  0
  193.3280  176.0250  137.5910 C   0  0  0  0  0  0  0  0  0  0  0  0
  191.2640  176.5910  136.9380 C   0  0  0  0  0  0  0  0  0  0  0  0
  192.6600  176.7230  138.7600 C   0  0  0  0  0  3  0  0  0  0  0  0
  188.4640  178.1320  139.9890 C   0  0  2  0  0  3  0  0  0  0  0  0
  189.7870  177.8520  139.7810 N   0  0  0  0  0  0  0  0  0  0  0  0
  192.6510  175.2360  135.3350 O   0  0  0  0  0  0  0  0  0  0  0  0
  192.4890  173.8320  135.2060 C   0  0  0  0  0  1  0  0  0  0  0  0
  194.6570  175.5970  137.6360 O   0  0  0  0  0  0  0  0  0  0  0  0
  195.0410  174.3670  138.2300 C   0  0  0  0  0  1  0  0  0  0  0  0
  1  3  1  0  0  0  0
  3  4  1  0  0  0  0
  4  2  2  0  0  0  0
  5  6  1  0  0  0  0
  5  8  1  0  0  0  0
  6  9  1  0  0  0  0
  8  4  1  6  0  0  0
  8  7  1  0  0  0  0
  9 11  1  6  0  0  0
  9 10  1  0  0  0  0
 10  7  1  0  0  0  0
 12 11  1  0  0  0  0
 13 12  1  0  0  0  0
 13 15  1  0  0  0  0
 14 15  1  0  0  0  0
 16  3  1  0  0  0  0
 18 17  1  6  0  0  0
 18 16  1  0  0  0  0
 18 19  1  0  0  0  0
 20  1  1  0  0  0  0
 21 31  1  0  0  0  0
 21 26  2  0  0  0  0
 22 29  1  0  0  0  0
 23 34  2  0  0  0  0
 25 23  1  0  0  0  0
 25 32  1  0  0  0  0
 26 22  1  0  0  0  0
 26 23  1  0  0  0  0
 27 22  2  0  0  0  0
 28 31  2  0  0  0  0
 28 30  1  0  0  0  0
 29 24  1  0  0  0  0
 29 33  1  0  0  0  0
 30 37  1  0  0  0  0
 30 32  2  0  0  0  0
 31 25  1  0  0  0  0
 33 20  1  1  0  0  0
 34 33  1  0  0  0  0
 35 28  1  0  0  0  0
 36 35  1  0  0  0  0
 37 38  1  0  0  0  0
M  END
>  <MODEL>
9

>  <REMARK>
 VINA RESULT:      -7.5      2.552      8.661
  Name = 
  12 active torsions:
  status: ('A' for Active; 'I' for Inactive)
    1  A    between atoms: C_4  and  C_12
    2  A    between atoms: C_4  and  N_21
    3  A    between atoms: O_9  and  C_14
    4  A    between atoms: C_12  and  C_24
    5  A    between atoms: C_13  and  C_32
    6  A    between atoms: C_16  and  O_28
    7  A    between atoms: N_21  and  C_32
    8  A    between atoms: C_22  and  C_30
    9  A    between atoms: C_26  and  C_31
   10  A    between atoms: C_26  and  C_35
   11  A    between atoms: C_27  and  C_38
   12  A    between atoms: C_30  and  C_31
                            x       y       z     vdW  Elec       q    Type
                         _______ _______ _______ _____ _____    ______ ____

>  <TORSDO>
F 12

$$$$
