=
 OpenBabel11042412263D

 26 29  0  0  1  0  0  0  0  0999 V2000
  189.9400  178.0360  143.7840 C   0  0  0  0  0  2  0  0  0  0  0  0
  188.8980  177.1720  143.1090 C   0  0  1  0  0  3  0  0  0  0  0  0
  187.5320  177.5080  143.6570 C   0  0  0  0  0  0  0  0  0  0  0  0
  188.0900  177.1410  146.1140 C   0  0  0  0  0  3  0  0  0  0  0  0
  191.7360  177.7680  145.3010 O   0  0  0  0  0  1  0  0  0  0  0  0
  189.6780  178.0980  139.0040 C   0  0  0  0  0  2  0  0  0  0  0  0
  186.9100  178.4390  141.4730 C   0  0  0  0  0  3  0  0  0  0  0  0
  188.0530  178.0760  140.9060 C   0  0  0  0  0  0  0  0  0  0  0  0
  189.0020  177.2850  141.6490 N   0  0  0  0  0  0  0  0  0  0  0  0
  186.5960  178.1020  142.8740 C   0  0  0  0  0  0  0  0  0  0  0  0
  190.0740  177.4280  147.3110 O   0  0  0  0  0  0  0  0  0  0  0  0
  189.5560  177.3210  146.1660 C   0  0  0  0  0  0  0  0  0  0  0  0
  187.2430  177.2240  145.0800 C   0  0  0  0  0  3  0  0  0  0  0  0
  188.2430  178.3510  139.4440 C   0  0  0  0  0  2  0  0  0  0  0  0
  190.2280  176.7760  141.0250 C   0  0  0  0  0  2  0  0  0  0  0  0
  190.1280  176.7370  139.5010 C   0  0  2  0  0  3  0  0  0  0  0  0
  190.4730  177.2700  144.9720 C   0  0  1  0  0  3  0  0  0  0  0  0
  185.2380  178.4630  143.3560 C   0  0  0  0  0  0  0  0  0  0  0  0
  181.7840  178.8070  142.0110 N   0  0  0  0  0  1  0  0  0  0  0  0
  183.6950  179.0270  145.1340 C   0  0  0  0  0  3  0  0  0  0  0  0
  184.1600  178.4790  142.4590 C   0  0  0  0  0  3  0  0  0  0  0  0
  182.6730  179.0490  144.2380 N   0  0  0  0  0  0  0  0  0  0  0  0
  182.8780  178.7810  142.9210 C   0  0  0  0  0  0  0  0  0  0  0  0
  184.9920  178.7280  144.7110 C   0  0  0  0  0  3  0  0  0  0  0  0
  191.4820  176.4030  138.9020 C   0  0  0  0  0  2  0  0  0  0  0  0
  191.4040  175.1550  138.1610 N   0  0  0  0  0  1  0  0  0  0  0  0
  1 17  1  0  0  0  0
  2  3  1  0  0  0  0
  2  1  1  1  0  0  0
  3 13  1  0  0  0  0
  4 12  1  0  0  0  0
  6 14  1  0  0  0  0
  6 16  1  0  0  0  0
  7 10  1  0  0  0  0
  8  7  2  0  0  0  0
  8  9  1  0  0  0  0
  9  2  1  0  0  0  0
 10 18  1  0  0  0  0
 10  3  2  0  0  0  0
 12 11  2  0  0  0  0
 13  4  2  0  0  0  0
 14  8  1  0  0  0  0
 15  9  1  0  0  0  0
 16 25  1  6  0  0  0
 16 15  1  0  0  0  0
 17  5  1  1  0  0  0
 17 12  1  0  0  0  0
 18 24  1  0  0  0  0
 19 23  1  0  0  0  0
 21 23  1  0  0  0  0
 21 18  2  0  0  0  0
 22 20  1  0  0  0  0
 23 22  2  0  0  0  0
 24 20  2  0  0  0  0
 26 25  1  0  0  0  0
M  END
>  <MODEL>
1

>  <REMARK>
 VINA RESULT:     -10.2      0.000      0.000
  Name = 
  2 active torsions:
  status: ('A' for Active; 'I' for Inactive)
    1  A    between atoms: C_1  and  C_18
    2  A    between atoms: C_16  and  C_25
                            x       y       z     vdW  Elec       q    Type
                         _______ _______ _______ _____ _____    ______ ____

>  <TORSDO>
F 2

$$$$
=
 OpenBabel11042412263D

 26 29  0  0  1  0  0  0  0  0999 V2000
  187.1910  178.7480  141.4760 C   0  0  0  0  0  2  0  0  0  0  0  0
  186.6390  177.7090  142.4250 C   0  0  1  0  0  3  0  0  0  0  0  0
  187.6370  177.4540  143.5300 C   0  0  0  0  0  0  0  0  0  0  0  0
  189.6140  176.8840  142.0300 C   0  0  0  0  0  3  0  0  0  0  0  0
  187.9730  178.8580  139.2450 O   0  0  0  0  0  1  0  0  0  0  0  0
  182.9200  179.5390  143.4870 C   0  0  0  0  0  2  0  0  0  0  0  0
  186.0860  178.4750  145.1350 C   0  0  0  0  0  3  0  0  0  0  0  0
  185.1290  178.6310  144.2280 C   0  0  0  0  0  0  0  0  0  0  0  0
  185.3070  178.1000  142.9000 N   0  0  0  0  0  0  0  0  0  0  0  0
  187.3640  177.8150  144.8100 C   0  0  0  0  0  0  0  0  0  0  0  0
  190.2030  177.6260  139.8970 O   0  0  0  0  0  0  0  0  0  0  0  0
  189.2810  177.5470  140.7510 C   0  0  0  0  0  0  0  0  0  0  0  0
  188.9430  176.8470  143.1880 C   0  0  0  0  0  3  0  0  0  0  0  0
  183.8150  179.2020  144.6710 C   0  0  0  0  0  2  0  0  0  0  0  0
  184.2330  178.1600  141.9030 C   0  0  0  0  0  2  0  0  0  0  0  0
  182.8590  178.3520  142.5430 C   0  0  2  0  0  3  0  0  0  0  0  0
  187.9050  178.0210  140.3610 C   0  0  1  0  0  3  0  0  0  0  0  0
  188.3060  177.5970  145.9380 C   0  0  0  0  0  0  0  0  0  0  0  0
  191.8680  176.6600  146.4750 N   0  0  0  0  0  1  0  0  0  0  0  0
  188.8410  177.6440  148.2980 C   0  0  0  0  0  3  0  0  0  0  0  0
  189.6310  177.2200  145.6770 C   0  0  0  0  0  3  0  0  0  0  0  0
  190.1150  177.2640  148.0150 N   0  0  0  0  0  0  0  0  0  0  0  0
  190.5250  177.0510  146.7360 C   0  0  0  0  0  0  0  0  0  0  0  0
  187.9170  177.8230  147.2660 C   0  0  0  0  0  3  0  0  0  0  0  0
  181.8190  178.6130  141.4690 C   0  0  0  0  0  2  0  0  0  0  0  0
  180.7070  179.3650  142.0260 N   0  0  0  0  0  1  0  0  0  0  0  0
  2  1  1  6  0  0  0
  2  9  1  0  0  0  0
  2  3  1  0  0  0  0
  3 10  2  0  0  0  0
  4 13  2  0  0  0  0
  6 14  1  0  0  0  0
  8 14  1  0  0  0  0
  8  7  2  0  0  0  0
  9  8  1  0  0  0  0
 10  7  1  0  0  0  0
 10 18  1  0  0  0  0
 11 12  2  0  0  0  0
 12  4  1  0  0  0  0
 13  3  1  0  0  0  0
 15 16  1  0  0  0  0
 15  9  1  0  0  0  0
 16 25  1  6  0  0  0
 16  6  1  0  0  0  0
 17  5  1  6  0  0  0
 17 12  1  0  0  0  0
 17  1  1  0  0  0  0
 18 24  1  0  0  0  0
 19 23  1  0  0  0  0
 21 18  2  0  0  0  0
 21 23  1  0  0  0  0
 22 20  1  0  0  0  0
 23 22  2  0  0  0  0
 24 20  2  0  0  0  0
 25 26  1  0  0  0  0
M  END
>  <MODEL>
2

>  <REMARK>
 VINA RESULT:     -10.0      2.826      6.572
  Name = 
  2 active torsions:
  status: ('A' for Active; 'I' for Inactive)
    1  A    between atoms: C_1  and  C_18
    2  A    between atoms: C_16  and  C_25
                            x       y       z     vdW  Elec       q    Type
                         _______ _______ _______ _____ _____    ______ ____

>  <TORSDO>
F 2

$$$$
=
 OpenBabel11042412263D

 26 29  0  0  1  0  0  0  0  0999 V2000
  188.8960  176.6290  142.8410 C   0  0  0  0  0  2  0  0  0  0  0  0
  188.3760  177.8890  143.4980 C   0  0  1  0  0  3  0  0  0  0  0  0
  187.0150  178.2260  142.9370 C   0  0  0  0  0  0  0  0  0  0  0  0
  187.6950  178.2590  140.4840 C   0  0  0  0  0  3  0  0  0  0  0  0
  190.6170  176.0060  141.3420 O   0  0  0  0  0  1  0  0  0  0  0  0
  188.6060  176.7540  147.6180 C   0  0  0  0  0  2  0  0  0  0  0  0
  186.0160  177.7210  145.1210 C   0  0  0  0  0  3  0  0  0  0  0  0
  187.1930  177.5130  145.6980 C   0  0  0  0  0  0  0  0  0  0  0  0
  188.4060  177.7580  144.9590 N   0  0  0  0  0  0  0  0  0  0  0  0
  185.9050  178.1490  143.7150 C   0  0  0  0  0  0  0  0  0  0  0  0
  189.3200  177.0610  139.3110 O   0  0  0  0  0  0  0  0  0  0  0  0
  188.9060  177.4110  140.4490 C   0  0  0  0  0  0  0  0  0  0  0  0
  186.9020  178.5950  141.5090 C   0  0  0  0  0  3  0  0  0  0  0  0
  187.2220  177.1990  147.1640 C   0  0  0  0  0  2  0  0  0  0  0  0
  189.7240  177.6400  145.5930 C   0  0  0  0  0  2  0  0  0  0  0  0
  189.6450  177.7390  147.1150 C   0  0  2  0  0  3  0  0  0  0  0  0
  189.7330  177.0410  141.6530 C   0  0  1  0  0  3  0  0  0  0  0  0
  184.5390  178.4620  143.2200 C   0  0  0  0  0  0  0  0  0  0  0  0
  182.5660  178.1910  140.0760 N   0  0  0  0  0  1  0  0  0  0  0  0
  182.2660  179.2090  143.5870 C   0  0  0  0  0  3  0  0  0  0  0  0
  184.2030  178.1940  141.8860 C   0  0  0  0  0  3  0  0  0  0  0  0
  181.9740  178.9530  142.2840 N   0  0  0  0  0  0  0  0  0  0  0  0
  182.9080  178.4530  141.4320 C   0  0  0  0  0  0  0  0  0  0  0  0
  183.5500  178.9620  144.0790 C   0  0  0  0  0  3  0  0  0  0  0  0
  190.9930  177.4070  147.7270 C   0  0  0  0  0  2  0  0  0  0  0  0
  191.8300  176.7310  146.7500 N   0  0  0  0  0  1  0  0  0  0  0  0
  2  1  1  6  0  0  0
  2  9  1  0  0  0  0
  3  2  1  0  0  0  0
  3 10  2  0  0  0  0
  4 13  2  0  0  0  0
  7  8  2  0  0  0  0
  8 14  1  0  0  0  0
  9 15  1  0  0  0  0
  9  8  1  0  0  0  0
 10  7  1  0  0  0  0
 11 12  2  0  0  0  0
 12  4  1  0  0  0  0
 12 17  1  0  0  0  0
 13  3  1  0  0  0  0
 14  6  1  0  0  0  0
 15 16  1  0  0  0  0
 16  6  1  0  0  0  0
 16 25  1  1  0  0  0
 17  5  1  6  0  0  0
 17  1  1  0  0  0  0
 18 10  1  0  0  0  0
 18 24  1  0  0  0  0
 19 23  1  0  0  0  0
 20 24  2  0  0  0  0
 21 18  2  0  0  0  0
 22 20  1  0  0  0  0
 23 21  1  0  0  0  0
 23 22  2  0  0  0  0
 26 25  1  0  0  0  0
M  END
>  <MODEL>
3

>  <REMARK>
 VINA RESULT:      -9.7      2.533      4.922
  Name = 
  2 active torsions:
  status: ('A' for Active; 'I' for Inactive)
    1  A    between atoms: C_1  and  C_18
    2  A    between atoms: C_16  and  C_25
                            x       y       z     vdW  Elec       q    Type
                         _______ _______ _______ _____ _____    ______ ____

>  <TORSDO>
F 2

$$$$
=
 OpenBabel11042412263D

 26 29  0  0  1  0  0  0  0  0999 V2000
  186.8220  178.8940  145.3500 C   0  0  0  0  0  2  0  0  0  0  0  0
  187.2540  177.7100  144.5130 C   0  0  1  0  0  3  0  0  0  0  0  0
  186.7890  177.9030  143.0890 C   0  0  0  0  0  0  0  0  0  0  0  0
  184.3230  178.2530  143.6180 C   0  0  0  0  0  3  0  0  0  0  0  0
  185.3060  179.3470  147.1090 O   0  0  0  0  0  1  0  0  0  0  0  0
  191.4690  177.7480  145.2520 C   0  0  0  0  0  2  0  0  0  0  0  0
  189.1270  178.1420  142.3820 C   0  0  0  0  0  3  0  0  0  0  0  0
  189.6010  177.8770  143.5930 C   0  0  0  0  0  0  0  0  0  0  0  0
  188.6970  177.4850  144.6460 N   0  0  0  0  0  0  0  0  0  0  0  0
  187.6830  178.1000  142.0870 C   0  0  0  0  0  0  0  0  0  0  0  0
  183.2550  179.1930  145.4690 O   0  0  0  0  0  0  0  0  0  0  0  0
  184.3330  178.7170  145.0220 C   0  0  0  0  0  0  0  0  0  0  0  0
  185.3360  177.9210  142.8080 C   0  0  0  0  0  3  0  0  0  0  0  0
  191.0880  177.8210  143.7800 C   0  0  0  0  0  2  0  0  0  0  0  0
  189.1930  177.0830  145.9670 C   0  0  0  0  0  2  0  0  0  0  0  0
  190.6590  176.6590  145.9310 C   0  0  2  0  0  3  0  0  0  0  0  0
  185.4890  178.5540  145.9740 C   0  0  1  0  0  3  0  0  0  0  0  0
  187.2880  178.3010  140.6690 C   0  0  0  0  0  0  0  0  0  0  0  0
  188.7980  178.0580  137.2760 N   0  0  0  0  0  1  0  0  0  0  0  0
  185.6260  178.7720  138.9730 C   0  0  0  0  0  3  0  0  0  0  0  0
  188.2270  178.1000  139.6480 C   0  0  0  0  0  3  0  0  0  0  0  0
  186.5630  178.5850  138.0050 N   0  0  0  0  0  0  0  0  0  0  0  0
  187.8450  178.2530  138.3140 C   0  0  0  0  0  0  0  0  0  0  0  0
  185.9700  178.6280  140.3190 C   0  0  0  0  0  3  0  0  0  0  0  0
  191.1750  176.4540  147.3430 C   0  0  0  0  0  2  0  0  0  0  0  0
  192.4340  175.7290  147.3140 N   0  0  0  0  0  1  0  0  0  0  0  0
  1 17  1  0  0  0  0
  2  9  1  0  0  0  0
  2  1  1  1  0  0  0
  3  2  1  0  0  0  0
  4 12  1  0  0  0  0
  6 16  1  0  0  0  0
  7  8  2  0  0  0  0
  8 14  1  0  0  0  0
  8  9  1  0  0  0  0
  9 15  1  0  0  0  0
 10  7  1  0  0  0  0
 10  3  2  0  0  0  0
 12 11  2  0  0  0  0
 12 17  1  0  0  0  0
 13  3  1  0  0  0  0
 13  4  2  0  0  0  0
 14  6  1  0  0  0  0
 16 15  1  0  0  0  0
 16 25  1  1  0  0  0
 17  5  1  1  0  0  0
 18 10  1  0  0  0  0
 19 23  1  0  0  0  0
 20 24  2  0  0  0  0
 21 18  2  0  0  0  0
 22 23  2  0  0  0  0
 22 20  1  0  0  0  0
 23 21  1  0  0  0  0
 24 18  1  0  0  0  0
 26 25  1  0  0  0  0
M  END
>  <MODEL>
4

>  <REMARK>
 VINA RESULT:      -9.2      2.887      5.541
  Name = 
  2 active torsions:
  status: ('A' for Active; 'I' for Inactive)
    1  A    between atoms: C_1  and  C_18
    2  A    between atoms: C_16  and  C_25
                            x       y       z     vdW  Elec       q    Type
                         _______ _______ _______ _____ _____    ______ ____

>  <TORSDO>
F 2

$$$$
=
 OpenBabel11042412263D

 26 29  0  0  1  0  0  0  0  0999 V2000
  184.9360  177.7600  142.1250 C   0  0  0  0  0  2  0  0  0  0  0  0
  186.1580  178.5950  142.4380 C   0  0  1  0  0  3  0  0  0  0  0  0
  186.4960  178.4630  143.9040 C   0  0  0  0  0  0  0  0  0  0  0  0
  184.2190  179.1550  144.8070 C   0  0  0  0  0  3  0  0  0  0  0  0
  182.6770  178.1060  141.5100 O   0  0  0  0  0  1  0  0  0  0  0  0
  188.9310  176.9890  139.6020 C   0  0  0  0  0  2  0  0  0  0  0  0
  188.5500  177.2640  143.2970 C   0  0  0  0  0  3  0  0  0  0  0  0
  188.3600  177.4390  141.9950 C   0  0  0  0  0  0  0  0  0  0  0  0
  187.2620  178.2520  141.5350 N   0  0  0  0  0  0  0  0  0  0  0  0
  187.6340  177.8370  144.3000 C   0  0  0  0  0  0  0  0  0  0  0  0
  182.0660  178.8890  143.9450 O   0  0  0  0  0  0  0  0  0  0  0  0
  183.2990  178.8610  143.6870 C   0  0  0  0  0  0  0  0  0  0  0  0
  185.5430  178.9850  144.9080 C   0  0  0  0  0  3  0  0  0  0  0  0
  189.4040  176.9280  141.0480 C   0  0  0  0  0  2  0  0  0  0  0  0
  187.0800  178.5540  140.1110 C   0  0  0  0  0  2  0  0  0  0  0  0
  188.3670  178.3670  139.3100 C   0  0  2  0  0  3  0  0  0  0  0  0
  183.7230  178.6510  142.2570 C   0  0  1  0  0  3  0  0  0  0  0  0
  188.0190  177.6700  145.7250 C   0  0  0  0  0  0  0  0  0  0  0  0
  191.0510  176.8870  147.7370 N   0  0  0  0  0  1  0  0  0  0  0  0
  187.5070  177.7640  148.0900 C   0  0  0  0  0  3  0  0  0  0  0  0
  189.3420  177.3450  146.0570 C   0  0  0  0  0  3  0  0  0  0  0  0
  188.7940  177.4340  148.3790 N   0  0  0  0  0  0  0  0  0  0  0  0
  189.7110  177.2250  147.3980 C   0  0  0  0  0  0  0  0  0  0  0  0
  187.1000  177.8940  146.7600 C   0  0  0  0  0  3  0  0  0  0  0  0
  188.0770  178.4900  137.8260 C   0  0  0  0  0  2  0  0  0  0  0  0
  188.9600  179.4770  137.2270 N   0  0  0  0  0  1  0  0  0  0  0  0
  1 17  1  0  0  0  0
  2  1  1  6  0  0  0
  2  3  1  0  0  0  0
  3 10  2  0  0  0  0
  3 13  1  0  0  0  0
  4 13  2  0  0  0  0
  6 14  1  0  0  0  0
  7 10  1  0  0  0  0
  8  7  2  0  0  0  0
  9  8  1  0  0  0  0
  9  2  1  0  0  0  0
 10 18  1  0  0  0  0
 12 11  2  0  0  0  0
 12  4  1  0  0  0  0
 14  8  1  0  0  0  0
 15  9  1  0  0  0  0
 16 25  1  6  0  0  0
 16  6  1  0  0  0  0
 16 15  1  0  0  0  0
 17  5  1  6  0  0  0
 17 12  1  0  0  0  0
 18 21  2  0  0  0  0
 18 24  1  0  0  0  0
 20 22  1  0  0  0  0
 21 23  1  0  0  0  0
 23 19  1  0  0  0  0
 23 22  2  0  0  0  0
 24 20  2  0  0  0  0
 26 25  1  0  0  0  0
M  END
>  <MODEL>
5

>  <REMARK>
 VINA RESULT:      -9.1      3.420      5.435
  Name = 
  2 active torsions:
  status: ('A' for Active; 'I' for Inactive)
    1  A    between atoms: C_1  and  C_18
    2  A    between atoms: C_16  and  C_25
                            x       y       z     vdW  Elec       q    Type
                         _______ _______ _______ _____ _____    ______ ____

>  <TORSDO>
F 2

$$$$
=
 OpenBabel11042412263D

 26 29  0  0  1  0  0  0  0  0999 V2000
  188.6860  176.4560  143.1380 C   0  0  0  0  0  2  0  0  0  0  0  0
  188.1360  177.8490  143.3490 C   0  0  1  0  0  3  0  0  0  0  0  0
  187.1340  178.1660  142.2650 C   0  0  0  0  0  0  0  0  0  0  0  0
  188.6650  177.6920  140.2870 C   0  0  0  0  0  3  0  0  0  0  0  0
  190.7370  175.4470  142.5270 O   0  0  0  0  0  1  0  0  0  0  0  0
  186.6830  177.4970  147.3590 C   0  0  0  0  0  2  0  0  0  0  0  0
  185.3450  178.1500  143.9450 C   0  0  0  0  0  3  0  0  0  0  0  0
  186.1890  177.9750  144.9540 C   0  0  0  0  0  0  0  0  0  0  0  0
  187.6090  177.9930  144.7110 N   0  0  0  0  0  0  0  0  0  0  0  0
  185.8160  178.3130  142.5570 C   0  0  0  0  0  0  0  0  0  0  0  0
  190.4300  176.1870  140.0210 O   0  0  0  0  0  0  0  0  0  0  0  0
  189.6790  176.7720  140.8470 C   0  0  0  0  0  0  0  0  0  0  0  0
  187.6030  178.2670  140.8650 C   0  0  0  0  0  3  0  0  0  0  0  0
  185.6350  177.9410  146.3480 C   0  0  0  0  0  2  0  0  0  0  0  0
  188.5740  177.9080  145.8140 C   0  0  0  0  0  2  0  0  0  0  0  0
  187.9560  178.2970  147.1550 C   0  0  2  0  0  3  0  0  0  0  0  0
  189.9480  176.5800  142.3160 C   0  0  1  0  0  3  0  0  0  0  0  0
  184.7830  178.6180  141.5350 C   0  0  0  0  0  0  0  0  0  0  0  0
  181.0780  178.5520  141.1870 N   0  0  0  0  0  1  0  0  0  0  0  0
  184.1260  179.4670  139.3650 C   0  0  0  0  0  3  0  0  0  0  0  0
  183.4260  178.4290  141.8360 C   0  0  0  0  0  3  0  0  0  0  0  0
  182.8200  179.2590  139.6810 N   0  0  0  0  0  0  0  0  0  0  0  0
  182.4540  178.7520  140.8880 C   0  0  0  0  0  0  0  0  0  0  0  0
  185.1280  179.1570  140.2870 C   0  0  0  0  0  3  0  0  0  0  0  0
  188.9280  177.9950  148.2800 C   0  0  0  0  0  2  0  0  0  0  0  0
  190.1440  177.4080  147.7440 N   0  0  0  0  0  1  0  0  0  0  0  0
  2  1  1  6  0  0  0
  2  9  1  0  0  0  0
  3 10  2  0  0  0  0
  3  2  1  0  0  0  0
  4 12  1  0  0  0  0
  4 13  2  0  0  0  0
  7  8  2  0  0  0  0
  8 14  1  0  0  0  0
  9  8  1  0  0  0  0
  9 15  1  0  0  0  0
 10  7  1  0  0  0  0
 11 12  2  0  0  0  0
 12 17  1  0  0  0  0
 13  3  1  0  0  0  0
 14  6  1  0  0  0  0
 15 16  1  0  0  0  0
 16  6  1  0  0  0  0
 16 25  1  1  0  0  0
 17  5  1  6  0  0  0
 17  1  1  0  0  0  0
 18 21  1  0  0  0  0
 18 10  1  0  0  0  0
 20 22  2  0  0  0  0
 20 24  1  0  0  0  0
 22 23  1  0  0  0  0
 23 19  1  0  0  0  0
 23 21  2  0  0  0  0
 24 18  2  0  0  0  0
 26 25  1  0  0  0  0
M  END
>  <MODEL>
6

>  <REMARK>
 VINA RESULT:      -9.1      2.553      5.242
  Name = 
  2 active torsions:
  status: ('A' for Active; 'I' for Inactive)
    1  A    between atoms: C_1  and  C_18
    2  A    between atoms: C_16  and  C_25
                            x       y       z     vdW  Elec       q    Type
                         _______ _______ _______ _____ _____    ______ ____

>  <TORSDO>
F 2

$$$$
=
 OpenBabel11042412263D

 26 29  0  0  1  0  0  0  0  0999 V2000
  188.2140  178.5850  141.6950 C   0  0  0  0  0  2  0  0  0  0  0  0
  187.8260  177.4580  142.6250 C   0  0  1  0  0  3  0  0  0  0  0  0
  189.0480  176.9750  143.3700 C   0  0  0  0  0  0  0  0  0  0  0  0
  190.4840  176.4960  141.3230 C   0  0  0  0  0  3  0  0  0  0  0  0
  188.3830  178.9680  139.3660 O   0  0  0  0  0  1  0  0  0  0  0  0
  184.7380  179.3640  144.8930 C   0  0  0  0  0  2  0  0  0  0  0  0
  188.0960  177.8540  145.4550 C   0  0  0  0  0  3  0  0  0  0  0  0
  186.9550  178.2070  144.8760 C   0  0  0  0  0  0  0  0  0  0  0  0
  186.7170  177.8660  143.4950 N   0  0  0  0  0  0  0  0  0  0  0  0
  189.1640  177.1620  144.7100 C   0  0  0  0  0  0  0  0  0  0  0  0
  190.5620  177.5010  139.2170 O   0  0  0  0  0  0  0  0  0  0  0  0
  189.8960  177.3620  140.2780 C   0  0  0  0  0  0  0  0  0  0  0  0
  190.1430  176.3360  142.6080 C   0  0  0  0  0  3  0  0  0  0  0  0
  185.8740  178.7960  145.7320 C   0  0  0  0  0  2  0  0  0  0  0  0
  185.4290  178.1460  142.8510 C   0  0  0  0  0  2  0  0  0  0  0  0
  184.3030  178.3360  143.8650 C   0  0  2  0  0  3  0  0  0  0  0  0
  188.5250  177.9820  140.3450 C   0  0  1  0  0  3  0  0  0  0  0  0
  190.3420  176.7160  145.4970 C   0  0  0  0  0  0  0  0  0  0  0  0
  191.9150  177.3700  148.8060 N   0  0  0  0  0  1  0  0  0  0  0  0
  192.2720  175.2880  145.8080 C   0  0  0  0  0  3  0  0  0  0  0  0
  190.5790  177.2600  146.7670 C   0  0  0  0  0  3  0  0  0  0  0  0
  192.4850  175.8440  147.0300 N   0  0  0  0  0  0  0  0  0  0  0  0
  191.6660  176.8130  147.5210 C   0  0  0  0  0  0  0  0  0  0  0  0
  191.1950  175.7080  145.0240 C   0  0  0  0  0  3  0  0  0  0  0  0
  183.0500  178.8240  143.1630 C   0  0  0  0  0  2  0  0  0  0  0  0
  181.9100  178.7360  144.0600 N   0  0  0  0  0  1  0  0  0  0  0  0
  2  1  1  1  0  0  0
  2  3  1  0  0  0  0
  2  9  1  0  0  0  0
  3 10  2  0  0  0  0
  4 13  2  0  0  0  0
  6 14  1  0  0  0  0
  8  7  2  0  0  0  0
  8 14  1  0  0  0  0
  9  8  1  0  0  0  0
 10  7  1  0  0  0  0
 10 18  1  0  0  0  0
 11 12  2  0  0  0  0
 12 17  1  0  0  0  0
 12  4  1  0  0  0  0
 13  3  1  0  0  0  0
 15  9  1  0  0  0  0
 15 16  1  0  0  0  0
 16 25  1  6  0  0  0
 16  6  1  0  0  0  0
 17  5  1  6  0  0  0
 17  1  1  0  0  0  0
 18 21  1  0  0  0  0
 20 22  2  0  0  0  0
 21 23  2  0  0  0  0
 22 23  1  0  0  0  0
 23 19  1  0  0  0  0
 24 18  2  0  0  0  0
 24 20  1  0  0  0  0
 25 26  1  0  0  0  0
M  END
>  <MODEL>
7

>  <REMARK>
 VINA RESULT:      -8.9      2.991      7.086
  Name = 
  2 active torsions:
  status: ('A' for Active; 'I' for Inactive)
    1  A    between atoms: C_1  and  C_18
    2  A    between atoms: C_16  and  C_25
                            x       y       z     vdW  Elec       q    Type
                         _______ _______ _______ _____ _____    ______ ____

>  <TORSDO>
F 2

$$$$
=
 OpenBabel11042412263D

 26 29  0  0  1  0  0  0  0  0999 V2000
  190.1910  178.0150  142.2330 C   0  0  0  0  0  2  0  0  0  0  0  0
  188.9620  177.1850  141.9380 C   0  0  1  0  0  3  0  0  0  0  0  0
  187.9080  177.4540  142.9850 C   0  0  0  0  0  0  0  0  0  0  0  0
  189.3490  176.9140  145.0140 C   0  0  0  0  0  3  0  0  0  0  0  0
  192.4240  177.6680  142.9350 O   0  0  0  0  0  1  0  0  0  0  0  0
  188.1440  178.4300  137.9260 C   0  0  0  0  0  2  0  0  0  0  0  0
  186.5170  178.5340  141.2750 C   0  0  0  0  0  3  0  0  0  0  0  0
  187.3580  178.2350  140.2930 C   0  0  0  0  0  0  0  0  0  0  0  0
  188.5080  177.4090  140.5610 N   0  0  0  0  0  0  0  0  0  0  0  0
  186.7520  178.0870  142.6610 C   0  0  0  0  0  0  0  0  0  0  0  0
  191.6410  177.1480  145.3910 O   0  0  0  0  0  0  0  0  0  0  0  0
  190.7280  177.1180  144.5230 C   0  0  0  0  0  0  0  0  0  0  0  0
  188.1750  177.0580  144.3860 C   0  0  0  0  0  3  0  0  0  0  0  0
  186.9830  178.6220  138.8930 C   0  0  0  0  0  2  0  0  0  0  0  0
  189.4020  176.9710  139.4820 C   0  0  0  0  0  2  0  0  0  0  0  0
  188.7340  177.0440  138.1110 C   0  0  2  0  0  3  0  0  0  0  0  0
  191.1260  177.1740  143.0700 C   0  0  1  0  0  3  0  0  0  0  0  0
  185.6810  178.3850  143.6460 C   0  0  0  0  0  0  0  0  0  0  0  0
  185.3190  178.9640  147.3050 N   0  0  0  0  0  1  0  0  0  0  0  0
  183.3820  178.9160  144.1910 C   0  0  0  0  0  3  0  0  0  0  0  0
  186.0010  178.5190  145.0050 C   0  0  0  0  0  3  0  0  0  0  0  0
  183.7200  179.0250  145.5030 N   0  0  0  0  0  0  0  0  0  0  0  0
  184.9990  178.8360  145.9250 C   0  0  0  0  0  0  0  0  0  0  0  0
  184.3560  178.6010  143.2400 C   0  0  0  0  0  3  0  0  0  0  0  0
  189.7560  176.7810  137.0220 C   0  0  0  0  0  2  0  0  0  0  0  0
  189.5820  175.4410  136.4880 N   0  0  0  0  0  1  0  0  0  0  0  0
  1 17  1  0  0  0  0
  2  1  1  1  0  0  0
  2  3  1  0  0  0  0
  3 13  1  0  0  0  0
  6 16  1  0  0  0  0
  6 14  1  0  0  0  0
  7 10  1  0  0  0  0
  8  9  1  0  0  0  0
  8  7  2  0  0  0  0
  9  2  1  0  0  0  0
 10  3  2  0  0  0  0
 10 18  1  0  0  0  0
 12  4  1  0  0  0  0
 12 11  2  0  0  0  0
 13  4  2  0  0  0  0
 14  8  1  0  0  0  0
 15  9  1  0  0  0  0
 16 25  1  6  0  0  0
 16 15  1  0  0  0  0
 17  5  1  1  0  0  0
 17 12  1  0  0  0  0
 18 21  1  0  0  0  0
 20 22  2  0  0  0  0
 21 23  2  0  0  0  0
 22 23  1  0  0  0  0
 23 19  1  0  0  0  0
 24 18  2  0  0  0  0
 24 20  1  0  0  0  0
 26 25  1  0  0  0  0
M  END
>  <MODEL>
8

>  <REMARK>
 VINA RESULT:      -8.7      1.547      2.217
  Name = 
  2 active torsions:
  status: ('A' for Active; 'I' for Inactive)
    1  A    between atoms: C_1  and  C_18
    2  A    between atoms: C_16  and  C_25
                            x       y       z     vdW  Elec       q    Type
                         _______ _______ _______ _____ _____    ______ ____

>  <TORSDO>
F 2

$$$$
=
 OpenBabel11042412263D

 26 29  0  0  1  0  0  0  0  0999 V2000
  186.9990  177.4250  142.2290 C   0  0  0  0  0  2  0  0  0  0  0  0
  188.3600  178.0830  142.2740 C   0  0  1  0  0  3  0  0  0  0  0  0
  189.1280  177.5740  143.4710 C   0  0  0  0  0  0  0  0  0  0  0  0
  187.3770  178.1560  145.2260 C   0  0  0  0  0  3  0  0  0  0  0  0
  184.7340  178.0450  142.5150 O   0  0  0  0  0  1  0  0  0  0  0  0
  189.8310  177.0620  138.3870 C   0  0  0  0  0  2  0  0  0  0  0  0
  190.6930  176.4410  141.9570 C   0  0  0  0  0  3  0  0  0  0  0  0
  190.1230  176.9420  140.8680 C   0  0  0  0  0  0  0  0  0  0  0  0
  189.0590  177.9070  140.9950 N   0  0  0  0  0  0  0  0  0  0  0  0
  190.2340  176.8030  143.3100 C   0  0  0  0  0  0  0  0  0  0  0  0
  185.0470  178.2380  145.1190 O   0  0  0  0  0  0  0  0  0  0  0  0
  186.1170  178.2020  144.4540 C   0  0  0  0  0  0  0  0  0  0  0  0
  188.6270  177.8890  144.8270 C   0  0  0  0  0  3  0  0  0  0  0  0
  190.7280  176.6190  139.5340 C   0  0  0  0  0  2  0  0  0  0  0  0
  188.4760  178.5600  139.8190 C   0  0  0  0  0  2  0  0  0  0  0  0
  189.4010  178.5010  138.6050 C   0  0  2  0  0  3  0  0  0  0  0  0
  186.0280  178.3260  142.9560 C   0  0  1  0  0  3  0  0  0  0  0  0
  191.0270  176.2680  144.4470 C   0  0  0  0  0  0  0  0  0  0  0  0
  191.7570  177.1090  147.9980 N   0  0  0  0  0  1  0  0  0  0  0  0
  192.4320  174.5670  145.4430 C   0  0  0  0  0  3  0  0  0  0  0  0
  191.0290  176.9440  145.6750 C   0  0  0  0  0  3  0  0  0  0  0  0
  192.4280  175.2520  146.6170 N   0  0  0  0  0  0  0  0  0  0  0  0
  191.7450  176.4210  146.7540 C   0  0  0  0  0  0  0  0  0  0  0  0
  191.7280  175.0580  144.3410 C   0  0  0  0  0  3  0  0  0  0  0  0
  188.6720  179.0020  137.3720 C   0  0  0  0  0  2  0  0  0  0  0  0
  187.2360  178.9430  137.5850 N   0  0  0  0  0  1  0  0  0  0  0  0
  1 17  1  0  0  0  0
  2  1  1  6  0  0  0
  2  3  1  0  0  0  0
  3 13  1  0  0  0  0
  6 16  1  0  0  0  0
  6 14  1  0  0  0  0
  7 10  1  0  0  0  0
  8  9  1  0  0  0  0
  8  7  2  0  0  0  0
  9  2  1  0  0  0  0
 10  3  2  0  0  0  0
 10 18  1  0  0  0  0
 12 11  2  0  0  0  0
 12  4  1  0  0  0  0
 13  4  2  0  0  0  0
 14  8  1  0  0  0  0
 15  9  1  0  0  0  0
 16 25  1  6  0  0  0
 16 15  1  0  0  0  0
 17  5  1  6  0  0  0
 17 12  1  0  0  0  0
 18 21  1  0  0  0  0
 20 22  2  0  0  0  0
 21 23  2  0  0  0  0
 22 23  1  0  0  0  0
 23 19  1  0  0  0  0
 24 18  2  0  0  0  0
 24 20  1  0  0  0  0
 25 26  1  0  0  0  0
M  END
>  <MODEL>
9

>  <REMARK>
 VINA RESULT:      -8.4      3.032      5.777
  Name = 
  2 active torsions:
  status: ('A' for Active; 'I' for Inactive)
    1  A    between atoms: C_1  and  C_18
    2  A    between atoms: C_16  and  C_25
                            x       y       z     vdW  Elec       q    Type
                         _______ _______ _______ _____ _____    ______ ____

>  <TORSDO>
F 2

$$$$
