=
 OpenBabel11032419103D

 42 47  0  0  1  0  0  0  0  0999 V2000
  188.1410  176.0310  137.6490 N   0  0  0  0  0  2  0  0  0  0  0  0
  192.3360  176.2370  136.8360 C   0  0  0  0  0  0  0  0  0  0  0  0
  190.4600  176.3010  138.6170 C   0  0  2  0  0  3  0  0  0  0  0  0
  191.9200  176.3030  138.2490 C   0  0  0  0  0  0  0  0  0  0  0  0
  190.0180  176.0350  136.2100 N   0  0  0  0  0  0  0  0  0  0  0  0
  191.4140  176.1060  135.8860 C   0  0  0  0  0  3  0  0  0  0  0  0
  192.7850  176.3570  139.1650 O   0  0  0  0  0  0  0  0  0  0  0  0
  189.5510  176.1170  137.4250 C   0  0  0  0  0  0  0  0  0  0  0  0
  193.7250  176.3000  136.4680 C   0  0  0  0  0  0  0  0  0  0  0  0
  194.8420  176.3490  136.1720 N   0  0  0  0  0  0  0  0  0  0  0  0
  187.2680  175.8080  136.6340 O   0  0  0  0  0  0  0  0  0  0  0  0
  185.8740  177.1460  137.9330 C   0  0  2  0  0  3  0  0  0  0  0  0
  187.0060  177.9720  137.4880 N   0  0  0  0  0  2  0  0  0  0  0  0
  186.4460  176.9370  136.6080 C   0  0  1  0  0  3  0  0  0  0  0  0
  184.5740  177.9140  137.7890 C   0  0  0  0  0  2  0  0  0  0  0  0
  183.8620  177.9950  139.1290 C   0  0  0  0  0  2  0  0  0  0  0  0
  184.2790  179.2370  139.8460 C   0  0  0  0  0  0  0  0  0  0  0  0
  184.6180  180.2490  139.1770 O   0  0  0  0  0  0  0  0  0  0  0  0
  184.3280  179.2940  141.2730 N   0  0  0  0  0  2  0  0  0  0  0  0
  185.2640  177.7250  142.9210 C   0  0  0  0  0  2  0  0  0  0  0  0
  182.8870  178.5070  143.1190 C   0  0  2  0  0  3  0  0  0  0  0  0
  185.6930  178.8030  143.9170 C   0  0  0  0  0  2  0  0  0  0  0  0
  183.3270  179.6010  144.0910 C   0  0  0  0  0  2  0  0  0  0  0  0
  184.0170  178.1550  142.1380 C   0  0  1  0  0  3  0  0  0  0  0  0
  181.6300  178.9360  142.3840 C   0  0  0  0  0  1  0  0  0  0  0  0
  184.5500  179.1310  144.8740 C   0  0  0  0  0  2  0  0  0  0  0  0
  190.1360  177.4860  139.2910 O   0  0  0  0  0  0  0  0  0  0  0  0
  188.6870  178.6130  142.1160 C   0  0  0  0  0  2  0  0  0  0  0  0
  189.7060  177.7910  142.7470 N   0  0  0  0  0  0  0  0  0  0  0  0
  188.3460  177.9680  140.7900 C   0  0  0  0  0  2  0  0  0  0  0  0
  189.5190  177.0680  140.4740 C   0  0  2  0  0  3  0  0  0  0  0  0
  190.4720  177.2340  141.6410 C   0  0  0  0  0  2  0  0  0  0  0  0
  190.5870  178.6860  143.4840 C   0  0  0  0  0  2  0  0  0  0  0  0
  191.6950  176.9870  144.9700 C   0  0  0  0  0  2  0  0  0  0  0  0
  190.8700  176.8290  147.3650 C   0  0  0  0  0  2  0  0  0  0  0  0
  188.3490  176.6040  147.4390 C   0  0  0  0  0  2  0  0  0  0  0  0
  187.9330  177.7060  148.3960 C   0  0  0  0  0  2  0  0  0  0  0  0
  189.3850  177.8730  145.5130 C   0  0  0  0  0  2  0  0  0  0  0  0
  191.4680  176.0700  146.1830 C   0  0  0  0  0  2  0  0  0  0  0  0
  190.7510  178.2030  144.9160 C   0  0  2  0  0  3  0  0  0  0  0  0
  189.5200  177.4500  146.9830 C   0  0  0  0  0  0  0  0  0  0  0  0
  189.1110  178.5510  147.9380 C   0  0  0  0  0  2  0  0  0  0  0  0
  2  4  1  0  0  0  0
  3 27  1  6  0  0  0
  4  3  1  0  0  0  0
  4  7  2  0  0  0  0
  5  8  2  0  0  0  0
  6  5  1  0  0  0  0
  6  2  2  0  0  0  0
  8  1  1  0  0  0  0
  8  3  1  0  0  0  0
  9  2  1  0  0  0  0
 10  9  3  0  0  0  0
 11  1  1  0  0  0  0
 12 15  1  6  0  0  0
 13 12  1  0  0  0  0
 14 11  1  1  0  0  0
 14 13  1  0  0  0  0
 14 12  1  0  0  0  0
 15 16  1  0  0  0  0
 16 17  1  0  0  0  0
 17 19  1  0  0  0  0
 18 17  2  0  0  0  0
 20 22  1  0  0  0  0
 21 25  1  6  0  0  0
 21 23  1  0  0  0  0
 22 26  1  0  0  0  0
 23 26  1  0  0  0  0
 24 19  1  1  0  0  0
 24 20  1  0  0  0  0
 24 21  1  0  0  0  0
 28 29  1  0  0  0  0
 29 33  1  0  0  0  0
 30 28  1  0  0  0  0
 31 27  1  6  0  0  0
 31 30  1  0  0  0  0
 31 32  1  0  0  0  0
 32 29  1  0  0  0  0
 34 39  1  0  0  0  0
 36 37  1  0  0  0  0
 38 41  1  0  0  0  0
 39 35  1  0  0  0  0
 40 33  1  6  0  0  0
 40 34  1  0  0  0  0
 40 38  1  0  0  0  0
 41 35  1  0  0  0  0
 41 36  1  0  0  0  0
 41 42  1  0  0  0  0
 42 37  1  0  0  0  0
M  END
>  <MODEL>
1

>  <REMARK>
 VINA RESULT:      -9.0      0.000      0.000
  Name = 
  11 active torsions:
  status: ('A' for Active; 'I' for Inactive)
    1  A    between atoms: C_3  and  C_10
    2  A    between atoms: C_3  and  C_15
    3  A    between atoms: O_4  and  N_7
    4  A    between atoms: O_4  and  C_37
    5  A    between atoms: C_5  and  N_21
    6  A    between atoms: C_5  and  C_31
    7  A    between atoms: O_6  and  C_12
    8  A    between atoms: O_6  and  C_26
    9  A    between atoms: C_9  and  C_22
   10  A    between atoms: C_15  and  C_17
   11  A    between atoms: C_24  and  N_28
                            x       y       z     vdW  Elec       q    Type
                         _______ _______ _______ _____ _____    ______ ____

>  <TORSDO>
F 11

$$$$
=
 OpenBabel11032419103D

 42 47  0  0  1  0  0  0  0  0999 V2000
  187.0010  178.3430  144.9050 N   0  0  0  0  0  2  0  0  0  0  0  0
  190.5900  176.8100  146.6570 C   0  0  0  0  0  0  0  0  0  0  0  0
  189.4560  177.8420  144.5730 C   0  0  2  0  0  3  0  0  0  0  0  0
  190.6850  177.3420  145.2860 C   0  0  0  0  0  0  0  0  0  0  0  0
  188.2450  177.3670  146.6630 N   0  0  0  0  0  0  0  0  0  0  0  0
  189.4210  176.8350  147.2920 C   0  0  0  0  0  3  0  0  0  0  0  0
  191.7990  177.3880  144.6960 O   0  0  0  0  0  0  0  0  0  0  0  0
  188.2220  177.8300  145.4440 C   0  0  0  0  0  0  0  0  0  0  0  0
  191.7440  176.2720  147.3260 C   0  0  0  0  0  0  0  0  0  0  0  0
  192.6730  175.8410  147.8640 N   0  0  0  0  0  0  0  0  0  0  0  0
  185.8670  178.4180  145.6460 O   0  0  0  0  0  0  0  0  0  0  0  0
  184.0440  178.3070  144.2040 C   0  0  2  0  0  3  0  0  0  0  0  0
  183.6220  179.0370  145.4090 N   0  0  0  0  0  2  0  0  0  0  0  0
  184.9860  179.1880  144.8830 C   0  0  1  0  0  3  0  0  0  0  0  0
  183.5300  179.0050  142.9590 C   0  0  0  0  0  2  0  0  0  0  0  0
  183.8360  178.1730  141.7270 C   0  0  0  0  0  2  0  0  0  0  0  0
  184.1600  179.0730  140.5790 C   0  0  0  0  0  0  0  0  0  0  0  0
  185.2850  179.6400  140.5410 O   0  0  0  0  0  0  0  0  0  0  0  0
  183.2140  179.3260  139.5400 N   0  0  0  0  0  2  0  0  0  0  0  0
  180.8650  179.7730  140.1200 C   0  0  0  0  0  2  0  0  0  0  0  0
  181.4350  178.4040  138.0940 C   0  0  2  0  0  3  0  0  0  0  0  0
  180.7320  181.0130  139.2340 C   0  0  0  0  0  2  0  0  0  0  0  0
  181.3300  179.6520  137.2190 C   0  0  0  0  0  2  0  0  0  0  0  0
  181.8600  178.7690  139.5250 C   0  0  1  0  0  3  0  0  0  0  0  0
  182.3940  177.4080  137.4690 C   0  0  0  0  0  1  0  0  0  0  0  0
  180.3110  180.6170  137.8210 C   0  0  0  0  0  2  0  0  0  0  0  0
  189.2360  177.0860  143.4140 O   0  0  0  0  0  0  0  0  0  0  0  0
  188.3770  178.1040  140.3200 C   0  0  0  0  0  2  0  0  0  0  0  0
  189.7050  177.6130  139.9900 N   0  0  0  0  0  0  0  0  0  0  0  0
  188.4180  178.5880  141.7530 C   0  0  0  0  0  2  0  0  0  0  0  0
  189.6290  177.9180  142.3620 C   0  0  2  0  0  3  0  0  0  0  0  0
  190.2290  177.0890  141.2440 C   0  0  0  0  0  2  0  0  0  0  0  0
  189.5350  176.4880  139.0810 C   0  0  0  0  0  2  0  0  0  0  0  0
  190.1120  176.7340  136.6460 C   0  0  0  0  0  2  0  0  0  0  0  0
  192.4390  176.0210  135.9290 C   0  0  0  0  0  2  0  0  0  0  0  0
  192.9670  173.6900  136.7620 C   0  0  0  0  0  2  0  0  0  0  0  0
  194.2980  173.8710  137.4690 C   0  0  0  0  0  2  0  0  0  0  0  0
  191.3910  175.1240  138.1240 C   0  0  0  0  0  2  0  0  0  0  0  0
  190.9750  176.1530  135.5150 C   0  0  0  0  0  2  0  0  0  0  0  0
  190.6600  176.4630  138.0590 C   0  0  2  0  0  3  0  0  0  0  0  0
  192.5770  175.1010  137.1480 C   0  0  0  0  0  0  0  0  0  0  0  0
  193.9040  175.2880  137.8530 C   0  0  0  0  0  2  0  0  0  0  0  0
  1  8  1  0  0  0  0
  1 11  1  0  0  0  0
  2  6  2  0  0  0  0
  2  9  1  0  0  0  0
  3 27  1  6  0  0  0
  3  4  1  0  0  0  0
  3  8  1  0  0  0  0
  4  2  1  0  0  0  0
  5  6  1  0  0  0  0
  7  4  2  0  0  0  0
  8  5  2  0  0  0  0
  9 10  3  0  0  0  0
 12 15  1  6  0  0  0
 12 14  1  0  0  0  0
 12 13  1  0  0  0  0
 14 13  1  0  0  0  0
 14 11  1  1  0  0  0
 16 15  1  0  0  0  0
 17 16  1  0  0  0  0
 18 17  2  0  0  0  0
 19 17  1  0  0  0  0
 21 25  1  6  0  0  0
 21 24  1  0  0  0  0
 22 20  1  0  0  0  0
 23 26  1  0  0  0  0
 23 21  1  0  0  0  0
 24 19  1  6  0  0  0
 24 20  1  0  0  0  0
 26 22  1  0  0  0  0
 28 30  1  0  0  0  0
 29 28  1  0  0  0  0
 29 32  1  0  0  0  0
 30 31  1  0  0  0  0
 31 27  1  1  0  0  0
 32 31  1  0  0  0  0
 33 29  1  0  0  0  0
 34 40  1  0  0  0  0
 35 41  1  0  0  0  0
 36 41  1  0  0  0  0
 36 37  1  0  0  0  0
 37 42  1  0  0  0  0
 39 35  1  0  0  0  0
 39 34  1  0  0  0  0
 40 38  1  0  0  0  0
 40 33  1  1  0  0  0
 41 42  1  0  0  0  0
 41 38  1  0  0  0  0
M  END
>  <MODEL>
2

>  <REMARK>
 VINA RESULT:      -8.6      2.694      7.753
  Name = 
  11 active torsions:
  status: ('A' for Active; 'I' for Inactive)
    1  A    between atoms: C_3  and  C_10
    2  A    between atoms: C_3  and  C_15
    3  A    between atoms: O_4  and  N_7
    4  A    between atoms: O_4  and  C_37
    5  A    between atoms: C_5  and  N_21
    6  A    between atoms: C_5  and  C_31
    7  A    between atoms: O_6  and  C_12
    8  A    between atoms: O_6  and  C_26
    9  A    between atoms: C_9  and  C_22
   10  A    between atoms: C_15  and  C_17
   11  A    between atoms: C_24  and  N_28
                            x       y       z     vdW  Elec       q    Type
                         _______ _______ _______ _____ _____    ______ ____

>  <TORSDO>
F 11

$$$$
=
 OpenBabel11032419103D

 42 47  0  0  1  0  0  0  0  0999 V2000
  187.0320  178.3300  145.2050 N   0  0  0  0  0  2  0  0  0  0  0  0
  190.7080  176.7670  146.7380 C   0  0  0  0  0  0  0  0  0  0  0  0
  189.4680  177.8440  144.7380 C   0  0  2  0  0  3  0  0  0  0  0  0
  190.7320  177.3320  145.3770 C   0  0  0  0  0  0  0  0  0  0  0  0
  188.3650  177.3170  146.8750 N   0  0  0  0  0  0  0  0  0  0  0  0
  189.5720  176.7750  147.4310 C   0  0  0  0  0  3  0  0  0  0  0  0
  191.8150  177.3950  144.7330 O   0  0  0  0  0  0  0  0  0  0  0  0
  188.2790  177.8090  145.6700 C   0  0  0  0  0  0  0  0  0  0  0  0
  191.8950  176.2180  147.3350 C   0  0  0  0  0  0  0  0  0  0  0  0
  192.8500  175.7770  147.8150 N   0  0  0  0  0  0  0  0  0  0  0  0
  185.9370  178.3850  146.0040 O   0  0  0  0  0  0  0  0  0  0  0  0
  184.1110  178.4100  144.5610 C   0  0  2  0  0  3  0  0  0  0  0  0
  183.6810  178.9920  145.8420 N   0  0  0  0  0  2  0  0  0  0  0  0
  185.0410  179.2230  145.3350 C   0  0  1  0  0  3  0  0  0  0  0  0
  183.5820  179.2380  143.4050 C   0  0  0  0  0  2  0  0  0  0  0  0
  183.6990  178.4580  142.1060 C   0  0  0  0  0  2  0  0  0  0  0  0
  182.4220  178.5670  141.3380 C   0  0  0  0  0  0  0  0  0  0  0  0
  181.4870  179.2760  141.7960 O   0  0  0  0  0  0  0  0  0  0  0  0
  182.2280  177.8620  140.1110 N   0  0  0  0  0  2  0  0  0  0  0  0
  182.5680  175.6440  139.1010 C   0  0  0  0  0  2  0  0  0  0  0  0
  183.9090  177.6160  138.3170 C   0  0  2  0  0  3  0  0  0  0  0  0
  181.5890  175.8620  137.9450 C   0  0  0  0  0  2  0  0  0  0  0  0
  182.9110  177.8460  137.1830 C   0  0  0  0  0  2  0  0  0  0  0  0
  183.2250  176.9630  139.5280 C   0  0  1  0  0  3  0  0  0  0  0  0
  184.5760  178.9260  138.6980 C   0  0  0  0  0  1  0  0  0  0  0  0
  182.2980  176.5130  136.7610 C   0  0  0  0  0  2  0  0  0  0  0  0
  189.1910  177.1140  143.5750 O   0  0  0  0  0  0  0  0  0  0  0  0
  188.0860  177.8070  140.4680 C   0  0  0  0  0  2  0  0  0  0  0  0
  189.5070  177.8160  140.1640 N   0  0  0  0  0  0  0  0  0  0  0  0
  187.9300  178.2570  141.9050 C   0  0  0  0  0  2  0  0  0  0  0  0
  189.2870  178.0450  142.5360 C   0  0  2  0  0  3  0  0  0  0  0  0
  190.1580  177.4930  141.4260 C   0  0  0  0  0  2  0  0  0  0  0  0
  189.7580  176.7140  139.2460 C   0  0  0  0  0  2  0  0  0  0  0  0
  188.8830  178.5480  137.7640 C   0  0  0  0  0  2  0  0  0  0  0  0
  187.7920  177.8520  135.5810 C   0  0  0  0  0  2  0  0  0  0  0  0
  186.0300  176.0770  135.9780 C   0  0  0  0  0  2  0  0  0  0  0  0
  186.4220  174.9810  135.0030 C   0  0  0  0  0  2  0  0  0  0  0  0
  188.0050  176.1820  137.5530 C   0  0  0  0  0  2  0  0  0  0  0  0
  187.8170  178.8820  136.7090 C   0  0  0  0  0  2  0  0  0  0  0  0
  189.2230  177.0490  137.8630 C   0  0  2  0  0  3  0  0  0  0  0  0
  187.4890  176.4530  136.1320 C   0  0  0  0  0  0  0  0  0  0  0  0
  187.8850  175.3620  135.1590 C   0  0  0  0  0  2  0  0  0  0  0  0
  1  8  1  0  0  0  0
  1 11  1  0  0  0  0
  2  9  1  0  0  0  0
  2  6  2  0  0  0  0
  3 27  1  6  0  0  0
  3  4  1  0  0  0  0
  3  8  1  0  0  0  0
  4  2  1  0  0  0  0
  5  6  1  0  0  0  0
  7  4  2  0  0  0  0
  8  5  2  0  0  0  0
  9 10  3  0  0  0  0
 12 15  1  6  0  0  0
 12 14  1  0  0  0  0
 12 13  1  0  0  0  0
 14 13  1  0  0  0  0
 14 11  1  1  0  0  0
 16 15  1  0  0  0  0
 17 18  2  0  0  0  0
 17 16  1  0  0  0  0
 19 17  1  0  0  0  0
 20 24  1  0  0  0  0
 21 25  1  1  0  0  0
 21 24  1  0  0  0  0
 22 20  1  0  0  0  0
 23 21  1  0  0  0  0
 24 19  1  6  0  0  0
 26 23  1  0  0  0  0
 26 22  1  0  0  0  0
 28 30  1  0  0  0  0
 29 28  1  0  0  0  0
 29 32  1  0  0  0  0
 30 31  1  0  0  0  0
 31 27  1  1  0  0  0
 32 31  1  0  0  0  0
 33 29  1  0  0  0  0
 34 40  1  0  0  0  0
 35 41  1  0  0  0  0
 35 39  1  0  0  0  0
 36 41  1  0  0  0  0
 37 42  1  0  0  0  0
 37 36  1  0  0  0  0
 38 40  1  0  0  0  0
 39 34  1  0  0  0  0
 40 33  1  1  0  0  0
 41 38  1  0  0  0  0
 42 41  1  0  0  0  0
M  END
>  <MODEL>
3

>  <REMARK>
 VINA RESULT:      -8.6      2.760      7.966
  Name = 
  11 active torsions:
  status: ('A' for Active; 'I' for Inactive)
    1  A    between atoms: C_3  and  C_10
    2  A    between atoms: C_3  and  C_15
    3  A    between atoms: O_4  and  N_7
    4  A    between atoms: O_4  and  C_37
    5  A    between atoms: C_5  and  N_21
    6  A    between atoms: C_5  and  C_31
    7  A    between atoms: O_6  and  C_12
    8  A    between atoms: O_6  and  C_26
    9  A    between atoms: C_9  and  C_22
   10  A    between atoms: C_15  and  C_17
   11  A    between atoms: C_24  and  N_28
                            x       y       z     vdW  Elec       q    Type
                         _______ _______ _______ _____ _____    ______ ____

>  <TORSDO>
F 11

$$$$
=
 OpenBabel11032419103D

 42 47  0  0  1  0  0  0  0  0999 V2000
  184.2390  179.4150  142.7150 N   0  0  0  0  0  2  0  0  0  0  0  0
  186.5460  178.2620  139.3020 C   0  0  0  0  0  0  0  0  0  0  0  0
  184.1930  178.6090  140.3200 C   0  0  2  0  0  3  0  0  0  0  0  0
  185.0800  178.2760  139.1500 C   0  0  0  0  0  0  0  0  0  0  0  0
  186.2710  178.9980  141.5810 N   0  0  0  0  0  0  0  0  0  0  0  0
  187.0890  178.6110  140.4660 C   0  0  0  0  0  3  0  0  0  0  0  0
  184.5540  178.0140  138.0340 O   0  0  0  0  0  0  0  0  0  0  0  0
  184.9670  179.0110  141.5530 C   0  0  0  0  0  0  0  0  0  0  0  0
  187.4020  177.8860  138.2090 C   0  0  0  0  0  0  0  0  0  0  0  0
  188.0900  177.5840  137.3300 N   0  0  0  0  0  0  0  0  0  0  0  0
  184.8660  179.8450  143.8390 O   0  0  0  0  0  0  0  0  0  0  0  0
  185.5730  179.0890  145.9230 C   0  0  2  0  0  3  0  0  0  0  0  0
  184.1250  178.8550  145.8270 N   0  0  0  0  0  2  0  0  0  0  0  0
  184.9850  178.7100  144.6440 C   0  0  1  0  0  3  0  0  0  0  0  0
  186.2630  177.8780  146.5230 C   0  0  0  0  0  2  0  0  0  0  0  0
  187.5890  178.2830  147.1430 C   0  0  0  0  0  2  0  0  0  0  0  0
  188.5780  177.1760  146.9810 C   0  0  0  0  0  0  0  0  0  0  0  0
  188.7720  176.3800  147.9380 O   0  0  0  0  0  0  0  0  0  0  0  0
  189.3300  177.0170  145.7770 N   0  0  0  0  0  2  0  0  0  0  0  0
  190.5140  178.7470  144.4890 C   0  0  0  0  0  2  0  0  0  0  0  0
  188.9640  177.1430  143.3370 C   0  0  2  0  0  3  0  0  0  0  0  0
  191.7000  177.8580  144.1120 C   0  0  0  0  0  2  0  0  0  0  0  0
  190.1500  176.2450  142.9890 C   0  0  0  0  0  2  0  0  0  0  0  0
  189.2270  177.9250  144.6330 C   0  0  1  0  0  3  0  0  0  0  0  0
  187.6950  176.3170  143.4360 C   0  0  0  0  0  1  0  0  0  0  0  0
  191.4070  177.0950  142.8230 C   0  0  0  0  0  2  0  0  0  0  0  0
  183.3570  177.5220  140.6090 O   0  0  0  0  0  0  0  0  0  0  0  0
  181.0420  178.1410  138.2410 C   0  0  0  0  0  2  0  0  0  0  0  0
  181.1040  179.4840  138.7940 N   0  0  0  0  0  0  0  0  0  0  0  0
  181.3520  177.1770  139.3660 C   0  0  0  0  0  2  0  0  0  0  0  0
  182.0590  178.0050  140.4140 C   0  0  2  0  0  3  0  0  0  0  0  0
  182.1110  179.4080  139.8430 C   0  0  0  0  0  2  0  0  0  0  0  0
  181.6220  180.3560  137.7500 C   0  0  0  0  0  2  0  0  0  0  0  0
  180.3150  181.1710  135.7620 C   0  0  0  0  0  2  0  0  0  0  0  0
  178.9310  183.2750  136.0680 C   0  0  0  0  0  2  0  0  0  0  0  0
  180.3250  185.1360  137.0710 C   0  0  0  0  0  2  0  0  0  0  0  0
  179.4940  185.5860  138.2590 C   0  0  0  0  0  2  0  0  0  0  0  0
  180.9150  182.7470  137.6510 C   0  0  0  0  0  2  0  0  0  0  0  0
  179.7420  182.4290  135.0900 C   0  0  0  0  0  2  0  0  0  0  0  0
  180.5400  181.3140  137.2780 C   0  0  2  0  0  3  0  0  0  0  0  0
  179.8030  183.7250  137.2480 C   0  0  0  0  0  0  0  0  0  0  0  0
  178.9700  184.1700  138.4320 C   0  0  0  0  0  2  0  0  0  0  0  0
  1 11  1  0  0  0  0
  2  6  2  0  0  0  0
  3 27  1  1  0  0  0
  3  8  1  0  0  0  0
  4  2  1  0  0  0  0
  4  3  1  0  0  0  0
  6  5  1  0  0  0  0
  7  4  2  0  0  0  0
  8  5  2  0  0  0  0
  8  1  1  0  0  0  0
  9  2  1  0  0  0  0
 10  9  3  0  0  0  0
 12 15  1  1  0  0  0
 13 12  1  0  0  0  0
 14 11  1  6  0  0  0
 14 13  1  0  0  0  0
 14 12  1  0  0  0  0
 15 16  1  0  0  0  0
 17 16  1  0  0  0  0
 17 18  2  0  0  0  0
 19 17  1  0  0  0  0
 20 24  1  0  0  0  0
 21 25  1  1  0  0  0
 21 24  1  0  0  0  0
 22 20  1  0  0  0  0
 23 21  1  0  0  0  0
 24 19  1  1  0  0  0
 26 23  1  0  0  0  0
 26 22  1  0  0  0  0
 28 29  1  0  0  0  0
 28 30  1  0  0  0  0
 29 32  1  0  0  0  0
 30 31  1  0  0  0  0
 31 27  1  6  0  0  0
 32 31  1  0  0  0  0
 33 29  1  0  0  0  0
 34 40  1  0  0  0  0
 35 41  1  0  0  0  0
 36 41  1  0  0  0  0
 36 37  1  0  0  0  0
 37 42  1  0  0  0  0
 39 34  1  0  0  0  0
 39 35  1  0  0  0  0
 40 38  1  0  0  0  0
 40 33  1  6  0  0  0
 41 38  1  0  0  0  0
 41 42  1  0  0  0  0
M  END
>  <MODEL>
4

>  <REMARK>
 VINA RESULT:      -8.5      3.998      9.891
  Name = 
  11 active torsions:
  status: ('A' for Active; 'I' for Inactive)
    1  A    between atoms: C_3  and  C_10
    2  A    between atoms: C_3  and  C_15
    3  A    between atoms: O_4  and  N_7
    4  A    between atoms: O_4  and  C_37
    5  A    between atoms: C_5  and  N_21
    6  A    between atoms: C_5  and  C_31
    7  A    between atoms: O_6  and  C_12
    8  A    between atoms: O_6  and  C_26
    9  A    between atoms: C_9  and  C_22
   10  A    between atoms: C_15  and  C_17
   11  A    between atoms: C_24  and  N_28
                            x       y       z     vdW  Elec       q    Type
                         _______ _______ _______ _____ _____    ______ ____

>  <TORSDO>
F 11

$$$$
=
 OpenBabel11032419103D

 42 47  0  0  1  0  0  0  0  0999 V2000
  187.1370  178.1680  144.9010 N   0  0  0  0  0  2  0  0  0  0  0  0
  190.7270  176.7610  146.7550 C   0  0  0  0  0  0  0  0  0  0  0  0
  189.6180  177.7560  144.6400 C   0  0  2  0  0  3  0  0  0  0  0  0
  190.8420  177.2990  145.3870 C   0  0  0  0  0  0  0  0  0  0  0  0
  188.3650  177.2330  146.6930 N   0  0  0  0  0  0  0  0  0  0  0  0
  189.5400  176.7420  147.3550 C   0  0  0  0  0  3  0  0  0  0  0  0
  191.9710  177.3870  144.8310 O   0  0  0  0  0  0  0  0  0  0  0  0
  188.3600  177.6980  145.4740 C   0  0  0  0  0  0  0  0  0  0  0  0
  191.8800  176.2640  147.4560 C   0  0  0  0  0  0  0  0  0  0  0  0
  192.8070  175.8640  148.0210 N   0  0  0  0  0  0  0  0  0  0  0  0
  185.9810  178.2000  145.6090 O   0  0  0  0  0  0  0  0  0  0  0  0
  184.0940  178.2540  144.2470 C   0  0  2  0  0  3  0  0  0  0  0  0
  183.7890  179.0120  145.4700 N   0  0  0  0  0  2  0  0  0  0  0  0
  185.1370  179.0470  144.8860 C   0  0  1  0  0  3  0  0  0  0  0  0
  183.5890  179.0010  143.0260 C   0  0  0  0  0  2  0  0  0  0  0  0
  183.7840  178.1580  141.7780 C   0  0  0  0  0  2  0  0  0  0  0  0
  184.1700  179.0360  140.6330 C   0  0  0  0  0  0  0  0  0  0  0  0
  185.3380  179.5040  140.5840 O   0  0  0  0  0  0  0  0  0  0  0  0
  183.2360  179.3770  139.6070 N   0  0  0  0  0  2  0  0  0  0  0  0
  180.9070  180.1300  139.8540 C   0  0  0  0  0  2  0  0  0  0  0  0
  181.4790  178.2690  138.2710 C   0  0  2  0  0  3  0  0  0  0  0  0
  180.9530  181.1230  138.6910 C   0  0  0  0  0  2  0  0  0  0  0  0
  181.5520  179.2690  137.1190 C   0  0  0  0  0  2  0  0  0  0  0  0
  181.8400  178.9380  139.6060 C   0  0  1  0  0  3  0  0  0  0  0  0
  182.3790  177.0790  137.9870 C   0  0  0  0  0  1  0  0  0  0  0  0
  180.5920  180.4270  137.3820 C   0  0  0  0  0  2  0  0  0  0  0  0
  189.4580  176.9950  143.4740 O   0  0  0  0  0  0  0  0  0  0  0  0
  188.7690  177.4510  140.2080 C   0  0  0  0  0  2  0  0  0  0  0  0
  190.2000  177.6990  140.1310 N   0  0  0  0  0  0  0  0  0  0  0  0
  188.3110  177.8850  141.5830 C   0  0  0  0  0  2  0  0  0  0  0  0
  189.5640  177.9160  142.4270 C   0  0  2  0  0  3  0  0  0  0  0  0
  190.6840  177.5070  141.4910 C   0  0  0  0  0  2  0  0  0  0  0  0
  190.7760  176.6460  139.3070 C   0  0  0  0  0  2  0  0  0  0  0  0
  190.2580  174.8810  137.5920 C   0  0  0  0  0  2  0  0  0  0  0  0
  188.3160  175.3280  136.0210 C   0  0  0  0  0  2  0  0  0  0  0  0
  188.5290  177.6120  134.9480 C   0  0  0  0  0  2  0  0  0  0  0  0
  187.1800  178.2500  135.2290 C   0  0  0  0  0  2  0  0  0  0  0  0
  189.5000  177.2750  137.2580 C   0  0  0  0  0  2  0  0  0  0  0  0
  189.6770  174.6560  136.1870 C   0  0  0  0  0  2  0  0  0  0  0  0
  189.7640  176.1690  138.2780 C   0  0  2  0  0  3  0  0  0  0  0  0
  188.4280  176.8410  136.2480 C   0  0  0  0  0  0  0  0  0  0  0  0
  187.0820  177.4740  136.5320 C   0  0  0  0  0  2  0  0  0  0  0  0
  1  8  1  0  0  0  0
  1 11  1  0  0  0  0
  2  6  2  0  0  0  0
  2  9  1  0  0  0  0
  3 27  1  6  0  0  0
  3  4  1  0  0  0  0
  3  8  1  0  0  0  0
  4  2  1  0  0  0  0
  5  6  1  0  0  0  0
  7  4  2  0  0  0  0
  8  5  2  0  0  0  0
  9 10  3  0  0  0  0
 12 15  1  6  0  0  0
 12 14  1  0  0  0  0
 12 13  1  0  0  0  0
 14 13  1  0  0  0  0
 14 11  1  1  0  0  0
 16 15  1  0  0  0  0
 17 16  1  0  0  0  0
 18 17  2  0  0  0  0
 19 17  1  0  0  0  0
 21 25  1  6  0  0  0
 21 24  1  0  0  0  0
 22 20  1  0  0  0  0
 23 26  1  0  0  0  0
 23 21  1  0  0  0  0
 24 19  1  6  0  0  0
 24 20  1  0  0  0  0
 26 22  1  0  0  0  0
 28 30  1  0  0  0  0
 29 28  1  0  0  0  0
 29 32  1  0  0  0  0
 30 31  1  0  0  0  0
 31 27  1  1  0  0  0
 32 31  1  0  0  0  0
 33 29  1  0  0  0  0
 34 40  1  0  0  0  0
 35 39  1  0  0  0  0
 35 41  1  0  0  0  0
 36 37  1  0  0  0  0
 36 41  1  0  0  0  0
 37 42  1  0  0  0  0
 38 40  1  0  0  0  0
 39 34  1  0  0  0  0
 40 33  1  1  0  0  0
 41 42  1  0  0  0  0
 41 38  1  0  0  0  0
M  END
>  <MODEL>
5

>  <REMARK>
 VINA RESULT:      -8.5      2.727      7.771
  Name = 
  11 active torsions:
  status: ('A' for Active; 'I' for Inactive)
    1  A    between atoms: C_3  and  C_10
    2  A    between atoms: C_3  and  C_15
    3  A    between atoms: O_4  and  N_7
    4  A    between atoms: O_4  and  C_37
    5  A    between atoms: C_5  and  N_21
    6  A    between atoms: C_5  and  C_31
    7  A    between atoms: O_6  and  C_12
    8  A    between atoms: O_6  and  C_26
    9  A    between atoms: C_9  and  C_22
   10  A    between atoms: C_15  and  C_17
   11  A    between atoms: C_24  and  N_28
                            x       y       z     vdW  Elec       q    Type
                         _______ _______ _______ _____ _____    ______ ____

>  <TORSDO>
F 11

$$$$
=
 OpenBabel11032419103D

 42 47  0  0  1  0  0  0  0  0999 V2000
  185.1990  178.9060  141.7740 N   0  0  0  0  0  2  0  0  0  0  0  0
  182.7540  178.7360  138.2670 C   0  0  0  0  0  0  0  0  0  0  0  0
  185.0050  178.1150  139.3820 C   0  0  2  0  0  3  0  0  0  0  0  0
  184.0570  178.0490  138.2130 C   0  0  0  0  0  0  0  0  0  0  0  0
  183.2400  179.3840  140.5370 N   0  0  0  0  0  0  0  0  0  0  0  0
  182.3870  179.3600  139.3830 C   0  0  0  0  0  3  0  0  0  0  0  0
  184.3900  177.3950  137.1880 O   0  0  0  0  0  0  0  0  0  0  0  0
  184.4230  178.8330  140.5760 C   0  0  0  0  0  0  0  0  0  0  0  0
  181.8660  178.7340  137.1360 C   0  0  0  0  0  0  0  0  0  0  0  0
  181.1530  178.7310  136.2250 N   0  0  0  0  0  0  0  0  0  0  0  0
  184.7180  179.4840  142.9040 O   0  0  0  0  0  0  0  0  0  0  0  0
  185.3280  179.0460  145.1070 C   0  0  2  0  0  3  0  0  0  0  0  0
  183.8800  178.8230  144.9870 N   0  0  0  0  0  2  0  0  0  0  0  0
  184.7810  178.4850  143.8770 C   0  0  1  0  0  3  0  0  0  0  0  0
  185.9660  177.9300  145.9130 C   0  0  0  0  0  2  0  0  0  0  0  0
  187.1510  178.4620  146.7000 C   0  0  0  0  0  2  0  0  0  0  0  0
  188.2010  177.4050  146.8060 C   0  0  0  0  0  0  0  0  0  0  0  0
  188.2730  176.7150  147.8580 O   0  0  0  0  0  0  0  0  0  0  0  0
  189.1400  177.1780  145.7550 N   0  0  0  0  0  2  0  0  0  0  0  0
  190.4840  178.7750  144.4520 C   0  0  0  0  0  2  0  0  0  0  0  0
  189.0680  177.0600  143.2880 C   0  0  2  0  0  3  0  0  0  0  0  0
  191.6990  177.8570  144.3090 C   0  0  0  0  0  2  0  0  0  0  0  0
  190.2790  176.1350  143.1750 C   0  0  0  0  0  2  0  0  0  0  0  0
  189.1820  177.9680  144.5230 C   0  0  1  0  0  3  0  0  0  0  0  0
  187.7890  176.2430  143.3170 C   0  0  0  0  0  1  0  0  0  0  0  0
  191.5540  176.9690  143.0760 C   0  0  0  0  0  2  0  0  0  0  0  0
  186.2050  178.7240  138.9900 O   0  0  0  0  0  0  0  0  0  0  0  0
  189.5360  178.2240  138.9580 C   0  0  0  0  0  2  0  0  0  0  0  0
  189.1730  177.1010  138.1100 N   0  0  0  0  0  0  0  0  0  0  0  0
  188.3860  178.4560  139.9140 C   0  0  0  0  0  2  0  0  0  0  0  0
  187.1960  177.7790  139.2740 C   0  0  2  0  0  3  0  0  0  0  0  0
  187.7250  177.1830  137.9850 C   0  0  0  0  0  2  0  0  0  0  0  0
  189.7430  177.3530  136.7940 C   0  0  0  0  0  2  0  0  0  0  0  0
  189.8010  174.8480  136.5790 C   0  0  0  0  0  2  0  0  0  0  0  0
  192.0360  173.7850  136.0230 C   0  0  0  0  0  2  0  0  0  0  0  0
  193.8440  174.6100  137.5910 C   0  0  0  0  0  2  0  0  0  0  0  0
  194.9340  175.0800  136.6430 C   0  0  0  0  0  2  0  0  0  0  0  0
  191.9150  176.1560  137.0640 C   0  0  0  0  0  2  0  0  0  0  0  0
  190.7010  173.6140  136.7440 C   0  0  0  0  0  2  0  0  0  0  0  0
  190.5700  176.1610  136.3410 C   0  0  2  0  0  3  0  0  0  0  0  0
  192.7960  175.0000  136.5700 C   0  0  0  0  0  0  0  0  0  0  0  0
  193.8790  175.4670  135.6200 C   0  0  0  0  0  2  0  0  0  0  0  0
  1 11  1  0  0  0  0
  2  6  2  0  0  0  0
  3 27  1  6  0  0  0
  3  8  1  0  0  0  0
  4  2  1  0  0  0  0
  4  3  1  0  0  0  0
  5  8  2  0  0  0  0
  6  5  1  0  0  0  0
  7  4  2  0  0  0  0
  8  1  1  0  0  0  0
  9  2  1  0  0  0  0
 10  9  3  0  0  0  0
 12 15  1  1  0  0  0
 13 12  1  0  0  0  0
 14 11  1  6  0  0  0
 14 13  1  0  0  0  0
 14 12  1  0  0  0  0
 15 16  1  0  0  0  0
 16 17  1  0  0  0  0
 17 18  2  0  0  0  0
 19 17  1  0  0  0  0
 20 24  1  0  0  0  0
 21 25  1  1  0  0  0
 21 24  1  0  0  0  0
 22 20  1  0  0  0  0
 23 21  1  0  0  0  0
 24 19  1  1  0  0  0
 26 23  1  0  0  0  0
 26 22  1  0  0  0  0
 28 30  1  0  0  0  0
 29 28  1  0  0  0  0
 31 27  1  6  0  0  0
 31 30  1  0  0  0  0
 32 29  1  0  0  0  0
 32 31  1  0  0  0  0
 33 29  1  0  0  0  0
 34 39  1  0  0  0  0
 35 41  1  0  0  0  0
 35 39  1  0  0  0  0
 37 36  1  0  0  0  0
 40 34  1  0  0  0  0
 40 33  1  1  0  0  0
 40 38  1  0  0  0  0
 41 38  1  0  0  0  0
 41 36  1  0  0  0  0
 42 41  1  0  0  0  0
 42 37  1  0  0  0  0
M  END
>  <MODEL>
6

>  <REMARK>
 VINA RESULT:      -8.2      2.507      8.454
  Name = 
  11 active torsions:
  status: ('A' for Active; 'I' for Inactive)
    1  A    between atoms: C_3  and  C_10
    2  A    between atoms: C_3  and  C_15
    3  A    between atoms: O_4  and  N_7
    4  A    between atoms: O_4  and  C_37
    5  A    between atoms: C_5  and  N_21
    6  A    between atoms: C_5  and  C_31
    7  A    between atoms: O_6  and  C_12
    8  A    between atoms: O_6  and  C_26
    9  A    between atoms: C_9  and  C_22
   10  A    between atoms: C_15  and  C_17
   11  A    between atoms: C_24  and  N_28
                            x       y       z     vdW  Elec       q    Type
                         _______ _______ _______ _____ _____    ______ ____

>  <TORSDO>
F 11

$$$$
=
 OpenBabel11032419103D

 42 47  0  0  1  0  0  0  0  0999 V2000
  186.8860  177.8760  144.4410 N   0  0  0  0  0  2  0  0  0  0  0  0
  190.5080  176.9230  146.5100 C   0  0  0  0  0  0  0  0  0  0  0  0
  189.4090  177.7640  144.3240 C   0  0  2  0  0  3  0  0  0  0  0  0
  190.6350  177.4630  145.1440 C   0  0  0  0  0  0  0  0  0  0  0  0
  188.1130  177.1070  146.3110 N   0  0  0  0  0  0  0  0  0  0  0  0
  189.2990  176.7660  147.0440 C   0  0  0  0  0  3  0  0  0  0  0  0
  191.7740  177.6820  144.6500 O   0  0  0  0  0  0  0  0  0  0  0  0
  188.1220  177.5610  145.0880 C   0  0  0  0  0  0  0  0  0  0  0  0
  191.6700  176.5730  147.2810 C   0  0  0  0  0  0  0  0  0  0  0  0
  192.6040  176.2910  147.9020 N   0  0  0  0  0  0  0  0  0  0  0  0
  185.6960  177.7740  145.0830 O   0  0  0  0  0  0  0  0  0  0  0  0
  183.5300  178.6250  145.0400 C   0  0  2  0  0  3  0  0  0  0  0  0
  184.4410  179.7300  145.3700 N   0  0  0  0  0  2  0  0  0  0  0  0
  184.8530  178.6780  144.4310 C   0  0  1  0  0  3  0  0  0  0  0  0
  182.5030  179.0790  144.0190 C   0  0  0  0  0  2  0  0  0  0  0  0
  182.9150  178.6320  142.6270 C   0  0  0  0  0  2  0  0  0  0  0  0
  181.7300  178.6580  141.7180 C   0  0  0  0  0  0  0  0  0  0  0  0
  180.6530  179.1680  142.1270 O   0  0  0  0  0  0  0  0  0  0  0  0
  181.7830  178.0920  140.4070 N   0  0  0  0  0  2  0  0  0  0  0  0
  182.6030  176.0020  139.4010 C   0  0  0  0  0  2  0  0  0  0  0  0
  183.5500  178.2140  138.6860 C   0  0  2  0  0  3  0  0  0  0  0  0
  181.6490  176.0340  138.2060 C   0  0  0  0  0  2  0  0  0  0  0  0
  182.5740  178.2540  137.5110 C   0  0  0  0  0  2  0  0  0  0  0  0
  182.9630  177.4200  139.8640 C   0  0  1  0  0  3  0  0  0  0  0  0
  183.9240  179.6260  139.1030 C   0  0  0  0  0  1  0  0  0  0  0  0
  182.2600  176.8310  137.0570 C   0  0  0  0  0  2  0  0  0  0  0  0
  189.4080  176.9820  143.1610 O   0  0  0  0  0  0  0  0  0  0  0  0
  188.4040  178.1470  140.1640 C   0  0  0  0  0  2  0  0  0  0  0  0
  189.7150  177.6770  139.7490 N   0  0  0  0  0  0  0  0  0  0  0  0
  188.5130  178.5610  141.6150 C   0  0  0  0  0  2  0  0  0  0  0  0
  189.7510  177.8660  142.1330 C   0  0  2  0  0  3  0  0  0  0  0  0
  190.2980  177.0950  140.9500 C   0  0  0  0  0  2  0  0  0  0  0  0
  189.5040  176.5970  138.7950 C   0  0  0  0  0  2  0  0  0  0  0  0
  190.1500  176.6930  136.3660 C   0  0  0  0  0  2  0  0  0  0  0  0
  192.5140  175.9910  135.7670 C   0  0  0  0  0  2  0  0  0  0  0  0
  193.0690  173.7350  136.7730 C   0  0  0  0  0  2  0  0  0  0  0  0
  194.3730  173.9960  137.5050 C   0  0  0  0  0  2  0  0  0  0  0  0
  191.4200  175.2180  137.9870 C   0  0  0  0  0  2  0  0  0  0  0  0
  191.0600  176.0580  135.3040 C   0  0  0  0  0  2  0  0  0  0  0  0
  190.6600  176.5310  137.8100 C   0  0  2  0  0  3  0  0  0  0  0  0
  192.6350  175.1590  137.0510 C   0  0  0  0  0  0  0  0  0  0  0  0
  193.9360  175.4260  137.7790 C   0  0  0  0  0  2  0  0  0  0  0  0
  1 11  1  0  0  0  0
  1  8  1  0  0  0  0
  2  6  2  0  0  0  0
  2  9  1  0  0  0  0
  3 27  1  6  0  0  0
  3  8  1  0  0  0  0
  3  4  1  0  0  0  0
  4  2  1  0  0  0  0
  5  6  1  0  0  0  0
  7  4  2  0  0  0  0
  8  5  2  0  0  0  0
  9 10  3  0  0  0  0
 12 15  1  6  0  0  0
 12 13  1  0  0  0  0
 14 12  1  0  0  0  0
 14 11  1  1  0  0  0
 14 13  1  0  0  0  0
 16 15  1  0  0  0  0
 17 18  2  0  0  0  0
 17 16  1  0  0  0  0
 19 17  1  0  0  0  0
 20 24  1  0  0  0  0
 21 25  1  1  0  0  0
 21 24  1  0  0  0  0
 22 20  1  0  0  0  0
 23 21  1  0  0  0  0
 24 19  1  6  0  0  0
 26 23  1  0  0  0  0
 26 22  1  0  0  0  0
 28 30  1  0  0  0  0
 29 28  1  0  0  0  0
 29 32  1  0  0  0  0
 30 31  1  0  0  0  0
 31 27  1  1  0  0  0
 32 31  1  0  0  0  0
 33 29  1  0  0  0  0
 34 40  1  0  0  0  0
 35 41  1  0  0  0  0
 36 41  1  0  0  0  0
 36 37  1  0  0  0  0
 37 42  1  0  0  0  0
 39 35  1  0  0  0  0
 39 34  1  0  0  0  0
 40 38  1  0  0  0  0
 40 33  1  1  0  0  0
 41 42  1  0  0  0  0
 41 38  1  0  0  0  0
M  END
>  <MODEL>
7

>  <REMARK>
 VINA RESULT:      -8.1      2.577      7.763
  Name = 
  11 active torsions:
  status: ('A' for Active; 'I' for Inactive)
    1  A    between atoms: C_3  and  C_10
    2  A    between atoms: C_3  and  C_15
    3  A    between atoms: O_4  and  N_7
    4  A    between atoms: O_4  and  C_37
    5  A    between atoms: C_5  and  N_21
    6  A    between atoms: C_5  and  C_31
    7  A    between atoms: O_6  and  C_12
    8  A    between atoms: O_6  and  C_26
    9  A    between atoms: C_9  and  C_22
   10  A    between atoms: C_15  and  C_17
   11  A    between atoms: C_24  and  N_28
                            x       y       z     vdW  Elec       q    Type
                         _______ _______ _______ _____ _____    ______ ____

>  <TORSDO>
F 11

$$$$
=
 OpenBabel11032419103D

 42 47  0  0  1  0  0  0  0  0999 V2000
  189.7200  176.6480  141.0380 N   0  0  0  0  0  2  0  0  0  0  0  0
  190.8010  176.7510  145.1760 C   0  0  0  0  0  0  0  0  0  0  0  0
  188.9090  176.9090  143.4170 C   0  0  2  0  0  3  0  0  0  0  0  0
  189.3680  176.8720  144.8510 C   0  0  0  0  0  0  0  0  0  0  0  0
  191.2730  176.5700  142.8200 N   0  0  0  0  0  0  0  0  0  0  0  0
  191.6870  176.6050  144.1940 C   0  0  0  0  0  3  0  0  0  0  0  0
  188.5100  176.9420  145.7730 O   0  0  0  0  0  0  0  0  0  0  0  0
  190.0350  176.7000  142.4320 C   0  0  0  0  0  0  0  0  0  0  0  0
  191.2580  176.7770  146.5400 C   0  0  0  0  0  0  0  0  0  0  0  0
  191.6250  176.7990  147.6360 N   0  0  0  0  0  0  0  0  0  0  0  0
  190.6690  176.4060  140.0990 O   0  0  0  0  0  0  0  0  0  0  0  0
  188.7320  177.0340  138.9720 C   0  0  2  0  0  3  0  0  0  0  0  0
  189.4910  178.2560  139.2790 N   0  0  0  0  0  2  0  0  0  0  0  0
  190.1890  177.0100  138.9340 C   0  0  1  0  0  3  0  0  0  0  0  0
  188.2060  177.0860  137.5500 C   0  0  0  0  0  2  0  0  0  0  0  0
  187.5570  175.7630  137.1820 C   0  0  0  0  0  2  0  0  0  0  0  0
  186.6100  175.9660  136.0450 C   0  0  0  0  0  0  0  0  0  0  0  0
  187.0640  176.0430  134.8730 O   0  0  0  0  0  0  0  0  0  0  0  0
  185.2040  176.1020  136.2610 N   0  0  0  0  0  2  0  0  0  0  0  0
  183.7330  177.3520  137.7860 C   0  0  0  0  0  2  0  0  0  0  0  0
  183.7100  174.8420  137.7720 C   0  0  2  0  0  3  0  0  0  0  0  0
  182.5260  177.3600  136.8470 C   0  0  0  0  0  2  0  0  0  0  0  0
  182.5230  174.8570  136.8100 C   0  0  0  0  0  2  0  0  0  0  0  0
  184.5850  176.0920  137.5870 C   0  0  1  0  0  3  0  0  0  0  0  0
  184.5170  173.5700  137.5860 C   0  0  0  0  0  1  0  0  0  0  0  0
  181.6810  176.1060  137.0540 C   0  0  0  0  0  2  0  0  0  0  0  0
  188.2570  178.1210  143.1560 O   0  0  0  0  0  0  0  0  0  0  0  0
  185.4600  179.3750  141.7580 C   0  0  0  0  0  2  0  0  0  0  0  0
  184.8100  178.4800  142.7020 N   0  0  0  0  0  0  0  0  0  0  0  0
  186.7880  178.7500  141.3870 C   0  0  0  0  0  2  0  0  0  0  0  0
  187.0810  177.7600  142.4910 C   0  0  2  0  0  3  0  0  0  0  0  0
  185.9020  177.8580  143.4370 C   0  0  0  0  0  2  0  0  0  0  0  0
  184.0650  179.3090  143.6390 C   0  0  0  0  0  2  0  0  0  0  0  0
  181.7280  178.7380  144.3700 C   0  0  0  0  0  2  0  0  0  0  0  0
  179.8990  178.8750  142.6160 C   0  0  0  0  0  2  0  0  0  0  0  0
  180.5450  177.5890  140.5340 C   0  0  0  0  0  2  0  0  0  0  0  0
  180.3390  178.6050  139.4240 C   0  0  0  0  0  2  0  0  0  0  0  0
  182.3850  178.6210  141.9270 C   0  0  0  0  0  2  0  0  0  0  0  0
  180.3830  178.1740  143.8830 C   0  0  0  0  0  2  0  0  0  0  0  0
  182.5950  179.3480  143.2540 C   0  0  2  0  0  3  0  0  0  0  0  0
  180.9180  178.7090  141.4820 C   0  0  0  0  0  0  0  0  0  0  0  0
  180.7120  179.7270  140.3800 C   0  0  0  0  0  2  0  0  0  0  0  0
  1  8  1  0  0  0  0
  2  9  1  0  0  0  0
  3 27  1  6  0  0  0
  3  4  1  0  0  0  0
  4  2  1  0  0  0  0
  4  7  2  0  0  0  0
  5  6  1  0  0  0  0
  6  2  2  0  0  0  0
  8  5  2  0  0  0  0
  8  3  1  0  0  0  0
  9 10  3  0  0  0  0
 11  1  1  0  0  0  0
 12 15  1  6  0  0  0
 12 13  1  0  0  0  0
 14 12  1  0  0  0  0
 14 13  1  0  0  0  0
 14 11  1  1  0  0  0
 16 15  1  0  0  0  0
 17 19  1  0  0  0  0
 17 16  1  0  0  0  0
 18 17  2  0  0  0  0
 21 25  1  6  0  0  0
 22 26  1  0  0  0  0
 22 20  1  0  0  0  0
 23 26  1  0  0  0  0
 23 21  1  0  0  0  0
 24 19  1  6  0  0  0
 24 21  1  0  0  0  0
 24 20  1  0  0  0  0
 28 29  1  0  0  0  0
 29 32  1  0  0  0  0
 29 33  1  0  0  0  0
 30 28  1  0  0  0  0
 30 31  1  0  0  0  0
 31 27  1  1  0  0  0
 31 32  1  0  0  0  0
 35 39  1  0  0  0  0
 36 41  1  0  0  0  0
 37 42  1  0  0  0  0
 37 36  1  0  0  0  0
 38 40  1  0  0  0  0
 39 34  1  0  0  0  0
 40 33  1  1  0  0  0
 40 34  1  0  0  0  0
 41 38  1  0  0  0  0
 41 35  1  0  0  0  0
 42 41  1  0  0  0  0
M  END
>  <MODEL>
8

>  <REMARK>
 VINA RESULT:      -7.8      2.465      7.450
  Name = 
  11 active torsions:
  status: ('A' for Active; 'I' for Inactive)
    1  A    between atoms: C_3  and  C_10
    2  A    between atoms: C_3  and  C_15
    3  A    between atoms: O_4  and  N_7
    4  A    between atoms: O_4  and  C_37
    5  A    between atoms: C_5  and  N_21
    6  A    between atoms: C_5  and  C_31
    7  A    between atoms: O_6  and  C_12
    8  A    between atoms: O_6  and  C_26
    9  A    between atoms: C_9  and  C_22
   10  A    between atoms: C_15  and  C_17
   11  A    between atoms: C_24  and  N_28
                            x       y       z     vdW  Elec       q    Type
                         _______ _______ _______ _____ _____    ______ ____

>  <TORSDO>
F 11

$$$$
=
 OpenBabel11032419103D

 42 47  0  0  1  0  0  0  0  0999 V2000
  186.5520  178.6440  138.2580 N   0  0  0  0  0  2  0  0  0  0  0  0
  182.3680  177.7710  138.4500 C   0  0  0  0  0  0  0  0  0  0  0  0
  184.2560  179.4820  138.9010 C   0  0  2  0  0  3  0  0  0  0  0  0
  182.7960  179.1150  138.8770 C   0  0  0  0  0  0  0  0  0  0  0  0
  184.6690  177.2430  137.9650 N   0  0  0  0  0  0  0  0  0  0  0  0
  183.2770  176.9000  138.0170 C   0  0  0  0  0  3  0  0  0  0  0  0
  181.9410  179.9750  139.2250 O   0  0  0  0  0  0  0  0  0  0  0  0
  185.1480  178.3940  138.3510 C   0  0  0  0  0  0  0  0  0  0  0  0
  180.9830  177.3880  138.4810 C   0  0  0  0  0  0  0  0  0  0  0  0
  179.8690  177.0790  138.5060 N   0  0  0  0  0  0  0  0  0  0  0  0
  187.4070  177.7360  137.7210 O   0  0  0  0  0  0  0  0  0  0  0  0
  189.6060  177.8610  138.4720 C   0  0  2  0  0  3  0  0  0  0  0  0
  188.7610  178.5940  139.4270 N   0  0  0  0  0  2  0  0  0  0  0  0
  188.2620  177.3800  138.7660 C   0  0  1  0  0  3  0  0  0  0  0  0
  190.6090  176.9970  139.2130 C   0  0  0  0  0  2  0  0  0  0  0  0
  191.7710  176.6440  138.3020 C   0  0  0  0  0  2  0  0  0  0  0  0
  191.7120  175.1930  137.9510 C   0  0  0  0  0  0  0  0  0  0  0  0
  190.6060  174.5930  138.0000 O   0  0  0  0  0  0  0  0  0  0  0  0
  192.8870  174.4650  137.5890 N   0  0  0  0  0  2  0  0  0  0  0  0
  195.1130  174.4010  138.6340 C   0  0  0  0  0  2  0  0  0  0  0  0
  194.8750  174.8810  136.1820 C   0  0  2  0  0  3  0  0  0  0  0  0
  195.3810  172.9300  138.3110 C   0  0  0  0  0  2  0  0  0  0  0  0
  195.1130  173.4050  135.8680 C   0  0  0  0  0  2  0  0  0  0  0  0
  194.2270  175.0530  137.5650 C   0  0  1  0  0  3  0  0  0  0  0  0
  194.0290  175.5170  135.0920 C   0  0  0  0  0  1  0  0  0  0  0  0
  196.0210  172.7940  136.9320 C   0  0  0  0  0  2  0  0  0  0  0  0
  184.6450  179.8100  140.2070 O   0  0  0  0  0  0  0  0  0  0  0  0
  184.1570  178.3500  143.2040 C   0  0  0  0  0  2  0  0  0  0  0  0
  185.5480  177.9610  143.0330 N   0  0  0  0  0  0  0  0  0  0  0  0
  183.5440  178.4460  141.8230 C   0  0  0  0  0  2  0  0  0  0  0  0
  184.7160  178.5860  140.8790 C   0  0  2  0  0  3  0  0  0  0  0  0
  185.9460  178.5530  141.7640 C   0  0  0  0  0  2  0  0  0  0  0  0
  186.3110  178.6190  144.0830 C   0  0  0  0  0  2  0  0  0  0  0  0
  187.6220  177.7930  146.0640 C   0  0  0  0  0  2  0  0  0  0  0  0
  189.7860  176.5570  145.5870 C   0  0  0  0  0  2  0  0  0  0  0  0
  191.2550  177.8850  144.0080 C   0  0  0  0  0  2  0  0  0  0  0  0
  191.5790  176.8820  142.9150 C   0  0  0  0  0  2  0  0  0  0  0  0
  188.7480  178.1480  143.8230 C   0  0  0  0  0  2  0  0  0  0  0  0
  189.0400  177.4670  146.5590 C   0  0  0  0  0  2  0  0  0  0  0  0
  187.4610  177.7330  144.5340 C   0  0  2  0  0  3  0  0  0  0  0  0
  189.9080  177.2210  144.2090 C   0  0  0  0  0  0  0  0  0  0  0  0
  190.2280  176.2170  143.1220 C   0  0  0  0  0  2  0  0  0  0  0  0
  1  8  1  0  0  0  0
  2  9  1  0  0  0  0
  2  4  1  0  0  0  0
  3 27  1  1  0  0  0
  4  3  1  0  0  0  0
  4  7  2  0  0  0  0
  5  6  1  0  0  0  0
  5  8  2  0  0  0  0
  6  2  2  0  0  0  0
  8  3  1  0  0  0  0
  9 10  3  0  0  0  0
 11  1  1  0  0  0  0
 12 14  1  0  0  0  0
 12 15  1  1  0  0  0
 12 13  1  0  0  0  0
 14 11  1  6  0  0  0
 14 13  1  0  0  0  0
 16 15  1  0  0  0  0
 17 18  2  0  0  0  0
 17 16  1  0  0  0  0
 19 17  1  0  0  0  0
 21 25  1  6  0  0  0
 21 24  1  0  0  0  0
 22 20  1  0  0  0  0
 23 21  1  0  0  0  0
 23 26  1  0  0  0  0
 24 19  1  6  0  0  0
 24 20  1  0  0  0  0
 26 22  1  0  0  0  0
 29 28  1  0  0  0  0
 29 33  1  0  0  0  0
 30 28  1  0  0  0  0
 31 27  1  1  0  0  0
 31 32  1  0  0  0  0
 31 30  1  0  0  0  0
 32 29  1  0  0  0  0
 34 39  1  0  0  0  0
 35 39  1  0  0  0  0
 36 41  1  0  0  0  0
 37 42  1  0  0  0  0
 37 36  1  0  0  0  0
 38 41  1  0  0  0  0
 38 40  1  0  0  0  0
 40 33  1  6  0  0  0
 40 34  1  0  0  0  0
 41 35  1  0  0  0  0
 42 41  1  0  0  0  0
M  END
>  <MODEL>
9

>  <REMARK>
 VINA RESULT:      -7.8      2.230      8.376
  Name = 
  11 active torsions:
  status: ('A' for Active; 'I' for Inactive)
    1  A    between atoms: C_3  and  C_10
    2  A    between atoms: C_3  and  C_15
    3  A    between atoms: O_4  and  N_7
    4  A    between atoms: O_4  and  C_37
    5  A    between atoms: C_5  and  N_21
    6  A    between atoms: C_5  and  C_31
    7  A    between atoms: O_6  and  C_12
    8  A    between atoms: O_6  and  C_26
    9  A    between atoms: C_9  and  C_22
   10  A    between atoms: C_15  and  C_17
   11  A    between atoms: C_24  and  N_28
                            x       y       z     vdW  Elec       q    Type
                         _______ _______ _______ _____ _____    ______ ____

>  <TORSDO>
F 11

$$$$
