=
 OpenBabel11042410593D

 29 32  0  0  1  0  0  0  0  0999 V2000
  186.1380  178.0090  140.3440 C   0  0  0  0  0  2  0  0  0  0  0  0
  180.8140  177.7900  138.9780 N   0  0  2  0  0  0  0  0  0  0  0  0
  180.9480  176.3590  139.3180 C   0  0  2  0  0  3  0  0  0  0  0  0
  188.1070  175.4020  136.8520 N   0  0  0  0  0  0  0  0  0  0  0  0
  185.9060  178.9590  141.5060 C   0  0  0  0  0  2  0  0  0  0  0  0
  186.6840  177.2570  137.6110 C   0  0  2  0  0  3  0  0  0  0  0  0
  181.0030  178.0930  137.5460 C   0  0  1  0  0  3  0  0  0  0  0  0
  187.4050  178.2980  139.6900 N   0  0  0  0  0  0  0  0  0  0  0  0
  186.8780  176.1390  136.9140 C   0  0  0  0  0  0  0  0  0  0  0  0
  179.9230  175.9810  140.3710 C   0  0  0  0  0  1  0  0  0  0  0  0
  182.5130  178.1500  140.7390 N   0  0  2  0  0  0  0  0  0  0  0  0
  183.4580  179.2160  141.0630 C   0  0  0  0  0  2  0  0  0  0  0  0
  189.6980  177.2250  137.0380 C   0  0  0  0  0  2  0  0  0  0  0  0
  185.4350  175.5780  136.0180 S   0  0  0  0  0  0  0  0  0  0  0  0
  184.6080  177.1590  136.4100 C   0  0  2  0  0  3  0  0  0  0  0  0
  189.0400  179.6130  137.2690 C   0  0  0  0  0  1  0  0  0  0  0  0
  185.3890  177.8150  137.4490 N   0  0  0  0  0  2  0  0  0  0  0  0
  183.1820  176.9080  136.8780 C   0  0  0  0  0  2  0  0  0  0  0  0
  182.4540  178.2320  137.0560 C   0  0  0  0  0  2  0  0  0  0  0  0
  189.3600  175.8110  137.4730 C   0  0  0  0  0  2  0  0  0  0  0  0
  182.3420  175.9320  139.7760 C   0  0  0  0  0  2  0  0  0  0  0  0
  184.3600  179.5610  143.3480 C   0  0  0  0  0  1  0  0  0  0  0  0
  187.6970  177.9140  138.4820 C   0  0  0  0  0  0  0  0  0  0  0  0
  183.2430  177.1240  140.0070 C   0  0  0  0  0  2  0  0  0  0  0  0
  184.5070  178.7570  142.0740 C   0  0  2  0  0  3  0  0  0  0  0  0
  181.5410  178.7600  139.8250 C   0  0  0  0  0  2  0  0  0  0  0  0
  189.0670  178.2640  137.9600 C   0  0  1  0  0  3  0  0  0  0  0  0
  180.2760  177.6710  135.2870 F   0  0  0  0  0  0  0  0  0  0  0  0
  180.0620  177.3310  136.6110 C   0  0  0  0  0  2  0  0  0  0  0  0
  1  5  1  0  0  0  0
  2  3  1  0  0  0  0
  2 26  1  1  0  0  0
  3 21  1  0  0  0  0
  3 10  1  1  0  0  0
  4  9  2  0  0  0  0
  4 20  1  0  0  0  0
  5 25  1  0  0  0  0
  6  9  1  6  0  0  0
  6 23  1  0  0  0  0
  7 29  1  6  0  0  0
  7  2  1  0  0  0  0
  8  1  1  0  0  0  0
 11 26  1  6  0  0  0
 11 12  1  0  0  0  0
 12 25  1  0  0  0  0
 13 20  1  0  0  0  0
 13 27  1  0  0  0  0
 14 15  1  0  0  0  0
 14  9  1  0  0  0  0
 15 18  1  1  0  0  0
 15 17  1  0  0  0  0
 17  6  1  0  0  0  0
 18 19  1  0  0  0  0
 19  7  1  0  0  0  0
 21 24  1  0  0  0  0
 23  8  2  0  0  0  0
 24 11  1  0  0  0  0
 25 22  1  1  0  0  0
 27 16  1  6  0  0  0
 27 23  1  0  0  0  0
 28 29  1  0  0  0  0
M  END
>  <MODEL>
1

>  <REMARK>
 VINA RESULT:      -5.5      0.000      0.000
  Name = 
  1 active torsions:
  status: ('A' for Active; 'I' for Inactive)
    1  A    between atoms: C_7  and  C_24
                            x       y       z     vdW  Elec       q    Type
                         _______ _______ _______ _____ _____    ______ ____

>  <TORSDO>
F 1

$$$$
=
 OpenBabel11042410593D

 29 32  0  0  1  0  0  0  0  0999 V2000
  186.2850  178.8030  141.0300 C   0  0  0  0  0  2  0  0  0  0  0  0
  189.8460  176.7320  144.6750 N   0  0  2  0  0  0  0  0  0  0  0  0
  190.5050  178.0470  144.5410 C   0  0  2  0  0  3  0  0  0  0  0  0
  189.0360  179.1610  137.1350 N   0  0  0  0  0  2  0  0  0  0  0  0
  185.1080  178.7340  141.9870 C   0  0  0  0  0  2  0  0  0  0  0  0
  188.0970  177.8540  138.9930 C   0  0  0  0  0  0  0  0  0  0  0  0
  190.3940  175.6870  143.7890 C   0  0  1  0  0  3  0  0  0  0  0  0
  185.8560  178.5240  139.6680 N   0  0  0  0  0  0  0  0  0  0  0  0
  189.1300  178.3210  138.2940 C   0  0  0  0  0  0  0  0  0  0  0  0
  190.6400  178.6980  145.9040 C   0  0  0  0  0  1  0  0  0  0  0  0
  187.7490  177.9790  144.2690 N   0  0  2  0  0  0  0  0  0  0  0  0
  186.4060  177.6250  143.8150 C   0  0  0  0  0  2  0  0  0  0  0  0
  186.9670  178.3270  136.1800 C   0  0  0  0  0  2  0  0  0  0  0  0
  190.7250  177.8180  138.9260 S   0  0  0  0  0  0  0  0  0  0  0  0
  189.8840  176.6510  140.0520 C   0  0  2  0  0  3  0  0  0  0  0  0
  185.6150  176.5020  137.1950 C   0  0  0  0  0  1  0  0  0  0  0  0
  188.4690  176.9950  140.0600 N   0  0  0  0  0  2  0  0  0  0  0  0
  190.4750  176.7460  141.4500 C   0  0  0  0  0  2  0  0  0  0  0  0
  189.8750  175.6690  142.3410 C   0  0  0  0  0  2  0  0  0  0  0  0
  187.7930  179.5620  136.4910 C   0  0  0  0  0  2  0  0  0  0  0  0
  189.8270  179.0140  143.5710 C   0  0  0  0  0  2  0  0  0  0  0  0
  184.4060  178.9900  144.3510 C   0  0  0  0  0  1  0  0  0  0  0  0
  186.6650  178.1570  138.7180 C   0  0  0  0  0  0  0  0  0  0  0  0
  188.4790  178.4980  143.1210 C   0  0  0  0  0  2  0  0  0  0  0  0
  185.5950  178.8600  143.4250 C   0  0  2  0  0  3  0  0  0  0  0  0
  188.3670  176.7100  144.6700 C   0  0  0  0  0  2  0  0  0  0  0  0
  186.0690  177.9400  137.3510 C   0  0  1  0  0  3  0  0  0  0  0  0
  192.2390  175.2810  145.2850 F   0  0  0  0  0  0  0  0  0  0  0  0
  191.8950  175.4430  143.9550 C   0  0  0  0  0  2  0  0  0  0  0  0
  1  5  1  0  0  0  0
  2 26  1  6  0  0  0
  3  2  1  0  0  0  0
  3 10  1  1  0  0  0
  4  9  1  0  0  0  0
  5 25  1  0  0  0  0
  6 17  1  0  0  0  0
  7 29  1  6  0  0  0
  7  2  1  0  0  0  0
  8  1  1  0  0  0  0
  9 14  1  0  0  0  0
  9  6  2  0  0  0  0
 11 24  1  6  0  0  0
 11 26  1  0  0  0  0
 12 11  1  0  0  0  0
 13 20  1  0  0  0  0
 13 27  1  0  0  0  0
 14 15  1  0  0  0  0
 15 17  1  0  0  0  0
 15 18  1  1  0  0  0
 18 19  1  0  0  0  0
 19  7  1  0  0  0  0
 20  4  1  0  0  0  0
 21  3  1  0  0  0  0
 23  6  1  0  0  0  0
 23  8  2  0  0  0  0
 24 21  1  0  0  0  0
 25 12  1  0  0  0  0
 25 22  1  1  0  0  0
 27 16  1  6  0  0  0
 27 23  1  0  0  0  0
 29 28  1  0  0  0  0
M  END
>  <MODEL>
2

>  <REMARK>
 VINA RESULT:      -5.5      4.683      7.388
  Name = 
  1 active torsions:
  status: ('A' for Active; 'I' for Inactive)
    1  A    between atoms: C_7  and  C_24
                            x       y       z     vdW  Elec       q    Type
                         _______ _______ _______ _____ _____    ______ ____

>  <TORSDO>
F 1

$$$$
=
 OpenBabel11042410593D

 29 32  0  0  1  0  0  0  0  0999 V2000
  182.5290  177.9500  136.3010 C   0  0  0  0  0  2  0  0  0  0  0  0
  179.3720  179.6830  140.4590 N   0  0  2  0  0  0  0  0  0  0  0  0
  180.0010  180.9910  140.1830 C   0  0  2  0  0  3  0  0  0  0  0  0
  186.8970  178.3960  138.1940 N   0  0  0  0  0  0  0  0  0  0  0  0
  181.3460  177.5740  135.4250 C   0  0  0  0  0  2  0  0  0  0  0  0
  184.5940  177.5420  138.2760 C   0  0  2  0  0  3  0  0  0  0  0  0
  180.0460  178.8970  141.5110 C   0  0  1  0  0  3  0  0  0  0  0  0
  183.6310  177.0220  136.1020 N   0  0  0  0  0  0  0  0  0  0  0  0
  185.6080  178.2270  138.8010 C   0  0  0  0  0  0  0  0  0  0  0  0
  178.9310  182.0330  139.9220 C   0  0  0  0  0  1  0  0  0  0  0  0
  179.6090  179.2950  138.0280 N   0  0  2  0  0  0  0  0  0  0  0  0
  179.6340  178.1160  137.1650 C   0  0  0  0  0  2  0  0  0  0  0  0
  187.0960  176.2720  137.0360 C   0  0  0  0  0  2  0  0  0  0  0  0
  185.2450  178.9680  140.3870 S   0  0  0  0  0  0  0  0  0  0  0  0
  183.6860  178.0180  140.4470 C   0  0  2  0  0  3  0  0  0  0  0  0
  185.3480  174.5030  137.0870 C   0  0  0  0  0  1  0  0  0  0  0  0
  183.4490  177.4830  139.1140 N   0  0  0  0  0  2  0  0  0  0  0  0
  182.5380  178.9130  140.8870 C   0  0  0  0  0  2  0  0  0  0  0  0
  181.2780  178.0820  141.0800 C   0  0  0  0  0  2  0  0  0  0  0  0
  187.3250  177.7710  136.9500 C   0  0  0  0  0  2  0  0  0  0  0  0
  181.0140  180.9920  139.0390 C   0  0  0  0  0  2  0  0  0  0  0  0
  179.0430  178.2020  134.7580 C   0  0  0  0  0  1  0  0  0  0  0  0
  184.6060  176.8670  136.9490 C   0  0  0  0  0  0  0  0  0  0  0  0
  180.9900  179.6900  138.2710 C   0  0  0  0  0  2  0  0  0  0  0  0
  180.1450  178.4470  135.7650 C   0  0  2  0  0  3  0  0  0  0  0  0
  179.0340  178.8340  139.2960 C   0  0  0  0  0  2  0  0  0  0  0  0
  185.6910  175.8900  136.5790 C   0  0  1  0  0  3  0  0  0  0  0  0
  180.6230  178.7650  143.8460 F   0  0  0  0  0  0  0  0  0  0  0  0
  180.1670  179.6160  142.8550 C   0  0  0  0  0  2  0  0  0  0  0  0
  2 26  1  6  0  0  0
  2  7  1  0  0  0  0
  3 10  1  6  0  0  0
  3  2  1  0  0  0  0
  4  9  2  0  0  0  0
  5 25  1  0  0  0  0
  5  1  1  0  0  0  0
  6 23  1  1  0  0  0
  6  9  1  0  0  0  0
  6 17  1  0  0  0  0
  7 29  1  1  0  0  0
  8  1  1  0  0  0  0
  8 23  2  0  0  0  0
  9 14  1  0  0  0  0
 11 12  1  6  0  0  0
 11 24  1  0  0  0  0
 11 26  1  0  0  0  0
 14 15  1  0  0  0  0
 15 18  1  6  0  0  0
 17 15  1  0  0  0  0
 18 19  1  0  0  0  0
 19  7  1  0  0  0  0
 20 13  1  0  0  0  0
 20  4  1  0  0  0  0
 21  3  1  0  0  0  0
 24 21  1  0  0  0  0
 25 22  1  6  0  0  0
 25 12  1  0  0  0  0
 27 23  1  0  0  0  0
 27 13  1  0  0  0  0
 27 16  1  1  0  0  0
 29 28  1  0  0  0  0
M  END
>  <MODEL>
3

>  <REMARK>
 VINA RESULT:      -5.3      2.742      5.220
  Name = 
  1 active torsions:
  status: ('A' for Active; 'I' for Inactive)
    1  A    between atoms: C_7  and  C_24
                            x       y       z     vdW  Elec       q    Type
                         _______ _______ _______ _____ _____    ______ ____

>  <TORSDO>
F 1

$$$$
=
 OpenBabel11042410593D

 29 32  0  0  1  0  0  0  0  0999 V2000
  180.5350  175.7770  139.7950 C   0  0  0  0  0  2  0  0  0  0  0  0
  183.9690  175.1060  135.5500 N   0  0  2  0  0  0  0  0  0  0  0  0
  184.8120  174.4130  136.5460 C   0  0  2  0  0  3  0  0  0  0  0  0
  183.0430  178.7590  142.5660 N   0  0  0  0  0  2  0  0  0  0  0  0
  179.4270  174.9530  139.1600 C   0  0  0  0  0  2  0  0  0  0  0  0
  182.0400  178.1630  140.4020 C   0  0  0  0  0  0  0  0  0  0  0  0
  184.2900  176.5370  135.3750 C   0  0  1  0  0  3  0  0  0  0  0  0
  179.9780  176.8790  140.5640 N   0  0  0  0  0  0  0  0  0  0  0  0
  183.0830  178.5090  141.1530 C   0  0  0  0  0  0  0  0  0  0  0  0
  185.1360  173.0130  136.0630 C   0  0  0  0  0  1  0  0  0  0  0  0
  182.0660  174.2310  136.8660 N   0  0  2  0  0  0  0  0  0  0  0  0
  180.6580  174.5900  137.0140 C   0  0  0  0  0  2  0  0  0  0  0  0
  180.8110  179.6920  142.7620 C   0  0  0  0  0  2  0  0  0  0  0  0
  184.6210  178.6420  140.2500 S   0  0  0  0  0  0  0  0  0  0  0  0
  183.6870  178.4920  138.6870 C   0  0  2  0  0  3  0  0  0  0  0  0
  179.2660  179.9910  140.8360 C   0  0  0  0  0  1  0  0  0  0  0  0
  182.3450  178.0360  139.0220 N   0  0  0  0  0  2  0  0  0  0  0  0
  184.3770  177.5140  137.7500 C   0  0  0  0  0  2  0  0  0  0  0  0
  183.6790  177.5100  136.3980 C   0  0  0  0  0  2  0  0  0  0  0  0
  181.8360  178.7590  143.3810 C   0  0  0  0  0  2  0  0  0  0  0  0
  184.2280  174.3520  137.9570 C   0  0  0  0  0  2  0  0  0  0  0  0
  178.9310  172.9710  137.7550 C   0  0  0  0  0  1  0  0  0  0  0  0
  180.6560  177.9360  140.9040 C   0  0  0  0  0  0  0  0  0  0  0  0
  182.7900  174.8170  137.9850 C   0  0  0  0  0  2  0  0  0  0  0  0
  180.0230  173.9090  138.2240 C   0  0  2  0  0  3  0  0  0  0  0  0
  182.5080  174.8970  135.6360 C   0  0  0  0  0  2  0  0  0  0  0  0
  179.9450  178.9730  141.7320 C   0  0  1  0  0  3  0  0  0  0  0  0
  185.9210  178.1290  134.5940 F   0  0  0  0  0  0  0  0  0  0  0  0
  185.7430  176.8140  134.9870 C   0  0  0  0  0  2  0  0  0  0  0  0
  1  8  1  0  0  0  0
  2 26  1  1  0  0  0
  2  3  1  0  0  0  0
  3 10  1  6  0  0  0
  3 21  1  0  0  0  0
  4 20  1  0  0  0  0
  5  1  1  0  0  0  0
  6 23  1  0  0  0  0
  6  9  2  0  0  0  0
  7 29  1  1  0  0  0
  7  2  1  0  0  0  0
  7 19  1  0  0  0  0
  8 23  2  0  0  0  0
  9  4  1  0  0  0  0
 11 26  1  6  0  0  0
 11 12  1  0  0  0  0
 11 24  1  0  0  0  0
 12 25  1  0  0  0  0
 13 20  1  0  0  0  0
 14  9  1  0  0  0  0
 15 18  1  6  0  0  0
 15 17  1  0  0  0  0
 15 14  1  0  0  0  0
 17  6  1  0  0  0  0
 19 18  1  0  0  0  0
 21 24  1  0  0  0  0
 23 27  1  0  0  0  0
 25 22  1  6  0  0  0
 25  5  1  0  0  0  0
 27 16  1  6  0  0  0
 27 13  1  0  0  0  0
 28 29  1  0  0  0  0
M  END
>  <MODEL>
4

>  <REMARK>
 VINA RESULT:      -4.9      3.155      6.734
  Name = 
  1 active torsions:
  status: ('A' for Active; 'I' for Inactive)
    1  A    between atoms: C_7  and  C_24
                            x       y       z     vdW  Elec       q    Type
                         _______ _______ _______ _____ _____    ______ ____

>  <TORSDO>
F 1

$$$$
=
 OpenBabel11042410593D

 29 32  0  0  1  0  0  0  0  0999 V2000
  189.7590  174.3970  137.2120 C   0  0  0  0  0  2  0  0  0  0  0  0
  194.8300  173.5340  135.2620 N   0  0  2  0  0  0  0  0  0  0  0  0
  195.0250  172.8100  136.5340 C   0  0  2  0  0  3  0  0  0  0  0  0
  190.6600  177.2770  140.9210 N   0  0  0  0  0  2  0  0  0  0  0  0
  189.0860  173.6230  136.0920 C   0  0  0  0  0  2  0  0  0  0  0  0
  190.8580  176.7140  138.5370 C   0  0  0  0  0  0  0  0  0  0  0  0
  195.2580  174.9470  135.2970 C   0  0  1  0  0  3  0  0  0  0  0  0
  188.9410  175.5300  137.6170 N   0  0  0  0  0  0  0  0  0  0  0  0
  191.3960  177.0150  139.7170 C   0  0  0  0  0  0  0  0  0  0  0  0
  195.4850  171.3920  136.2550 C   0  0  0  0  0  1  0  0  0  0  0  0
  192.4860  172.7600  135.4250 N   0  0  2  0  0  0  0  0  0  0  0  0
  191.2130  173.1860  134.8510 C   0  0  0  0  0  2  0  0  0  0  0  0
  188.6780  178.3170  139.9840 C   0  0  0  0  0  2  0  0  0  0  0  0
  193.1830  177.0690  139.7120 S   0  0  0  0  0  0  0  0  0  0  0  0
  193.1570  176.9520  137.8900 C   0  0  2  0  0  3  0  0  0  0  0  0
  188.3270  178.6740  137.5470 C   0  0  0  0  0  1  0  0  0  0  0  0
  191.8110  176.5620  137.4960 N   0  0  0  0  0  2  0  0  0  0  0  0
  194.1810  175.9350  137.4100 C   0  0  0  0  0  2  0  0  0  0  0  0
  194.2590  175.9550  135.8900 C   0  0  0  0  0  2  0  0  0  0  0  0
  189.2090  177.3410  141.0180 C   0  0  0  0  0  2  0  0  0  0  0  0
  193.8070  172.7860  137.4580 C   0  0  0  0  0  2  0  0  0  0  0  0
  189.2770  171.6560  134.5940 C   0  0  0  0  0  1  0  0  0  0  0  0
  189.4010  176.5560  138.2700 C   0  0  0  0  0  0  0  0  0  0  0  0
  192.5730  173.3190  136.7670 C   0  0  0  0  0  2  0  0  0  0  0  0
  190.0240  172.5450  135.5650 C   0  0  2  0  0  3  0  0  0  0  0  0
  193.5160  173.3950  134.5960 C   0  0  0  0  0  2  0  0  0  0  0  0
  188.4170  177.6320  138.6460 C   0  0  1  0  0  3  0  0  0  0  0  0
  197.0880  176.4830  135.6060 F   0  0  0  0  0  0  0  0  0  0  0  0
  196.7200  175.1520  135.6980 C   0  0  0  0  0  2  0  0  0  0  0  0
  1  8  1  0  0  0  0
  2 26  1  1  0  0  0
  2  7  1  0  0  0  0
  2  3  1  0  0  0  0
  3 10  1  6  0  0  0
  3 21  1  0  0  0  0
  4 20  1  0  0  0  0
  5  1  1  0  0  0  0
  6  9  2  0  0  0  0
  7 29  1  1  0  0  0
  7 19  1  0  0  0  0
  8 23  2  0  0  0  0
  9  4  1  0  0  0  0
 11 26  1  6  0  0  0
 11 24  1  0  0  0  0
 12 11  1  0  0  0  0
 12 25  1  0  0  0  0
 13 20  1  0  0  0  0
 14  9  1  0  0  0  0
 15 18  1  1  0  0  0
 15 14  1  0  0  0  0
 17 15  1  0  0  0  0
 17  6  1  0  0  0  0
 19 18  1  0  0  0  0
 23  6  1  0  0  0  0
 23 27  1  0  0  0  0
 24 21  1  0  0  0  0
 25 22  1  6  0  0  0
 25  5  1  0  0  0  0
 27 16  1  6  0  0  0
 27 13  1  0  0  0  0
 28 29  1  0  0  0  0
M  END
>  <MODEL>
5

>  <REMARK>
 VINA RESULT:      -4.9      6.170     10.546
  Name = 
  1 active torsions:
  status: ('A' for Active; 'I' for Inactive)
    1  A    between atoms: C_7  and  C_24
                            x       y       z     vdW  Elec       q    Type
                         _______ _______ _______ _____ _____    ______ ____

>  <TORSDO>
F 1

$$$$
=
 OpenBabel11042410593D

 29 32  0  0  1  0  0  0  0  0999 V2000
  182.4770  179.8850  138.5910 C   0  0  0  0  0  2  0  0  0  0  0  0
  181.0600  174.5940  138.0750 N   0  0  2  0  0  0  0  0  0  0  0  0
  181.9780  174.6250  136.9170 C   0  0  2  0  0  3  0  0  0  0  0  0
  180.5130  181.7670  134.6590 N   0  0  0  0  0  0  0  0  0  0  0  0
  183.1180  179.6860  139.9540 C   0  0  0  0  0  2  0  0  0  0  0  0
  180.3460  180.4500  136.7280 C   0  0  2  0  0  3  0  0  0  0  0  0
  179.6450  174.8390  137.7330 C   0  0  1  0  0  3  0  0  0  0  0  0
  181.8280  181.1840  138.5140 N   0  0  0  0  0  0  0  0  0  0  0  0
  180.1950  180.5870  135.4120 C   0  0  0  0  0  0  0  0  0  0  0  0
  183.0380  173.5510  137.0700 C   0  0  0  0  0  1  0  0  0  0  0  0
  182.5900  176.2680  139.0630 N   0  0  2  0  0  0  0  0  0  0  0  0
  182.4830  177.2720  140.1180 C   0  0  0  0  0  2  0  0  0  0  0  0
  179.9950  183.4690  136.3100 C   0  0  0  0  0  2  0  0  0  0  0  0
  179.5470  179.1350  134.5960 S   0  0  0  0  0  0  0  0  0  0  0  0
  179.1940  178.4030  136.2320 C   0  0  2  0  0  3  0  0  0  0  0  0
  179.1640  182.9640  138.6000 C   0  0  0  0  0  1  0  0  0  0  0  0
  179.8980  179.1990  137.2270 N   0  0  0  0  0  2  0  0  0  0  0  0
  179.6500  176.9530  136.2720 C   0  0  0  0  0  2  0  0  0  0  0  0
  179.2170  176.3090  137.5810 C   0  0  0  0  0  2  0  0  0  0  0  0
  180.9670  183.0280  135.2310 C   0  0  0  0  0  2  0  0  0  0  0  0
  182.6430  175.9760  136.6570 C   0  0  0  0  0  2  0  0  0  0  0  0
  184.4530  178.1350  141.3540 C   0  0  0  0  0  1  0  0  0  0  0  0
  180.9100  181.4820  137.6420 C   0  0  0  0  0  0  0  0  0  0  0  0
  182.3970  176.9470  137.7890 C   0  0  0  0  0  2  0  0  0  0  0  0
  183.6460  178.2620  140.0800 C   0  0  2  0  0  3  0  0  0  0  0  0
  181.4560  175.3620  139.2750 C   0  0  0  0  0  2  0  0  0  0  0  0
  180.3600  182.8840  137.6710 C   0  0  1  0  0  3  0  0  0  0  0  0
  179.2260  172.5560  137.0860 F   0  0  0  0  0  0  0  0  0  0  0  0
  179.0720  173.8750  136.6940 C   0  0  0  0  0  2  0  0  0  0  0  0
  1  5  1  0  0  0  0
  2 26  1  1  0  0  0
  3 10  1  1  0  0  0
  3  2  1  0  0  0  0
  4 20  1  0  0  0  0
  4  9  2  0  0  0  0
  5 25  1  0  0  0  0
  6  9  1  1  0  0  0
  6 17  1  0  0  0  0
  6 23  1  0  0  0  0
  7 29  1  6  0  0  0
  7  2  1  0  0  0  0
  8  1  1  0  0  0  0
 11 24  1  6  0  0  0
 11 26  1  0  0  0  0
 11 12  1  0  0  0  0
 13 27  1  0  0  0  0
 14  9  1  0  0  0  0
 14 15  1  0  0  0  0
 15 18  1  6  0  0  0
 15 17  1  0  0  0  0
 18 19  1  0  0  0  0
 19  7  1  0  0  0  0
 20 13  1  0  0  0  0
 21  3  1  0  0  0  0
 21 24  1  0  0  0  0
 23 27  1  0  0  0  0
 23  8  2  0  0  0  0
 25 12  1  0  0  0  0
 25 22  1  1  0  0  0
 27 16  1  1  0  0  0
 29 28  1  0  0  0  0
M  END
>  <MODEL>
6

>  <REMARK>
 VINA RESULT:      -4.5      3.817      6.198
  Name = 
  1 active torsions:
  status: ('A' for Active; 'I' for Inactive)
    1  A    between atoms: C_7  and  C_24
                            x       y       z     vdW  Elec       q    Type
                         _______ _______ _______ _____ _____    ______ ____

>  <TORSDO>
F 1

$$$$
=
 OpenBabel11042410593D

 29 32  0  0  1  0  0  0  0  0999 V2000
  186.7060  174.1390  136.2670 C   0  0  0  0  0  2  0  0  0  0  0  0
  182.7200  177.1580  138.5600 N   0  0  2  0  0  0  0  0  0  0  0  0
  182.5150  177.6480  137.1810 C   0  0  2  0  0  3  0  0  0  0  0  0
  189.8190  177.5280  134.9710 N   0  0  0  0  0  2  0  0  0  0  0  0
  186.0460  172.8160  136.6170 C   0  0  0  0  0  2  0  0  0  0  0  0
  188.4190  176.4270  136.6650 C   0  0  0  0  0  0  0  0  0  0  0  0
  183.6100  178.0060  139.3770 C   0  0  1  0  0  3  0  0  0  0  0  0
  188.1530  174.0280  136.3510 N   0  0  0  0  0  0  0  0  0  0  0  0
  188.8020  177.5050  135.9830 C   0  0  0  0  0  0  0  0  0  0  0  0
  181.0750  177.4220  136.7620 C   0  0  0  0  0  1  0  0  0  0  0  0
  183.3830  175.0340  137.4810 N   0  0  2  0  0  0  0  0  0  0  0  0
  184.1630  173.8670  137.8850 C   0  0  0  0  0  2  0  0  0  0  0  0
  191.3100  175.8200  135.8350 C   0  0  0  0  0  2  0  0  0  0  0  0
  187.9220  178.9980  136.4240 S   0  0  0  0  0  0  0  0  0  0  0  0
  187.1870  178.1160  137.8440 C   0  0  2  0  0  3  0  0  0  0  0  0
  190.8890  174.5530  137.9340 C   0  0  0  0  0  1  0  0  0  0  0  0
  187.4350  176.6940  137.6520 N   0  0  0  0  0  2  0  0  0  0  0  0
  185.6960  178.4020  137.9310 C   0  0  0  0  0  2  0  0  0  0  0  0
  185.1220  177.7890  139.2000 C   0  0  0  0  0  2  0  0  0  0  0  0
  190.6510  176.3940  134.5940 C   0  0  0  0  0  2  0  0  0  0  0  0
  183.4570  177.0500  136.1370 C   0  0  0  0  0  2  0  0  0  0  0  0
  183.8780  171.6350  136.8420 C   0  0  0  0  0  1  0  0  0  0  0  0
  188.9500  175.0500  136.4670 C   0  0  0  0  0  0  0  0  0  0  0  0
  184.2570  175.8990  136.7020 C   0  0  0  0  0  2  0  0  0  0  0  0
  184.5340  172.9900  136.6910 C   0  0  2  0  0  3  0  0  0  0  0  0
  183.0480  175.7260  138.7300 C   0  0  0  0  0  2  0  0  0  0  0  0
  190.4290  174.7690  136.5050 C   0  0  1  0  0  3  0  0  0  0  0  0
  181.7900  179.5610  139.6500 F   0  0  0  0  0  0  0  0  0  0  0  0
  183.1620  179.4640  139.4920 C   0  0  0  0  0  2  0  0  0  0  0  0
  1  8  1  0  0  0  0
  1  5  1  0  0  0  0
  2 26  1  6  0  0  0
  2  7  1  0  0  0  0
  3 10  1  6  0  0  0
  3  2  1  0  0  0  0
  4  9  1  0  0  0  0
  5 25  1  0  0  0  0
  6 17  1  0  0  0  0
  7 29  1  6  0  0  0
  8 23  2  0  0  0  0
  9 14  1  0  0  0  0
  9  6  2  0  0  0  0
 11 24  1  6  0  0  0
 11 12  1  0  0  0  0
 11 26  1  0  0  0  0
 13 27  1  0  0  0  0
 14 15  1  0  0  0  0
 15 18  1  6  0  0  0
 17 15  1  0  0  0  0
 18 19  1  0  0  0  0
 19  7  1  0  0  0  0
 20  4  1  0  0  0  0
 20 13  1  0  0  0  0
 21 24  1  0  0  0  0
 21  3  1  0  0  0  0
 23 27  1  0  0  0  0
 23  6  1  0  0  0  0
 25 22  1  1  0  0  0
 25 12  1  0  0  0  0
 27 16  1  1  0  0  0
 29 28  1  0  0  0  0
M  END
>  <MODEL>
7

>  <REMARK>
 VINA RESULT:      -4.4      2.542      4.671
  Name = 
  1 active torsions:
  status: ('A' for Active; 'I' for Inactive)
    1  A    between atoms: C_7  and  C_24
                            x       y       z     vdW  Elec       q    Type
                         _______ _______ _______ _____ _____    ______ ____

>  <TORSDO>
F 1

$$$$
=
 OpenBabel11042410593D

 29 32  0  0  1  0  0  0  0  0999 V2000
  185.3010  179.0040  140.2150 C   0  0  0  0  0  2  0  0  0  0  0  0
  187.9190  175.9140  136.4920 N   0  0  2  0  0  0  0  0  0  0  0  0
  187.9380  177.1620  135.7020 C   0  0  2  0  0  3  0  0  0  0  0  0
  181.1780  179.8890  137.9630 N   0  0  0  0  0  2  0  0  0  0  0  0
  186.3940  178.8520  141.2600 C   0  0  0  0  0  2  0  0  0  0  0  0
  182.8750  178.3250  138.8070 C   0  0  0  0  0  0  0  0  0  0  0  0
  186.7800  175.0240  136.1930 C   0  0  1  0  0  3  0  0  0  0  0  0
  183.9920  179.0490  140.8450 N   0  0  0  0  0  0  0  0  0  0  0  0
  182.1310  178.8260  137.8230 C   0  0  0  0  0  0  0  0  0  0  0  0
  189.3640  177.5070  135.3170 C   0  0  0  0  0  1  0  0  0  0  0  0
  188.0720  177.4070  138.4590 N   0  0  2  0  0  0  0  0  0  0  0  0
  187.7650  177.2790  139.8810 C   0  0  0  0  0  2  0  0  0  0  0  0
  180.4020  179.4630  140.2230 C   0  0  0  0  0  2  0  0  0  0  0  0
  182.4110  178.0580  136.2330 S   0  0  0  0  0  0  0  0  0  0  0  0
  183.4100  176.7710  137.0570 C   0  0  2  0  0  3  0  0  0  0  0  0
  181.2460  177.6030  141.6430 C   0  0  0  0  0  1  0  0  0  0  0  0
  183.6940  177.2360  138.4080 N   0  0  0  0  0  2  0  0  0  0  0  0
  184.6970  176.5240  136.2850 C   0  0  0  0  0  2  0  0  0  0  0  0
  185.4490  175.3490  136.8920 C   0  0  0  0  0  2  0  0  0  0  0  0
  180.8130  180.5270  139.2210 C   0  0  0  0  0  2  0  0  0  0  0  0
  187.2790  178.3640  136.3780 C   0  0  0  0  0  2  0  0  0  0  0  0
  188.8420  178.6870  141.6170 C   0  0  0  0  0  1  0  0  0  0  0  0
  182.8790  178.8090  140.2150 C   0  0  0  0  0  0  0  0  0  0  0  0
  186.9470  178.0780  137.8240 C   0  0  0  0  0  2  0  0  0  0  0  0
  187.7400  178.6370  140.5800 C   0  0  2  0  0  3  0  0  0  0  0  0
  188.1310  176.0320  137.9520 C   0  0  0  0  0  2  0  0  0  0  0  0
  181.6010  178.9310  141.0030 C   0  0  1  0  0  3  0  0  0  0  0  0
  186.2440  173.3030  134.5940 F   0  0  0  0  0  0  0  0  0  0  0  0
  186.6710  174.6130  134.7240 C   0  0  0  0  0  2  0  0  0  0  0  0
  1  8  1  0  0  0  0
  1  5  1  0  0  0  0
  2 26  1  1  0  0  0
  3 10  1  1  0  0  0
  3 21  1  0  0  0  0
  3  2  1  0  0  0  0
  4 20  1  0  0  0  0
  6 23  1  0  0  0  0
  7 29  1  6  0  0  0
  7  2  1  0  0  0  0
  7 19  1  0  0  0  0
  9  4  1  0  0  0  0
  9  6  2  0  0  0  0
 11 24  1  6  0  0  0
 11 12  1  0  0  0  0
 12 25  1  0  0  0  0
 13 27  1  0  0  0  0
 14 15  1  0  0  0  0
 14  9  1  0  0  0  0
 15 18  1  6  0  0  0
 15 17  1  0  0  0  0
 17  6  1  0  0  0  0
 18 19  1  0  0  0  0
 20 13  1  0  0  0  0
 21 24  1  0  0  0  0
 23  8  2  0  0  0  0
 23 27  1  0  0  0  0
 25  5  1  0  0  0  0
 25 22  1  1  0  0  0
 26 11  1  0  0  0  0
 27 16  1  6  0  0  0
 28 29  1  0  0  0  0
M  END
>  <MODEL>
8

>  <REMARK>
 VINA RESULT:      -4.4      2.328      6.317
  Name = 
  1 active torsions:
  status: ('A' for Active; 'I' for Inactive)
    1  A    between atoms: C_7  and  C_24
                            x       y       z     vdW  Elec       q    Type
                         _______ _______ _______ _____ _____    ______ ____

>  <TORSDO>
F 1

$$$$
=
 OpenBabel11042410593D

 29 32  0  0  1  0  0  0  0  0999 V2000
  180.9780  174.8970  138.4620 C   0  0  0  0  0  2  0  0  0  0  0  0
  185.2590  174.1350  135.0920 N   0  0  2  0  0  0  0  0  0  0  0  0
  185.9510  173.7050  136.3250 C   0  0  2  0  0  3  0  0  0  0  0  0
  182.5320  178.5400  141.1400 N   0  0  0  0  0  2  0  0  0  0  0  0
  180.1190  173.8510  137.7720 C   0  0  0  0  0  2  0  0  0  0  0  0
  182.0620  177.5270  138.9500 C   0  0  0  0  0  0  0  0  0  0  0  0
  185.4530  175.5590  134.7540 C   0  0  1  0  0  3  0  0  0  0  0  0
  180.1620  176.0060  138.9290 N   0  0  0  0  0  0  0  0  0  0  0  0
  182.8870  178.1100  139.8180 C   0  0  0  0  0  0  0  0  0  0  0  0
  186.5150  172.3090  136.1390 C   0  0  0  0  0  1  0  0  0  0  0  0
  183.2330  173.1940  136.1530 N   0  0  2  0  0  0  0  0  0  0  0  0
  181.7940  173.3740  135.9770 C   0  0  0  0  0  2  0  0  0  0  0  0
  180.2200  179.1780  140.7660 C   0  0  0  0  0  2  0  0  0  0  0  0
  184.5530  178.3290  139.2060 S   0  0  0  0  0  0  0  0  0  0  0  0
  183.9800  177.8430  137.5420 C   0  0  2  0  0  3  0  0  0  0  0  0
  179.0780  178.9990  138.5640 C   0  0  0  0  0  1  0  0  0  0  0  0
  182.6550  177.2570  137.6890 N   0  0  0  0  0  2  0  0  0  0  0  0
  184.9480  176.8500  136.9170 C   0  0  0  0  0  2  0  0  0  0  0  0
  184.5450  176.5690  135.4770 C   0  0  0  0  0  2  0  0  0  0  0  0
  181.1910  178.4860  141.7060 C   0  0  0  0  0  2  0  0  0  0  0  0
  185.1000  173.7560  137.5940 C   0  0  0  0  0  2  0  0  0  0  0  0
  180.1360  171.6490  136.6330 C   0  0  0  0  0  1  0  0  0  0  0  0
  180.6380  177.1820  139.2160 C   0  0  0  0  0  0  0  0  0  0  0  0
  183.6450  174.0190  137.2790 C   0  0  0  0  0  2  0  0  0  0  0  0
  181.0020  172.7820  137.1410 C   0  0  2  0  0  3  0  0  0  0  0  0
  183.8420  173.7410  134.9360 C   0  0  0  0  0  2  0  0  0  0  0  0
  179.6650  178.2150  139.7210 C   0  0  1  0  0  3  0  0  0  0  0  0
  187.0520  177.3550  134.5940 F   0  0  0  0  0  0  0  0  0  0  0  0
  186.9170  175.9780  134.6040 C   0  0  0  0  0  2  0  0  0  0  0  0
  1  8  1  0  0  0  0
  2 26  1  1  0  0  0
  2  3  1  0  0  0  0
  3 10  1  6  0  0  0
  3 21  1  0  0  0  0
  4 20  1  0  0  0  0
  5  1  1  0  0  0  0
  6 23  1  0  0  0  0
  6  9  2  0  0  0  0
  7 29  1  1  0  0  0
  7  2  1  0  0  0  0
  7 19  1  0  0  0  0
  8 23  2  0  0  0  0
  9  4  1  0  0  0  0
 11 26  1  6  0  0  0
 11 24  1  0  0  0  0
 12 11  1  0  0  0  0
 12 25  1  0  0  0  0
 13 20  1  0  0  0  0
 14  9  1  0  0  0  0
 15 18  1  1  0  0  0
 15 17  1  0  0  0  0
 15 14  1  0  0  0  0
 17  6  1  0  0  0  0
 19 18  1  0  0  0  0
 23 27  1  0  0  0  0
 24 21  1  0  0  0  0
 25 22  1  6  0  0  0
 25  5  1  0  0  0  0
 27 16  1  6  0  0  0
 27 13  1  0  0  0  0
 28 29  1  0  0  0  0
M  END
>  <MODEL>
9

>  <REMARK>
 VINA RESULT:      -4.3      3.127      7.095
  Name = 
  1 active torsions:
  status: ('A' for Active; 'I' for Inactive)
    1  A    between atoms: C_7  and  C_24
                            x       y       z     vdW  Elec       q    Type
                         _______ _______ _______ _____ _____    ______ ____

>  <TORSDO>
F 1

$$$$
