=
 OpenBabel11042411023D

 39 43  0  0  1  0  0  0  0  0999 V2000
  189.3640  177.7460  140.4990 C   0  0  0  0  0  0  0  0  0  0  0  0
  188.0650  178.1640  140.4540 C   0  0  0  0  0  0  0  0  0  0  0  0
  188.8840  178.1590  138.2150 C   0  0  1  0  0  3  0  0  0  0  0  0
  187.2440  178.0330  144.0730 C   0  0  0  0  0  3  0  0  0  0  0  0
  191.2390  176.7150  144.0960 C   0  0  0  0  0  3  0  0  0  0  0  0
  187.8710  177.6950  145.2730 C   0  0  0  0  0  3  0  0  0  0  0  0
  187.3010  178.2730  141.6200 C   0  0  0  0  0  0  0  0  0  0  0  0
  187.6350  178.4440  139.0620 C   0  0  0  0  0  2  0  0  0  0  0  0
  189.1950  177.2600  145.2730 C   0  0  0  0  0  0  0  0  0  0  0  0
  189.7970  176.9280  146.4480 N   0  0  0  0  0  0  0  0  0  0  0  0
  191.0860  176.4950  146.4920 C   0  0  0  0  0  0  0  0  0  0  0  0
  189.2840  177.5030  142.8460 C   0  0  0  0  0  0  0  0  0  0  0  0
  191.6780  176.1570  147.7400 N   0  0  0  0  0  1  0  0  0  0  0  0
  189.9990  177.6950  139.1690 C   0  0  0  0  0  2  0  0  0  0  0  0
  189.9660  177.4160  141.6680 N   0  0  0  0  0  0  0  0  0  0  0  0
  187.9280  177.9430  142.8510 C   0  0  0  0  0  0  0  0  0  0  0  0
  191.8310  176.3820  145.3150 C   0  0  0  0  0  3  0  0  0  0  0  0
  189.9110  177.1610  144.0580 C   0  0  0  0  0  0  0  0  0  0  0  0
  183.5020  178.3580  142.1940 C   0  0  0  0  0  2  0  0  0  0  0  0
  183.7140  179.3090  143.3760 C   0  0  2  0  0  3  0  0  0  0  0  0
  185.6720  180.0180  142.1340 O   0  0  0  0  0  0  0  0  0  0  0  0
  185.1580  179.8280  143.4320 C   0  0  0  0  0  2  0  0  0  0  0  0
  185.8770  178.7590  141.5100 C   0  0  2  0  0  3  0  0  0  0  0  0
  184.8080  177.6850  141.7890 C   0  0  0  0  0  2  0  0  0  0  0  0
  183.3650  178.5950  144.6720 C   0  0  0  0  0  2  0  0  0  0  0  0
  183.8440  179.3230  145.7590 O   0  0  0  0  0  0  0  0  0  0  0  0
  184.5280  178.3860  146.5340 C   0  0  0  0  0  2  0  0  0  0  0  0
  185.4730  179.0350  147.3240 O   0  0  0  0  0  1  0  0  0  0  0  0
  188.5780  177.0910  137.2160 C   0  0  0  0  0  3  0  0  0  0  0  0
  187.8160  176.0510  137.5440 C   0  0  0  0  0  3  0  0  0  0  0  0
  187.5120  175.0020  136.5330 C   0  0  0  0  0  2  0  0  0  0  0  0
  186.0610  175.0140  136.2180 C   0  0  0  0  0  0  0  0  0  0  0  0
  185.1540  175.6810  137.0960 N   0  0  0  0  0  2  0  0  0  0  0  0
  185.6440  174.4490  135.1710 O   0  0  0  0  0  0  0  0  0  0  0  0
  183.7280  175.7750  136.8210 C   0  0  0  0  0  2  0  0  0  0  0  0
  182.9050  176.7550  138.1110 P   0  0  0  0  0  0  0  0  0  0  0  0
  182.7430  175.8350  139.5230 O   0  0  0  0  0  1  0  0  0  0  0  0
  181.3730  177.2270  137.5690 O   0  0  0  0  0  0  0  0  0  0  0  0
  183.7330  177.9850  138.4060 O   0  0  0  0  0  1  0  0  0  0  0  0
  1 15  1  0  0  0  0
  2  1  2  0  0  0  0
  2  7  1  0  0  0  0
  3 29  1  6  0  0  0
  3  8  1  0  0  0  0
  3 14  1  0  0  0  0
  4  6  2  0  0  0  0
  5 17  1  0  0  0  0
  6  9  1  0  0  0  0
  7 16  2  0  0  0  0
  8  2  1  0  0  0  0
  9 10  2  0  0  0  0
 10 11  1  0  0  0  0
 11 13  1  0  0  0  0
 12 16  1  0  0  0  0
 12 18  1  0  0  0  0
 14  1  1  0  0  0  0
 15 12  2  0  0  0  0
 16  4  1  0  0  0  0
 17 11  2  0  0  0  0
 18  5  2  0  0  0  0
 18  9  1  0  0  0  0
 19 20  1  0  0  0  0
 20 22  1  0  0  0  0
 20 25  1  1  0  0  0
 21 22  1  0  0  0  0
 23  7  1  1  0  0  0
 23 24  1  0  0  0  0
 23 21  1  0  0  0  0
 24 19  1  0  0  0  0
 25 26  1  0  0  0  0
 26 27  1  0  0  0  0
 27 28  1  0  0  0  0
 29 30  2  0  0  0  0
 31 30  1  0  0  0  0
 32 31  1  0  0  0  0
 32 33  1  0  0  0  0
 34 32  2  0  0  0  0
 35 33  1  0  0  0  0
 35 36  1  0  0  0  0
 36 39  1  0  0  0  0
 36 37  1  0  0  0  0
 38 36  2  0  0  0  0
M  END
>  <MODEL>
1

>  <REMARK>
 VINA RESULT:      -8.4      0.000      0.000
  Name = 
  9 active torsions:
  status: ('A' for Active; 'I' for Inactive)
    1  A    between atoms: C_3  and  P_4
    2  A    between atoms: C_3  and  N_27
    3  A    between atoms: C_5  and  C_6
    4  A    between atoms: C_6  and  C_14
    5  A    between atoms: C_8  and  C_9
    6  A    between atoms: C_10  and  C_30
    7  A    between atoms: C_17  and  C_26
    8  A    between atoms: C_18  and  O_20
    9  A    between atoms: O_20  and  C_30
                            x       y       z     vdW  Elec       q    Type
                         _______ _______ _______ _____ _____    ______ ____

>  <TORSDO>
F 9

$$$$
=
 OpenBabel11042411023D

 39 43  0  0  1  0  0  0  0  0999 V2000
  187.8150  178.0080  141.0170 C   0  0  0  0  0  0  0  0  0  0  0  0
  186.5720  178.3260  140.5510 C   0  0  0  0  0  0  0  0  0  0  0  0
  187.9920  178.0670  138.6550 C   0  0  1  0  0  3  0  0  0  0  0  0
  184.7610  178.6400  143.7780 C   0  0  0  0  0  3  0  0  0  0  0  0
  188.6190  177.6150  145.1060 C   0  0  0  0  0  3  0  0  0  0  0  0
  185.0300  178.5150  145.1410 C   0  0  0  0  0  3  0  0  0  0  0  0
  185.5060  178.5420  141.4300 C   0  0  0  0  0  0  0  0  0  0  0  0
  186.5470  178.3810  139.0690 C   0  0  0  0  0  2  0  0  0  0  0  0
  186.3120  178.1750  145.5750 C   0  0  0  0  0  0  0  0  0  0  0  0
  186.5640  178.0510  146.9060 N   0  0  0  0  0  0  0  0  0  0  0  0
  187.7980  177.7170  147.3700 C   0  0  0  0  0  0  0  0  0  0  0  0
  187.0790  178.0860  143.2590 C   0  0  0  0  0  0  0  0  0  0  0  0
  188.0200  177.5960  148.7690 N   0  0  0  0  0  1  0  0  0  0  0  0
  188.8030  177.8160  139.9390 C   0  0  0  0  0  2  0  0  0  0  0  0
  188.0690  177.8840  142.3430 N   0  0  0  0  0  0  0  0  0  0  0  0
  185.7660  178.4290  142.8220 C   0  0  0  0  0  0  0  0  0  0  0  0
  188.8490  177.4930  146.4770 C   0  0  0  0  0  3  0  0  0  0  0  0
  187.3450  177.9580  144.6350 C   0  0  0  0  0  0  0  0  0  0  0  0
  182.8570  179.3450  138.7640 C   0  0  0  0  0  2  0  0  0  0  0  0
  182.4350  177.8720  138.7560 C   0  0  2  0  0  3  0  0  0  0  0  0
  183.1770  177.9060  141.0650 O   0  0  0  0  0  0  0  0  0  0  0  0
  183.0750  177.0960  139.9170 C   0  0  0  0  0  2  0  0  0  0  0  0
  184.1590  178.9100  140.8580 C   0  0  2  0  0  3  0  0  0  0  0  0
  184.2070  179.5260  139.4470 C   0  0  0  0  0  2  0  0  0  0  0  0
  182.8220  177.2400  137.4290 C   0  0  0  0  0  2  0  0  0  0  0  0
  183.6720  176.1570  137.6490 O   0  0  0  0  0  0  0  0  0  0  0  0
  184.4620  176.0950  136.5010 C   0  0  0  0  0  2  0  0  0  0  0  0
  184.7120  177.3840  136.0370 O   0  0  0  0  0  1  0  0  0  0  0  0
  188.0110  176.8530  137.7840 C   0  0  0  0  0  3  0  0  0  0  0  0
  188.1500  176.9640  136.4660 C   0  0  0  0  0  3  0  0  0  0  0  0
  188.1780  175.7440  135.6140 C   0  0  0  0  0  2  0  0  0  0  0  0
  189.5310  175.1330  135.6570 C   0  0  0  0  0  0  0  0  0  0  0  0
  190.6840  175.9750  135.6920 N   0  0  0  0  0  2  0  0  0  0  0  0
  189.6500  173.8780  135.6760 O   0  0  0  0  0  0  0  0  0  0  0  0
  192.0360  175.4440  135.7860 C   0  0  0  0  0  2  0  0  0  0  0  0
  192.5810  175.4240  137.5200 P   0  0  0  0  0  0  0  0  0  0  0  0
  191.2390  175.4390  138.5510 O   0  0  0  0  0  1  0  0  0  0  0  0
  193.5390  176.7850  137.8240 O   0  0  0  0  0  1  0  0  0  0  0  0
  193.3940  174.1740  137.7710 O   0  0  0  0  0  0  0  0  0  0  0  0
  1 15  1  0  0  0  0
  2  1  2  0  0  0  0
  2  7  1  0  0  0  0
  3 29  1  6  0  0  0
  3  8  1  0  0  0  0
  3 14  1  0  0  0  0
  4  6  2  0  0  0  0
  5 17  1  0  0  0  0
  6  9  1  0  0  0  0
  7 16  2  0  0  0  0
  8  2  1  0  0  0  0
  9 10  2  0  0  0  0
 10 11  1  0  0  0  0
 11 13  1  0  0  0  0
 12 18  1  0  0  0  0
 14  1  1  0  0  0  0
 15 12  2  0  0  0  0
 16 12  1  0  0  0  0
 16  4  1  0  0  0  0
 17 11  2  0  0  0  0
 18  5  2  0  0  0  0
 18  9  1  0  0  0  0
 19 24  1  0  0  0  0
 20 25  1  6  0  0  0
 20 19  1  0  0  0  0
 20 22  1  0  0  0  0
 22 21  1  0  0  0  0
 23 21  1  0  0  0  0
 23  7  1  6  0  0  0
 24 23  1  0  0  0  0
 25 26  1  0  0  0  0
 27 26  1  0  0  0  0
 28 27  1  0  0  0  0
 30 29  2  0  0  0  0
 31 32  1  0  0  0  0
 31 30  1  0  0  0  0
 32 34  2  0  0  0  0
 32 33  1  0  0  0  0
 33 35  1  0  0  0  0
 35 36  1  0  0  0  0
 36 39  2  0  0  0  0
 36 38  1  0  0  0  0
 36 37  1  0  0  0  0
M  END
>  <MODEL>
2

>  <REMARK>
 VINA RESULT:      -8.2      3.445      5.399
  Name = 
  9 active torsions:
  status: ('A' for Active; 'I' for Inactive)
    1  A    between atoms: C_3  and  P_4
    2  A    between atoms: C_3  and  N_27
    3  A    between atoms: C_5  and  C_6
    4  A    between atoms: C_6  and  C_14
    5  A    between atoms: C_8  and  C_9
    6  A    between atoms: C_10  and  C_30
    7  A    between atoms: C_17  and  C_26
    8  A    between atoms: C_18  and  O_20
    9  A    between atoms: O_20  and  C_30
                            x       y       z     vdW  Elec       q    Type
                         _______ _______ _______ _____ _____    ______ ____

>  <TORSDO>
F 9

$$$$
=
 OpenBabel11042411023D

 39 43  0  0  1  0  0  0  0  0999 V2000
  185.3340  178.7660  143.0850 C   0  0  0  0  0  0  0  0  0  0  0  0
  185.4400  178.4760  144.4150 C   0  0  0  0  0  0  0  0  0  0  0  0
  183.2900  179.4460  144.0710 C   0  0  1  0  0  3  0  0  0  0  0  0
  188.8650  177.0440  144.4680 C   0  0  0  0  0  3  0  0  0  0  0  0
  188.4200  177.9370  140.3810 C   0  0  0  0  0  3  0  0  0  0  0  0
  189.8970  176.7730  143.5680 C   0  0  0  0  0  3  0  0  0  0  0  0
  186.5990  177.8910  144.9350 C   0  0  0  0  0  0  0  0  0  0  0  0
  184.2050  178.8460  145.1490 C   0  0  0  0  0  2  0  0  0  0  0  0
  189.7430  177.0720  142.2150 C   0  0  0  0  0  0  0  0  0  0  0  0
  190.7520  176.8000  141.3430 N   0  0  0  0  0  0  0  0  0  0  0  0
  190.6410  177.0730  140.0150 C   0  0  0  0  0  0  0  0  0  0  0  0
  187.5000  177.9320  142.6520 C   0  0  0  0  0  0  0  0  0  0  0  0
  191.7180  176.7720  139.1380 N   0  0  0  0  0  1  0  0  0  0  0  0
  184.0390  179.3760  142.7290 C   0  0  0  0  0  2  0  0  0  0  0  0
  186.3390  178.4970  142.2150 N   0  0  0  0  0  0  0  0  0  0  0  0
  187.6620  177.6190  144.0340 C   0  0  0  0  0  0  0  0  0  0  0  0
  189.4710  177.6480  139.5100 C   0  0  0  0  0  3  0  0  0  0  0  0
  188.5420  177.6540  141.7480 C   0  0  0  0  0  0  0  0  0  0  0  0
  188.0340  176.6370  148.2720 C   0  0  0  0  0  2  0  0  0  0  0  0
  188.6220  178.0280  148.5290 C   0  0  2  0  0  3  0  0  0  0  0  0
  186.7440  178.7940  147.2000 O   0  0  0  0  0  0  0  0  0  0  0  0
  188.0890  179.0600  147.5250 C   0  0  0  0  0  2  0  0  0  0  0  0
  186.6650  177.6120  146.4170 C   0  0  2  0  0  3  0  0  0  0  0  0
  187.6240  176.4730  146.8140 C   0  0  0  0  0  2  0  0  0  0  0  0
  190.1390  177.9600  148.4520 C   0  0  0  0  0  2  0  0  0  0  0  0
  190.5280  177.3230  147.2760 O   0  0  0  0  0  0  0  0  0  0  0  0
  191.6380  176.5630  147.6400 C   0  0  0  0  0  2  0  0  0  0  0  0
  192.2190  176.0090  146.5010 O   0  0  0  0  0  1  0  0  0  0  0  0
  182.0210  178.6610  143.9980 C   0  0  0  0  0  3  0  0  0  0  0  0
  181.0370  179.0340  143.1850 C   0  0  0  0  0  3  0  0  0  0  0  0
  179.7840  178.2330  143.1160 C   0  0  0  0  0  2  0  0  0  0  0  0
  179.6850  177.5670  141.7920 C   0  0  0  0  0  0  0  0  0  0  0  0
  180.2320  178.2080  140.6390 N   0  0  0  0  0  2  0  0  0  0  0  0
  179.1330  176.4380  141.7000 O   0  0  0  0  0  0  0  0  0  0  0  0
  180.2160  177.5890  139.3210 C   0  0  0  0  0  2  0  0  0  0  0  0
  181.8050  176.7710  138.9940 P   0  0  0  0  0  0  0  0  0  0  0  0
  182.8660  177.0260  140.2880 O   0  0  0  0  0  1  0  0  0  0  0  0
  182.4830  177.4040  137.5790 O   0  0  0  0  0  0  0  0  0  0  0  0
  181.5750  175.2870  138.8190 O   0  0  0  0  0  1  0  0  0  0  0  0
  1  2  1  0  0  0  0
  2  7  2  0  0  0  0
  2  8  1  0  0  0  0
  3 29  1  6  0  0  0
  3  8  1  0  0  0  0
  5 18  1  0  0  0  0
  6  4  2  0  0  0  0
  9  6  1  0  0  0  0
 10  9  1  0  0  0  0
 11 10  2  0  0  0  0
 12 16  2  0  0  0  0
 13 11  1  0  0  0  0
 14  1  1  0  0  0  0
 14  3  1  0  0  0  0
 15 12  1  0  0  0  0
 15  1  2  0  0  0  0
 16  4  1  0  0  0  0
 16  7  1  0  0  0  0
 17 11  1  0  0  0  0
 17  5  2  0  0  0  0
 18  9  2  0  0  0  0
 18 12  1  0  0  0  0
 19 20  1  0  0  0  0
 20 25  1  6  0  0  0
 21 22  1  0  0  0  0
 22 20  1  0  0  0  0
 23  7  1  6  0  0  0
 23 24  1  0  0  0  0
 23 21  1  0  0  0  0
 24 19  1  0  0  0  0
 26 27  1  0  0  0  0
 26 25  1  0  0  0  0
 28 27  1  0  0  0  0
 30 29  2  0  0  0  0
 31 30  1  0  0  0  0
 32 31  1  0  0  0  0
 33 32  1  0  0  0  0
 34 32  2  0  0  0  0
 35 33  1  0  0  0  0
 36 35  1  0  0  0  0
 36 37  1  0  0  0  0
 38 36  2  0  0  0  0
 39 36  1  0  0  0  0
M  END
>  <MODEL>
3

>  <REMARK>
 VINA RESULT:      -8.1      2.758      6.145
  Name = 
  9 active torsions:
  status: ('A' for Active; 'I' for Inactive)
    1  A    between atoms: C_3  and  P_4
    2  A    between atoms: C_3  and  N_27
    3  A    between atoms: C_5  and  C_6
    4  A    between atoms: C_6  and  C_14
    5  A    between atoms: C_8  and  C_9
    6  A    between atoms: C_10  and  C_30
    7  A    between atoms: C_17  and  C_26
    8  A    between atoms: C_18  and  O_20
    9  A    between atoms: O_20  and  C_30
                            x       y       z     vdW  Elec       q    Type
                         _______ _______ _______ _____ _____    ______ ____

>  <TORSDO>
F 9

$$$$
=
 OpenBabel11042411023D

 39 43  0  0  1  0  0  0  0  0999 V2000
  186.6150  178.6610  140.9320 C   0  0  0  0  0  0  0  0  0  0  0  0
  187.2740  178.3400  142.0830 C   0  0  0  0  0  0  0  0  0  0  0  0
  185.2120  179.3580  142.7090 C   0  0  1  0  0  3  0  0  0  0  0  0
  190.3490  176.8400  140.6410 C   0  0  0  0  0  3  0  0  0  0  0  0
  188.2160  177.8320  137.1540 C   0  0  0  0  0  3  0  0  0  0  0  0
  190.8860  176.5690  139.3820 C   0  0  0  0  0  3  0  0  0  0  0  0
  188.5270  177.7200  142.0480 C   0  0  0  0  0  0  0  0  0  0  0  0
  186.4850  178.7170  143.2810 C   0  0  0  0  0  2  0  0  0  0  0  0
  190.1740  176.9010  138.2300 C   0  0  0  0  0  0  0  0  0  0  0  0
  190.7030  176.6290  137.0070 N   0  0  0  0  0  0  0  0  0  0  0  0
  190.0390  176.9330  135.8590 C   0  0  0  0  0  0  0  0  0  0  0  0
  188.3610  177.7940  139.6000 C   0  0  0  0  0  0  0  0  0  0  0  0
  190.6270  176.6310  134.6000 N   0  0  0  0  0  1  0  0  0  0  0  0
  185.3100  179.3040  141.1740 C   0  0  0  0  0  2  0  0  0  0  0  0
  187.1400  178.3920  139.7110 N   0  0  0  0  0  0  0  0  0  0  0  0
  189.0920  177.4480  140.7740 C   0  0  0  0  0  0  0  0  0  0  0  0
  188.7830  177.5410  135.9130 C   0  0  0  0  0  3  0  0  0  0  0  0
  188.9050  177.5160  138.3330 C   0  0  0  0  0  0  0  0  0  0  0  0
  189.6260  178.1670  145.7040 C   0  0  0  0  0  2  0  0  0  0  0  0
  188.4320  177.3190  146.1540 C   0  0  2  0  0  3  0  0  0  0  0  0
  188.6940  176.2510  143.9920 O   0  0  0  0  0  0  0  0  0  0  0  0
  187.7470  176.6320  144.9630 C   0  0  0  0  0  2  0  0  0  0  0  0
  189.2160  177.4070  143.3530 C   0  0  2  0  0  3  0  0  0  0  0  0
  189.4590  178.6280  144.2610 C   0  0  0  0  0  2  0  0  0  0  0  0
  187.4360  178.1950  146.8950 C   0  0  0  0  0  2  0  0  0  0  0  0
  186.2040  177.5480  146.9770 O   0  0  0  0  0  0  0  0  0  0  0  0
  185.2650  178.5560  146.7590 C   0  0  0  0  0  2  0  0  0  0  0  0
  185.7210  179.7470  147.3190 O   0  0  0  0  0  1  0  0  0  0  0  0
  184.0140  178.6000  143.1800 C   0  0  0  0  0  3  0  0  0  0  0  0
  182.9070  179.2380  143.5470 C   0  0  0  0  0  3  0  0  0  0  0  0
  181.7180  178.4660  144.0030 C   0  0  0  0  0  2  0  0  0  0  0  0
  180.5960  178.6600  143.0490 C   0  0  0  0  0  0  0  0  0  0  0  0
  180.7290  179.6090  141.9900 N   0  0  0  0  0  2  0  0  0  0  0  0
  179.5450  177.9760  143.1720 O   0  0  0  0  0  0  0  0  0  0  0  0
  179.6910  179.8120  140.9900 C   0  0  0  0  0  2  0  0  0  0  0  0
  180.4320  180.3320  139.4140 P   0  0  0  0  0  0  0  0  0  0  0  0
  180.1010  181.9670  139.1300 O   0  0  0  0  0  1  0  0  0  0  0  0
  179.7900  179.4010  138.1560 O   0  0  0  0  0  0  0  0  0  0  0  0
  181.9280  180.1260  139.4770 O   0  0  0  0  0  1  0  0  0  0  0  0
  1 14  1  0  0  0  0
  1  2  1  0  0  0  0
  2  8  1  0  0  0  0
  3 29  1  1  0  0  0
  3  8  1  0  0  0  0
  4 16  1  0  0  0  0
  5 18  1  0  0  0  0
  6  4  2  0  0  0  0
  7  2  2  0  0  0  0
  9 18  2  0  0  0  0
  9  6  1  0  0  0  0
 10  9  1  0  0  0  0
 11 17  1  0  0  0  0
 11 10  2  0  0  0  0
 12 15  1  0  0  0  0
 12 16  2  0  0  0  0
 13 11  1  0  0  0  0
 14  3  1  0  0  0  0
 15  1  2  0  0  0  0
 16  7  1  0  0  0  0
 17  5  2  0  0  0  0
 18 12  1  0  0  0  0
 19 20  1  0  0  0  0
 20 25  1  6  0  0  0
 21 22  1  0  0  0  0
 22 20  1  0  0  0  0
 23  7  1  6  0  0  0
 23 21  1  0  0  0  0
 23 24  1  0  0  0  0
 24 19  1  0  0  0  0
 25 26  1  0  0  0  0
 27 26  1  0  0  0  0
 27 28  1  0  0  0  0
 29 30  2  0  0  0  0
 30 31  1  0  0  0  0
 32 34  2  0  0  0  0
 32 31  1  0  0  0  0
 33 32  1  0  0  0  0
 35 33  1  0  0  0  0
 36 39  1  0  0  0  0
 36 35  1  0  0  0  0
 37 36  1  0  0  0  0
 38 36  2  0  0  0  0
M  END
>  <MODEL>
4

>  <REMARK>
 VINA RESULT:      -8.0      3.257      6.501
  Name = 
  9 active torsions:
  status: ('A' for Active; 'I' for Inactive)
    1  A    between atoms: C_3  and  P_4
    2  A    between atoms: C_3  and  N_27
    3  A    between atoms: C_5  and  C_6
    4  A    between atoms: C_6  and  C_14
    5  A    between atoms: C_8  and  C_9
    6  A    between atoms: C_10  and  C_30
    7  A    between atoms: C_17  and  C_26
    8  A    between atoms: C_18  and  O_20
    9  A    between atoms: O_20  and  C_30
                            x       y       z     vdW  Elec       q    Type
                         _______ _______ _______ _____ _____    ______ ____

>  <TORSDO>
F 9

$$$$
=
 OpenBabel11042411023D

 39 43  0  0  1  0  0  0  0  0999 V2000
  185.4720  178.7210  143.0060 C   0  0  0  0  0  0  0  0  0  0  0  0
  185.6290  178.4620  144.3380 C   0  0  0  0  0  0  0  0  0  0  0  0
  183.4740  179.4420  144.0570 C   0  0  1  0  0  3  0  0  0  0  0  0
  189.0420  177.0000  144.2880 C   0  0  0  0  0  3  0  0  0  0  0  0
  188.4410  177.8020  140.2020 C   0  0  0  0  0  3  0  0  0  0  0  0
  190.0340  176.7000  143.3540 C   0  0  0  0  0  3  0  0  0  0  0  0
  186.8030  177.8790  144.8250 C   0  0  0  0  0  0  0  0  0  0  0  0
  184.4270  178.8600  145.1110 C   0  0  0  0  0  2  0  0  0  0  0  0
  189.8290  176.9690  142.0010 C   0  0  0  0  0  0  0  0  0  0  0  0
  190.8000  176.6670  141.0970 N   0  0  0  0  0  0  0  0  0  0  0  0
  190.6380  176.9100  139.7680 C   0  0  0  0  0  0  0  0  0  0  0  0
  187.6120  177.8580  142.5070 C   0  0  0  0  0  0  0  0  0  0  0  0
  191.6770  176.5790  138.8560 N   0  0  0  0  0  1  0  0  0  0  0  0
  184.1690  179.3340  142.6880 C   0  0  0  0  0  2  0  0  0  0  0  0
  186.4390  178.4230  142.1040 N   0  0  0  0  0  0  0  0  0  0  0  0
  187.8270  177.5760  143.8890 C   0  0  0  0  0  0  0  0  0  0  0  0
  189.4540  177.4830  139.2970 C   0  0  0  0  0  3  0  0  0  0  0  0
  188.6150  177.5500  141.5700 C   0  0  0  0  0  0  0  0  0  0  0  0
  188.2790  176.5480  148.1140 C   0  0  0  0  0  2  0  0  0  0  0  0
  189.0460  177.8630  148.2880 C   0  0  2  0  0  3  0  0  0  0  0  0
  187.1960  178.8180  147.0450 O   0  0  0  0  0  0  0  0  0  0  0  0
  188.5800  178.9250  147.2820 C   0  0  0  0  0  2  0  0  0  0  0  0
  186.9260  177.6340  146.3090 C   0  0  2  0  0  3  0  0  0  0  0  0
  187.7630  176.3970  146.6890 C   0  0  0  0  0  2  0  0  0  0  0  0
  190.5360  177.6080  148.1270 C   0  0  0  0  0  2  0  0  0  0  0  0
  190.7840  177.0050  146.8950 O   0  0  0  0  0  0  0  0  0  0  0  0
  191.9030  176.2040  147.1160 C   0  0  0  0  0  2  0  0  0  0  0  0
  192.5050  176.5670  148.3200 O   0  0  0  0  0  1  0  0  0  0  0  0
  182.1980  178.6670  144.0530 C   0  0  0  0  0  3  0  0  0  0  0  0
  181.1260  179.1250  143.4130 C   0  0  0  0  0  3  0  0  0  0  0  0
  179.8640  178.3340  143.4100 C   0  0  0  0  0  2  0  0  0  0  0  0
  179.5430  177.9070  142.0240 C   0  0  0  0  0  0  0  0  0  0  0  0
  179.6050  178.8590  140.9610 N   0  0  0  0  0  2  0  0  0  0  0  0
  179.2330  176.7070  141.7960 O   0  0  0  0  0  0  0  0  0  0  0  0
  179.3530  178.4970  139.5740 C   0  0  0  0  0  2  0  0  0  0  0  0
  180.9180  178.1240  138.7300 P   0  0  0  0  0  0  0  0  0  0  0  0
  181.0050  178.9710  137.2670 O   0  0  0  0  0  0  0  0  0  0  0  0
  181.0110  176.4630  138.4230 O   0  0  0  0  0  1  0  0  0  0  0  0
  182.0720  178.5350  139.6160 O   0  0  0  0  0  1  0  0  0  0  0  0
  1  2  1  0  0  0  0
  2  7  2  0  0  0  0
  2  8  1  0  0  0  0
  3 29  1  6  0  0  0
  3  8  1  0  0  0  0
  5 18  1  0  0  0  0
  6  4  2  0  0  0  0
  9  6  1  0  0  0  0
 10  9  1  0  0  0  0
 11 10  2  0  0  0  0
 12 16  2  0  0  0  0
 13 11  1  0  0  0  0
 14  1  1  0  0  0  0
 14  3  1  0  0  0  0
 15 12  1  0  0  0  0
 15  1  2  0  0  0  0
 16  4  1  0  0  0  0
 16  7  1  0  0  0  0
 17 11  1  0  0  0  0
 17  5  2  0  0  0  0
 18  9  2  0  0  0  0
 18 12  1  0  0  0  0
 19 20  1  0  0  0  0
 20 25  1  6  0  0  0
 21 22  1  0  0  0  0
 22 20  1  0  0  0  0
 23  7  1  6  0  0  0
 23 24  1  0  0  0  0
 23 21  1  0  0  0  0
 24 19  1  0  0  0  0
 26 27  1  0  0  0  0
 26 25  1  0  0  0  0
 27 28  1  0  0  0  0
 30 29  2  0  0  0  0
 31 30  1  0  0  0  0
 32 31  1  0  0  0  0
 33 32  1  0  0  0  0
 34 32  2  0  0  0  0
 35 33  1  0  0  0  0
 36 35  1  0  0  0  0
 36 39  1  0  0  0  0
 37 36  2  0  0  0  0
 38 36  1  0  0  0  0
M  END
>  <MODEL>
5

>  <REMARK>
 VINA RESULT:      -7.9      2.883      6.292
  Name = 
  9 active torsions:
  status: ('A' for Active; 'I' for Inactive)
    1  A    between atoms: C_3  and  P_4
    2  A    between atoms: C_3  and  N_27
    3  A    between atoms: C_5  and  C_6
    4  A    between atoms: C_6  and  C_14
    5  A    between atoms: C_8  and  C_9
    6  A    between atoms: C_10  and  C_30
    7  A    between atoms: C_17  and  C_26
    8  A    between atoms: C_18  and  O_20
    9  A    between atoms: O_20  and  C_30
                            x       y       z     vdW  Elec       q    Type
                         _______ _______ _______ _____ _____    ______ ____

>  <TORSDO>
F 9

$$$$
=
 OpenBabel11042411023D

 39 43  0  0  1  0  0  0  0  0999 V2000
  188.0410  177.8700  141.1160 C   0  0  0  0  0  0  0  0  0  0  0  0
  186.8320  178.2560  140.6130 C   0  0  0  0  0  0  0  0  0  0  0  0
  188.2790  177.8730  138.7590 C   0  0  1  0  0  3  0  0  0  0  0  0
  184.9670  178.7450  143.7870 C   0  0  0  0  0  3  0  0  0  0  0  0
  188.7190  177.5050  145.2300 C   0  0  0  0  0  3  0  0  0  0  0  0
  185.1950  178.6300  145.1590 C   0  0  0  0  0  3  0  0  0  0  0  0
  185.7610  178.5560  141.4610 C   0  0  0  0  0  0  0  0  0  0  0  0
  186.8470  178.2850  139.1300 C   0  0  0  0  0  2  0  0  0  0  0  0
  186.4410  178.2190  145.6300 C   0  0  0  0  0  0  0  0  0  0  0  0
  186.6520  178.1040  146.9690 N   0  0  0  0  0  0  0  0  0  0  0  0
  187.8520  177.7030  147.4710 C   0  0  0  0  0  0  0  0  0  0  0  0
  187.2580  178.0370  143.3370 C   0  0  0  0  0  0  0  0  0  0  0  0
  188.0310  177.5950  148.8770 N   0  0  0  0  0  1  0  0  0  0  0  0
  189.0410  177.5960  140.0670 C   0  0  0  0  0  2  0  0  0  0  0  0
  188.2550  177.7560  142.4500 N   0  0  0  0  0  0  0  0  0  0  0  0
  185.9800  178.4540  142.8610 C   0  0  0  0  0  0  0  0  0  0  0  0
  188.9070  177.3960  146.6080 C   0  0  0  0  0  3  0  0  0  0  0  0
  187.4810  177.9190  144.7210 C   0  0  0  0  0  0  0  0  0  0  0  0
  183.1540  179.2480  138.7240 C   0  0  0  0  0  2  0  0  0  0  0  0
  182.5490  177.8610  138.9660 C   0  0  2  0  0  3  0  0  0  0  0  0
  183.3600  178.1760  141.2300 O   0  0  0  0  0  0  0  0  0  0  0  0
  183.1210  177.2090  140.2330 C   0  0  0  0  0  2  0  0  0  0  0  0
  184.4550  178.9970  140.8480 C   0  0  2  0  0  3  0  0  0  0  0  0
  184.5360  179.3620  139.3540 C   0  0  0  0  0  2  0  0  0  0  0  0
  182.8110  176.9740  137.7590 C   0  0  0  0  0  2  0  0  0  0  0  0
  182.9670  177.7590  136.6180 O   0  0  0  0  0  0  0  0  0  0  0  0
  183.9790  177.1290  135.8950 C   0  0  0  0  0  2  0  0  0  0  0  0
  184.9510  176.6520  136.7730 O   0  0  0  0  0  1  0  0  0  0  0  0
  188.2420  176.6440  137.9100 C   0  0  0  0  0  3  0  0  0  0  0  0
  189.2930  176.2950  137.1730 C   0  0  0  0  0  3  0  0  0  0  0  0
  189.2440  175.0610  136.3420 C   0  0  0  0  0  2  0  0  0  0  0  0
  187.9150  174.9500  135.6860 C   0  0  0  0  0  0  0  0  0  0  0  0
  187.0740  173.8350  135.9820 N   0  0  0  0  0  2  0  0  0  0  0  0
  187.5370  175.8470  134.8860 O   0  0  0  0  0  0  0  0  0  0  0  0
  185.7410  173.6900  135.4160 C   0  0  0  0  0  2  0  0  0  0  0  0
  184.6340  172.8900  136.6140 P   0  0  0  0  0  0  0  0  0  0  0  0
  183.1210  173.6480  136.6020 O   0  0  0  0  0  1  0  0  0  0  0  0
  185.3060  173.0020  138.1630 O   0  0  0  0  0  1  0  0  0  0  0  0
  184.4690  171.4340  136.2440 O   0  0  0  0  0  0  0  0  0  0  0  0
  1 15  1  0  0  0  0
  2  1  2  0  0  0  0
  2  7  1  0  0  0  0
  3 29  1  6  0  0  0
  3  8  1  0  0  0  0
  3 14  1  0  0  0  0
  4  6  2  0  0  0  0
  5 17  1  0  0  0  0
  6  9  1  0  0  0  0
  7 16  2  0  0  0  0
  8  2  1  0  0  0  0
  9 10  2  0  0  0  0
 10 11  1  0  0  0  0
 11 13  1  0  0  0  0
 12 18  1  0  0  0  0
 14  1  1  0  0  0  0
 15 12  2  0  0  0  0
 16 12  1  0  0  0  0
 16  4  1  0  0  0  0
 17 11  2  0  0  0  0
 18  5  2  0  0  0  0
 18  9  1  0  0  0  0
 19 20  1  0  0  0  0
 19 24  1  0  0  0  0
 20 25  1  6  0  0  0
 20 22  1  0  0  0  0
 22 21  1  0  0  0  0
 23 21  1  0  0  0  0
 23  7  1  6  0  0  0
 24 23  1  0  0  0  0
 26 25  1  0  0  0  0
 27 26  1  0  0  0  0
 27 28  1  0  0  0  0
 30 29  2  0  0  0  0
 31 30  1  0  0  0  0
 32 33  1  0  0  0  0
 32 31  1  0  0  0  0
 34 32  2  0  0  0  0
 35 33  1  0  0  0  0
 35 36  1  0  0  0  0
 36 38  1  0  0  0  0
 37 36  1  0  0  0  0
 39 36  2  0  0  0  0
M  END
>  <MODEL>
6

>  <REMARK>
 VINA RESULT:      -7.7      2.349      4.264
  Name = 
  9 active torsions:
  status: ('A' for Active; 'I' for Inactive)
    1  A    between atoms: C_3  and  P_4
    2  A    between atoms: C_3  and  N_27
    3  A    between atoms: C_5  and  C_6
    4  A    between atoms: C_6  and  C_14
    5  A    between atoms: C_8  and  C_9
    6  A    between atoms: C_10  and  C_30
    7  A    between atoms: C_17  and  C_26
    8  A    between atoms: C_18  and  O_20
    9  A    between atoms: O_20  and  C_30
                            x       y       z     vdW  Elec       q    Type
                         _______ _______ _______ _____ _____    ______ ____

>  <TORSDO>
F 9

$$$$
=
 OpenBabel11042411023D

 39 43  0  0  1  0  0  0  0  0999 V2000
  188.7250  177.8650  141.1650 C   0  0  0  0  0  0  0  0  0  0  0  0
  187.5710  178.2530  140.5470 C   0  0  0  0  0  0  0  0  0  0  0  0
  189.2000  177.8940  138.8440 C   0  0  1  0  0  3  0  0  0  0  0  0
  185.3930  178.7010  143.5200 C   0  0  0  0  0  3  0  0  0  0  0  0
  188.9840  177.4560  145.3230 C   0  0  0  0  0  3  0  0  0  0  0  0
  185.4800  178.5710  144.9070 C   0  0  0  0  0  3  0  0  0  0  0  0
  186.4190  178.5400  141.2850 C   0  0  0  0  0  0  0  0  0  0  0  0
  187.7360  178.2980  139.0730 C   0  0  0  0  0  2  0  0  0  0  0  0
  186.6740  178.1580  145.4980 C   0  0  0  0  0  0  0  0  0  0  0  0
  186.7500  178.0290  146.8500 N   0  0  0  0  0  0  0  0  0  0  0  0
  187.8930  177.6260  147.4660 C   0  0  0  0  0  0  0  0  0  0  0  0
  187.7200  178.0050  143.2970 C   0  0  0  0  0  0  0  0  0  0  0  0
  187.9300  177.5030  148.8820 N   0  0  0  0  0  1  0  0  0  0  0  0
  189.8270  177.6060  140.2200 C   0  0  0  0  0  2  0  0  0  0  0  0
  188.8030  177.7370  142.5130 N   0  0  0  0  0  0  0  0  0  0  0  0
  186.4950  178.4230  142.6980 C   0  0  0  0  0  0  0  0  0  0  0  0
  189.0320  177.3320  146.7120 C   0  0  0  0  0  3  0  0  0  0  0  0
  187.8020  177.8720  144.6950 C   0  0  0  0  0  0  0  0  0  0  0  0
  183.7210  178.6020  138.5480 C   0  0  0  0  0  2  0  0  0  0  0  0
  182.8560  177.6640  139.3950 C   0  0  2  0  0  3  0  0  0  0  0  0
  183.9830  178.7180  141.2660 O   0  0  0  0  0  0  0  0  0  0  0  0
  183.4170  177.5090  140.8170 C   0  0  0  0  0  2  0  0  0  0  0  0
  185.1790  178.9830  140.5480 C   0  0  2  0  0  3  0  0  0  0  0  0
  185.1600  178.6260  139.0490 C   0  0  0  0  0  2  0  0  0  0  0  0
  182.7670  176.3050  138.7190 C   0  0  0  0  0  2  0  0  0  0  0  0
  181.5180  175.7350  138.9610 O   0  0  0  0  0  0  0  0  0  0  0  0
  181.3670  174.7840  137.9530 C   0  0  0  0  0  2  0  0  0  0  0  0
  180.1920  174.0650  138.1630 O   0  0  0  0  0  1  0  0  0  0  0  0
  189.2540  176.6750  137.9830 C   0  0  0  0  0  3  0  0  0  0  0  0
  190.3210  176.4210  137.2310 C   0  0  0  0  0  3  0  0  0  0  0  0
  190.3640  175.1950  136.3870 C   0  0  0  0  0  2  0  0  0  0  0  0
  191.7740  174.8550  136.0650 C   0  0  0  0  0  0  0  0  0  0  0  0
  192.5530  174.1150  137.0060 N   0  0  0  0  0  2  0  0  0  0  0  0
  192.2650  175.2080  134.9600 O   0  0  0  0  0  0  0  0  0  0  0  0
  193.9220  173.7050  136.7330 C   0  0  0  0  0  2  0  0  0  0  0  0
  195.0590  174.4930  137.9120 P   0  0  0  0  0  0  0  0  0  0  0  0
  195.5330  173.3780  139.0930 O   0  0  0  0  0  1  0  0  0  0  0  0
  194.2830  175.8020  138.6520 O   0  0  0  0  0  1  0  0  0  0  0  0
  196.2790  174.9880  137.1700 O   0  0  0  0  0  0  0  0  0  0  0  0
  1 15  1  0  0  0  0
  2  1  2  0  0  0  0
  2  7  1  0  0  0  0
  3 29  1  6  0  0  0
  3  8  1  0  0  0  0
  3 14  1  0  0  0  0
  4  6  2  0  0  0  0
  5 17  1  0  0  0  0
  6  9  1  0  0  0  0
  7 16  2  0  0  0  0
  8  2  1  0  0  0  0
  9 10  2  0  0  0  0
 10 11  1  0  0  0  0
 11 13  1  0  0  0  0
 12 18  1  0  0  0  0
 14  1  1  0  0  0  0
 15 12  2  0  0  0  0
 16 12  1  0  0  0  0
 16  4  1  0  0  0  0
 17 11  2  0  0  0  0
 18  5  2  0  0  0  0
 18  9  1  0  0  0  0
 19 24  1  0  0  0  0
 19 20  1  0  0  0  0
 20 25  1  6  0  0  0
 20 22  1  0  0  0  0
 22 21  1  0  0  0  0
 23 21  1  0  0  0  0
 23  7  1  1  0  0  0
 24 23  1  0  0  0  0
 25 26  1  0  0  0  0
 27 28  1  0  0  0  0
 27 26  1  0  0  0  0
 30 29  2  0  0  0  0
 31 30  1  0  0  0  0
 32 31  1  0  0  0  0
 32 33  1  0  0  0  0
 34 32  2  0  0  0  0
 35 33  1  0  0  0  0
 35 36  1  0  0  0  0
 36 38  1  0  0  0  0
 36 37  1  0  0  0  0
 39 36  2  0  0  0  0
M  END
>  <MODEL>
7

>  <REMARK>
 VINA RESULT:      -7.5      4.312      6.020
  Name = 
  9 active torsions:
  status: ('A' for Active; 'I' for Inactive)
    1  A    between atoms: C_3  and  P_4
    2  A    between atoms: C_3  and  N_27
    3  A    between atoms: C_5  and  C_6
    4  A    between atoms: C_6  and  C_14
    5  A    between atoms: C_8  and  C_9
    6  A    between atoms: C_10  and  C_30
    7  A    between atoms: C_17  and  C_26
    8  A    between atoms: C_18  and  O_20
    9  A    between atoms: O_20  and  C_30
                            x       y       z     vdW  Elec       q    Type
                         _______ _______ _______ _____ _____    ______ ____

>  <TORSDO>
F 9

$$$$
=
 OpenBabel11042411023D

 39 43  0  0  1  0  0  0  0  0999 V2000
  186.3490  178.6350  141.1070 C   0  0  0  0  0  0  0  0  0  0  0  0
  186.4690  178.3450  139.7790 C   0  0  0  0  0  0  0  0  0  0  0  0
  188.6730  178.6070  140.6470 C   0  0  1  0  0  3  0  0  0  0  0  0
  182.8780  178.0520  138.8810 C   0  0  0  0  0  3  0  0  0  0  0  0
  182.6210  178.9100  142.9910 C   0  0  0  0  0  3  0  0  0  0  0  0
  181.6350  178.1500  139.5070 C   0  0  0  0  0  3  0  0  0  0  0  0
  185.3390  178.1320  138.9830 C   0  0  0  0  0  0  0  0  0  0  0  0
  187.8920  178.2840  139.3650 C   0  0  0  0  0  2  0  0  0  0  0  0
  181.5570  178.4350  140.8700 C   0  0  0  0  0  0  0  0  0  0  0  0
  180.3410  178.5230  141.4730 N   0  0  0  0  0  0  0  0  0  0  0  0
  180.2200  178.7950  142.8010 C   0  0  0  0  0  0  0  0  0  0  0  0
  183.9920  178.5350  140.9960 C   0  0  0  0  0  0  0  0  0  0  0  0
  178.9310  178.8780  143.3930 N   0  0  0  0  0  1  0  0  0  0  0  0
  187.6500  178.8230  141.7760 C   0  0  0  0  0  2  0  0  0  0  0  0
  185.1380  178.7250  141.7110 N   0  0  0  0  0  0  0  0  0  0  0  0
  184.0660  178.2390  139.6030 C   0  0  0  0  0  0  0  0  0  0  0  0
  181.3610  178.9940  143.5840 C   0  0  0  0  0  3  0  0  0  0  0  0
  182.7370  178.6290  141.6230 C   0  0  0  0  0  0  0  0  0  0  0  0
  187.1470  177.8610  135.6020 C   0  0  0  0  0  2  0  0  0  0  0  0
  187.5070  176.4080  135.9240 C   0  0  2  0  0  3  0  0  0  0  0  0
  185.4560  176.4480  137.2180 O   0  0  0  0  0  0  0  0  0  0  0  0
  186.7520  175.9000  137.1620 C   0  0  0  0  0  2  0  0  0  0  0  0
  185.5330  177.8340  137.5160 C   0  0  2  0  0  3  0  0  0  0  0  0
  186.6900  178.6040  136.8520 C   0  0  0  0  0  2  0  0  0  0  0  0
  189.0060  176.2910  136.1420 C   0  0  0  0  0  2  0  0  0  0  0  0
  189.2650  175.8320  137.4330 O   0  0  0  0  0  0  0  0  0  0  0  0
  190.6460  175.9550  137.5770 C   0  0  0  0  0  2  0  0  0  0  0  0
  191.0600  175.2540  138.7080 O   0  0  0  0  0  1  0  0  0  0  0  0
  189.5800  177.4680  140.9810 C   0  0  0  0  0  3  0  0  0  0  0  0
  190.0020  177.2780  142.2280 C   0  0  0  0  0  3  0  0  0  0  0  0
  190.8970  176.1310  142.5450 C   0  0  0  0  0  2  0  0  0  0  0  0
  191.2050  176.1210  143.9980 C   0  0  0  0  0  0  0  0  0  0  0  0
  190.5250  177.0260  144.8690 N   0  0  0  0  0  2  0  0  0  0  0  0
  192.0520  175.3060  144.4520 O   0  0  0  0  0  0  0  0  0  0  0  0
  190.7400  177.0340  146.3080 C   0  0  0  0  0  2  0  0  0  0  0  0
  189.1720  177.3360  147.1750 P   0  0  0  0  0  0  0  0  0  0  0  0
  188.0360  177.9940  146.1060 O   0  0  0  0  0  0  0  0  0  0  0  0
  189.4330  178.4160  148.4510 O   0  0  0  0  0  1  0  0  0  0  0  0
  188.6470  176.0290  147.7230 O   0  0  0  0  0  1  0  0  0  0  0  0
  1 15  1  0  0  0  0
  1 14  1  0  0  0  0
  2  1  2  0  0  0  0
  3 29  1  1  0  0  0
  3 14  1  0  0  0  0
  4  6  2  0  0  0  0
  4 16  1  0  0  0  0
  5 17  1  0  0  0  0
  6  9  1  0  0  0  0
  7 16  2  0  0  0  0
  7  2  1  0  0  0  0
  8  2  1  0  0  0  0
  8  3  1  0  0  0  0
  9 10  2  0  0  0  0
  9 18  1  0  0  0  0
 10 11  1  0  0  0  0
 11 13  1  0  0  0  0
 11 17  2  0  0  0  0
 12 18  1  0  0  0  0
 12 15  2  0  0  0  0
 16 12  1  0  0  0  0
 18  5  2  0  0  0  0
 19 20  1  0  0  0  0
 19 24  1  0  0  0  0
 20 25  1  1  0  0  0
 20 22  1  0  0  0  0
 21 23  1  0  0  0  0
 22 21  1  0  0  0  0
 23  7  1  1  0  0  0
 24 23  1  0  0  0  0
 25 26  1  0  0  0  0
 26 27  1  0  0  0  0
 27 28  1  0  0  0  0
 29 30  2  0  0  0  0
 30 31  1  0  0  0  0
 31 32  1  0  0  0  0
 32 34  2  0  0  0  0
 32 33  1  0  0  0  0
 33 35  1  0  0  0  0
 35 36  1  0  0  0  0
 36 39  1  0  0  0  0
 36 38  1  0  0  0  0
 37 36  2  0  0  0  0
M  END
>  <MODEL>
8

>  <REMARK>
 VINA RESULT:      -7.4      3.809      8.478
  Name = 
  9 active torsions:
  status: ('A' for Active; 'I' for Inactive)
    1  A    between atoms: C_3  and  P_4
    2  A    between atoms: C_3  and  N_27
    3  A    between atoms: C_5  and  C_6
    4  A    between atoms: C_6  and  C_14
    5  A    between atoms: C_8  and  C_9
    6  A    between atoms: C_10  and  C_30
    7  A    between atoms: C_17  and  C_26
    8  A    between atoms: C_18  and  O_20
    9  A    between atoms: O_20  and  C_30
                            x       y       z     vdW  Elec       q    Type
                         _______ _______ _______ _____ _____    ______ ____

>  <TORSDO>
F 9

$$$$
=
 OpenBabel11042411023D

 39 43  0  0  1  0  0  0  0  0999 V2000
  187.6900  177.7840  138.2130 C   0  0  0  0  0  0  0  0  0  0  0  0
  187.4990  177.9480  139.5540 C   0  0  0  0  0  0  0  0  0  0  0  0
  185.4240  178.4210  138.4830 C   0  0  1  0  0  3  0  0  0  0  0  0
  190.9150  177.1440  140.7700 C   0  0  0  0  0  3  0  0  0  0  0  0
  191.3840  176.6230  136.6220 C   0  0  0  0  0  3  0  0  0  0  0  0
  192.1480  176.7630  140.2390 C   0  0  0  0  0  3  0  0  0  0  0  0
  188.5430  177.7400  140.4620 C   0  0  0  0  0  0  0  0  0  0  0  0
  186.1010  178.3380  139.8580 C   0  0  0  0  0  2  0  0  0  0  0  0
  192.2960  176.5930  138.8630 C   0  0  0  0  0  0  0  0  0  0  0  0
  193.5010  176.2160  138.3550 N   0  0  0  0  0  0  0  0  0  0  0  0
  193.6870  176.0350  137.0200 C   0  0  0  0  0  0  0  0  0  0  0  0
  189.9550  177.1940  138.5280 C   0  0  0  0  0  0  0  0  0  0  0  0
  194.9620  175.6410  136.5290 N   0  0  0  0  0  1  0  0  0  0  0  0
  186.4730  178.0460  137.4210 C   0  0  0  0  0  2  0  0  0  0  0  0
  188.8900  177.4100  137.7040 N   0  0  0  0  0  0  0  0  0  0  0  0
  189.8080  177.3630  139.9370 C   0  0  0  0  0  0  0  0  0  0  0  0
  192.6300  176.2360  136.1280 C   0  0  0  0  0  3  0  0  0  0  0  0
  191.1990  176.8070  137.9990 C   0  0  0  0  0  0  0  0  0  0  0  0
  188.5380  177.0120  144.2350 C   0  0  0  0  0  2  0  0  0  0  0  0
  189.8460  177.7960  144.3770 C   0  0  2  0  0  3  0  0  0  0  0  0
  189.0130  179.0450  142.4720 O   0  0  0  0  0  0  0  0  0  0  0  0
  190.1840  178.5660  143.0920 C   0  0  0  0  0  2  0  0  0  0  0  0
  188.2780  177.9570  141.9310 C   0  0  2  0  0  3  0  0  0  0  0  0
  188.2580  176.6690  142.7770 C   0  0  0  0  0  2  0  0  0  0  0  0
  190.9770  176.8410  144.7260 C   0  0  0  0  0  2  0  0  0  0  0  0
  191.6750  177.3160  145.8340 O   0  0  0  0  0  0  0  0  0  0  0  0
  191.4120  176.3860  146.8390 C   0  0  0  0  0  2  0  0  0  0  0  0
  192.0890  176.7500  148.0010 O   0  0  0  0  0  1  0  0  0  0  0  0
  184.2730  177.4700  138.4330 C   0  0  0  0  0  3  0  0  0  0  0  0
  183.6280  177.1250  139.5440 C   0  0  0  0  0  3  0  0  0  0  0  0
  182.4760  176.1840  139.4750 C   0  0  0  0  0  2  0  0  0  0  0  0
  181.2290  176.8880  139.8700 C   0  0  0  0  0  0  0  0  0  0  0  0
  181.3000  178.0040  140.7580 N   0  0  0  0  0  2  0  0  0  0  0  0
  180.1220  176.5040  139.4070 O   0  0  0  0  0  0  0  0  0  0  0  0
  180.1240  178.7700  141.1440 C   0  0  0  0  0  2  0  0  0  0  0  0
  180.3080  179.3840  142.8450 P   0  0  0  0  0  0  0  0  0  0  0  0
  181.8720  179.0680  143.4100 O   0  0  0  0  0  1  0  0  0  0  0  0
  179.1820  178.6130  143.8460 O   0  0  0  0  0  1  0  0  0  0  0  0
  180.0580  180.8750  142.8650 O   0  0  0  0  0  0  0  0  0  0  0  0
  1  2  1  0  0  0  0
  2  8  1  0  0  0  0
  2  7  2  0  0  0  0
  3 29  1  1  0  0  0
  3  8  1  0  0  0  0
  5 18  1  0  0  0  0
  6  4  1  0  0  0  0
  9  6  2  0  0  0  0
 10  9  1  0  0  0  0
 11 10  2  0  0  0  0
 12 16  1  0  0  0  0
 13 11  1  0  0  0  0
 14  1  1  0  0  0  0
 14  3  1  0  0  0  0
 15  1  2  0  0  0  0
 15 12  1  0  0  0  0
 16  7  1  0  0  0  0
 16  4  2  0  0  0  0
 17  5  2  0  0  0  0
 17 11  1  0  0  0  0
 18 12  2  0  0  0  0
 18  9  1  0  0  0  0
 19 20  1  0  0  0  0
 20 25  1  6  0  0  0
 21 22  1  0  0  0  0
 22 20  1  0  0  0  0
 23  7  1  6  0  0  0
 23 21  1  0  0  0  0
 23 24  1  0  0  0  0
 24 19  1  0  0  0  0
 25 26  1  0  0  0  0
 26 27  1  0  0  0  0
 27 28  1  0  0  0  0
 29 30  2  0  0  0  0
 31 30  1  0  0  0  0
 31 32  1  0  0  0  0
 32 33  1  0  0  0  0
 33 35  1  0  0  0  0
 34 32  2  0  0  0  0
 35 36  1  0  0  0  0
 36 39  2  0  0  0  0
 36 37  1  0  0  0  0
 36 38  1  0  0  0  0
M  END
>  <MODEL>
9

>  <REMARK>
 VINA RESULT:      -7.3      3.642      6.118
  Name = 
  9 active torsions:
  status: ('A' for Active; 'I' for Inactive)
    1  A    between atoms: C_3  and  P_4
    2  A    between atoms: C_3  and  N_27
    3  A    between atoms: C_5  and  C_6
    4  A    between atoms: C_6  and  C_14
    5  A    between atoms: C_8  and  C_9
    6  A    between atoms: C_10  and  C_30
    7  A    between atoms: C_17  and  C_26
    8  A    between atoms: C_18  and  O_20
    9  A    between atoms: O_20  and  C_30
                            x       y       z     vdW  Elec       q    Type
                         _______ _______ _______ _____ _____    ______ ____

>  <TORSDO>
F 9

$$$$
