=
 OpenBabel11042413033D

 40 45  0  0  1  0  0  0  0  0999 V2000
  182.2010  177.1550  139.3140 C   0  0  0  0  0  0  0  0  0  0  0  0
  181.2410  176.3250  138.7210 C   0  0  0  0  0  3  0  0  0  0  0  0
  179.7610  176.6640  140.5090 N   0  0  0  0  0  0  0  0  0  0  0  0
  180.6410  177.4880  141.1350 C   0  0  0  0  0  3  0  0  0  0  0  0
  181.8870  177.7500  140.5580 C   0  0  0  0  0  0  0  0  0  0  0  0
  180.0530  176.1010  139.3370 N   0  0  0  0  0  0  0  0  0  0  0  0
  184.5480  178.2260  142.7910 C   0  0  0  0  0  0  0  0  0  0  0  0
  182.8090  178.7270  141.2290 C   0  0  2  0  0  3  0  0  0  0  0  0
  184.1320  178.1440  141.4420 N   0  0  0  0  0  2  0  0  0  0  0  0
  182.1140  179.2880  142.8440 S   0  0  0  0  0  0  0  0  0  0  0  0
  185.1350  178.5030  145.4630 C   0  0  0  0  0  0  0  0  0  0  0  0
  183.6260  178.8010  143.6460 C   0  0  0  0  0  0  0  0  0  0  0  0
  185.7920  177.7680  143.2510 C   0  0  0  0  0  3  0  0  0  0  0  0
  186.0690  177.9190  144.6140 C   0  0  0  0  0  0  0  0  0  0  0  0
  187.2270  177.8140  146.6180 C   0  0  0  0  0  0  0  0  0  0  0  0
  185.7510  178.5460  147.0190 S   0  0  0  0  0  0  0  0  0  0  0  0
  187.2490  177.5260  145.2490 C   0  0  0  0  0  3  0  0  0  0  0  0
  183.8940  178.9580  145.0120 C   0  0  0  0  0  3  0  0  0  0  0  0
  188.2650  178.1250  148.7100 O   0  0  0  0  0  0  0  0  0  0  0  0
  188.3050  177.5410  147.5960 C   0  0  0  0  0  0  0  0  0  0  0  0
  189.3750  176.6690  147.3520 O   0  0  0  0  0  0  0  0  0  0  0  0
  191.6790  176.0770  147.0680 C   0  0  0  0  0  1  0  0  0  0  0  0
  190.5710  177.0330  146.6800 C   0  0  0  0  0  2  0  0  0  0  0  0
  184.0720  178.6410  138.5690 C   0  0  0  0  0  3  0  0  0  0  0  0
  185.2740  178.8550  137.8930 C   0  0  0  0  0  3  0  0  0  0  0  0
  185.3420  176.5130  137.2570 C   0  0  0  0  0  0  0  0  0  0  0  0
  184.1330  176.3130  137.9380 C   0  0  0  0  0  3  0  0  0  0  0  0
  185.9180  177.7980  137.2420 C   0  0  0  0  0  0  0  0  0  0  0  0
  183.4930  177.3650  138.6090 C   0  0  0  0  0  0  0  0  0  0  0  0
  185.9960  175.3860  136.5690 C   0  0  0  0  0  3  0  0  0  0  0  0
  186.4060  174.3430  137.2160 N   0  0  0  0  0  2  0  0  0  0  0  0
  187.1890  178.0750  136.5090 C   0  0  0  0  0  2  0  0  0  0  0  0
  187.9930  179.0190  137.2650 N   0  0  0  0  0  2  0  0  0  0  0  0
  189.1850  178.2990  137.7040 C   0  0  0  0  0  2  0  0  0  0  0  0
  188.9000  177.4170  138.8380 N   0  0  0  0  0  0  0  0  0  0  0  0
  190.4690  176.8240  140.5820 C   0  0  1  0  0  3  0  0  0  0  0  0
  191.6030  177.6360  140.6310 O   0  0  0  0  0  1  0  0  0  0  0  0
  189.3020  177.5560  141.1920 C   0  0  0  0  0  2  0  0  0  0  0  0
  188.6170  178.2200  140.0240 C   0  0  0  0  0  2  0  0  0  0  0  0
  190.0770  176.6000  139.1340 C   0  0  0  0  0  2  0  0  0  0  0  0
  1  5  1  0  0  0  0
  2  1  2  0  0  0  0
  2  6  1  0  0  0  0
  3  4  1  0  0  0  0
  5  4  2  0  0  0  0
  6  3  2  0  0  0  0
  7 13  2  0  0  0  0
  7 12  1  0  0  0  0
  8  5  1  1  0  0  0
  8  9  1  0  0  0  0
  8 10  1  0  0  0  0
  9  7  1  0  0  0  0
 10 12  1  0  0  0  0
 11 16  1  0  0  0  0
 12 18  2  0  0  0  0
 13 14  1  0  0  0  0
 14 17  1  0  0  0  0
 14 11  2  0  0  0  0
 15 16  1  0  0  0  0
 15 20  1  0  0  0  0
 17 15  2  0  0  0  0
 18 11  1  0  0  0  0
 20 19  2  0  0  0  0
 21 20  1  0  0  0  0
 23 22  1  0  0  0  0
 23 21  1  0  0  0  0
 24 29  1  0  0  0  0
 25 24  2  0  0  0  0
 26 27  1  0  0  0  0
 27 29  2  0  0  0  0
 28 26  2  0  0  0  0
 28 25  1  0  0  0  0
 29  1  1  0  0  0  0
 30 31  2  0  0  0  0
 30 26  1  0  0  0  0
 32 28  1  0  0  0  0
 32 33  1  0  0  0  0
 33 34  1  0  0  0  0
 34 35  1  0  0  0  0
 35 40  1  0  0  0  0
 35 39  1  0  0  0  0
 36 37  1  6  0  0  0
 36 38  1  0  0  0  0
 39 38  1  0  0  0  0
 40 36  1  0  0  0  0
M  END
>  <MODEL>
1

>  <REMARK>
 VINA RESULT:      -8.7      0.000      0.000
  Name = 
  10 active torsions:
  status: ('A' for Active; 'I' for Inactive)
    1  A    between atoms: C_2  and  C_36
    2  A    between atoms: N_3  and  C_10
    3  A    between atoms: C_6  and  C_30
    4  A    between atoms: C_8  and  C_27
    5  A    between atoms: C_8  and  O_37
    6  A    between atoms: C_10  and  N_32
    7  A    between atoms: C_14  and  N_32
    8  A    between atoms: C_14  and  C_34
    9  A    between atoms: C_25  and  C_26
   10  A    between atoms: C_31  and  O_37
                            x       y       z     vdW  Elec       q    Type
                         _______ _______ _______ _____ _____    ______ ____

>  <TORSDO>
F 10

$$$$
=
 OpenBabel11042413033D

 40 45  0  0  1  0  0  0  0  0999 V2000
  188.3950  177.4780  145.9440 C   0  0  0  0  0  0  0  0  0  0  0  0
  188.3990  176.8640  147.2020 C   0  0  0  0  0  3  0  0  0  0  0  0
  190.7060  176.4650  147.0630 N   0  0  0  0  0  0  0  0  0  0  0  0
  190.7770  177.0570  145.8440 C   0  0  0  0  0  3  0  0  0  0  0  0
  189.6220  177.5740  145.2470 C   0  0  0  0  0  0  0  0  0  0  0  0
  189.5520  176.3720  147.7220 N   0  0  0  0  0  0  0  0  0  0  0  0
  190.0090  177.3170  141.7720 C   0  0  0  0  0  0  0  0  0  0  0  0
  189.7410  178.2970  143.9360 C   0  0  2  0  0  3  0  0  0  0  0  0
  189.1250  177.5310  142.8540 N   0  0  0  0  0  2  0  0  0  0  0  0
  191.5080  178.6340  143.5260 S   0  0  0  0  0  0  0  0  0  0  0  0
  191.9050  177.0320  139.8000 C   0  0  0  0  0  0  0  0  0  0  0  0
  191.2800  177.8320  141.9540 C   0  0  0  0  0  0  0  0  0  0  0  0
  189.6520  176.6380  140.5980 C   0  0  0  0  0  3  0  0  0  0  0  0
  190.6320  176.5050  139.6080 C   0  0  0  0  0  0  0  0  0  0  0  0
  191.6230  175.9010  137.6030 C   0  0  0  0  0  0  0  0  0  0  0  0
  192.8440  176.7190  138.4510 S   0  0  0  0  0  0  0  0  0  0  0  0
  190.4600  175.8660  138.3780 C   0  0  0  0  0  3  0  0  0  0  0  0
  192.2670  177.7060  140.9680 C   0  0  0  0  0  3  0  0  0  0  0  0
  190.8890  175.5040  135.4000 O   0  0  0  0  0  0  0  0  0  0  0  0
  191.8010  175.3280  136.2490 C   0  0  0  0  0  0  0  0  0  0  0  0
  192.9300  174.5960  135.8560 O   0  0  0  0  0  0  0  0  0  0  0  0
  194.4470  173.3820  137.2570 C   0  0  0  0  0  1  0  0  0  0  0  0
  193.2520  173.2980  136.3330 C   0  0  0  0  0  2  0  0  0  0  0  0
  186.1420  178.5170  146.2790 C   0  0  0  0  0  3  0  0  0  0  0  0
  184.9220  178.9850  145.7900 C   0  0  0  0  0  3  0  0  0  0  0  0
  185.5940  178.3980  143.5320 C   0  0  0  0  0  0  0  0  0  0  0  0
  186.8150  177.9290  144.0380 C   0  0  0  0  0  3  0  0  0  0  0  0
  184.6430  178.9360  144.4210 C   0  0  0  0  0  0  0  0  0  0  0  0
  187.1080  177.9940  145.4070 C   0  0  0  0  0  0  0  0  0  0  0  0
  185.3180  178.3250  142.0870 C   0  0  0  0  0  3  0  0  0  0  0  0
  185.6700  179.2750  141.2810 N   0  0  0  0  0  2  0  0  0  0  0  0
  183.3150  179.4240  143.9420 C   0  0  0  0  0  2  0  0  0  0  0  0
  182.2550  178.6970  144.6170 N   0  0  0  0  0  2  0  0  0  0  0  0
  181.1660  178.5540  143.6570 C   0  0  0  0  0  2  0  0  0  0  0  0
  181.0890  179.7000  142.7460 N   0  0  0  0  0  0  0  0  0  0  0  0
  179.9120  179.7350  140.6320 C   0  0  1  0  0  3  0  0  0  0  0  0
  179.0170  178.6780  140.4590 O   0  0  0  0  0  1  0  0  0  0  0  0
  179.3050  180.7580  141.5560 C   0  0  0  0  0  2  0  0  0  0  0  0
  179.8120  180.3830  142.9260 C   0  0  0  0  0  2  0  0  0  0  0  0
  181.1440  179.2320  141.3610 C   0  0  0  0  0  2  0  0  0  0  0  0
  1  2  1  0  0  0  0
  2  6  2  0  0  0  0
  3  6  1  0  0  0  0
  4  3  2  0  0  0  0
  5  4  1  0  0  0  0
  5  1  2  0  0  0  0
  7 12  1  0  0  0  0
  7  9  1  0  0  0  0
  8  5  1  1  0  0  0
  9  8  1  0  0  0  0
 10  8  1  0  0  0  0
 11 18  1  0  0  0  0
 12 10  1  0  0  0  0
 13  7  2  0  0  0  0
 14 11  2  0  0  0  0
 14 13  1  0  0  0  0
 15 17  2  0  0  0  0
 15 16  1  0  0  0  0
 16 11  1  0  0  0  0
 17 14  1  0  0  0  0
 18 12  2  0  0  0  0
 19 20  2  0  0  0  0
 20 15  1  0  0  0  0
 21 20  1  0  0  0  0
 21 23  1  0  0  0  0
 23 22  1  0  0  0  0
 25 24  1  0  0  0  0
 26 27  2  0  0  0  0
 26 28  1  0  0  0  0
 27 29  1  0  0  0  0
 28 25  2  0  0  0  0
 29  1  1  0  0  0  0
 29 24  2  0  0  0  0
 30 26  1  0  0  0  0
 31 30  2  0  0  0  0
 32 28  1  0  0  0  0
 32 33  1  0  0  0  0
 34 33  1  0  0  0  0
 35 39  1  0  0  0  0
 35 34  1  0  0  0  0
 36 37  1  1  0  0  0
 36 40  1  0  0  0  0
 36 38  1  0  0  0  0
 38 39  1  0  0  0  0
 40 35  1  0  0  0  0
M  END
>  <MODEL>
2

>  <REMARK>
 VINA RESULT:      -8.2      4.515      9.463
  Name = 
  10 active torsions:
  status: ('A' for Active; 'I' for Inactive)
    1  A    between atoms: C_2  and  C_36
    2  A    between atoms: N_3  and  C_10
    3  A    between atoms: C_6  and  C_30
    4  A    between atoms: C_8  and  C_27
    5  A    between atoms: C_8  and  O_37
    6  A    between atoms: C_10  and  N_32
    7  A    between atoms: C_14  and  N_32
    8  A    between atoms: C_14  and  C_34
    9  A    between atoms: C_25  and  C_26
   10  A    between atoms: C_31  and  O_37
                            x       y       z     vdW  Elec       q    Type
                         _______ _______ _______ _____ _____    ______ ____

>  <TORSDO>
F 10

$$$$
=
 OpenBabel11042413033D

 40 45  0  0  1  0  0  0  0  0999 V2000
  190.7140  176.4450  138.3770 C   0  0  0  0  0  0  0  0  0  0  0  0
  191.4430  175.4000  137.7970 C   0  0  0  0  0  3  0  0  0  0  0  0
  190.4090  175.7550  135.7210 N   0  0  0  0  0  0  0  0  0  0  0  0
  189.6780  176.7870  136.2160 C   0  0  0  0  0  3  0  0  0  0  0  0
  189.8050  177.1550  137.5590 C   0  0  0  0  0  0  0  0  0  0  0  0
  191.2660  175.0830  136.4890 N   0  0  0  0  0  0  0  0  0  0  0  0
  187.5970  178.4410  139.9600 C   0  0  0  0  0  0  0  0  0  0  0  0
  189.0470  178.3500  138.0610 C   0  0  2  0  0  3  0  0  0  0  0  0
  188.9350  178.3300  139.5180 N   0  0  0  0  0  2  0  0  0  0  0  0
  187.3610  178.4240  137.3140 S   0  0  0  0  0  0  0  0  0  0  0  0
  184.9250  178.6680  140.5720 C   0  0  0  0  0  0  0  0  0  0  0  0
  186.6590  178.5100  138.9460 C   0  0  0  0  0  0  0  0  0  0  0  0
  187.2250  178.4790  141.3120 C   0  0  0  0  0  3  0  0  0  0  0  0
  185.8600  178.5950  141.6000 C   0  0  0  0  0  0  0  0  0  0  0  0
  183.9110  178.7690  142.8400 C   0  0  0  0  0  0  0  0  0  0  0  0
  183.3910  178.8040  141.2260 S   0  0  0  0  0  0  0  0  0  0  0  0
  185.3040  178.6500  142.8800 C   0  0  0  0  0  3  0  0  0  0  0  0
  185.2910  178.6280  139.2240 C   0  0  0  0  0  3  0  0  0  0  0  0
  183.4300  179.3770  145.0650 O   0  0  0  0  0  0  0  0  0  0  0  0
  182.9980  178.8590  144.0030 C   0  0  0  0  0  0  0  0  0  0  0  0
  181.6750  178.3960  143.9910 O   0  0  0  0  0  0  0  0  0  0  0  0
  179.7970  178.5360  142.5110 C   0  0  0  0  0  1  0  0  0  0  0  0
  180.5490  179.1900  143.6500 C   0  0  0  0  0  2  0  0  0  0  0  0
  191.9770  177.6020  140.2020 C   0  0  0  0  0  3  0  0  0  0  0  0
  192.2040  177.8810  141.5510 C   0  0  0  0  0  3  0  0  0  0  0  0
  190.3490  176.4400  142.1690 C   0  0  0  0  0  0  0  0  0  0  0  0
  190.1340  176.1680  140.8100 C   0  0  0  0  0  3  0  0  0  0  0  0
  191.3920  177.3120  142.5380 C   0  0  0  0  0  0  0  0  0  0  0  0
  190.9320  176.7510  139.8150 C   0  0  0  0  0  0  0  0  0  0  0  0
  189.4890  175.8190  143.1900 C   0  0  0  0  0  3  0  0  0  0  0  0
  188.1980  175.8480  143.0980 N   0  0  0  0  0  2  0  0  0  0  0  0
  191.6860  177.6160  143.9700 C   0  0  0  0  0  2  0  0  0  0  0  0
  190.6080  178.4100  144.5320 N   0  0  0  0  0  2  0  0  0  0  0  0
  190.4610  177.9950  145.9230 C   0  0  0  0  0  2  0  0  0  0  0  0
  189.2240  177.2410  146.1390 N   0  0  0  0  0  0  0  0  0  0  0  0
  187.9060  177.2590  148.1680 C   0  0  1  0  0  3  0  0  0  0  0  0
  188.2200  178.2990  149.0440 O   0  0  0  0  0  1  0  0  0  0  0  0
  187.0750  177.7950  147.0310 C   0  0  0  0  0  2  0  0  0  0  0  0
  188.0750  178.1220  145.9500 C   0  0  0  0  0  2  0  0  0  0  0  0
  189.1790  176.7520  147.5170 C   0  0  0  0  0  2  0  0  0  0  0  0
  1 29  1  0  0  0  0
  2  1  1  0  0  0  0
  3  4  2  0  0  0  0
  3  6  1  0  0  0  0
  4  5  1  0  0  0  0
  5  1  2  0  0  0  0
  6  2  2  0  0  0  0
  7 13  1  0  0  0  0
  8  5  1  6  0  0  0
  8  9  1  0  0  0  0
  9  7  1  0  0  0  0
 10  8  1  0  0  0  0
 10 12  1  0  0  0  0
 11 16  1  0  0  0  0
 11 14  1  0  0  0  0
 12 18  1  0  0  0  0
 12  7  2  0  0  0  0
 13 14  2  0  0  0  0
 14 17  1  0  0  0  0
 15 17  2  0  0  0  0
 15 20  1  0  0  0  0
 16 15  1  0  0  0  0
 18 11  2  0  0  0  0
 20 19  2  0  0  0  0
 21 20  1  0  0  0  0
 22 23  1  0  0  0  0
 23 21  1  0  0  0  0
 24 25  1  0  0  0  0
 25 28  2  0  0  0  0
 26 28  1  0  0  0  0
 26 30  1  0  0  0  0
 27 26  2  0  0  0  0
 28 32  1  0  0  0  0
 29 24  2  0  0  0  0
 29 27  1  0  0  0  0
 31 30  2  0  0  0  0
 32 33  1  0  0  0  0
 33 34  1  0  0  0  0
 34 35  1  0  0  0  0
 35 40  1  0  0  0  0
 36 37  1  1  0  0  0
 38 36  1  0  0  0  0
 39 35  1  0  0  0  0
 39 38  1  0  0  0  0
 40 36  1  0  0  0  0
M  END
>  <MODEL>
3

>  <REMARK>
 VINA RESULT:      -7.4      3.450      7.725
  Name = 
  10 active torsions:
  status: ('A' for Active; 'I' for Inactive)
    1  A    between atoms: C_2  and  C_36
    2  A    between atoms: N_3  and  C_10
    3  A    between atoms: C_6  and  C_30
    4  A    between atoms: C_8  and  C_27
    5  A    between atoms: C_8  and  O_37
    6  A    between atoms: C_10  and  N_32
    7  A    between atoms: C_14  and  N_32
    8  A    between atoms: C_14  and  C_34
    9  A    between atoms: C_25  and  C_26
   10  A    between atoms: C_31  and  O_37
                            x       y       z     vdW  Elec       q    Type
                         _______ _______ _______ _____ _____    ______ ____

>  <TORSDO>
F 10

$$$$
=
 OpenBabel11042413033D

 40 45  0  0  1  0  0  0  0  0999 V2000
  181.7300  175.9230  137.2350 C   0  0  0  0  0  0  0  0  0  0  0  0
  181.0280  174.8540  136.6650 C   0  0  0  0  0  3  0  0  0  0  0  0
  179.1540  175.2950  138.0060 N   0  0  0  0  0  0  0  0  0  0  0  0
  179.7720  176.3520  138.5920 C   0  0  0  0  0  3  0  0  0  0  0  0
  181.0790  176.6900  138.2290 C   0  0  0  0  0  0  0  0  0  0  0  0
  179.7640  174.5690  137.0690 N   0  0  0  0  0  0  0  0  0  0  0  0
  183.1550  177.9930  140.7360 C   0  0  0  0  0  0  0  0  0  0  0  0
  181.7110  177.9120  138.8330 C   0  0  2  0  0  3  0  0  0  0  0  0
  183.0300  177.6070  139.3820 N   0  0  0  0  0  2  0  0  0  0  0  0
  180.6390  178.6210  140.1580 S   0  0  0  0  0  0  0  0  0  0  0  0
  183.1560  178.8290  143.3570 C   0  0  0  0  0  0  0  0  0  0  0  0
  182.0130  178.5440  141.2870 C   0  0  0  0  0  0  0  0  0  0  0  0
  184.3320  177.8390  141.4840 C   0  0  0  0  0  3  0  0  0  0  0  0
  184.3100  178.2710  142.8150 C   0  0  0  0  0  0  0  0  0  0  0  0
  185.0500  178.7160  144.9650 C   0  0  0  0  0  0  0  0  0  0  0  0
  183.4390  179.2470  144.9520 S   0  0  0  0  0  0  0  0  0  0  0  0
  185.3810  178.2010  143.7080 C   0  0  0  0  0  3  0  0  0  0  0  0
  181.9800  178.9810  142.6180 C   0  0  0  0  0  3  0  0  0  0  0  0
  185.7160  179.7060  146.9960 O   0  0  0  0  0  0  0  0  0  0  0  0
  185.9380  178.8050  146.1460 C   0  0  0  0  0  0  0  0  0  0  0  0
  187.0190  177.9410  146.3740 O   0  0  0  0  0  0  0  0  0  0  0  0
  188.8430  177.1910  145.0150 C   0  0  0  0  0  1  0  0  0  0  0  0
  188.3620  178.2230  146.0110 C   0  0  0  0  0  2  0  0  0  0  0  0
  183.3620  177.2320  135.8620 C   0  0  0  0  0  3  0  0  0  0  0  0
  184.6560  177.4830  135.4020 C   0  0  0  0  0  3  0  0  0  0  0  0
  185.4960  175.6360  136.7370 C   0  0  0  0  0  0  0  0  0  0  0  0
  184.1900  175.3950  137.1890 C   0  0  0  0  0  3  0  0  0  0  0  0
  185.7270  176.6960  135.8390 C   0  0  0  0  0  0  0  0  0  0  0  0
  183.1160  176.1930  136.7700 C   0  0  0  0  0  0  0  0  0  0  0  0
  186.6060  174.7870  137.2020 C   0  0  0  0  0  3  0  0  0  0  0  0
  186.6210  173.5110  136.9830 N   0  0  0  0  0  2  0  0  0  0  0  0
  187.0910  176.9820  135.3020 C   0  0  0  0  0  2  0  0  0  0  0  0
  187.7890  177.8880  136.1970 N   0  0  0  0  0  2  0  0  0  0  0  0
  189.1800  177.4490  136.2380 C   0  0  0  0  0  2  0  0  0  0  0  0
  189.8270  177.8090  137.5030 N   0  0  0  0  0  0  0  0  0  0  0  0
  188.6800  178.5220  139.5110 C   0  0  1  0  0  3  0  0  0  0  0  0
  187.3090  178.2660  139.5070 O   0  0  0  0  0  1  0  0  0  0  0  0
  189.4270  177.2430  139.7920 C   0  0  0  0  0  2  0  0  0  0  0  0
  189.7490  176.6830  138.4300 C   0  0  0  0  0  2  0  0  0  0  0  0
  189.1170  178.9310  138.1180 C   0  0  0  0  0  2  0  0  0  0  0  0
  1  5  1  0  0  0  0
  2  6  1  0  0  0  0
  2  1  2  0  0  0  0
  3  4  1  0  0  0  0
  5  4  2  0  0  0  0
  6  3  2  0  0  0  0
  7 12  2  0  0  0  0
  7 13  1  0  0  0  0
  8  5  1  1  0  0  0
  8  9  1  0  0  0  0
  8 10  1  0  0  0  0
  9  7  1  0  0  0  0
 10 12  1  0  0  0  0
 11 16  1  0  0  0  0
 12 18  1  0  0  0  0
 13 14  2  0  0  0  0
 14 11  1  0  0  0  0
 14 17  1  0  0  0  0
 15 20  1  0  0  0  0
 16 15  1  0  0  0  0
 17 15  2  0  0  0  0
 18 11  2  0  0  0  0
 20 21  1  0  0  0  0
 20 19  2  0  0  0  0
 22 23  1  0  0  0  0
 23 21  1  0  0  0  0
 24 29  1  0  0  0  0
 25 28  1  0  0  0  0
 25 24  2  0  0  0  0
 26 27  1  0  0  0  0
 26 30  1  0  0  0  0
 28 26  2  0  0  0  0
 29 27  2  0  0  0  0
 29  1  1  0  0  0  0
 31 30  2  0  0  0  0
 32 28  1  0  0  0  0
 32 33  1  0  0  0  0
 33 34  1  0  0  0  0
 34 35  1  0  0  0  0
 35 40  1  0  0  0  0
 35 39  1  0  0  0  0
 36 37  1  6  0  0  0
 36 38  1  0  0  0  0
 39 38  1  0  0  0  0
 40 36  1  0  0  0  0
M  END
>  <MODEL>
4

>  <REMARK>
 VINA RESULT:      -7.4      1.897      2.600
  Name = 
  10 active torsions:
  status: ('A' for Active; 'I' for Inactive)
    1  A    between atoms: C_2  and  C_36
    2  A    between atoms: N_3  and  C_10
    3  A    between atoms: C_6  and  C_30
    4  A    between atoms: C_8  and  C_27
    5  A    between atoms: C_8  and  O_37
    6  A    between atoms: C_10  and  N_32
    7  A    between atoms: C_14  and  N_32
    8  A    between atoms: C_14  and  C_34
    9  A    between atoms: C_25  and  C_26
   10  A    between atoms: C_31  and  O_37
                            x       y       z     vdW  Elec       q    Type
                         _______ _______ _______ _____ _____    ______ ____

>  <TORSDO>
F 10

$$$$
=
 OpenBabel11042413033D

 40 45  0  0  1  0  0  0  0  0999 V2000
  181.8440  177.1850  139.7570 C   0  0  0  0  0  0  0  0  0  0  0  0
  180.8080  176.3780  139.2710 C   0  0  0  0  0  3  0  0  0  0  0  0
  179.5080  176.8000  141.1770 N   0  0  0  0  0  0  0  0  0  0  0  0
  180.4670  177.6040  141.7030 C   0  0  0  0  0  3  0  0  0  0  0  0
  181.6640  177.8120  141.0120 C   0  0  0  0  0  0  0  0  0  0  0  0
  179.6730  176.2060  139.9960 N   0  0  0  0  0  0  0  0  0  0  0  0
  184.5310  178.2360  142.9860 C   0  0  0  0  0  0  0  0  0  0  0  0
  182.6750  178.7690  141.5760 C   0  0  2  0  0  3  0  0  0  0  0  0
  183.9910  178.1440  141.6820 N   0  0  0  0  0  2  0  0  0  0  0  0
  182.1470  179.3830  143.2350 S   0  0  0  0  0  0  0  0  0  0  0  0
  185.3650  178.5400  145.5890 C   0  0  0  0  0  0  0  0  0  0  0  0
  183.7080  178.8580  143.9080 C   0  0  0  0  0  0  0  0  0  0  0  0
  185.7950  177.7430  143.3420 C   0  0  0  0  0  3  0  0  0  0  0  0
  186.1990  177.9090  144.6710 C   0  0  0  0  0  0  0  0  0  0  0  0
  187.5300  177.8000  146.5640 C   0  0  0  0  0  0  0  0  0  0  0  0
  186.1210  178.5900  147.0810 S   0  0  0  0  0  0  0  0  0  0  0  0
  187.4180  177.4870  145.2060 C   0  0  0  0  0  3  0  0  0  0  0  0
  184.1040  179.0300  145.2410 C   0  0  0  0  0  3  0  0  0  0  0  0
  188.9030  178.2770  148.4180 O   0  0  0  0  0  0  0  0  0  0  0  0
  188.6820  177.5070  147.4470 C   0  0  0  0  0  0  0  0  0  0  0  0
  189.5480  176.4200  147.2620 O   0  0  0  0  0  0  0  0  0  0  0  0
  191.0900  177.1720  145.5910 C   0  0  0  0  0  1  0  0  0  0  0  0
  190.9290  176.5360  146.9550 C   0  0  0  0  0  2  0  0  0  0  0  0
  183.7430  178.5680  138.8940 C   0  0  0  0  0  3  0  0  0  0  0  0
  184.8860  178.7300  138.1100 C   0  0  0  0  0  3  0  0  0  0  0  0
  184.7080  176.4260  137.3630 C   0  0  0  0  0  0  0  0  0  0  0  0
  183.5600  176.2780  138.1550 C   0  0  0  0  0  3  0  0  0  0  0  0
  185.3790  177.6640  137.3490 C   0  0  0  0  0  0  0  0  0  0  0  0
  183.0730  177.3370  138.9350 C   0  0  0  0  0  0  0  0  0  0  0  0
  185.2010  175.2930  136.5610 C   0  0  0  0  0  3  0  0  0  0  0  0
  185.5180  174.1630  137.1080 N   0  0  0  0  0  2  0  0  0  0  0  0
  186.5900  177.8870  136.5040 C   0  0  0  0  0  2  0  0  0  0  0  0
  187.7340  177.2250  137.1050 N   0  0  0  0  0  2  0  0  0  0  0  0
  188.9020  177.6120  136.3210 C   0  0  0  0  0  2  0  0  0  0  0  0
  190.1210  176.9540  136.8010 N   0  0  0  0  0  0  0  0  0  0  0  0
  190.3640  174.5820  137.2140 C   0  0  1  0  0  3  0  0  0  0  0  0
  189.3520  173.7990  136.6590 O   0  0  0  0  0  1  0  0  0  0  0  0
  191.3250  174.9990  136.1310 C   0  0  0  0  0  2  0  0  0  0  0  0
  190.8230  176.3460  135.6740 C   0  0  0  0  0  2  0  0  0  0  0  0
  189.7680  175.8790  137.7280 C   0  0  0  0  0  2  0  0  0  0  0  0
  1  5  1  0  0  0  0
  2  1  2  0  0  0  0
  2  6  1  0  0  0  0
  3  4  1  0  0  0  0
  5  4  2  0  0  0  0
  6  3  2  0  0  0  0
  7 13  2  0  0  0  0
  7 12  1  0  0  0  0
  8  5  1  1  0  0  0
  8  9  1  0  0  0  0
  8 10  1  0  0  0  0
  9  7  1  0  0  0  0
 10 12  1  0  0  0  0
 11 16  1  0  0  0  0
 12 18  2  0  0  0  0
 13 14  1  0  0  0  0
 14 17  1  0  0  0  0
 14 11  2  0  0  0  0
 15 16  1  0  0  0  0
 15 20  1  0  0  0  0
 17 15  2  0  0  0  0
 18 11  1  0  0  0  0
 20 19  2  0  0  0  0
 21 20  1  0  0  0  0
 22 23  1  0  0  0  0
 23 21  1  0  0  0  0
 24 29  1  0  0  0  0
 25 24  2  0  0  0  0
 26 27  1  0  0  0  0
 27 29  2  0  0  0  0
 28 26  2  0  0  0  0
 28 25  1  0  0  0  0
 29  1  1  0  0  0  0
 30 31  2  0  0  0  0
 30 26  1  0  0  0  0
 32 33  1  0  0  0  0
 32 28  1  0  0  0  0
 34 35  1  0  0  0  0
 34 33  1  0  0  0  0
 35 40  1  0  0  0  0
 36 37  1  6  0  0  0
 36 40  1  0  0  0  0
 38 36  1  0  0  0  0
 39 38  1  0  0  0  0
 39 35  1  0  0  0  0
M  END
>  <MODEL>
5

>  <REMARK>
 VINA RESULT:      -7.2      1.534      1.884
  Name = 
  10 active torsions:
  status: ('A' for Active; 'I' for Inactive)
    1  A    between atoms: C_2  and  C_36
    2  A    between atoms: N_3  and  C_10
    3  A    between atoms: C_6  and  C_30
    4  A    between atoms: C_8  and  C_27
    5  A    between atoms: C_8  and  O_37
    6  A    between atoms: C_10  and  N_32
    7  A    between atoms: C_14  and  N_32
    8  A    between atoms: C_14  and  C_34
    9  A    between atoms: C_25  and  C_26
   10  A    between atoms: C_31  and  O_37
                            x       y       z     vdW  Elec       q    Type
                         _______ _______ _______ _____ _____    ______ ____

>  <TORSDO>
F 10

$$$$
=
 OpenBabel11042413033D

 40 45  0  0  1  0  0  0  0  0999 V2000
  184.4480  176.5000  136.7190 C   0  0  0  0  0  0  0  0  0  0  0  0
  183.9480  175.5420  135.8290 C   0  0  0  0  0  3  0  0  0  0  0  0
  181.7460  176.2550  136.2070 N   0  0  0  0  0  0  0  0  0  0  0  0
  182.1620  177.2130  137.0730 C   0  0  0  0  0  3  0  0  0  0  0  0
  183.5230  177.3580  137.3590 C   0  0  0  0  0  0  0  0  0  0  0  0
  182.6140  175.4450  135.6020 N   0  0  0  0  0  0  0  0  0  0  0  0
  184.8460  178.2830  140.4710 C   0  0  0  0  0  0  0  0  0  0  0  0
  183.9640  178.4770  138.2580 C   0  0  2  0  0  3  0  0  0  0  0  0
  185.0900  178.0690  139.0950 N   0  0  0  0  0  2  0  0  0  0  0  0
  182.5740  179.0510  139.3280 S   0  0  0  0  0  0  0  0  0  0  0  0
  184.1420  178.7930  143.0800 C   0  0  0  0  0  0  0  0  0  0  0  0
  183.5960  178.7970  140.7630 C   0  0  0  0  0  0  0  0  0  0  0  0
  185.7800  178.0050  141.4800 C   0  0  0  0  0  3  0  0  0  0  0  0
  185.4010  178.2720  142.8000 C   0  0  0  0  0  0  0  0  0  0  0  0
  185.5360  178.4290  145.1070 C   0  0  0  0  0  0  0  0  0  0  0  0
  183.9860  179.0050  144.7330 S   0  0  0  0  0  0  0  0  0  0  0  0
  186.1950  178.0620  143.9300 C   0  0  0  0  0  3  0  0  0  0  0  0
  183.2070  179.0690  142.0810 C   0  0  0  0  0  3  0  0  0  0  0  0
  185.6710  179.1810  147.3360 O   0  0  0  0  0  0  0  0  0  0  0  0
  186.0760  178.3470  146.4840 C   0  0  0  0  0  0  0  0  0  0  0  0
  187.0170  177.3930  146.8960 O   0  0  0  0  0  0  0  0  0  0  0  0
  189.3440  177.4860  147.4560 C   0  0  0  0  0  1  0  0  0  0  0  0
  187.9240  177.5730  147.9730 C   0  0  0  0  0  2  0  0  0  0  0  0
  186.6130  175.4230  137.3630 C   0  0  0  0  0  3  0  0  0  0  0  0
  187.9880  175.4760  137.5990 C   0  0  0  0  0  3  0  0  0  0  0  0
  188.0030  177.8350  137.0220 C   0  0  0  0  0  0  0  0  0  0  0  0
  186.6210  177.7670  136.7900 C   0  0  0  0  0  3  0  0  0  0  0  0
  188.6900  176.6730  137.4230 C   0  0  0  0  0  0  0  0  0  0  0  0
  185.9160  176.5650  136.9450 C   0  0  0  0  0  0  0  0  0  0  0  0
  188.7190  179.1090  136.8420 C   0  0  0  0  0  3  0  0  0  0  0  0
  189.0560  179.8460  137.8520 N   0  0  0  0  0  2  0  0  0  0  0  0
  190.1550  176.6920  137.7110 C   0  0  0  0  0  2  0  0  0  0  0  0
  190.4180  175.9970  138.9580 N   0  0  0  0  0  2  0  0  0  0  0  0
  190.2310  176.9700  140.0290 C   0  0  0  0  0  2  0  0  0  0  0  0
  190.5020  176.3880  141.3460 N   0  0  0  0  0  0  0  0  0  0  0  0
  191.1040  177.6320  143.3320 C   0  0  1  0  0  3  0  0  0  0  0  0
  190.8680  179.0040  143.2400 O   0  0  0  0  0  1  0  0  0  0  0  0
  189.8000  176.9160  143.5710 C   0  0  0  0  0  2  0  0  0  0  0  0
  189.3220  176.5270  142.1940 C   0  0  0  0  0  2  0  0  0  0  0  0
  191.5930  177.1170  141.9920 C   0  0  0  0  0  2  0  0  0  0  0  0
  1 29  1  0  0  0  0
  1  5  1  0  0  0  0
  2  1  2  0  0  0  0
  3  4  1  0  0  0  0
  4  5  2  0  0  0  0
  6  2  1  0  0  0  0
  6  3  2  0  0  0  0
  7 12  2  0  0  0  0
  7 13  1  0  0  0  0
  8  5  1  1  0  0  0
  8  9  1  0  0  0  0
  8 10  1  0  0  0  0
  9  7  1  0  0  0  0
 10 12  1  0  0  0  0
 11 16  1  0  0  0  0
 12 18  1  0  0  0  0
 13 14  2  0  0  0  0
 14 11  1  0  0  0  0
 14 17  1  0  0  0  0
 15 20  1  0  0  0  0
 16 15  1  0  0  0  0
 17 15  2  0  0  0  0
 18 11  2  0  0  0  0
 20 21  1  0  0  0  0
 20 19  2  0  0  0  0
 21 23  1  0  0  0  0
 22 23  1  0  0  0  0
 24 25  1  0  0  0  0
 26 28  1  0  0  0  0
 27 29  1  0  0  0  0
 27 26  2  0  0  0  0
 28 25  2  0  0  0  0
 28 32  1  0  0  0  0
 29 24  2  0  0  0  0
 30 26  1  0  0  0  0
 30 31  2  0  0  0  0
 32 33  1  0  0  0  0
 33 34  1  0  0  0  0
 34 35  1  0  0  0  0
 35 40  1  0  0  0  0
 35 39  1  0  0  0  0
 36 37  1  6  0  0  0
 36 38  1  0  0  0  0
 39 38  1  0  0  0  0
 40 36  1  0  0  0  0
M  END
>  <MODEL>
6

>  <REMARK>
 VINA RESULT:      -7.2      2.031      3.357
  Name = 
  10 active torsions:
  status: ('A' for Active; 'I' for Inactive)
    1  A    between atoms: C_2  and  C_36
    2  A    between atoms: N_3  and  C_10
    3  A    between atoms: C_6  and  C_30
    4  A    between atoms: C_8  and  C_27
    5  A    between atoms: C_8  and  O_37
    6  A    between atoms: C_10  and  N_32
    7  A    between atoms: C_14  and  N_32
    8  A    between atoms: C_14  and  C_34
    9  A    between atoms: C_25  and  C_26
   10  A    between atoms: C_31  and  O_37
                            x       y       z     vdW  Elec       q    Type
                         _______ _______ _______ _____ _____    ______ ____

>  <TORSDO>
F 10

$$$$
=
 OpenBabel11042413033D

 40 45  0  0  1  0  0  0  0  0999 V2000
  179.6240  179.8530  138.1540 C   0  0  0  0  0  0  0  0  0  0  0  0
  179.1780  181.0110  137.5060 C   0  0  0  0  0  3  0  0  0  0  0  0
  179.2240  182.2210  139.5150 N   0  0  0  0  0  0  0  0  0  0  0  0
  179.6680  181.1390  140.2040 C   0  0  0  0  0  3  0  0  0  0  0  0
  179.8720  179.9230  139.5440 C   0  0  0  0  0  0  0  0  0  0  0  0
  178.9880  182.1590  138.2050 N   0  0  0  0  0  0  0  0  0  0  0  0
  181.7610  178.8650  142.3020 C   0  0  0  0  0  0  0  0  0  0  0  0
  180.4400  178.7640  140.3120 C   0  0  2  0  0  3  0  0  0  0  0  0
  180.4740  179.0470  141.7450 N   0  0  0  0  0  2  0  0  0  0  0  0
  182.1400  178.3520  139.7230 S   0  0  0  0  0  0  0  0  0  0  0  0
  184.3440  178.4460  143.1490 C   0  0  0  0  0  0  0  0  0  0  0  0
  182.7360  178.4960  141.3930 C   0  0  0  0  0  0  0  0  0  0  0  0
  182.0520  179.0410  143.6630 C   0  0  0  0  0  3  0  0  0  0  0  0
  183.3730  178.8220  144.0720 C   0  0  0  0  0  0  0  0  0  0  0  0
  185.2120  178.6580  145.4700 C   0  0  0  0  0  0  0  0  0  0  0  0
  185.8100  178.2580  143.9340 S   0  0  0  0  0  0  0  0  0  0  0  0
  183.8470  178.9460  145.3790 C   0  0  0  0  0  3  0  0  0  0  0  0
  184.0600  178.2730  141.7930 C   0  0  0  0  0  3  0  0  0  0  0  0
  185.9010  179.6470  147.4950 O   0  0  0  0  0  0  0  0  0  0  0  0
  186.0420  178.6840  146.6970 C   0  0  0  0  0  0  0  0  0  0  0  0
  186.9810  177.6960  147.0210 O   0  0  0  0  0  0  0  0  0  0  0  0
  188.9900  177.9820  148.2940 C   0  0  0  0  0  1  0  0  0  0  0  0
  188.3880  177.8570  146.9120 C   0  0  0  0  0  2  0  0  0  0  0  0
  178.9340  177.5320  137.5170 C   0  0  0  0  0  3  0  0  0  0  0  0
  179.1090  176.3570  136.7850 C   0  0  0  0  0  3  0  0  0  0  0  0
  181.0650  177.3130  135.7080 C   0  0  0  0  0  0  0  0  0  0  0  0
  180.8770  178.4870  136.4520 C   0  0  0  0  0  3  0  0  0  0  0  0
  180.1650  176.2420  135.8740 C   0  0  0  0  0  0  0  0  0  0  0  0
  179.8090  178.6150  137.3510 C   0  0  0  0  0  0  0  0  0  0  0  0
  182.1910  177.2100  134.7640 C   0  0  0  0  0  3  0  0  0  0  0  0
  183.4020  177.0090  135.1740 N   0  0  0  0  0  2  0  0  0  0  0  0
  180.3320  174.9580  135.1300 C   0  0  0  0  0  2  0  0  0  0  0  0
  180.0170  173.8420  136.0030 N   0  0  0  0  0  2  0  0  0  0  0  0
  181.2240  173.5540  136.7700 C   0  0  0  0  0  2  0  0  0  0  0  0
  182.2140  172.8240  135.9730 N   0  0  0  0  0  0  0  0  0  0  0  0
  184.5210  172.4530  136.6000 C   0  0  1  0  0  3  0  0  0  0  0  0
  184.7960  172.7060  137.9440 O   0  0  0  0  0  1  0  0  0  0  0  0
  183.8210  171.1250  136.4730 C   0  0  0  0  0  2  0  0  0  0  0  0
  182.3520  171.4660  136.4910 C   0  0  0  0  0  2  0  0  0  0  0  0
  183.5190  173.4730  136.0930 C   0  0  0  0  0  2  0  0  0  0  0  0
  1  5  1  0  0  0  0
  2  1  2  0  0  0  0
  2  6  1  0  0  0  0
  3  4  1  0  0  0  0
  5  4  2  0  0  0  0
  6  3  2  0  0  0  0
  7 13  1  0  0  0  0
  8  5  1  6  0  0  0
  8  9  1  0  0  0  0
  9  7  1  0  0  0  0
 10  8  1  0  0  0  0
 10 12  1  0  0  0  0
 11 16  1  0  0  0  0
 11 14  1  0  0  0  0
 12 18  1  0  0  0  0
 12  7  2  0  0  0  0
 13 14  2  0  0  0  0
 14 17  1  0  0  0  0
 15 20  1  0  0  0  0
 16 15  1  0  0  0  0
 17 15  2  0  0  0  0
 18 11  2  0  0  0  0
 20 21  1  0  0  0  0
 20 19  2  0  0  0  0
 23 21  1  0  0  0  0
 23 22  1  0  0  0  0
 25 24  2  0  0  0  0
 26 28  2  0  0  0  0
 26 27  1  0  0  0  0
 27 29  2  0  0  0  0
 28 25  1  0  0  0  0
 29 24  1  0  0  0  0
 29  1  1  0  0  0  0
 30 31  2  0  0  0  0
 30 26  1  0  0  0  0
 32 28  1  0  0  0  0
 32 33  1  0  0  0  0
 33 34  1  0  0  0  0
 35 40  1  0  0  0  0
 35 39  1  0  0  0  0
 35 34  1  0  0  0  0
 36 37  1  1  0  0  0
 38 39  1  0  0  0  0
 38 36  1  0  0  0  0
 40 36  1  0  0  0  0
M  END
>  <MODEL>
7

>  <REMARK>
 VINA RESULT:      -7.1      3.807      5.518
  Name = 
  10 active torsions:
  status: ('A' for Active; 'I' for Inactive)
    1  A    between atoms: C_2  and  C_36
    2  A    between atoms: N_3  and  C_10
    3  A    between atoms: C_6  and  C_30
    4  A    between atoms: C_8  and  C_27
    5  A    between atoms: C_8  and  O_37
    6  A    between atoms: C_10  and  N_32
    7  A    between atoms: C_14  and  N_32
    8  A    between atoms: C_14  and  C_34
    9  A    between atoms: C_25  and  C_26
   10  A    between atoms: C_31  and  O_37
                            x       y       z     vdW  Elec       q    Type
                         _______ _______ _______ _____ _____    ______ ____

>  <TORSDO>
F 10

$$$$
=
 OpenBabel11042413033D

 40 45  0  0  1  0  0  0  0  0999 V2000
  189.3700  175.1860  136.2260 C   0  0  0  0  0  0  0  0  0  0  0  0
  188.4810  174.4670  135.4170 C   0  0  0  0  0  3  0  0  0  0  0  0
  186.6340  175.3810  136.5380 N   0  0  0  0  0  0  0  0  0  0  0  0
  187.4380  176.1140  137.3500 C   0  0  0  0  0  3  0  0  0  0  0  0
  188.8280  176.0310  137.2210 C   0  0  0  0  0  0  0  0  0  0  0  0
  187.1410  174.5820  135.6000 N   0  0  0  0  0  0  0  0  0  0  0  0
  190.1750  176.6390  140.4010 C   0  0  0  0  0  0  0  0  0  0  0  0
  189.6930  176.9140  138.0760 C   0  0  2  0  0  3  0  0  0  0  0  0
  190.3920  176.1370  139.0970 N   0  0  0  0  0  2  0  0  0  0  0  0
  188.6900  178.2360  138.8830 S   0  0  0  0  0  0  0  0  0  0  0  0
  189.6060  177.7960  142.8300 C   0  0  0  0  0  0  0  0  0  0  0  0
  189.3270  177.7300  140.4660 C   0  0  0  0  0  0  0  0  0  0  0  0
  190.7590  176.0920  141.5520 C   0  0  0  0  0  3  0  0  0  0  0  0
  190.4560  176.6970  142.7780 C   0  0  0  0  0  0  0  0  0  0  0  0
  190.4610  177.1000  145.0590 C   0  0  0  0  0  0  0  0  0  0  0  0
  189.4410  178.2940  144.4190 S   0  0  0  0  0  0  0  0  0  0  0  0
  190.9430  176.2940  144.0230 C   0  0  0  0  0  3  0  0  0  0  0  0
  189.0180  178.3430  141.6870 C   0  0  0  0  0  3  0  0  0  0  0  0
  191.9780  176.8570  146.8460 O   0  0  0  0  0  0  0  0  0  0  0  0
  190.7720  176.9670  146.5000 C   0  0  0  0  0  0  0  0  0  0  0  0
  189.7980  176.9520  147.5090 O   0  0  0  0  0  0  0  0  0  0  0  0
  188.0380  177.8780  148.8430 C   0  0  0  0  0  1  0  0  0  0  0  0
  189.4300  178.0820  148.2850 C   0  0  0  0  0  2  0  0  0  0  0  0
  191.6050  176.1160  135.5870 C   0  0  0  0  0  3  0  0  0  0  0  0
  192.9720  175.9710  135.3510 C   0  0  0  0  0  3  0  0  0  0  0  0
  192.8260  173.6130  135.9120 C   0  0  0  0  0  0  0  0  0  0  0  0
  191.4520  173.7740  136.1450 C   0  0  0  0  0  3  0  0  0  0  0  0
  193.5910  174.7270  135.5180 C   0  0  0  0  0  0  0  0  0  0  0  0
  190.8300  175.0220  135.9980 C   0  0  0  0  0  0  0  0  0  0  0  0
  193.4520  172.2910  136.0830 C   0  0  0  0  0  3  0  0  0  0  0  0
  193.6880  171.5170  135.0730 N   0  0  0  0  0  2  0  0  0  0  0  0
  195.0510  174.6090  135.2290 C   0  0  0  0  0  2  0  0  0  0  0  0
  195.8010  175.4380  136.1560 N   0  0  0  0  0  2  0  0  0  0  0  0
  197.0190  175.8470  135.4630 C   0  0  0  0  0  2  0  0  0  0  0  0
  198.2210  175.3430  136.1320 N   0  0  0  0  0  0  0  0  0  0  0  0
  198.3070  173.4270  137.6060 C   0  0  1  0  0  3  0  0  0  0  0  0
  197.1800  172.6070  137.5430 O   0  0  0  0  0  1  0  0  0  0  0  0
  199.1800  173.1690  136.4060 C   0  0  0  0  0  2  0  0  0  0  0  0
  198.7480  174.2000  135.3930 C   0  0  0  0  0  2  0  0  0  0  0  0
  197.8790  174.8760  137.4750 C   0  0  0  0  0  2  0  0  0  0  0  0
  1  5  1  0  0  0  0
  2  6  1  0  0  0  0
  2  1  2  0  0  0  0
  3  4  1  0  0  0  0
  5  4  2  0  0  0  0
  6  3  2  0  0  0  0
  7 12  2  0  0  0  0
  7 13  1  0  0  0  0
  8  5  1  1  0  0  0
  8 10  1  0  0  0  0
  8  9  1  0  0  0  0
  9  7  1  0  0  0  0
 10 12  1  0  0  0  0
 11 16  1  0  0  0  0
 12 18  1  0  0  0  0
 13 14  2  0  0  0  0
 14 11  1  0  0  0  0
 14 17  1  0  0  0  0
 15 20  1  0  0  0  0
 16 15  1  0  0  0  0
 17 15  2  0  0  0  0
 18 11  2  0  0  0  0
 20 19  2  0  0  0  0
 20 21  1  0  0  0  0
 21 23  1  0  0  0  0
 23 22  1  0  0  0  0
 24 29  1  0  0  0  0
 25 28  1  0  0  0  0
 25 24  2  0  0  0  0
 26 30  1  0  0  0  0
 26 27  1  0  0  0  0
 28 26  2  0  0  0  0
 29 27  2  0  0  0  0
 29  1  1  0  0  0  0
 31 30  2  0  0  0  0
 32 28  1  0  0  0  0
 32 33  1  0  0  0  0
 34 35  1  0  0  0  0
 34 33  1  0  0  0  0
 35 40  1  0  0  0  0
 36 37  1  6  0  0  0
 38 36  1  0  0  0  0
 39 35  1  0  0  0  0
 39 38  1  0  0  0  0
 40 36  1  0  0  0  0
M  END
>  <MODEL>
8

>  <REMARK>
 VINA RESULT:      -7.1      5.134      7.453
  Name = 
  10 active torsions:
  status: ('A' for Active; 'I' for Inactive)
    1  A    between atoms: C_2  and  C_36
    2  A    between atoms: N_3  and  C_10
    3  A    between atoms: C_6  and  C_30
    4  A    between atoms: C_8  and  C_27
    5  A    between atoms: C_8  and  O_37
    6  A    between atoms: C_10  and  N_32
    7  A    between atoms: C_14  and  N_32
    8  A    between atoms: C_14  and  C_34
    9  A    between atoms: C_25  and  C_26
   10  A    between atoms: C_31  and  O_37
                            x       y       z     vdW  Elec       q    Type
                         _______ _______ _______ _____ _____    ______ ____

>  <TORSDO>
F 10

$$$$
=
 OpenBabel11042413033D

 40 45  0  0  1  0  0  0  0  0999 V2000
  186.2820  178.2170  142.7660 C   0  0  0  0  0  0  0  0  0  0  0  0
  186.4680  178.3050  144.1510 C   0  0  0  0  0  3  0  0  0  0  0  0
  184.1950  178.7760  144.4850 N   0  0  0  0  0  0  0  0  0  0  0  0
  183.9410  178.6950  143.1540 C   0  0  0  0  0  3  0  0  0  0  0  0
  184.9780  178.4220  142.2570 C   0  0  0  0  0  0  0  0  0  0  0  0
  185.4220  178.5850  144.9690 N   0  0  0  0  0  0  0  0  0  0  0  0
  183.4400  179.7780  139.4140 C   0  0  0  0  0  0  0  0  0  0  0  0
  184.6570  178.2570  140.8000 C   0  0  2  0  0  3  0  0  0  0  0  0
  184.6460  179.5470  140.1130 N   0  0  0  0  0  2  0  0  0  0  0  0
  183.0260  177.4240  140.5740 S   0  0  0  0  0  0  0  0  0  0  0  0
  181.0130  179.9970  138.1380 C   0  0  0  0  0  0  0  0  0  0  0  0
  182.4980  178.7720  139.5400 C   0  0  0  0  0  0  0  0  0  0  0  0
  183.1910  180.9260  138.6490 C   0  0  0  0  0  3  0  0  0  0  0  0
  181.9500  181.0170  138.0080 C   0  0  0  0  0  0  0  0  0  0  0  0
  180.2380  181.8760  136.7040 C   0  0  0  0  0  0  0  0  0  0  0  0
  179.6420  180.3890  137.2620 S   0  0  0  0  0  0  0  0  0  0  0  0
  181.5270  182.0790  137.2060 C   0  0  0  0  0  3  0  0  0  0  0  0
  181.2540  178.8520  138.9010 C   0  0  0  0  0  3  0  0  0  0  0  0
  179.3160  182.4590  134.6160 O   0  0  0  0  0  0  0  0  0  0  0  0
  179.4790  182.7890  135.8200 C   0  0  0  0  0  0  0  0  0  0  0  0
  178.9310  184.0070  136.2450 O   0  0  0  0  0  0  0  0  0  0  0  0
  180.3200  185.5130  137.4860 C   0  0  0  0  0  1  0  0  0  0  0  0
  179.1340  184.5740  137.5310 C   0  0  0  0  0  2  0  0  0  0  0  0
  188.4600  177.0500  142.3650 C   0  0  0  0  0  3  0  0  0  0  0  0
  189.5780  176.7780  141.5770 C   0  0  0  0  0  3  0  0  0  0  0  0
  188.7300  178.2570  139.8480 C   0  0  0  0  0  0  0  0  0  0  0  0
  187.6120  178.5230  140.6520 C   0  0  0  0  0  3  0  0  0  0  0  0
  189.7180  177.3690  140.3170 C   0  0  0  0  0  0  0  0  0  0  0  0
  187.4580  177.9180  141.9080 C   0  0  0  0  0  0  0  0  0  0  0  0
  188.8610  178.9020  138.5300 C   0  0  0  0  0  3  0  0  0  0  0  0
  187.9740  178.7330  137.6030 N   0  0  0  0  0  2  0  0  0  0  0  0
  190.9430  177.0700  139.5170 C   0  0  0  0  0  2  0  0  0  0  0  0
  190.8950  175.6980  139.0450 N   0  0  0  0  0  2  0  0  0  0  0  0
  190.3560  175.7370  137.6900 C   0  0  0  0  0  2  0  0  0  0  0  0
  191.2200  175.0330  136.7390 N   0  0  0  0  0  0  0  0  0  0  0  0
  193.6390  175.0460  136.7660 C   0  0  1  0  0  3  0  0  0  0  0  0
  194.1950  175.5180  137.9560 O   0  0  0  0  0  1  0  0  0  0  0  0
  193.1480  173.6360  136.9680 C   0  0  0  0  0  2  0  0  0  0  0  0
  191.6940  173.7890  137.3390 C   0  0  0  0  0  2  0  0  0  0  0  0
  192.3950  175.8510  136.4410 C   0  0  0  0  0  2  0  0  0  0  0  0
  1  2  1  0  0  0  0
  2  6  2  0  0  0  0
  3  6  1  0  0  0  0
  4  3  2  0  0  0  0
  5  1  2  0  0  0  0
  5  4  1  0  0  0  0
  7 12  1  0  0  0  0
  7  9  1  0  0  0  0
  8  5  1  1  0  0  0
  9  8  1  0  0  0  0
 10  8  1  0  0  0  0
 11 18  1  0  0  0  0
 12 10  1  0  0  0  0
 13  7  2  0  0  0  0
 14 11  2  0  0  0  0
 14 13  1  0  0  0  0
 15 17  2  0  0  0  0
 15 16  1  0  0  0  0
 16 11  1  0  0  0  0
 17 14  1  0  0  0  0
 18 12  2  0  0  0  0
 19 20  2  0  0  0  0
 20 21  1  0  0  0  0
 20 15  1  0  0  0  0
 21 23  1  0  0  0  0
 22 23  1  0  0  0  0
 25 24  2  0  0  0  0
 26 28  2  0  0  0  0
 26 27  1  0  0  0  0
 27 29  2  0  0  0  0
 28 25  1  0  0  0  0
 29 24  1  0  0  0  0
 29  1  1  0  0  0  0
 30 26  1  0  0  0  0
 31 30  2  0  0  0  0
 32 28  1  0  0  0  0
 33 32  1  0  0  0  0
 34 33  1  0  0  0  0
 35 39  1  0  0  0  0
 35 34  1  0  0  0  0
 36 38  1  0  0  0  0
 36 37  1  1  0  0  0
 38 39  1  0  0  0  0
 40 35  1  0  0  0  0
 40 36  1  0  0  0  0
M  END
>  <MODEL>
9

>  <REMARK>
 VINA RESULT:      -6.7      4.725      8.304
  Name = 
  10 active torsions:
  status: ('A' for Active; 'I' for Inactive)
    1  A    between atoms: C_2  and  C_36
    2  A    between atoms: N_3  and  C_10
    3  A    between atoms: C_6  and  C_30
    4  A    between atoms: C_8  and  C_27
    5  A    between atoms: C_8  and  O_37
    6  A    between atoms: C_10  and  N_32
    7  A    between atoms: C_14  and  N_32
    8  A    between atoms: C_14  and  C_34
    9  A    between atoms: C_25  and  C_26
   10  A    between atoms: C_31  and  O_37
                            x       y       z     vdW  Elec       q    Type
                         _______ _______ _______ _____ _____    ______ ____

>  <TORSDO>
F 10

$$$$
