=
 OpenBabel11042410123D

 32 37  0  0  1  0  0  0  0  0999 V2000
  186.5030  178.2470  144.9400 C   0  0  0  0  0  0  0  0  0  0  0  0
  185.2290  178.4950  142.8940 C   0  0  0  0  0  0  0  0  0  0  0  0
  186.5070  178.2500  146.3410 C   0  0  0  0  0  3  0  0  0  0  0  0
  185.2800  178.4780  144.2510 C   0  0  0  0  0  0  0  0  0  0  0  0
  184.0220  178.7270  142.1880 C   0  0  0  0  0  0  0  0  0  0  0  0
  187.5790  178.6950  138.6610 N   0  0  0  0  0  2  0  0  0  0  0  0
  186.4120  178.2810  142.1620 C   0  0  2  0  0  3  0  0  0  0  0  0
  185.1300  178.6780  138.6060 C   0  0  0  0  0  2  0  0  0  0  0  0
  185.1810  178.5550  140.1030 C   0  0  0  0  0  0  0  0  0  0  0  0
  184.1130  178.6990  145.0080 C   0  0  0  0  0  0  0  0  0  0  0  0
  184.0450  178.7470  140.8240 N   0  0  0  0  0  0  0  0  0  0  0  0
  182.7900  178.9370  144.3460 C   0  0  0  0  0  3  0  0  0  0  0  0
  184.1680  178.7000  146.3670 N   0  0  0  0  0  0  0  0  0  0  0  0
  187.6050  178.0300  142.8490 O   0  0  0  0  0  0  0  0  0  0  0  0
  187.6390  178.0250  144.2470 C   0  0  0  0  0  0  0  0  0  0  0  0
  186.3970  178.3270  140.7650 C   0  0  0  0  0  0  0  0  0  0  0  0
  182.8570  178.9420  142.8390 C   0  0  0  0  0  0  0  0  0  0  0  0
  185.3260  178.4820  147.0390 C   0  0  0  0  0  3  0  0  0  0  0  0
  186.4160  178.1680  137.9540 C   0  0  0  0  0  2  0  0  0  0  0  0
  187.6470  178.0520  139.9720 C   0  0  0  0  0  2  0  0  0  0  0  0
  191.1530  176.5280  144.4450 C   0  0  0  0  0  0  0  0  0  0  0  0
  191.7060  177.1040  148.0850 O   0  0  0  0  0  1  0  0  0  0  0  0
  191.4900  175.5480  143.8030 O   0  0  0  0  0  0  0  0  0  0  0  0
  189.7110  176.5250  146.9460 C   0  0  0  0  0  3  0  0  0  0  0  0
  188.9460  177.7550  144.9350 C   0  0  1  0  0  3  0  0  0  0  0  0
  191.8980  176.8430  145.7190 C   0  0  0  0  0  2  0  0  0  0  0  0
  188.7570  176.7410  146.0330 C   0  0  0  0  0  3  0  0  0  0  0  0
  190.0380  177.3940  143.9130 C   0  0  1  0  0  3  0  0  0  0  0  0
  190.7120  178.8790  143.1990 Cl  0  0  0  0  0  0  0  0  0  0  0  0
  191.0110  177.2760  146.8900 C   0  0  2  0  0  3  0  0  0  0  0  0
  181.6030  179.2190  142.0530 C   0  0  0  0  0  2  0  0  0  0  0  0
  180.7190  180.0290  142.7680 O   0  0  0  0  0  1  0  0  0  0  0  0
  1  3  1  0  0  0  0
  2  4  2  0  0  0  0
  3 18  2  0  0  0  0
  4  1  1  0  0  0  0
  4 10  1  0  0  0  0
  5 17  1  0  0  0  0
  5  2  1  0  0  0  0
  6 20  1  0  0  0  0
  7 16  1  1  0  0  0
  7 14  1  0  0  0  0
  7  2  1  0  0  0  0
  8  9  1  0  0  0  0
  9 16  2  0  0  0  0
  9 11  1  0  0  0  0
 10 13  2  0  0  0  0
 11  5  2  0  0  0  0
 12 10  1  0  0  0  0
 13 18  1  0  0  0  0
 14 15  1  0  0  0  0
 15  1  2  0  0  0  0
 17 12  2  0  0  0  0
 19  8  1  0  0  0  0
 19  6  1  0  0  0  0
 20 16  1  0  0  0  0
 21 26  1  0  0  0  0
 23 21  2  0  0  0  0
 25 15  1  6  0  0  0
 25 27  1  0  0  0  0
 26 30  1  0  0  0  0
 27 24  2  0  0  0  0
 28 29  1  1  0  0  0
 28 21  1  0  0  0  0
 28 25  1  0  0  0  0
 30 24  1  0  0  0  0
 30 22  1  1  0  0  0
 31 32  1  0  0  0  0
 31 17  1  0  0  0  0
M  END
>  <MODEL>
1

>  <REMARK>
 VINA RESULT:     -11.3      0.000      0.000
  Name = 
  2 active torsions:
  status: ('A' for Active; 'I' for Inactive)
    1  A    between atoms: C_13  and  C_29
    2  A    between atoms: C_16  and  C_27
                            x       y       z     vdW  Elec       q    Type
                         _______ _______ _______ _____ _____    ______ ____

>  <TORSDO>
F 2

$$$$
=
 OpenBabel11042410123D

 32 37  0  0  1  0  0  0  0  0999 V2000
  184.2220  178.5660  142.6790 C   0  0  0  0  0  0  0  0  0  0  0  0
  186.4620  178.1370  143.5000 C   0  0  0  0  0  0  0  0  0  0  0  0
  182.8800  178.8300  142.9810 C   0  0  0  0  0  3  0  0  0  0  0  0
  185.1530  178.4050  143.7430 C   0  0  0  0  0  0  0  0  0  0  0  0
  187.4040  177.9710  144.5460 C   0  0  0  0  0  0  0  0  0  0  0  0
  189.8970  176.7600  140.3740 N   0  0  0  0  0  2  0  0  0  0  0  0
  186.8990  178.0160  142.1680 C   0  0  2  0  0  3  0  0  0  0  0  0
  190.5630  177.1570  142.6970 C   0  0  0  0  0  2  0  0  0  0  0  0
  189.1360  177.5540  142.9510 C   0  0  0  0  0  0  0  0  0  0  0  0
  184.6860  178.5230  145.0680 C   0  0  0  0  0  0  0  0  0  0  0  0
  188.7000  177.6870  144.2310 N   0  0  0  0  0  0  0  0  0  0  0  0
  185.6150  178.3770  146.2350 C   0  0  0  0  0  3  0  0  0  0  0  0
  183.3720  178.7730  145.3110 N   0  0  0  0  0  0  0  0  0  0  0  0
  185.9810  178.2010  141.1280 O   0  0  0  0  0  0  0  0  0  0  0  0
  184.6350  178.4670  141.3980 C   0  0  0  0  0  0  0  0  0  0  0  0
  188.2330  177.7070  141.8870 C   0  0  0  0  0  0  0  0  0  0  0  0
  187.0390  178.0730  145.8430 C   0  0  0  0  0  0  0  0  0  0  0  0
  182.4730  178.9280  144.3070 C   0  0  0  0  0  3  0  0  0  0  0  0
  190.9420  177.3200  141.2250 C   0  0  0  0  0  2  0  0  0  0  0  0
  188.7210  177.6220  140.4660 C   0  0  0  0  0  2  0  0  0  0  0  0
  183.2920  177.6410  137.9150 C   0  0  0  0  0  0  0  0  0  0  0  0
  181.0380  180.5870  137.5680 O   0  0  0  0  0  1  0  0  0  0  0  0
  183.9840  177.1450  137.0410 O   0  0  0  0  0  0  0  0  0  0  0  0
  183.1580  180.4380  138.6130 C   0  0  0  0  0  3  0  0  0  0  0  0
  183.6910  178.6510  140.2460 C   0  0  1  0  0  3  0  0  0  0  0  0
  182.0790  178.4390  137.5040 C   0  0  0  0  0  2  0  0  0  0  0  0
  184.0080  179.9300  139.5130 C   0  0  0  0  0  3  0  0  0  0  0  0
  183.6620  177.3960  139.3560 C   0  0  1  0  0  3  0  0  0  0  0  0
  182.5720  176.1800  140.0630 Cl  0  0  0  0  0  0  0  0  0  0  0  0
  181.8690  179.7360  138.2910 C   0  0  2  0  0  3  0  0  0  0  0  0
  188.0630  177.8550  146.9260 C   0  0  0  0  0  2  0  0  0  0  0  0
  187.6440  178.3950  148.1430 O   0  0  0  0  0  1  0  0  0  0  0  0
  1  3  1  0  0  0  0
  1  4  1  0  0  0  0
  2  4  2  0  0  0  0
  2  5  1  0  0  0  0
  3 18  2  0  0  0  0
  4 10  1  0  0  0  0
  5 17  1  0  0  0  0
  6 20  1  0  0  0  0
  6 19  1  0  0  0  0
  7 14  1  1  0  0  0
  7  2  1  0  0  0  0
  8  9  1  0  0  0  0
  9 11  1  0  0  0  0
 10 13  2  0  0  0  0
 10 12  1  0  0  0  0
 11  5  2  0  0  0  0
 14 15  1  0  0  0  0
 15  1  2  0  0  0  0
 16  7  1  0  0  0  0
 16  9  2  0  0  0  0
 17 12  2  0  0  0  0
 17 31  1  0  0  0  0
 18 13  1  0  0  0  0
 19  8  1  0  0  0  0
 20 16  1  0  0  0  0
 21 28  1  0  0  0  0
 23 21  2  0  0  0  0
 24 27  2  0  0  0  0
 25 15  1  1  0  0  0
 26 21  1  0  0  0  0
 26 30  1  0  0  0  0
 27 25  1  0  0  0  0
 28 29  1  1  0  0  0
 28 25  1  0  0  0  0
 30 22  1  6  0  0  0
 30 24  1  0  0  0  0
 31 32  1  0  0  0  0
M  END
>  <MODEL>
2

>  <REMARK>
 VINA RESULT:     -10.4      3.020      7.105
  Name = 
  2 active torsions:
  status: ('A' for Active; 'I' for Inactive)
    1  A    between atoms: C_13  and  C_29
    2  A    between atoms: C_16  and  C_27
                            x       y       z     vdW  Elec       q    Type
                         _______ _______ _______ _____ _____    ______ ____

>  <TORSDO>
F 2

$$$$
=
 OpenBabel11042410123D

 32 37  0  0  1  0  0  0  0  0999 V2000
  186.0610  178.2420  144.3850 C   0  0  0  0  0  0  0  0  0  0  0  0
  184.4610  178.5030  142.5840 C   0  0  0  0  0  0  0  0  0  0  0  0
  186.3040  178.2530  145.7650 C   0  0  0  0  0  3  0  0  0  0  0  0
  184.7430  178.4940  143.9120 C   0  0  0  0  0  0  0  0  0  0  0  0
  183.1550  178.7560  142.0920 C   0  0  0  0  0  0  0  0  0  0  0  0
  186.0570  178.6280  138.0110 N   0  0  0  0  0  2  0  0  0  0  0  0
  185.4980  178.2600  141.6630 C   0  0  2  0  0  3  0  0  0  0  0  0
  183.6350  178.6610  138.3750 C   0  0  0  0  0  2  0  0  0  0  0  0
  183.9380  178.5470  139.8420 C   0  0  0  0  0  0  0  0  0  0  0  0
  183.7260  178.7430  144.8560 C   0  0  0  0  0  0  0  0  0  0  0  0
  182.9460  178.7670  140.7450 N   0  0  0  0  0  0  0  0  0  0  0  0
  182.3140  179.0040  144.4270 C   0  0  0  0  0  3  0  0  0  0  0  0
  184.0130  178.7510  146.1850 N   0  0  0  0  0  0  0  0  0  0  0  0
  186.7850  177.9890  142.1390 O   0  0  0  0  0  0  0  0  0  0  0  0
  187.0580  177.9920  143.5110 C   0  0  0  0  0  0  0  0  0  0  0  0
  185.2450  178.2980  140.2890 C   0  0  0  0  0  0  0  0  0  0  0  0
  182.1240  178.9980  142.9300 C   0  0  0  0  0  0  0  0  0  0  0  0
  185.2640  178.5130  146.6510 C   0  0  0  0  0  3  0  0  0  0  0  0
  184.7800  178.1210  137.5170 C   0  0  0  0  0  2  0  0  0  0  0  0
  186.3350  177.9920  139.2970 C   0  0  0  0  0  2  0  0  0  0  0  0
  190.4000  176.1440  143.3200 C   0  0  0  0  0  0  0  0  0  0  0  0
  191.7760  177.3230  146.5760 O   0  0  0  0  0  1  0  0  0  0  0  0
  190.5100  175.0270  142.8440 O   0  0  0  0  0  0  0  0  0  0  0  0
  189.5420  176.7860  146.0000 C   0  0  0  0  0  3  0  0  0  0  0  0
  188.4570  177.7000  143.9680 C   0  0  1  0  0  3  0  0  0  0  0  0
  191.4270  176.6000  144.3270 C   0  0  0  0  0  2  0  0  0  0  0  0
  188.4320  176.9400  145.2690 C   0  0  0  0  0  3  0  0  0  0  0  0
  189.2680  177.0230  142.8490 C   0  0  1  0  0  3  0  0  0  0  0  0
  189.8860  178.2540  141.7220 Cl  0  0  0  0  0  0  0  0  0  0  0  0
  190.8540  177.3500  145.5330 C   0  0  2  0  0  3  0  0  0  0  0  0
  180.7590  179.2960  142.3680 C   0  0  0  0  0  2  0  0  0  0  0  0
  180.2620  180.5100  142.8440 O   0  0  0  0  0  1  0  0  0  0  0  0
  1  3  1  0  0  0  0
  2  4  2  0  0  0  0
  3 18  2  0  0  0  0
  4  1  1  0  0  0  0
  4 10  1  0  0  0  0
  5  2  1  0  0  0  0
  5 17  1  0  0  0  0
  6 20  1  0  0  0  0
  7 16  1  6  0  0  0
  7 14  1  0  0  0  0
  7  2  1  0  0  0  0
  8  9  1  0  0  0  0
  9 16  2  0  0  0  0
  9 11  1  0  0  0  0
 10 13  2  0  0  0  0
 11  5  2  0  0  0  0
 12 10  1  0  0  0  0
 13 18  1  0  0  0  0
 14 15  1  0  0  0  0
 15  1  2  0  0  0  0
 17 12  2  0  0  0  0
 19  6  1  0  0  0  0
 19  8  1  0  0  0  0
 20 16  1  0  0  0  0
 21 26  1  0  0  0  0
 23 21  2  0  0  0  0
 25 15  1  6  0  0  0
 25 27  1  0  0  0  0
 26 30  1  0  0  0  0
 27 24  2  0  0  0  0
 28 29  1  6  0  0  0
 28 21  1  0  0  0  0
 28 25  1  0  0  0  0
 30 24  1  0  0  0  0
 30 22  1  1  0  0  0
 31 32  1  0  0  0  0
 31 17  1  0  0  0  0
M  END
>  <MODEL>
3

>  <REMARK>
 VINA RESULT:     -10.3      1.042      1.137
  Name = 
  2 active torsions:
  status: ('A' for Active; 'I' for Inactive)
    1  A    between atoms: C_13  and  C_29
    2  A    between atoms: C_16  and  C_27
                            x       y       z     vdW  Elec       q    Type
                         _______ _______ _______ _____ _____    ______ ____

>  <TORSDO>
F 2

$$$$
=
 OpenBabel11042410123D

 32 37  0  0  1  0  0  0  0  0999 V2000
  184.9820  178.3190  143.5550 C   0  0  0  0  0  0  0  0  0  0  0  0
  187.2710  177.9650  144.2660 C   0  0  0  0  0  0  0  0  0  0  0  0
  183.6540  178.5740  143.9190 C   0  0  0  0  0  3  0  0  0  0  0  0
  185.9730  178.2210  144.5710 C   0  0  0  0  0  0  0  0  0  0  0  0
  188.2730  177.8610  145.2640 C   0  0  0  0  0  0  0  0  0  0  0  0
  190.5550  176.5090  141.0140 N   0  0  0  0  0  2  0  0  0  0  0  0
  187.6360  177.7930  142.9180 C   0  0  2  0  0  3  0  0  0  0  0  0
  191.3400  177.0200  143.2770 C   0  0  0  0  0  2  0  0  0  0  0  0
  189.9210  177.4040  143.5930 C   0  0  0  0  0  0  0  0  0  0  0  0
  185.5780  178.3900  145.9130 C   0  0  0  0  0  0  0  0  0  0  0  0
  189.5550  177.5860  144.8890 N   0  0  0  0  0  0  0  0  0  0  0  0
  186.5720  178.3110  147.0320 C   0  0  0  0  0  3  0  0  0  0  0  0
  184.2750  178.6280  146.2190 N   0  0  0  0  0  0  0  0  0  0  0  0
  186.6590  177.9150  141.9240 O   0  0  0  0  0  0  0  0  0  0  0  0
  185.3250  178.1710  142.2580 C   0  0  0  0  0  0  0  0  0  0  0  0
  188.9580  177.4940  142.5770 C   0  0  0  0  0  0  0  0  0  0  0  0
  187.9790  178.0140  146.5740 C   0  0  0  0  0  0  0  0  0  0  0  0
  183.3180  178.7230  145.2610 C   0  0  0  0  0  3  0  0  0  0  0  0
  191.6340  177.1250  141.7800 C   0  0  0  0  0  2  0  0  0  0  0  0
  189.3680  177.3550  141.1350 C   0  0  0  0  0  2  0  0  0  0  0  0
  183.9160  179.7360  139.0670 C   0  0  0  0  0  0  0  0  0  0  0  0
  180.5820  178.0740  139.1600 O   0  0  0  0  0  1  0  0  0  0  0  0
  184.1480  180.8870  138.7380 O   0  0  0  0  0  0  0  0  0  0  0  0
  181.9130  178.8630  140.9530 C   0  0  0  0  0  3  0  0  0  0  0  0
  184.3150  178.2870  141.1530 C   0  0  1  0  0  3  0  0  0  0  0  0
  182.6590  179.0800  138.5480 C   0  0  0  0  0  2  0  0  0  0  0  0
  183.0370  178.8900  141.6780 C   0  0  0  0  0  3  0  0  0  0  0  0
  184.9150  179.0180  139.9390 C   0  0  1  0  0  3  0  0  0  0  0  0
  185.8660  177.8780  138.9580 Cl  0  0  0  0  0  0  0  0  0  0  0  0
  181.8970  178.2470  139.5820 C   0  0  2  0  0  3  0  0  0  0  0  0
  189.0650  177.8630  147.6060 C   0  0  0  0  0  2  0  0  0  0  0  0
  188.6270  178.2530  148.8720 O   0  0  0  0  0  1  0  0  0  0  0  0
  1  3  1  0  0  0  0
  1  4  1  0  0  0  0
  2  4  2  0  0  0  0
  2  5  1  0  0  0  0
  3 18  2  0  0  0  0
  4 10  1  0  0  0  0
  5 17  1  0  0  0  0
  6 20  1  0  0  0  0
  6 19  1  0  0  0  0
  7 14  1  1  0  0  0
  7  2  1  0  0  0  0
  8  9  1  0  0  0  0
  9 11  1  0  0  0  0
 10 13  2  0  0  0  0
 10 12  1  0  0  0  0
 11  5  2  0  0  0  0
 14 15  1  0  0  0  0
 15  1  2  0  0  0  0
 16  7  1  0  0  0  0
 16  9  2  0  0  0  0
 17 12  2  0  0  0  0
 17 31  1  0  0  0  0
 18 13  1  0  0  0  0
 19  8  1  0  0  0  0
 20 16  1  0  0  0  0
 21 28  1  0  0  0  0
 23 21  2  0  0  0  0
 24 27  2  0  0  0  0
 25 27  1  0  0  0  0
 25 15  1  1  0  0  0
 26 21  1  0  0  0  0
 26 30  1  0  0  0  0
 28 29  1  6  0  0  0
 28 25  1  0  0  0  0
 30 22  1  6  0  0  0
 30 24  1  0  0  0  0
 31 32  1  0  0  0  0
M  END
>  <MODEL>
4

>  <REMARK>
 VINA RESULT:     -10.2      2.515      6.895
  Name = 
  2 active torsions:
  status: ('A' for Active; 'I' for Inactive)
    1  A    between atoms: C_13  and  C_29
    2  A    between atoms: C_16  and  C_27
                            x       y       z     vdW  Elec       q    Type
                         _______ _______ _______ _____ _____    ______ ____

>  <TORSDO>
F 2

$$$$
=
 OpenBabel11042410123D

 32 37  0  0  1  0  0  0  0  0999 V2000
  187.7650  178.1600  141.0380 C   0  0  0  0  0  0  0  0  0  0  0  0
  188.8080  177.6350  138.9150 C   0  0  0  0  0  0  0  0  0  0  0  0
  186.6340  178.6270  141.7190 C   0  0  0  0  0  3  0  0  0  0  0  0
  187.7320  178.0720  139.6180 C   0  0  0  0  0  0  0  0  0  0  0  0
  188.7970  177.5440  137.4990 C   0  0  0  0  0  0  0  0  0  0  0  0
  193.5330  176.5650  138.8070 N   0  0  0  0  0  2  0  0  0  0  0  0
  189.9750  177.2640  139.6090 C   0  0  0  0  0  0  0  0  0  0  0  0
  192.2730  176.3780  136.7140 C   0  0  0  0  0  2  0  0  0  0  0  0
  191.0570  176.7620  137.5100 C   0  0  0  0  0  0  0  0  0  0  0  0
  186.5540  178.4580  138.9480 C   0  0  0  0  0  0  0  0  0  0  0  0
  189.9190  177.1120  136.8550 N   0  0  0  0  0  0  0  0  0  0  0  0
  186.4480  178.3800  137.4550 C   0  0  0  0  0  2  0  0  0  0  0  0
  185.4840  178.9130  139.6520 N   0  0  0  0  0  0  0  0  0  0  0  0
  189.9890  177.3300  141.0070 O   0  0  0  0  0  0  0  0  0  0  0  0
  188.8740  177.7920  141.7130 C   0  0  0  0  0  0  0  0  0  0  0  0
  191.1100  176.8430  138.9090 C   0  0  0  0  0  0  0  0  0  0  0  0
  187.7060  177.8890  136.7820 C   0  0  0  0  0  0  0  0  0  0  0  0
  185.5000  179.0030  141.0050 C   0  0  0  0  0  3  0  0  0  0  0  0
  193.3570  175.7620  137.6010 C   0  0  0  0  0  2  0  0  0  0  0  0
  192.3460  176.3990  139.6450 C   0  0  0  0  0  2  0  0  0  0  0  0
  190.5900  177.2050  145.0800 C   0  0  0  0  0  0  0  0  0  0  0  0
  187.6290  177.8750  147.2410 O   0  0  0  0  0  1  0  0  0  0  0  0
  191.4350  176.3420  145.2480 O   0  0  0  0  0  0  0  0  0  0  0  0
  187.7280  176.8300  145.1170 C   0  0  0  0  0  3  0  0  0  0  0  0
  188.9430  177.8470  143.2120 C   0  0  1  0  0  3  0  0  0  0  0  0
  189.8050  177.6850  146.2760 C   0  0  0  0  0  2  0  0  0  0  0  0
  188.0310  176.8100  143.8140 C   0  0  0  0  0  3  0  0  0  0  0  0
  190.4020  177.7730  143.6950 C   0  0  1  0  0  3  0  0  0  0  0  0
  191.1550  179.3820  143.5940 Cl  0  0  0  0  0  0  0  0  0  0  0  0
  188.3070  177.8780  146.0240 C   0  0  2  0  0  3  0  0  0  0  0  0
  187.7450  177.8110  135.2790 C   0  0  0  0  0  2  0  0  0  0  0  0
  186.4640  177.8780  134.7280 O   0  0  0  0  0  1  0  0  0  0  0  0
  1 15  2  0  0  0  0
  1  3  1  0  0  0  0
  2  7  1  0  0  0  0
  2  4  2  0  0  0  0
  4  1  1  0  0  0  0
  5  2  1  0  0  0  0
  6 20  1  0  0  0  0
  7 14  1  0  0  0  0
  8  9  1  0  0  0  0
  8 19  1  0  0  0  0
  9 16  1  0  0  0  0
 10  4  1  0  0  0  0
 10 13  2  0  0  0  0
 11  5  1  0  0  0  0
 11  9  2  0  0  0  0
 12 10  1  0  0  0  0
 13 18  1  0  0  0  0
 14 15  1  0  0  0  0
 16  7  2  0  0  0  0
 16 20  1  0  0  0  0
 17 12  1  0  0  0  0
 17  5  2  0  0  0  0
 18  3  2  0  0  0  0
 19  6  1  0  0  0  0
 21 23  2  0  0  0  0
 21 26  1  0  0  0  0
 24 30  1  0  0  0  0
 25 15  1  6  0  0  0
 25 28  1  0  0  0  0
 25 27  1  0  0  0  0
 27 24  2  0  0  0  0
 28 29  1  1  0  0  0
 28 21  1  0  0  0  0
 30 26  1  0  0  0  0
 30 22  1  1  0  0  0
 31 17  1  0  0  0  0
 32 31  1  0  0  0  0
M  END
>  <MODEL>
5

>  <REMARK>
 VINA RESULT:     -10.0      3.240      5.513
  Name = 
  2 active torsions:
  status: ('A' for Active; 'I' for Inactive)
    1  A    between atoms: C_13  and  C_29
    2  A    between atoms: C_16  and  C_27
                            x       y       z     vdW  Elec       q    Type
                         _______ _______ _______ _____ _____    ______ ____

>  <TORSDO>
F 2

$$$$
=
 OpenBabel11042410123D

 32 37  0  0  1  0  0  0  0  0999 V2000
  185.6630  178.0570  144.1710 C   0  0  0  0  0  0  0  0  0  0  0  0
  187.9340  177.8560  143.3520 C   0  0  0  0  0  0  0  0  0  0  0  0
  184.8020  178.1230  145.2740 C   0  0  0  0  0  3  0  0  0  0  0  0
  187.0630  177.9340  144.3900 C   0  0  0  0  0  0  0  0  0  0  0  0
  189.3330  177.7290  143.5490 C   0  0  0  0  0  0  0  0  0  0  0  0
  188.6830  177.1830  138.6120 N   0  0  0  0  0  2  0  0  0  0  0  0
  187.4360  177.8980  142.0360 C   0  0  2  0  0  3  0  0  0  0  0  0
  190.6470  177.4760  140.0470 C   0  0  0  0  0  2  0  0  0  0  0  0
  189.6840  177.6660  141.1850 C   0  0  0  0  0  0  0  0  0  0  0  0
  187.5330  177.8850  145.7180 C   0  0  0  0  0  0  0  0  0  0  0  0
  190.1500  177.6400  142.4610 N   0  0  0  0  0  0  0  0  0  0  0  0
  188.9960  177.7670  146.0200 C   0  0  0  0  0  3  0  0  0  0  0  0
  186.6590  177.9440  146.7570 N   0  0  0  0  0  0  0  0  0  0  0  0
  186.0600  178.0450  141.8310 O   0  0  0  0  0  0  0  0  0  0  0  0
  185.1770  178.1140  142.9130 C   0  0  0  0  0  0  0  0  0  0  0  0
  188.3060  177.7850  140.9480 C   0  0  0  0  0  0  0  0  0  0  0  0
  189.8650  177.6800  144.7900 C   0  0  0  0  0  0  0  0  0  0  0  0
  185.3210  178.0620  146.5640 C   0  0  0  0  0  3  0  0  0  0  0  0
  190.0010  177.8040  138.6990 C   0  0  0  0  0  2  0  0  0  0  0  0
  187.7890  177.8780  139.5370 C   0  0  0  0  0  2  0  0  0  0  0  0
  182.1940  179.1570  140.7590 C   0  0  0  0  0  0  0  0  0  0  0  0
  179.5720  178.8010  143.3830 O   0  0  0  0  0  1  0  0  0  0  0  0
  182.2650  180.0320  139.9140 O   0  0  0  0  0  0  0  0  0  0  0  0
  181.8120  179.5420  143.5950 C   0  0  0  0  0  3  0  0  0  0  0  0
  183.7090  178.2660  142.6370 C   0  0  1  0  0  3  0  0  0  0  0  0
  180.8460  178.8490  141.3640 C   0  0  0  0  0  2  0  0  0  0  0  0
  183.1350  179.3800  143.4750 C   0  0  0  0  0  3  0  0  0  0  0  0
  183.4480  178.4030  141.1270 C   0  0  1  0  0  3  0  0  0  0  0  0
  183.4300  176.7930  140.3690 Cl  0  0  0  0  0  0  0  0  0  0  0  0
  180.8580  178.6270  142.8790 C   0  0  2  0  0  3  0  0  0  0  0  0
  191.3520  177.5110  144.9580 C   0  0  0  0  0  2  0  0  0  0  0  0
  191.6810  177.1280  146.2590 O   0  0  0  0  0  1  0  0  0  0  0  0
  1  4  1  0  0  0  0
  1  3  1  0  0  0  0
  2  5  1  0  0  0  0
  2  4  2  0  0  0  0
  3 18  2  0  0  0  0
  4 10  1  0  0  0  0
  5 17  1  0  0  0  0
  6 19  1  0  0  0  0
  6 20  1  0  0  0  0
  7 16  1  1  0  0  0
  7  2  1  0  0  0  0
  8  9  1  0  0  0  0
  9 11  1  0  0  0  0
 10 12  1  0  0  0  0
 10 13  2  0  0  0  0
 11  5  2  0  0  0  0
 14  7  1  0  0  0  0
 14 15  1  0  0  0  0
 15  1  2  0  0  0  0
 16  9  2  0  0  0  0
 17 31  1  0  0  0  0
 17 12  2  0  0  0  0
 18 13  1  0  0  0  0
 19  8  1  0  0  0  0
 20 16  1  0  0  0  0
 21 28  1  0  0  0  0
 21 26  1  0  0  0  0
 23 21  2  0  0  0  0
 25 15  1  6  0  0  0
 25 27  1  0  0  0  0
 26 30  1  0  0  0  0
 27 24  2  0  0  0  0
 28 29  1  1  0  0  0
 28 25  1  0  0  0  0
 30 22  1  1  0  0  0
 30 24  1  0  0  0  0
 31 32  1  0  0  0  0
M  END
>  <MODEL>
6

>  <REMARK>
 VINA RESULT:      -9.6      2.268      6.804
  Name = 
  2 active torsions:
  status: ('A' for Active; 'I' for Inactive)
    1  A    between atoms: C_13  and  C_29
    2  A    between atoms: C_16  and  C_27
                            x       y       z     vdW  Elec       q    Type
                         _______ _______ _______ _____ _____    ______ ____

>  <TORSDO>
F 2

$$$$
=
 OpenBabel11042410123D

 32 37  0  0  1  0  0  0  0  0999 V2000
  186.4240  178.3150  143.3890 C   0  0  0  0  0  0  0  0  0  0  0  0
  185.8800  178.4590  141.0320 C   0  0  0  0  0  0  0  0  0  0  0  0
  185.9730  178.3640  144.7140 C   0  0  0  0  0  3  0  0  0  0  0  0
  185.4880  178.4880  142.3310 C   0  0  0  0  0  0  0  0  0  0  0  0
  184.9640  178.6330  139.9640 C   0  0  0  0  0  0  0  0  0  0  0  0
  189.4740  178.5830  137.7840 N   0  0  0  0  0  2  0  0  0  0  0  0
  187.2400  178.2530  140.7320 C   0  0  0  0  0  0  0  0  0  0  0  0
  187.1770  178.4950  136.9400 C   0  0  0  0  0  2  0  0  0  0  0  0
  186.7400  178.4240  138.3760 C   0  0  0  0  0  0  0  0  0  0  0  0
  184.1340  178.7010  142.6600 C   0  0  0  0  0  0  0  0  0  0  0  0
  185.4290  178.6080  138.6820 N   0  0  0  0  0  0  0  0  0  0  0  0
  183.0950  178.8800  141.5960 C   0  0  0  0  0  2  0  0  0  0  0  0
  183.7450  178.7490  143.9620 N   0  0  0  0  0  0  0  0  0  0  0  0
  188.1490  178.0590  141.7780 O   0  0  0  0  0  0  0  0  0  0  0  0
  187.7270  178.1010  143.1110 C   0  0  0  0  0  0  0  0  0  0  0  0
  187.6790  178.2530  139.4050 C   0  0  0  0  0  0  0  0  0  0  0  0
  183.6480  178.8370  140.1930 C   0  0  0  0  0  0  0  0  0  0  0  0
  184.6250  178.5850  144.9810 C   0  0  0  0  0  3  0  0  0  0  0  0
  188.6130  178.0000  136.7600 C   0  0  0  0  0  2  0  0  0  0  0  0
  189.1230  177.9860  139.0720 C   0  0  0  0  0  2  0  0  0  0  0  0
  191.0080  176.7100  144.4980 C   0  0  0  0  0  0  0  0  0  0  0  0
  190.3400  177.4250  148.0930 O   0  0  0  0  0  1  0  0  0  0  0  0
  191.5500  175.7180  144.0400 O   0  0  0  0  0  0  0  0  0  0  0  0
  188.8330  176.7530  146.3950 C   0  0  0  0  0  3  0  0  0  0  0  0
  188.7440  177.8920  144.1950 C   0  0  1  0  0  3  0  0  0  0  0  0
  191.2950  177.0890  145.9300 C   0  0  0  0  0  2  0  0  0  0  0  0
  188.2230  176.9110  145.2140 C   0  0  0  0  0  3  0  0  0  0  0  0
  190.1140  177.5260  143.5980 C   0  0  1  0  0  3  0  0  0  0  0  0
  190.9610  179.0030  143.0800 Cl  0  0  0  0  0  0  0  0  0  0  0  0
  190.0690  177.5370  146.7320 C   0  0  2  0  0  3  0  0  0  0  0  0
  182.7130  179.0510  139.0330 C   0  0  0  0  0  2  0  0  0  0  0  0
  182.5450  180.4090  138.7540 O   0  0  0  0  0  1  0  0  0  0  0  0
  1  3  1  0  0  0  0
  2  4  2  0  0  0  0
  3 18  2  0  0  0  0
  4 10  1  0  0  0  0
  4  1  1  0  0  0  0
  5 17  2  0  0  0  0
  5  2  1  0  0  0  0
  6 20  1  0  0  0  0
  7  2  1  0  0  0  0
  7 14  1  0  0  0  0
  8  9  1  0  0  0  0
  9 11  2  0  0  0  0
  9 16  1  0  0  0  0
 10 13  2  0  0  0  0
 11  5  1  0  0  0  0
 12 10  1  0  0  0  0
 13 18  1  0  0  0  0
 14 15  1  0  0  0  0
 15  1  2  0  0  0  0
 16  7  2  0  0  0  0
 17 12  1  0  0  0  0
 19  8  1  0  0  0  0
 19  6  1  0  0  0  0
 20 16  1  0  0  0  0
 21 26  1  0  0  0  0
 23 21  2  0  0  0  0
 24 30  1  0  0  0  0
 25 15  1  6  0  0  0
 25 27  1  0  0  0  0
 26 30  1  0  0  0  0
 27 24  2  0  0  0  0
 28 29  1  1  0  0  0
 28 25  1  0  0  0  0
 28 21  1  0  0  0  0
 30 22  1  1  0  0  0
 31 17  1  0  0  0  0
 32 31  1  0  0  0  0
M  END
>  <MODEL>
7

>  <REMARK>
 VINA RESULT:      -9.6      1.460      2.003
  Name = 
  2 active torsions:
  status: ('A' for Active; 'I' for Inactive)
    1  A    between atoms: C_13  and  C_29
    2  A    between atoms: C_16  and  C_27
                            x       y       z     vdW  Elec       q    Type
                         _______ _______ _______ _____ _____    ______ ____

>  <TORSDO>
F 2

$$$$
=
 OpenBabel11042410123D

 32 37  0  0  1  0  0  0  0  0999 V2000
  189.9300  177.3730  142.2540 C   0  0  0  0  0  0  0  0  0  0  0  0
  187.9630  177.7770  143.6110 C   0  0  0  0  0  0  0  0  0  0  0  0
  191.3040  177.1070  142.2100 C   0  0  0  0  0  3  0  0  0  0  0  0
  189.2910  177.5080  143.5180 C   0  0  0  0  0  0  0  0  0  0  0  0
  187.3090  177.9190  144.8610 C   0  0  0  0  0  0  0  0  0  0  0  0
  183.8650  179.2090  141.4590 N   0  0  0  0  0  2  0  0  0  0  0  0
  187.2110  177.9250  142.4310 C   0  0  2  0  0  3  0  0  0  0  0  0
  183.7930  178.7620  143.8670 C   0  0  0  0  0  2  0  0  0  0  0  0
  185.2380  178.3640  143.7510 C   0  0  0  0  0  0  0  0  0  0  0  0
  190.0700  177.3640  144.6840 C   0  0  0  0  0  0  0  0  0  0  0  0
  185.9750  178.2050  144.8810 N   0  0  0  0  0  0  0  0  0  0  0  0
  189.4590  177.4830  146.0470 C   0  0  0  0  0  3  0  0  0  0  0  0
  191.4030  177.1140  144.5900 N   0  0  0  0  0  0  0  0  0  0  0  0
  187.8440  177.7650  141.1930 O   0  0  0  0  0  0  0  0  0  0  0  0
  189.2140  177.4980  141.1170 C   0  0  0  0  0  0  0  0  0  0  0  0
  185.8500  178.2360  142.4950 C   0  0  0  0  0  0  0  0  0  0  0  0
  187.9820  177.7910  146.0250 C   0  0  0  0  0  0  0  0  0  0  0  0
  192.0260  176.9820  143.3920 C   0  0  0  0  0  3  0  0  0  0  0  0
  183.0610  178.6280  142.5300 C   0  0  0  0  0  2  0  0  0  0  0  0
  185.0260  178.3490  141.2400 C   0  0  0  0  0  2  0  0  0  0  0  0
  189.0960  176.9290  137.3380 C   0  0  0  0  0  0  0  0  0  0  0  0
  192.7450  176.3650  136.8330 O   0  0  0  0  0  1  0  0  0  0  0  0
  188.1840  176.3360  136.7880 O   0  0  0  0  0  0  0  0  0  0  0  0
  191.3700  175.7330  138.6550 C   0  0  0  0  0  3  0  0  0  0  0  0
  189.8440  177.3410  139.7640 C   0  0  1  0  0  3  0  0  0  0  0  0
  190.4410  176.9700  136.6550 C   0  0  0  0  0  2  0  0  0  0  0  0
  190.5290  176.0030  139.6610 C   0  0  0  0  0  3  0  0  0  0  0  0
  188.8210  177.6220  138.6490 C   0  0  1  0  0  3  0  0  0  0  0  0
  188.6810  179.3770  138.3870 Cl  0  0  0  0  0  0  0  0  0  0  0  0
  191.6390  176.7530  137.5850 C   0  0  2  0  0  3  0  0  0  0  0  0
  187.2580  177.9820  147.3320 C   0  0  0  0  0  2  0  0  0  0  0  0
  188.0900  177.7230  148.4220 O   0  0  0  0  0  1  0  0  0  0  0  0
  1  4  1  0  0  0  0
  2  5  1  0  0  0  0
  3  1  1  0  0  0  0
  3 18  2  0  0  0  0
  4  2  2  0  0  0  0
  4 10  1  0  0  0  0
  5 11  2  0  0  0  0
  5 17  1  0  0  0  0
  6 19  1  0  0  0  0
  7 14  1  6  0  0  0
  7 16  1  0  0  0  0
  7  2  1  0  0  0  0
  9  8  1  0  0  0  0
  9 11  1  0  0  0  0
 10 12  1  0  0  0  0
 13 10  2  0  0  0  0
 15 14  1  0  0  0  0
 15  1  2  0  0  0  0
 16  9  2  0  0  0  0
 17 12  2  0  0  0  0
 17 31  1  0  0  0  0
 18 13  1  0  0  0  0
 19  8  1  0  0  0  0
 20  6  1  0  0  0  0
 20 16  1  0  0  0  0
 21 28  1  0  0  0  0
 23 21  2  0  0  0  0
 24 27  2  0  0  0  0
 25 15  1  1  0  0  0
 26 21  1  0  0  0  0
 26 30  1  0  0  0  0
 27 25  1  0  0  0  0
 28 29  1  6  0  0  0
 28 25  1  0  0  0  0
 30 22  1  6  0  0  0
 30 24  1  0  0  0  0
 31 32  1  0  0  0  0
M  END
>  <MODEL>
8

>  <REMARK>
 VINA RESULT:      -9.2      3.123      6.285
  Name = 
  2 active torsions:
  status: ('A' for Active; 'I' for Inactive)
    1  A    between atoms: C_13  and  C_29
    2  A    between atoms: C_16  and  C_27
                            x       y       z     vdW  Elec       q    Type
                         _______ _______ _______ _____ _____    ______ ____

>  <TORSDO>
F 2

$$$$
=
 OpenBabel11042410123D

 32 37  0  0  1  0  0  0  0  0999 V2000
  189.3220  177.6150  141.3730 C   0  0  0  0  0  0  0  0  0  0  0  0
  188.1680  177.8200  143.4940 C   0  0  0  0  0  0  0  0  0  0  0  0
  190.5290  177.3950  140.6970 C   0  0  0  0  0  3  0  0  0  0  0  0
  189.3120  177.6020  142.7960 C   0  0  0  0  0  0  0  0  0  0  0  0
  188.1380  177.8150  144.9120 C   0  0  0  0  0  0  0  0  0  0  0  0
  183.5670  179.3380  143.5400 N   0  0  0  0  0  2  0  0  0  0  0  0
  186.9730  178.0640  142.7910 C   0  0  2  0  0  3  0  0  0  0  0  0
  184.5610  178.6480  145.6690 C   0  0  0  0  0  2  0  0  0  0  0  0
  185.7980  178.3070  144.8860 C   0  0  0  0  0  0  0  0  0  0  0  0
  190.5240  177.3650  143.4740 C   0  0  0  0  0  0  0  0  0  0  0  0
  186.9570  178.0580  145.5490 N   0  0  0  0  0  0  0  0  0  0  0  0
  190.5820  177.3270  144.9710 C   0  0  0  0  0  3  0  0  0  0  0  0
  191.6720  177.1650  142.7750 N   0  0  0  0  0  0  0  0  0  0  0  0
  186.9880  178.0490  141.3920 O   0  0  0  0  0  0  0  0  0  0  0  0
  188.1780  177.8310  140.6900 C   0  0  0  0  0  0  0  0  0  0  0  0
  185.7870  178.3260  143.4830 C   0  0  0  0  0  0  0  0  0  0  0  0
  189.2550  177.5910  145.6370 C   0  0  0  0  0  0  0  0  0  0  0  0
  191.6980  177.1740  141.4180 C   0  0  0  0  0  3  0  0  0  0  0  0
  183.3110  178.6280  144.7890 C   0  0  0  0  0  2  0  0  0  0  0  0
  184.4950  178.5390  142.7410 C   0  0  0  0  0  2  0  0  0  0  0  0
  186.6570  176.8920  137.3100 C   0  0  0  0  0  0  0  0  0  0  0  0
  189.5390  177.9350  135.1900 O   0  0  0  0  0  1  0  0  0  0  0  0
  185.9550  175.9070  137.1530 O   0  0  0  0  0  0  0  0  0  0  0  0
  189.5430  176.9510  137.3450 C   0  0  0  0  0  3  0  0  0  0  0  0
  188.1400  177.8310  139.1900 C   0  0  1  0  0  3  0  0  0  0  0  0
  187.3910  177.4480  136.1150 C   0  0  0  0  0  2  0  0  0  0  0  0
  189.2130  176.9250  138.6420 C   0  0  0  0  0  3  0  0  0  0  0  0
  186.7210  177.5230  138.6780 C   0  0  1  0  0  3  0  0  0  0  0  0
  185.7330  179.0030  138.7100 Cl  0  0  0  0  0  0  0  0  0  0  0  0
  188.8360  177.8730  136.3910 C   0  0  2  0  0  3  0  0  0  0  0  0
  189.1880  177.6270  147.1410 C   0  0  0  0  0  2  0  0  0  0  0  0
  190.3570  177.1280  147.7180 O   0  0  0  0  0  1  0  0  0  0  0  0
  1  4  1  0  0  0  0
  2  5  1  0  0  0  0
  3  1  1  0  0  0  0
  3 18  2  0  0  0  0
  4 10  1  0  0  0  0
  4  2  2  0  0  0  0
  5 11  2  0  0  0  0
  5 17  1  0  0  0  0
  6 19  1  0  0  0  0
  7 14  1  6  0  0  0
  7 16  1  0  0  0  0
  7  2  1  0  0  0  0
  9 11  1  0  0  0  0
  9  8  1  0  0  0  0
 10 12  1  0  0  0  0
 12 17  2  0  0  0  0
 13 10  2  0  0  0  0
 15  1  2  0  0  0  0
 15 14  1  0  0  0  0
 16  9  2  0  0  0  0
 17 31  1  0  0  0  0
 18 13  1  0  0  0  0
 19  8  1  0  0  0  0
 20 16  1  0  0  0  0
 20  6  1  0  0  0  0
 21 28  1  0  0  0  0
 23 21  2  0  0  0  0
 24 27  2  0  0  0  0
 25 15  1  1  0  0  0
 26 30  1  0  0  0  0
 26 21  1  0  0  0  0
 27 25  1  0  0  0  0
 28 29  1  6  0  0  0
 28 25  1  0  0  0  0
 30 22  1  6  0  0  0
 30 24  1  0  0  0  0
 31 32  1  0  0  0  0
M  END
>  <MODEL>
9

>  <REMARK>
 VINA RESULT:      -9.2      2.925      7.276
  Name = 
  2 active torsions:
  status: ('A' for Active; 'I' for Inactive)
    1  A    between atoms: C_13  and  C_29
    2  A    between atoms: C_16  and  C_27
                            x       y       z     vdW  Elec       q    Type
                         _______ _______ _______ _____ _____    ______ ____

>  <TORSDO>
F 2

$$$$
