=
 OpenBabel11032419473D

 65 72  0  0  1  0  0  0  0  0999 V2000
  190.4160  177.3800  140.2410 C   0  0  2  0  0  3  0  0  0  0  0  0
  189.8910  176.4830  142.5960 C   0  0  0  0  0  0  0  0  0  0  0  0
  191.2180  177.2130  144.4650 N   0  0  0  0  0  0  0  0  0  0  0  0
  188.9030  175.6640  142.0630 O   0  0  0  0  0  1  0  0  0  0  0  0
  191.6540  178.4260  143.7600 C   0  0  0  0  0  2  0  0  0  0  0  0
  190.2090  176.3750  143.8870 C   0  0  0  0  0  3  0  0  0  0  0  0
  191.4910  178.2950  142.2710 C   0  0  0  0  0  3  0  0  0  0  0  0
  190.6120  177.4400  141.7320 C   0  0  0  0  0  0  0  0  0  0  0  0
  191.6170  176.9220  145.8430 C   0  0  0  0  0  2  0  0  0  0  0  0
  190.4690  176.4430  146.7260 C   0  0  0  0  0  2  0  0  0  0  0  0
  189.9510  177.5030  147.4700 O   0  0  0  0  0  0  0  0  0  0  0  0
  188.5920  177.2100  147.5880 C   0  0  0  0  0  2  0  0  0  0  0  0
  184.6540  179.0370  145.0500 C   0  0  0  0  0  2  0  0  0  0  0  0
  185.9140  177.7380  142.7280 C   0  0  0  0  0  2  0  0  0  0  0  0
  184.2550  179.4680  143.6410 C   0  0  0  0  0  2  0  0  0  0  0  0
  186.0060  178.4690  145.0700 N   0  0  0  0  0  0  0  0  0  0  0  0
  184.4950  178.3280  142.6510 C   0  0  0  0  0  2  0  0  0  0  0  0
  185.9880  178.2940  147.4000 O   0  0  0  0  0  0  0  0  0  0  0  0
  186.6110  178.1070  146.3180 C   0  0  0  0  0  0  0  0  0  0  0  0
  186.7730  178.3580  143.8280 C   0  0  0  0  0  2  0  0  0  0  0  0
  187.9160  177.5230  146.3410 N   0  0  0  0  0  2  0  0  0  0  0  0
  188.9820  177.0080  139.9020 C   0  0  0  0  0  2  0  0  0  0  0  0
  188.9340  179.1490  138.7350 O   0  0  0  0  0  0  0  0  0  0  0  0
  187.2710  177.4540  135.9960 C   0  0  0  0  0  1  0  0  0  0  0  0
  187.4750  178.7150  136.8340 C   0  0  2  0  0  3  0  0  0  0  0  0
  188.9010  178.6830  137.4020 C   0  0  0  0  0  2  0  0  0  0  0  0
  186.8070  177.9240  139.0010 C   0  0  0  0  0  2  0  0  0  0  0  0
  186.4880  178.8580  137.9260 N   0  0  0  0  0  0  0  0  0  0  0  0
  188.1930  178.2660  139.5670 C   0  0  1  0  0  3  0  0  0  0  0  0
  185.1280  178.6010  137.4660 C   0  0  0  0  0  2  0  0  0  0  0  0
  184.4500  176.0890  137.6980 O   0  0  0  0  0  0  0  0  0  0  0  0
  184.3540  177.3650  138.5240 S   0  0  2  0  0  0  0  0  0  0  0  0
  182.6050  177.8000  138.4460 C   0  0  0  0  0  2  0  0  0  0  0  0
  181.4880  179.1960  140.2580 C   0  0  2  0  0  3  0  0  0  0  0  0
  181.9870  177.8110  139.8370 C   0  0  1  0  0  3  0  0  0  0  0  0
  181.0010  176.6390  140.0060 C   0  0  1  0  0  3  0  0  0  0  0  0
  179.6460  178.2060  141.6160 C   0  0  2  0  0  3  0  0  0  0  0  0
  179.1560  178.0460  142.9110 O   0  0  0  0  0  1  0  0  0  0  0  0
  179.8760  176.8270  140.9820 C   0  0  1  0  0  3  0  0  0  0  0  0
  179.6980  176.9650  139.5860 O   0  0  0  0  0  0  0  0  0  0  0  0
  180.8820  179.0930  141.6470 C   0  0  0  0  0  2  0  0  0  0  0  0
  180.5560  179.7010  139.3410 O   0  0  0  0  0  0  0  0  0  0  0  0
  181.3270  181.4960  137.9900 C   0  0  0  0  0  1  0  0  0  0  0  0
  180.7660  181.0820  139.3320 C   0  0  0  0  0  2  0  0  0  0  0  0
  191.3780  176.4190  139.5610 C   0  0  0  0  0  2  0  0  0  0  0  0
  191.9670  177.0510  138.3110 C   0  0  0  0  0  2  0  0  0  0  0  0
  194.5310  174.1580  137.8390 C   0  0  0  0  0  0  0  0  0  0  0  0
  194.1500  173.6830  136.6470 C   0  0  0  0  0  3  0  0  0  0  0  0
  193.3170  174.5190  135.7100 C   0  0  2  0  0  3  0  0  0  0  0  0
  192.5230  175.5510  136.4200 C   0  0  0  0  0  0  0  0  0  0  0  0
  194.4260  175.9620  139.3950 O   0  0  0  0  0  0  0  0  0  0  0  0
  190.4200  176.5430  135.8370 O   0  0  0  0  0  0  0  0  0  0  0  0
  191.2740  174.5490  134.7030 C   0  0  1  0  0  3  0  0  0  0  0  0
  193.9850  175.4470  138.3340 C   0  0  0  0  0  0  0  0  0  0  0  0
  191.3070  175.6600  135.6870 C   0  0  0  0  0  0  0  0  0  0  0  0
  192.8510  176.0660  137.6140 C   0  0  0  0  0  0  0  0  0  0  0  0
  195.4220  173.3330  138.6990 C   0  0  0  0  0  1  0  0  0  0  0  0
  192.4190  173.7390  134.9410 O   0  0  0  0  0  0  0  0  0  0  0  0
  187.8480  173.2500  135.0770 C   0  0  0  0  0  0  0  0  0  0  0  0
  190.0350  173.7190  134.8440 C   0  0  0  0  0  0  0  0  0  0  0  0
  186.3910  173.5650  135.1440 C   0  0  0  0  0  1  0  0  0  0  0  0
  188.3640  171.9620  135.1840 C   0  0  0  0  0  0  0  0  0  0  0  0
  190.0380  172.0480  135.0480 S   0  0  0  0  0  0  0  0  0  0  0  0
  187.5860  170.7090  135.3860 C   0  0  0  0  0  1  0  0  0  0  0  0
  188.7780  174.2240  134.8950 N   0  0  0  0  0  0  0  0  0  0  0  0
  1 45  1  1  0  0  0
  1  8  1  0  0  0  0
  2  6  2  0  0  0  0
  3  9  1  0  0  0  0
  4  2  1  0  0  0  0
  5  3  1  0  0  0  0
  6  3  1  0  0  0  0
  7  5  1  0  0  0  0
  8  7  2  0  0  0  0
  8  2  1  0  0  0  0
  9 10  1  0  0  0  0
 10 11  1  0  0  0  0
 11 12  1  0  0  0  0
 13 16  1  0  0  0  0
 14 20  1  0  0  0  0
 15 13  1  0  0  0  0
 16 19  1  0  0  0  0
 17 14  1  0  0  0  0
 17 15  1  0  0  0  0
 19 21  1  0  0  0  0
 19 18  2  0  0  0  0
 20 16  1  0  0  0  0
 21 12  1  0  0  0  0
 22  1  1  0  0  0  0
 23 29  1  0  0  0  0
 25 24  1  1  0  0  0
 25 26  1  0  0  0  0
 25 28  1  0  0  0  0
 26 23  1  0  0  0  0
 27 29  1  0  0  0  0
 28 27  1  0  0  0  0
 29 22  1  6  0  0  0
 30 28  1  0  0  0  0
 30 32  1  0  0  0  0
 32 31  2  6  0  0  0
 33 32  1  0  0  0  0
 34 42  1  6  0  0  0
 34 41  1  0  0  0  0
 35 33  1  6  0  0  0
 35 36  1  0  0  0  0
 35 34  1  0  0  0  0
 36 40  1  6  0  0  0
 36 39  1  0  0  0  0
 37 41  1  0  0  0  0
 37 38  1  1  0  0  0
 39 40  1  6  0  0  0
 39 37  1  0  0  0  0
 43 44  1  0  0  0  0
 44 42  1  0  0  0  0
 46 45  1  0  0  0  0
 47 54  1  0  0  0  0
 47 57  1  0  0  0  0
 48 47  2  0  0  0  0
 49 50  1  0  0  0  0
 49 48  1  1  0  0  0
 50 56  2  0  0  0  0
 53 60  1  1  0  0  0
 53 58  1  0  0  0  0
 53 55  1  0  0  0  0
 54 51  2  0  0  0  0
 55 52  2  0  0  0  0
 55 50  1  0  0  0  0
 56 46  1  0  0  0  0
 56 54  1  0  0  0  0
 58 49  1  0  0  0  0
 59 61  1  0  0  0  0
 59 62  2  0  0  0  0
 60 65  2  0  0  0  0
 60 63  1  0  0  0  0
 62 64  1  0  0  0  0
 63 62  1  0  0  0  0
 65 59  1  0  0  0  0
M  END
>  <MODEL>
1

>  <REMARK>
 VINA RESULT:      -7.6      0.000      0.000
  Name = 
  18 active torsions:
  status: ('A' for Active; 'I' for Inactive)
    1  A    between atoms: C_1  and  O_34
    2  A    between atoms: C_2  and  S_30
    3  A    between atoms: C_2  and  N_46
    4  A    between atoms: C_3  and  C_41
    5  A    between atoms: C_3  and  O_47
    6  A    between atoms: C_10  and  C_40
    7  A    between atoms: C_13  and  C_28
    8  A    between atoms: C_13  and  C_59
    9  A    between atoms: N_15  and  C_41
   10  A    between atoms: C_20  and  C_52
   11  A    between atoms: C_25  and  O_47
   12  A    between atoms: C_25  and  N_63
   13  A    between atoms: C_28  and  C_32
   14  A    between atoms: C_28  and  C_65
   15  A    between atoms: S_30  and  C_52
   16  A    between atoms: C_32  and  C_62
   17  A    between atoms: O_34  and  C_36
   18  A    between atoms: C_56  and  C_59
                            x       y       z     vdW  Elec       q    Type
                         _______ _______ _______ _____ _____    ______ ____

>  <TORSDO>
F 18

$$$$
=
 OpenBabel11032419473D

 65 72  0  0  1  0  0  0  0  0999 V2000
  190.3760  177.3860  140.2750 C   0  0  2  0  0  3  0  0  0  0  0  0
  189.7630  176.6320  142.6590 C   0  0  0  0  0  0  0  0  0  0  0  0
  191.1970  177.2290  144.4950 N   0  0  0  0  0  0  0  0  0  0  0  0
  188.6690  175.9370  142.1570 O   0  0  0  0  0  1  0  0  0  0  0  0
  191.7820  178.3540  143.7530 C   0  0  0  0  0  2  0  0  0  0  0  0
  190.0790  176.5180  143.9500 C   0  0  0  0  0  3  0  0  0  0  0  0
  191.5860  178.2040  142.2690 C   0  0  0  0  0  3  0  0  0  0  0  0
  190.5950  177.4600  141.7620 C   0  0  0  0  0  0  0  0  0  0  0  0
  191.5690  176.9260  145.8790 C   0  0  0  0  0  2  0  0  0  0  0  0
  190.3760  176.6580  146.7910 C   0  0  0  0  0  2  0  0  0  0  0  0
  189.7160  177.8490  147.0940 O   0  0  0  0  0  0  0  0  0  0  0  0
  188.3980  177.4630  147.3330 C   0  0  0  0  0  2  0  0  0  0  0  0
  184.0880  179.0130  145.2570 C   0  0  0  0  0  2  0  0  0  0  0  0
  185.2420  177.9520  142.7650 C   0  0  0  0  0  2  0  0  0  0  0  0
  183.5210  179.4680  143.9140 C   0  0  0  0  0  2  0  0  0  0  0  0
  185.4830  178.5790  145.1260 N   0  0  0  0  0  0  0  0  0  0  0  0
  183.7740  178.4040  142.8460 C   0  0  0  0  0  2  0  0  0  0  0  0
  185.6980  178.2940  147.4360 O   0  0  0  0  0  0  0  0  0  0  0  0
  186.2320  178.2200  146.2950 C   0  0  0  0  0  0  0  0  0  0  0  0
  186.1380  178.6010  143.8180 C   0  0  0  0  0  2  0  0  0  0  0  0
  187.5830  177.7650  146.1700 N   0  0  0  0  0  2  0  0  0  0  0  0
  188.9270  177.0530  139.9610 C   0  0  0  0  0  2  0  0  0  0  0  0
  188.8830  179.1100  138.6510 O   0  0  0  0  0  0  0  0  0  0  0  0
  186.8980  177.3300  136.1940 C   0  0  0  0  0  1  0  0  0  0  0  0
  187.2390  178.6310  136.9180 C   0  0  2  0  0  3  0  0  0  0  0  0
  188.7070  178.5570  137.3630 C   0  0  0  0  0  2  0  0  0  0  0  0
  186.7290  178.0280  139.1850 C   0  0  0  0  0  2  0  0  0  0  0  0
  186.3630  178.9030  138.0770 N   0  0  0  0  0  0  0  0  0  0  0  0
  188.1750  178.3280  139.6050 C   0  0  1  0  0  3  0  0  0  0  0  0
  184.9560  178.6940  137.7550 C   0  0  0  0  0  2  0  0  0  0  0  0
  183.6780  176.4840  138.3080 O   0  0  0  0  0  0  0  0  0  0  0  0
  184.1770  177.7150  139.0520 S   0  0  2  0  0  0  0  0  0  0  0  0
  182.6720  178.6420  139.4130 C   0  0  0  0  0  2  0  0  0  0  0  0
  181.1270  178.9260  137.4100 C   0  0  2  0  0  3  0  0  0  0  0  0
  182.2780  179.5160  138.2300 C   0  0  1  0  0  3  0  0  0  0  0  0
  182.1370  180.9880  138.6620 C   0  0  1  0  0  3  0  0  0  0  0  0
  180.2820  181.1960  136.8180 C   0  0  2  0  0  3  0  0  0  0  0  0
  180.0810  182.0890  135.7670 O   0  0  0  0  0  1  0  0  0  0  0  0
  181.1890  181.8440  137.8730 C   0  0  1  0  0  3  0  0  0  0  0  0
  180.8440  181.2920  139.1280 O   0  0  0  0  0  0  0  0  0  0  0  0
  180.8060  179.8770  136.2700 C   0  0  0  0  0  2  0  0  0  0  0  0
  179.9970  178.7010  138.2080 O   0  0  0  0  0  0  0  0  0  0  0  0
  180.1380  176.3490  137.9050 C   0  0  0  0  0  1  0  0  0  0  0  0
  179.3510  177.6100  137.6230 C   0  0  0  0  0  2  0  0  0  0  0  0
  191.2980  176.3850  139.5960 C   0  0  0  0  0  2  0  0  0  0  0  0
  191.8860  176.9810  138.3260 C   0  0  0  0  0  2  0  0  0  0  0  0
  194.5640  174.1780  137.9510 C   0  0  0  0  0  0  0  0  0  0  0  0
  194.1430  173.5850  136.8280 C   0  0  0  0  0  3  0  0  0  0  0  0
  193.2190  174.2960  135.8740 C   0  0  2  0  0  3  0  0  0  0  0  0
  192.4140  175.3480  136.5400 C   0  0  0  0  0  0  0  0  0  0  0  0
  194.4530  176.1050  139.3530 O   0  0  0  0  0  0  0  0  0  0  0  0
  190.2340  176.1880  135.9990 O   0  0  0  0  0  0  0  0  0  0  0  0
  191.1250  174.1440  134.9910 C   0  0  1  0  0  3  0  0  0  0  0  0
  193.9810  175.4800  138.3670 C   0  0  0  0  0  0  0  0  0  0  0  0
  191.1560  175.3370  135.8730 C   0  0  0  0  0  0  0  0  0  0  0  0
  192.7790  175.9800  137.6640 C   0  0  0  0  0  0  0  0  0  0  0  0
  195.5420  173.4730  138.8240 C   0  0  0  0  0  1  0  0  0  0  0  0
  192.3210  173.4110  135.2280 O   0  0  0  0  0  0  0  0  0  0  0  0
  188.0350  172.5880  136.2530 C   0  0  0  0  0  0  0  0  0  0  0  0
  189.9390  173.2730  135.2730 C   0  0  0  0  0  0  0  0  0  0  0  0
  186.8500  172.7090  137.1530 C   0  0  0  0  0  1  0  0  0  0  0  0
  188.2820  171.4800  135.4490 C   0  0  0  0  0  0  0  0  0  0  0  0
  189.7040  171.7510  134.5940 S   0  0  0  0  0  0  0  0  0  0  0  0
  187.4440  170.2530  135.3470 C   0  0  0  0  0  1  0  0  0  0  0  0
  188.9600  173.5790  136.1590 N   0  0  0  0  0  0  0  0  0  0  0  0
  1 45  1  1  0  0  0
  1  8  1  0  0  0  0
  2  6  2  0  0  0  0
  3  9  1  0  0  0  0
  4  2  1  0  0  0  0
  5  3  1  0  0  0  0
  6  3  1  0  0  0  0
  7  5  1  0  0  0  0
  8  7  2  0  0  0  0
  8  2  1  0  0  0  0
  9 10  1  0  0  0  0
 10 11  1  0  0  0  0
 11 12  1  0  0  0  0
 14 17  1  0  0  0  0
 14 20  1  0  0  0  0
 15 13  1  0  0  0  0
 16 13  1  0  0  0  0
 16 19  1  0  0  0  0
 17 15  1  0  0  0  0
 19 18  2  0  0  0  0
 20 16  1  0  0  0  0
 21 19  1  0  0  0  0
 21 12  1  0  0  0  0
 22  1  1  0  0  0  0
 23 29  1  0  0  0  0
 25 24  1  1  0  0  0
 25 26  1  0  0  0  0
 25 28  1  0  0  0  0
 26 23  1  0  0  0  0
 27 29  1  0  0  0  0
 28 27  1  0  0  0  0
 29 22  1  6  0  0  0
 30 28  1  0  0  0  0
 30 32  1  0  0  0  0
 32 31  2  6  0  0  0
 32 33  1  0  0  0  0
 34 42  1  1  0  0  0
 34 35  1  0  0  0  0
 35 36  1  0  0  0  0
 35 33  1  1  0  0  0
 36 40  1  1  0  0  0
 37 38  1  6  0  0  0
 37 39  1  0  0  0  0
 39 36  1  0  0  0  0
 39 40  1  1  0  0  0
 41 37  1  0  0  0  0
 41 34  1  0  0  0  0
 44 43  1  0  0  0  0
 44 42  1  0  0  0  0
 46 45  1  0  0  0  0
 47 54  1  0  0  0  0
 47 57  1  0  0  0  0
 48 47  2  0  0  0  0
 49 50  1  0  0  0  0
 49 48  1  1  0  0  0
 50 56  2  0  0  0  0
 53 58  1  0  0  0  0
 53 60  1  1  0  0  0
 53 55  1  0  0  0  0
 54 51  2  0  0  0  0
 55 52  2  0  0  0  0
 55 50  1  0  0  0  0
 56 46  1  0  0  0  0
 56 54  1  0  0  0  0
 58 49  1  0  0  0  0
 59 61  1  0  0  0  0
 60 65  2  0  0  0  0
 62 59  2  0  0  0  0
 63 60  1  0  0  0  0
 63 62  1  0  0  0  0
 64 62  1  0  0  0  0
 65 59  1  0  0  0  0
M  END
>  <MODEL>
2

>  <REMARK>
 VINA RESULT:      -7.6      1.201      2.110
  Name = 
  18 active torsions:
  status: ('A' for Active; 'I' for Inactive)
    1  A    between atoms: C_1  and  O_34
    2  A    between atoms: C_2  and  S_30
    3  A    between atoms: C_2  and  N_46
    4  A    between atoms: C_3  and  C_41
    5  A    between atoms: C_3  and  O_47
    6  A    between atoms: C_10  and  C_40
    7  A    between atoms: C_13  and  C_28
    8  A    between atoms: C_13  and  C_59
    9  A    between atoms: N_15  and  C_41
   10  A    between atoms: C_20  and  C_52
   11  A    between atoms: C_25  and  O_47
   12  A    between atoms: C_25  and  N_63
   13  A    between atoms: C_28  and  C_32
   14  A    between atoms: C_28  and  C_65
   15  A    between atoms: S_30  and  C_52
   16  A    between atoms: C_32  and  C_62
   17  A    between atoms: O_34  and  C_36
   18  A    between atoms: C_56  and  C_59
                            x       y       z     vdW  Elec       q    Type
                         _______ _______ _______ _____ _____    ______ ____

>  <TORSDO>
F 18

$$$$
=
 OpenBabel11032419473D

 65 72  0  0  1  0  0  0  0  0999 V2000
  185.4720  179.0030  139.9870 C   0  0  2  0  0  3  0  0  0  0  0  0
  186.1780  177.5900  137.9550 C   0  0  0  0  0  0  0  0  0  0  0  0
  188.5120  177.1580  137.5640 N   0  0  0  0  0  0  0  0  0  0  0  0
  184.8510  177.5120  137.5490 O   0  0  0  0  0  1  0  0  0  0  0  0
  188.8580  177.4180  138.9680 C   0  0  0  0  0  2  0  0  0  0  0  0
  187.1360  177.0990  137.1670 C   0  0  0  0  0  3  0  0  0  0  0  0
  187.7970  178.2270  139.6640 C   0  0  0  0  0  3  0  0  0  0  0  0
  186.5290  178.2440  139.2310 C   0  0  0  0  0  0  0  0  0  0  0  0
  189.5100  176.7440  136.5760 C   0  0  0  0  0  2  0  0  0  0  0  0
  190.2300  175.4490  136.9370 C   0  0  0  0  0  2  0  0  0  0  0  0
  191.5470  175.4780  136.4790 O   0  0  0  0  0  0  0  0  0  0  0  0
  192.3010  175.7850  137.6110 C   0  0  0  0  0  2  0  0  0  0  0  0
  197.0530  174.3220  136.8620 C   0  0  0  0  0  2  0  0  0  0  0  0
  196.0750  171.6840  137.7310 C   0  0  0  0  0  2  0  0  0  0  0  0
  198.0530  173.2690  137.3360 C   0  0  0  0  0  2  0  0  0  0  0  0
  195.7280  174.0980  137.4490 N   0  0  0  0  0  0  0  0  0  0  0  0
  197.4800  171.8660  137.1320 C   0  0  0  0  0  2  0  0  0  0  0  0
  194.8950  176.0770  136.5260 O   0  0  0  0  0  0  0  0  0  0  0  0
  194.6750  175.0450  137.2180 C   0  0  0  0  0  0  0  0  0  0  0  0
  195.5030  172.9620  138.3430 C   0  0  0  0  0  2  0  0  0  0  0  0
  193.3720  174.8160  137.7600 N   0  0  0  0  0  2  0  0  0  0  0  0
  185.0290  178.2280  141.2170 C   0  0  0  0  0  2  0  0  0  0  0  0
  185.6010  180.0190  142.7680 O   0  0  0  0  0  0  0  0  0  0  0  0
  183.1280  178.6460  145.0360 C   0  0  0  0  0  1  0  0  0  0  0  0
  184.4580  179.3670  144.8180 C   0  0  2  0  0  3  0  0  0  0  0  0
  184.3820  180.1080  143.4760 C   0  0  0  0  0  2  0  0  0  0  0  0
  185.6770  177.6950  143.6000 C   0  0  0  0  0  2  0  0  0  0  0  0
  185.6260  178.4610  144.8410 N   0  0  0  0  0  0  0  0  0  0  0  0
  185.8520  178.6640  142.4200 C   0  0  1  0  0  3  0  0  0  0  0  0
  185.5720  177.5330  145.9650 C   0  0  0  0  0  2  0  0  0  0  0  0
  186.5040  179.2790  147.6710 O   0  0  0  0  0  0  0  0  0  0  0  0
  186.8970  177.9120  147.1270 S   0  0  2  0  0  0  0  0  0  0  0  0
  188.2980  178.2630  146.0460 C   0  0  0  0  0  2  0  0  0  0  0  0
  190.2760  177.1820  144.8630 C   0  0  2  0  0  3  0  0  0  0  0  0
  189.2560  177.0810  146.0020 C   0  0  1  0  0  3  0  0  0  0  0  0
  189.8140  176.7760  147.4050 C   0  0  1  0  0  3  0  0  0  0  0  0
  192.0050  175.9800  146.2000 C   0  0  2  0  0  3  0  0  0  0  0  0
  192.7650  174.8150  146.2790 O   0  0  0  0  0  1  0  0  0  0  0  0
  191.1680  176.1330  147.4780 C   0  0  1  0  0  3  0  0  0  0  0  0
  190.9740  177.5170  147.6970 O   0  0  0  0  0  0  0  0  0  0  0  0
  191.1860  175.9670  144.9170 C   0  0  0  0  0  2  0  0  0  0  0  0
  191.0170  178.3680  144.9490 O   0  0  0  0  0  0  0  0  0  0  0  0
  190.0450  178.5530  142.7890 C   0  0  0  0  0  1  0  0  0  0  0  0
  191.2940  178.7200  143.6260 C   0  0  0  0  0  2  0  0  0  0  0  0
  184.2670  179.3450  139.1250 C   0  0  0  0  0  2  0  0  0  0  0  0
  182.9770  179.0760  139.8840 C   0  0  0  0  0  2  0  0  0  0  0  0
  180.6820  180.1050  136.9110 C   0  0  0  0  0  0  0  0  0  0  0  0
  180.1470  178.9210  136.5920 C   0  0  0  0  0  3  0  0  0  0  0  0
  180.1550  177.7770  137.5720 C   0  0  2  0  0  3  0  0  0  0  0  0
  181.2490  177.8870  138.5670 C   0  0  0  0  0  0  0  0  0  0  0  0
  181.8600  181.3900  138.5390 O   0  0  0  0  0  0  0  0  0  0  0  0
  182.4380  176.1680  139.7400 O   0  0  0  0  0  0  0  0  0  0  0  0
  180.9870  175.6720  137.8330 C   0  0  1  0  0  3  0  0  0  0  0  0
  181.4560  180.2560  138.1690 C   0  0  0  0  0  0  0  0  0  0  0  0
  181.6570  176.5480  138.8270 C   0  0  0  0  0  0  0  0  0  0  0  0
  181.8260  179.0420  138.9290 C   0  0  0  0  0  0  0  0  0  0  0  0
  180.5800  181.2330  135.9450 C   0  0  0  0  0  1  0  0  0  0  0  0
  180.2780  176.5170  136.9350 O   0  0  0  0  0  0  0  0  0  0  0  0
  183.6000  174.3610  135.5940 C   0  0  0  0  0  0  0  0  0  0  0  0
  181.9720  174.8430  137.0690 C   0  0  0  0  0  0  0  0  0  0  0  0
  184.6630  174.6730  134.5940 C   0  0  0  0  0  1  0  0  0  0  0  0
  183.2860  173.0700  136.0070 C   0  0  0  0  0  0  0  0  0  0  0  0
  182.0470  173.1620  137.1410 S   0  0  0  0  0  0  0  0  0  0  0  0
  183.9230  171.8090  135.5390 C   0  0  0  0  0  1  0  0  0  0  0  0
  182.8650  175.3420  136.1790 N   0  0  0  0  0  0  0  0  0  0  0  0
  1 45  1  6  0  0  0
  1 22  1  0  0  0  0
  2  8  1  0  0  0  0
  3  5  1  0  0  0  0
  4  2  1  0  0  0  0
  5  7  1  0  0  0  0
  6  3  1  0  0  0  0
  6  2  2  0  0  0  0
  8  7  2  0  0  0  0
  8  1  1  0  0  0  0
  9 10  1  0  0  0  0
  9  3  1  0  0  0  0
 11 10  1  0  0  0  0
 11 12  1  0  0  0  0
 12 21  1  0  0  0  0
 13 15  1  0  0  0  0
 13 16  1  0  0  0  0
 14 20  1  0  0  0  0
 16 20  1  0  0  0  0
 17 15  1  0  0  0  0
 17 14  1  0  0  0  0
 18 19  2  0  0  0  0
 19 16  1  0  0  0  0
 19 21  1  0  0  0  0
 23 26  1  0  0  0  0
 25 28  1  0  0  0  0
 25 24  1  6  0  0  0
 26 25  1  0  0  0  0
 27 28  1  0  0  0  0
 28 30  1  0  0  0  0
 29 22  1  6  0  0  0
 29 23  1  0  0  0  0
 29 27  1  0  0  0  0
 30 32  1  0  0  0  0
 32 31  2  6  0  0  0
 33 32  1  0  0  0  0
 34 41  1  0  0  0  0
 34 42  1  1  0  0  0
 34 35  1  0  0  0  0
 35 33  1  1  0  0  0
 35 36  1  0  0  0  0
 36 39  1  0  0  0  0
 36 40  1  1  0  0  0
 37 38  1  1  0  0  0
 37 39  1  0  0  0  0
 39 40  1  1  0  0  0
 41 37  1  0  0  0  0
 43 44  1  0  0  0  0
 44 42  1  0  0  0  0
 45 46  1  0  0  0  0
 47 54  1  0  0  0  0
 48 47  2  0  0  0  0
 49 48  1  6  0  0  0
 49 50  1  0  0  0  0
 50 55  1  0  0  0  0
 50 56  2  0  0  0  0
 53 60  1  6  0  0  0
 53 55  1  0  0  0  0
 54 51  2  0  0  0  0
 54 56  1  0  0  0  0
 55 52  2  0  0  0  0
 56 46  1  0  0  0  0
 57 47  1  0  0  0  0
 58 49  1  0  0  0  0
 58 53  1  0  0  0  0
 59 62  2  0  0  0  0
 59 65  1  0  0  0  0
 60 63  1  0  0  0  0
 61 59  1  0  0  0  0
 62 63  1  0  0  0  0
 64 62  1  0  0  0  0
 65 60  2  0  0  0  0
M  END
>  <MODEL>
3

>  <REMARK>
 VINA RESULT:      -6.8      2.692     10.483
  Name = 
  18 active torsions:
  status: ('A' for Active; 'I' for Inactive)
    1  A    between atoms: C_1  and  O_34
    2  A    between atoms: C_2  and  S_30
    3  A    between atoms: C_2  and  N_46
    4  A    between atoms: C_3  and  C_41
    5  A    between atoms: C_3  and  O_47
    6  A    between atoms: C_10  and  C_40
    7  A    between atoms: C_13  and  C_28
    8  A    between atoms: C_13  and  C_59
    9  A    between atoms: N_15  and  C_41
   10  A    between atoms: C_20  and  C_52
   11  A    between atoms: C_25  and  O_47
   12  A    between atoms: C_25  and  N_63
   13  A    between atoms: C_28  and  C_32
   14  A    between atoms: C_28  and  C_65
   15  A    between atoms: S_30  and  C_52
   16  A    between atoms: C_32  and  C_62
   17  A    between atoms: O_34  and  C_36
   18  A    between atoms: C_56  and  C_59
                            x       y       z     vdW  Elec       q    Type
                         _______ _______ _______ _____ _____    ______ ____

>  <TORSDO>
F 18

$$$$
=
 OpenBabel11032419473D

 65 72  0  0  1  0  0  0  0  0999 V2000
  184.6740  178.2600  138.9680 C   0  0  2  0  0  3  0  0  0  0  0  0
  185.7770  178.9220  141.1970 C   0  0  0  0  0  0  0  0  0  0  0  0
  184.3980  179.3600  143.1190 N   0  0  0  0  0  0  0  0  0  0  0  0
  187.0240  178.9120  140.5830 O   0  0  0  0  0  1  0  0  0  0  0  0
  183.2790  178.5840  142.5680 C   0  0  0  0  0  2  0  0  0  0  0  0
  185.6690  179.3470  142.4580 C   0  0  0  0  0  3  0  0  0  0  0  0
  183.3940  178.4190  141.0770 C   0  0  0  0  0  3  0  0  0  0  0  0
  184.5750  178.5020  140.4500 C   0  0  0  0  0  0  0  0  0  0  0  0
  184.3400  179.9880  144.4400 C   0  0  0  0  0  2  0  0  0  0  0  0
  184.4960  179.0030  145.5940 C   0  0  0  0  0  2  0  0  0  0  0  0
  185.6380  179.3000  146.3390 O   0  0  0  0  0  0  0  0  0  0  0  0
  186.1130  178.0560  146.7540 C   0  0  0  0  0  2  0  0  0  0  0  0
  189.3090  176.4510  143.2200 C   0  0  0  0  0  2  0  0  0  0  0  0
  191.3510  176.8110  145.3100 C   0  0  0  0  0  2  0  0  0  0  0  0
  190.7800  176.5560  142.8220 C   0  0  0  0  0  2  0  0  0  0  0  0
  189.0540  177.1220  144.4990 N   0  0  0  0  0  0  0  0  0  0  0  0
  191.6730  176.1090  143.9800 C   0  0  0  0  0  2  0  0  0  0  0  0
  186.7510  176.7720  144.3180 O   0  0  0  0  0  0  0  0  0  0  0  0
  187.7130  177.2340  144.9930 C   0  0  0  0  0  0  0  0  0  0  0  0
  190.1540  177.7580  145.2250 C   0  0  0  0  0  2  0  0  0  0  0  0
  187.4620  177.8580  146.2540 N   0  0  0  0  0  2  0  0  0  0  0  0
  185.9330  178.8950  138.4020 C   0  0  0  0  0  2  0  0  0  0  0  0
  187.2640  178.8020  136.3610 O   0  0  0  0  0  0  0  0  0  0  0  0
  190.0520  177.7070  138.4040 C   0  0  0  0  0  1  0  0  0  0  0  0
  189.2990  177.6690  137.0750 C   0  0  2  0  0  3  0  0  0  0  0  0
  188.5480  178.9990  136.9160 C   0  0  0  0  0  2  0  0  0  0  0  0
  187.1820  176.7870  137.7870 C   0  0  0  0  0  2  0  0  0  0  0  0
  188.3610  176.5310  136.9660 N   0  0  0  0  0  0  0  0  0  0  0  0
  186.4680  178.0420  137.2610 C   0  0  1  0  0  3  0  0  0  0  0  0
  188.9720  175.2800  137.3970 C   0  0  0  0  0  2  0  0  0  0  0  0
  190.0100  173.0590  136.4920 O   0  0  0  0  0  0  0  0  0  0  0  0
  189.7620  174.4750  135.9900 S   0  0  2  0  0  0  0  0  0  0  0  0
  191.4050  175.2190  135.9660 C   0  0  0  0  0  2  0  0  0  0  0  0
  193.1260  173.4080  136.4530 C   0  0  2  0  0  3  0  0  0  0  0  0
  192.3060  174.5750  137.0110 C   0  0  1  0  0  3  0  0  0  0  0  0
  193.0780  175.6480  137.8020 C   0  0  1  0  0  3  0  0  0  0  0  0
  195.0140  173.8890  138.0100 C   0  0  2  0  0  3  0  0  0  0  0  0
  195.7400  173.3960  139.0930 O   0  0  0  0  0  1  0  0  0  0  0  0
  194.4050  175.2490  138.3790 C   0  0  1  0  0  3  0  0  0  0  0  0
  194.2930  176.0020  137.1870 O   0  0  0  0  0  0  0  0  0  0  0  0
  193.9950  172.8490  137.5680 C   0  0  0  0  0  2  0  0  0  0  0  0
  193.9080  173.8110  135.3630 O   0  0  0  0  0  0  0  0  0  0  0  0
  192.8200  171.8260  134.6420 C   0  0  0  0  0  1  0  0  0  0  0  0
  194.0830  172.6580  134.5940 C   0  0  0  0  0  2  0  0  0  0  0  0
  183.4540  178.7590  138.2100 C   0  0  0  0  0  2  0  0  0  0  0  0
  182.1820  178.4380  138.9790 C   0  0  0  0  0  2  0  0  0  0  0  0
  179.8430  178.2530  135.8710 C   0  0  0  0  0  0  0  0  0  0  0  0
  179.6950  176.9280  135.7520 C   0  0  0  0  0  3  0  0  0  0  0  0
  179.9880  176.0090  136.9100 C   0  0  2  0  0  3  0  0  0  0  0  0
  180.9490  176.5950  137.8740 C   0  0  0  0  0  0  0  0  0  0  0  0
  180.5070  180.0710  137.2650 O   0  0  0  0  0  0  0  0  0  0  0  0
  182.5280  175.5160  139.3200 O   0  0  0  0  0  0  0  0  0  0  0  0
  181.3860  174.3160  137.5190 C   0  0  1  0  0  3  0  0  0  0  0  0
  180.4720  178.8240  137.0880 C   0  0  0  0  0  0  0  0  0  0  0  0
  181.7170  175.4970  138.3550 C   0  0  0  0  0  0  0  0  0  0  0  0
  181.1430  177.9120  138.0410 C   0  0  0  0  0  0  0  0  0  0  0  0
  179.4640  179.1310  134.7310 C   0  0  0  0  0  1  0  0  0  0  0  0
  180.5070  174.7580  136.4920 O   0  0  0  0  0  0  0  0  0  0  0  0
  183.9990  172.1010  136.1680 C   0  0  0  0  0  0  0  0  0  0  0  0
  182.6090  173.7070  136.9050 C   0  0  0  0  0  0  0  0  0  0  0  0
  184.4030  170.7060  135.8260 C   0  0  0  0  0  1  0  0  0  0  0  0
  184.8200  173.2090  135.9800 C   0  0  0  0  0  0  0  0  0  0  0  0
  183.9850  174.5800  136.4820 S   0  0  0  0  0  0  0  0  0  0  0  0
  186.2030  173.2050  135.4290 C   0  0  0  0  0  1  0  0  0  0  0  0
  182.7760  172.3800  136.6880 N   0  0  0  0  0  0  0  0  0  0  0  0
  1 45  1  6  0  0  0
  1  8  1  0  0  0  0
  2  6  2  0  0  0  0
  3  9  1  0  0  0  0
  4  2  1  0  0  0  0
  5  3  1  0  0  0  0
  6  3  1  0  0  0  0
  7  5  1  0  0  0  0
  8  7  2  0  0  0  0
  8  2  1  0  0  0  0
  9 10  1  0  0  0  0
 10 11  1  0  0  0  0
 11 12  1  0  0  0  0
 13 16  1  0  0  0  0
 15 13  1  0  0  0  0
 15 17  1  0  0  0  0
 16 19  1  0  0  0  0
 16 20  1  0  0  0  0
 17 14  1  0  0  0  0
 18 19  2  0  0  0  0
 19 21  1  0  0  0  0
 20 14  1  0  0  0  0
 21 12  1  0  0  0  0
 22  1  1  0  0  0  0
 23 26  1  0  0  0  0
 23 29  1  0  0  0  0
 25 24  1  1  0  0  0
 26 25  1  0  0  0  0
 28 25  1  0  0  0  0
 28 30  1  0  0  0  0
 28 27  1  0  0  0  0
 29 27  1  0  0  0  0
 29 22  1  1  0  0  0
 32 31  2  1  0  0  0
 32 30  1  0  0  0  0
 33 32  1  0  0  0  0
 34 42  1  6  0  0  0
 34 35  1  0  0  0  0
 34 41  1  0  0  0  0
 35 33  1  6  0  0  0
 35 36  1  0  0  0  0
 36 40  1  6  0  0  0
 36 39  1  0  0  0  0
 37 39  1  0  0  0  0
 37 38  1  1  0  0  0
 39 40  1  6  0  0  0
 41 37  1  0  0  0  0
 44 43  1  0  0  0  0
 44 42  1  0  0  0  0
 45 46  1  0  0  0  0
 47 54  1  0  0  0  0
 48 47  2  0  0  0  0
 49 48  1  6  0  0  0
 49 50  1  0  0  0  0
 50 56  2  0  0  0  0
 50 55  1  0  0  0  0
 53 60  1  6  0  0  0
 53 55  1  0  0  0  0
 54 51  2  0  0  0  0
 54 56  1  0  0  0  0
 55 52  2  0  0  0  0
 56 46  1  0  0  0  0
 57 47  1  0  0  0  0
 58 49  1  0  0  0  0
 58 53  1  0  0  0  0
 59 65  1  0  0  0  0
 61 59  1  0  0  0  0
 62 59  2  0  0  0  0
 62 63  1  0  0  0  0
 63 60  1  0  0  0  0
 64 62  1  0  0  0  0
 65 60  2  0  0  0  0
M  END
>  <MODEL>
4

>  <REMARK>
 VINA RESULT:      -6.5      2.380      9.471
  Name = 
  18 active torsions:
  status: ('A' for Active; 'I' for Inactive)
    1  A    between atoms: C_1  and  O_34
    2  A    between atoms: C_2  and  S_30
    3  A    between atoms: C_2  and  N_46
    4  A    between atoms: C_3  and  C_41
    5  A    between atoms: C_3  and  O_47
    6  A    between atoms: C_10  and  C_40
    7  A    between atoms: C_13  and  C_28
    8  A    between atoms: C_13  and  C_59
    9  A    between atoms: N_15  and  C_41
   10  A    between atoms: C_20  and  C_52
   11  A    between atoms: C_25  and  O_47
   12  A    between atoms: C_25  and  N_63
   13  A    between atoms: C_28  and  C_32
   14  A    between atoms: C_28  and  C_65
   15  A    between atoms: S_30  and  C_52
   16  A    between atoms: C_32  and  C_62
   17  A    between atoms: O_34  and  C_36
   18  A    between atoms: C_56  and  C_59
                            x       y       z     vdW  Elec       q    Type
                         _______ _______ _______ _____ _____    ______ ____

>  <TORSDO>
F 18

$$$$
=
 OpenBabel11032419473D

 65 72  0  0  1  0  0  0  0  0999 V2000
  185.4060  179.0350  141.0660 C   0  0  2  0  0  3  0  0  0  0  0  0
  183.9750  179.2650  143.1930 C   0  0  0  0  0  0  0  0  0  0  0  0
  181.5870  179.0210  143.0470 N   0  0  0  0  0  0  0  0  0  0  0  0
  185.1140  179.5790  143.9250 O   0  0  0  0  0  1  0  0  0  0  0  0
  181.6800  178.2610  141.7930 C   0  0  0  0  0  2  0  0  0  0  0  0
  182.7770  179.3450  143.7750 C   0  0  0  0  0  3  0  0  0  0  0  0
  182.9950  178.4890  141.0990 C   0  0  0  0  0  3  0  0  0  0  0  0
  184.0850  178.8850  141.7700 C   0  0  0  0  0  0  0  0  0  0  0  0
  180.3070  179.2860  143.7070 C   0  0  0  0  0  2  0  0  0  0  0  0
  179.2700  179.9360  142.7960 C   0  0  0  0  0  2  0  0  0  0  0  0
  179.8960  180.6890  141.8030 O   0  0  0  0  0  0  0  0  0  0  0  0
  178.9700  180.7250  140.7610 C   0  0  0  0  0  2  0  0  0  0  0  0
  180.1290  182.4250  136.1730 C   0  0  0  0  0  2  0  0  0  0  0  0
  180.8460  184.9060  137.5870 C   0  0  0  0  0  2  0  0  0  0  0  0
  180.2350  183.7320  135.3900 C   0  0  0  0  0  2  0  0  0  0  0  0
  179.8220  182.6750  137.5840 N   0  0  0  0  0  0  0  0  0  0  0  0
  181.1820  184.6990  136.1000 C   0  0  0  0  0  2  0  0  0  0  0  0
  179.5960  180.3910  138.0240 O   0  0  0  0  0  0  0  0  0  0  0  0
  179.5710  181.5720  138.4670 C   0  0  0  0  0  0  0  0  0  0  0  0
  179.6800  184.0470  138.0730 C   0  0  0  0  0  2  0  0  0  0  0  0
  179.3020  181.8080  139.8510 N   0  0  0  0  0  2  0  0  0  0  0  0
  185.5590  177.9830  139.9800 C   0  0  0  0  0  2  0  0  0  0  0  0
  186.0220  178.9800  137.8040 O   0  0  0  0  0  0  0  0  0  0  0  0
  185.9250  175.6320  136.4130 C   0  0  0  0  0  1  0  0  0  0  0  0
  185.6670  177.1310  136.2580 C   0  0  2  0  0  3  0  0  0  0  0  0
  186.6450  177.8790  137.1750 C   0  0  0  0  0  2  0  0  0  0  0  0
  184.0610  177.4920  138.0060 C   0  0  0  0  0  2  0  0  0  0  0  0
  184.2740  177.5200  136.5620 N   0  0  0  0  0  0  0  0  0  0  0  0
  184.9950  178.5150  138.6700 C   0  0  1  0  0  3  0  0  0  0  0  0
  183.3100  176.6310  135.9260 C   0  0  0  0  0  2  0  0  0  0  0  0
  181.5490  178.5430  136.1880 O   0  0  0  0  0  0  0  0  0  0  0  0
  182.0430  177.6060  135.0940 S   0  0  2  0  0  0  0  0  0  0  0  0
  180.6920  176.4290  134.8900 C   0  0  0  0  0  2  0  0  0  0  0  0
  180.5200  175.1730  137.0970 C   0  0  2  0  0  3  0  0  0  0  0  0
  180.9830  175.1350  135.6380 C   0  0  1  0  0  3  0  0  0  0  0  0
  180.5500  173.9130  134.8060 C   0  0  1  0  0  3  0  0  0  0  0  0
  180.0370  172.7260  137.0890 C   0  0  2  0  0  3  0  0  0  0  0  0
  180.4130  171.4980  137.6290 O   0  0  0  0  0  1  0  0  0  0  0  0
  180.1650  172.6740  135.5600 C   0  0  1  0  0  3  0  0  0  0  0  0
  179.2050  173.5620  135.0220 O   0  0  0  0  0  0  0  0  0  0  0  0
  180.8440  173.8370  137.7440 C   0  0  0  0  0  2  0  0  0  0  0  0
  179.1500  175.4550  137.1880 O   0  0  0  0  0  0  0  0  0  0  0  0
  179.5560  177.1000  138.8530 C   0  0  0  0  0  1  0  0  0  0  0  0
  178.9310  175.7600  138.5340 C   0  0  0  0  0  2  0  0  0  0  0  0
  186.5890  178.9740  142.0200 C   0  0  0  0  0  2  0  0  0  0  0  0
  187.2510  177.6070  141.9590 C   0  0  0  0  0  2  0  0  0  0  0  0
  190.4620  177.0280  144.0850 C   0  0  0  0  0  0  0  0  0  0  0  0
  191.4080  177.1940  143.1530 C   0  0  0  0  0  3  0  0  0  0  0  0
  191.1100  177.9210  141.8680 C   0  0  2  0  0  3  0  0  0  0  0  0
  189.6710  177.8780  141.5090 C   0  0  0  0  0  0  0  0  0  0  0  0
  188.1800  177.3600  144.6950 O   0  0  0  0  0  0  0  0  0  0  0  0
  188.6210  177.9390  139.3550 O   0  0  0  0  0  0  0  0  0  0  0  0
  191.0280  177.5790  139.6160 C   0  0  1  0  0  3  0  0  0  0  0  0
  189.0540  177.3970  143.7900 C   0  0  0  0  0  0  0  0  0  0  0  0
  189.6390  177.8130  140.0870 C   0  0  0  0  0  0  0  0  0  0  0  0
  188.6780  177.7150  142.3950 C   0  0  0  0  0  0  0  0  0  0  0  0
  190.8190  176.3780  145.3760 C   0  0  0  0  0  1  0  0  0  0  0  0
  191.8420  177.4030  140.7700 O   0  0  0  0  0  0  0  0  0  0  0  0
  192.0820  174.7010  137.5750 C   0  0  0  0  0  0  0  0  0  0  0  0
  191.1220  176.3630  138.7460 C   0  0  0  0  0  0  0  0  0  0  0  0
  193.2140  173.8570  137.0920 C   0  0  0  0  0  1  0  0  0  0  0  0
  190.7540  174.4860  137.2180 C   0  0  0  0  0  0  0  0  0  0  0  0
  189.8050  175.6450  137.9820 S   0  0  0  0  0  0  0  0  0  0  0  0
  190.2390  173.4200  136.3150 C   0  0  0  0  0  1  0  0  0  0  0  0
  192.2840  175.7470  138.4180 N   0  0  0  0  0  0  0  0  0  0  0  0
  1 22  1  6  0  0  0
  1  8  1  0  0  0  0
  1 45  1  0  0  0  0
  2  6  2  0  0  0  0
  2  4  1  0  0  0  0
  3  9  1  0  0  0  0
  3  6  1  0  0  0  0
  5  3  1  0  0  0  0
  7  8  2  0  0  0  0
  7  5  1  0  0  0  0
  8  2  1  0  0  0  0
 10  9  1  0  0  0  0
 11 10  1  0  0  0  0
 12 11  1  0  0  0  0
 13 16  1  0  0  0  0
 14 20  1  0  0  0  0
 15 17  1  0  0  0  0
 15 13  1  0  0  0  0
 16 20  1  0  0  0  0
 16 19  1  0  0  0  0
 17 14  1  0  0  0  0
 18 19  2  0  0  0  0
 19 21  1  0  0  0  0
 21 12  1  0  0  0  0
 23 29  1  0  0  0  0
 25 24  1  1  0  0  0
 25 28  1  0  0  0  0
 25 26  1  0  0  0  0
 26 23  1  0  0  0  0
 27 29  1  0  0  0  0
 28 27  1  0  0  0  0
 29 22  1  1  0  0  0
 30 28  1  0  0  0  0
 32 30  1  0  0  0  0
 32 31  2  1  0  0  0
 33 32  1  0  0  0  0
 34 42  1  6  0  0  0
 34 41  1  0  0  0  0
 35 33  1  6  0  0  0
 35 34  1  0  0  0  0
 36 40  1  1  0  0  0
 36 39  1  0  0  0  0
 36 35  1  0  0  0  0
 37 38  1  1  0  0  0
 37 41  1  0  0  0  0
 39 40  1  6  0  0  0
 39 37  1  0  0  0  0
 42 44  1  0  0  0  0
 44 43  1  0  0  0  0
 46 45  1  0  0  0  0
 46 56  1  0  0  0  0
 47 57  1  0  0  0  0
 48 47  2  0  0  0  0
 49 48  1  1  0  0  0
 50 49  1  0  0  0  0
 50 56  2  0  0  0  0
 52 55  2  0  0  0  0
 53 60  1  6  0  0  0
 53 55  1  0  0  0  0
 53 58  1  0  0  0  0
 54 47  1  0  0  0  0
 54 51  2  0  0  0  0
 55 50  1  0  0  0  0
 56 54  1  0  0  0  0
 58 49  1  0  0  0  0
 59 65  1  0  0  0  0
 61 59  1  0  0  0  0
 62 59  2  0  0  0  0
 62 63  1  0  0  0  0
 63 60  1  0  0  0  0
 64 62  1  0  0  0  0
 65 60  2  0  0  0  0
M  END
>  <MODEL>
5

>  <REMARK>
 VINA RESULT:      -6.2      3.198      7.326
  Name = 
  18 active torsions:
  status: ('A' for Active; 'I' for Inactive)
    1  A    between atoms: C_1  and  O_34
    2  A    between atoms: C_2  and  S_30
    3  A    between atoms: C_2  and  N_46
    4  A    between atoms: C_3  and  C_41
    5  A    between atoms: C_3  and  O_47
    6  A    between atoms: C_10  and  C_40
    7  A    between atoms: C_13  and  C_28
    8  A    between atoms: C_13  and  C_59
    9  A    between atoms: N_15  and  C_41
   10  A    between atoms: C_20  and  C_52
   11  A    between atoms: C_25  and  O_47
   12  A    between atoms: C_25  and  N_63
   13  A    between atoms: C_28  and  C_32
   14  A    between atoms: C_28  and  C_65
   15  A    between atoms: S_30  and  C_52
   16  A    between atoms: C_32  and  C_62
   17  A    between atoms: O_34  and  C_36
   18  A    between atoms: C_56  and  C_59
                            x       y       z     vdW  Elec       q    Type
                         _______ _______ _______ _____ _____    ______ ____

>  <TORSDO>
F 18

$$$$
=
 OpenBabel11032419473D

 65 72  0  0  1  0  0  0  0  0999 V2000
  187.4900  178.4330  138.3670 C   0  0  2  0  0  3  0  0  0  0  0  0
  188.5270  177.5060  136.2010 C   0  0  0  0  0  0  0  0  0  0  0  0
  188.0100  175.2630  135.5050 N   0  0  0  0  0  0  0  0  0  0  0  0
  189.2510  178.6830  136.0450 O   0  0  0  0  0  1  0  0  0  0  0  0
  186.7740  175.2360  136.2980 C   0  0  0  0  0  2  0  0  0  0  0  0
  188.7470  176.4850  135.3720 C   0  0  0  0  0  3  0  0  0  0  0  0
  186.7870  176.2760  137.3860 C   0  0  0  0  0  3  0  0  0  0  0  0
  187.5510  177.3730  137.3010 C   0  0  0  0  0  0  0  0  0  0  0  0
  188.4220  174.1400  134.6600 C   0  0  0  0  0  2  0  0  0  0  0  0
  189.4150  173.1980  135.3330 C   0  0  0  0  0  2  0  0  0  0  0  0
  190.7140  173.6900  135.2110 O   0  0  0  0  0  0  0  0  0  0  0  0
  191.4740  172.5760  134.8550 C   0  0  0  0  0  2  0  0  0  0  0  0
  194.8750  174.0070  138.2710 C   0  0  0  0  0  2  0  0  0  0  0  0
  196.7760  173.8320  136.0300 C   0  0  0  0  0  2  0  0  0  0  0  0
  196.3710  173.9070  138.5610 C   0  0  0  0  0  2  0  0  0  0  0  0
  194.5460  173.4190  136.9690 N   0  0  0  0  0  0  0  0  0  0  0  0
  197.1760  174.4490  137.3810 C   0  0  0  0  0  2  0  0  0  0  0  0
  192.2540  173.7070  137.3260 O   0  0  0  0  0  0  0  0  0  0  0  0
  193.1750  173.3120  136.5590 C   0  0  0  0  0  0  0  0  0  0  0  0
  195.6040  172.8570  136.1290 C   0  0  0  0  0  2  0  0  0  0  0  0
  192.8500  172.7690  135.2770 N   0  0  0  0  0  2  0  0  0  0  0  0
  188.8380  178.5830  139.0540 C   0  0  0  0  0  2  0  0  0  0  0  0
  189.5290  176.2660  139.3650 O   0  0  0  0  0  0  0  0  0  0  0  0
  192.8180  177.5180  140.2390 C   0  0  0  0  0  1  0  0  0  0  0  0
  191.7160  176.4740  140.4180 C   0  0  2  0  0  3  0  0  0  0  0  0
  190.9120  176.4030  139.1110 C   0  0  0  0  0  2  0  0  0  0  0  0
  189.9200  177.8520  141.2160 C   0  0  0  0  0  2  0  0  0  0  0  0
  190.8210  176.7570  141.5590 N   0  0  0  0  0  0  0  0  0  0  0  0
  189.0480  177.4300  140.0240 C   0  0  1  0  0  3  0  0  0  0  0  0
  191.5670  177.1180  142.7590 C   0  0  0  0  0  2  0  0  0  0  0  0
  191.8100  179.4160  143.9790 O   0  0  0  0  0  0  0  0  0  0  0  0
  190.7000  178.4290  143.6400 S   0  0  2  0  0  0  0  0  0  0  0  0
  190.3050  177.6620  145.2250 C   0  0  0  0  0  2  0  0  0  0  0  0
  187.7790  177.8970  145.0180 C   0  0  2  0  0  3  0  0  0  0  0  0
  189.0360  178.2610  145.8140 C   0  0  1  0  0  3  0  0  0  0  0  0
  188.9810  178.0330  147.3370 C   0  0  1  0  0  3  0  0  0  0  0  0
  186.3720  177.9260  147.0770 C   0  0  2  0  0  3  0  0  0  0  0  0
  185.3230  178.5800  147.7210 O   0  0  0  0  0  1  0  0  0  0  0  0
  187.6210  177.9600  147.9690 C   0  0  1  0  0  3  0  0  0  0  0  0
  188.3840  176.8060  147.6780 O   0  0  0  0  0  0  0  0  0  0  0  0
  186.5750  178.5300  145.6950 C   0  0  0  0  0  2  0  0  0  0  0  0
  187.6250  176.5080  144.9180 O   0  0  0  0  0  0  0  0  0  0  0  0
  187.4740  177.5270  142.7780 C   0  0  0  0  0  1  0  0  0  0  0  0
  187.2310  176.2790  143.5980 C   0  0  0  0  0  2  0  0  0  0  0  0
  186.4070  178.1640  139.4000 C   0  0  0  0  0  2  0  0  0  0  0  0
  185.1270  178.8950  139.0310 C   0  0  0  0  0  2  0  0  0  0  0  0
  183.1770  178.7370  142.3980 C   0  0  0  0  0  0  0  0  0  0  0  0
  181.9220  178.6130  141.9500 C   0  0  0  0  0  3  0  0  0  0  0  0
  181.6420  178.1450  140.5460 C   0  0  2  0  0  3  0  0  0  0  0  0
  182.7690  178.4150  139.6210 C   0  0  0  0  0  0  0  0  0  0  0  0
  185.5020  178.5830  141.8900 O   0  0  0  0  0  0  0  0  0  0  0  0
  182.7540  178.8290  137.2590 O   0  0  0  0  0  0  0  0  0  0  0  0
  180.7040  178.8550  138.5950 C   0  0  1  0  0  3  0  0  0  0  0  0
  184.3180  178.5900  141.4600 C   0  0  0  0  0  0  0  0  0  0  0  0
  182.1640  178.7130  138.3670 C   0  0  0  0  0  0  0  0  0  0  0  0
  184.0470  178.5490  140.0060 C   0  0  0  0  0  0  0  0  0  0  0  0
  183.4070  179.1220  143.8170 C   0  0  0  0  0  1  0  0  0  0  0  0
  180.4810  178.7430  139.9950 O   0  0  0  0  0  0  0  0  0  0  0  0
  179.6210  181.7880  136.6500 C   0  0  0  0  0  0  0  0  0  0  0  0
  180.1900  180.1760  138.1090 C   0  0  0  0  0  0  0  0  0  0  0  0
  179.3840  182.3750  135.2980 C   0  0  0  0  0  1  0  0  0  0  0  0
  179.4090  182.4800  137.8380 C   0  0  0  0  0  0  0  0  0  0  0  0
  179.7860  181.4590  139.1210 S   0  0  0  0  0  0  0  0  0  0  0  0
  178.9310  183.8830  137.9750 C   0  0  0  0  0  1  0  0  0  0  0  0
  180.0610  180.5120  136.8030 N   0  0  0  0  0  0  0  0  0  0  0  0
  1 22  1  1  0  0  0
  1 45  1  0  0  0  0
  2  8  1  0  0  0  0
  3  5  1  0  0  0  0
  4  2  1  0  0  0  0
  5  7  1  0  0  0  0
  6  3  1  0  0  0  0
  6  2  2  0  0  0  0
  8  7  2  0  0  0  0
  8  1  1  0  0  0  0
  9 10  1  0  0  0  0
  9  3  1  0  0  0  0
 11 10  1  0  0  0  0
 12 11  1  0  0  0  0
 12 21  1  0  0  0  0
 13 15  1  0  0  0  0
 14 20  1  0  0  0  0
 14 17  1  0  0  0  0
 16 13  1  0  0  0  0
 17 15  1  0  0  0  0
 19 16  1  0  0  0  0
 19 18  2  0  0  0  0
 20 16  1  0  0  0  0
 21 19  1  0  0  0  0
 23 29  1  0  0  0  0
 25 24  1  6  0  0  0
 25 28  1  0  0  0  0
 26 23  1  0  0  0  0
 26 25  1  0  0  0  0
 27 28  1  0  0  0  0
 28 30  1  0  0  0  0
 29 22  1  6  0  0  0
 29 27  1  0  0  0  0
 30 32  1  0  0  0  0
 32 31  2  1  0  0  0
 32 33  1  0  0  0  0
 34 42  1  1  0  0  0
 34 41  1  0  0  0  0
 34 35  1  0  0  0  0
 35 33  1  6  0  0  0
 35 36  1  0  0  0  0
 36 40  1  6  0  0  0
 36 39  1  0  0  0  0
 37 38  1  1  0  0  0
 37 39  1  0  0  0  0
 39 40  1  6  0  0  0
 41 37  1  0  0  0  0
 43 44  1  0  0  0  0
 44 42  1  0  0  0  0
 46 45  1  0  0  0  0
 46 56  1  0  0  0  0
 47 57  1  0  0  0  0
 48 47  2  0  0  0  0
 49 48  1  1  0  0  0
 50 56  2  0  0  0  0
 50 49  1  0  0  0  0
 52 55  2  0  0  0  0
 53 60  1  1  0  0  0
 53 58  1  0  0  0  0
 54 51  2  0  0  0  0
 54 47  1  0  0  0  0
 55 53  1  0  0  0  0
 55 50  1  0  0  0  0
 56 54  1  0  0  0  0
 58 49  1  0  0  0  0
 59 65  1  0  0  0  0
 59 62  2  0  0  0  0
 60 63  1  0  0  0  0
 61 59  1  0  0  0  0
 62 64  1  0  0  0  0
 62 63  1  0  0  0  0
 65 60  2  0  0  0  0
M  END
>  <MODEL>
6

>  <REMARK>
 VINA RESULT:      -5.4      2.604     10.435
  Name = 
  18 active torsions:
  status: ('A' for Active; 'I' for Inactive)
    1  A    between atoms: C_1  and  O_34
    2  A    between atoms: C_2  and  S_30
    3  A    between atoms: C_2  and  N_46
    4  A    between atoms: C_3  and  C_41
    5  A    between atoms: C_3  and  O_47
    6  A    between atoms: C_10  and  C_40
    7  A    between atoms: C_13  and  C_28
    8  A    between atoms: C_13  and  C_59
    9  A    between atoms: N_15  and  C_41
   10  A    between atoms: C_20  and  C_52
   11  A    between atoms: C_25  and  O_47
   12  A    between atoms: C_25  and  N_63
   13  A    between atoms: C_28  and  C_32
   14  A    between atoms: C_28  and  C_65
   15  A    between atoms: S_30  and  C_52
   16  A    between atoms: C_32  and  C_62
   17  A    between atoms: O_34  and  C_36
   18  A    between atoms: C_56  and  C_59
                            x       y       z     vdW  Elec       q    Type
                         _______ _______ _______ _____ _____    ______ ____

>  <TORSDO>
F 18

$$$$
=
 OpenBabel11032419473D

 65 72  0  0  1  0  0  0  0  0999 V2000
  187.4400  177.5040  137.7350 C   0  0  2  0  0  3  0  0  0  0  0  0
  189.3440  176.7430  136.1800 C   0  0  0  0  0  0  0  0  0  0  0  0
  190.1880  174.4970  136.3510 N   0  0  0  0  0  0  0  0  0  0  0  0
  189.4210  178.0240  135.6470 O   0  0  0  0  0  1  0  0  0  0  0  0
  188.9550  174.0170  136.9890 C   0  0  0  0  0  2  0  0  0  0  0  0
  190.2480  175.8280  135.8240 C   0  0  0  0  0  3  0  0  0  0  0  0
  188.1650  175.1450  137.5950 C   0  0  0  0  0  3  0  0  0  0  0  0
  188.2950  176.4060  137.1620 C   0  0  0  0  0  0  0  0  0  0  0  0
  191.3050  173.6040  136.0350 C   0  0  0  0  0  2  0  0  0  0  0  0
  192.0660  173.9970  134.7720 C   0  0  0  0  0  2  0  0  0  0  0  0
  193.4410  173.8750  134.9740 O   0  0  0  0  0  0  0  0  0  0  0  0
  193.5560  172.9870  136.0430 C   0  0  0  0  0  2  0  0  0  0  0  0
  195.9510  175.2510  139.8410 C   0  0  0  0  0  2  0  0  0  0  0  0
  198.3900  174.4870  138.3790 C   0  0  0  0  0  2  0  0  0  0  0  0
  197.2890  175.2250  140.5760 C   0  0  0  0  0  2  0  0  0  0  0  0
  195.9590  174.3430  138.6900 N   0  0  0  0  0  0  0  0  0  0  0  0
  198.4380  175.4360  139.5890 C   0  0  0  0  0  2  0  0  0  0  0  0
  193.6910  174.7230  138.2700 O   0  0  0  0  0  0  0  0  0  0  0  0
  194.7570  174.1380  137.9330 C   0  0  0  0  0  0  0  0  0  0  0  0
  197.1630  173.5770  138.3680 C   0  0  0  0  0  2  0  0  0  0  0  0
  194.7670  173.2780  136.7900 N   0  0  0  0  0  2  0  0  0  0  0  0
  186.7100  178.2490  136.6300 C   0  0  0  0  0  2  0  0  0  0  0  0
  184.5970  177.7890  135.5030 O   0  0  0  0  0  0  0  0  0  0  0  0
  185.1320  174.2810  136.2480 C   0  0  0  0  0  1  0  0  0  0  0  0
  184.1720  175.4530  136.0490 C   0  0  2  0  0  3  0  0  0  0  0  0
  184.8390  176.4570  135.0980 C   0  0  0  0  0  2  0  0  0  0  0  0
  184.9000  176.9280  137.7980 C   0  0  0  0  0  2  0  0  0  0  0  0
  183.7890  176.1170  137.3130 N   0  0  0  0  0  0  0  0  0  0  0  0
  185.2110  178.0220  136.7640 C   0  0  1  0  0  3  0  0  0  0  0  0
  183.4240  175.1520  138.3440 C   0  0  0  0  0  2  0  0  0  0  0  0
  180.9060  174.5000  138.5910 O   0  0  0  0  0  0  0  0  0  0  0  0
  181.8370  175.6080  139.0660 S   0  0  2  0  0  0  0  0  0  0  0  0
  181.3400  177.0390  138.0860 C   0  0  0  0  0  2  0  0  0  0  0  0
  181.2210  178.3940  140.2380 C   0  0  2  0  0  3  0  0  0  0  0  0
  180.5270  178.0140  138.9270 C   0  0  1  0  0  3  0  0  0  0  0  0
  180.0010  179.1740  138.0600 C   0  0  1  0  0  3  0  0  0  0  0  0
  180.2080  180.6730  140.2040 C   0  0  2  0  0  3  0  0  0  0  0  0
  179.3210  181.5250  140.8590 O   0  0  0  0  0  1  0  0  0  0  0  0
  179.7570  180.4860  138.7490 C   0  0  1  0  0  3  0  0  0  0  0  0
  180.9140  180.2410  137.9730 O   0  0  0  0  0  0  0  0  0  0  0  0
  180.3370  179.3750  140.9890 C   0  0  0  0  0  2  0  0  0  0  0  0
  182.4890  178.9420  140.0010 O   0  0  0  0  0  0  0  0  0  0  0  0
  184.6750  179.0120  140.9290 C   0  0  0  0  0  1  0  0  0  0  0  0
  183.2140  178.6990  141.1700 C   0  0  0  0  0  2  0  0  0  0  0  0
  188.2350  178.4830  138.5850 C   0  0  0  0  0  2  0  0  0  0  0  0
  187.9900  178.2240  140.0630 C   0  0  0  0  0  2  0  0  0  0  0  0
  191.6690  177.3530  140.9950 C   0  0  0  0  0  0  0  0  0  0  0  0
  191.4790  176.6500  142.1180 C   0  0  0  0  0  3  0  0  0  0  0  0
  190.1380  176.0400  142.4320 C   0  0  2  0  0  3  0  0  0  0  0  0
  189.0190  176.7500  141.7670 C   0  0  0  0  0  0  0  0  0  0  0  0
  190.6940  178.2530  139.0140 O   0  0  0  0  0  0  0  0  0  0  0  0
  186.7340  176.9990  142.4490 O   0  0  0  0  0  0  0  0  0  0  0  0
  188.4560  176.1500  143.9660 C   0  0  1  0  0  3  0  0  0  0  0  0
  190.5130  177.6990  140.1300 C   0  0  0  0  0  0  0  0  0  0  0  0
  187.9310  176.6800  142.6830 C   0  0  0  0  0  0  0  0  0  0  0  0
  189.1440  177.4700  140.6430 C   0  0  0  0  0  0  0  0  0  0  0  0
  193.0310  177.8680  140.6820 C   0  0  0  0  0  1  0  0  0  0  0  0
  189.8650  176.0160  143.8230 O   0  0  0  0  0  0  0  0  0  0  0  0
  188.3850  178.0440  147.1230 C   0  0  0  0  0  0  0  0  0  0  0  0
  188.1540  177.0670  145.1120 C   0  0  0  0  0  0  0  0  0  0  0  0
  189.0640  178.3450  148.4180 C   0  0  0  0  0  1  0  0  0  0  0  0
  187.1780  178.6180  146.7350 C   0  0  0  0  0  0  0  0  0  0  0  0
  186.7710  178.0200  145.2170 S   0  0  0  0  0  0  0  0  0  0  0  0
  186.3690  179.5960  147.5140 C   0  0  0  0  0  1  0  0  0  0  0  0
  188.9210  177.1780  146.2240 N   0  0  0  0  0  0  0  0  0  0  0  0
  1 22  1  6  0  0  0
  1 45  1  0  0  0  0
  2  8  1  0  0  0  0
  3  5  1  0  0  0  0
  4  2  1  0  0  0  0
  5  7  1  0  0  0  0
  6  2  2  0  0  0  0
  6  3  1  0  0  0  0
  8  7  2  0  0  0  0
  8  1  1  0  0  0  0
  9  3  1  0  0  0  0
 10 11  1  0  0  0  0
 10  9  1  0  0  0  0
 11 12  1  0  0  0  0
 12 21  1  0  0  0  0
 13 15  1  0  0  0  0
 14 17  1  0  0  0  0
 16 13  1  0  0  0  0
 17 15  1  0  0  0  0
 19 18  2  0  0  0  0
 19 16  1  0  0  0  0
 20 14  1  0  0  0  0
 20 16  1  0  0  0  0
 21 19  1  0  0  0  0
 23 29  1  0  0  0  0
 25 24  1  1  0  0  0
 25 28  1  0  0  0  0
 26 23  1  0  0  0  0
 26 25  1  0  0  0  0
 28 27  1  0  0  0  0
 28 30  1  0  0  0  0
 29 22  1  6  0  0  0
 29 27  1  0  0  0  0
 30 32  1  0  0  0  0
 32 31  2  6  0  0  0
 33 32  1  0  0  0  0
 34 42  1  6  0  0  0
 34 41  1  0  0  0  0
 35 33  1  6  0  0  0
 35 34  1  0  0  0  0
 36 40  1  6  0  0  0
 36 39  1  0  0  0  0
 36 35  1  0  0  0  0
 37 38  1  1  0  0  0
 37 41  1  0  0  0  0
 39 40  1  6  0  0  0
 39 37  1  0  0  0  0
 42 44  1  0  0  0  0
 43 44  1  0  0  0  0
 45 46  1  0  0  0  0
 46 56  1  0  0  0  0
 47 48  2  0  0  0  0
 49 48  1  1  0  0  0
 49 58  1  0  0  0  0
 50 49  1  0  0  0  0
 50 55  1  0  0  0  0
 51 54  2  0  0  0  0
 52 55  2  0  0  0  0
 53 60  1  1  0  0  0
 54 56  1  0  0  0  0
 54 47  1  0  0  0  0
 55 53  1  0  0  0  0
 56 50  2  0  0  0  0
 57 47  1  0  0  0  0
 58 53  1  0  0  0  0
 59 61  1  0  0  0  0
 60 63  1  0  0  0  0
 60 65  2  0  0  0  0
 62 59  2  0  0  0  0
 62 64  1  0  0  0  0
 63 62  1  0  0  0  0
 65 59  1  0  0  0  0
M  END
>  <MODEL>
7

>  <REMARK>
 VINA RESULT:      -5.4      2.482      8.466
  Name = 
  18 active torsions:
  status: ('A' for Active; 'I' for Inactive)
    1  A    between atoms: C_1  and  O_34
    2  A    between atoms: C_2  and  S_30
    3  A    between atoms: C_2  and  N_46
    4  A    between atoms: C_3  and  C_41
    5  A    between atoms: C_3  and  O_47
    6  A    between atoms: C_10  and  C_40
    7  A    between atoms: C_13  and  C_28
    8  A    between atoms: C_13  and  C_59
    9  A    between atoms: N_15  and  C_41
   10  A    between atoms: C_20  and  C_52
   11  A    between atoms: C_25  and  O_47
   12  A    between atoms: C_25  and  N_63
   13  A    between atoms: C_28  and  C_32
   14  A    between atoms: C_28  and  C_65
   15  A    between atoms: S_30  and  C_52
   16  A    between atoms: C_32  and  C_62
   17  A    between atoms: O_34  and  C_36
   18  A    between atoms: C_56  and  C_59
                            x       y       z     vdW  Elec       q    Type
                         _______ _______ _______ _____ _____    ______ ____

>  <TORSDO>
F 18

$$$$
=
 OpenBabel11032419473D

 65 72  0  0  1  0  0  0  0  0999 V2000
  186.8180  178.3230  137.9200 C   0  0  2  0  0  3  0  0  0  0  0  0
  186.7860  177.1930  135.6080 C   0  0  0  0  0  0  0  0  0  0  0  0
  186.2860  174.8470  135.4410 N   0  0  0  0  0  0  0  0  0  0  0  0
  187.1870  178.3870  135.0190 O   0  0  0  0  0  1  0  0  0  0  0  0
  185.6030  174.8380  136.7420 C   0  0  0  0  0  2  0  0  0  0  0  0
  186.7050  176.0890  134.8630 C   0  0  0  0  0  3  0  0  0  0  0  0
  186.0080  176.0100  137.5930 C   0  0  0  0  0  3  0  0  0  0  0  0
  186.4900  177.1380  137.0530 C   0  0  0  0  0  0  0  0  0  0  0  0
  186.3770  173.6540  134.5960 C   0  0  0  0  0  2  0  0  0  0  0  0
  187.4680  172.6790  135.0270 C   0  0  0  0  0  2  0  0  0  0  0  0
  188.6850  173.3430  135.1760 O   0  0  0  0  0  0  0  0  0  0  0  0
  189.0520  173.1000  136.5000 C   0  0  0  0  0  2  0  0  0  0  0  0
  193.9520  173.0020  135.3740 C   0  0  0  0  0  2  0  0  0  0  0  0
  194.2700  174.4580  137.9130 C   0  0  0  0  0  2  0  0  0  0  0  0
  195.2390  173.7790  135.6370 C   0  0  0  0  0  2  0  0  0  0  0  0
  192.8310  173.5540  136.1410 N   0  0  0  0  0  0  0  0  0  0  0  0
  195.4820  173.9080  137.1410 C   0  0  0  0  0  2  0  0  0  0  0  0
  191.3070  172.1160  135.1070 O   0  0  0  0  0  0  0  0  0  0  0  0
  191.5080  173.0340  135.9490 C   0  0  0  0  0  0  0  0  0  0  0  0
  193.0440  174.6950  137.0330 C   0  0  0  0  0  2  0  0  0  0  0  0
  190.4160  173.5470  136.7170 N   0  0  0  0  0  2  0  0  0  0  0  0
  188.2970  178.3400  138.2690 C   0  0  0  0  0  2  0  0  0  0  0  0
  189.0730  176.1630  139.0460 O   0  0  0  0  0  0  0  0  0  0  0  0
  192.3180  177.6810  139.6020 C   0  0  0  0  0  1  0  0  0  0  0  0
  191.2560  176.6600  140.0070 C   0  0  2  0  0  3  0  0  0  0  0  0
  190.4490  176.2920  138.7530 C   0  0  0  0  0  2  0  0  0  0  0  0
  189.4140  178.1120  140.5230 C   0  0  0  0  0  2  0  0  0  0  0  0
  190.3560  177.1430  141.0750 N   0  0  0  0  0  0  0  0  0  0  0  0
  188.5530  177.4210  139.4550 C   0  0  1  0  0  3  0  0  0  0  0  0
  191.0940  177.7710  142.1650 C   0  0  0  0  0  2  0  0  0  0  0  0
  190.8430  179.6530  143.9600 O   0  0  0  0  0  0  0  0  0  0  0  0
  189.9490  178.6450  143.2480 S   0  0  2  0  0  0  0  0  0  0  0  0
  189.5780  177.4220  144.5200 C   0  0  0  0  0  2  0  0  0  0  0  0
  190.1470  177.4660  147.0000 C   0  0  2  0  0  3  0  0  0  0  0  0
  190.6810  177.3780  145.5680 C   0  0  1  0  0  3  0  0  0  0  0  0
  191.6740  176.2390  145.2670 C   0  0  1  0  0  3  0  0  0  0  0  0
  192.0060  176.0440  147.8630 C   0  0  2  0  0  3  0  0  0  0  0  0
  193.1350  176.0330  148.6800 O   0  0  0  0  0  1  0  0  0  0  0  0
  192.4030  175.6420  146.4360 C   0  0  1  0  0  3  0  0  0  0  0  0
  191.2830  175.0160  145.8430 O   0  0  0  0  0  0  0  0  0  0  0  0
  191.3220  177.4000  147.9610 C   0  0  0  0  0  2  0  0  0  0  0  0
  189.2270  176.4420  147.2630 O   0  0  0  0  0  0  0  0  0  0  0  0
  188.0390  177.8630  148.7510 C   0  0  0  0  0  1  0  0  0  0  0  0
  188.0050  177.0920  147.4500 C   0  0  0  0  0  2  0  0  0  0  0  0
  185.9830  178.3690  139.1910 C   0  0  0  0  0  2  0  0  0  0  0  0
  184.5400  177.9990  138.8920 C   0  0  0  0  0  2  0  0  0  0  0  0
  183.6180  178.8490  142.5780 C   0  0  0  0  0  0  0  0  0  0  0  0
  182.2990  179.0410  142.4650 C   0  0  0  0  0  3  0  0  0  0  0  0
  181.5360  178.4990  141.2840 C   0  0  2  0  0  3  0  0  0  0  0  0
  182.3940  178.3080  140.0900 C   0  0  0  0  0  0  0  0  0  0  0  0
  185.5990  177.9600  141.5910 O   0  0  0  0  0  0  0  0  0  0  0  0
  181.8320  178.4020  137.7610 O   0  0  0  0  0  0  0  0  0  0  0  0
  180.3030  179.1960  139.4990 C   0  0  1  0  0  3  0  0  0  0  0  0
  184.3830  178.2560  141.4520 C   0  0  0  0  0  0  0  0  0  0  0  0
  181.5600  178.6060  138.9750 C   0  0  0  0  0  0  0  0  0  0  0  0
  183.7200  178.1110  140.1370 C   0  0  0  0  0  0  0  0  0  0  0  0
  184.3200  179.3280  143.8010 C   0  0  0  0  0  1  0  0  0  0  0  0
  180.4550  179.3340  140.9070 O   0  0  0  0  0  0  0  0  0  0  0  0
  179.3780  182.6870  138.7820 C   0  0  0  0  0  0  0  0  0  0  0  0
  180.0200  180.5350  138.8920 C   0  0  0  0  0  0  0  0  0  0  0  0
  178.9350  184.0020  139.3320 C   0  0  0  0  0  1  0  0  0  0  0  0
  179.5940  182.4510  137.4280 C   0  0  0  0  0  0  0  0  0  0  0  0
  180.0890  180.8550  137.2400 S   0  0  0  0  0  0  0  0  0  0  0  0
  179.4230  183.4290  136.3190 C   0  0  0  0  0  1  0  0  0  0  0  0
  179.6080  181.6200  139.5910 N   0  0  0  0  0  0  0  0  0  0  0  0
  1 22  1  1  0  0  0
  1 45  1  0  0  0  0
  2  8  1  0  0  0  0
  3  5  1  0  0  0  0
  4  2  1  0  0  0  0
  5  7  1  0  0  0  0
  6  3  1  0  0  0  0
  6  2  2  0  0  0  0
  8  7  2  0  0  0  0
  8  1  1  0  0  0  0
  9 10  1  0  0  0  0
  9  3  1  0  0  0  0
 10 11  1  0  0  0  0
 11 12  1  0  0  0  0
 12 21  1  0  0  0  0
 13 15  1  0  0  0  0
 13 16  1  0  0  0  0
 15 17  1  0  0  0  0
 16 20  1  0  0  0  0
 17 14  1  0  0  0  0
 18 19  2  0  0  0  0
 19 16  1  0  0  0  0
 19 21  1  0  0  0  0
 20 14  1  0  0  0  0
 23 29  1  0  0  0  0
 25 24  1  6  0  0  0
 25 28  1  0  0  0  0
 26 23  1  0  0  0  0
 26 25  1  0  0  0  0
 27 28  1  0  0  0  0
 28 30  1  0  0  0  0
 29 22  1  6  0  0  0
 29 27  1  0  0  0  0
 30 32  1  0  0  0  0
 32 31  2  1  0  0  0
 32 33  1  0  0  0  0
 34 42  1  1  0  0  0
 34 41  1  0  0  0  0
 35 33  1  6  0  0  0
 35 34  1  0  0  0  0
 36 35  1  0  0  0  0
 36 40  1  1  0  0  0
 36 39  1  0  0  0  0
 37 41  1  0  0  0  0
 37 38  1  1  0  0  0
 39 40  1  1  0  0  0
 39 37  1  0  0  0  0
 42 44  1  0  0  0  0
 44 43  1  0  0  0  0
 46 45  1  0  0  0  0
 46 56  1  0  0  0  0
 47 57  1  0  0  0  0
 48 47  2  0  0  0  0
 49 48  1  1  0  0  0
 50 56  2  0  0  0  0
 50 49  1  0  0  0  0
 52 55  2  0  0  0  0
 53 60  1  6  0  0  0
 53 58  1  0  0  0  0
 54 51  2  0  0  0  0
 54 47  1  0  0  0  0
 55 53  1  0  0  0  0
 55 50  1  0  0  0  0
 56 54  1  0  0  0  0
 58 49  1  0  0  0  0
 59 61  1  0  0  0  0
 59 65  1  0  0  0  0
 60 65  2  0  0  0  0
 62 59  2  0  0  0  0
 63 62  1  0  0  0  0
 63 60  1  0  0  0  0
 64 62  1  0  0  0  0
M  END
>  <MODEL>
8

>  <REMARK>
 VINA RESULT:      -5.3      2.662     11.033
  Name = 
  18 active torsions:
  status: ('A' for Active; 'I' for Inactive)
    1  A    between atoms: C_1  and  O_34
    2  A    between atoms: C_2  and  S_30
    3  A    between atoms: C_2  and  N_46
    4  A    between atoms: C_3  and  C_41
    5  A    between atoms: C_3  and  O_47
    6  A    between atoms: C_10  and  C_40
    7  A    between atoms: C_13  and  C_28
    8  A    between atoms: C_13  and  C_59
    9  A    between atoms: N_15  and  C_41
   10  A    between atoms: C_20  and  C_52
   11  A    between atoms: C_25  and  O_47
   12  A    between atoms: C_25  and  N_63
   13  A    between atoms: C_28  and  C_32
   14  A    between atoms: C_28  and  C_65
   15  A    between atoms: S_30  and  C_52
   16  A    between atoms: C_32  and  C_62
   17  A    between atoms: O_34  and  C_36
   18  A    between atoms: C_56  and  C_59
                            x       y       z     vdW  Elec       q    Type
                         _______ _______ _______ _____ _____    ______ ____

>  <TORSDO>
F 18

$$$$
=
 OpenBabel11032419473D

 65 72  0  0  1  0  0  0  0  0999 V2000
  184.1260  179.0190  141.1450 C   0  0  2  0  0  3  0  0  0  0  0  0
  183.5550  179.3640  143.6310 C   0  0  0  0  0  0  0  0  0  0  0  0
  184.9340  178.3450  145.3170 N   0  0  0  0  0  0  0  0  0  0  0  0
  182.4180  180.0780  143.2700 O   0  0  0  0  0  1  0  0  0  0  0  0
  186.0750  178.2260  144.3990 C   0  0  0  0  0  2  0  0  0  0  0  0
  183.7670  179.0730  144.9160 C   0  0  0  0  0  3  0  0  0  0  0  0
  185.6420  178.2970  142.9600 C   0  0  0  0  0  3  0  0  0  0  0  0
  184.5000  178.8970  142.5980 C   0  0  0  0  0  0  0  0  0  0  0  0
  185.0120  177.9300  146.7200 C   0  0  0  0  0  2  0  0  0  0  0  0
  185.9010  178.8260  147.5760 C   0  0  0  0  0  2  0  0  0  0  0  0
  186.7660  178.0550  148.3530 O   0  0  0  0  0  0  0  0  0  0  0  0
  188.0260  178.6050  148.1180 C   0  0  0  0  0  2  0  0  0  0  0  0
  191.6660  176.1670  145.6510 C   0  0  0  0  0  2  0  0  0  0  0  0
  190.2600  177.0990  143.2390 C   0  0  0  0  0  2  0  0  0  0  0  0
  191.9290  175.4750  144.3150 C   0  0  0  0  0  2  0  0  0  0  0  0
  190.3420  176.7960  145.6730 N   0  0  0  0  0  0  0  0  0  0  0  0
  191.6450  176.4350  143.1590 C   0  0  0  0  0  2  0  0  0  0  0  0
  190.5650  177.3770  147.9260 O   0  0  0  0  0  0  0  0  0  0  0  0
  189.8590  177.4020  146.8800 C   0  0  0  0  0  0  0  0  0  0  0  0
  189.4760  176.7260  144.4950 C   0  0  0  0  0  2  0  0  0  0  0  0
  188.5820  178.0450  146.8990 N   0  0  0  0  0  2  0  0  0  0  0  0
  183.3140  177.8160  140.6960 C   0  0  0  0  0  2  0  0  0  0  0  0
  181.6360  179.5820  140.5950 O   0  0  0  0  0  0  0  0  0  0  0  0
  181.4900  179.0370  137.0140 C   0  0  0  0  0  1  0  0  0  0  0  0
  180.7880  179.4150  138.3180 C   0  0  2  0  0  3  0  0  0  0  0  0
  181.8380  180.0140  139.2650 C   0  0  0  0  0  2  0  0  0  0  0  0
  181.0840  177.3980  139.5850 C   0  0  0  0  0  2  0  0  0  0  0  0
  180.1000  178.2780  138.9630 N   0  0  0  0  0  0  0  0  0  0  0  0
  181.8350  178.1770  140.6750 C   0  0  1  0  0  3  0  0  0  0  0  0
  179.3140  177.5050  138.0080 C   0  0  0  0  0  2  0  0  0  0  0  0
  179.1730  176.0660  140.1840 O   0  0  0  0  0  0  0  0  0  0  0  0
  178.9690  175.8720  138.6870 S   0  0  2  0  0  0  0  0  0  0  0  0
  180.4060  174.9080  138.1770 C   0  0  0  0  0  2  0  0  0  0  0  0
  179.9200  174.0130  135.8440 C   0  0  2  0  0  3  0  0  0  0  0  0
  179.9830  173.7060  137.3430 C   0  0  1  0  0  3  0  0  0  0  0  0
  180.7690  172.4490  137.7600 C   0  0  1  0  0  3  0  0  0  0  0  0
  180.5720  171.6770  135.2600 C   0  0  2  0  0  3  0  0  0  0  0  0
  180.1340  170.4980  134.6590 O   0  0  0  0  0  1  0  0  0  0  0  0
  180.9740  171.3920  136.7140 C   0  0  1  0  0  3  0  0  0  0  0  0
  181.9850  172.3160  137.0650 O   0  0  0  0  0  0  0  0  0  0  0  0
  179.5040  172.7510  135.1080 C   0  0  0  0  0  2  0  0  0  0  0  0
  181.1500  174.4870  135.3700 O   0  0  0  0  0  0  0  0  0  0  0  0
  182.0880  176.5510  134.6630 C   0  0  0  0  0  1  0  0  0  0  0  0
  180.8510  175.6830  134.7140 C   0  0  0  0  0  2  0  0  0  0  0  0
  185.3360  179.1960  140.2420 C   0  0  0  0  0  2  0  0  0  0  0  0
  185.8610  177.8450  139.7840 C   0  0  0  0  0  2  0  0  0  0  0  0
  189.7100  177.9390  139.2030 C   0  0  0  0  0  0  0  0  0  0  0  0
  189.7690  177.6630  137.8940 C   0  0  0  0  0  3  0  0  0  0  0  0
  188.5630  177.8440  137.0100 C   0  0  2  0  0  3  0  0  0  0  0  0
  187.2870  177.7580  137.7610 C   0  0  0  0  0  0  0  0  0  0  0  0
  188.3540  178.6330  141.0380 O   0  0  0  0  0  0  0  0  0  0  0  0
  185.1200  177.0360  137.0320 O   0  0  0  0  0  0  0  0  0  0  0  0
  187.1340  176.6500  135.6960 C   0  0  1  0  0  3  0  0  0  0  0  0
  188.4050  178.2540  139.8380 C   0  0  0  0  0  0  0  0  0  0  0  0
  186.3650  177.1420  136.8680 C   0  0  0  0  0  0  0  0  0  0  0  0
  187.1630  178.0220  139.0690 C   0  0  0  0  0  0  0  0  0  0  0  0
  190.9460  177.8270  140.0250 C   0  0  0  0  0  1  0  0  0  0  0  0
  188.5100  176.8900  135.9630 O   0  0  0  0  0  0  0  0  0  0  0  0
  187.4310  173.0260  135.1150 C   0  0  0  0  0  0  0  0  0  0  0  0
  186.9160  175.1870  135.4610 C   0  0  0  0  0  0  0  0  0  0  0  0
  188.3390  171.8470  135.0080 C   0  0  0  0  0  1  0  0  0  0  0  0
  186.0510  172.9530  134.9570 C   0  0  0  0  0  0  0  0  0  0  0  0
  185.4100  174.4940  135.1650 S   0  0  0  0  0  0  0  0  0  0  0  0
  185.2560  171.7310  134.6560 C   0  0  0  0  0  1  0  0  0  0  0  0
  187.9090  174.2680  135.3880 N   0  0  0  0  0  0  0  0  0  0  0  0
  1 45  1  6  0  0  0
  1  8  1  0  0  0  0
  2  6  2  0  0  0  0
  3  9  1  0  0  0  0
  4  2  1  0  0  0  0
  5  3  1  0  0  0  0
  6  3  1  0  0  0  0
  7  5  1  0  0  0  0
  8  7  2  0  0  0  0
  8  2  1  0  0  0  0
  9 10  1  0  0  0  0
 10 11  1  0  0  0  0
 12 11  1  0  0  0  0
 13 16  1  0  0  0  0
 14 20  1  0  0  0  0
 15 13  1  0  0  0  0
 16 19  1  0  0  0  0
 17 14  1  0  0  0  0
 17 15  1  0  0  0  0
 19 21  1  0  0  0  0
 19 18  2  0  0  0  0
 20 16  1  0  0  0  0
 21 12  1  0  0  0  0
 22  1  1  0  0  0  0
 23 29  1  0  0  0  0
 25 24  1  6  0  0  0
 25 28  1  0  0  0  0
 25 26  1  0  0  0  0
 26 23  1  0  0  0  0
 27 29  1  0  0  0  0
 28 27  1  0  0  0  0
 29 22  1  6  0  0  0
 30 32  1  0  0  0  0
 30 28  1  0  0  0  0
 32 31  2  1  0  0  0
 33 32  1  0  0  0  0
 34 42  1  6  0  0  0
 34 35  1  0  0  0  0
 35 36  1  0  0  0  0
 35 33  1  1  0  0  0
 36 40  1  6  0  0  0
 37 38  1  1  0  0  0
 37 39  1  0  0  0  0
 39 40  1  6  0  0  0
 39 36  1  0  0  0  0
 41 37  1  0  0  0  0
 41 34  1  0  0  0  0
 43 44  1  0  0  0  0
 44 42  1  0  0  0  0
 46 45  1  0  0  0  0
 47 54  1  0  0  0  0
 47 57  1  0  0  0  0
 48 47  2  0  0  0  0
 49 50  1  0  0  0  0
 49 48  1  1  0  0  0
 50 56  2  0  0  0  0
 53 60  1  1  0  0  0
 53 58  1  0  0  0  0
 53 55  1  0  0  0  0
 54 51  2  0  0  0  0
 55 52  2  0  0  0  0
 55 50  1  0  0  0  0
 56 46  1  0  0  0  0
 56 54  1  0  0  0  0
 58 49  1  0  0  0  0
 59 65  1  0  0  0  0
 61 59  1  0  0  0  0
 62 59  2  0  0  0  0
 62 63  1  0  0  0  0
 63 60  1  0  0  0  0
 64 62  1  0  0  0  0
 65 60  2  0  0  0  0
M  END
>  <MODEL>
9

>  <REMARK>
 VINA RESULT:      -5.3      2.848      6.009
  Name = 
  18 active torsions:
  status: ('A' for Active; 'I' for Inactive)
    1  A    between atoms: C_1  and  O_34
    2  A    between atoms: C_2  and  S_30
    3  A    between atoms: C_2  and  N_46
    4  A    between atoms: C_3  and  C_41
    5  A    between atoms: C_3  and  O_47
    6  A    between atoms: C_10  and  C_40
    7  A    between atoms: C_13  and  C_28
    8  A    between atoms: C_13  and  C_59
    9  A    between atoms: N_15  and  C_41
   10  A    between atoms: C_20  and  C_52
   11  A    between atoms: C_25  and  O_47
   12  A    between atoms: C_25  and  N_63
   13  A    between atoms: C_28  and  C_32
   14  A    between atoms: C_28  and  C_65
   15  A    between atoms: S_30  and  C_52
   16  A    between atoms: C_32  and  C_62
   17  A    between atoms: O_34  and  C_36
   18  A    between atoms: C_56  and  C_59
                            x       y       z     vdW  Elec       q    Type
                         _______ _______ _______ _____ _____    ______ ____

>  <TORSDO>
F 18

$$$$
