=
 OpenBabel11042410193D

 48 50  0  0  1  0  0  0  0  0999 V2000
  187.4160  177.0430  144.8220 C   0  0  0  0  0  3  0  0  0  0  0  0
  186.3640  178.5030  146.4370 C   0  0  0  0  0  3  0  0  0  0  0  0
  185.7000  178.6060  144.0960 C   0  0  0  0  0  0  0  0  0  0  0  0
  186.6220  177.5890  143.8110 C   0  0  0  0  0  3  0  0  0  0  0  0
  185.5710  179.0480  145.4230 C   0  0  0  0  0  3  0  0  0  0  0  0
  187.3090  177.5100  146.1380 C   0  0  0  0  0  0  0  0  0  0  0  0
  188.1120  176.8370  147.2240 C   0  0  2  0  0  3  0  0  0  0  0  0
  188.9960  177.8220  148.0100 C   0  0  0  0  0  0  0  0  0  0  0  0
  189.5460  176.7830  147.0310 C   0  0  2  0  0  3  0  0  0  0  0  0
  189.1430  178.7440  148.7940 O   0  0  0  0  0  0  0  0  0  0  0  0
  190.1340  177.5220  145.8310 C   0  0  0  0  0  2  0  0  0  0  0  0
  191.3650  176.7900  145.3300 C   0  0  0  0  0  2  0  0  0  0  0  0
  191.5440  177.0100  143.9360 O   0  0  0  0  0  0  0  0  0  0  0  0
  190.3370  175.3520  142.8640 O   0  0  0  0  0  0  0  0  0  0  0  0
  190.6260  176.5750  142.9760 C   0  0  0  0  0  0  0  0  0  0  0  0
  190.0220  177.5670  142.0480 C   0  0  0  0  0  2  0  0  0  0  0  0
  189.8960  176.9540  140.6670 C   0  0  0  0  0  2  0  0  0  0  0  0
  191.1730  177.0060  139.9660 N   0  0  0  0  0  2  0  0  0  0  0  0
  192.5200  176.6320  138.1180 O   0  0  0  0  0  0  0  0  0  0  0  0
  191.3490  176.7590  138.5650 C   0  0  0  0  0  0  0  0  0  0  0  0
  187.3280  177.0340  136.6040 C   0  0  0  0  0  3  0  0  0  0  0  0
  190.2050  176.6260  137.6380 C   0  0  0  0  0  0  0  0  0  0  0  0
  189.7760  175.2760  137.2080 C   0  0  0  0  0  3  0  0  0  0  0  0
  188.5440  177.7800  136.1700 C   0  0  0  0  0  2  0  0  0  0  0  0
  188.5350  174.8900  136.8810 C   0  0  0  0  0  3  0  0  0  0  0  0
  187.3120  175.7300  136.8830 C   0  0  0  0  0  0  0  0  0  0  0  0
  189.6170  177.7470  137.2070 C   0  0  0  0  0  3  0  0  0  0  0  0
  186.0710  175.1520  137.1600 O   0  0  0  0  0  0  0  0  0  0  0  0
  184.9530  175.2780  136.2920 C   0  0  0  0  0  1  0  0  0  0  0  0
  183.3930  179.2230  143.1450 N   0  0  0  0  0  2  0  0  0  0  0  0
  185.3590  179.6590  142.0070 O   0  0  0  0  0  0  0  0  0  0  0  0
  184.8250  179.1850  143.0480 C   0  0  0  0  0  0  0  0  0  0  0  0
  182.6010  178.6040  144.1900 C   0  0  0  0  0  2  0  0  0  0  0  0
  181.1290  178.8210  143.8920 C   0  0  0  0  0  2  0  0  0  0  0  0
  180.8850  179.0090  142.4030 C   0  0  1  0  0  3  0  0  0  0  0  0
  180.2880  177.8550  141.8960 O   0  0  0  0  0  1  0  0  0  0  0  0
  179.9780  180.2110  142.1630 C   0  0  0  0  0  2  0  0  0  0  0  0
  179.3840  180.2200  140.7630 C   0  0  0  0  0  2  0  0  0  0  0  0
  181.2120  180.6880  139.1040 C   0  0  0  0  0  0  0  0  0  0  0  0
  180.1150  181.1340  139.8990 N   0  0  0  0  0  2  0  0  0  0  0  0
  181.9310  181.5340  138.5150 O   0  0  0  0  0  0  0  0  0  0  0  0
  181.4830  179.2860  138.9730 N   0  0  0  0  0  2  0  0  0  0  0  0
  182.5900  178.7150  138.2090 C   0  0  1  0  0  3  0  0  0  0  0  0
  183.8120  178.4880  139.0890 C   0  0  0  0  0  2  0  0  0  0  0  0
  184.8700  179.2770  138.6410 O   0  0  0  0  0  1  0  0  0  0  0  0
  182.1620  177.4230  137.5230 C   0  0  0  0  0  2  0  0  0  0  0  0
  181.1290  177.6860  136.6210 O   0  0  0  0  0  0  0  0  0  0  0  0
  181.7600  178.2340  135.5050 C   0  0  0  0  0  1  0  0  0  0  0  0
  1  6  1  0  0  0  0
  3  5  2  0  0  0  0
  4  3  1  0  0  0  0
  4  1  2  0  0  0  0
  5  2  1  0  0  0  0
  6  2  2  0  0  0  0
  7  6  1  6  0  0  0
  7  8  1  0  0  0  0
  8 10  2  0  0  0  0
  9 11  1  6  0  0  0
  9  7  1  0  0  0  0
  9  8  1  0  0  0  0
 12 11  1  0  0  0  0
 13 12  1  0  0  0  0
 14 15  2  0  0  0  0
 15 13  1  0  0  0  0
 16 15  1  0  0  0  0
 17 16  1  0  0  0  0
 18 17  1  0  0  0  0
 19 20  2  0  0  0  0
 20 18  1  0  0  0  0
 21 26  2  0  0  0  0
 22 20  1  0  0  0  0
 23 22  1  0  0  0  0
 24 21  1  0  0  0  0
 24 27  1  0  0  0  0
 25 26  1  0  0  0  0
 25 23  2  0  0  0  0
 26 28  1  0  0  0  0
 27 22  2  0  0  0  0
 29 28  1  0  0  0  0
 30 33  1  0  0  0  0
 31 32  2  0  0  0  0
 32 30  1  0  0  0  0
 32  3  1  0  0  0  0
 34 33  1  0  0  0  0
 35 36  1  1  0  0  0
 35 34  1  0  0  0  0
 37 35  1  0  0  0  0
 38 37  1  0  0  0  0
 39 40  1  0  0  0  0
 40 38  1  0  0  0  0
 41 39  2  0  0  0  0
 42 39  1  0  0  0  0
 43 46  1  1  0  0  0
 43 42  1  0  0  0  0
 43 44  1  0  0  0  0
 45 44  1  0  0  0  0
 47 46  1  0  0  0  0
 48 47  1  0  0  0  0
M  END
>  <MODEL>
1

>  <REMARK>
 VINA RESULT:      -7.5      0.000      0.000
  Name = 
  21 active torsions:
  status: ('A' for Active; 'I' for Inactive)
    1  A    between atoms: C_3  and  O_22
    2  A    between atoms: C_3  and  C_37
    3  A    between atoms: C_4  and  C_19
    4  A    between atoms: C_4  and  C_31
    5  A    between atoms: C_5  and  C_48
    6  A    between atoms: C_7  and  C_37
    7  A    between atoms: O_8  and  C_31
    8  A    between atoms: O_8  and  C_39
    9  A    between atoms: C_11  and  C_21
   10  A    between atoms: C_11  and  C_34
   11  A    between atoms: N_12  and  C_18
   12  A    between atoms: N_14  and  C_45
   13  A    between atoms: N_15  and  C_29
   14  A    between atoms: O_16  and  C_46
   15  A    between atoms: C_17  and  C_43
   16  A    between atoms: C_18  and  C_21
   17  A    between atoms: C_24  and  C_29
   18  A    between atoms: C_24  and  C_39
   19  A    between atoms: C_25  and  C_41
   20  A    between atoms: C_34  and  C_45
   21  A    between atoms: C_37  and  N_44
                            x       y       z     vdW  Elec       q    Type
                         _______ _______ _______ _____ _____    ______ ____

>  <TORSDO>
F 21

$$$$
=
 OpenBabel11042410193D

 48 50  0  0  1  0  0  0  0  0999 V2000
  189.7100  177.2460  144.6920 C   0  0  0  0  0  3  0  0  0  0  0  0
  187.7090  176.4990  143.5590 C   0  0  0  0  0  3  0  0  0  0  0  0
  187.5290  177.7180  145.6600 C   0  0  0  0  0  0  0  0  0  0  0  0
  188.9280  177.8120  145.7020 C   0  0  0  0  0  3  0  0  0  0  0  0
  186.9280  177.0670  144.5710 C   0  0  0  0  0  3  0  0  0  0  0  0
  189.1090  176.5670  143.6260 C   0  0  0  0  0  0  0  0  0  0  0  0
  189.9740  176.0470  142.5040 C   0  0  2  0  0  3  0  0  0  0  0  0
  191.0050  177.0810  142.0180 C   0  0  0  0  0  0  0  0  0  0  0  0
  189.7820  176.6540  141.2040 C   0  0  2  0  0  3  0  0  0  0  0  0
  192.0120  177.7510  142.1740 O   0  0  0  0  0  0  0  0  0  0  0  0
  188.8340  177.8460  141.1040 C   0  0  0  0  0  2  0  0  0  0  0  0
  189.0040  178.5280  139.7590 C   0  0  0  0  0  2  0  0  0  0  0  0
  187.8080  178.4330  138.9960 O   0  0  0  0  0  0  0  0  0  0  0  0
  186.7170  178.8120  136.9910 O   0  0  0  0  0  0  0  0  0  0  0  0
  187.7870  178.5450  137.6030 C   0  0  0  0  0  0  0  0  0  0  0  0
  189.0370  178.2990  136.8370 C   0  0  0  0  0  2  0  0  0  0  0  0
  188.8190  177.1520  135.8690 C   0  0  0  0  0  2  0  0  0  0  0  0
  188.6590  175.8970  136.5920 N   0  0  0  0  0  2  0  0  0  0  0  0
  189.4690  173.9040  137.4550 O   0  0  0  0  0  0  0  0  0  0  0  0
  189.7380  175.0580  137.0230 C   0  0  0  0  0  0  0  0  0  0  0  0
  194.2060  175.1740  136.6840 C   0  0  0  0  0  3  0  0  0  0  0  0
  191.1500  175.4910  136.9550 C   0  0  0  0  0  0  0  0  0  0  0  0
  191.7020  176.3280  138.0440 C   0  0  0  0  0  3  0  0  0  0  0  0
  193.2560  175.5920  135.6130 C   0  0  0  0  0  2  0  0  0  0  0  0
  192.9710  176.3560  138.4750 C   0  0  0  0  0  3  0  0  0  0  0  0
  194.1050  175.5490  137.9600 C   0  0  0  0  0  0  0  0  0  0  0  0
  191.8660  175.1210  135.8880 C   0  0  0  0  0  3  0  0  0  0  0  0
  195.1390  175.1740  138.8190 O   0  0  0  0  0  0  0  0  0  0  0  0
  195.6810  173.8600  138.8430 C   0  0  0  0  0  1  0  0  0  0  0  0
  185.4460  179.0220  146.4150 N   0  0  0  0  0  2  0  0  0  0  0  0
  187.0410  178.2620  147.9080 O   0  0  0  0  0  0  0  0  0  0  0  0
  186.6730  178.3330  146.7030 C   0  0  0  0  0  0  0  0  0  0  0  0
  184.9400  179.3260  145.0910 C   0  0  0  0  0  2  0  0  0  0  0  0
  183.4750  178.9400  145.0180 C   0  0  0  0  0  2  0  0  0  0  0  0
  183.0570  178.6070  143.5950 C   0  0  1  0  0  3  0  0  0  0  0  0
  181.9720  179.4090  143.2450 O   0  0  0  0  0  1  0  0  0  0  0  0
  184.2150  178.8510  142.6330 C   0  0  0  0  0  2  0  0  0  0  0  0
  184.0630  178.0770  141.3320 C   0  0  0  0  0  2  0  0  0  0  0  0
  182.5720  178.2330  139.3160 C   0  0  0  0  0  0  0  0  0  0  0  0
  183.3300  178.8600  140.3500 N   0  0  0  0  0  2  0  0  0  0  0  0
  182.1060  178.9340  138.3820 O   0  0  0  0  0  0  0  0  0  0  0  0
  182.3390  176.8190  139.3500 N   0  0  0  0  0  2  0  0  0  0  0  0
  181.6020  176.0670  138.3370 C   0  0  1  0  0  3  0  0  0  0  0  0
  182.4470  174.9380  137.7610 C   0  0  0  0  0  2  0  0  0  0  0  0
  183.7670  175.0670  138.1920 O   0  0  0  0  0  1  0  0  0  0  0  0
  180.2930  175.5350  138.9070 C   0  0  0  0  0  2  0  0  0  0  0  0
  180.4940  175.0910  140.2160 O   0  0  0  0  0  0  0  0  0  0  0  0
  179.4040  174.2650  140.4840 C   0  0  0  0  0  1  0  0  0  0  0  0
  1  4  1  0  0  0  0
  2  6  1  0  0  0  0
  2  5  2  0  0  0  0
  3  4  2  0  0  0  0
  3 32  1  0  0  0  0
  5  3  1  0  0  0  0
  6  1  2  0  0  0  0
  7  6  1  1  0  0  0
  8 10  2  0  0  0  0
  8  7  1  0  0  0  0
  9 11  1  1  0  0  0
  9  8  1  0  0  0  0
  9  7  1  0  0  0  0
 12 11  1  0  0  0  0
 13 12  1  0  0  0  0
 14 15  2  0  0  0  0
 15 13  1  0  0  0  0
 16 15  1  0  0  0  0
 17 18  1  0  0  0  0
 17 16  1  0  0  0  0
 18 20  1  0  0  0  0
 20 19  2  0  0  0  0
 21 26  2  0  0  0  0
 22 20  1  0  0  0  0
 22 23  1  0  0  0  0
 23 25  2  0  0  0  0
 24 27  1  0  0  0  0
 24 21  1  0  0  0  0
 26 25  1  0  0  0  0
 26 28  1  0  0  0  0
 27 22  2  0  0  0  0
 28 29  1  0  0  0  0
 30 32  1  0  0  0  0
 32 31  2  0  0  0  0
 33 30  1  0  0  0  0
 34 33  1  0  0  0  0
 35 36  1  6  0  0  0
 35 34  1  0  0  0  0
 37 35  1  0  0  0  0
 38 37  1  0  0  0  0
 39 42  1  0  0  0  0
 39 40  1  0  0  0  0
 40 38  1  0  0  0  0
 41 39  2  0  0  0  0
 43 44  1  1  0  0  0
 43 46  1  0  0  0  0
 43 42  1  0  0  0  0
 44 45  1  0  0  0  0
 46 47  1  0  0  0  0
 47 48  1  0  0  0  0
M  END
>  <MODEL>
2

>  <REMARK>
 VINA RESULT:      -7.4      2.397      4.977
  Name = 
  21 active torsions:
  status: ('A' for Active; 'I' for Inactive)
    1  A    between atoms: C_3  and  O_22
    2  A    between atoms: C_3  and  C_37
    3  A    between atoms: C_4  and  C_19
    4  A    between atoms: C_4  and  C_31
    5  A    between atoms: C_5  and  C_48
    6  A    between atoms: C_7  and  C_37
    7  A    between atoms: O_8  and  C_31
    8  A    between atoms: O_8  and  C_39
    9  A    between atoms: C_11  and  C_21
   10  A    between atoms: C_11  and  C_34
   11  A    between atoms: N_12  and  C_18
   12  A    between atoms: N_14  and  C_45
   13  A    between atoms: N_15  and  C_29
   14  A    between atoms: O_16  and  C_46
   15  A    between atoms: C_17  and  C_43
   16  A    between atoms: C_18  and  C_21
   17  A    between atoms: C_24  and  C_29
   18  A    between atoms: C_24  and  C_39
   19  A    between atoms: C_25  and  C_41
   20  A    between atoms: C_34  and  C_45
   21  A    between atoms: C_37  and  N_44
                            x       y       z     vdW  Elec       q    Type
                         _______ _______ _______ _____ _____    ______ ____

>  <TORSDO>
F 21

$$$$
=
 OpenBabel11042410193D

 48 50  0  0  1  0  0  0  0  0999 V2000
  187.3870  177.0590  144.8600 C   0  0  0  0  0  3  0  0  0  0  0  0
  186.2840  178.4880  146.4680 C   0  0  0  0  0  3  0  0  0  0  0  0
  185.6840  178.6250  144.1110 C   0  0  0  0  0  0  0  0  0  0  0  0
  186.6200  177.6170  143.8350 C   0  0  0  0  0  3  0  0  0  0  0  0
  185.5160  179.0460  145.4400 C   0  0  0  0  0  3  0  0  0  0  0  0
  187.2420  177.5050  146.1790 C   0  0  0  0  0  0  0  0  0  0  0  0
  188.0180  176.8180  147.2770 C   0  0  2  0  0  3  0  0  0  0  0  0
  188.9000  177.7890  148.0800 C   0  0  0  0  0  0  0  0  0  0  0  0
  189.4540  176.7470  147.1070 C   0  0  2  0  0  3  0  0  0  0  0  0
  189.0460  178.7070  148.8700 O   0  0  0  0  0  0  0  0  0  0  0  0
  190.0710  177.4820  145.9200 C   0  0  0  0  0  2  0  0  0  0  0  0
  191.4760  176.9650  145.6700 C   0  0  0  0  0  2  0  0  0  0  0  0
  191.5030  176.1310  144.5180 O   0  0  0  0  0  0  0  0  0  0  0  0
  192.1390  177.4110  142.6980 O   0  0  0  0  0  0  0  0  0  0  0  0
  191.3080  176.6210  143.2240 C   0  0  0  0  0  0  0  0  0  0  0  0
  190.0790  176.2370  142.4810 C   0  0  0  0  0  2  0  0  0  0  0  0
  190.2410  176.5960  141.0160 C   0  0  0  0  0  2  0  0  0  0  0  0
  189.2030  177.5310  140.6010 N   0  0  0  0  0  2  0  0  0  0  0  0
  188.0260  178.7140  138.9930 O   0  0  0  0  0  0  0  0  0  0  0  0
  188.7820  177.7380  139.2460 C   0  0  0  0  0  0  0  0  0  0  0  0
  189.7200  174.2080  136.6480 C   0  0  0  0  0  3  0  0  0  0  0  0
  189.2230  176.8610  138.1410 C   0  0  0  0  0  0  0  0  0  0  0  0
  190.6080  176.9820  137.6300 C   0  0  0  0  0  3  0  0  0  0  0  0
  188.5880  175.1540  136.4300 C   0  0  0  0  0  2  0  0  0  0  0  0
  191.3590  176.0090  137.0980 C   0  0  0  0  0  3  0  0  0  0  0  0
  190.9720  174.5890  136.9060 C   0  0  0  0  0  0  0  0  0  0  0  0
  188.3330  176.0030  137.6300 C   0  0  0  0  0  3  0  0  0  0  0  0
  191.9440  173.5880  136.9670 O   0  0  0  0  0  0  0  0  0  0  0  0
  192.2130  172.7110  135.8820 C   0  0  0  0  0  1  0  0  0  0  0  0
  183.4010  179.1960  143.0780 N   0  0  0  0  0  2  0  0  0  0  0  0
  185.3980  179.7560  142.0550 O   0  0  0  0  0  0  0  0  0  0  0  0
  184.8360  179.2160  143.0480 C   0  0  0  0  0  0  0  0  0  0  0  0
  182.5870  178.5020  144.0570 C   0  0  0  0  0  2  0  0  0  0  0  0
  181.1940  179.1020  144.0610 C   0  0  0  0  0  2  0  0  0  0  0  0
  180.4650  178.8250  142.7550 C   0  0  1  0  0  3  0  0  0  0  0  0
  179.6170  177.7340  142.9360 O   0  0  0  0  0  1  0  0  0  0  0  0
  179.6580  180.0470  142.3310 C   0  0  0  0  0  2  0  0  0  0  0  0
  179.1410  179.9350  140.9050 C   0  0  0  0  0  2  0  0  0  0  0  0
  180.8990  180.7420  139.3010 C   0  0  0  0  0  0  0  0  0  0  0  0
  179.7170  180.9740  140.0650 N   0  0  0  0  0  2  0  0  0  0  0  0
  181.4680  181.7110  138.7370 O   0  0  0  0  0  0  0  0  0  0  0  0
  181.4250  179.4150  139.1740 N   0  0  0  0  0  2  0  0  0  0  0  0
  182.6380  179.0620  138.4410 C   0  0  1  0  0  3  0  0  0  0  0  0
  183.8800  179.2420  139.3050 C   0  0  0  0  0  2  0  0  0  0  0  0
  184.9910  179.4710  138.4940 O   0  0  0  0  0  1  0  0  0  0  0  0
  182.5480  177.6390  137.9030 C   0  0  0  0  0  2  0  0  0  0  0  0
  182.3800  176.7430  138.9610 O   0  0  0  0  0  0  0  0  0  0  0  0
  181.5060  175.7730  138.4730 C   0  0  0  0  0  1  0  0  0  0  0  0
  1  6  1  0  0  0  0
  3  5  2  0  0  0  0
  4  3  1  0  0  0  0
  4  1  2  0  0  0  0
  5  2  1  0  0  0  0
  6  2  2  0  0  0  0
  7  6  1  6  0  0  0
  7  8  1  0  0  0  0
  8 10  2  0  0  0  0
  9 11  1  6  0  0  0
  9  7  1  0  0  0  0
  9  8  1  0  0  0  0
 12 11  1  0  0  0  0
 13 12  1  0  0  0  0
 14 15  2  0  0  0  0
 15 13  1  0  0  0  0
 16 15  1  0  0  0  0
 17 16  1  0  0  0  0
 18 17  1  0  0  0  0
 19 20  2  0  0  0  0
 20 18  1  0  0  0  0
 21 26  2  0  0  0  0
 22 20  1  0  0  0  0
 23 22  1  0  0  0  0
 24 21  1  0  0  0  0
 24 27  1  0  0  0  0
 25 23  2  0  0  0  0
 26 28  1  0  0  0  0
 26 25  1  0  0  0  0
 27 22  2  0  0  0  0
 29 28  1  0  0  0  0
 30 33  1  0  0  0  0
 31 32  2  0  0  0  0
 32 30  1  0  0  0  0
 32  3  1  0  0  0  0
 33 34  1  0  0  0  0
 35 36  1  1  0  0  0
 35 34  1  0  0  0  0
 37 35  1  0  0  0  0
 38 37  1  0  0  0  0
 39 40  1  0  0  0  0
 40 38  1  0  0  0  0
 41 39  2  0  0  0  0
 42 39  1  0  0  0  0
 43 46  1  1  0  0  0
 43 42  1  0  0  0  0
 43 44  1  0  0  0  0
 45 44  1  0  0  0  0
 46 47  1  0  0  0  0
 48 47  1  0  0  0  0
M  END
>  <MODEL>
3

>  <REMARK>
 VINA RESULT:      -7.3      1.379      2.178
  Name = 
  21 active torsions:
  status: ('A' for Active; 'I' for Inactive)
    1  A    between atoms: C_3  and  O_22
    2  A    between atoms: C_3  and  C_37
    3  A    between atoms: C_4  and  C_19
    4  A    between atoms: C_4  and  C_31
    5  A    between atoms: C_5  and  C_48
    6  A    between atoms: C_7  and  C_37
    7  A    between atoms: O_8  and  C_31
    8  A    between atoms: O_8  and  C_39
    9  A    between atoms: C_11  and  C_21
   10  A    between atoms: C_11  and  C_34
   11  A    between atoms: N_12  and  C_18
   12  A    between atoms: N_14  and  C_45
   13  A    between atoms: N_15  and  C_29
   14  A    between atoms: O_16  and  C_46
   15  A    between atoms: C_17  and  C_43
   16  A    between atoms: C_18  and  C_21
   17  A    between atoms: C_24  and  C_29
   18  A    between atoms: C_24  and  C_39
   19  A    between atoms: C_25  and  C_41
   20  A    between atoms: C_34  and  C_45
   21  A    between atoms: C_37  and  N_44
                            x       y       z     vdW  Elec       q    Type
                         _______ _______ _______ _____ _____    ______ ____

>  <TORSDO>
F 21

$$$$
=
 OpenBabel11042410193D

 48 50  0  0  1  0  0  0  0  0999 V2000
  187.4620  177.0890  144.5560 C   0  0  0  0  0  3  0  0  0  0  0  0
  186.2680  178.4220  146.1820 C   0  0  0  0  0  3  0  0  0  0  0  0
  185.6870  178.5800  143.8220 C   0  0  0  0  0  0  0  0  0  0  0  0
  186.6770  177.6290  143.5350 C   0  0  0  0  0  3  0  0  0  0  0  0
  185.4830  178.9610  145.1580 C   0  0  0  0  0  3  0  0  0  0  0  0
  187.2800  177.4970  145.8830 C   0  0  0  0  0  0  0  0  0  0  0  0
  188.0790  176.8280  146.9740 C   0  0  2  0  0  3  0  0  0  0  0  0
  188.8850  177.8270  147.8220 C   0  0  0  0  0  0  0  0  0  0  0  0
  189.5190  176.8520  146.8300 C   0  0  2  0  0  3  0  0  0  0  0  0
  188.9590  178.7280  148.6410 O   0  0  0  0  0  0  0  0  0  0  0  0
  190.1090  177.6600  145.6760 C   0  0  0  0  0  2  0  0  0  0  0  0
  191.5320  177.2070  145.4060 C   0  0  0  0  0  2  0  0  0  0  0  0
  191.5460  176.1400  144.4650 O   0  0  0  0  0  0  0  0  0  0  0  0
  190.1180  175.2750  142.8620 O   0  0  0  0  0  0  0  0  0  0  0  0
  190.8830  176.2060  143.2360 C   0  0  0  0  0  0  0  0  0  0  0  0
  191.1240  177.3700  142.3420 C   0  0  0  0  0  2  0  0  0  0  0  0
  190.6530  177.0360  140.9400 C   0  0  0  0  0  2  0  0  0  0  0  0
  189.4340  177.7690  140.6230 N   0  0  0  0  0  2  0  0  0  0  0  0
  187.8730  178.6140  139.1320 O   0  0  0  0  0  0  0  0  0  0  0  0
  188.8000  177.7850  139.3360 C   0  0  0  0  0  0  0  0  0  0  0  0
  189.8180  174.1930  136.8570 C   0  0  0  0  0  3  0  0  0  0  0  0
  189.2140  176.8820  138.2420 C   0  0  0  0  0  0  0  0  0  0  0  0
  190.5230  177.0960  137.5840 C   0  0  0  0  0  3  0  0  0  0  0  0
  188.5830  175.0150  136.7050 C   0  0  0  0  0  2  0  0  0  0  0  0
  191.3090  176.1620  137.0320 C   0  0  0  0  0  3  0  0  0  0  0  0
  191.0460  174.7030  136.9610 C   0  0  0  0  0  0  0  0  0  0  0  0
  188.3660  175.9150  137.8760 C   0  0  0  0  0  3  0  0  0  0  0  0
  192.1120  173.8010  136.9760 O   0  0  0  0  0  0  0  0  0  0  0  0
  193.4070  174.1490  137.4470 C   0  0  0  0  0  1  0  0  0  0  0  0
  183.3880  179.2050  142.8570 N   0  0  0  0  0  2  0  0  0  0  0  0
  185.3600  179.6000  141.7140 O   0  0  0  0  0  0  0  0  0  0  0  0
  184.8200  179.1500  142.7620 C   0  0  0  0  0  0  0  0  0  0  0  0
  182.5880  178.6130  143.9110 C   0  0  0  0  0  2  0  0  0  0  0  0
  181.1660  179.1310  143.8060 C   0  0  0  0  0  2  0  0  0  0  0  0
  180.3890  178.4060  142.7180 C   0  0  1  0  0  3  0  0  0  0  0  0
  179.1710  177.9770  143.2450 O   0  0  0  0  0  1  0  0  0  0  0  0
  180.1440  179.3360  141.5350 C   0  0  0  0  0  2  0  0  0  0  0  0
  180.0240  178.5820  140.2190 C   0  0  0  0  0  2  0  0  0  0  0  0
  180.8510  176.3500  139.4170 C   0  0  0  0  0  0  0  0  0  0  0  0
  180.2380  177.1580  140.4200 N   0  0  0  0  0  2  0  0  0  0  0  0
  180.8530  175.0990  139.5480 O   0  0  0  0  0  0  0  0  0  0  0  0
  181.4680  176.9620  138.2760 N   0  0  0  0  0  2  0  0  0  0  0  0
  182.1020  176.2370  137.1780 C   0  0  1  0  0  3  0  0  0  0  0  0
  181.1480  176.0660  136.0030 C   0  0  0  0  0  2  0  0  0  0  0  0
  181.8660  176.0600  134.8080 O   0  0  0  0  0  1  0  0  0  0  0  0
  183.3850  176.9350  136.7420 C   0  0  0  0  0  2  0  0  0  0  0  0
  184.4580  176.4730  137.5090 O   0  0  0  0  0  0  0  0  0  0  0  0
  184.7340  175.2020  137.0080 C   0  0  0  0  0  1  0  0  0  0  0  0
  1  6  1  0  0  0  0
  3  5  2  0  0  0  0
  4  3  1  0  0  0  0
  4  1  2  0  0  0  0
  5  2  1  0  0  0  0
  6  2  2  0  0  0  0
  7  6  1  6  0  0  0
  7  8  1  0  0  0  0
  8 10  2  0  0  0  0
  9 11  1  6  0  0  0
  9  7  1  0  0  0  0
  9  8  1  0  0  0  0
 12 11  1  0  0  0  0
 13 12  1  0  0  0  0
 14 15  2  0  0  0  0
 15 13  1  0  0  0  0
 16 15  1  0  0  0  0
 17 16  1  0  0  0  0
 18 17  1  0  0  0  0
 19 20  2  0  0  0  0
 20 18  1  0  0  0  0
 21 26  2  0  0  0  0
 22 20  1  0  0  0  0
 23 22  1  0  0  0  0
 24 21  1  0  0  0  0
 24 27  1  0  0  0  0
 25 23  2  0  0  0  0
 26 28  1  0  0  0  0
 26 25  1  0  0  0  0
 27 22  2  0  0  0  0
 28 29  1  0  0  0  0
 30 33  1  0  0  0  0
 31 32  2  0  0  0  0
 32 30  1  0  0  0  0
 32  3  1  0  0  0  0
 34 33  1  0  0  0  0
 35 36  1  1  0  0  0
 35 34  1  0  0  0  0
 37 35  1  0  0  0  0
 38 40  1  0  0  0  0
 38 37  1  0  0  0  0
 39 41  2  0  0  0  0
 39 40  1  0  0  0  0
 42 39  1  0  0  0  0
 43 44  1  6  0  0  0
 43 42  1  0  0  0  0
 45 44  1  0  0  0  0
 46 43  1  0  0  0  0
 46 47  1  0  0  0  0
 48 47  1  0  0  0  0
M  END
>  <MODEL>
4

>  <REMARK>
 VINA RESULT:      -7.1      1.697      2.909
  Name = 
  21 active torsions:
  status: ('A' for Active; 'I' for Inactive)
    1  A    between atoms: C_3  and  O_22
    2  A    between atoms: C_3  and  C_37
    3  A    between atoms: C_4  and  C_19
    4  A    between atoms: C_4  and  C_31
    5  A    between atoms: C_5  and  C_48
    6  A    between atoms: C_7  and  C_37
    7  A    between atoms: O_8  and  C_31
    8  A    between atoms: O_8  and  C_39
    9  A    between atoms: C_11  and  C_21
   10  A    between atoms: C_11  and  C_34
   11  A    between atoms: N_12  and  C_18
   12  A    between atoms: N_14  and  C_45
   13  A    between atoms: N_15  and  C_29
   14  A    between atoms: O_16  and  C_46
   15  A    between atoms: C_17  and  C_43
   16  A    between atoms: C_18  and  C_21
   17  A    between atoms: C_24  and  C_29
   18  A    between atoms: C_24  and  C_39
   19  A    between atoms: C_25  and  C_41
   20  A    between atoms: C_34  and  C_45
   21  A    between atoms: C_37  and  N_44
                            x       y       z     vdW  Elec       q    Type
                         _______ _______ _______ _____ _____    ______ ____

>  <TORSDO>
F 21

$$$$
=
 OpenBabel11042410193D

 48 50  0  0  1  0  0  0  0  0999 V2000
  190.0570  177.0800  144.6650 C   0  0  0  0  0  3  0  0  0  0  0  0
  187.9290  176.5250  143.6600 C   0  0  0  0  0  3  0  0  0  0  0  0
  187.9960  177.6040  145.8430 C   0  0  0  0  0  0  0  0  0  0  0  0
  189.3960  177.6170  145.7720 C   0  0  0  0  0  3  0  0  0  0  0  0
  187.2690  177.0640  144.7700 C   0  0  0  0  0  3  0  0  0  0  0  0
  189.3310  176.5100  143.6120 C   0  0  0  0  0  0  0  0  0  0  0  0
  190.0690  176.0230  142.3890 C   0  0  2  0  0  3  0  0  0  0  0  0
  191.0140  177.0850  141.8000 C   0  0  0  0  0  0  0  0  0  0  0  0
  189.7140  176.6400  141.1290 C   0  0  2  0  0  3  0  0  0  0  0  0
  192.0190  177.7740  141.8460 O   0  0  0  0  0  0  0  0  0  0  0  0
  188.7360  177.8130  141.1580 C   0  0  0  0  0  2  0  0  0  0  0  0
  188.7020  178.4880  139.7990 C   0  0  0  0  0  2  0  0  0  0  0  0
  187.7110  177.8910  138.9710 O   0  0  0  0  0  0  0  0  0  0  0  0
  187.8430  179.3260  137.1600 O   0  0  0  0  0  0  0  0  0  0  0  0
  187.5930  178.1730  137.6070 C   0  0  0  0  0  0  0  0  0  0  0  0
  187.1230  177.1070  136.6830 C   0  0  0  0  0  2  0  0  0  0  0  0
  187.3910  175.7490  137.3020 C   0  0  0  0  0  2  0  0  0  0  0  0
  188.3840  175.0190  136.5240 N   0  0  0  0  0  2  0  0  0  0  0  0
  189.2820  173.0700  135.6470 O   0  0  0  0  0  0  0  0  0  0  0  0
  188.2720  173.6420  136.1390 C   0  0  0  0  0  0  0  0  0  0  0  0
  184.1870  171.8650  135.6530 C   0  0  0  0  0  3  0  0  0  0  0  0
  187.0240  172.8710  136.3220 C   0  0  0  0  0  0  0  0  0  0  0  0
  186.2860  172.9830  137.6000 C   0  0  0  0  0  3  0  0  0  0  0  0
  185.4680  171.1440  135.4070 C   0  0  0  0  0  2  0  0  0  0  0  0
  184.9630  172.8660  137.7800 C   0  0  0  0  0  3  0  0  0  0  0  0
  183.9420  172.6040  136.7360 C   0  0  0  0  0  0  0  0  0  0  0  0
  186.6260  172.0800  135.3200 C   0  0  0  0  0  3  0  0  0  0  0  0
  182.6510  173.1190  136.8800 O   0  0  0  0  0  0  0  0  0  0  0  0
  181.9830  173.8190  135.8390 C   0  0  0  0  0  1  0  0  0  0  0  0
  185.8350  178.1890  147.1060 N   0  0  0  0  0  2  0  0  0  0  0  0
  187.9310  178.7350  147.9180 O   0  0  0  0  0  0  0  0  0  0  0  0
  187.2670  178.1910  146.9930 C   0  0  0  0  0  0  0  0  0  0  0  0
  184.9080  177.7430  146.0850 C   0  0  0  0  0  2  0  0  0  0  0  0
  184.1450  178.9400  145.5500 C   0  0  0  0  0  2  0  0  0  0  0  0
  183.8830  178.8100  144.0580 C   0  0  1  0  0  3  0  0  0  0  0  0
  182.5870  179.2490  143.7890 O   0  0  0  0  0  1  0  0  0  0  0  0
  184.8870  179.6440  143.2700 C   0  0  0  0  0  2  0  0  0  0  0  0
  185.5560  178.8500  142.1580 C   0  0  0  0  0  2  0  0  0  0  0  0
  184.4700  179.0430  139.9000 C   0  0  0  0  0  0  0  0  0  0  0  0
  185.3940  179.5200  140.8770 N   0  0  0  0  0  2  0  0  0  0  0  0
  184.4900  179.5330  138.7420 O   0  0  0  0  0  0  0  0  0  0  0  0
  183.5250  178.0200  140.2410 N   0  0  0  0  0  2  0  0  0  0  0  0
  182.5530  177.4380  139.3190 C   0  0  1  0  0  3  0  0  0  0  0  0
  182.5580  175.9160  139.3960 C   0  0  0  0  0  2  0  0  0  0  0  0
  181.3330  175.4160  138.9560 O   0  0  0  0  0  1  0  0  0  0  0  0
  181.1590  177.9930  139.5850 C   0  0  0  0  0  2  0  0  0  0  0  0
  181.1650  178.7430  140.7640 O   0  0  0  0  0  0  0  0  0  0  0  0
  180.4590  179.9040  140.4530 C   0  0  0  0  0  1  0  0  0  0  0  0
  1  4  1  0  0  0  0
  2  5  2  0  0  0  0
  3 32  1  0  0  0  0
  4  3  2  0  0  0  0
  5  3  1  0  0  0  0
  6  2  1  0  0  0  0
  6  1  2  0  0  0  0
  7  6  1  1  0  0  0
  8 10  2  0  0  0  0
  8  7  1  0  0  0  0
  9 11  1  1  0  0  0
  9  8  1  0  0  0  0
  9  7  1  0  0  0  0
 12 11  1  0  0  0  0
 13 12  1  0  0  0  0
 14 15  2  0  0  0  0
 15 13  1  0  0  0  0
 16 17  1  0  0  0  0
 16 15  1  0  0  0  0
 18 17  1  0  0  0  0
 19 20  2  0  0  0  0
 20 22  1  0  0  0  0
 20 18  1  0  0  0  0
 21 26  2  0  0  0  0
 22 23  1  0  0  0  0
 23 25  2  0  0  0  0
 24 21  1  0  0  0  0
 26 28  1  0  0  0  0
 26 25  1  0  0  0  0
 27 24  1  0  0  0  0
 27 22  2  0  0  0  0
 29 28  1  0  0  0  0
 32 30  1  0  0  0  0
 32 31  2  0  0  0  0
 33 30  1  0  0  0  0
 34 33  1  0  0  0  0
 35 36  1  1  0  0  0
 35 34  1  0  0  0  0
 37 35  1  0  0  0  0
 38 37  1  0  0  0  0
 39 42  1  0  0  0  0
 39 40  1  0  0  0  0
 40 38  1  0  0  0  0
 41 39  2  0  0  0  0
 43 44  1  1  0  0  0
 43 46  1  0  0  0  0
 43 42  1  0  0  0  0
 45 44  1  0  0  0  0
 46 47  1  0  0  0  0
 48 47  1  0  0  0  0
M  END
>  <MODEL>
5

>  <REMARK>
 VINA RESULT:      -6.9      2.426      4.912
  Name = 
  21 active torsions:
  status: ('A' for Active; 'I' for Inactive)
    1  A    between atoms: C_3  and  O_22
    2  A    between atoms: C_3  and  C_37
    3  A    between atoms: C_4  and  C_19
    4  A    between atoms: C_4  and  C_31
    5  A    between atoms: C_5  and  C_48
    6  A    between atoms: C_7  and  C_37
    7  A    between atoms: O_8  and  C_31
    8  A    between atoms: O_8  and  C_39
    9  A    between atoms: C_11  and  C_21
   10  A    between atoms: C_11  and  C_34
   11  A    between atoms: N_12  and  C_18
   12  A    between atoms: N_14  and  C_45
   13  A    between atoms: N_15  and  C_29
   14  A    between atoms: O_16  and  C_46
   15  A    between atoms: C_17  and  C_43
   16  A    between atoms: C_18  and  C_21
   17  A    between atoms: C_24  and  C_29
   18  A    between atoms: C_24  and  C_39
   19  A    between atoms: C_25  and  C_41
   20  A    between atoms: C_34  and  C_45
   21  A    between atoms: C_37  and  N_44
                            x       y       z     vdW  Elec       q    Type
                         _______ _______ _______ _____ _____    ______ ____

>  <TORSDO>
F 21

$$$$
=
 OpenBabel11042410193D

 48 50  0  0  1  0  0  0  0  0999 V2000
  185.9900  177.7160  143.8040 C   0  0  0  0  0  3  0  0  0  0  0  0
  184.0300  178.9370  144.5190 C   0  0  0  0  0  3  0  0  0  0  0  0
  184.5810  178.8100  142.1500 C   0  0  0  0  0  0  0  0  0  0  0  0
  185.7010  178.0300  142.4740 C   0  0  0  0  0  3  0  0  0  0  0  0
  183.7420  179.2490  143.1870 C   0  0  0  0  0  3  0  0  0  0  0  0
  185.1710  178.1860  144.8370 C   0  0  0  0  0  0  0  0  0  0  0  0
  185.4570  177.7540  146.2550 C   0  0  2  0  0  3  0  0  0  0  0  0
  186.0880  178.8710  147.1030 C   0  0  0  0  0  0  0  0  0  0  0  0
  186.8510  177.6340  146.6270 C   0  0  2  0  0  3  0  0  0  0  0  0
  186.0320  179.9410  147.6870 O   0  0  0  0  0  0  0  0  0  0  0  0
  187.9020  178.0800  145.6140 C   0  0  0  0  0  2  0  0  0  0  0  0
  189.1470  177.2230  145.7540 C   0  0  0  0  0  2  0  0  0  0  0  0
  190.3180  178.0200  145.6270 O   0  0  0  0  0  0  0  0  0  0  0  0
  191.0740  179.3660  143.9030 O   0  0  0  0  0  0  0  0  0  0  0  0
  190.9740  178.2140  144.4090 C   0  0  0  0  0  0  0  0  0  0  0  0
  191.5180  177.0370  143.6810 C   0  0  0  0  0  2  0  0  0  0  0  0
  191.1120  177.1130  142.2220 C   0  0  0  0  0  2  0  0  0  0  0  0
  192.2540  177.4730  141.3920 N   0  0  0  0  0  2  0  0  0  0  0  0
  193.4780  177.3770  139.4260 O   0  0  0  0  0  0  0  0  0  0  0  0
  192.3640  177.2030  139.9880 C   0  0  0  0  0  0  0  0  0  0  0  0
  189.6360  176.0050  136.6400 C   0  0  0  0  0  3  0  0  0  0  0  0
  191.2240  176.7060  139.1900 C   0  0  0  0  0  0  0  0  0  0  0  0
  189.8730  177.2600  139.4360 C   0  0  0  0  0  3  0  0  0  0  0  0
  190.3970  175.0570  137.5040 C   0  0  0  0  0  2  0  0  0  0  0  0
  188.8830  177.3980  138.5430 C   0  0  0  0  0  3  0  0  0  0  0  0
  188.9220  177.0300  137.1060 C   0  0  0  0  0  0  0  0  0  0  0  0
  191.4630  175.7500  138.2860 C   0  0  0  0  0  3  0  0  0  0  0  0
  188.1670  177.7550  136.1810 O   0  0  0  0  0  0  0  0  0  0  0  0
  187.2270  178.7490  136.5650 C   0  0  0  0  0  1  0  0  0  0  0  0
  182.8920  179.1010  140.2340 N   0  0  0  0  0  2  0  0  0  0  0  0
  185.1620  179.4450  139.9480 O   0  0  0  0  0  0  0  0  0  0  0  0
  184.2340  179.1340  140.7450 C   0  0  0  0  0  0  0  0  0  0  0  0
  181.7250  178.6330  140.9560 C   0  0  0  0  0  2  0  0  0  0  0  0
  181.2400  177.3400  140.3300 C   0  0  0  0  0  2  0  0  0  0  0  0
  179.7430  177.1560  140.5250 C   0  0  1  0  0  3  0  0  0  0  0  0
  179.0930  178.3310  140.1520 O   0  0  0  0  0  1  0  0  0  0  0  0
  179.2390  175.9920  139.6780 C   0  0  0  0  0  2  0  0  0  0  0  0
  180.1450  174.7730  139.7670 C   0  0  0  0  0  2  0  0  0  0  0  0
  181.3320  174.3210  137.5990 C   0  0  0  0  0  0  0  0  0  0  0  0
  180.2310  174.1010  138.4800 N   0  0  0  0  0  2  0  0  0  0  0  0
  181.2830  173.8690  136.4270 O   0  0  0  0  0  0  0  0  0  0  0  0
  182.4850  175.0410  138.0540 N   0  0  0  0  0  2  0  0  0  0  0  0
  183.6560  175.3470  137.2360 C   0  0  1  0  0  3  0  0  0  0  0  0
  184.2730  176.6840  137.6280 C   0  0  0  0  0  2  0  0  0  0  0  0
  183.4400  177.7260  137.2220 O   0  0  0  0  0  1  0  0  0  0  0  0
  184.6840  174.2250  137.3250 C   0  0  0  0  0  2  0  0  0  0  0  0
  185.9700  174.7490  137.1830 O   0  0  0  0  0  0  0  0  0  0  0  0
  186.7980  173.6350  137.0540 C   0  0  0  0  0  1  0  0  0  0  0  0
  1  6  1  0  0  0  0
  2  6  2  0  0  0  0
  3  4  1  0  0  0  0
  3  5  2  0  0  0  0
  4  1  2  0  0  0  0
  5  2  1  0  0  0  0
  7  6  1  6  0  0  0
  7  9  1  0  0  0  0
  7  8  1  0  0  0  0
  8 10  2  0  0  0  0
  9 11  1  6  0  0  0
  9  8  1  0  0  0  0
 11 12  1  0  0  0  0
 13 12  1  0  0  0  0
 14 15  2  0  0  0  0
 15 13  1  0  0  0  0
 16 15  1  0  0  0  0
 17 16  1  0  0  0  0
 18 17  1  0  0  0  0
 19 20  2  0  0  0  0
 20 18  1  0  0  0  0
 21 26  2  0  0  0  0
 21 24  1  0  0  0  0
 22 23  1  0  0  0  0
 22 20  1  0  0  0  0
 24 27  1  0  0  0  0
 25 23  2  0  0  0  0
 26 25  1  0  0  0  0
 27 22  2  0  0  0  0
 28 29  1  0  0  0  0
 28 26  1  0  0  0  0
 30 32  1  0  0  0  0
 30 33  1  0  0  0  0
 31 32  2  0  0  0  0
 32  3  1  0  0  0  0
 34 35  1  0  0  0  0
 34 33  1  0  0  0  0
 35 36  1  6  0  0  0
 37 38  1  0  0  0  0
 37 35  1  0  0  0  0
 39 42  1  0  0  0  0
 39 40  1  0  0  0  0
 40 38  1  0  0  0  0
 41 39  2  0  0  0  0
 43 46  1  1  0  0  0
 43 44  1  0  0  0  0
 43 42  1  0  0  0  0
 45 44  1  0  0  0  0
 47 46  1  0  0  0  0
 48 47  1  0  0  0  0
M  END
>  <MODEL>
6

>  <REMARK>
 VINA RESULT:      -6.6      2.194      3.625
  Name = 
  21 active torsions:
  status: ('A' for Active; 'I' for Inactive)
    1  A    between atoms: C_3  and  O_22
    2  A    between atoms: C_3  and  C_37
    3  A    between atoms: C_4  and  C_19
    4  A    between atoms: C_4  and  C_31
    5  A    between atoms: C_5  and  C_48
    6  A    between atoms: C_7  and  C_37
    7  A    between atoms: O_8  and  C_31
    8  A    between atoms: O_8  and  C_39
    9  A    between atoms: C_11  and  C_21
   10  A    between atoms: C_11  and  C_34
   11  A    between atoms: N_12  and  C_18
   12  A    between atoms: N_14  and  C_45
   13  A    between atoms: N_15  and  C_29
   14  A    between atoms: O_16  and  C_46
   15  A    between atoms: C_17  and  C_43
   16  A    between atoms: C_18  and  C_21
   17  A    between atoms: C_24  and  C_29
   18  A    between atoms: C_24  and  C_39
   19  A    between atoms: C_25  and  C_41
   20  A    between atoms: C_34  and  C_45
   21  A    between atoms: C_37  and  N_44
                            x       y       z     vdW  Elec       q    Type
                         _______ _______ _______ _____ _____    ______ ____

>  <TORSDO>
F 21

$$$$
=
 OpenBabel11042410193D

 48 50  0  0  1  0  0  0  0  0999 V2000
  190.3190  176.8280  145.1770 C   0  0  0  0  0  3  0  0  0  0  0  0
  188.2720  176.7420  143.8950 C   0  0  0  0  0  3  0  0  0  0  0  0
  188.2500  177.6490  146.1550 C   0  0  0  0  0  0  0  0  0  0  0  0
  189.6280  177.4070  146.2440 C   0  0  0  0  0  3  0  0  0  0  0  0
  187.5820  177.3220  144.9640 C   0  0  0  0  0  3  0  0  0  0  0  0
  189.6440  176.4700  144.0050 C   0  0  0  0  0  0  0  0  0  0  0  0
  190.4330  175.9330  142.8360 C   0  0  2  0  0  3  0  0  0  0  0  0
  191.3230  177.0000  142.1760 C   0  0  0  0  0  0  0  0  0  0  0  0
  190.0650  176.4230  141.5250 C   0  0  2  0  0  3  0  0  0  0  0  0
  192.2830  177.7520  142.1790 O   0  0  0  0  0  0  0  0  0  0  0  0
  189.0170  177.5310  141.4440 C   0  0  0  0  0  2  0  0  0  0  0  0
  189.2170  178.3360  140.1730 C   0  0  0  0  0  2  0  0  0  0  0  0
  187.9630  178.6550  139.5820 O   0  0  0  0  0  0  0  0  0  0  0  0
  188.1510  179.0060  137.3020 O   0  0  0  0  0  0  0  0  0  0  0  0
  187.6520  178.3470  138.2550 C   0  0  0  0  0  0  0  0  0  0  0  0
  186.6810  177.2560  137.9730 C   0  0  0  0  0  2  0  0  0  0  0  0
  186.2130  177.3570  136.5340 C   0  0  0  0  0  2  0  0  0  0  0  0
  185.0340  176.5270  136.3200 N   0  0  0  0  0  2  0  0  0  0  0  0
  183.9870  174.5960  135.5820 O   0  0  0  0  0  0  0  0  0  0  0  0
  185.0640  175.1470  135.9340 C   0  0  0  0  0  0  0  0  0  0  0  0
  189.0450  173.3420  136.9260 C   0  0  0  0  0  3  0  0  0  0  0  0
  186.3160  174.3610  135.9120 C   0  0  0  0  0  0  0  0  0  0  0  0
  187.2000  174.4410  134.7270 C   0  0  0  0  0  3  0  0  0  0  0  0
  187.7350  172.6370  137.0340 C   0  0  0  0  0  2  0  0  0  0  0  0
  188.5330  174.3090  134.7050 C   0  0  0  0  0  3  0  0  0  0  0  0
  189.4230  174.0580  135.8660 C   0  0  0  0  0  0  0  0  0  0  0  0
  186.5850  173.5860  136.9680 C   0  0  0  0  0  3  0  0  0  0  0  0
  190.7260  174.5580  135.8660 O   0  0  0  0  0  0  0  0  0  0  0  0
  191.2700  175.2900  136.9550 C   0  0  0  0  0  1  0  0  0  0  0  0
  186.0610  178.3120  147.3290 N   0  0  0  0  0  2  0  0  0  0  0  0
  188.1400  178.8530  148.1870 O   0  0  0  0  0  0  0  0  0  0  0  0
  187.4950  178.2880  147.2610 C   0  0  0  0  0  0  0  0  0  0  0  0
  185.1590  177.8450  146.2950 C   0  0  0  0  0  2  0  0  0  0  0  0
  184.5300  179.0410  145.6060 C   0  0  0  0  0  2  0  0  0  0  0  0
  183.9810  178.6700  144.2380 C   0  0  1  0  0  3  0  0  0  0  0  0
  182.5940  178.8150  144.2550 O   0  0  0  0  0  1  0  0  0  0  0  0
  184.5830  179.5700  143.1650 C   0  0  0  0  0  2  0  0  0  0  0  0
  185.3190  178.7820  142.0920 C   0  0  0  0  0  2  0  0  0  0  0  0
  184.0190  179.0790  139.9620 C   0  0  0  0  0  0  0  0  0  0  0  0
  185.1400  179.3970  140.7860 N   0  0  0  0  0  2  0  0  0  0  0  0
  183.9930  179.4870  138.7730 O   0  0  0  0  0  0  0  0  0  0  0  0
  182.9320  178.3100  140.4920 N   0  0  0  0  0  2  0  0  0  0  0  0
  181.7480  177.9040  139.7370 C   0  0  1  0  0  3  0  0  0  0  0  0
  181.7440  176.4030  139.4770 C   0  0  0  0  0  2  0  0  0  0  0  0
  183.0530  175.9230  139.4620 O   0  0  0  0  0  1  0  0  0  0  0  0
  180.4760  178.3380  140.4550 C   0  0  0  0  0  2  0  0  0  0  0  0
  179.8390  179.3420  139.7220 O   0  0  0  0  0  0  0  0  0  0  0  0
  180.0950  180.5170  140.4280 C   0  0  0  0  0  1  0  0  0  0  0  0
  1  4  1  0  0  0  0
  2  6  1  0  0  0  0
  2  5  2  0  0  0  0
  3  4  2  0  0  0  0
  3 32  1  0  0  0  0
  5  3  1  0  0  0  0
  6  1  2  0  0  0  0
  7  6  1  1  0  0  0
  8 10  2  0  0  0  0
  8  7  1  0  0  0  0
  9 11  1  1  0  0  0
  9  8  1  0  0  0  0
  9  7  1  0  0  0  0
 12 11  1  0  0  0  0
 13 12  1  0  0  0  0
 14 15  2  0  0  0  0
 15 13  1  0  0  0  0
 16 15  1  0  0  0  0
 17 16  1  0  0  0  0
 18 17  1  0  0  0  0
 19 20  2  0  0  0  0
 20 18  1  0  0  0  0
 21 24  1  0  0  0  0
 22 20  1  0  0  0  0
 22 27  2  0  0  0  0
 23 22  1  0  0  0  0
 25 23  2  0  0  0  0
 25 26  1  0  0  0  0
 26 28  1  0  0  0  0
 26 21  2  0  0  0  0
 27 24  1  0  0  0  0
 28 29  1  0  0  0  0
 32 30  1  0  0  0  0
 32 31  2  0  0  0  0
 33 30  1  0  0  0  0
 34 33  1  0  0  0  0
 35 36  1  1  0  0  0
 35 34  1  0  0  0  0
 37 35  1  0  0  0  0
 38 37  1  0  0  0  0
 39 42  1  0  0  0  0
 39 40  1  0  0  0  0
 40 38  1  0  0  0  0
 41 39  2  0  0  0  0
 43 44  1  1  0  0  0
 43 46  1  0  0  0  0
 43 42  1  0  0  0  0
 45 44  1  0  0  0  0
 47 48  1  0  0  0  0
 47 46  1  0  0  0  0
M  END
>  <MODEL>
7

>  <REMARK>
 VINA RESULT:      -6.3      2.278      4.932
  Name = 
  21 active torsions:
  status: ('A' for Active; 'I' for Inactive)
    1  A    between atoms: C_3  and  O_22
    2  A    between atoms: C_3  and  C_37
    3  A    between atoms: C_4  and  C_19
    4  A    between atoms: C_4  and  C_31
    5  A    between atoms: C_5  and  C_48
    6  A    between atoms: C_7  and  C_37
    7  A    between atoms: O_8  and  C_31
    8  A    between atoms: O_8  and  C_39
    9  A    between atoms: C_11  and  C_21
   10  A    between atoms: C_11  and  C_34
   11  A    between atoms: N_12  and  C_18
   12  A    between atoms: N_14  and  C_45
   13  A    between atoms: N_15  and  C_29
   14  A    between atoms: O_16  and  C_46
   15  A    between atoms: C_17  and  C_43
   16  A    between atoms: C_18  and  C_21
   17  A    between atoms: C_24  and  C_29
   18  A    between atoms: C_24  and  C_39
   19  A    between atoms: C_25  and  C_41
   20  A    between atoms: C_34  and  C_45
   21  A    between atoms: C_37  and  N_44
                            x       y       z     vdW  Elec       q    Type
                         _______ _______ _______ _____ _____    ______ ____

>  <TORSDO>
F 21

$$$$
=
 OpenBabel11042410193D

 48 50  0  0  1  0  0  0  0  0999 V2000
  190.0180  176.9580  145.0790 C   0  0  0  0  0  3  0  0  0  0  0  0
  187.8430  176.6490  144.0690 C   0  0  0  0  0  3  0  0  0  0  0  0
  188.0190  177.6260  146.2930 C   0  0  0  0  0  0  0  0  0  0  0  0
  189.4150  177.5090  146.2120 C   0  0  0  0  0  3  0  0  0  0  0  0
  187.2410  177.2020  145.2040 C   0  0  0  0  0  3  0  0  0  0  0  0
  189.2370  176.5030  144.0100 C   0  0  0  0  0  0  0  0  0  0  0  0
  189.9220  175.9980  142.7630 C   0  0  2  0  0  3  0  0  0  0  0  0
  191.0030  176.9620  142.2440 C   0  0  0  0  0  0  0  0  0  0  0  0
  189.6650  176.7310  141.5410 C   0  0  2  0  0  3  0  0  0  0  0  0
  192.0890  177.5110  142.3370 O   0  0  0  0  0  0  0  0  0  0  0  0
  188.8470  178.0170  141.6370 C   0  0  0  0  0  2  0  0  0  0  0  0
  188.7150  178.6460  140.2630 C   0  0  0  0  0  2  0  0  0  0  0  0
  188.2650  177.6860  139.3150 O   0  0  0  0  0  0  0  0  0  0  0  0
  188.7150  178.7780  137.3250 O   0  0  0  0  0  0  0  0  0  0  0  0
  188.6630  177.6980  137.9760 C   0  0  0  0  0  0  0  0  0  0  0  0
  188.9850  176.4120  137.3020 C   0  0  0  0  0  2  0  0  0  0  0  0
  188.4220  176.4260  135.8940 C   0  0  0  0  0  2  0  0  0  0  0  0
  188.0710  175.0770  135.4710 N   0  0  0  0  0  2  0  0  0  0  0  0
  188.6000  172.9830  134.6280 O   0  0  0  0  0  0  0  0  0  0  0  0
  189.0160  174.0380  135.1790 C   0  0  0  0  0  0  0  0  0  0  0  0
  192.9840  174.3240  137.2410 C   0  0  0  0  0  3  0  0  0  0  0  0
  190.4560  174.1740  135.4820 C   0  0  0  0  0  0  0  0  0  0  0  0
  191.1970  175.3450  134.9590 C   0  0  0  0  0  3  0  0  0  0  0  0
  192.5030  173.1400  136.4730 C   0  0  0  0  0  2  0  0  0  0  0  0
  192.2520  175.9480  135.5220 C   0  0  0  0  0  3  0  0  0  0  0  0
  192.9120  175.5810  136.7990 C   0  0  0  0  0  0  0  0  0  0  0  0
  191.0370  173.2110  136.2030 C   0  0  0  0  0  3  0  0  0  0  0  0
  193.5140  176.5680  137.5820 O   0  0  0  0  0  0  0  0  0  0  0  0
  193.1870  176.7720  138.9500 C   0  0  0  0  0  1  0  0  0  0  0  0
  185.9340  178.4360  147.5600 N   0  0  0  0  0  2  0  0  0  0  0  0
  188.0640  178.6040  148.4450 O   0  0  0  0  0  0  0  0  0  0  0  0
  187.3530  178.2330  147.4710 C   0  0  0  0  0  0  0  0  0  0  0  0
  184.9800  178.2070  146.4920 C   0  0  0  0  0  2  0  0  0  0  0  0
  184.9410  179.4260  145.5910 C   0  0  0  0  0  2  0  0  0  0  0  0
  184.3500  179.0930  144.2300 C   0  0  1  0  0  3  0  0  0  0  0  0
  183.1140  179.7260  144.1090 O   0  0  0  0  0  1  0  0  0  0  0  0
  185.2840  179.5600  143.1190 C   0  0  0  0  0  2  0  0  0  0  0  0
  185.2630  178.6320  141.9140 C   0  0  0  0  0  2  0  0  0  0  0  0
  184.0760  179.4970  139.8750 C   0  0  0  0  0  0  0  0  0  0  0  0
  185.2520  179.3970  140.6760 N   0  0  0  0  0  2  0  0  0  0  0  0
  184.1530  180.0070  138.7280 O   0  0  0  0  0  0  0  0  0  0  0  0
  182.8190  179.0260  140.3790 N   0  0  0  0  0  2  0  0  0  0  0  0
  181.5590  179.0540  139.6410 C   0  0  1  0  0  3  0  0  0  0  0  0
  181.1090  177.6490  139.2590 C   0  0  0  0  0  2  0  0  0  0  0  0
  181.3670  177.4210  137.9080 O   0  0  0  0  0  1  0  0  0  0  0  0
  180.4800  179.7730  140.4420 C   0  0  0  0  0  2  0  0  0  0  0  0
  179.6900  178.8400  141.1160 O   0  0  0  0  0  0  0  0  0  0  0  0
  179.5730  179.3390  142.4120 C   0  0  0  0  0  1  0  0  0  0  0  0
  1  4  1  0  0  0  0
  2  5  2  0  0  0  0
  3 32  1  0  0  0  0
  4  3  2  0  0  0  0
  5  3  1  0  0  0  0
  6  2  1  0  0  0  0
  6  1  2  0  0  0  0
  7  6  1  1  0  0  0
  8 10  2  0  0  0  0
  8  7  1  0  0  0  0
  9 11  1  1  0  0  0
  9  8  1  0  0  0  0
  9  7  1  0  0  0  0
 12 11  1  0  0  0  0
 13 12  1  0  0  0  0
 14 15  2  0  0  0  0
 15 13  1  0  0  0  0
 16 15  1  0  0  0  0
 17 16  1  0  0  0  0
 18 17  1  0  0  0  0
 19 20  2  0  0  0  0
 20 18  1  0  0  0  0
 20 22  1  0  0  0  0
 22 27  2  0  0  0  0
 23 22  1  0  0  0  0
 23 25  2  0  0  0  0
 24 21  1  0  0  0  0
 25 26  1  0  0  0  0
 26 21  2  0  0  0  0
 26 28  1  0  0  0  0
 27 24  1  0  0  0  0
 28 29  1  0  0  0  0
 32 30  1  0  0  0  0
 32 31  2  0  0  0  0
 33 30  1  0  0  0  0
 34 33  1  0  0  0  0
 35 36  1  6  0  0  0
 35 34  1  0  0  0  0
 37 35  1  0  0  0  0
 38 37  1  0  0  0  0
 39 42  1  0  0  0  0
 39 40  1  0  0  0  0
 40 38  1  0  0  0  0
 41 39  2  0  0  0  0
 43 44  1  1  0  0  0
 43 42  1  0  0  0  0
 43 46  1  0  0  0  0
 45 44  1  0  0  0  0
 46 47  1  0  0  0  0
 47 48  1  0  0  0  0
M  END
>  <MODEL>
8

>  <REMARK>
 VINA RESULT:      -6.2      2.269      5.043
  Name = 
  21 active torsions:
  status: ('A' for Active; 'I' for Inactive)
    1  A    between atoms: C_3  and  O_22
    2  A    between atoms: C_3  and  C_37
    3  A    between atoms: C_4  and  C_19
    4  A    between atoms: C_4  and  C_31
    5  A    between atoms: C_5  and  C_48
    6  A    between atoms: C_7  and  C_37
    7  A    between atoms: O_8  and  C_31
    8  A    between atoms: O_8  and  C_39
    9  A    between atoms: C_11  and  C_21
   10  A    between atoms: C_11  and  C_34
   11  A    between atoms: N_12  and  C_18
   12  A    between atoms: N_14  and  C_45
   13  A    between atoms: N_15  and  C_29
   14  A    between atoms: O_16  and  C_46
   15  A    between atoms: C_17  and  C_43
   16  A    between atoms: C_18  and  C_21
   17  A    between atoms: C_24  and  C_29
   18  A    between atoms: C_24  and  C_39
   19  A    between atoms: C_25  and  C_41
   20  A    between atoms: C_34  and  C_45
   21  A    between atoms: C_37  and  N_44
                            x       y       z     vdW  Elec       q    Type
                         _______ _______ _______ _____ _____    ______ ____

>  <TORSDO>
F 21

$$$$
=
 OpenBabel11042410193D

 48 50  0  0  1  0  0  0  0  0999 V2000
  183.9550  178.0750  140.3680 C   0  0  0  0  0  3  0  0  0  0  0  0
  182.0890  178.6280  141.8030 C   0  0  0  0  0  3  0  0  0  0  0  0
  181.7720  178.5150  139.3910 C   0  0  0  0  0  0  0  0  0  0  0  0
  183.1250  178.1750  139.2490 C   0  0  0  0  0  3  0  0  0  0  0  0
  181.2600  178.7280  140.6810 C   0  0  0  0  0  3  0  0  0  0  0  0
  183.4490  178.3220  141.6500 C   0  0  0  0  0  0  0  0  0  0  0  0
  184.3470  178.1160  142.8460 C   0  0  2  0  0  3  0  0  0  0  0  0
  184.9030  179.4350  143.4090 C   0  0  0  0  0  0  0  0  0  0  0  0
  185.7520  178.4070  142.6600 C   0  0  2  0  0  3  0  0  0  0  0  0
  184.7660  180.5000  143.9880 O   0  0  0  0  0  0  0  0  0  0  0  0
  186.1840  179.0220  141.3310 C   0  0  0  0  0  2  0  0  0  0  0  0
  187.5070  178.4200  140.8910 C   0  0  0  0  0  2  0  0  0  0  0  0
  188.3680  178.2390  142.0090 O   0  0  0  0  0  0  0  0  0  0  0  0
  188.7650  176.0050  142.4640 O   0  0  0  0  0  0  0  0  0  0  0  0
  189.2180  177.1370  142.1390 C   0  0  0  0  0  0  0  0  0  0  0  0
  190.6790  177.3200  141.9360 C   0  0  0  0  0  2  0  0  0  0  0  0
  191.3140  177.7910  143.2300 C   0  0  0  0  0  2  0  0  0  0  0  0
  191.7890  176.6550  144.0100 N   0  0  0  0  0  2  0  0  0  0  0  0
  192.0570  175.4950  145.9980 O   0  0  0  0  0  0  0  0  0  0  0  0
  191.4240  176.3870  145.3700 C   0  0  0  0  0  0  0  0  0  0  0  0
  187.9530  177.5560  147.9520 C   0  0  0  0  0  3  0  0  0  0  0  0
  190.3540  177.1340  146.0620 C   0  0  0  0  0  0  0  0  0  0  0  0
  189.3940  177.9300  145.2630 C   0  0  0  0  0  3  0  0  0  0  0  0
  189.3790  177.8800  148.2390 C   0  0  0  0  0  2  0  0  0  0  0  0
  188.1150  178.1900  145.5640 C   0  0  0  0  0  3  0  0  0  0  0  0
  187.3720  177.7340  146.7640 C   0  0  0  0  0  0  0  0  0  0  0  0
  190.3130  177.0750  147.3970 C   0  0  0  0  0  3  0  0  0  0  0  0
  185.9980  177.4970  146.6840 O   0  0  0  0  0  0  0  0  0  0  0  0
  185.0290  178.5260  146.8360 C   0  0  0  0  0  1  0  0  0  0  0  0
  180.1660  177.4690  137.6770 N   0  0  0  0  0  2  0  0  0  0  0  0
  180.6940  179.7210  137.6670 O   0  0  0  0  0  0  0  0  0  0  0  0
  180.8610  178.6010  138.2230 C   0  0  0  0  0  0  0  0  0  0  0  0
  180.3430  176.0900  138.0880 C   0  0  0  0  0  2  0  0  0  0  0  0
  180.3030  175.1970  136.8630 C   0  0  0  0  0  2  0  0  0  0  0  0
  181.7030  174.8630  136.3720 C   0  0  1  0  0  3  0  0  0  0  0  0
  182.0660  175.7830  135.3900 O   0  0  0  0  0  1  0  0  0  0  0  0
  182.6950  174.9180  137.5280 C   0  0  0  0  0  2  0  0  0  0  0  0
  183.9680  175.6690  137.1660 C   0  0  0  0  0  2  0  0  0  0  0  0
  186.4180  175.2080  136.8510 C   0  0  0  0  0  0  0  0  0  0  0  0
  185.0740  174.7450  136.9690 N   0  0  0  0  0  2  0  0  0  0  0  0
  187.3180  174.4040  136.5000 O   0  0  0  0  0  0  0  0  0  0  0  0
  186.7360  176.5760  137.1390 N   0  0  0  0  0  2  0  0  0  0  0  0
  188.0670  177.1670  137.0270 C   0  0  1  0  0  3  0  0  0  0  0  0
  187.9920  178.6820  136.8870 C   0  0  0  0  0  2  0  0  0  0  0  0
  189.0450  179.2740  137.5830 O   0  0  0  0  0  1  0  0  0  0  0  0
  188.9340  176.7700  138.2170 C   0  0  0  0  0  2  0  0  0  0  0  0
  190.2730  176.7070  137.8260 O   0  0  0  0  0  0  0  0  0  0  0  0
  190.2810  175.8680  136.7130 C   0  0  0  0  0  1  0  0  0  0  0  0
  1  6  1  0  0  0  0
  3  5  2  0  0  0  0
  4  3  1  0  0  0  0
  4  1  2  0  0  0  0
  5  2  1  0  0  0  0
  6  2  2  0  0  0  0
  7  6  1  6  0  0  0
  7  8  1  0  0  0  0
  8 10  2  0  0  0  0
  9 11  1  6  0  0  0
  9  7  1  0  0  0  0
  9  8  1  0  0  0  0
 12 11  1  0  0  0  0
 12 13  1  0  0  0  0
 13 15  1  0  0  0  0
 15 14  2  0  0  0  0
 16 15  1  0  0  0  0
 16 17  1  0  0  0  0
 17 18  1  0  0  0  0
 18 20  1  0  0  0  0
 20 19  2  0  0  0  0
 20 22  1  0  0  0  0
 21 24  1  0  0  0  0
 22 27  2  0  0  0  0
 23 25  2  0  0  0  0
 23 22  1  0  0  0  0
 25 26  1  0  0  0  0
 26 21  2  0  0  0  0
 27 24  1  0  0  0  0
 28 26  1  0  0  0  0
 28 29  1  0  0  0  0
 30 33  1  0  0  0  0
 30 32  1  0  0  0  0
 31 32  2  0  0  0  0
 32  3  1  0  0  0  0
 34 33  1  0  0  0  0
 35 36  1  6  0  0  0
 35 34  1  0  0  0  0
 35 37  1  0  0  0  0
 38 37  1  0  0  0  0
 39 40  1  0  0  0  0
 39 42  1  0  0  0  0
 40 38  1  0  0  0  0
 41 39  2  0  0  0  0
 43 44  1  1  0  0  0
 43 42  1  0  0  0  0
 43 46  1  0  0  0  0
 44 45  1  0  0  0  0
 47 46  1  0  0  0  0
 48 47  1  0  0  0  0
M  END
>  <MODEL>
9

>  <REMARK>
 VINA RESULT:      -6.2      2.310      7.270
  Name = 
  21 active torsions:
  status: ('A' for Active; 'I' for Inactive)
    1  A    between atoms: C_3  and  O_22
    2  A    between atoms: C_3  and  C_37
    3  A    between atoms: C_4  and  C_19
    4  A    between atoms: C_4  and  C_31
    5  A    between atoms: C_5  and  C_48
    6  A    between atoms: C_7  and  C_37
    7  A    between atoms: O_8  and  C_31
    8  A    between atoms: O_8  and  C_39
    9  A    between atoms: C_11  and  C_21
   10  A    between atoms: C_11  and  C_34
   11  A    between atoms: N_12  and  C_18
   12  A    between atoms: N_14  and  C_45
   13  A    between atoms: N_15  and  C_29
   14  A    between atoms: O_16  and  C_46
   15  A    between atoms: C_17  and  C_43
   16  A    between atoms: C_18  and  C_21
   17  A    between atoms: C_24  and  C_29
   18  A    between atoms: C_24  and  C_39
   19  A    between atoms: C_25  and  C_41
   20  A    between atoms: C_34  and  C_45
   21  A    between atoms: C_37  and  N_44
                            x       y       z     vdW  Elec       q    Type
                         _______ _______ _______ _____ _____    ______ ____

>  <TORSDO>
F 21

$$$$
