=
 OpenBabel11032420153D

 28 31  0  0  1  0  0  0  0  0999 V2000
  182.9620  179.7530  139.4780 C   0  0  0  0  0  2  0  0  0  0  0  0
  180.5580  177.3290  140.6190 C   0  0  0  0  0  3  0  0  0  0  0  0
  181.1790  179.0950  142.8550 C   0  0  0  0  0  2  0  0  0  0  0  0
  181.7210  179.2770  139.9490 O   0  0  0  0  0  0  0  0  0  0  0  0
  182.2740  178.3070  142.1280 C   0  0  1  0  0  3  0  0  0  0  0  0
  183.4650  178.8900  138.3200 C   0  0  0  0  0  2  0  0  0  0  0  0
  179.8540  178.4160  142.6880 C   0  0  0  0  0  0  0  0  0  0  0  0
  178.9330  178.6290  143.5190 O   0  0  0  0  0  0  0  0  0  0  0  0
  181.8850  178.0470  140.6540 C   0  0  1  0  0  0  0  0  0  0  0  0
  183.1010  177.4190  138.5300 C   0  0  2  0  0  3  0  0  0  0  0  0
  182.9220  177.0990  140.0120 C   0  0  0  0  0  2  0  0  0  0  0  0
  179.6130  177.5250  141.5430 C   0  0  0  0  0  3  0  0  0  0  0  0
  183.8590  175.1730  137.7690 O   0  0  0  0  0  1  0  0  0  0  0  0
  185.2300  176.9920  137.5220 O   0  0  0  0  0  0  0  0  0  0  0  0
  184.1270  176.5270  137.9140 C   0  0  0  0  0  0  0  0  0  0  0  0
  183.5190  178.9930  142.2240 O   0  0  0  0  0  0  0  0  0  0  0  0
  189.0770  177.1040  147.3660 N   0  0  0  0  0  1  0  0  0  0  0  0
  185.7240  178.5020  146.6010 C   0  0  0  0  0  3  0  0  0  0  0  0
  186.8110  177.7880  144.5630 C   0  0  0  0  0  0  0  0  0  0  0  0
  187.8910  177.3910  145.2890 N   0  0  0  0  0  0  0  0  0  0  0  0
  186.8450  178.0880  147.3220 C   0  0  0  0  0  3  0  0  0  0  0  0
  186.8060  177.6260  143.1790 C   0  0  0  0  0  3  0  0  0  0  0  0
  187.9300  177.5300  146.6420 C   0  0  0  0  0  0  0  0  0  0  0  0
  183.4720  179.3010  145.1160 O   0  0  0  0  0  1  0  0  0  0  0  0
  184.5760  178.7650  144.4590 C   0  0  0  0  0  0  0  0  0  0  0  0
  185.7000  178.0340  142.4320 C   0  0  0  0  0  3  0  0  0  0  0  0
  184.5850  178.6100  143.0520 C   0  0  0  0  0  0  0  0  0  0  0  0
  185.6930  178.3590  145.2100 C   0  0  0  0  0  0  0  0  0  0  0  0
  1  4  1  0  0  0  0
  2  9  1  0  0  0  0
  2 12  2  0  0  0  0
  4  9  1  0  0  0  0
  5 16  1  6  0  0  0
  5  3  1  0  0  0  0
  6 10  1  0  0  0  0
  6  1  1  0  0  0  0
  7  3  1  0  0  0  0
  7  8  2  0  0  0  0
  9 11  1  6  0  0  0
  9  5  1  0  0  0  0
 10 15  1  1  0  0  0
 10 11  1  0  0  0  0
 12  7  1  0  0  0  0
 13 15  1  0  0  0  0
 14 15  2  0  0  0  0
 16 27  1  0  0  0  0
 18 21  1  0  0  0  0
 19 28  1  0  0  0  0
 19 20  2  0  0  0  0
 20 23  1  0  0  0  0
 22 19  1  0  0  0  0
 23 21  2  0  0  0  0
 23 17  1  0  0  0  0
 25 24  1  0  0  0  0
 25 28  1  0  0  0  0
 26 27  1  0  0  0  0
 26 22  2  0  0  0  0
 27 25  2  0  0  0  0
 28 18  2  0  0  0  0
M  END
>  <MODEL>
1

>  <REMARK>
 VINA RESULT:      -8.3      0.000      0.000
  Name = 
  3 active torsions:
  status: ('A' for Active; 'I' for Inactive)
    1  A    between atoms: O_12  and  C_17
    2  A    between atoms: O_12  and  C_23
    3  A    between atoms: C_18  and  C_25
                            x       y       z     vdW  Elec       q    Type
                         _______ _______ _______ _____ _____    ______ ____

>  <TORSDO>
F 3

$$$$
=
 OpenBabel11032420153D

 28 31  0  0  1  0  0  0  0  0999 V2000
  183.4230  179.6090  139.5320 C   0  0  0  0  0  2  0  0  0  0  0  0
  180.4830  177.7940  140.5420 C   0  0  0  0  0  3  0  0  0  0  0  0
  181.3490  179.4240  142.8000 C   0  0  0  0  0  2  0  0  0  0  0  0
  182.0830  179.4260  139.9310 O   0  0  0  0  0  0  0  0  0  0  0  0
  182.2840  178.4010  142.1450 C   0  0  1  0  0  3  0  0  0  0  0  0
  183.7890  178.6340  138.4120 C   0  0  0  0  0  2  0  0  0  0  0  0
  179.9190  179.0500  142.5580 C   0  0  0  0  0  0  0  0  0  0  0  0
  179.0210  179.4770  143.3310 O   0  0  0  0  0  0  0  0  0  0  0  0
  181.9310  178.2040  140.6520 C   0  0  1  0  0  0  0  0  0  0  0  0
  183.0980  177.2840  138.6090 C   0  0  2  0  0  3  0  0  0  0  0  0
  182.7690  177.0400  140.0800 C   0  0  0  0  0  2  0  0  0  0  0  0
  179.5530  178.2120  141.4060 C   0  0  0  0  0  3  0  0  0  0  0  0
  185.1370  176.4730  137.4320 O   0  0  0  0  0  0  0  0  0  0  0  0
  183.5630  174.9780  138.1650 O   0  0  0  0  0  1  0  0  0  0  0  0
  183.9360  176.1760  138.0610 C   0  0  0  0  0  0  0  0  0  0  0  0
  183.6410  178.7990  142.3110 O   0  0  0  0  0  0  0  0  0  0  0  0
  188.3540  177.5960  148.4140 N   0  0  0  0  0  1  0  0  0  0  0  0
  187.7610  177.6390  144.7500 C   0  0  0  0  0  3  0  0  0  0  0  0
  185.7540  178.3000  145.9240 C   0  0  0  0  0  0  0  0  0  0  0  0
  186.4070  178.1450  147.1070 N   0  0  0  0  0  0  0  0  0  0  0  0
  188.4070  177.4870  145.9770 C   0  0  0  0  0  3  0  0  0  0  0  0
  184.4230  178.7140  145.9120 C   0  0  0  0  0  3  0  0  0  0  0  0
  187.7060  177.7470  147.1570 C   0  0  0  0  0  0  0  0  0  0  0  0
  186.4330  177.9820  142.2930 O   0  0  0  0  0  1  0  0  0  0  0  0
  185.7490  178.2100  143.4840 C   0  0  0  0  0  0  0  0  0  0  0  0
  183.7510  178.8710  144.6990 C   0  0  0  0  0  3  0  0  0  0  0  0
  184.3930  178.6170  143.4810 C   0  0  0  0  0  0  0  0  0  0  0  0
  186.4230  178.0470  144.7070 C   0  0  0  0  0  0  0  0  0  0  0  0
  1  4  1  0  0  0  0
  2  9  1  0  0  0  0
  2 12  2  0  0  0  0
  4  9  1  0  0  0  0
  5 16  1  6  0  0  0
  5  3  1  0  0  0  0
  6 10  1  0  0  0  0
  6  1  1  0  0  0  0
  7  3  1  0  0  0  0
  7  8  2  0  0  0  0
  9 11  1  6  0  0  0
  9  5  1  0  0  0  0
 10 15  1  1  0  0  0
 10 11  1  0  0  0  0
 12  7  1  0  0  0  0
 13 15  2  0  0  0  0
 15 14  1  0  0  0  0
 16 27  1  0  0  0  0
 18 21  1  0  0  0  0
 19 20  2  0  0  0  0
 20 23  1  0  0  0  0
 21 23  2  0  0  0  0
 22 19  1  0  0  0  0
 23 17  1  0  0  0  0
 24 25  1  0  0  0  0
 25 28  1  0  0  0  0
 26 22  2  0  0  0  0
 27 25  2  0  0  0  0
 27 26  1  0  0  0  0
 28 18  2  0  0  0  0
 28 19  1  0  0  0  0
M  END
>  <MODEL>
2

>  <REMARK>
 VINA RESULT:      -8.0      0.999      1.735
  Name = 
  3 active torsions:
  status: ('A' for Active; 'I' for Inactive)
    1  A    between atoms: O_12  and  C_17
    2  A    between atoms: O_12  and  C_23
    3  A    between atoms: C_18  and  C_25
                            x       y       z     vdW  Elec       q    Type
                         _______ _______ _______ _____ _____    ______ ____

>  <TORSDO>
F 3

$$$$
=
 OpenBabel11032420153D

 28 31  0  0  1  0  0  0  0  0999 V2000
  188.6810  178.9890  137.2180 C   0  0  0  0  0  2  0  0  0  0  0  0
  186.0460  176.5650  136.8400 C   0  0  0  0  0  3  0  0  0  0  0  0
  185.0980  178.6420  138.6530 C   0  0  0  0  0  2  0  0  0  0  0  0
  187.4220  178.4890  136.8240 O   0  0  0  0  0  0  0  0  0  0  0  0
  186.3760  177.8490  138.9430 C   0  0  1  0  0  3  0  0  0  0  0  0
  189.7940  178.0220  136.8120 C   0  0  0  0  0  2  0  0  0  0  0  0
  184.1890  177.8550  137.7590 C   0  0  0  0  0  0  0  0  0  0  0  0
  182.9560  178.1070  137.7420 O   0  0  0  0  0  0  0  0  0  0  0  0
  187.0440  177.3740  137.6310 C   0  0  1  0  0  0  0  0  0  0  0  0
  189.3370  176.5680  136.9400 C   0  0  2  0  0  3  0  0  0  0  0  0
  188.2170  176.4290  137.9690 C   0  0  0  0  0  2  0  0  0  0  0  0
  184.7330  176.8100  136.8790 C   0  0  0  0  0  3  0  0  0  0  0  0
  190.2540  174.3480  137.5930 O   0  0  0  0  0  1  0  0  0  0  0  0
  191.6640  176.1270  137.2870 O   0  0  0  0  0  0  0  0  0  0  0  0
  190.4870  175.6800  137.2810 C   0  0  0  0  0  0  0  0  0  0  0  0
  187.2710  178.6280  139.7300 O   0  0  0  0  0  0  0  0  0  0  0  0
  189.2870  176.7530  147.0330 N   0  0  0  0  0  1  0  0  0  0  0  0
  186.7460  177.8780  144.5710 C   0  0  0  0  0  3  0  0  0  0  0  0
  188.8660  177.5110  143.4680 C   0  0  0  0  0  0  0  0  0  0  0  0
  189.4120  177.1480  144.6600 N   0  0  0  0  0  0  0  0  0  0  0  0
  187.3320  177.5020  145.7810 C   0  0  0  0  0  3  0  0  0  0  0  0
  189.6480  177.5060  142.3140 C   0  0  0  0  0  3  0  0  0  0  0  0
  188.6790  177.1380  145.8060 C   0  0  0  0  0  0  0  0  0  0  0  0
  185.5950  178.6030  142.1080 O   0  0  0  0  0  1  0  0  0  0  0  0
  186.9430  178.2600  142.1640 C   0  0  0  0  0  0  0  0  0  0  0  0
  189.0900  177.8790  141.0910 C   0  0  0  0  0  3  0  0  0  0  0  0
  187.7470  178.2650  140.9990 C   0  0  0  0  0  0  0  0  0  0  0  0
  187.5080  177.8890  143.3970 C   0  0  0  0  0  0  0  0  0  0  0  0
  2 12  2  0  0  0  0
  3  5  1  0  0  0  0
  4  1  1  0  0  0  0
  4  9  1  0  0  0  0
  5 16  1  6  0  0  0
  6 10  1  0  0  0  0
  6  1  1  0  0  0  0
  7  3  1  0  0  0  0
  8  7  2  0  0  0  0
  9  2  1  6  0  0  0
  9 11  1  0  0  0  0
  9  5  1  0  0  0  0
 10 15  1  1  0  0  0
 10 11  1  0  0  0  0
 12  7  1  0  0  0  0
 15 14  2  0  0  0  0
 15 13  1  0  0  0  0
 16 27  1  0  0  0  0
 18 21  1  0  0  0  0
 19 20  2  0  0  0  0
 20 23  1  0  0  0  0
 21 23  2  0  0  0  0
 22 19  1  0  0  0  0
 23 17  1  0  0  0  0
 24 25  1  0  0  0  0
 25 28  1  0  0  0  0
 26 22  2  0  0  0  0
 27 26  1  0  0  0  0
 27 25  2  0  0  0  0
 28 19  1  0  0  0  0
 28 18  2  0  0  0  0
M  END
>  <MODEL>
3

>  <REMARK>
 VINA RESULT:      -7.8      3.373      5.054
  Name = 
  3 active torsions:
  status: ('A' for Active; 'I' for Inactive)
    1  A    between atoms: O_12  and  C_17
    2  A    between atoms: O_12  and  C_23
    3  A    between atoms: C_18  and  C_25
                            x       y       z     vdW  Elec       q    Type
                         _______ _______ _______ _____ _____    ______ ____

>  <TORSDO>
F 3

$$$$
=
 OpenBabel11032420153D

 28 31  0  0  1  0  0  0  0  0999 V2000
  180.3600  179.7690  140.2240 C   0  0  0  0  0  2  0  0  0  0  0  0
  182.1210  178.2220  137.4920 C   0  0  0  0  0  3  0  0  0  0  0  0
  182.8170  176.7870  139.9330 C   0  0  0  0  0  2  0  0  0  0  0  0
  180.6960  178.7550  139.3030 O   0  0  0  0  0  0  0  0  0  0  0  0
  183.0500  178.2950  139.7970 C   0  0  1  0  0  3  0  0  0  0  0  0
  180.1740  181.1060  139.5060 C   0  0  0  0  0  2  0  0  0  0  0  0
  182.7890  176.1410  138.5810 C   0  0  0  0  0  0  0  0  0  0  0  0
  183.0370  174.9130  138.4690 O   0  0  0  0  0  0  0  0  0  0  0  0
  182.0280  178.9280  138.8220 C   0  0  1  0  0  0  0  0  0  0  0  0
  181.1600  181.2530  138.3460 C   0  0  2  0  0  3  0  0  0  0  0  0
  182.4090  180.4030  138.5720 C   0  0  0  0  0  2  0  0  0  0  0  0
  182.4430  176.9290  137.3880 C   0  0  0  0  0  3  0  0  0  0  0  0
  182.7960  183.1260  138.4680 O   0  0  0  0  0  1  0  0  0  0  0  0
  180.6840  183.4960  137.6600 O   0  0  0  0  0  0  0  0  0  0  0  0
  181.5220  182.6850  138.1360 C   0  0  0  0  0  0  0  0  0  0  0  0
  183.0010  178.9180  141.0770 O   0  0  0  0  0  0  0  0  0  0  0  0
  187.6380  177.8730  147.2670 N   0  0  0  0  0  1  0  0  0  0  0  0
  184.3130  178.6660  145.8190 C   0  0  0  0  0  3  0  0  0  0  0  0
  185.9090  178.2420  144.0530 C   0  0  0  0  0  0  0  0  0  0  0  0
  186.8700  178.0200  144.9880 N   0  0  0  0  0  0  0  0  0  0  0  0
  185.3190  178.4360  146.7580 C   0  0  0  0  0  3  0  0  0  0  0  0
  186.2180  178.1360  142.6980 C   0  0  0  0  0  3  0  0  0  0  0  0
  186.6040  178.1110  146.3190 C   0  0  0  0  0  0  0  0  0  0  0  0
  182.3050  179.0990  143.8950 O   0  0  0  0  0  1  0  0  0  0  0  0
  183.6010  178.7990  143.4840 C   0  0  0  0  0  0  0  0  0  0  0  0
  185.2330  178.3640  141.7370 C   0  0  0  0  0  3  0  0  0  0  0  0
  183.9260  178.7030  142.1090 C   0  0  0  0  0  0  0  0  0  0  0  0
  184.5950  178.5740  144.4510 C   0  0  0  0  0  0  0  0  0  0  0  0
  4  1  1  0  0  0  0
  5  3  1  0  0  0  0
  5 16  1  1  0  0  0
  6  1  1  0  0  0  0
  7  3  1  0  0  0  0
  8  7  2  0  0  0  0
  9  2  1  6  0  0  0
  9  4  1  0  0  0  0
  9  5  1  0  0  0  0
 10 15  1  1  0  0  0
 10 11  1  0  0  0  0
 10  6  1  0  0  0  0
 11  9  1  0  0  0  0
 12  2  2  0  0  0  0
 12  7  1  0  0  0  0
 14 15  2  0  0  0  0
 15 13  1  0  0  0  0
 16 27  1  0  0  0  0
 18 21  1  0  0  0  0
 19 28  1  0  0  0  0
 19 20  2  0  0  0  0
 20 23  1  0  0  0  0
 22 19  1  0  0  0  0
 23 21  2  0  0  0  0
 23 17  1  0  0  0  0
 25 24  1  0  0  0  0
 25 28  1  0  0  0  0
 26 27  1  0  0  0  0
 26 22  2  0  0  0  0
 27 25  2  0  0  0  0
 28 18  2  0  0  0  0
M  END
>  <MODEL>
4

>  <REMARK>
 VINA RESULT:      -7.8      1.963      3.813
  Name = 
  3 active torsions:
  status: ('A' for Active; 'I' for Inactive)
    1  A    between atoms: O_12  and  C_17
    2  A    between atoms: O_12  and  C_23
    3  A    between atoms: C_18  and  C_25
                            x       y       z     vdW  Elec       q    Type
                         _______ _______ _______ _____ _____    ______ ____

>  <TORSDO>
F 3

$$$$
=
 OpenBabel11032420153D

 28 31  0  0  1  0  0  0  0  0999 V2000
  188.6710  178.9680  137.5930 C   0  0  0  0  0  2  0  0  0  0  0  0
  186.0530  176.5850  136.9420 C   0  0  0  0  0  3  0  0  0  0  0  0
  184.9560  178.6760  138.6520 C   0  0  0  0  0  2  0  0  0  0  0  0
  187.4520  178.4870  137.0710 O   0  0  0  0  0  0  0  0  0  0  0  0
  186.1840  177.8630  139.0700 C   0  0  1  0  0  3  0  0  0  0  0  0
  189.8050  177.9840  137.3010 C   0  0  0  0  0  2  0  0  0  0  0  0
  184.1310  177.9040  137.6680 C   0  0  0  0  0  0  0  0  0  0  0  0
  182.9100  178.1740  137.5250 O   0  0  0  0  0  0  0  0  0  0  0  0
  186.9760  177.3780  137.8320 C   0  0  1  0  0  0  0  0  0  0  0  0
  189.3150  176.5370  137.3790 C   0  0  2  0  0  3  0  0  0  0  0  0
  188.0940  176.4150  138.2880 C   0  0  0  0  0  2  0  0  0  0  0  0
  184.7470  176.8510  136.8460 C   0  0  0  0  0  3  0  0  0  0  0  0
  191.4880  176.1570  138.5330 O   0  0  0  0  0  1  0  0  0  0  0  0
  190.3640  174.3960  137.5940 O   0  0  0  0  0  0  0  0  0  0  0  0
  190.4100  175.6310  137.8350 C   0  0  0  0  0  0  0  0  0  0  0  0
  187.0060  178.6280  139.9460 O   0  0  0  0  0  0  0  0  0  0  0  0
  188.6580  177.0250  147.4030 N   0  0  0  0  0  1  0  0  0  0  0  0
  189.7170  177.3680  143.8620 C   0  0  0  0  0  3  0  0  0  0  0  0
  187.3630  177.8740  144.0780 C   0  0  0  0  0  0  0  0  0  0  0  0
  187.4440  177.6350  145.4140 N   0  0  0  0  0  0  0  0  0  0  0  0
  189.7720  177.1280  145.2350 C   0  0  0  0  0  3  0  0  0  0  0  0
  186.1470  178.2530  143.5110 C   0  0  0  0  0  3  0  0  0  0  0  0
  188.6140  177.2670  146.0030 C   0  0  0  0  0  0  0  0  0  0  0  0
  189.5710  177.8870  141.1000 O   0  0  0  0  0  1  0  0  0  0  0  0
  188.4250  177.9940  141.8830 C   0  0  0  0  0  0  0  0  0  0  0  0
  186.0620  178.4970  142.1400 C   0  0  0  0  0  3  0  0  0  0  0  0
  187.1830  178.3660  141.3130 C   0  0  0  0  0  0  0  0  0  0  0  0
  188.5090  177.7440  143.2640 C   0  0  0  0  0  0  0  0  0  0  0  0
  3  5  1  0  0  0  0
  4  1  1  0  0  0  0
  4  9  1  0  0  0  0
  5 16  1  1  0  0  0
  6 10  1  0  0  0  0
  6  1  1  0  0  0  0
  7  3  1  0  0  0  0
  8  7  2  0  0  0  0
  9  2  1  6  0  0  0
  9 11  1  0  0  0  0
  9  5  1  0  0  0  0
 10 15  1  1  0  0  0
 10 11  1  0  0  0  0
 12  2  2  0  0  0  0
 12  7  1  0  0  0  0
 14 15  2  0  0  0  0
 15 13  1  0  0  0  0
 16 27  1  0  0  0  0
 18 21  1  0  0  0  0
 19 20  2  0  0  0  0
 20 23  1  0  0  0  0
 21 23  2  0  0  0  0
 22 19  1  0  0  0  0
 23 17  1  0  0  0  0
 24 25  1  0  0  0  0
 25 28  1  0  0  0  0
 26 22  2  0  0  0  0
 27 25  2  0  0  0  0
 27 26  1  0  0  0  0
 28 18  2  0  0  0  0
 28 19  1  0  0  0  0
M  END
>  <MODEL>
5

>  <REMARK>
 VINA RESULT:      -7.7      3.447      5.222
  Name = 
  3 active torsions:
  status: ('A' for Active; 'I' for Inactive)
    1  A    between atoms: O_12  and  C_17
    2  A    between atoms: O_12  and  C_23
    3  A    between atoms: C_18  and  C_25
                            x       y       z     vdW  Elec       q    Type
                         _______ _______ _______ _____ _____    ______ ____

>  <TORSDO>
F 3

$$$$
=
 OpenBabel11032420153D

 28 31  0  0  1  0  0  0  0  0999 V2000
  190.4790  179.0820  143.9880 C   0  0  0  0  0  2  0  0  0  0  0  0
  191.2080  176.7490  141.3450 C   0  0  0  0  0  3  0  0  0  0  0  0
  188.7340  178.1330  140.6610 C   0  0  0  0  0  2  0  0  0  0  0  0
  190.8270  178.6590  142.6880 O   0  0  0  0  0  0  0  0  0  0  0  0
  188.8800  177.3570  141.9740 C   0  0  1  0  0  3  0  0  0  0  0  0
  191.3120  178.3420  145.0350 C   0  0  0  0  0  2  0  0  0  0  0  0
  189.6890  177.6040  139.6350 C   0  0  0  0  0  0  0  0  0  0  0  0
  189.4560  177.7840  138.4110 O   0  0  0  0  0  0  0  0  0  0  0  0
  190.3550  177.3350  142.4430 C   0  0  1  0  0  0  0  0  0  0  0  0
  191.5710  176.8950  144.6140 C   0  0  2  0  0  3  0  0  0  0  0  0
  190.4880  176.3940  143.6600 C   0  0  0  0  0  2  0  0  0  0  0  0
  190.9130  176.9020  140.0500 C   0  0  0  0  0  3  0  0  0  0  0  0
  191.0150  176.3470  146.9780 O   0  0  0  0  0  1  0  0  0  0  0  0
  192.3680  174.9530  145.7640 O   0  0  0  0  0  0  0  0  0  0  0  0
  191.6800  176.0070  145.8080 C   0  0  0  0  0  0  0  0  0  0  0  0
  188.0260  177.9100  142.9700 O   0  0  0  0  0  0  0  0  0  0  0  0
  180.3560  179.3280  142.7020 N   0  0  0  0  0  1  0  0  0  0  0  0
  183.4470  178.6280  144.6370 C   0  0  0  0  0  3  0  0  0  0  0  0
  183.9470  178.7110  142.2730 C   0  0  0  0  0  0  0  0  0  0  0  0
  182.6370  178.9670  142.0150 N   0  0  0  0  0  0  0  0  0  0  0  0
  182.1080  178.8910  144.3440 C   0  0  0  0  0  3  0  0  0  0  0  0
  184.8600  178.6280  141.2240 C   0  0  0  0  0  3  0  0  0  0  0  0
  181.7180  179.0590  143.0140 C   0  0  0  0  0  0  0  0  0  0  0  0
  186.1590  178.1240  145.1900 O   0  0  0  0  0  1  0  0  0  0  0  0
  185.7400  178.2700  143.8700 C   0  0  0  0  0  0  0  0  0  0  0  0
  186.2050  178.3630  141.4870 C   0  0  0  0  0  3  0  0  0  0  0  0
  186.6590  178.1740  142.7980 C   0  0  0  0  0  0  0  0  0  0  0  0
  184.3850  178.5320  143.6040 C   0  0  0  0  0  0  0  0  0  0  0  0
  1  6  1  0  0  0  0
  3  5  1  0  0  0  0
  4  1  1  0  0  0  0
  5  9  1  0  0  0  0
  5 16  1  1  0  0  0
  7 12  1  0  0  0  0
  7  3  1  0  0  0  0
  8  7  2  0  0  0  0
  9  2  1  6  0  0  0
  9  4  1  0  0  0  0
  9 11  1  0  0  0  0
 10  6  1  0  0  0  0
 10 15  1  1  0  0  0
 11 10  1  0  0  0  0
 12  2  2  0  0  0  0
 14 15  2  0  0  0  0
 15 13  1  0  0  0  0
 17 23  1  0  0  0  0
 19 28  1  0  0  0  0
 20 19  2  0  0  0  0
 20 23  1  0  0  0  0
 21 18  1  0  0  0  0
 22 26  2  0  0  0  0
 22 19  1  0  0  0  0
 23 21  2  0  0  0  0
 25 24  1  0  0  0  0
 26 27  1  0  0  0  0
 27 16  1  0  0  0  0
 27 25  2  0  0  0  0
 28 25  1  0  0  0  0
 28 18  2  0  0  0  0
M  END
>  <MODEL>
6

>  <REMARK>
 VINA RESULT:      -7.5      4.522      8.043
  Name = 
  3 active torsions:
  status: ('A' for Active; 'I' for Inactive)
    1  A    between atoms: O_12  and  C_17
    2  A    between atoms: O_12  and  C_23
    3  A    between atoms: C_18  and  C_25
                            x       y       z     vdW  Elec       q    Type
                         _______ _______ _______ _____ _____    ______ ____

>  <TORSDO>
F 3

$$$$
=
 OpenBabel11032420153D

 28 31  0  0  1  0  0  0  0  0999 V2000
  188.4090  178.8390  136.8850 C   0  0  0  0  0  2  0  0  0  0  0  0
  185.4970  176.7250  136.9740 C   0  0  0  0  0  3  0  0  0  0  0  0
  185.0900  178.8900  138.8830 C   0  0  0  0  0  2  0  0  0  0  0  0
  187.0560  178.4830  136.7060 O   0  0  0  0  0  0  0  0  0  0  0  0
  186.3020  177.9580  138.9760 C   0  0  1  0  0  3  0  0  0  0  0  0
  189.3280  177.7550  136.3190 C   0  0  0  0  0  2  0  0  0  0  0  0
  183.9670  178.2120  138.1600 C   0  0  0  0  0  0  0  0  0  0  0  0
  182.7830  178.6000  138.3380 O   0  0  0  0  0  0  0  0  0  0  0  0
  186.6930  177.4160  137.5810 C   0  0  1  0  0  0  0  0  0  0  0  0
  188.7400  176.3610  136.5420 C   0  0  2  0  0  3  0  0  0  0  0  0
  187.7930  176.3450  137.7400 C   0  0  0  0  0  2  0  0  0  0  0  0
  184.2430  177.1150  137.2200 C   0  0  0  0  0  3  0  0  0  0  0  0
  190.3370  175.0950  137.9720 O   0  0  0  0  0  1  0  0  0  0  0  0
  190.2770  174.7240  135.7120 O   0  0  0  0  0  0  0  0  0  0  0  0
  189.8250  175.3490  136.7070 C   0  0  0  0  0  0  0  0  0  0  0  0
  187.3930  178.6310  139.5960 O   0  0  0  0  0  0  0  0  0  0  0  0
  191.2270  176.4510  146.0350 N   0  0  0  0  0  1  0  0  0  0  0  0
  191.1660  177.1320  142.3860 C   0  0  0  0  0  3  0  0  0  0  0  0
  188.9840  177.5390  143.3440 C   0  0  0  0  0  0  0  0  0  0  0  0
  189.4660  177.1890  144.5660 N   0  0  0  0  0  0  0  0  0  0  0  0
  191.6350  176.7760  143.6510 C   0  0  0  0  0  3  0  0  0  0  0  0
  187.6520  177.9240  143.2050 C   0  0  0  0  0  3  0  0  0  0  0  0
  190.7610  176.8100  144.7400 C   0  0  0  0  0  0  0  0  0  0  0  0
  190.1920  177.8800  139.8550 O   0  0  0  0  0  1  0  0  0  0  0  0
  189.3340  177.8810  140.9520 C   0  0  0  0  0  0  0  0  0  0  0  0
  187.1550  178.2820  141.9510 C   0  0  0  0  0  3  0  0  0  0  0  0
  187.9760  178.2590  140.8170 C   0  0  0  0  0  0  0  0  0  0  0  0
  189.8320  177.5160  142.2150 C   0  0  0  0  0  0  0  0  0  0  0  0
  2 12  2  0  0  0  0
  3  5  1  0  0  0  0
  4  1  1  0  0  0  0
  4  9  1  0  0  0  0
  5 16  1  6  0  0  0
  6 10  1  0  0  0  0
  6  1  1  0  0  0  0
  7  8  2  0  0  0  0
  7  3  1  0  0  0  0
  9  2  1  6  0  0  0
  9 11  1  0  0  0  0
  9  5  1  0  0  0  0
 10 15  1  1  0  0  0
 10 11  1  0  0  0  0
 12  7  1  0  0  0  0
 14 15  2  0  0  0  0
 15 13  1  0  0  0  0
 16 27  1  0  0  0  0
 18 21  1  0  0  0  0
 19 20  2  0  0  0  0
 20 23  1  0  0  0  0
 21 23  2  0  0  0  0
 22 19  1  0  0  0  0
 23 17  1  0  0  0  0
 24 25  1  0  0  0  0
 25 28  1  0  0  0  0
 26 22  2  0  0  0  0
 27 25  2  0  0  0  0
 27 26  1  0  0  0  0
 28 18  2  0  0  0  0
 28 19  1  0  0  0  0
M  END
>  <MODEL>
7

>  <REMARK>
 VINA RESULT:      -7.5      3.667      5.467
  Name = 
  3 active torsions:
  status: ('A' for Active; 'I' for Inactive)
    1  A    between atoms: O_12  and  C_17
    2  A    between atoms: O_12  and  C_23
    3  A    between atoms: C_18  and  C_25
                            x       y       z     vdW  Elec       q    Type
                         _______ _______ _______ _____ _____    ______ ____

>  <TORSDO>
F 3

$$$$
=
 OpenBabel11032420153D

 28 31  0  0  1  0  0  0  0  0999 V2000
  188.3920  178.9820  137.2100 C   0  0  0  0  0  2  0  0  0  0  0  0
  186.4320  176.0840  136.3590 C   0  0  0  0  0  3  0  0  0  0  0  0
  184.6170  178.1250  137.3800 C   0  0  0  0  0  2  0  0  0  0  0  0
  187.4420  178.2180  136.4990 O   0  0  0  0  0  0  0  0  0  0  0  0
  185.7990  177.6170  138.2110 C   0  0  1  0  0  3  0  0  0  0  0  0
  189.6980  178.2020  137.3680 C   0  0  0  0  0  2  0  0  0  0  0  0
  184.2090  177.0940  136.3710 C   0  0  0  0  0  0  0  0  0  0  0  0
  183.0440  177.1090  135.8960 O   0  0  0  0  0  0  0  0  0  0  0  0
  186.9550  177.1420  137.2990 C   0  0  1  0  0  0  0  0  0  0  0  0
  189.4300  176.7100  137.5680 C   0  0  2  0  0  3  0  0  0  0  0  0
  188.0440  176.4720  138.1640 C   0  0  0  0  0  2  0  0  0  0  0  0
  185.1740  176.0840  135.9100 C   0  0  0  0  0  3  0  0  0  0  0  0
  190.4210  176.2220  139.7990 O   0  0  0  0  0  1  0  0  0  0  0  0
  191.4390  175.4510  137.8970 O   0  0  0  0  0  0  0  0  0  0  0  0
  190.4880  176.0910  138.4190 C   0  0  0  0  0  0  0  0  0  0  0  0
  186.2320  178.6260  139.1170 O   0  0  0  0  0  0  0  0  0  0  0  0
  184.7430  178.5170  146.7770 N   0  0  0  0  0  1  0  0  0  0  0  0
  183.6250  179.0400  143.2760 C   0  0  0  0  0  3  0  0  0  0  0  0
  185.9600  178.4160  143.3180 C   0  0  0  0  0  0  0  0  0  0  0  0
  185.9060  178.3420  144.6750 N   0  0  0  0  0  0  0  0  0  0  0  0
  183.5970  178.9580  144.6690 C   0  0  0  0  0  3  0  0  0  0  0  0
  187.1520  178.1360  142.6530 C   0  0  0  0  0  3  0  0  0  0  0  0
  184.7590  178.6050  145.3580 C   0  0  0  0  0  0  0  0  0  0  0  0
  183.7140  179.1690  140.4670 O   0  0  0  0  0  1  0  0  0  0  0  0
  184.8650  178.8440  141.1790 C   0  0  0  0  0  0  0  0  0  0  0  0
  187.2100  178.2120  141.2610 C   0  0  0  0  0  3  0  0  0  0  0  0
  186.0830  178.5710  140.5110 C   0  0  0  0  0  0  0  0  0  0  0  0
  184.8090  178.7710  142.5810 C   0  0  0  0  0  0  0  0  0  0  0  0
  1  6  1  0  0  0  0
  3  5  1  0  0  0  0
  4  1  1  0  0  0  0
  4  9  1  0  0  0  0
  5 16  1  1  0  0  0
  6 10  1  0  0  0  0
  7  3  1  0  0  0  0
  8  7  2  0  0  0  0
  9  2  1  6  0  0  0
  9 11  1  0  0  0  0
  9  5  1  0  0  0  0
 10 11  1  0  0  0  0
 10 15  1  1  0  0  0
 12  2  2  0  0  0  0
 12  7  1  0  0  0  0
 14 15  2  0  0  0  0
 15 13  1  0  0  0  0
 16 27  1  0  0  0  0
 18 21  1  0  0  0  0
 19 20  2  0  0  0  0
 20 23  1  0  0  0  0
 21 23  2  0  0  0  0
 22 19  1  0  0  0  0
 23 17  1  0  0  0  0
 24 25  1  0  0  0  0
 25 28  1  0  0  0  0
 26 22  2  0  0  0  0
 27 25  2  0  0  0  0
 27 26  1  0  0  0  0
 28 18  2  0  0  0  0
 28 19  1  0  0  0  0
M  END
>  <MODEL>
8

>  <REMARK>
 VINA RESULT:      -7.4      3.301      5.461
  Name = 
  3 active torsions:
  status: ('A' for Active; 'I' for Inactive)
    1  A    between atoms: O_12  and  C_17
    2  A    between atoms: O_12  and  C_23
    3  A    between atoms: C_18  and  C_25
                            x       y       z     vdW  Elec       q    Type
                         _______ _______ _______ _____ _____    ______ ____

>  <TORSDO>
F 3

$$$$
=
 OpenBabel11032420153D

 28 31  0  0  1  0  0  0  0  0999 V2000
  192.3410  177.6370  140.2240 C   0  0  0  0  0  2  0  0  0  0  0  0
  189.7250  177.3750  137.7650 C   0  0  0  0  0  3  0  0  0  0  0  0
  188.4700  177.6770  140.3800 C   0  0  0  0  0  2  0  0  0  0  0  0
  191.2500  178.0620  139.4380 O   0  0  0  0  0  0  0  0  0  0  0  0
  189.4500  176.5360  140.0890 C   0  0  1  0  0  3  0  0  0  0  0  0
  193.3930  176.9470  139.3550 C   0  0  0  0  0  2  0  0  0  0  0  0
  187.8430  178.1610  139.1070 C   0  0  0  0  0  0  0  0  0  0  0  0
  186.7380  178.7630  139.1430 O   0  0  0  0  0  0  0  0  0  0  0  0
  190.4730  176.9470  139.0040 C   0  0  1  0  0  0  0  0  0  0  0  0
  192.7390  176.1370  138.2340 C   0  0  2  0  0  3  0  0  0  0  0  0
  191.3200  175.7180  138.6100 C   0  0  0  0  0  2  0  0  0  0  0  0
  188.5260  177.9620  137.8200 C   0  0  0  0  0  3  0  0  0  0  0  0
  194.9180  174.9320  138.2190 O   0  0  0  0  0  1  0  0  0  0  0  0
  193.0620  173.9610  137.2930 O   0  0  0  0  0  0  0  0  0  0  0  0
  193.5710  174.9480  137.8850 C   0  0  0  0  0  0  0  0  0  0  0  0
  190.1000  176.1300  141.2890 O   0  0  0  0  0  0  0  0  0  0  0  0
  188.2750  177.7470  148.7020 N   0  0  0  0  0  1  0  0  0  0  0  0
  190.8010  176.9980  146.0870 C   0  0  0  0  0  3  0  0  0  0  0  0
  188.5860  177.0270  145.1190 C   0  0  0  0  0  0  0  0  0  0  0  0
  188.0650  177.3140  146.3420 N   0  0  0  0  0  0  0  0  0  0  0  0
  190.2400  177.2910  147.3310 C   0  0  0  0  0  3  0  0  0  0  0  0
  187.7430  176.9020  144.0160 C   0  0  0  0  0  3  0  0  0  0  0  0
  188.8570  177.4470  147.4400 C   0  0  0  0  0  0  0  0  0  0  0  0
  191.8950  176.4310  143.5580 O   0  0  0  0  0  1  0  0  0  0  0  0
  190.5170  176.5660  143.6980 C   0  0  0  0  0  0  0  0  0  0  0  0
  188.2750  176.6060  142.7600 C   0  0  0  0  0  3  0  0  0  0  0  0
  189.6530  176.4280  142.5850 C   0  0  0  0  0  0  0  0  0  0  0  0
  189.9790  176.8600  144.9630 C   0  0  0  0  0  0  0  0  0  0  0  0
  2 12  2  0  0  0  0
  4  1  1  0  0  0  0
  5  3  1  0  0  0  0
  5 16  1  1  0  0  0
  6  1  1  0  0  0  0
  7  8  2  0  0  0  0
  7  3  1  0  0  0  0
  9  2  1  6  0  0  0
  9  4  1  0  0  0  0
  9  5  1  0  0  0  0
 10 15  1  1  0  0  0
 10 11  1  0  0  0  0
 10  6  1  0  0  0  0
 11  9  1  0  0  0  0
 12  7  1  0  0  0  0
 14 15  2  0  0  0  0
 15 13  1  0  0  0  0
 16 27  1  0  0  0  0
 18 21  1  0  0  0  0
 19 20  2  0  0  0  0
 20 23  1  0  0  0  0
 21 23  2  0  0  0  0
 22 19  1  0  0  0  0
 23 17  1  0  0  0  0
 24 25  1  0  0  0  0
 25 28  1  0  0  0  0
 26 22  2  0  0  0  0
 27 26  1  0  0  0  0
 27 25  2  0  0  0  0
 28 19  1  0  0  0  0
 28 18  2  0  0  0  0
M  END
>  <MODEL>
9

>  <REMARK>
 VINA RESULT:      -7.4      5.381      7.488
  Name = 
  3 active torsions:
  status: ('A' for Active; 'I' for Inactive)
    1  A    between atoms: O_12  and  C_17
    2  A    between atoms: O_12  and  C_23
    3  A    between atoms: C_18  and  C_25
                            x       y       z     vdW  Elec       q    Type
                         _______ _______ _______ _____ _____    ______ ____

>  <TORSDO>
F 3

$$$$
