=
 OpenBabel11042412483D

 58 64  0  0  1  0  0  0  0  0999 V2000
  183.9560  178.8610  140.7050 C   0  0  0  0  0  0  0  0  0  0  0  0
  182.9530  178.5750  141.5230 C   0  0  0  0  0  3  0  0  0  0  0  0
  181.5520  178.3940  141.0400 C   0  0  1  0  0  3  0  0  0  0  0  0
  180.4340  179.3860  142.0650 S   0  0  0  0  0  0  0  0  0  0  0  0
  181.3750  179.1170  139.7910 N   0  0  0  0  0  2  0  0  0  0  0  0
  180.4750  180.0970  140.3810 C   0  0  1  0  0  3  0  0  0  0  0  0
  179.1260  180.0610  139.6390 C   0  0  0  0  0  2  0  0  0  0  0  0
  179.0040  183.8700  138.4800 S   0  0  0  0  0  0  0  0  0  0  0  0
  178.9310  181.2080  138.7600 N   0  0  0  0  0  0  0  0  0  0  0  0
  179.5690  182.3720  139.3600 C   0  0  0  0  0  2  0  0  0  0  0  0
  179.2650  181.9530  136.4630 C   0  0  2  0  0  3  0  0  0  0  0  0
  179.1800  184.3730  135.8240 C   0  0  0  0  0  1  0  0  0  0  0  0
  179.6570  180.9380  137.5310 C   0  0  0  0  0  2  0  0  0  0  0  0
  179.8770  181.5100  135.1370 C   0  0  0  0  0  1  0  0  0  0  0  0
  179.7000  183.3860  136.8580 C   0  0  0  0  0  0  0  0  0  0  0  0
  181.2160  183.5140  136.9290 C   0  0  0  0  0  1  0  0  0  0  0  0
  186.2140  178.0750  141.2870 C   0  0  0  0  0  3  0  0  0  0  0  0
  185.2860  179.0130  141.3100 C   0  0  0  0  0  3  0  0  0  0  0  0
  187.4660  178.3150  141.9370 C   0  0  0  0  0  0  0  0  0  0  0  0
  188.5120  178.5090  142.5070 C   0  0  0  0  0  0  0  0  0  0  0  0
  189.7690  178.6990  143.2320 C   0  0  0  0  0  2  0  0  0  0  0  0
  191.7890  177.4650  144.0930 C   0  0  0  0  0  2  0  0  0  0  0  0
  190.3450  177.3330  143.6100 C   0  0  1  0  0  3  0  0  0  0  0  0
  189.9370  176.7980  144.9950 C   0  0  1  0  0  3  0  0  0  0  0  0
  191.3980  176.9280  145.4520 C   0  0  2  0  0  0  0  0  0  0  0  0
  191.6210  177.8720  146.4530 O   0  0  0  0  0  1  0  0  0  0  0  0
  186.4240  177.8580  146.1610 C   0  0  0  0  0  3  0  0  0  0  0  0
  188.9100  177.6330  145.7740 C   0  0  2  0  0  3  0  0  0  0  0  0
  188.9710  177.2920  147.2610 C   0  0  0  0  0  2  0  0  0  0  0  0
  188.0370  178.2210  148.0230 C   0  0  0  0  0  2  0  0  0  0  0  0
  187.5050  177.2840  145.2800 C   0  0  0  0  0  2  0  0  0  0  0  0
  186.6540  178.2370  147.4250 C   0  0  0  0  0  3  0  0  0  0  0  0
  192.5320  175.3460  147.0320 O   0  0  0  0  0  1  0  0  0  0  0  0
  192.1510  174.7300  144.8570 O   0  0  0  0  0  0  0  0  0  0  0  0
  192.0350  175.6060  145.7570 C   0  0  0  0  0  0  0  0  0  0  0  0
  183.7010  178.9870  139.3250 O   0  0  0  0  0  0  0  0  0  0  0  0
  184.7200  179.0420  138.3390 C   0  0  0  0  0  2  0  0  0  0  0  0
  184.9920  177.6500  137.8150 C   0  0  0  0  0  2  0  0  0  0  0  0
  186.3530  177.6340  137.1510 C   0  0  0  0  0  2  0  0  0  0  0  0
  187.4500  177.7250  138.1920 C   0  0  0  0  0  2  0  0  0  0  0  0
  188.8800  178.5620  137.4490 S   0  0  0  0  0  0  0  0  0  0  0  0
  190.3110  177.4200  138.5710 S   0  0  0  0  0  0  0  0  0  0  0  0
  189.5600  175.4260  136.9110 O   0  0  0  0  0  0  0  0  0  0  0  0
  191.3180  173.9430  137.2660 O   0  0  0  0  0  0  0  0  0  0  0  0
  191.7190  175.1730  137.7640 C   0  0  2  0  0  3  0  0  0  0  0  0
  190.6850  176.1600  137.2900 C   0  0  2  0  0  3  0  0  0  0  0  0
  189.9310  174.0750  137.0740 C   0  0  2  0  0  3  0  0  0  0  0  0
  194.2010  175.2460  138.3210 C   0  0  0  0  0  2  0  0  0  0  0  0
  193.4630  174.7180  136.0960 N   0  0  0  0  0  2  0  0  0  0  0  0
  194.8080  174.3100  136.2350 N   0  0  0  0  0  2  0  0  0  0  0  0
  193.1360  175.5080  137.2770 C   0  0  1  0  0  3  0  0  0  0  0  0
  196.4480  174.4110  137.9570 N   0  0  0  0  0  1  0  0  0  0  0  0
  195.0420  174.1910  137.6610 C   0  0  1  0  0  3  0  0  0  0  0  0
  188.0490  173.6070  135.5040 C   0  0  0  0  0  2  0  0  0  0  0  0
  188.3740  172.3010  136.1860 C   0  0  0  0  0  0  0  0  0  0  0  0
  188.2540  171.1710  135.3780 O   0  0  0  0  0  1  0  0  0  0  0  0
  189.4990  173.2650  135.8570 C   0  0  2  0  0  3  0  0  0  0  0  0
  187.9330  172.2000  137.5080 O   0  0  0  0  0  1  0  0  0  0  0  0
  1 18  1  0  0  0  0
  1  2  2  0  0  0  0
  3  2  1  1  0  0  0
  3  4  1  0  0  0  0
  5  6  1  0  0  0  0
  5  3  1  0  0  0  0
  6  7  1  6  0  0  0
  6  4  1  0  0  0  0
  8 10  1  0  0  0  0
  9 10  1  0  0  0  0
  9  7  1  0  0  0  0
 11 14  1  6  0  0  0
 11 15  1  0  0  0  0
 11 13  1  0  0  0  0
 12 15  1  0  0  0  0
 13  9  1  0  0  0  0
 15 16  1  0  0  0  0
 15  8  1  0  0  0  0
 17 18  2  0  0  0  0
 17 19  1  0  0  0  0
 19 20  3  0  0  0  0
 20 21  1  0  0  0  0
 22 25  1  0  0  0  0
 23 21  1  1  0  0  0
 23 22  1  0  0  0  0
 23 24  1  0  0  0  0
 24 25  1  0  0  0  0
 24 28  1  1  0  0  0
 25 35  1  0  0  0  0
 25 26  1  1  0  0  0
 27 32  2  0  0  0  0
 28 31  1  6  0  0  0
 28 29  1  0  0  0  0
 29 30  1  0  0  0  0
 31 27  1  0  0  0  0
 32 30  1  0  0  0  0
 34 35  2  0  0  0  0
 35 33  1  0  0  0  0
 36  1  1  0  0  0  0
 37 36  1  0  0  0  0
 38 37  1  0  0  0  0
 39 38  1  0  0  0  0
 39 40  1  0  0  0  0
 41 40  1  0  0  0  0
 41 42  1  0  0  0  0
 43 46  1  0  0  0  0
 45 44  1  6  0  0  0
 46 45  1  0  0  0  0
 46 42  1  1  0  0  0
 47 43  1  6  0  0  0
 47 44  1  0  0  0  0
 49 50  1  0  0  0  0
 49 51  1  0  0  0  0
 50 53  1  0  0  0  0
 51 45  1  0  0  0  0
 51 48  1  1  0  0  0
 53 52  1  6  0  0  0
 53 48  1  0  0  0  0
 54 55  1  0  0  0  0
 55 58  1  0  0  0  0
 56 55  1  0  0  0  0
 57 54  1  6  0  0  0
 57 55  1  0  0  0  0
 57 47  1  0  0  0  0
M  END
>  <MODEL>
1

>  <REMARK>
 VINA RESULT:      -7.5      0.000      0.000
  Name = 
  19 active torsions:
  status: ('A' for Active; 'I' for Inactive)
    1  A    between atoms: C_1  and  C_27
    2  A    between atoms: C_1  and  C_32
    3  A    between atoms: C_5  and  C_21
    4  A    between atoms: C_6  and  C_14
    5  A    between atoms: N_7  and  C_18
    6  A    between atoms: C_8  and  C_17
    7  A    between atoms: C_12  and  O_15
    8  A    between atoms: C_12  and  C_27
    9  A    between atoms: S_13  and  C_43
   10  A    between atoms: S_13  and  S_47
   11  A    between atoms: O_15  and  C_17
   12  A    between atoms: C_16  and  C_46
   13  A    between atoms: C_18  and  C_39
   14  A    between atoms: C_24  and  C_46
   15  A    between atoms: C_26  and  C_33
   16  A    between atoms: C_29  and  C_54
   17  A    between atoms: C_32  and  S_47
   18  A    between atoms: C_40  and  C_44
   19  A    between atoms: C_48  and  C_49
                            x       y       z     vdW  Elec       q    Type
                         _______ _______ _______ _____ _____    ______ ____

>  <TORSDO>
F 19

$$$$
=
 OpenBabel11042412483D

 58 64  0  0  1  0  0  0  0  0999 V2000
  190.1900  176.7890  137.8410 C   0  0  0  0  0  0  0  0  0  0  0  0
  191.1380  175.9220  137.5110 C   0  0  0  0  0  3  0  0  0  0  0  0
  191.9100  176.0260  136.2370 C   0  0  1  0  0  3  0  0  0  0  0  0
  193.6420  176.4010  136.6190 S   0  0  0  0  0  0  0  0  0  0  0  0
  192.1080  174.6970  135.6840 N   0  0  0  0  0  2  0  0  0  0  0  0
  193.5430  174.7110  135.9270 C   0  0  1  0  0  3  0  0  0  0  0  0
  194.2880  174.5200  134.5940 C   0  0  0  0  0  2  0  0  0  0  0  0
  197.9690  173.4220  135.6460 S   0  0  0  0  0  0  0  0  0  0  0  0
  195.4700  173.6760  134.7190 N   0  0  0  0  0  0  0  0  0  0  0  0
  196.3340  174.2310  135.7520 C   0  0  0  0  0  2  0  0  0  0  0  0
  196.1570  171.3680  135.0930 C   0  0  2  0  0  3  0  0  0  0  0  0
  198.4940  170.7680  135.7630 C   0  0  0  0  0  1  0  0  0  0  0  0
  195.0270  172.3840  135.2130 C   0  0  0  0  0  2  0  0  0  0  0  0
  195.5920  169.9870  135.4150 C   0  0  0  0  0  1  0  0  0  0  0  0
  197.3500  171.7390  136.0090 C   0  0  0  0  0  0  0  0  0  0  0  0
  196.9700  171.6750  137.4820 C   0  0  0  0  0  1  0  0  0  0  0  0
  189.5780  177.4090  140.1420 C   0  0  0  0  0  3  0  0  0  0  0  0
  189.5070  176.5720  139.1240 C   0  0  0  0  0  3  0  0  0  0  0  0
  188.8990  177.0850  141.3600 C   0  0  0  0  0  0  0  0  0  0  0  0
  188.3040  176.8130  142.3740 C   0  0  0  0  0  0  0  0  0  0  0  0
  187.5430  176.4550  143.5720 C   0  0  0  0  0  2  0  0  0  0  0  0
  186.0060  177.4920  145.2770 C   0  0  0  0  0  2  0  0  0  0  0  0
  187.1970  177.7270  144.3480 C   0  0  1  0  0  3  0  0  0  0  0  0
  188.0840  178.0220  145.5720 C   0  0  1  0  0  3  0  0  0  0  0  0
  186.8680  177.7940  146.4830 C   0  0  2  0  0  0  0  0  0  0  0  0
  186.9640  176.6880  147.3270 O   0  0  0  0  0  1  0  0  0  0  0  0
  191.6830  176.7360  145.0990 C   0  0  0  0  0  3  0  0  0  0  0  0
  189.2780  177.0820  145.7930 C   0  0  2  0  0  3  0  0  0  0  0  0
  189.8550  177.2810  147.1920 C   0  0  0  0  0  2  0  0  0  0  0  0
  190.9510  176.2500  147.4290 C   0  0  0  0  0  2  0  0  0  0  0  0
  190.3800  177.4290  144.7890 C   0  0  0  0  0  2  0  0  0  0  0  0
  191.9640  176.2460  146.3130 C   0  0  0  0  0  3  0  0  0  0  0  0
  186.9320  179.3080  148.4780 O   0  0  0  0  0  1  0  0  0  0  0  0
  185.6070  179.8230  146.6810 O   0  0  0  0  0  0  0  0  0  0  0  0
  186.4380  179.0340  147.2060 C   0  0  0  0  0  0  0  0  0  0  0  0
  189.9040  177.8570  136.9690 O   0  0  0  0  0  0  0  0  0  0  0  0
  188.9120  177.8000  135.9550 C   0  0  0  0  0  2  0  0  0  0  0  0
  187.5410  177.9070  136.5830 C   0  0  0  0  0  2  0  0  0  0  0  0
  186.4930  177.7510  135.5010 C   0  0  0  0  0  2  0  0  0  0  0  0
  186.0890  176.2970  135.3620 C   0  0  0  0  0  2  0  0  0  0  0  0
  184.9410  175.8890  136.7090 S   0  0  0  0  0  0  0  0  0  0  0  0
  183.2950  176.9370  135.8120 S   0  0  0  0  0  0  0  0  0  0  0  0
  182.4870  177.7400  138.2600 O   0  0  0  0  0  0  0  0  0  0  0  0
  182.0070  175.6700  139.2100 O   0  0  0  0  0  0  0  0  0  0  0  0
  182.0940  175.4770  137.8390 C   0  0  2  0  0  3  0  0  0  0  0  0
  182.1420  176.8570  137.2370 C   0  0  2  0  0  3  0  0  0  0  0  0
  182.5630  176.9440  139.4220 C   0  0  2  0  0  3  0  0  0  0  0  0
  181.3210  173.3780  136.6270 C   0  0  0  0  0  2  0  0  0  0  0  0
  180.0490  174.2680  138.4610 N   0  0  0  0  0  2  0  0  0  0  0  0
  179.6460  172.9330  138.2390 N   0  0  0  0  0  2  0  0  0  0  0  0
  180.9030  174.6450  137.3410 C   0  0  1  0  0  3  0  0  0  0  0  0
  180.2150  171.2200  136.6860 N   0  0  0  0  0  1  0  0  0  0  0  0
  180.7280  172.3100  137.5010 C   0  0  1  0  0  3  0  0  0  0  0  0
  181.7550  179.1360  140.2970 C   0  0  0  0  0  2  0  0  0  0  0  0
  182.7460  178.6120  141.3050 C   0  0  0  0  0  0  0  0  0  0  0  0
  182.4340  178.8890  142.6350 O   0  0  0  0  0  1  0  0  0  0  0  0
  181.8430  177.6340  140.5760 C   0  0  2  0  0  3  0  0  0  0  0  0
  184.0870  178.7110  140.9220 O   0  0  0  0  0  1  0  0  0  0  0  0
  1 18  1  0  0  0  0
  2  1  2  0  0  0  0
  3  4  1  0  0  0  0
  3  2  1  1  0  0  0
  5  6  1  0  0  0  0
  5  3  1  0  0  0  0
  6  7  1  6  0  0  0
  6  4  1  0  0  0  0
  7  9  1  0  0  0  0
  8 10  1  0  0  0  0
  8 15  1  0  0  0  0
  9 13  1  0  0  0  0
  9 10  1  0  0  0  0
 11 13  1  0  0  0  0
 11 14  1  1  0  0  0
 11 15  1  0  0  0  0
 12 15  1  0  0  0  0
 15 16  1  0  0  0  0
 17 19  1  0  0  0  0
 18 17  2  0  0  0  0
 19 20  3  0  0  0  0
 20 21  1  0  0  0  0
 22 25  1  0  0  0  0
 23 21  1  1  0  0  0
 23 22  1  0  0  0  0
 23 24  1  0  0  0  0
 24 28  1  1  0  0  0
 24 25  1  0  0  0  0
 25 35  1  0  0  0  0
 25 26  1  1  0  0  0
 27 32  2  0  0  0  0
 28 31  1  6  0  0  0
 28 29  1  0  0  0  0
 29 30  1  0  0  0  0
 31 27  1  0  0  0  0
 32 30  1  0  0  0  0
 34 35  2  0  0  0  0
 35 33  1  0  0  0  0
 36  1  1  0  0  0  0
 37 38  1  0  0  0  0
 37 36  1  0  0  0  0
 39 38  1  0  0  0  0
 40 39  1  0  0  0  0
 40 41  1  0  0  0  0
 42 41  1  0  0  0  0
 44 47  1  0  0  0  0
 45 44  1  1  0  0  0
 46 42  1  6  0  0  0
 46 45  1  0  0  0  0
 46 43  1  0  0  0  0
 47 43  1  6  0  0  0
 47 57  1  0  0  0  0
 48 53  1  0  0  0  0
 50 49  1  0  0  0  0
 51 48  1  1  0  0  0
 51 45  1  0  0  0  0
 51 49  1  0  0  0  0
 53 52  1  6  0  0  0
 53 50  1  0  0  0  0
 54 55  1  0  0  0  0
 55 56  1  0  0  0  0
 57 54  1  6  0  0  0
 57 55  1  0  0  0  0
 58 55  1  0  0  0  0
M  END
>  <MODEL>
2

>  <REMARK>
 VINA RESULT:      -7.2      3.746     11.386
  Name = 
  19 active torsions:
  status: ('A' for Active; 'I' for Inactive)
    1  A    between atoms: C_1  and  C_27
    2  A    between atoms: C_1  and  C_32
    3  A    between atoms: C_5  and  C_21
    4  A    between atoms: C_6  and  C_14
    5  A    between atoms: N_7  and  C_18
    6  A    between atoms: C_8  and  C_17
    7  A    between atoms: C_12  and  O_15
    8  A    between atoms: C_12  and  C_27
    9  A    between atoms: S_13  and  C_43
   10  A    between atoms: S_13  and  S_47
   11  A    between atoms: O_15  and  C_17
   12  A    between atoms: C_16  and  C_46
   13  A    between atoms: C_18  and  C_39
   14  A    between atoms: C_24  and  C_46
   15  A    between atoms: C_26  and  C_33
   16  A    between atoms: C_29  and  C_54
   17  A    between atoms: C_32  and  S_47
   18  A    between atoms: C_40  and  C_44
   19  A    between atoms: C_48  and  C_49
                            x       y       z     vdW  Elec       q    Type
                         _______ _______ _______ _____ _____    ______ ____

>  <TORSDO>
F 19

$$$$
=
 OpenBabel11042412483D

 58 64  0  0  1  0  0  0  0  0999 V2000
  189.4010  177.2990  138.2850 C   0  0  0  0  0  0  0  0  0  0  0  0
  190.5250  176.6240  138.0850 C   0  0  0  0  0  3  0  0  0  0  0  0
  191.3140  176.7370  136.8220 C   0  0  1  0  0  3  0  0  0  0  0  0
  193.0190  176.2110  137.1350 S   0  0  0  0  0  0  0  0  0  0  0  0
  190.9340  175.6640  135.9190 N   0  0  0  0  0  2  0  0  0  0  0  0
  192.2200  174.9930  136.0290 C   0  0  1  0  0  3  0  0  0  0  0  0
  192.8590  174.8810  134.6330 C   0  0  0  0  0  2  0  0  0  0  0  0
  196.6370  173.6200  134.6270 S   0  0  0  0  0  0  0  0  0  0  0  0
  193.9800  173.9500  134.5940 N   0  0  0  0  0  0  0  0  0  0  0  0
  195.1810  174.6440  135.0390 C   0  0  0  0  0  2  0  0  0  0  0  0
  194.6960  171.7630  135.3970 C   0  0  2  0  0  3  0  0  0  0  0  0
  197.0980  171.0560  135.3650 C   0  0  0  0  0  1  0  0  0  0  0  0
  193.7190  172.9180  135.5820 C   0  0  0  0  0  2  0  0  0  0  0  0
  194.2560  170.6170  136.3030 C   0  0  0  0  0  1  0  0  0  0  0  0
  196.1540  172.2050  135.6800 C   0  0  0  0  0  0  0  0  0  0  0  0
  196.3480  172.6040  137.1380 C   0  0  0  0  0  1  0  0  0  0  0  0
  189.2890  177.3240  140.7420 C   0  0  0  0  0  3  0  0  0  0  0  0
  188.7230  177.0960  139.5720 C   0  0  0  0  0  3  0  0  0  0  0  0
  188.5480  177.0630  141.9390 C   0  0  0  0  0  0  0  0  0  0  0  0
  187.9010  176.8430  142.9340 C   0  0  0  0  0  0  0  0  0  0  0  0
  187.0790  176.5460  144.1080 C   0  0  0  0  0  2  0  0  0  0  0  0
  185.9370  177.5890  146.0960 C   0  0  0  0  0  2  0  0  0  0  0  0
  186.9090  177.8200  144.9380 C   0  0  1  0  0  3  0  0  0  0  0  0
  188.0340  178.1110  145.9490 C   0  0  1  0  0  3  0  0  0  0  0  0
  187.0340  177.8880  147.0940 C   0  0  2  0  0  0  0  0  0  0  0  0
  187.2990  176.7810  147.9000 O   0  0  0  0  0  1  0  0  0  0  0  0
  191.6390  177.0400  145.1220 C   0  0  0  0  0  3  0  0  0  0  0  0
  189.2440  177.1660  145.9160 C   0  0  2  0  0  3  0  0  0  0  0  0
  189.8440  177.0270  147.3120 C   0  0  0  0  0  2  0  0  0  0  0  0
  190.9580  175.9890  147.2740 C   0  0  0  0  0  2  0  0  0  0  0  0
  190.3210  177.7660  145.0100 C   0  0  0  0  0  2  0  0  0  0  0  0
  191.9490  176.2740  146.1760 C   0  0  0  0  0  3  0  0  0  0  0  0
  185.7530  180.0010  147.5100 O   0  0  0  0  0  0  0  0  0  0  0  0
  187.4810  179.4070  148.8940 O   0  0  0  0  0  1  0  0  0  0  0  0
  186.7700  179.1290  147.8910 C   0  0  0  0  0  0  0  0  0  0  0  0
  188.9350  178.1660  137.2780 O   0  0  0  0  0  0  0  0  0  0  0  0
  187.9250  177.8160  136.3440 C   0  0  0  0  0  2  0  0  0  0  0  0
  186.5660  178.1280  136.9280 C   0  0  0  0  0  2  0  0  0  0  0  0
  185.6880  176.9000  136.8090 C   0  0  0  0  0  2  0  0  0  0  0  0
  184.7930  176.7690  138.0250 C   0  0  0  0  0  2  0  0  0  0  0  0
  183.8930  178.3310  138.2460 S   0  0  0  0  0  0  0  0  0  0  0  0
  182.0130  177.4970  137.6260 S   0  0  0  0  0  0  0  0  0  0  0  0
  180.4710  179.7140  137.5830 O   0  0  0  0  0  0  0  0  0  0  0  0
  181.1840  180.7220  139.5550 O   0  0  0  0  0  0  0  0  0  0  0  0
  181.6080  179.4030  139.5980 C   0  0  2  0  0  3  0  0  0  0  0  0
  180.9160  178.7160  138.4500 C   0  0  2  0  0  3  0  0  0  0  0  0
  180.8080  180.9280  138.2170 C   0  0  2  0  0  3  0  0  0  0  0  0
  182.4970  178.5090  141.8090 C   0  0  0  0  0  2  0  0  0  0  0  0
  180.3920  179.6620  141.7160 N   0  0  0  0  0  2  0  0  0  0  0  0
  180.8300  179.6310  143.0580 N   0  0  0  0  0  2  0  0  0  0  0  0
  181.2730  178.7790  140.9610 C   0  0  1  0  0  3  0  0  0  0  0  0
  182.6990  178.7190  144.2160 N   0  0  0  0  0  1  0  0  0  0  0  0
  182.2590  179.3880  143.0030 C   0  0  1  0  0  3  0  0  0  0  0  0
  179.0580  181.9110  136.7350 C   0  0  0  0  0  2  0  0  0  0  0  0
  179.9010  183.0620  137.2240 C   0  0  0  0  0  0  0  0  0  0  0  0
  179.1990  184.2410  137.4690 O   0  0  0  0  0  1  0  0  0  0  0  0
  179.6300  181.8940  138.1550 C   0  0  2  0  0  3  0  0  0  0  0  0
  181.1570  183.1710  136.6220 O   0  0  0  0  0  1  0  0  0  0  0  0
  1 18  1  0  0  0  0
  2  1  2  0  0  0  0
  3  4  1  0  0  0  0
  3  2  1  1  0  0  0
  5  6  1  0  0  0  0
  5  3  1  0  0  0  0
  6  7  1  6  0  0  0
  6  4  1  0  0  0  0
  8 10  1  0  0  0  0
  8 15  1  0  0  0  0
  9  7  1  0  0  0  0
  9 10  1  0  0  0  0
  9 13  1  0  0  0  0
 11 13  1  0  0  0  0
 11 15  1  0  0  0  0
 11 14  1  1  0  0  0
 12 15  1  0  0  0  0
 15 16  1  0  0  0  0
 17 19  1  0  0  0  0
 18 17  2  0  0  0  0
 19 20  3  0  0  0  0
 20 21  1  0  0  0  0
 22 25  1  0  0  0  0
 23 21  1  1  0  0  0
 23 24  1  0  0  0  0
 23 22  1  0  0  0  0
 24 28  1  1  0  0  0
 24 25  1  0  0  0  0
 25 35  1  0  0  0  0
 25 26  1  1  0  0  0
 27 32  2  0  0  0  0
 28 31  1  6  0  0  0
 28 29  1  0  0  0  0
 30 29  1  0  0  0  0
 31 27  1  0  0  0  0
 32 30  1  0  0  0  0
 33 35  2  0  0  0  0
 35 34  1  0  0  0  0
 36  1  1  0  0  0  0
 37 38  1  0  0  0  0
 37 36  1  0  0  0  0
 39 38  1  0  0  0  0
 39 40  1  0  0  0  0
 40 41  1  0  0  0  0
 42 41  1  0  0  0  0
 43 46  1  0  0  0  0
 45 44  1  1  0  0  0
 45 51  1  0  0  0  0
 46 42  1  6  0  0  0
 46 45  1  0  0  0  0
 47 43  1  1  0  0  0
 47 44  1  0  0  0  0
 48 53  1  0  0  0  0
 49 50  1  0  0  0  0
 51 49  1  0  0  0  0
 51 48  1  1  0  0  0
 53 50  1  0  0  0  0
 53 52  1  1  0  0  0
 54 55  1  0  0  0  0
 55 56  1  0  0  0  0
 55 57  1  0  0  0  0
 57 54  1  6  0  0  0
 57 47  1  0  0  0  0
 58 55  1  0  0  0  0
M  END
>  <MODEL>
3

>  <REMARK>
 VINA RESULT:      -6.9      2.994     11.445
  Name = 
  19 active torsions:
  status: ('A' for Active; 'I' for Inactive)
    1  A    between atoms: C_1  and  C_27
    2  A    between atoms: C_1  and  C_32
    3  A    between atoms: C_5  and  C_21
    4  A    between atoms: C_6  and  C_14
    5  A    between atoms: N_7  and  C_18
    6  A    between atoms: C_8  and  C_17
    7  A    between atoms: C_12  and  O_15
    8  A    between atoms: C_12  and  C_27
    9  A    between atoms: S_13  and  C_43
   10  A    between atoms: S_13  and  S_47
   11  A    between atoms: O_15  and  C_17
   12  A    between atoms: C_16  and  C_46
   13  A    between atoms: C_18  and  C_39
   14  A    between atoms: C_24  and  C_46
   15  A    between atoms: C_26  and  C_33
   16  A    between atoms: C_29  and  C_54
   17  A    between atoms: C_32  and  S_47
   18  A    between atoms: C_40  and  C_44
   19  A    between atoms: C_48  and  C_49
                            x       y       z     vdW  Elec       q    Type
                         _______ _______ _______ _____ _____    ______ ____

>  <TORSDO>
F 19

$$$$
=
 OpenBabel11042412483D

 58 64  0  0  1  0  0  0  0  0999 V2000
  183.5010  178.9230  140.7380 C   0  0  0  0  0  0  0  0  0  0  0  0
  182.6270  178.3860  141.5780 C   0  0  0  0  0  3  0  0  0  0  0  0
  181.1780  178.2460  141.2440 C   0  0  1  0  0  3  0  0  0  0  0  0
  180.7090  179.5450  140.0710 S   0  0  0  0  0  0  0  0  0  0  0  0
  180.9940  177.1040  140.3650 N   0  0  0  0  0  2  0  0  0  0  0  0
  180.6260  177.9270  139.2230 C   0  0  1  0  0  3  0  0  0  0  0  0
  179.2200  177.5290  138.7390 C   0  0  0  0  0  2  0  0  0  0  0  0
  179.9920  176.2860  135.0350 S   0  0  0  0  0  0  0  0  0  0  0  0
  179.2460  176.6430  137.5820 N   0  0  0  0  0  0  0  0  0  0  0  0
  180.2270  177.1470  136.6300 C   0  0  0  0  0  2  0  0  0  0  0  0
  179.5290  174.3060  136.9520 C   0  0  2  0  0  3  0  0  0  0  0  0
  180.0230  173.6130  134.5970 C   0  0  0  0  0  1  0  0  0  0  0  0
  179.7460  175.3570  138.0350 C   0  0  0  0  0  2  0  0  0  0  0  0
  179.8640  172.9390  137.5410 C   0  0  0  0  0  1  0  0  0  0  0  0
  180.3660  174.6170  135.6860 C   0  0  0  0  0  0  0  0  0  0  0  0
  181.8610  174.5360  135.9660 C   0  0  0  0  0  1  0  0  0  0  0  0
  185.4910  178.0580  141.8990 C   0  0  0  0  0  3  0  0  0  0  0  0
  184.8970  179.0000  141.1910 C   0  0  0  0  0  3  0  0  0  0  0  0
  186.8470  178.2490  142.3160 C   0  0  0  0  0  0  0  0  0  0  0  0
  187.9860  178.3930  142.6870 C   0  0  0  0  0  0  0  0  0  0  0  0
  189.3680  178.5140  143.1570 C   0  0  0  0  0  2  0  0  0  0  0  0
  191.4490  177.1470  143.5360 C   0  0  0  0  0  2  0  0  0  0  0  0
  189.9220  177.1200  143.4550 C   0  0  1  0  0  3  0  0  0  0  0  0
  189.8580  176.6790  144.9280 C   0  0  1  0  0  3  0  0  0  0  0  0
  191.3930  176.7000  144.9810 C   0  0  2  0  0  0  0  0  0  0  0  0
  191.9400  177.6620  145.8290 O   0  0  0  0  0  1  0  0  0  0  0  0
  186.8530  178.1180  146.8580 C   0  0  0  0  0  3  0  0  0  0  0  0
  189.1370  177.6290  145.8950 C   0  0  2  0  0  3  0  0  0  0  0  0
  189.5240  177.3110  147.3370 C   0  0  0  0  0  2  0  0  0  0  0  0
  188.8970  178.3460  148.2600 C   0  0  0  0  0  2  0  0  0  0  0  0
  187.6260  177.4190  145.7690 C   0  0  0  0  0  2  0  0  0  0  0  0
  187.4190  178.4940  148.0130 C   0  0  0  0  0  3  0  0  0  0  0  0
  192.1510  174.4750  144.1130 O   0  0  0  0  0  0  0  0  0  0  0  0
  192.3270  174.9640  146.3440 O   0  0  0  0  0  1  0  0  0  0  0  0
  191.9910  175.3420  145.1900 C   0  0  0  0  0  0  0  0  0  0  0  0
  183.0570  179.3690  139.4780 O   0  0  0  0  0  0  0  0  0  0  0  0
  183.7470  179.1120  138.2650 C   0  0  0  0  0  2  0  0  0  0  0  0
  184.5510  177.8380  138.4010 C   0  0  0  0  0  2  0  0  0  0  0  0
  185.7420  177.9090  137.4690 C   0  0  0  0  0  2  0  0  0  0  0  0
  187.0330  177.9450  138.2620 C   0  0  0  0  0  2  0  0  0  0  0  0
  188.3590  178.5380  137.1720 S   0  0  0  0  0  0  0  0  0  0  0  0
  189.9050  177.5370  138.2770 S   0  0  0  0  0  0  0  0  0  0  0  0
  189.0450  175.4550  136.7860 O   0  0  0  0  0  0  0  0  0  0  0  0
  190.7370  173.9240  137.2430 O   0  0  0  0  0  0  0  0  0  0  0  0
  191.2000  175.1700  137.6390 C   0  0  2  0  0  3  0  0  0  0  0  0
  190.2060  176.1630  137.0970 C   0  0  2  0  0  3  0  0  0  0  0  0
  189.3560  174.1060  137.0530 C   0  0  2  0  0  3  0  0  0  0  0  0
  193.6330  175.6370  138.2210 C   0  0  0  0  0  2  0  0  0  0  0  0
  193.0710  174.2450  136.3440 N   0  0  0  0  0  2  0  0  0  0  0  0
  194.4240  174.0240  136.6810 N   0  0  0  0  0  2  0  0  0  0  0  0
  192.6250  175.4000  137.1160 C   0  0  1  0  0  3  0  0  0  0  0  0
  195.9410  174.8970  138.2940 N   0  0  0  0  0  1  0  0  0  0  0  0
  194.5710  174.4770  138.0520 C   0  0  1  0  0  3  0  0  0  0  0  0
  187.3510  173.3260  135.7890 C   0  0  0  0  0  2  0  0  0  0  0  0
  187.9800  172.0970  136.3950 C   0  0  0  0  0  0  0  0  0  0  0  0
  187.9160  170.9530  135.6010 O   0  0  0  0  0  1  0  0  0  0  0  0
  188.8740  173.2220  135.9070 C   0  0  2  0  0  3  0  0  0  0  0  0
  187.7730  171.9430  137.7680 O   0  0  0  0  0  1  0  0  0  0  0  0
  1 18  1  0  0  0  0
  1  2  2  0  0  0  0
  3  2  1  6  0  0  0
  4  3  1  0  0  0  0
  5  3  1  0  0  0  0
  6  7  1  1  0  0  0
  6  4  1  0  0  0  0
  6  5  1  0  0  0  0
  8 15  1  0  0  0  0
  8 10  1  0  0  0  0
  9 13  1  0  0  0  0
  9  7  1  0  0  0  0
 10  9  1  0  0  0  0
 11 14  1  1  0  0  0
 11 13  1  0  0  0  0
 12 15  1  0  0  0  0
 15 16  1  0  0  0  0
 15 11  1  0  0  0  0
 17 19  1  0  0  0  0
 18 17  2  0  0  0  0
 19 20  3  0  0  0  0
 20 21  1  0  0  0  0
 22 25  1  0  0  0  0
 23 21  1  1  0  0  0
 23 22  1  0  0  0  0
 23 24  1  0  0  0  0
 24 25  1  0  0  0  0
 24 28  1  1  0  0  0
 25 35  1  0  0  0  0
 25 26  1  1  0  0  0
 27 32  2  0  0  0  0
 28 31  1  1  0  0  0
 28 29  1  0  0  0  0
 29 30  1  0  0  0  0
 31 27  1  0  0  0  0
 32 30  1  0  0  0  0
 33 35  2  0  0  0  0
 35 34  1  0  0  0  0
 36  1  1  0  0  0  0
 37 38  1  0  0  0  0
 37 36  1  0  0  0  0
 39 40  1  0  0  0  0
 39 38  1  0  0  0  0
 41 40  1  0  0  0  0
 41 42  1  0  0  0  0
 43 46  1  0  0  0  0
 45 44  1  6  0  0  0
 46 45  1  0  0  0  0
 46 42  1  1  0  0  0
 47 43  1  6  0  0  0
 47 44  1  0  0  0  0
 49 50  1  0  0  0  0
 49 51  1  0  0  0  0
 50 53  1  0  0  0  0
 51 45  1  0  0  0  0
 51 48  1  1  0  0  0
 53 48  1  0  0  0  0
 53 52  1  6  0  0  0
 54 55  1  0  0  0  0
 55 58  1  0  0  0  0
 56 55  1  0  0  0  0
 57 54  1  6  0  0  0
 57 55  1  0  0  0  0
 57 47  1  0  0  0  0
M  END
>  <MODEL>
4

>  <REMARK>
 VINA RESULT:      -6.7      2.426      3.288
  Name = 
  19 active torsions:
  status: ('A' for Active; 'I' for Inactive)
    1  A    between atoms: C_1  and  C_27
    2  A    between atoms: C_1  and  C_32
    3  A    between atoms: C_5  and  C_21
    4  A    between atoms: C_6  and  C_14
    5  A    between atoms: N_7  and  C_18
    6  A    between atoms: C_8  and  C_17
    7  A    between atoms: C_12  and  O_15
    8  A    between atoms: C_12  and  C_27
    9  A    between atoms: S_13  and  C_43
   10  A    between atoms: S_13  and  S_47
   11  A    between atoms: O_15  and  C_17
   12  A    between atoms: C_16  and  C_46
   13  A    between atoms: C_18  and  C_39
   14  A    between atoms: C_24  and  C_46
   15  A    between atoms: C_26  and  C_33
   16  A    between atoms: C_29  and  C_54
   17  A    between atoms: C_32  and  S_47
   18  A    between atoms: C_40  and  C_44
   19  A    between atoms: C_48  and  C_49
                            x       y       z     vdW  Elec       q    Type
                         _______ _______ _______ _____ _____    ______ ____

>  <TORSDO>
F 19

$$$$
=
 OpenBabel11042412483D

 58 64  0  0  1  0  0  0  0  0999 V2000
  187.6260  175.1520  135.5710 C   0  0  0  0  0  0  0  0  0  0  0  0
  187.0230  173.9780  135.7070 C   0  0  0  0  0  3  0  0  0  0  0  0
  185.5370  173.8350  135.7020 C   0  0  1  0  0  3  0  0  0  0  0  0
  184.9740  173.4050  137.3700 S   0  0  0  0  0  0  0  0  0  0  0  0
  184.9270  175.1510  135.6160 N   0  0  0  0  0  2  0  0  0  0  0  0
  184.3900  175.0900  136.9670 C   0  0  1  0  0  3  0  0  0  0  0  0
  182.8590  175.2420  136.9150 C   0  0  0  0  0  2  0  0  0  0  0  0
  180.9240  176.9320  139.9580 S   0  0  0  0  0  0  0  0  0  0  0  0
  182.3620  176.2960  137.7920 N   0  0  0  0  0  0  0  0  0  0  0  0
  181.8920  175.6910  139.0310 C   0  0  0  0  0  2  0  0  0  0  0  0
  183.0100  178.4060  138.8260 C   0  0  2  0  0  3  0  0  0  0  0  0
  181.7390  179.3930  140.7440 C   0  0  0  0  0  1  0  0  0  0  0  0
  183.4970  177.1270  138.1530 C   0  0  0  0  0  2  0  0  0  0  0  0
  184.2050  179.3410  138.9920 C   0  0  0  0  0  1  0  0  0  0  0  0
  182.3120  178.1040  140.1750 C   0  0  0  0  0  0  0  0  0  0  0  0
  183.2820  177.5150  141.1910 C   0  0  0  0  0  1  0  0  0  0  0  0
  189.8430  175.5890  134.5980 C   0  0  0  0  0  3  0  0  0  0  0  0
  189.0950  175.1530  135.5940 C   0  0  0  0  0  3  0  0  0  0  0  0
  191.2670  175.5150  134.7100 C   0  0  0  0  0  0  0  0  0  0  0  0
  192.4680  175.4650  134.8280 C   0  0  0  0  0  0  0  0  0  0  0  0
  193.9160  175.3990  135.0280 C   0  0  0  0  0  2  0  0  0  0  0  0
  195.7560  173.7180  135.3860 C   0  0  0  0  0  2  0  0  0  0  0  0
  194.2810  174.0400  135.6270 C   0  0  1  0  0  3  0  0  0  0  0  0
  194.5330  174.0270  137.1460 C   0  0  1  0  0  3  0  0  0  0  0  0
  196.0070  173.6900  136.8780 C   0  0  2  0  0  0  0  0  0  0  0  0
  196.9160  174.6780  137.2570 O   0  0  0  0  0  1  0  0  0  0  0  0
  192.3910  176.7070  138.8950 C   0  0  0  0  0  3  0  0  0  0  0  0
  194.2660  175.3420  137.8940 C   0  0  2  0  0  3  0  0  0  0  0  0
  194.7780  175.2460  139.3290 C   0  0  0  0  0  2  0  0  0  0  0  0
  194.6170  176.6010  140.0050 C   0  0  0  0  0  2  0  0  0  0  0  0
  192.7560  175.5820  137.9590 C   0  0  0  0  0  2  0  0  0  0  0  0
  193.2160  177.1360  139.8580 C   0  0  0  0  0  3  0  0  0  0  0  0
  197.6280  171.7840  137.0230 O   0  0  0  0  0  0  0  0  0  0  0  0
  195.6030  171.6620  138.0910 O   0  0  0  0  0  1  0  0  0  0  0  0
  196.3960  172.3310  137.3750 C   0  0  0  0  0  0  0  0  0  0  0  0
  186.8410  176.3090  135.4020 O   0  0  0  0  0  0  0  0  0  0  0  0
  187.0880  177.5320  136.0780 C   0  0  0  0  0  2  0  0  0  0  0  0
  187.2280  177.2710  137.5610 C   0  0  0  0  0  2  0  0  0  0  0  0
  187.7940  178.5080  138.2250 C   0  0  0  0  0  2  0  0  0  0  0  0
  189.2520  178.2990  138.5800 C   0  0  0  0  0  2  0  0  0  0  0  0
  189.3360  177.4430  140.1790 S   0  0  0  0  0  0  0  0  0  0  0  0
  187.4740  178.2600  140.8710 S   0  0  0  0  0  0  0  0  0  0  0  0
  189.2480  178.2910  142.9070 O   0  0  0  0  0  0  0  0  0  0  0  0
  188.2220  176.7740  144.3420 O   0  0  0  0  0  0  0  0  0  0  0  0
  187.2720  177.1520  143.4040 C   0  0  2  0  0  3  0  0  0  0  0  0
  187.8750  178.3150  142.6610 C   0  0  2  0  0  3  0  0  0  0  0  0
  189.4420  177.2240  143.8080 C   0  0  2  0  0  3  0  0  0  0  0  0
  186.0400  177.4620  145.6090 C   0  0  0  0  0  2  0  0  0  0  0  0
  185.5170  178.8410  143.7120 N   0  0  0  0  0  2  0  0  0  0  0  0
  185.0050  179.4590  144.8740 N   0  0  0  0  0  2  0  0  0  0  0  0
  185.9490  177.5030  144.0990 C   0  0  1  0  0  3  0  0  0  0  0  0
  184.9310  178.9260  147.1930 N   0  0  0  0  0  1  0  0  0  0  0  0
  185.7400  178.8850  145.9850 C   0  0  1  0  0  3  0  0  0  0  0  0
  191.7220  178.0770  144.3560 C   0  0  0  0  0  2  0  0  0  0  0  0
  191.5810  176.7500  145.0580 C   0  0  0  0  0  0  0  0  0  0  0  0
  192.1960  176.6780  146.3070 O   0  0  0  0  0  1  0  0  0  0  0  0
  190.3700  177.6570  144.9380 C   0  0  2  0  0  3  0  0  0  0  0  0
  191.6740  175.6300  144.2270 O   0  0  0  0  0  1  0  0  0  0  0  0
  1 18  1  0  0  0  0
  1  2  2  0  0  0  0
  3  2  1  1  0  0  0
  3  4  1  0  0  0  0
  5  3  1  0  0  0  0
  5  6  1  0  0  0  0
  6  7  1  6  0  0  0
  6  4  1  0  0  0  0
  7  9  1  0  0  0  0
  8 15  1  0  0  0  0
  9 13  1  0  0  0  0
  9 10  1  0  0  0  0
 10  8  1  0  0  0  0
 11 14  1  1  0  0  0
 11 15  1  0  0  0  0
 13 11  1  0  0  0  0
 15 12  1  0  0  0  0
 15 16  1  0  0  0  0
 17 19  1  0  0  0  0
 17 18  2  0  0  0  0
 19 20  3  0  0  0  0
 20 21  1  0  0  0  0
 22 23  1  0  0  0  0
 22 25  1  0  0  0  0
 23 21  1  6  0  0  0
 23 24  1  0  0  0  0
 24 28  1  6  0  0  0
 25 24  1  0  0  0  0
 25 26  1  1  0  0  0
 25 35  1  0  0  0  0
 27 32  2  0  0  0  0
 28 31  1  1  0  0  0
 28 29  1  0  0  0  0
 29 30  1  0  0  0  0
 31 27  1  0  0  0  0
 32 30  1  0  0  0  0
 33 35  2  0  0  0  0
 35 34  1  0  0  0  0
 36  1  1  0  0  0  0
 36 37  1  0  0  0  0
 37 38  1  0  0  0  0
 38 39  1  0  0  0  0
 39 40  1  0  0  0  0
 40 41  1  0  0  0  0
 41 42  1  0  0  0  0
 45 51  1  0  0  0  0
 45 44  1  1  0  0  0
 46 42  1  6  0  0  0
 46 43  1  0  0  0  0
 46 45  1  0  0  0  0
 47 43  1  6  0  0  0
 47 44  1  0  0  0  0
 47 57  1  0  0  0  0
 48 53  1  0  0  0  0
 49 51  1  0  0  0  0
 49 50  1  0  0  0  0
 50 53  1  0  0  0  0
 51 48  1  1  0  0  0
 53 52  1  1  0  0  0
 54 55  1  0  0  0  0
 55 56  1  0  0  0  0
 57 54  1  6  0  0  0
 57 55  1  0  0  0  0
 58 55  1  0  0  0  0
M  END
>  <MODEL>
5

>  <REMARK>
 VINA RESULT:      -6.3      3.867      8.786
  Name = 
  19 active torsions:
  status: ('A' for Active; 'I' for Inactive)
    1  A    between atoms: C_1  and  C_27
    2  A    between atoms: C_1  and  C_32
    3  A    between atoms: C_5  and  C_21
    4  A    between atoms: C_6  and  C_14
    5  A    between atoms: N_7  and  C_18
    6  A    between atoms: C_8  and  C_17
    7  A    between atoms: C_12  and  O_15
    8  A    between atoms: C_12  and  C_27
    9  A    between atoms: S_13  and  C_43
   10  A    between atoms: S_13  and  S_47
   11  A    between atoms: O_15  and  C_17
   12  A    between atoms: C_16  and  C_46
   13  A    between atoms: C_18  and  C_39
   14  A    between atoms: C_24  and  C_46
   15  A    between atoms: C_26  and  C_33
   16  A    between atoms: C_29  and  C_54
   17  A    between atoms: C_32  and  S_47
   18  A    between atoms: C_40  and  C_44
   19  A    between atoms: C_48  and  C_49
                            x       y       z     vdW  Elec       q    Type
                         _______ _______ _______ _____ _____    ______ ____

>  <TORSDO>
F 19

$$$$
=
 OpenBabel11042412483D

 58 64  0  0  1  0  0  0  0  0999 V2000
  188.5320  177.3170  136.3360 C   0  0  0  0  0  0  0  0  0  0  0  0
  189.2320  176.3410  135.7730 C   0  0  0  0  0  3  0  0  0  0  0  0
  190.6630  176.0840  136.1130 C   0  0  1  0  0  3  0  0  0  0  0  0
  190.8680  174.3360  136.5430 S   0  0  0  0  0  0  0  0  0  0  0  0
  191.4550  176.0860  134.8940 N   0  0  0  0  0  2  0  0  0  0  0  0
  191.7400  174.6610  134.9690 C   0  0  1  0  0  3  0  0  0  0  0  0
  193.2630  174.4470  135.0240 C   0  0  0  0  0  2  0  0  0  0  0  0
  194.0300  170.6280  135.8540 S   0  0  0  0  0  0  0  0  0  0  0  0
  193.6450  173.2770  135.8060 N   0  0  0  0  0  0  0  0  0  0  0  0
  193.9360  172.1790  134.8940 C   0  0  0  0  0  2  0  0  0  0  0  0
  195.2050  172.5350  137.5240 C   0  0  2  0  0  3  0  0  0  0  0  0
  195.6340  170.1090  137.9740 C   0  0  0  0  0  1  0  0  0  0  0  0
  194.8970  173.5930  136.4710 C   0  0  0  0  0  2  0  0  0  0  0  0
  196.4030  173.0120  138.3420 C   0  0  0  0  0  1  0  0  0  0  0  0
  195.4530  171.1490  136.8790 C   0  0  0  0  0  0  0  0  0  0  0  0
  196.6990  171.1510  136.0030 C   0  0  0  0  0  1  0  0  0  0  0  0
  186.1020  177.3120  136.7230 C   0  0  0  0  0  3  0  0  0  0  0  0
  187.1320  177.4610  135.9120 C   0  0  0  0  0  3  0  0  0  0  0  0
  184.7760  177.4430  136.2000 C   0  0  0  0  0  0  0  0  0  0  0  0
  183.6590  177.5280  135.7510 C   0  0  0  0  0  0  0  0  0  0  0  0
  182.2970  177.5760  135.2180 C   0  0  0  0  0  2  0  0  0  0  0  0
  182.1410  176.0150  137.1890 C   0  0  0  0  0  2  0  0  0  0  0  0
  181.3530  176.8540  136.1820 C   0  0  1  0  0  3  0  0  0  0  0  0
  180.7990  177.7090  137.3370 C   0  0  1  0  0  3  0  0  0  0  0  0
  181.5890  176.8430  138.3300 C   0  0  2  0  0  0  0  0  0  0  0  0
  182.6080  177.5080  139.0110 O   0  0  0  0  0  1  0  0  0  0  0  0
  180.3780  181.4100  136.3610 C   0  0  0  0  0  3  0  0  0  0  0  0
  181.1550  179.2030  137.3130 C   0  0  2  0  0  3  0  0  0  0  0  0
  180.8560  179.8390  138.6680 C   0  0  0  0  0  2  0  0  0  0  0  0
  181.3360  181.2830  138.6550 C   0  0  0  0  0  2  0  0  0  0  0  0
  180.2830  179.9080  136.2720 C   0  0  0  0  0  2  0  0  0  0  0  0
  180.8080  182.0380  137.4630 C   0  0  0  0  0  3  0  0  0  0  0  0
  179.5270  176.6060  139.7340 O   0  0  0  0  0  1  0  0  0  0  0  0
  181.0380  174.8870  139.6020 O   0  0  0  0  0  0  0  0  0  0  0  0
  180.7070  176.0500  139.2460 C   0  0  0  0  0  0  0  0  0  0  0  0
  189.1510  178.1370  137.2990 O   0  0  0  0  0  0  0  0  0  0  0  0
  189.2220  177.8120  138.6790 C   0  0  0  0  0  2  0  0  0  0  0  0
  188.1450  178.5610  139.4310 C   0  0  0  0  0  2  0  0  0  0  0  0
  188.4460  178.4940  140.9130 C   0  0  0  0  0  2  0  0  0  0  0  0
  188.2740  177.0770  141.4240 C   0  0  0  0  0  2  0  0  0  0  0  0
  187.7180  177.1540  143.1510 S   0  0  0  0  0  0  0  0  0  0  0  0
  186.4650  178.8660  142.8190 S   0  0  0  0  0  0  0  0  0  0  0  0
  183.8360  178.2550  142.8880 O   0  0  0  0  0  0  0  0  0  0  0  0
  183.2720  179.1930  144.9420 O   0  0  0  0  0  0  0  0  0  0  0  0
  184.6550  179.0980  144.9050 C   0  0  2  0  0  3  0  0  0  0  0  0
  184.9730  178.2580  143.6970 C   0  0  2  0  0  3  0  0  0  0  0  0
  182.8700  178.9850  143.6110 C   0  0  2  0  0  3  0  0  0  0  0  0
  186.3030  177.4980  146.0000 C   0  0  0  0  0  2  0  0  0  0  0  0
  185.6790  179.5440  147.0930 N   0  0  0  0  0  2  0  0  0  0  0  0
  186.8610  179.0560  147.6910 N   0  0  0  0  0  2  0  0  0  0  0  0
  185.1820  178.4920  146.2140 C   0  0  1  0  0  3  0  0  0  0  0  0
  188.2460  177.1400  147.4080 N   0  0  0  0  0  1  0  0  0  0  0  0
  187.4470  178.1460  146.7250 C   0  0  1  0  0  3  0  0  0  0  0  0
  180.9280  178.3410  142.1830 C   0  0  0  0  0  2  0  0  0  0  0  0
  180.3740  179.1890  143.3010 C   0  0  0  0  0  0  0  0  0  0  0  0
  179.1190  178.8000  143.7660 O   0  0  0  0  0  1  0  0  0  0  0  0
  181.5330  178.2510  143.5860 C   0  0  2  0  0  3  0  0  0  0  0  0
  180.6250  180.5580  143.1830 O   0  0  0  0  0  1  0  0  0  0  0  0
  1 36  1  0  0  0  0
  2  1  2  0  0  0  0
  3  2  1  6  0  0  0
  3  4  1  0  0  0  0
  5  6  1  0  0  0  0
  5  3  1  0  0  0  0
  6  7  1  1  0  0  0
  6  4  1  0  0  0  0
  7  9  1  0  0  0  0
  8 15  1  0  0  0  0
  9 13  1  0  0  0  0
 10  9  1  0  0  0  0
 10  8  1  0  0  0  0
 11 14  1  6  0  0  0
 13 11  1  0  0  0  0
 15 11  1  0  0  0  0
 15 12  1  0  0  0  0
 16 15  1  0  0  0  0
 18  1  1  0  0  0  0
 18 17  2  0  0  0  0
 19 17  1  0  0  0  0
 20 19  3  0  0  0  0
 21 20  1  0  0  0  0
 22 25  1  0  0  0  0
 23 21  1  6  0  0  0
 23 22  1  0  0  0  0
 23 24  1  0  0  0  0
 24 28  1  6  0  0  0
 24 25  1  0  0  0  0
 25 26  1  1  0  0  0
 25 35  1  0  0  0  0
 27 32  2  0  0  0  0
 28 31  1  6  0  0  0
 28 29  1  0  0  0  0
 30 29  1  0  0  0  0
 31 27  1  0  0  0  0
 32 30  1  0  0  0  0
 35 34  2  0  0  0  0
 35 33  1  0  0  0  0
 36 37  1  0  0  0  0
 37 38  1  0  0  0  0
 38 39  1  0  0  0  0
 39 40  1  0  0  0  0
 40 41  1  0  0  0  0
 42 41  1  0  0  0  0
 43 46  1  0  0  0  0
 45 44  1  1  0  0  0
 45 51  1  0  0  0  0
 46 42  1  6  0  0  0
 46 45  1  0  0  0  0
 47 43  1  6  0  0  0
 47 44  1  0  0  0  0
 48 53  1  0  0  0  0
 49 50  1  0  0  0  0
 51 48  1  6  0  0  0
 51 49  1  0  0  0  0
 53 52  1  1  0  0  0
 53 50  1  0  0  0  0
 54 55  1  0  0  0  0
 55 57  1  0  0  0  0
 55 56  1  0  0  0  0
 57 54  1  6  0  0  0
 57 47  1  0  0  0  0
 58 55  1  0  0  0  0
M  END
>  <MODEL>
6

>  <REMARK>
 VINA RESULT:      -6.3      4.157     12.578
  Name = 
  19 active torsions:
  status: ('A' for Active; 'I' for Inactive)
    1  A    between atoms: C_1  and  C_27
    2  A    between atoms: C_1  and  C_32
    3  A    between atoms: C_5  and  C_21
    4  A    between atoms: C_6  and  C_14
    5  A    between atoms: N_7  and  C_18
    6  A    between atoms: C_8  and  C_17
    7  A    between atoms: C_12  and  O_15
    8  A    between atoms: C_12  and  C_27
    9  A    between atoms: S_13  and  C_43
   10  A    between atoms: S_13  and  S_47
   11  A    between atoms: O_15  and  C_17
   12  A    between atoms: C_16  and  C_46
   13  A    between atoms: C_18  and  C_39
   14  A    between atoms: C_24  and  C_46
   15  A    between atoms: C_26  and  C_33
   16  A    between atoms: C_29  and  C_54
   17  A    between atoms: C_32  and  S_47
   18  A    between atoms: C_40  and  C_44
   19  A    between atoms: C_48  and  C_49
                            x       y       z     vdW  Elec       q    Type
                         _______ _______ _______ _____ _____    ______ ____

>  <TORSDO>
F 19

$$$$
=
 OpenBabel11042412483D

 58 64  0  0  1  0  0  0  0  0999 V2000
  187.5670  174.5660  135.7510 C   0  0  0  0  0  0  0  0  0  0  0  0
  187.0180  173.3600  135.7950 C   0  0  0  0  0  3  0  0  0  0  0  0
  185.5400  173.1540  135.8660 C   0  0  1  0  0  3  0  0  0  0  0  0
  185.0140  173.2020  137.5990 S   0  0  0  0  0  0  0  0  0  0  0  0
  184.8640  174.3600  135.4160 N   0  0  0  0  0  2  0  0  0  0  0  0
  184.3430  174.6700  136.7390 C   0  0  1  0  0  3  0  0  0  0  0  0
  182.8060  174.7300  136.6800 C   0  0  0  0  0  2  0  0  0  0  0  0
  180.7970  176.5770  139.5810 S   0  0  0  0  0  0  0  0  0  0  0  0
  182.2500  175.8290  137.4610 N   0  0  0  0  0  0  0  0  0  0  0  0
  181.8350  175.3170  138.7600 C   0  0  0  0  0  2  0  0  0  0  0  0
  182.7680  178.0660  138.2770 C   0  0  2  0  0  3  0  0  0  0  0  0
  181.4560  179.1490  140.1140 C   0  0  0  0  0  1  0  0  0  0  0  0
  183.3310  176.7630  137.7210 C   0  0  0  0  0  2  0  0  0  0  0  0
  183.9000  179.0880  138.3330 C   0  0  0  0  0  1  0  0  0  0  0  0
  182.1070  177.8510  139.6610 C   0  0  0  0  0  0  0  0  0  0  0  0
  183.1250  177.4270  140.7120 C   0  0  0  0  0  1  0  0  0  0  0  0
  189.6980  175.1720  134.6820 C   0  0  0  0  0  3  0  0  0  0  0  0
  189.0330  174.6280  135.6840 C   0  0  0  0  0  3  0  0  0  0  0  0
  191.1290  175.1510  134.7010 C   0  0  0  0  0  0  0  0  0  0  0  0
  192.3350  175.1440  134.7400 C   0  0  0  0  0  0  0  0  0  0  0  0
  193.7950  175.1270  134.8450 C   0  0  0  0  0  2  0  0  0  0  0  0
  195.7540  173.7320  135.5920 C   0  0  0  0  0  2  0  0  0  0  0  0
  194.2320  173.8760  135.6080 C   0  0  1  0  0  3  0  0  0  0  0  0
  194.2670  174.0090  137.1410 C   0  0  1  0  0  3  0  0  0  0  0  0
  195.7940  173.8490  137.1000 C   0  0  2  0  0  0  0  0  0  0  0  0
  196.5160  174.9720  137.5010 O   0  0  0  0  0  1  0  0  0  0  0  0
  191.6710  176.3710  138.7260 C   0  0  0  0  0  3  0  0  0  0  0  0
  193.7440  175.3300  137.7250 C   0  0  2  0  0  3  0  0  0  0  0  0
  194.3670  175.5880  139.0940 C   0  0  0  0  0  2  0  0  0  0  0  0
  193.9310  176.9600  139.5890 C   0  0  0  0  0  2  0  0  0  0  0  0
  192.2300  175.2240  137.9220 C   0  0  0  0  0  2  0  0  0  0  0  0
  192.4350  177.1270  139.5250 C   0  0  0  0  0  3  0  0  0  0  0  0
  195.4770  171.9670  138.7250 O   0  0  0  0  0  1  0  0  0  0  0  0
  197.3970  172.1080  137.4820 O   0  0  0  0  0  0  0  0  0  0  0  0
  196.2690  172.5930  137.7650 C   0  0  0  0  0  0  0  0  0  0  0  0
  186.7310  175.7000  135.7580 O   0  0  0  0  0  0  0  0  0  0  0  0
  187.1760  177.0030  136.1020 C   0  0  0  0  0  2  0  0  0  0  0  0
  186.7990  177.3040  137.5350 C   0  0  0  0  0  2  0  0  0  0  0  0
  187.8310  178.2400  138.1270 C   0  0  0  0  0  2  0  0  0  0  0  0
  188.6710  177.5180  139.1600 C   0  0  0  0  0  2  0  0  0  0  0  0
  188.5480  178.4190  140.7320 S   0  0  0  0  0  0  0  0  0  0  0  0
  189.3310  176.7880  141.8900 S   0  0  0  0  0  0  0  0  0  0  0  0
  186.8490  177.3350  142.8030 O   0  0  0  0  0  0  0  0  0  0  0  0
  187.3910  178.2590  144.8700 O   0  0  0  0  0  0  0  0  0  0  0  0
  188.5190  177.5950  144.4140 C   0  0  2  0  0  3  0  0  0  0  0  0
  188.0670  176.7970  143.2200 C   0  0  2  0  0  3  0  0  0  0  0  0
  186.5540  178.3450  143.7430 C   0  0  2  0  0  3  0  0  0  0  0  0
  190.6210  176.7920  145.6030 C   0  0  0  0  0  2  0  0  0  0  0  0
  188.5810  177.1340  146.8260 N   0  0  0  0  0  2  0  0  0  0  0  0
  189.6530  177.0840  147.7430 N   0  0  0  0  0  2  0  0  0  0  0  0
  189.1110  176.7220  145.5310 C   0  0  1  0  0  3  0  0  0  0  0  0
  192.0050  176.7450  147.5950 N   0  0  0  0  0  1  0  0  0  0  0  0
  190.8480  177.3690  146.9710 C   0  0  1  0  0  3  0  0  0  0  0  0
  184.4440  179.6280  144.1010 C   0  0  0  0  0  2  0  0  0  0  0  0
  184.8200  179.0410  145.4380 C   0  0  0  0  0  0  0  0  0  0  0  0
  183.7440  178.6300  146.2230 O   0  0  0  0  0  1  0  0  0  0  0  0
  185.0950  178.2440  144.1760 C   0  0  2  0  0  3  0  0  0  0  0  0
  185.8850  179.6770  146.0830 O   0  0  0  0  0  1  0  0  0  0  0  0
  1 36  1  0  0  0  0
  1  2  2  0  0  0  0
  3  2  1  1  0  0  0
  3  4  1  0  0  0  0
  5  3  1  0  0  0  0
  5  6  1  0  0  0  0
  6  7  1  6  0  0  0
  6  4  1  0  0  0  0
  7  9  1  0  0  0  0
  8 15  1  0  0  0  0
  9 13  1  0  0  0  0
  9 10  1  0  0  0  0
 10  8  1  0  0  0  0
 11 14  1  1  0  0  0
 11 15  1  0  0  0  0
 13 11  1  0  0  0  0
 15 12  1  0  0  0  0
 15 16  1  0  0  0  0
 17 19  1  0  0  0  0
 17 18  2  0  0  0  0
 18  1  1  0  0  0  0
 19 20  3  0  0  0  0
 20 21  1  0  0  0  0
 22 23  1  0  0  0  0
 22 25  1  0  0  0  0
 23 21  1  6  0  0  0
 23 24  1  0  0  0  0
 24 28  1  6  0  0  0
 25 24  1  0  0  0  0
 25 26  1  1  0  0  0
 25 35  1  0  0  0  0
 27 32  2  0  0  0  0
 28 31  1  1  0  0  0
 28 29  1  0  0  0  0
 29 30  1  0  0  0  0
 31 27  1  0  0  0  0
 32 30  1  0  0  0  0
 34 35  2  0  0  0  0
 35 33  1  0  0  0  0
 36 37  1  0  0  0  0
 37 38  1  0  0  0  0
 38 39  1  0  0  0  0
 39 40  1  0  0  0  0
 40 41  1  0  0  0  0
 41 42  1  0  0  0  0
 43 46  1  0  0  0  0
 45 44  1  1  0  0  0
 45 51  1  0  0  0  0
 46 42  1  6  0  0  0
 46 45  1  0  0  0  0
 47 43  1  6  0  0  0
 47 57  1  0  0  0  0
 47 44  1  0  0  0  0
 48 53  1  0  0  0  0
 49 50  1  0  0  0  0
 51 48  1  1  0  0  0
 51 49  1  0  0  0  0
 53 52  1  1  0  0  0
 53 50  1  0  0  0  0
 54 55  1  0  0  0  0
 55 58  1  0  0  0  0
 55 56  1  0  0  0  0
 57 54  1  6  0  0  0
 57 55  1  0  0  0  0
M  END
>  <MODEL>
7

>  <REMARK>
 VINA RESULT:      -6.3      4.007      8.667
  Name = 
  19 active torsions:
  status: ('A' for Active; 'I' for Inactive)
    1  A    between atoms: C_1  and  C_27
    2  A    between atoms: C_1  and  C_32
    3  A    between atoms: C_5  and  C_21
    4  A    between atoms: C_6  and  C_14
    5  A    between atoms: N_7  and  C_18
    6  A    between atoms: C_8  and  C_17
    7  A    between atoms: C_12  and  O_15
    8  A    between atoms: C_12  and  C_27
    9  A    between atoms: S_13  and  C_43
   10  A    between atoms: S_13  and  S_47
   11  A    between atoms: O_15  and  C_17
   12  A    between atoms: C_16  and  C_46
   13  A    between atoms: C_18  and  C_39
   14  A    between atoms: C_24  and  C_46
   15  A    between atoms: C_26  and  C_33
   16  A    between atoms: C_29  and  C_54
   17  A    between atoms: C_32  and  S_47
   18  A    between atoms: C_40  and  C_44
   19  A    between atoms: C_48  and  C_49
                            x       y       z     vdW  Elec       q    Type
                         _______ _______ _______ _____ _____    ______ ____

>  <TORSDO>
F 19

$$$$
=
 OpenBabel11042412483D

 58 64  0  0  1  0  0  0  0  0999 V2000
  190.7070  177.1980  139.6120 C   0  0  0  0  0  0  0  0  0  0  0  0
  191.0950  176.9560  140.8560 C   0  0  0  0  0  3  0  0  0  0  0  0
  190.4920  177.6490  142.0330 C   0  0  1  0  0  3  0  0  0  0  0  0
  189.4550  176.4770  142.9470 S   0  0  0  0  0  0  0  0  0  0  0  0
  191.5120  177.8500  143.0490 N   0  0  0  0  0  2  0  0  0  0  0  0
  190.9060  176.9040  143.9740 C   0  0  1  0  0  3  0  0  0  0  0  0
  190.5680  177.6250  145.2920 C   0  0  0  0  0  2  0  0  0  0  0  0
  187.5280  177.1480  147.8200 S   0  0  0  0  0  0  0  0  0  0  0  0
  189.2070  177.3700  145.7460 N   0  0  0  0  0  0  0  0  0  0  0  0
  189.0840  177.8110  147.1290 C   0  0  0  0  0  2  0  0  0  0  0  0
  186.8760  177.8070  145.1850 C   0  0  2  0  0  3  0  0  0  0  0  0
  185.0260  177.4880  146.8420 C   0  0  0  0  0  1  0  0  0  0  0  0
  188.3260  178.2260  144.9700 C   0  0  0  0  0  2  0  0  0  0  0  0
  186.0060  178.5790  144.1960 C   0  0  0  0  0  1  0  0  0  0  0  0
  186.4330  178.0320  146.6520 C   0  0  0  0  0  0  0  0  0  0  0  0
  186.4340  179.5110  147.0190 C   0  0  0  0  0  1  0  0  0  0  0  0
  191.0240  175.2370  138.1610 C   0  0  0  0  0  3  0  0  0  0  0  0
  191.3830  176.4470  138.5450 C   0  0  0  0  0  3  0  0  0  0  0  0
  191.7730  174.5810  137.1330 C   0  0  0  0  0  0  0  0  0  0  0  0
  192.4220  174.0220  136.2830 C   0  0  0  0  0  0  0  0  0  0  0  0
  193.2300  173.3080  135.2920 C   0  0  0  0  0  2  0  0  0  0  0  0
  194.4830  175.4500  135.7180 C   0  0  0  0  0  2  0  0  0  0  0  0
  194.3770  174.2090  134.8320 C   0  0  1  0  0  3  0  0  0  0  0  0
  195.7840  173.7760  135.2810 C   0  0  1  0  0  3  0  0  0  0  0  0
  195.8720  175.0380  136.1530 C   0  0  2  0  0  0  0  0  0  0  0  0
  195.9240  174.8020  137.5260 O   0  0  0  0  0  1  0  0  0  0  0  0
  195.7760  169.9410  135.6320 C   0  0  0  0  0  3  0  0  0  0  0  0
  195.8830  172.4350  136.0230 C   0  0  2  0  0  3  0  0  0  0  0  0
  197.3260  172.1680  136.4440 C   0  0  0  0  0  2  0  0  0  0  0  0
  197.3720  170.9000  137.2850 C   0  0  0  0  0  2  0  0  0  0  0  0
  195.4650  171.3080  135.0760 C   0  0  0  0  0  2  0  0  0  0  0  0
  196.6810  169.7500  136.6010 C   0  0  0  0  0  3  0  0  0  0  0  0
  196.5910  177.3010  135.3510 O   0  0  0  0  0  0  0  0  0  0  0  0
  198.1290  175.6180  135.5880 O   0  0  0  0  0  1  0  0  0  0  0  0
  196.9300  175.9940  135.6940 C   0  0  0  0  0  0  0  0  0  0  0  0
  189.6780  178.1340  139.3850 O   0  0  0  0  0  0  0  0  0  0  0  0
  188.3060  177.7850  139.2880 C   0  0  0  0  0  2  0  0  0  0  0  0
  187.8780  177.8180  137.8380 C   0  0  0  0  0  2  0  0  0  0  0  0
  187.8440  176.4000  137.3050 C   0  0  0  0  0  2  0  0  0  0  0  0
  186.4340  176.0220  136.8980 C   0  0  0  0  0  2  0  0  0  0  0  0
  185.3590  177.4640  137.1470 S   0  0  0  0  0  0  0  0  0  0  0  0
  183.7560  176.6450  135.9750 S   0  0  0  0  0  0  0  0  0  0  0  0
  182.7250  177.6890  138.2420 O   0  0  0  0  0  0  0  0  0  0  0  0
  181.9640  175.7380  139.2570 O   0  0  0  0  0  0  0  0  0  0  0  0
  182.2010  175.4360  137.9250 C   0  0  2  0  0  3  0  0  0  0  0  0
  182.4350  176.7590  137.2440 C   0  0  2  0  0  3  0  0  0  0  0  0
  182.5930  176.9800  139.4540 C   0  0  2  0  0  3  0  0  0  0  0  0
  181.4090  173.3140  136.7660 C   0  0  0  0  0  2  0  0  0  0  0  0
  180.0020  174.4320  138.3610 N   0  0  0  0  0  2  0  0  0  0  0  0
  179.5190  173.1180  138.1770 N   0  0  0  0  0  2  0  0  0  0  0  0
  181.0140  174.6590  137.3360 C   0  0  1  0  0  3  0  0  0  0  0  0
  180.1290  171.2540  136.8270 N   0  0  0  0  0  1  0  0  0  0  0  0
  180.6280  172.3620  137.6260 C   0  0  1  0  0  3  0  0  0  0  0  0
  182.0240  179.2960  140.1860 C   0  0  0  0  0  2  0  0  0  0  0  0
  182.7020  178.6310  141.3580 C   0  0  0  0  0  0  0  0  0  0  0  0
  182.1970  178.9850  142.6080 O   0  0  0  0  0  1  0  0  0  0  0  0
  181.7990  177.8070  140.4590 C   0  0  2  0  0  3  0  0  0  0  0  0
  184.0870  178.4920  141.2370 O   0  0  0  0  0  1  0  0  0  0  0  0
  1  2  2  0  0  0  0
  3  2  1  6  0  0  0
  3  4  1  0  0  0  0
  3  5  1  0  0  0  0
  4  6  1  0  0  0  0
  5  6  1  0  0  0  0
  6  7  1  1  0  0  0
  7  9  1  0  0  0  0
  9 10  1  0  0  0  0
 10  8  1  0  0  0  0
 11 14  1  6  0  0  0
 11 15  1  0  0  0  0
 13 11  1  0  0  0  0
 13  9  1  0  0  0  0
 15 12  1  0  0  0  0
 15 16  1  0  0  0  0
 15  8  1  0  0  0  0
 17 18  2  0  0  0  0
 18  1  1  0  0  0  0
 19 17  1  0  0  0  0
 20 19  3  0  0  0  0
 21 20  1  0  0  0  0
 22 25  1  0  0  0  0
 23 24  1  0  0  0  0
 23 21  1  1  0  0  0
 23 22  1  0  0  0  0
 24 28  1  1  0  0  0
 24 25  1  0  0  0  0
 25 26  1  1  0  0  0
 27 32  2  0  0  0  0
 28 31  1  6  0  0  0
 28 29  1  0  0  0  0
 29 30  1  0  0  0  0
 31 27  1  0  0  0  0
 32 30  1  0  0  0  0
 33 35  2  0  0  0  0
 34 35  1  0  0  0  0
 35 25  1  0  0  0  0
 36  1  1  0  0  0  0
 37 36  1  0  0  0  0
 38 37  1  0  0  0  0
 39 38  1  0  0  0  0
 40 41  1  0  0  0  0
 40 39  1  0  0  0  0
 42 41  1  0  0  0  0
 44 47  1  0  0  0  0
 45 44  1  1  0  0  0
 46 42  1  6  0  0  0
 46 45  1  0  0  0  0
 46 43  1  0  0  0  0
 47 43  1  6  0  0  0
 47 57  1  0  0  0  0
 48 53  1  0  0  0  0
 50 49  1  0  0  0  0
 51 48  1  1  0  0  0
 51 45  1  0  0  0  0
 51 49  1  0  0  0  0
 53 52  1  6  0  0  0
 53 50  1  0  0  0  0
 54 55  1  0  0  0  0
 55 56  1  0  0  0  0
 57 54  1  6  0  0  0
 57 55  1  0  0  0  0
 58 55  1  0  0  0  0
M  END
>  <MODEL>
8

>  <REMARK>
 VINA RESULT:      -6.3      4.360     11.065
  Name = 
  19 active torsions:
  status: ('A' for Active; 'I' for Inactive)
    1  A    between atoms: C_1  and  C_27
    2  A    between atoms: C_1  and  C_32
    3  A    between atoms: C_5  and  C_21
    4  A    between atoms: C_6  and  C_14
    5  A    between atoms: N_7  and  C_18
    6  A    between atoms: C_8  and  C_17
    7  A    between atoms: C_12  and  O_15
    8  A    between atoms: C_12  and  C_27
    9  A    between atoms: S_13  and  C_43
   10  A    between atoms: S_13  and  S_47
   11  A    between atoms: O_15  and  C_17
   12  A    between atoms: C_16  and  C_46
   13  A    between atoms: C_18  and  C_39
   14  A    between atoms: C_24  and  C_46
   15  A    between atoms: C_26  and  C_33
   16  A    between atoms: C_29  and  C_54
   17  A    between atoms: C_32  and  S_47
   18  A    between atoms: C_40  and  C_44
   19  A    between atoms: C_48  and  C_49
                            x       y       z     vdW  Elec       q    Type
                         _______ _______ _______ _____ _____    ______ ____

>  <TORSDO>
F 19

$$$$
=
 OpenBabel11042412483D

 58 64  0  0  1  0  0  0  0  0999 V2000
  186.8740  175.7990  135.4530 C   0  0  0  0  0  0  0  0  0  0  0  0
  187.4240  174.5930  135.4420 C   0  0  0  0  0  3  0  0  0  0  0  0
  188.6870  174.2950  134.7030 C   0  0  1  0  0  3  0  0  0  0  0  0
  190.1040  174.6550  135.7740 S   0  0  0  0  0  0  0  0  0  0  0  0
  188.8630  172.8550  134.6120 N   0  0  0  0  0  2  0  0  0  0  0  0
  190.0150  172.8490  135.5010 C   0  0  1  0  0  3  0  0  0  0  0  0
  191.2270  172.2530  134.7610 C   0  0  0  0  0  2  0  0  0  0  0  0
  194.5200  170.4830  136.1350 S   0  0  0  0  0  0  0  0  0  0  0  0
  192.3530  171.9770  135.6460 N   0  0  0  0  0  0  0  0  0  0  0  0
  193.3160  171.1490  134.9330 C   0  0  0  0  0  2  0  0  0  0  0  0
  194.0210  173.0780  137.0410 C   0  0  2  0  0  3  0  0  0  0  0  0
  196.0690  171.8900  137.8530 C   0  0  0  0  0  1  0  0  0  0  0  0
  193.0190  173.2420  135.9030 C   0  0  0  0  0  2  0  0  0  0  0  0
  194.5380  174.4620  137.4230 C   0  0  0  0  0  1  0  0  0  0  0  0
  195.1680  172.1140  136.6490 C   0  0  0  0  0  0  0  0  0  0  0  0
  196.0110  172.6750  135.5110 C   0  0  0  0  0  1  0  0  0  0  0  0
  185.5650  176.5610  137.3910 C   0  0  0  0  0  3  0  0  0  0  0  0
  185.6310  175.9570  136.2200 C   0  0  0  0  0  3  0  0  0  0  0  0
  184.3070  176.6320  138.0700 C   0  0  0  0  0  0  0  0  0  0  0  0
  183.2510  176.7170  138.6480 C   0  0  0  0  0  0  0  0  0  0  0  0
  181.9670  176.8750  139.3330 C   0  0  0  0  0  2  0  0  0  0  0  0
  182.2240  178.9980  138.0030 C   0  0  0  0  0  2  0  0  0  0  0  0
  181.2550  178.1160  138.7910 C   0  0  1  0  0  3  0  0  0  0  0  0
  180.4210  177.9020  137.5150 C   0  0  1  0  0  3  0  0  0  0  0  0
  181.4010  178.8020  136.7480 C   0  0  2  0  0  0  0  0  0  0  0  0
  182.1380  178.1590  135.7550 O   0  0  0  0  0  1  0  0  0  0  0  0
  179.0120  174.3200  137.4140 C   0  0  0  0  0  3  0  0  0  0  0  0
  180.3000  176.4550  137.0130 C   0  0  2  0  0  3  0  0  0  0  0  0
  179.6470  176.4280  135.6330 C   0  0  0  0  0  2  0  0  0  0  0  0
  179.6570  174.9990  135.1070 C   0  0  0  0  0  2  0  0  0  0  0  0
  179.3960  175.6700  137.9650 C   0  0  0  0  0  2  0  0  0  0  0  0
  179.0810  174.0310  136.1080 C   0  0  0  0  0  3  0  0  0  0  0  0
  179.7170  180.6450  136.9720 O   0  0  0  0  0  1  0  0  0  0  0  0
  181.1730  180.6200  135.2020 O   0  0  0  0  0  0  0  0  0  0  0  0
  180.7720  180.0730  136.2640 C   0  0  0  0  0  0  0  0  0  0  0  0
  187.5050  176.8460  134.7540 O   0  0  0  0  0  0  0  0  0  0  0  0
  188.5090  177.6760  135.3190 C   0  0  0  0  0  2  0  0  0  0  0  0
  187.8580  178.7830  136.1180 C   0  0  0  0  0  2  0  0  0  0  0  0
  188.6240  178.9680  137.4110 C   0  0  0  0  0  2  0  0  0  0  0  0
  189.6440  177.8600  137.5860 C   0  0  0  0  0  2  0  0  0  0  0  0
  189.7460  177.4480  139.3510 S   0  0  0  0  0  0  0  0  0  0  0  0
  187.8050  178.2540  139.7950 S   0  0  0  0  0  0  0  0  0  0  0  0
  189.3620  178.2540  142.0020 O   0  0  0  0  0  0  0  0  0  0  0  0
  187.8040  177.5380  143.5760 O   0  0  0  0  0  0  0  0  0  0  0  0
  187.0930  177.9390  142.4550 C   0  0  2  0  0  3  0  0  0  0  0  0
  188.0920  178.6340  141.5670 C   0  0  2  0  0  3  0  0  0  0  0  0
  189.1350  177.4430  143.1330 C   0  0  2  0  0  3  0  0  0  0  0  0
  184.7690  178.8020  141.8830 C   0  0  0  0  0  2  0  0  0  0  0  0
  185.4110  178.4470  144.1710 N   0  0  0  0  0  2  0  0  0  0  0  0
  184.0030  178.5340  144.1050 N   0  0  0  0  0  2  0  0  0  0  0  0
  185.9210  178.8430  142.8630 C   0  0  1  0  0  3  0  0  0  0  0  0
  182.3990  178.9120  142.3870 N   0  0  0  0  0  1  0  0  0  0  0  0
  183.6520  178.2560  142.7250 C   0  0  1  0  0  3  0  0  0  0  0  0
  191.4780  178.1000  143.6840 C   0  0  0  0  0  2  0  0  0  0  0  0
  191.1990  176.8290  144.4470 C   0  0  0  0  0  0  0  0  0  0  0  0
  191.7840  176.7620  145.7100 O   0  0  0  0  0  1  0  0  0  0  0  0
  190.0830  177.8410  144.2590 C   0  0  2  0  0  3  0  0  0  0  0  0
  191.1960  175.6650  143.6740 O   0  0  0  0  0  1  0  0  0  0  0  0
  1 18  1  0  0  0  0
  2  1  2  0  0  0  0
  3  2  1  1  0  0  0
  3  4  1  0  0  0  0
  5  3  1  0  0  0  0
  5  6  1  0  0  0  0
  6  7  1  6  0  0  0
  6  4  1  0  0  0  0
  7  9  1  0  0  0  0
  8 15  1  0  0  0  0
  9 13  1  0  0  0  0
 10  9  1  0  0  0  0
 10  8  1  0  0  0  0
 11 14  1  6  0  0  0
 13 11  1  0  0  0  0
 15 11  1  0  0  0  0
 15 12  1  0  0  0  0
 16 15  1  0  0  0  0
 17 19  1  0  0  0  0
 18 17  2  0  0  0  0
 19 20  3  0  0  0  0
 20 21  1  0  0  0  0
 22 23  1  0  0  0  0
 23 21  1  6  0  0  0
 24 28  1  6  0  0  0
 24 23  1  0  0  0  0
 25 26  1  6  0  0  0
 25 24  1  0  0  0  0
 25 22  1  0  0  0  0
 27 31  1  0  0  0  0
 28 29  1  6  0  0  0
 28 31  1  0  0  0  0
 30 29  1  0  0  0  0
 30 32  1  0  0  0  0
 32 27  2  0  0  0  0
 34 35  2  0  0  0  0
 35 25  1  0  0  0  0
 35 33  1  0  0  0  0
 36 37  1  0  0  0  0
 36  1  1  0  0  0  0
 37 38  1  0  0  0  0
 38 39  1  0  0  0  0
 39 40  1  0  0  0  0
 40 41  1  0  0  0  0
 41 42  1  0  0  0  0
 45 51  1  0  0  0  0
 45 44  1  1  0  0  0
 46 42  1  6  0  0  0
 46 43  1  0  0  0  0
 46 45  1  0  0  0  0
 47 43  1  6  0  0  0
 47 44  1  0  0  0  0
 47 57  1  0  0  0  0
 48 53  1  0  0  0  0
 50 49  1  0  0  0  0
 51 48  1  6  0  0  0
 51 49  1  0  0  0  0
 53 52  1  6  0  0  0
 53 50  1  0  0  0  0
 54 55  1  0  0  0  0
 55 56  1  0  0  0  0
 57 54  1  6  0  0  0
 57 55  1  0  0  0  0
 58 55  1  0  0  0  0
M  END
>  <MODEL>
9

>  <REMARK>
 VINA RESULT:      -6.3      3.395     12.128
  Name = 
  19 active torsions:
  status: ('A' for Active; 'I' for Inactive)
    1  A    between atoms: C_1  and  C_27
    2  A    between atoms: C_1  and  C_32
    3  A    between atoms: C_5  and  C_21
    4  A    between atoms: C_6  and  C_14
    5  A    between atoms: N_7  and  C_18
    6  A    between atoms: C_8  and  C_17
    7  A    between atoms: C_12  and  O_15
    8  A    between atoms: C_12  and  C_27
    9  A    between atoms: S_13  and  C_43
   10  A    between atoms: S_13  and  S_47
   11  A    between atoms: O_15  and  C_17
   12  A    between atoms: C_16  and  C_46
   13  A    between atoms: C_18  and  C_39
   14  A    between atoms: C_24  and  C_46
   15  A    between atoms: C_26  and  C_33
   16  A    between atoms: C_29  and  C_54
   17  A    between atoms: C_32  and  S_47
   18  A    between atoms: C_40  and  C_44
   19  A    between atoms: C_48  and  C_49
                            x       y       z     vdW  Elec       q    Type
                         _______ _______ _______ _____ _____    ______ ____

>  <TORSDO>
F 19

$$$$
