=
 OpenBabel11042410533D

 26 27  0  0  1  0  0  0  0  0999 V2000
  188.0080  177.3830  142.6910 N   0  0  0  0  0  2  0  0  0  0  0  0
  190.3570  176.4810  142.3090 C   0  0  1  0  0  3  0  0  0  0  0  0
  191.1960  178.2000  144.4580 C   0  0  0  0  0  2  0  0  0  0  0  0
  189.3980  177.3910  143.0380 C   0  0  0  0  0  0  0  0  0  0  0  0
  191.8710  175.4650  143.9530 N   0  0  0  0  0  2  0  0  0  0  0  0
  191.7170  175.9530  145.2610 N   0  0  0  0  0  0  0  0  0  0  0  0
  190.7280  175.2170  143.0870 C   0  0  0  0  0  2  0  0  0  0  0  0
  191.3960  177.1840  145.5360 C   0  0  0  0  0  0  0  0  0  0  0  0
  189.8160  178.1650  143.9960 N   0  0  0  0  0  0  0  0  0  0  0  0
  184.8780  179.3940  142.7770 C   0  0  0  0  0  2  0  0  0  0  0  0
  185.6730  178.1000  142.6270 C   0  0  0  0  0  2  0  0  0  0  0  0
  184.2780  179.5860  144.1730 C   0  0  2  0  0  3  0  0  0  0  0  0
  185.6320  178.1240  145.4030 N   0  0  0  0  0  0  0  0  0  0  0  0
  187.0210  178.2420  143.3280 C   0  0  1  0  0  3  0  0  0  0  0  0
  186.9560  177.9100  144.8230 C   0  0  0  0  0  2  0  0  0  0  0  0
  185.7620  177.8980  146.8300 C   0  0  0  0  0  1  0  0  0  0  0  0
  185.2860  179.4780  145.2380 N   0  0  0  0  0  2  0  0  0  0  0  0
  183.0660  178.6820  144.4040 C   0  0  0  0  0  2  0  0  0  0  0  0
  181.8960  179.0740  143.5100 C   0  0  0  0  0  2  0  0  0  0  0  0
  180.6200  178.3610  143.9250 C   0  0  0  0  0  2  0  0  0  0  0  0
  179.4360  179.3070  143.8690 C   0  0  0  0  0  1  0  0  0  0  0  0
  191.2220  177.5890  146.8610 O   0  0  0  0  0  0  0  0  0  0  0  0
  190.0630  177.2560  147.6120 C   0  0  0  0  0  1  0  0  0  0  0  0
  190.0270  176.2640  140.9490 O   0  0  0  0  0  0  0  0  0  0  0  0
  190.6740  177.2220  140.1500 C   0  0  0  0  0  2  0  0  0  0  0  0
  189.7090  177.7470  139.1090 C   0  0  0  0  0  1  0  0  0  0  0  0
  1  4  1  0  0  0  0
  2 24  1  6  0  0  0
  2  4  1  0  0  0  0
  2  7  1  0  0  0  0
  3  8  1  0  0  0  0
  4  9  2  0  0  0  0
  5  6  1  0  0  0  0
  6  8  2  0  0  0  0
  7  5  1  0  0  0  0
  8 22  1  0  0  0  0
  9  3  1  0  0  0  0
 10 12  1  0  0  0  0
 11 10  1  0  0  0  0
 11 14  1  0  0  0  0
 12 18  1  1  0  0  0
 12 17  1  0  0  0  0
 13 16  1  0  0  0  0
 14  1  1  6  0  0  0
 14 15  1  0  0  0  0
 15 13  1  0  0  0  0
 17 13  1  0  0  0  0
 19 20  1  0  0  0  0
 19 18  1  0  0  0  0
 21 20  1  0  0  0  0
 22 23  1  0  0  0  0
 25 24  1  0  0  0  0
 26 25  1  0  0  0  0
M  END
>  <MODEL>
1

>  <REMARK>
 VINA RESULT:      -6.9      0.000      0.000
  Name = 
  7 active torsions:
  status: ('A' for Active; 'I' for Inactive)
    1  A    between atoms: N_1  and  C_11
    2  A    between atoms: O_2  and  C_7
    3  A    between atoms: O_2  and  C_13
    4  A    between atoms: O_5  and  C_23
    5  A    between atoms: C_6  and  C_12
    6  A    between atoms: C_6  and  C_22
    7  A    between atoms: C_8  and  C_12
                            x       y       z     vdW  Elec       q    Type
                         _______ _______ _______ _____ _____    ______ ____

>  <TORSDO>
F 7

$$$$
=
 OpenBabel11042410533D

 26 27  0  0  1  0  0  0  0  0999 V2000
  185.6610  178.6360  141.0870 N   0  0  0  0  0  2  0  0  0  0  0  0
  184.2430  179.0730  139.0200 C   0  0  1  0  0  3  0  0  0  0  0  0
  182.2960  177.2950  140.1750 C   0  0  0  0  0  2  0  0  0  0  0  0
  184.4640  178.3800  140.3440 C   0  0  0  0  0  0  0  0  0  0  0  0
  181.9130  179.8400  138.9220 N   0  0  0  0  0  2  0  0  0  0  0  0
  181.1220  179.4310  140.0080 N   0  0  0  0  0  0  0  0  0  0  0  0
  183.2930  180.2700  139.0960 C   0  0  0  0  0  2  0  0  0  0  0  0
  181.2720  178.2900  140.6170 C   0  0  0  0  0  0  0  0  0  0  0  0
  183.5670  177.5730  140.8280 N   0  0  0  0  0  0  0  0  0  0  0  0
  187.7860  176.6670  143.4230 C   0  0  0  0  0  2  0  0  0  0  0  0
  187.4740  177.8680  142.5350 C   0  0  0  0  0  2  0  0  0  0  0  0
  187.5040  176.9120  144.9080 C   0  0  2  0  0  3  0  0  0  0  0  0
  186.0350  178.7290  144.7480 N   0  0  0  0  0  0  0  0  0  0  0  0
  185.9640  177.9970  142.3590 C   0  0  1  0  0  3  0  0  0  0  0  0
  185.2940  178.7860  143.4900 C   0  0  0  0  0  2  0  0  0  0  0  0
  185.2190  179.4030  145.7410 C   0  0  0  0  0  1  0  0  0  0  0  0
  186.1320  177.3830  145.1490 N   0  0  0  0  0  2  0  0  0  0  0  0
  188.5650  177.8060  145.5520 C   0  0  0  0  0  2  0  0  0  0  0  0
  189.3420  177.0640  146.6320 C   0  0  0  0  0  2  0  0  0  0  0  0
  189.3180  177.8220  147.9500 C   0  0  0  0  0  2  0  0  0  0  0  0
  187.8940  177.9940  148.4420 C   0  0  0  0  0  1  0  0  0  0  0  0
  180.4730  177.9670  141.7160 O   0  0  0  0  0  0  0  0  0  0  0  0
  180.4030  178.7880  142.8730 C   0  0  0  0  0  1  0  0  0  0  0  0
  185.4290  179.3050  138.2840 O   0  0  0  0  0  0  0  0  0  0  0  0
  185.8660  178.1000  137.7060 C   0  0  0  0  0  2  0  0  0  0  0  0
  187.3650  177.9710  137.8800 C   0  0  0  0  0  1  0  0  0  0  0  0
  2 24  1  1  0  0  0
  2  7  1  0  0  0  0
  2  4  1  0  0  0  0
  3  8  1  0  0  0  0
  3  9  1  0  0  0  0
  4  9  2  0  0  0  0
  4  1  1  0  0  0  0
  5  7  1  0  0  0  0
  5  6  1  0  0  0  0
  6  8  2  0  0  0  0
  8 22  1  0  0  0  0
 10 12  1  0  0  0  0
 11 10  1  0  0  0  0
 12 17  1  0  0  0  0
 12 18  1  6  0  0  0
 13 17  1  0  0  0  0
 13 16  1  0  0  0  0
 14  1  1  6  0  0  0
 14 11  1  0  0  0  0
 14 15  1  0  0  0  0
 15 13  1  0  0  0  0
 18 19  1  0  0  0  0
 19 20  1  0  0  0  0
 20 21  1  0  0  0  0
 22 23  1  0  0  0  0
 25 26  1  0  0  0  0
 25 24  1  0  0  0  0
M  END
>  <MODEL>
2

>  <REMARK>
 VINA RESULT:      -6.6      3.782      7.449
  Name = 
  7 active torsions:
  status: ('A' for Active; 'I' for Inactive)
    1  A    between atoms: N_1  and  C_11
    2  A    between atoms: O_2  and  C_7
    3  A    between atoms: O_2  and  C_13
    4  A    between atoms: O_5  and  C_23
    5  A    between atoms: C_6  and  C_12
    6  A    between atoms: C_6  and  C_22
    7  A    between atoms: C_8  and  C_12
                            x       y       z     vdW  Elec       q    Type
                         _______ _______ _______ _____ _____    ______ ____

>  <TORSDO>
F 7

$$$$
=
 OpenBabel11042410533D

 26 27  0  0  1  0  0  0  0  0999 V2000
  190.6990  176.4590  140.3520 N   0  0  0  0  0  2  0  0  0  0  0  0
  190.6590  175.6470  137.9400 C   0  0  1  0  0  3  0  0  0  0  0  0
  187.9160  176.5120  137.8600 C   0  0  0  0  0  2  0  0  0  0  0  0
  189.9680  176.2570  139.1370 C   0  0  0  0  0  0  0  0  0  0  0  0
  189.9980  176.9000  135.9350 N   0  0  0  0  0  2  0  0  0  0  0  0
  189.0170  177.8790  136.1620 N   0  0  0  0  0  0  0  0  0  0  0  0
  191.0810  176.6650  136.8800 C   0  0  0  0  0  2  0  0  0  0  0  0
  188.0630  177.7510  137.0370 C   0  0  0  0  0  0  0  0  0  0  0  0
  188.7230  176.6240  139.0670 N   0  0  0  0  0  0  0  0  0  0  0  0
  188.5300  176.3610  143.3750 C   0  0  0  0  0  2  0  0  0  0  0  0
  189.7030  175.9010  142.5130 C   0  0  0  0  0  2  0  0  0  0  0  0
  188.9300  177.3400  144.4830 C   0  0  2  0  0  3  0  0  0  0  0  0
  190.9790  178.0960  143.6370 N   0  0  0  0  0  0  0  0  0  0  0  0
  190.1060  177.0200  141.5570 C   0  0  1  0  0  3  0  0  0  0  0  0
  191.0870  178.0180  142.1820 C   0  0  0  0  0  2  0  0  0  0  0  0
  191.8650  179.1630  144.0620 C   0  0  0  0  0  1  0  0  0  0  0  0
  189.6720  178.5000  143.9660 N   0  0  0  0  0  2  0  0  0  0  0  0
  189.6480  176.6360  145.6360 C   0  0  0  0  0  2  0  0  0  0  0  0
  189.6220  177.4750  146.9070 C   0  0  0  0  0  2  0  0  0  0  0  0
  188.1970  177.8020  147.3240 C   0  0  0  0  0  2  0  0  0  0  0  0
  188.1040  177.9590  148.8300 C   0  0  0  0  0  1  0  0  0  0  0  0
  187.1440  178.7840  137.2350 O   0  0  0  0  0  0  0  0  0  0  0  0
  185.8750  178.5680  137.8370 C   0  0  0  0  0  1  0  0  0  0  0  0
  191.6500  174.6920  138.2710 O   0  0  0  0  0  0  0  0  0  0  0  0
  192.4970  174.4920  137.1670 C   0  0  0  0  0  2  0  0  0  0  0  0
  193.9240  174.3290  137.6480 C   0  0  0  0  0  1  0  0  0  0  0  0
  2 24  1  1  0  0  0
  2  4  1  0  0  0  0
  3  9  1  0  0  0  0
  4  1  1  0  0  0  0
  5  6  1  0  0  0  0
  5  7  1  0  0  0  0
  6  8  2  0  0  0  0
  7  2  1  0  0  0  0
  8 22  1  0  0  0  0
  8  3  1  0  0  0  0
  9  4  2  0  0  0  0
 10 12  1  0  0  0  0
 11 10  1  0  0  0  0
 12 18  1  1  0  0  0
 13 17  1  0  0  0  0
 13 16  1  0  0  0  0
 14  1  1  6  0  0  0
 14 15  1  0  0  0  0
 14 11  1  0  0  0  0
 15 13  1  0  0  0  0
 17 12  1  0  0  0  0
 18 19  1  0  0  0  0
 19 20  1  0  0  0  0
 20 21  1  0  0  0  0
 22 23  1  0  0  0  0
 25 26  1  0  0  0  0
 25 24  1  0  0  0  0
M  END
>  <MODEL>
3

>  <REMARK>
 VINA RESULT:      -6.6      4.279      6.836
  Name = 
  7 active torsions:
  status: ('A' for Active; 'I' for Inactive)
    1  A    between atoms: N_1  and  C_11
    2  A    between atoms: O_2  and  C_7
    3  A    between atoms: O_2  and  C_13
    4  A    between atoms: O_5  and  C_23
    5  A    between atoms: C_6  and  C_12
    6  A    between atoms: C_6  and  C_22
    7  A    between atoms: C_8  and  C_12
                            x       y       z     vdW  Elec       q    Type
                         _______ _______ _______ _____ _____    ______ ____

>  <TORSDO>
F 7

$$$$
=
 OpenBabel11042410533D

 26 27  0  0  1  0  0  0  0  0999 V2000
  183.7750  178.1590  142.8830 N   0  0  0  0  0  2  0  0  0  0  0  0
  182.3180  178.2870  140.8000 C   0  0  1  0  0  3  0  0  0  0  0  0
  184.5290  179.6200  139.5290 C   0  0  0  0  0  2  0  0  0  0  0  0
  183.6090  178.5850  141.5250 C   0  0  0  0  0  0  0  0  0  0  0  0
  182.8580  177.5220  138.5300 N   0  0  0  0  0  2  0  0  0  0  0  0
  184.2220  177.5900  138.2060 N   0  0  0  0  0  0  0  0  0  0  0  0
  182.4020  177.0950  139.8450 C   0  0  0  0  0  2  0  0  0  0  0  0
  185.0220  178.5160  138.6490 C   0  0  0  0  0  0  0  0  0  0  0  0
  184.5820  179.2010  140.9220 N   0  0  0  0  0  0  0  0  0  0  0  0
  185.6210  179.1530  145.9580 C   0  0  0  0  0  2  0  0  0  0  0  0
  184.6810  178.2620  145.1500 C   0  0  0  0  0  2  0  0  0  0  0  0
  187.0500  178.6110  146.0510 C   0  0  2  0  0  3  0  0  0  0  0  0
  187.0470  177.1420  144.2270 N   0  0  0  0  0  0  0  0  0  0  0  0
  184.9760  178.4220  143.6620 C   0  0  1  0  0  3  0  0  0  0  0  0
  186.1020  177.5040  143.1730 C   0  0  0  0  0  2  0  0  0  0  0  0
  188.1130  176.3910  143.5890 C   0  0  0  0  0  1  0  0  0  0  0  0
  187.6280  178.3210  144.7300 N   0  0  0  0  0  2  0  0  0  0  0  0
  187.1520  177.4320  147.0200 C   0  0  0  0  0  2  0  0  0  0  0  0
  187.8470  177.8310  148.3150 C   0  0  0  0  0  2  0  0  0  0  0  0
  189.3480  177.9750  148.1160 C   0  0  0  0  0  2  0  0  0  0  0  0
  189.8890  176.8290  147.2840 C   0  0  0  0  0  1  0  0  0  0  0  0
  186.3780  178.4980  138.3150 O   0  0  0  0  0  0  0  0  0  0  0  0
  186.8410  178.0720  137.0410 C   0  0  0  0  0  1  0  0  0  0  0  0
  181.1720  178.3010  141.6310 O   0  0  0  0  0  0  0  0  0  0  0  0
  180.6570  179.6070  141.6990 C   0  0  0  0  0  2  0  0  0  0  0  0
  180.2290  180.0540  140.3170 C   0  0  0  0  0  1  0  0  0  0  0  0
  2  4  1  0  0  0  0
  2 24  1  1  0  0  0
  3  9  1  0  0  0  0
  4  1  1  0  0  0  0
  5  7  1  0  0  0  0
  6  5  1  0  0  0  0
  6  8  2  0  0  0  0
  7  2  1  0  0  0  0
  8  3  1  0  0  0  0
  9  4  2  0  0  0  0
 10 12  1  0  0  0  0
 11 10  1  0  0  0  0
 12 18  1  1  0  0  0
 13 17  1  0  0  0  0
 14  1  1  6  0  0  0
 14 11  1  0  0  0  0
 15 14  1  0  0  0  0
 15 13  1  0  0  0  0
 16 13  1  0  0  0  0
 17 12  1  0  0  0  0
 18 19  1  0  0  0  0
 20 19  1  0  0  0  0
 21 20  1  0  0  0  0
 22  8  1  0  0  0  0
 23 22  1  0  0  0  0
 24 25  1  0  0  0  0
 26 25  1  0  0  0  0
M  END
>  <MODEL>
4

>  <REMARK>
 VINA RESULT:      -6.5      3.577      7.630
  Name = 
  7 active torsions:
  status: ('A' for Active; 'I' for Inactive)
    1  A    between atoms: N_1  and  C_11
    2  A    between atoms: O_2  and  C_7
    3  A    between atoms: O_2  and  C_13
    4  A    between atoms: O_5  and  C_23
    5  A    between atoms: C_6  and  C_12
    6  A    between atoms: C_6  and  C_22
    7  A    between atoms: C_8  and  C_12
                            x       y       z     vdW  Elec       q    Type
                         _______ _______ _______ _____ _____    ______ ____

>  <TORSDO>
F 7

$$$$
=
 OpenBabel11042410533D

 26 27  0  0  1  0  0  0  0  0999 V2000
  187.7650  178.1180  144.9460 N   0  0  0  0  0  2  0  0  0  0  0  0
  190.2540  177.6230  145.1390 C   0  0  1  0  0  3  0  0  0  0  0  0
  189.9060  175.8250  142.9190 C   0  0  0  0  0  2  0  0  0  0  0  0
  188.9110  177.3940  144.4860 C   0  0  0  0  0  0  0  0  0  0  0  0
  191.9620  177.7620  143.3820 N   0  0  0  0  0  2  0  0  0  0  0  0
  191.4850  177.4940  142.0880 N   0  0  0  0  0  0  0  0  0  0  0  0
  191.1860  178.5350  144.3400 C   0  0  0  0  0  2  0  0  0  0  0  0
  190.5430  176.6330  141.8340 C   0  0  0  0  0  0  0  0  0  0  0  0
  188.7900  176.5630  143.4930 N   0  0  0  0  0  0  0  0  0  0  0  0
  184.0460  178.1130  145.0960 C   0  0  0  0  0  2  0  0  0  0  0  0
  185.4210  178.7710  145.1770 C   0  0  0  0  0  2  0  0  0  0  0  0
  183.3500  178.3110  143.7460 C   0  0  2  0  0  3  0  0  0  0  0  0
  185.1980  178.8450  142.4100 N   0  0  0  0  0  0  0  0  0  0  0  0
  186.4320  177.9440  144.3880 C   0  0  1  0  0  3  0  0  0  0  0  0
  186.4620  178.2980  142.8960 C   0  0  0  0  0  2  0  0  0  0  0  0
  185.3390  179.0030  140.9750 C   0  0  0  0  0  1  0  0  0  0  0  0
  184.1880  177.8870  142.6150 N   0  0  0  0  0  2  0  0  0  0  0  0
  182.8040  179.7310  143.5870 C   0  0  0  0  0  2  0  0  0  0  0  0
  181.3260  179.7250  143.2230 C   0  0  0  0  0  2  0  0  0  0  0  0
  180.5780  178.6290  143.9650 C   0  0  0  0  0  2  0  0  0  0  0  0
  179.1520  179.0560  144.2550 C   0  0  0  0  0  1  0  0  0  0  0  0
  190.0920  176.4460  140.5250 O   0  0  0  0  0  0  0  0  0  0  0  0
  189.1190  177.2910  139.9270 C   0  0  0  0  0  1  0  0  0  0  0  0
  190.1810  177.9150  146.5220 O   0  0  0  0  0  0  0  0  0  0  0  0
  190.3680  176.7360  147.2630 C   0  0  0  0  0  2  0  0  0  0  0  0
  191.6710  176.0840  146.8530 C   0  0  0  0  0  1  0  0  0  0  0  0
  2 24  1  1  0  0  0
  3  9  1  0  0  0  0
  4  1  1  0  0  0  0
  4  2  1  0  0  0  0
  5  7  1  0  0  0  0
  6  5  1  0  0  0  0
  7  2  1  0  0  0  0
  8  6  2  0  0  0  0
  8  3  1  0  0  0  0
  9  4  2  0  0  0  0
 10 11  1  0  0  0  0
 12 18  1  6  0  0  0
 12 10  1  0  0  0  0
 13 17  1  0  0  0  0
 13 15  1  0  0  0  0
 14  1  1  1  0  0  0
 14 11  1  0  0  0  0
 15 14  1  0  0  0  0
 16 13  1  0  0  0  0
 17 12  1  0  0  0  0
 19 18  1  0  0  0  0
 19 20  1  0  0  0  0
 20 21  1  0  0  0  0
 22  8  1  0  0  0  0
 23 22  1  0  0  0  0
 24 25  1  0  0  0  0
 26 25  1  0  0  0  0
M  END
>  <MODEL>
5

>  <REMARK>
 VINA RESULT:      -6.5      1.533      3.983
  Name = 
  7 active torsions:
  status: ('A' for Active; 'I' for Inactive)
    1  A    between atoms: N_1  and  C_11
    2  A    between atoms: O_2  and  C_7
    3  A    between atoms: O_2  and  C_13
    4  A    between atoms: O_5  and  C_23
    5  A    between atoms: C_6  and  C_12
    6  A    between atoms: C_6  and  C_22
    7  A    between atoms: C_8  and  C_12
                            x       y       z     vdW  Elec       q    Type
                         _______ _______ _______ _____ _____    ______ ____

>  <TORSDO>
F 7

$$$$
=
 OpenBabel11042410533D

 26 27  0  0  1  0  0  0  0  0999 V2000
  189.7580  176.5060  139.6220 N   0  0  0  0  0  2  0  0  0  0  0  0
  190.4120  175.7400  137.2850 C   0  0  1  0  0  3  0  0  0  0  0  0
  193.0710  176.6500  137.9030 C   0  0  0  0  0  2  0  0  0  0  0  0
  190.7620  176.3780  138.6090 C   0  0  0  0  0  0  0  0  0  0  0  0
  192.2300  174.2190  136.6480 N   0  0  0  0  0  2  0  0  0  0  0  0
  193.3420  174.2550  137.5040 N   0  0  0  0  0  0  0  0  0  0  0  0
  190.8680  174.2860  137.1560 C   0  0  0  0  0  2  0  0  0  0  0  0
  193.7500  175.3340  138.1070 C   0  0  0  0  0  0  0  0  0  0  0  0
  191.9720  176.7890  138.8470 N   0  0  0  0  0  0  0  0  0  0  0  0
  188.8510  178.6130  142.5520 C   0  0  0  0  0  2  0  0  0  0  0  0
  188.6810  177.4200  141.6170 C   0  0  0  0  0  2  0  0  0  0  0  0
  189.6070  178.2790  143.8410 C   0  0  2  0  0  3  0  0  0  0  0  0
  190.6920  176.3130  143.1780 N   0  0  0  0  0  0  0  0  0  0  0  0
  190.0040  177.1250  140.9160 C   0  0  1  0  0  3  0  0  0  0  0  0
  190.9280  176.2200  141.7390 C   0  0  0  0  0  2  0  0  0  0  0  0
  191.7170  175.5110  143.8200 C   0  0  0  0  0  1  0  0  0  0  0  0
  190.9070  177.6430  143.5810 N   0  0  0  0  0  2  0  0  0  0  0  0
  188.7410  177.4880  144.8240 C   0  0  0  0  0  2  0  0  0  0  0  0
  189.2190  177.6650  146.2590 C   0  0  0  0  0  2  0  0  0  0  0  0
  188.0550  177.6320  147.2370 C   0  0  0  0  0  2  0  0  0  0  0  0
  188.4920  178.1240  148.6040 C   0  0  0  0  0  1  0  0  0  0  0  0
  194.8430  175.2860  138.9750 O   0  0  0  0  0  0  0  0  0  0  0  0
  195.7420  174.1860  139.0070 C   0  0  0  0  0  1  0  0  0  0  0  0
  189.0840  175.9850  136.8600 O   0  0  0  0  0  0  0  0  0  0  0  0
  189.0520  177.1410  136.0610 C   0  0  0  0  0  2  0  0  0  0  0  0
  188.0870  178.1420  136.6610 C   0  0  0  0  0  1  0  0  0  0  0  0
  2 24  1  1  0  0  0
  2  4  1  0  0  0  0
  3  8  1  0  0  0  0
  3  9  1  0  0  0  0
  4  9  2  0  0  0  0
  4  1  1  0  0  0  0
  5  7  1  0  0  0  0
  5  6  1  0  0  0  0
  6  8  2  0  0  0  0
  7  2  1  0  0  0  0
  8 22  1  0  0  0  0
 10 12  1  0  0  0  0
 11 10  1  0  0  0  0
 12 18  1  1  0  0  0
 13 17  1  0  0  0  0
 13 16  1  0  0  0  0
 14  1  1  6  0  0  0
 14 11  1  0  0  0  0
 14 15  1  0  0  0  0
 15 13  1  0  0  0  0
 17 12  1  0  0  0  0
 18 19  1  0  0  0  0
 19 20  1  0  0  0  0
 20 21  1  0  0  0  0
 22 23  1  0  0  0  0
 25 26  1  0  0  0  0
 25 24  1  0  0  0  0
M  END
>  <MODEL>
6

>  <REMARK>
 VINA RESULT:      -6.3      4.419      6.502
  Name = 
  7 active torsions:
  status: ('A' for Active; 'I' for Inactive)
    1  A    between atoms: N_1  and  C_11
    2  A    between atoms: O_2  and  C_7
    3  A    between atoms: O_2  and  C_13
    4  A    between atoms: O_5  and  C_23
    5  A    between atoms: C_6  and  C_12
    6  A    between atoms: C_6  and  C_22
    7  A    between atoms: C_8  and  C_12
                            x       y       z     vdW  Elec       q    Type
                         _______ _______ _______ _____ _____    ______ ____

>  <TORSDO>
F 7

$$$$
=
 OpenBabel11042410533D

 26 27  0  0  1  0  0  0  0  0999 V2000
  187.0260  178.5170  142.2070 N   0  0  0  0  0  2  0  0  0  0  0  0
  184.6920  178.1440  143.1490 C   0  0  1  0  0  3  0  0  0  0  0  0
  185.9800  177.2670  145.5690 C   0  0  0  0  0  2  0  0  0  0  0  0
  186.1950  178.0860  143.2910 C   0  0  0  0  0  0  0  0  0  0  0  0
  183.7460  179.0250  145.2360 N   0  0  0  0  0  2  0  0  0  0  0  0
  184.6860  179.2200  146.2610 N   0  0  0  0  0  0  0  0  0  0  0  0
  184.0480  179.3420  143.8480 C   0  0  0  0  0  2  0  0  0  0  0  0
  185.7240  178.4550  146.4390 C   0  0  0  0  0  0  0  0  0  0  0  0
  186.7420  177.6710  144.3950 N   0  0  0  0  0  0  0  0  0  0  0  0
  190.3220  178.3960  143.9320 C   0  0  0  0  0  2  0  0  0  0  0  0
  188.9480  177.8460  143.5600 C   0  0  0  0  0  2  0  0  0  0  0  0
  191.4630  177.8120  143.0940 C   0  0  2  0  0  3  0  0  0  0  0  0
  190.2520  177.0230  141.2520 N   0  0  0  0  0  0  0  0  0  0  0  0
  188.4810  178.4760  142.2510 C   0  0  1  0  0  3  0  0  0  0  0  0
  189.0000  177.7370  141.0120 C   0  0  0  0  0  2  0  0  0  0  0  0
  190.6780  176.4930  139.9700 C   0  0  0  0  0  1  0  0  0  0  0  0
  191.2280  177.9550  141.6490 N   0  0  0  0  0  2  0  0  0  0  0  0
  191.8000  176.3780  143.5060 C   0  0  0  0  0  2  0  0  0  0  0  0
  191.0870  175.9830  144.7920 C   0  0  0  0  0  2  0  0  0  0  0  0
  191.9960  176.1410  146.0000 C   0  0  0  0  0  2  0  0  0  0  0  0
  191.2130  176.6530  147.1940 C   0  0  0  0  0  1  0  0  0  0  0  0
  186.6390  178.7330  147.4580 O   0  0  0  0  0  0  0  0  0  0  0  0
  187.6540  177.8150  147.8390 C   0  0  0  0  0  1  0  0  0  0  0  0
  184.2260  177.9040  141.8350 O   0  0  0  0  0  0  0  0  0  0  0  0
  183.2420  178.8520  141.5050 C   0  0  0  0  0  2  0  0  0  0  0  0
  182.0970  178.1640  140.7920 C   0  0  0  0  0  1  0  0  0  0  0  0
  1  4  1  0  0  0  0
  2 24  1  6  0  0  0
  2  4  1  0  0  0  0
  2  7  1  0  0  0  0
  3  8  1  0  0  0  0
  4  9  2  0  0  0  0
  5  6  1  0  0  0  0
  6  8  2  0  0  0  0
  7  5  1  0  0  0  0
  8 22  1  0  0  0  0
  9  3  1  0  0  0  0
 11 10  1  0  0  0  0
 12 18  1  6  0  0  0
 12 10  1  0  0  0  0
 13 17  1  0  0  0  0
 14  1  1  1  0  0  0
 14 11  1  0  0  0  0
 15 13  1  0  0  0  0
 15 14  1  0  0  0  0
 16 13  1  0  0  0  0
 17 12  1  0  0  0  0
 18 19  1  0  0  0  0
 19 20  1  0  0  0  0
 20 21  1  0  0  0  0
 22 23  1  0  0  0  0
 25 24  1  0  0  0  0
 26 25  1  0  0  0  0
M  END
>  <MODEL>
7

>  <REMARK>
 VINA RESULT:      -6.2      2.484      6.993
  Name = 
  7 active torsions:
  status: ('A' for Active; 'I' for Inactive)
    1  A    between atoms: N_1  and  C_11
    2  A    between atoms: O_2  and  C_7
    3  A    between atoms: O_2  and  C_13
    4  A    between atoms: O_5  and  C_23
    5  A    between atoms: C_6  and  C_12
    6  A    between atoms: C_6  and  C_22
    7  A    between atoms: C_8  and  C_12
                            x       y       z     vdW  Elec       q    Type
                         _______ _______ _______ _____ _____    ______ ____

>  <TORSDO>
F 7

$$$$
=
 OpenBabel11042410533D

 26 27  0  0  1  0  0  0  0  0999 V2000
  185.6120  178.0960  141.9990 N   0  0  0  0  0  2  0  0  0  0  0  0
  185.7050  179.0040  139.6230 C   0  0  1  0  0  3  0  0  0  0  0  0
  188.5470  178.5690  139.7370 C   0  0  0  0  0  2  0  0  0  0  0  0
  186.3910  178.4570  140.8520 C   0  0  0  0  0  0  0  0  0  0  0  0
  186.7000  177.9510  137.6410 N   0  0  0  0  0  2  0  0  0  0  0  0
  187.8000  177.1230  137.9160 N   0  0  0  0  0  0  0  0  0  0  0  0
  185.5260  177.9790  138.5030 C   0  0  0  0  0  2  0  0  0  0  0  0
  188.6560  177.3580  138.8680 C   0  0  0  0  0  0  0  0  0  0  0  0
  187.6800  178.2860  140.8720 N   0  0  0  0  0  0  0  0  0  0  0  0
  188.3500  176.6370  144.0550 C   0  0  0  0  0  2  0  0  0  0  0  0
  187.7130  177.7220  143.1910 C   0  0  0  0  0  2  0  0  0  0  0  0
  188.2340  176.9030  145.5580 C   0  0  2  0  0  3  0  0  0  0  0  0
  186.4600  178.4310  145.5650 N   0  0  0  0  0  0  0  0  0  0  0  0
  186.1940  177.5810  143.2300 C   0  0  1  0  0  3  0  0  0  0  0  0
  185.5560  178.2990  144.4250 C   0  0  0  0  0  2  0  0  0  0  0  0
  185.6810  179.0030  146.6480 C   0  0  0  0  0  1  0  0  0  0  0  0
  186.8460  177.1440  145.9810 N   0  0  0  0  0  2  0  0  0  0  0  0
  189.1980  177.9970  146.0220 C   0  0  0  0  0  2  0  0  0  0  0  0
  190.1990  177.4660  147.0390 C   0  0  0  0  0  2  0  0  0  0  0  0
  191.3530  176.7490  146.3570 C   0  0  0  0  0  2  0  0  0  0  0  0
  192.0360  175.7970  147.3200 C   0  0  0  0  0  1  0  0  0  0  0  0
  189.7060  176.4690  139.1080 O   0  0  0  0  0  0  0  0  0  0  0  0
  191.0330  176.9090  139.3590 C   0  0  0  0  0  1  0  0  0  0  0  0
  184.5570  179.7830  139.9020 O   0  0  0  0  0  0  0  0  0  0  0  0
  183.4980  179.3720  139.0730 C   0  0  0  0  0  2  0  0  0  0  0  0
  182.3070  178.9940  139.9270 C   0  0  0  0  0  1  0  0  0  0  0  0
  2 24  1  1  0  0  0
  2  4  1  0  0  0  0
  3  9  1  0  0  0  0
  4  9  2  0  0  0  0
  4  1  1  0  0  0  0
  5  6  1  0  0  0  0
  5  7  1  0  0  0  0
  6  8  2  0  0  0  0
  7  2  1  0  0  0  0
  8 22  1  0  0  0  0
  8  3  1  0  0  0  0
 10 12  1  0  0  0  0
 11 14  1  0  0  0  0
 11 10  1  0  0  0  0
 12 17  1  0  0  0  0
 12 18  1  6  0  0  0
 13 17  1  0  0  0  0
 13 16  1  0  0  0  0
 14  1  1  6  0  0  0
 14 15  1  0  0  0  0
 15 13  1  0  0  0  0
 18 19  1  0  0  0  0
 20 19  1  0  0  0  0
 20 21  1  0  0  0  0
 22 23  1  0  0  0  0
 25 24  1  0  0  0  0
 25 26  1  0  0  0  0
M  END
>  <MODEL>
8

>  <REMARK>
 VINA RESULT:      -6.0      3.097      6.617
  Name = 
  7 active torsions:
  status: ('A' for Active; 'I' for Inactive)
    1  A    between atoms: N_1  and  C_11
    2  A    between atoms: O_2  and  C_7
    3  A    between atoms: O_2  and  C_13
    4  A    between atoms: O_5  and  C_23
    5  A    between atoms: C_6  and  C_12
    6  A    between atoms: C_6  and  C_22
    7  A    between atoms: C_8  and  C_12
                            x       y       z     vdW  Elec       q    Type
                         _______ _______ _______ _____ _____    ______ ____

>  <TORSDO>
F 7

$$$$
=
 OpenBabel11042410533D

 26 27  0  0  1  0  0  0  0  0999 V2000
  184.9640  178.3350  142.7570 N   0  0  0  0  0  2  0  0  0  0  0  0
  182.8460  178.6280  141.3760 C   0  0  1  0  0  3  0  0  0  0  0  0
  184.5560  179.4960  139.2300 C   0  0  0  0  0  2  0  0  0  0  0  0
  184.3460  178.7240  141.5250 C   0  0  0  0  0  0  0  0  0  0  0  0
  182.3410  177.6840  139.1670 N   0  0  0  0  0  2  0  0  0  0  0  0
  183.4650  177.4960  138.3460 N   0  0  0  0  0  0  0  0  0  0  0  0
  182.3770  177.4000  140.5940 C   0  0  0  0  0  2  0  0  0  0  0  0
  184.5000  178.2860  138.3530 C   0  0  0  0  0  0  0  0  0  0  0  0
  185.0860  179.1340  140.5370 N   0  0  0  0  0  0  0  0  0  0  0  0
  188.0570  177.8780  144.7760 C   0  0  0  0  0  2  0  0  0  0  0  0
  186.8170  177.3840  144.0360 C   0  0  0  0  0  2  0  0  0  0  0  0
  189.3460  177.7640  143.9570 C   0  0  2  0  0  3  0  0  0  0  0  0
  188.4460  177.6200  141.8000 N   0  0  0  0  0  0  0  0  0  0  0  0
  186.3980  178.4160  142.9920 C   0  0  1  0  0  3  0  0  0  0  0  0
  187.1360  178.2520  141.6580 C   0  0  0  0  0  2  0  0  0  0  0  0
  189.0670  177.6550  140.4890 C   0  0  0  0  0  1  0  0  0  0  0  0
  189.2380  178.4190  142.6450 N   0  0  0  0  0  2  0  0  0  0  0  0
  189.8380  176.3180  143.8640 C   0  0  0  0  0  2  0  0  0  0  0  0
  191.3260  176.2130  144.1740 C   0  0  0  0  0  2  0  0  0  0  0  0
  191.6800  176.9680  145.4450 C   0  0  0  0  0  2  0  0  0  0  0  0
  191.9160  176.0030  146.5920 C   0  0  0  0  0  1  0  0  0  0  0  0
  185.6000  178.0160  137.5360 O   0  0  0  0  0  0  0  0  0  0  0  0
  185.8040  176.7460  136.9310 C   0  0  0  0  0  1  0  0  0  0  0  0
  182.1300  178.8780  142.5710 O   0  0  0  0  0  0  0  0  0  0  0  0
  180.7640  178.6250  142.3620 C   0  0  0  0  0  2  0  0  0  0  0  0
  180.0880  178.3700  143.6920 C   0  0  0  0  0  1  0  0  0  0  0  0
  2  4  1  0  0  0  0
  2 24  1  1  0  0  0
  3  9  1  0  0  0  0
  4  1  1  0  0  0  0
  5  7  1  0  0  0  0
  6  8  2  0  0  0  0
  6  5  1  0  0  0  0
  7  2  1  0  0  0  0
  8  3  1  0  0  0  0
  9  4  2  0  0  0  0
 11 10  1  0  0  0  0
 12 18  1  6  0  0  0
 12 10  1  0  0  0  0
 13 17  1  0  0  0  0
 14  1  1  6  0  0  0
 14 11  1  0  0  0  0
 15 13  1  0  0  0  0
 15 14  1  0  0  0  0
 16 13  1  0  0  0  0
 17 12  1  0  0  0  0
 18 19  1  0  0  0  0
 19 20  1  0  0  0  0
 20 21  1  0  0  0  0
 22  8  1  0  0  0  0
 23 22  1  0  0  0  0
 25 24  1  0  0  0  0
 25 26  1  0  0  0  0
M  END
>  <MODEL>
9

>  <REMARK>
 VINA RESULT:      -6.0      3.449      8.265
  Name = 
  7 active torsions:
  status: ('A' for Active; 'I' for Inactive)
    1  A    between atoms: N_1  and  C_11
    2  A    between atoms: O_2  and  C_7
    3  A    between atoms: O_2  and  C_13
    4  A    between atoms: O_5  and  C_23
    5  A    between atoms: C_6  and  C_12
    6  A    between atoms: C_6  and  C_22
    7  A    between atoms: C_8  and  C_12
                            x       y       z     vdW  Elec       q    Type
                         _______ _______ _______ _____ _____    ______ ____

>  <TORSDO>
F 7

$$$$
