=
 OpenBabel11032419503D

 27 29  0  0  1  0  0  0  0  0999 V2000
  188.3860  178.2090  141.3930 N   0  0  0  0  0  0  0  0  0  0  0  0
  188.6410  177.6260  143.6900 C   0  0  0  0  0  2  0  0  0  0  0  0
  188.4250  177.4570  144.9370 C   0  0  0  0  0  0  0  0  0  0  0  0
  191.1540  177.4450  141.2030 O   0  0  0  0  0  0  0  0  0  0  0  0
  191.5010  176.2970  147.0710 C   0  0  0  0  0  3  0  0  0  0  0  0
  190.5980  177.2850  142.3220 C   0  0  0  0  0  0  0  0  0  0  0  0
  188.5990  177.2230  146.1790 C   0  0  0  0  0  0  0  0  0  0  0  0
  189.1680  177.7130  142.4970 C   0  0  2  0  0  3  0  0  0  0  0  0
  191.3980  176.6260  143.3960 C   0  0  0  0  0  3  0  0  0  0  0  0
  191.2140  176.8900  144.6900 C   0  0  0  0  0  3  0  0  0  0  0  0
  190.5100  177.2950  147.6340 C   0  0  0  0  0  2  0  0  0  0  0  0
  189.0640  176.9750  147.3680 C   0  0  0  0  0  2  0  0  0  0  0  0
  191.8290  176.1300  145.7790 C   0  0  0  0  0  3  0  0  0  0  0  0
  187.0030  178.3940  141.5270 N   0  0  0  0  0  0  0  0  0  0  0  0
  185.8430  178.4960  142.3160 C   0  0  0  0  0  0  0  0  0  0  0  0
  184.6230  178.8930  140.2200 C   0  0  0  0  0  3  0  0  0  0  0  0
  183.5860  178.8240  142.5660 C   0  0  0  0  0  0  0  0  0  0  0  0
  185.7450  178.6460  140.9510 C   0  0  0  0  0  0  0  0  0  0  0  0
  184.8390  178.5640  143.2340 C   0  0  0  0  0  3  0  0  0  0  0  0
  183.4950  178.9820  141.1090 C   0  0  0  0  0  3  0  0  0  0  0  0
  182.3730  178.6340  144.5970 O   0  0  0  0  0  1  0  0  0  0  0  0
  181.1780  179.3800  142.7960 O   0  0  0  0  0  0  0  0  0  0  0  0
  182.3620  178.9360  143.3750 C   0  0  0  0  0  0  0  0  0  0  0  0
  189.0300  178.6350  140.1550 C   0  0  0  0  0  2  0  0  0  0  0  0
  188.6800  176.6950  138.8150 O   0  0  0  0  0  1  0  0  0  0  0  0
  188.4380  177.9170  138.9900 C   0  0  0  0  0  0  0  0  0  0  0  0
  187.6450  178.6020  138.0800 O   0  0  0  0  0  0  0  0  0  0  0  0
  1 14  1  0  0  0  0
  2  3  1  0  0  0  0
  3  7  3  0  0  0  0
  4  6  2  0  0  0  0
  5 11  1  0  0  0  0
  6  8  1  0  0  0  0
  6  9  1  0  0  0  0
  7 12  1  0  0  0  0
  8  1  1  1  0  0  0
  8  2  1  0  0  0  0
  9 10  2  0  0  0  0
 10 13  1  0  0  0  0
 12 11  1  0  0  0  0
 13  5  2  0  0  0  0
 14 15  1  0  0  0  0
 15 19  1  0  0  0  0
 16 18  1  0  0  0  0
 16 20  2  0  0  0  0
 17 19  2  0  0  0  0
 17 23  1  0  0  0  0
 18 14  1  0  0  0  0
 18 15  2  0  0  0  0
 20 17  1  0  0  0  0
 22 23  2  0  0  0  0
 23 21  1  0  0  0  0
 24  1  1  0  0  0  0
 25 26  1  0  0  0  0
 26 24  1  0  0  0  0
 27 26  2  0  0  0  0
M  END
>  <MODEL>
1

>  <REMARK>
 VINA RESULT:      -9.0      0.000      0.000
  Name = 
  5 active torsions:
  status: ('A' for Active; 'I' for Inactive)
    1  A    between atoms: N_1  and  N_2
    2  A    between atoms: N_2  and  C_6
    3  A    between atoms: N_2  and  C_15
    4  A    between atoms: C_6  and  C_13
    5  A    between atoms: C_19  and  C_23
                            x       y       z     vdW  Elec       q    Type
                         _______ _______ _______ _____ _____    ______ ____

>  <TORSDO>
F 5

$$$$
=
 OpenBabel11032419503D

 27 29  0  0  1  0  0  0  0  0999 V2000
  189.7860  177.2870  142.9510 N   0  0  0  0  0  0  0  0  0  0  0  0
  187.4410  177.6870  143.0800 C   0  0  0  0  0  2  0  0  0  0  0  0
  186.2170  177.8830  142.7710 C   0  0  0  0  0  0  0  0  0  0  0  0
  189.7120  177.7150  145.7950 O   0  0  0  0  0  0  0  0  0  0  0  0
  183.8420  178.8990  145.7180 C   0  0  0  0  0  3  0  0  0  0  0  0
  188.6080  177.7340  145.1910 C   0  0  0  0  0  0  0  0  0  0  0  0
  184.9790  178.1830  142.8430 C   0  0  0  0  0  0  0  0  0  0  0  0
  188.5870  177.5670  143.6970 C   0  0  2  0  0  3  0  0  0  0  0  0
  187.3750  177.8750  146.0210 C   0  0  0  0  0  3  0  0  0  0  0  0
  186.2700  178.4650  145.5680 C   0  0  0  0  0  3  0  0  0  0  0  0
  183.6780  179.5280  144.3500 C   0  0  0  0  0  2  0  0  0  0  0  0
  183.7890  178.5710  143.1930 C   0  0  0  0  0  2  0  0  0  0  0  0
  184.9830  178.4510  146.2660 C   0  0  0  0  0  3  0  0  0  0  0  0
  189.7940  177.3860  141.5520 N   0  0  0  0  0  0  0  0  0  0  0  0
  189.2400  177.8510  140.3460 C   0  0  0  0  0  0  0  0  0  0  0  0
  191.1190  176.7380  139.2190 C   0  0  0  0  0  3  0  0  0  0  0  0
  189.2440  178.0530  138.0610 C   0  0  0  0  0  0  0  0  0  0  0  0
  190.3970  177.1060  140.3130 C   0  0  0  0  0  0  0  0  0  0  0  0
  188.5640  178.3840  139.2900 C   0  0  0  0  0  3  0  0  0  0  0  0
  190.4790  177.2570  138.0390 C   0  0  0  0  0  3  0  0  0  0  0  0
  189.0750  178.0490  135.6940 O   0  0  0  0  0  0  0  0  0  0  0  0
  187.7040  179.5210  136.7820 O   0  0  0  0  0  1  0  0  0  0  0  0
  188.6810  178.5310  136.7880 C   0  0  0  0  0  0  0  0  0  0  0  0
  191.0430  177.0050  143.6370 C   0  0  0  0  0  2  0  0  0  0  0  0
  190.5140  174.7450  143.0920 O   0  0  0  0  0  0  0  0  0  0  0  0
  191.2720  175.5330  143.7140 C   0  0  0  0  0  0  0  0  0  0  0  0
  192.3000  175.0290  144.4990 O   0  0  0  0  0  1  0  0  0  0  0  0
  1 24  1  0  0  0  0
  2  8  1  0  0  0  0
  3  7  3  0  0  0  0
  3  2  1  0  0  0  0
  5 13  2  0  0  0  0
  6  4  2  0  0  0  0
  6  9  1  0  0  0  0
  7 12  1  0  0  0  0
  8  1  1  6  0  0  0
  8  6  1  0  0  0  0
 10  9  2  0  0  0  0
 10 13  1  0  0  0  0
 11  5  1  0  0  0  0
 12 11  1  0  0  0  0
 14  1  1  0  0  0  0
 15 14  1  0  0  0  0
 16 18  2  0  0  0  0
 17 19  1  0  0  0  0
 18 15  1  0  0  0  0
 18 14  1  0  0  0  0
 19 15  2  0  0  0  0
 20 17  2  0  0  0  0
 20 16  1  0  0  0  0
 21 23  2  0  0  0  0
 22 23  1  0  0  0  0
 23 17  1  0  0  0  0
 24 26  1  0  0  0  0
 25 26  2  0  0  0  0
 26 27  1  0  0  0  0
M  END
>  <MODEL>
2

>  <REMARK>
 VINA RESULT:      -9.0      2.930      6.221
  Name = 
  5 active torsions:
  status: ('A' for Active; 'I' for Inactive)
    1  A    between atoms: N_1  and  N_2
    2  A    between atoms: N_2  and  C_6
    3  A    between atoms: N_2  and  C_15
    4  A    between atoms: C_6  and  C_13
    5  A    between atoms: C_19  and  C_23
                            x       y       z     vdW  Elec       q    Type
                         _______ _______ _______ _____ _____    ______ ____

>  <TORSDO>
F 5

$$$$
=
 OpenBabel11032419503D

 27 29  0  0  1  0  0  0  0  0999 V2000
  190.2370  177.4910  144.1190 N   0  0  0  0  0  0  0  0  0  0  0  0
  187.9060  177.7650  143.7050 C   0  0  0  0  0  2  0  0  0  0  0  0
  186.7780  177.8960  143.1230 C   0  0  0  0  0  0  0  0  0  0  0  0
  189.4920  177.9070  146.8670 O   0  0  0  0  0  0  0  0  0  0  0  0
  183.7410  178.7750  145.4390 C   0  0  0  0  0  3  0  0  0  0  0  0
  188.5560  177.8690  146.0260 C   0  0  0  0  0  0  0  0  0  0  0  0
  185.5420  178.1280  142.9070 C   0  0  0  0  0  0  0  0  0  0  0  0
  188.8860  177.7050  144.5690 C   0  0  2  0  0  3  0  0  0  0  0  0
  187.1600  177.9410  146.5510 C   0  0  0  0  0  3  0  0  0  0  0  0
  186.1580  178.4730  145.8510 C   0  0  0  0  0  3  0  0  0  0  0  0
  183.8610  179.3980  144.0630 C   0  0  0  0  0  2  0  0  0  0  0  0
  184.2840  178.4520  142.9710 C   0  0  0  0  0  2  0  0  0  0  0  0
  184.7480  178.3870  146.2370 C   0  0  0  0  0  3  0  0  0  0  0  0
  190.5240  177.3900  142.7500 N   0  0  0  0  0  0  0  0  0  0  0  0
  190.1150  177.2560  141.4120 C   0  0  0  0  0  0  0  0  0  0  0  0
  192.4970  177.3870  140.8190 C   0  0  0  0  0  3  0  0  0  0  0  0
  190.5550  177.1170  139.1640 C   0  0  0  0  0  0  0  0  0  0  0  0
  191.4560  177.3780  141.6970 C   0  0  0  0  0  0  0  0  0  0  0  0
  189.5360  177.1210  140.1860 C   0  0  0  0  0  3  0  0  0  0  0  0
  191.9830  177.2470  139.4820 C   0  0  0  0  0  3  0  0  0  0  0  0
  190.6010  176.0420  137.0490 O   0  0  0  0  0  0  0  0  0  0  0  0
  189.2530  177.8830  137.1940 O   0  0  0  0  0  1  0  0  0  0  0  0
  190.1470  176.9790  137.7570 C   0  0  0  0  0  0  0  0  0  0  0  0
  191.3470  177.4880  145.0660 C   0  0  0  0  0  2  0  0  0  0  0  0
  192.0220  175.7030  146.4930 O   0  0  0  0  0  1  0  0  0  0  0  0
  191.8110  176.0940  145.3160 C   0  0  0  0  0  0  0  0  0  0  0  0
  192.0410  175.2350  144.2490 O   0  0  0  0  0  0  0  0  0  0  0  0
  1 24  1  0  0  0  0
  2  8  1  0  0  0  0
  3  2  1  0  0  0  0
  5 13  2  0  0  0  0
  6  9  1  0  0  0  0
  6  4  2  0  0  0  0
  7 12  1  0  0  0  0
  7  3  3  0  0  0  0
  8  1  1  6  0  0  0
  8  6  1  0  0  0  0
 10 13  1  0  0  0  0
 10  9  2  0  0  0  0
 11  5  1  0  0  0  0
 12 11  1  0  0  0  0
 14  1  1  0  0  0  0
 15 18  1  0  0  0  0
 15 14  1  0  0  0  0
 16 18  2  0  0  0  0
 17 20  2  0  0  0  0
 17 19  1  0  0  0  0
 18 14  1  0  0  0  0
 19 15  2  0  0  0  0
 20 16  1  0  0  0  0
 21 23  2  0  0  0  0
 22 23  1  0  0  0  0
 23 17  1  0  0  0  0
 24 26  1  0  0  0  0
 26 25  1  0  0  0  0
 27 26  2  0  0  0  0
M  END
>  <MODEL>
3

>  <REMARK>
 VINA RESULT:      -8.9      2.969      6.795
  Name = 
  5 active torsions:
  status: ('A' for Active; 'I' for Inactive)
    1  A    between atoms: N_1  and  N_2
    2  A    between atoms: N_2  and  C_6
    3  A    between atoms: N_2  and  C_15
    4  A    between atoms: C_6  and  C_13
    5  A    between atoms: C_19  and  C_23
                            x       y       z     vdW  Elec       q    Type
                         _______ _______ _______ _____ _____    ______ ____

>  <TORSDO>
F 5

$$$$
=
 OpenBabel11032419503D

 27 29  0  0  1  0  0  0  0  0999 V2000
  189.9030  177.6380  139.7540 N   0  0  0  0  0  0  0  0  0  0  0  0
  188.6860  177.3850  141.7870 C   0  0  0  0  0  2  0  0  0  0  0  0
  187.7400  177.2890  142.6390 C   0  0  0  0  0  0  0  0  0  0  0  0
  192.2020  177.6650  141.4830 O   0  0  0  0  0  0  0  0  0  0  0  0
  188.8180  177.2580  146.4070 C   0  0  0  0  0  3  0  0  0  0  0  0
  191.0850  177.4690  142.0300 C   0  0  0  0  0  0  0  0  0  0  0  0
  187.0980  177.2400  143.7400 C   0  0  0  0  0  0  0  0  0  0  0  0
  189.8420  177.4940  141.1860 C   0  0  2  0  0  3  0  0  0  0  0  0
  191.0810  177.1720  143.4930 C   0  0  0  0  0  3  0  0  0  0  0  0
  190.0640  177.5030  144.2880 C   0  0  0  0  0  3  0  0  0  0  0  0
  187.5650  177.9910  145.9750 C   0  0  0  0  0  2  0  0  0  0  0  0
  186.7080  177.2530  144.9810 C   0  0  0  0  0  2  0  0  0  0  0  0
  189.9280  177.0610  145.6770 C   0  0  0  0  0  3  0  0  0  0  0  0
  190.7040  176.7810  138.9850 N   0  0  0  0  0  0  0  0  0  0  0  0
  191.9510  176.4040  138.4570 C   0  0  0  0  0  0  0  0  0  0  0  0
  190.7850  174.4910  137.4460 C   0  0  0  0  0  3  0  0  0  0  0  0
  193.2910  175.0020  137.2300 C   0  0  0  0  0  0  0  0  0  0  0  0
  190.8450  175.6300  138.1900 C   0  0  0  0  0  0  0  0  0  0  0  0
  193.2310  176.1970  138.0380 C   0  0  0  0  0  3  0  0  0  0  0  0
  192.1020  174.1850  136.9520 C   0  0  0  0  0  3  0  0  0  0  0  0
  195.6340  175.2340  136.9400 O   0  0  0  0  0  1  0  0  0  0  0  0
  194.6690  173.4810  135.8330 O   0  0  0  0  0  0  0  0  0  0  0  0
  194.5870  174.5900  136.6690 C   0  0  0  0  0  0  0  0  0  0  0  0
  189.0490  178.5990  139.0630 C   0  0  0  0  0  2  0  0  0  0  0  0
  187.6820  176.9850  137.9650 O   0  0  0  0  0  0  0  0  0  0  0  0
  187.7340  177.9800  138.7330 C   0  0  0  0  0  0  0  0  0  0  0  0
  186.5620  178.5190  139.2460 O   0  0  0  0  0  1  0  0  0  0  0  0
  2  3  1  0  0  0  0
  3  7  3  0  0  0  0
  4  6  2  0  0  0  0
  6  9  1  0  0  0  0
  7 12  1  0  0  0  0
  8  1  1  1  0  0  0
  8  2  1  0  0  0  0
  8  6  1  0  0  0  0
  9 10  2  0  0  0  0
 10 13  1  0  0  0  0
 11  5  1  0  0  0  0
 12 11  1  0  0  0  0
 13  5  2  0  0  0  0
 14  1  1  0  0  0  0
 15 14  1  0  0  0  0
 16 18  2  0  0  0  0
 17 19  1  0  0  0  0
 18 15  1  0  0  0  0
 18 14  1  0  0  0  0
 19 15  2  0  0  0  0
 20 17  2  0  0  0  0
 20 16  1  0  0  0  0
 22 23  2  0  0  0  0
 23 21  1  0  0  0  0
 23 17  1  0  0  0  0
 24  1  1  0  0  0  0
 25 26  2  0  0  0  0
 26 24  1  0  0  0  0
 26 27  1  0  0  0  0
M  END
>  <MODEL>
4

>  <REMARK>
 VINA RESULT:      -8.6      3.518      7.039
  Name = 
  5 active torsions:
  status: ('A' for Active; 'I' for Inactive)
    1  A    between atoms: N_1  and  N_2
    2  A    between atoms: N_2  and  C_6
    3  A    between atoms: N_2  and  C_15
    4  A    between atoms: C_6  and  C_13
    5  A    between atoms: C_19  and  C_23
                            x       y       z     vdW  Elec       q    Type
                         _______ _______ _______ _____ _____    ______ ____

>  <TORSDO>
F 5

$$$$
=
 OpenBabel11032419503D

 27 29  0  0  1  0  0  0  0  0999 V2000
  186.4800  177.9040  144.6640 N   0  0  0  0  0  0  0  0  0  0  0  0
  187.7000  178.0040  142.6190 C   0  0  0  0  0  2  0  0  0  0  0  0
  188.0040  178.1010  141.3830 C   0  0  0  0  0  0  0  0  0  0  0  0
  189.0380  177.2590  145.8110 O   0  0  0  0  0  0  0  0  0  0  0  0
  191.7430  177.3660  140.4690 C   0  0  0  0  0  3  0  0  0  0  0  0
  189.0210  177.5280  144.5810 C   0  0  0  0  0  0  0  0  0  0  0  0
  188.6540  178.0680  140.2850 C   0  0  0  0  0  0  0  0  0  0  0  0
  187.7070  177.8230  143.9140 C   0  0  2  0  0  3  0  0  0  0  0  0
  190.3350  177.5830  143.8740 C   0  0  0  0  0  3  0  0  0  0  0  0
  190.4650  177.2830  142.5820 C   0  0  0  0  0  3  0  0  0  0  0  0
  190.6270  176.9070  139.5550 C   0  0  0  0  0  2  0  0  0  0  0  0
  189.5290  177.9140  139.3360 C   0  0  0  0  0  2  0  0  0  0  0  0
  191.6830  177.5120  141.8030 C   0  0  0  0  0  3  0  0  0  0  0  0
  185.2640  178.1590  144.0130 N   0  0  0  0  0  0  0  0  0  0  0  0
  183.9110  178.5430  144.0350 C   0  0  0  0  0  0  0  0  0  0  0  0
  183.9410  178.2680  141.5930 C   0  0  0  0  0  3  0  0  0  0  0  0
  181.9170  178.9940  142.9940 C   0  0  0  0  0  0  0  0  0  0  0  0
  184.5070  178.2440  142.8310 C   0  0  0  0  0  0  0  0  0  0  0  0
  182.6240  178.9330  144.2510 C   0  0  0  0  0  3  0  0  0  0  0  0
  182.5650  178.6720  141.7150 C   0  0  0  0  0  3  0  0  0  0  0  0
  179.6270  178.6510  143.5120 O   0  0  0  0  0  1  0  0  0  0  0  0
  180.1140  180.6040  142.4260 O   0  0  0  0  0  0  0  0  0  0  0  0
  180.5010  179.3960  142.9950 C   0  0  0  0  0  0  0  0  0  0  0  0
  186.4580  177.6120  146.0930 C   0  0  0  0  0  2  0  0  0  0  0  0
  186.0470  179.7900  146.9690 O   0  0  0  0  0  0  0  0  0  0  0  0
  185.6240  178.6160  146.8140 C   0  0  0  0  0  0  0  0  0  0  0  0
  184.3940  178.2480  147.3420 O   0  0  0  0  0  1  0  0  0  0  0  0
  1 24  1  0  0  0  0
  2  8  1  0  0  0  0
  3  2  1  0  0  0  0
  5 13  2  0  0  0  0
  6  4  2  0  0  0  0
  7  3  3  0  0  0  0
  8  6  1  0  0  0  0
  8  1  1  6  0  0  0
  9  6  1  0  0  0  0
 10  9  2  0  0  0  0
 11  5  1  0  0  0  0
 12 11  1  0  0  0  0
 12  7  1  0  0  0  0
 13 10  1  0  0  0  0
 14 15  1  0  0  0  0
 14  1  1  0  0  0  0
 15 19  1  0  0  0  0
 16 20  2  0  0  0  0
 16 18  1  0  0  0  0
 17 23  1  0  0  0  0
 17 19  2  0  0  0  0
 18 14  1  0  0  0  0
 18 15  2  0  0  0  0
 20 17  1  0  0  0  0
 22 23  2  0  0  0  0
 23 21  1  0  0  0  0
 24 26  1  0  0  0  0
 26 25  2  0  0  0  0
 26 27  1  0  0  0  0
M  END
>  <MODEL>
5

>  <REMARK>
 VINA RESULT:      -8.6      2.970      4.890
  Name = 
  5 active torsions:
  status: ('A' for Active; 'I' for Inactive)
    1  A    between atoms: N_1  and  N_2
    2  A    between atoms: N_2  and  C_6
    3  A    between atoms: N_2  and  C_15
    4  A    between atoms: C_6  and  C_13
    5  A    between atoms: C_19  and  C_23
                            x       y       z     vdW  Elec       q    Type
                         _______ _______ _______ _____ _____    ______ ____

>  <TORSDO>
F 5

$$$$
=
 OpenBabel11032419503D

 27 29  0  0  1  0  0  0  0  0999 V2000
  188.4030  177.3700  145.4300 N   0  0  0  0  0  0  0  0  0  0  0  0
  188.8810  177.4640  143.0980 C   0  0  0  0  0  2  0  0  0  0  0  0
  188.7590  177.4830  141.8270 C   0  0  0  0  0  0  0  0  0  0  0  0
  191.2660  177.2890  145.7080 O   0  0  0  0  0  0  0  0  0  0  0  0
  192.0930  177.3030  139.7770 C   0  0  0  0  0  3  0  0  0  0  0  0
  190.8140  177.4230  144.5410 C   0  0  0  0  0  0  0  0  0  0  0  0
  189.0270  177.4470  140.5800 C   0  0  0  0  0  0  0  0  0  0  0  0
  189.3260  177.4210  144.3260 C   0  0  2  0  0  3  0  0  0  0  0  0
  191.8040  177.6270  143.4420 C   0  0  0  0  0  3  0  0  0  0  0  0
  191.5800  177.2220  142.1920 C   0  0  0  0  0  3  0  0  0  0  0  0
  190.8590  176.5690  139.2960 C   0  0  0  0  0  2  0  0  0  0  0  0
  189.5740  177.3470  139.4050 C   0  0  0  0  0  2  0  0  0  0  0  0
  192.4260  177.5730  141.0500 C   0  0  0  0  0  3  0  0  0  0  0  0
  187.0690  177.7690  145.2630 N   0  0  0  0  0  0  0  0  0  0  0  0
  185.9520  178.0240  144.4470 C   0  0  0  0  0  0  0  0  0  0  0  0
  184.7470  178.5780  146.5160 C   0  0  0  0  0  3  0  0  0  0  0  0
  183.7640  178.6460  144.1470 C   0  0  0  0  0  0  0  0  0  0  0  0
  185.8430  178.1850  145.8100 C   0  0  0  0  0  0  0  0  0  0  0  0
  184.9860  178.2200  143.5070 C   0  0  0  0  0  3  0  0  0  0  0  0
  183.6610  178.8140  145.6020 C   0  0  0  0  0  3  0  0  0  0  0  0
  182.6780  178.9260  142.0550 O   0  0  0  0  0  0  0  0  0  0  0  0
  181.3490  179.1650  143.9000 O   0  0  0  0  0  1  0  0  0  0  0  0
  182.5840  178.9170  143.3110 C   0  0  0  0  0  0  0  0  0  0  0  0
  188.8030  176.7980  146.7120 C   0  0  0  0  0  2  0  0  0  0  0  0
  189.3540  178.7530  147.9580 O   0  0  0  0  0  0  0  0  0  0  0  0
  188.5730  177.7790  147.8110 C   0  0  0  0  0  0  0  0  0  0  0  0
  187.5160  177.5990  148.6930 O   0  0  0  0  0  1  0  0  0  0  0  0
  1 24  1  0  0  0  0
  2  8  1  0  0  0  0
  3  2  1  0  0  0  0
  5 13  2  0  0  0  0
  6  4  2  0  0  0  0
  7  3  3  0  0  0  0
  8  6  1  0  0  0  0
  8  1  1  6  0  0  0
  9  6  1  0  0  0  0
 10  9  2  0  0  0  0
 11 12  1  0  0  0  0
 11  5  1  0  0  0  0
 12  7  1  0  0  0  0
 13 10  1  0  0  0  0
 14  1  1  0  0  0  0
 14 18  1  0  0  0  0
 15 14  1  0  0  0  0
 15 18  1  0  0  0  0
 17 20  2  0  0  0  0
 18 16  2  0  0  0  0
 19 17  1  0  0  0  0
 19 15  2  0  0  0  0
 20 16  1  0  0  0  0
 21 23  2  0  0  0  0
 23 22  1  0  0  0  0
 23 17  1  0  0  0  0
 24 26  1  0  0  0  0
 26 25  2  0  0  0  0
 26 27  1  0  0  0  0
M  END
>  <MODEL>
6

>  <REMARK>
 VINA RESULT:      -8.5      2.805      5.265
  Name = 
  5 active torsions:
  status: ('A' for Active; 'I' for Inactive)
    1  A    between atoms: N_1  and  N_2
    2  A    between atoms: N_2  and  C_6
    3  A    between atoms: N_2  and  C_15
    4  A    between atoms: C_6  and  C_13
    5  A    between atoms: C_19  and  C_23
                            x       y       z     vdW  Elec       q    Type
                         _______ _______ _______ _____ _____    ______ ____

>  <TORSDO>
F 5

$$$$
=
 OpenBabel11032419503D

 27 29  0  0  1  0  0  0  0  0999 V2000
  187.9610  177.9100  139.4990 N   0  0  0  0  0  0  0  0  0  0  0  0
  187.9720  177.8790  141.8820 C   0  0  0  0  0  2  0  0  0  0  0  0
  188.3030  177.6750  143.0980 C   0  0  0  0  0  0  0  0  0  0  0  0
  185.3430  179.0570  139.8250 O   0  0  0  0  0  0  0  0  0  0  0  0
  185.6160  178.6140  145.7910 C   0  0  0  0  0  3  0  0  0  0  0  0
  185.9980  178.8350  140.8770 C   0  0  0  0  0  0  0  0  0  0  0  0
  188.2610  177.5860  144.3700 C   0  0  0  0  0  0  0  0  0  0  0  0
  187.3510  178.1890  140.7740 C   0  0  2  0  0  3  0  0  0  0  0  0
  185.3940  179.2790  142.1670 C   0  0  0  0  0  3  0  0  0  0  0  0
  185.6280  178.6540  143.3210 C   0  0  0  0  0  3  0  0  0  0  0  0
  186.4750  177.3790  145.9640 C   0  0  0  0  0  2  0  0  0  0  0  0
  187.9300  177.5640  145.6270 C   0  0  0  0  0  2  0  0  0  0  0  0
  185.2230  179.1660  144.6310 C   0  0  0  0  0  3  0  0  0  0  0  0
  189.3240  177.5890  139.4160 N   0  0  0  0  0  0  0  0  0  0  0  0
  190.4360  177.1110  138.7010 C   0  0  0  0  0  0  0  0  0  0  0  0
  191.7530  177.5650  140.7260 C   0  0  0  0  0  3  0  0  0  0  0  0
  192.6670  176.6030  138.5290 C   0  0  0  0  0  0  0  0  0  0  0  0
  190.6020  177.5380  139.9990 C   0  0  0  0  0  0  0  0  0  0  0  0
  191.3890  176.6230  137.8580 C   0  0  0  0  0  3  0  0  0  0  0  0
  192.8310  177.0620  139.9150 C   0  0  0  0  0  3  0  0  0  0  0  0
  194.1170  176.5520  136.6510 O   0  0  0  0  0  0  0  0  0  0  0  0
  194.6690  175.1440  138.3660 O   0  0  0  0  0  1  0  0  0  0  0  0
  193.8440  176.1080  137.7970 C   0  0  0  0  0  0  0  0  0  0  0  0
  187.1550  177.8450  138.2840 C   0  0  0  0  0  2  0  0  0  0  0  0
  187.9200  177.9480  136.0300 O   0  0  0  0  0  0  0  0  0  0  0  0
  187.8660  178.5090  137.1540 C   0  0  0  0  0  0  0  0  0  0  0  0
  188.4960  179.7300  137.3510 O   0  0  0  0  0  1  0  0  0  0  0  0
  2  3  1  0  0  0  0
  3  7  3  0  0  0  0
  4  6  2  0  0  0  0
  5 11  1  0  0  0  0
  6  9  1  0  0  0  0
  7 12  1  0  0  0  0
  8  1  1  6  0  0  0
  8  6  1  0  0  0  0
  8  2  1  0  0  0  0
  9 10  2  0  0  0  0
 10 13  1  0  0  0  0
 12 11  1  0  0  0  0
 13  5  2  0  0  0  0
 14  1  1  0  0  0  0
 14 18  1  0  0  0  0
 15 14  1  0  0  0  0
 15 18  1  0  0  0  0
 17 20  2  0  0  0  0
 18 16  2  0  0  0  0
 19 17  1  0  0  0  0
 19 15  2  0  0  0  0
 20 16  1  0  0  0  0
 21 23  2  0  0  0  0
 23 22  1  0  0  0  0
 23 17  1  0  0  0  0
 24  1  1  0  0  0  0
 25 26  2  0  0  0  0
 26 27  1  0  0  0  0
 26 24  1  0  0  0  0
M  END
>  <MODEL>
7

>  <REMARK>
 VINA RESULT:      -8.3      2.762      6.944
  Name = 
  5 active torsions:
  status: ('A' for Active; 'I' for Inactive)
    1  A    between atoms: N_1  and  N_2
    2  A    between atoms: N_2  and  C_6
    3  A    between atoms: N_2  and  C_15
    4  A    between atoms: C_6  and  C_13
    5  A    between atoms: C_19  and  C_23
                            x       y       z     vdW  Elec       q    Type
                         _______ _______ _______ _____ _____    ______ ____

>  <TORSDO>
F 5

$$$$
=
 OpenBabel11032419503D

 27 29  0  0  1  0  0  0  0  0999 V2000
  189.0590  177.8830  140.9460 N   0  0  0  0  0  0  0  0  0  0  0  0
  188.8040  177.4850  143.2820 C   0  0  0  0  0  2  0  0  0  0  0  0
  188.3080  177.3630  144.4520 C   0  0  0  0  0  0  0  0  0  0  0  0
  191.8590  177.5140  141.4940 O   0  0  0  0  0  0  0  0  0  0  0  0
  190.8760  176.7880  147.3560 C   0  0  0  0  0  3  0  0  0  0  0  0
  191.0670  177.3440  142.4570 C   0  0  0  0  0  0  0  0  0  0  0  0
  188.1960  177.2330  145.7170 C   0  0  0  0  0  0  0  0  0  0  0  0
  189.5970  177.5730  142.2460 C   0  0  2  0  0  3  0  0  0  0  0  0
  191.6500  176.8730  143.7490 C   0  0  0  0  0  3  0  0  0  0  0  0
  191.1200  177.1870  144.9310 C   0  0  0  0  0  3  0  0  0  0  0  0
  189.6610  177.6660  147.5710 C   0  0  0  0  0  2  0  0  0  0  0  0
  188.3770  177.1260  146.9990 C   0  0  0  0  0  2  0  0  0  0  0  0
  191.5340  176.5910  146.2020 C   0  0  0  0  0  3  0  0  0  0  0  0
  187.7090  178.2330  140.8000 N   0  0  0  0  0  0  0  0  0  0  0  0
  186.5660  178.4310  140.0040 C   0  0  0  0  0  0  0  0  0  0  0  0
  185.3890  178.9970  142.0860 C   0  0  0  0  0  3  0  0  0  0  0  0
  184.3520  178.9730  139.7390 C   0  0  0  0  0  0  0  0  0  0  0  0
  186.4820  178.6230  141.3650 C   0  0  0  0  0  0  0  0  0  0  0  0
  185.5740  178.5720  139.0820 C   0  0  0  0  0  3  0  0  0  0  0  0
  184.2760  179.1740  141.1920 C   0  0  0  0  0  3  0  0  0  0  0  0
  182.5310  178.2040  138.4270 O   0  0  0  0  0  0  0  0  0  0  0  0
  182.6700  180.4700  138.6960 O   0  0  0  0  0  1  0  0  0  0  0  0
  183.1450  179.1840  138.9240 C   0  0  0  0  0  0  0  0  0  0  0  0
  189.9280  177.9500  139.7760 C   0  0  0  0  0  2  0  0  0  0  0  0
  188.8010  176.6890  138.0960 O   0  0  0  0  0  0  0  0  0  0  0  0
  189.7450  176.7390  138.9260 C   0  0  0  0  0  0  0  0  0  0  0  0
  190.5970  175.6520  139.0710 O   0  0  0  0  0  1  0  0  0  0  0  0
  2  3  1  0  0  0  0
  3  7  3  0  0  0  0
  4  6  2  0  0  0  0
  5 11  1  0  0  0  0
  6  9  1  0  0  0  0
  7 12  1  0  0  0  0
  8  1  1  1  0  0  0
  8  6  1  0  0  0  0
  8  2  1  0  0  0  0
  9 10  2  0  0  0  0
 10 13  1  0  0  0  0
 12 11  1  0  0  0  0
 13  5  2  0  0  0  0
 14  1  1  0  0  0  0
 14 18  1  0  0  0  0
 15 14  1  0  0  0  0
 15 18  1  0  0  0  0
 17 20  2  0  0  0  0
 18 16  2  0  0  0  0
 19 17  1  0  0  0  0
 19 15  2  0  0  0  0
 20 16  1  0  0  0  0
 21 23  2  0  0  0  0
 22 23  1  0  0  0  0
 23 17  1  0  0  0  0
 24  1  1  0  0  0  0
 25 26  2  0  0  0  0
 26 27  1  0  0  0  0
 26 24  1  0  0  0  0
M  END
>  <MODEL>
8

>  <REMARK>
 VINA RESULT:      -8.3      1.823      2.333
  Name = 
  5 active torsions:
  status: ('A' for Active; 'I' for Inactive)
    1  A    between atoms: N_1  and  N_2
    2  A    between atoms: N_2  and  C_6
    3  A    between atoms: N_2  and  C_15
    4  A    between atoms: C_6  and  C_13
    5  A    between atoms: C_19  and  C_23
                            x       y       z     vdW  Elec       q    Type
                         _______ _______ _______ _____ _____    ______ ____

>  <TORSDO>
F 5

$$$$
=
 OpenBabel11032419503D

 27 29  0  0  1  0  0  0  0  0999 V2000
  189.3650  176.9820  142.7750 N   0  0  0  0  0  0  0  0  0  0  0  0
  187.0580  177.5720  142.8680 C   0  0  0  0  0  2  0  0  0  0  0  0
  185.8630  177.8790  142.5400 C   0  0  0  0  0  0  0  0  0  0  0  0
  189.2590  177.3310  145.6300 O   0  0  0  0  0  0  0  0  0  0  0  0
  183.5110  179.0030  145.4660 C   0  0  0  0  0  3  0  0  0  0  0  0
  188.1750  177.4600  145.0030 C   0  0  0  0  0  0  0  0  0  0  0  0
  184.6520  178.2790  142.5950 C   0  0  0  0  0  0  0  0  0  0  0  0
  188.1760  177.3400  143.5050 C   0  0  2  0  0  3  0  0  0  0  0  0
  186.9390  177.6790  145.8120 C   0  0  0  0  0  3  0  0  0  0  0  0
  185.8970  178.3730  145.3540 C   0  0  0  0  0  3  0  0  0  0  0  0
  183.4310  179.6830  144.1160 C   0  0  0  0  0  2  0  0  0  0  0  0
  183.4900  178.7550  142.9320 C   0  0  0  0  0  2  0  0  0  0  0  0
  184.5980  178.4450  146.0240 C   0  0  0  0  0  3  0  0  0  0  0  0
  189.4050  177.0980  141.3790 N   0  0  0  0  0  0  0  0  0  0  0  0
  189.9480  176.7520  140.1280 C   0  0  0  0  0  0  0  0  0  0  0  0
  188.2750  178.2600  139.1450 C   0  0  0  0  0  3  0  0  0  0  0  0
  190.0170  176.9020  137.8400 C   0  0  0  0  0  0  0  0  0  0  0  0
  188.8960  177.6380  140.1850 C   0  0  0  0  0  0  0  0  0  0  0  0
  190.5960  176.3020  139.0180 C   0  0  0  0  0  3  0  0  0  0  0  0
  188.8940  177.8460  137.9140 C   0  0  0  0  0  3  0  0  0  0  0  0
  189.8920  176.7310  135.4760 O   0  0  0  0  0  0  0  0  0  0  0  0
  191.8520  176.0220  136.4170 O   0  0  0  0  0  1  0  0  0  0  0  0
  190.5710  176.5520  136.5220 C   0  0  0  0  0  0  0  0  0  0  0  0
  190.5850  176.6000  143.4790 C   0  0  0  0  0  2  0  0  0  0  0  0
  192.4320  177.4650  142.2450 O   0  0  0  0  0  0  0  0  0  0  0  0
  191.6610  177.6020  143.2290 C   0  0  0  0  0  0  0  0  0  0  0  0
  191.8330  178.6690  144.1000 O   0  0  0  0  0  1  0  0  0  0  0  0
  1 24  1  0  0  0  0
  2  8  1  0  0  0  0
  3  7  3  0  0  0  0
  3  2  1  0  0  0  0
  5 13  2  0  0  0  0
  6  4  2  0  0  0  0
  6  9  1  0  0  0  0
  7 12  1  0  0  0  0
  8  1  1  6  0  0  0
  8  6  1  0  0  0  0
 10  9  2  0  0  0  0
 10 13  1  0  0  0  0
 11  5  1  0  0  0  0
 12 11  1  0  0  0  0
 14  1  1  0  0  0  0
 15 18  1  0  0  0  0
 15 14  1  0  0  0  0
 16 18  2  0  0  0  0
 17 20  2  0  0  0  0
 17 19  1  0  0  0  0
 18 14  1  0  0  0  0
 19 15  2  0  0  0  0
 20 16  1  0  0  0  0
 21 23  2  0  0  0  0
 22 23  1  0  0  0  0
 23 17  1  0  0  0  0
 25 26  2  0  0  0  0
 26 24  1  0  0  0  0
 26 27  1  0  0  0  0
M  END
>  <MODEL>
9

>  <REMARK>
 VINA RESULT:      -8.3      2.937      6.604
  Name = 
  5 active torsions:
  status: ('A' for Active; 'I' for Inactive)
    1  A    between atoms: N_1  and  N_2
    2  A    between atoms: N_2  and  C_6
    3  A    between atoms: N_2  and  C_15
    4  A    between atoms: C_6  and  C_13
    5  A    between atoms: C_19  and  C_23
                            x       y       z     vdW  Elec       q    Type
                         _______ _______ _______ _____ _____    ______ ____

>  <TORSDO>
F 5

$$$$
