=
 OpenBabel11042412453D

 59 64  0  0  1  0  0  0  0  0999 V2000
  193.7170  175.1650  137.9010 C   0  0  0  0  0  3  0  0  0  0  0  0
  192.6080  175.7590  137.4270 C   0  0  0  0  0  0  0  0  0  0  0  0
  190.8780  171.5730  134.9640 Cl  0  0  0  0  0  0  0  0  0  0  0  0
  191.4570  173.8970  136.2690 C   0  0  0  0  0  3  0  0  0  0  0  0
  189.9690  176.1070  134.7520 C   0  0  0  0  0  3  0  0  0  0  0  0
  188.9180  175.0810  134.9430 C   0  0  0  0  0  0  0  0  0  0  0  0
  190.6270  173.3280  135.1730 C   0  0  2  0  0  3  0  0  0  0  0  0
  191.1630  176.1660  135.3630 C   0  0  0  0  0  3  0  0  0  0  0  0
  191.7150  175.2090  136.3590 C   0  0  0  0  0  0  0  0  0  0  0  0
  189.1970  173.8030  135.2660 C   0  0  0  0  0  0  0  0  0  0  0  0
  186.8310  176.0920  135.9990 C   0  0  0  0  0  0  0  0  0  0  0  0
  187.5640  175.5510  134.8950 N   0  0  0  0  0  2  0  0  0  0  0  0
  187.2510  175.9550  137.1790 O   0  0  0  0  0  0  0  0  0  0  0  0
  185.5370  176.7940  135.7530 C   0  0  0  0  0  2  0  0  0  0  0  0
  181.6350  175.8500  137.7180 N   0  0  0  0  0  0  0  0  0  0  0  0
  179.3910  175.1110  139.3090 C   0  0  0  0  0  2  0  0  0  0  0  0
  184.9980  177.3850  137.0190 C   0  0  0  0  0  0  0  0  0  0  0  0
  184.8760  178.4990  138.9180 C   0  0  0  0  0  3  0  0  0  0  0  0
  183.6800  177.8440  138.6760 C   0  0  0  0  0  3  0  0  0  0  0  0
  179.2040  175.5790  137.8700 C   0  0  0  0  0  2  0  0  0  0  0  0
  185.7220  178.2050  137.8610 C   0  0  0  0  0  3  0  0  0  0  0  0
  180.4620  175.2790  137.0570 C   0  0  0  0  0  2  0  0  0  0  0  0
  181.8520  175.5200  139.1270 C   0  0  0  0  0  2  0  0  0  0  0  0
  180.5900  175.8150  139.9350 C   0  0  0  0  0  2  0  0  0  0  0  0
  183.7640  177.1620  137.5190 N   0  0  0  0  0  0  0  0  0  0  0  0
  182.7060  176.3890  136.9220 C   0  0  0  0  0  0  0  0  0  0  0  0
  182.7030  176.2010  135.6740 O   0  0  0  0  0  0  0  0  0  0  0  0
  188.0230  172.5370  137.0620 C   0  0  0  0  0  1  0  0  0  0  0  0
  188.1530  172.9810  135.7210 O   0  0  0  0  0  0  0  0  0  0  0  0
  196.2390  171.9180  136.6730 C   0  0  0  0  0  0  0  0  0  0  0  0
  196.9950  170.7300  136.1900 C   0  0  0  0  0  1  0  0  0  0  0  0
  195.1710  173.2720  138.5280 C   0  0  0  0  0  2  0  0  0  0  0  0
  195.1540  174.1190  136.1920 C   0  0  0  0  0  2  0  0  0  0  0  0
  195.6910  171.9050  138.0820 C   0  0  0  0  0  2  0  0  0  0  0  0
  195.9220  172.8850  135.7950 C   0  0  0  0  0  3  0  0  0  0  0  0
  194.2960  173.8730  137.4330 C   0  0  2  0  0  3  0  0  0  0  0  0
  192.2810  177.0970  138.0200 C   0  0  0  0  0  2  0  0  0  0  0  0
  189.6470  176.8060  139.2920 C   0  0  0  0  0  1  0  0  0  0  0  0
  190.8370  176.9350  140.1190 N   0  0  0  0  0  0  0  0  0  0  0  0
  193.1670  177.1200  140.2460 O   0  0  0  0  0  0  0  0  0  0  0  0
  192.1400  177.0350  139.5160 C   0  0  0  0  0  0  0  0  0  0  0  0
  189.8760  175.8460  141.9560 O   0  0  0  0  0  1  0  0  0  0  0  0
  190.6570  176.9400  141.5720 C   0  0  2  0  0  3  0  0  0  0  0  0
  187.6150  177.9760  142.7690 C   0  0  0  0  0  0  0  0  0  0  0  0
  188.5960  178.2730  141.7780 N   0  0  0  0  0  2  0  0  0  0  0  0
  186.4060  177.8650  142.4430 O   0  0  0  0  0  0  0  0  0  0  0  0
  190.0290  178.2520  142.0560 C   0  0  1  0  0  3  0  0  0  0  0  0
  191.3150  179.2840  143.8650 C   0  0  0  0  0  2  0  0  0  0  0  0
  190.3040  178.4930  143.5200 C   0  0  0  0  0  0  0  0  0  0  0  0
  187.9990  177.8270  144.1360 N   0  0  0  0  0  2  0  0  0  0  0  0
  189.3840  177.9570  144.5910 C   0  0  1  0  0  3  0  0  0  0  0  0
  191.4260  176.5950  145.1840 C   0  0  0  0  0  2  0  0  0  0  0  0
  189.8170  177.2810  147.7360 C   0  0  0  0  0  2  0  0  0  0  0  0
  189.2960  176.3910  146.6470 C   0  0  0  0  0  2  0  0  0  0  0  0
  189.8960  176.6730  145.2570 C   0  0  1  0  0  3  0  0  0  0  0  0
  191.0910  177.3510  148.1310 C   0  0  0  0  0  0  0  0  0  0  0  0
  192.0300  175.7790  146.3210 C   0  0  0  0  0  2  0  0  0  0  0  0
  191.4240  178.2700  149.2480 C   0  0  0  0  0  1  0  0  0  0  0  0
  192.1560  176.6140  147.5100 N   0  0  0  0  0  0  0  0  0  0  0  0
  2  1  2  0  0  0  0
  2 37  1  0  0  0  0
  4  9  2  0  0  0  0
  5  6  1  0  0  0  0
  5  8  2  0  0  0  0
  6 10  2  0  0  0  0
  7  3  1  1  0  0  0
  7 10  1  0  0  0  0
  7  4  1  0  0  0  0
  8  9  1  0  0  0  0
  9  2  1  0  0  0  0
 10 29  1  0  0  0  0
 11 13  2  0  0  0  0
 12  6  1  0  0  0  0
 12 11  1  0  0  0  0
 14 11  1  0  0  0  0
 14 17  1  0  0  0  0
 15 23  1  0  0  0  0
 16 24  1  0  0  0  0
 17 25  1  0  0  0  0
 17 21  2  0  0  0  0
 19 18  2  0  0  0  0
 20 16  1  0  0  0  0
 21 18  1  0  0  0  0
 22 15  1  0  0  0  0
 22 20  1  0  0  0  0
 23 24  1  0  0  0  0
 25 19  1  0  0  0  0
 26 25  1  0  0  0  0
 26 15  1  0  0  0  0
 27 26  2  0  0  0  0
 29 28  1  0  0  0  0
 30 34  1  0  0  0  0
 31 30  1  0  0  0  0
 33 36  1  0  0  0  0
 34 32  1  0  0  0  0
 35 33  1  0  0  0  0
 35 30  2  0  0  0  0
 36  1  1  1  0  0  0
 36 32  1  0  0  0  0
 37 41  1  0  0  0  0
 38 39  1  0  0  0  0
 39 43  1  0  0  0  0
 41 39  1  0  0  0  0
 41 40  2  0  0  0  0
 43 42  1  6  0  0  0
 44 50  1  0  0  0  0
 45 47  1  0  0  0  0
 45 44  1  0  0  0  0
 46 44  2  0  0  0  0
 47 43  1  1  0  0  0
 47 49  1  0  0  0  0
 49 48  2  0  0  0  0
 50 51  1  0  0  0  0
 51 49  1  6  0  0  0
 51 55  1  0  0  0  0
 52 57  1  0  0  0  0
 53 56  1  0  0  0  0
 54 53  1  0  0  0  0
 55 52  1  1  0  0  0
 55 54  1  0  0  0  0
 56 58  1  0  0  0  0
 57 59  1  0  0  0  0
 59 56  2  0  0  0  0
M  END
>  <MODEL>
1

>  <REMARK>
 VINA RESULT:      -7.5      0.000      0.000
  Name = 
  11 active torsions:
  status: ('A' for Active; 'I' for Inactive)
    1  A    between atoms: O_6  and  C_55
    2  A    between atoms: C_12  and  C_40
    3  A    between atoms: N_18  and  C_48
    4  A    between atoms: N_19  and  C_28
    5  A    between atoms: C_20  and  C_40
    6  A    between atoms: C_24  and  C_48
    7  A    between atoms: C_30  and  C_59
    8  A    between atoms: C_32  and  C_57
    9  A    between atoms: C_34  and  C_43
   10  A    between atoms: C_43  and  C_58
   11  A    between atoms: C_51  and  C_58
                            x       y       z     vdW  Elec       q    Type
                         _______ _______ _______ _____ _____    ______ ____

>  <TORSDO>
F 11

$$$$
=
 OpenBabel11042412453D

 59 64  0  0  1  0  0  0  0  0999 V2000
  191.8110  176.6710  139.0230 C   0  0  0  0  0  3  0  0  0  0  0  0
  190.5710  176.3090  138.6510 C   0  0  0  0  0  0  0  0  0  0  0  0
  191.5370  172.1980  135.6940 Cl  0  0  0  0  0  0  0  0  0  0  0  0
  190.6840  174.3010  137.2080 C   0  0  0  0  0  3  0  0  0  0  0  0
  188.4750  175.6680  135.5800 C   0  0  0  0  0  3  0  0  0  0  0  0
  188.0800  174.2420  135.5260 C   0  0  0  0  0  0  0  0  0  0  0  0
  190.4020  173.5510  135.9540 C   0  0  2  0  0  3  0  0  0  0  0  0
  189.3860  176.2260  136.3920 C   0  0  0  0  0  3  0  0  0  0  0  0
  190.2230  175.5420  137.4140 C   0  0  0  0  0  0  0  0  0  0  0  0
  188.9310  173.2380  135.8210 C   0  0  0  0  0  0  0  0  0  0  0  0
  185.6440  174.0250  136.2400 C   0  0  0  0  0  0  0  0  0  0  0  0
  186.6950  173.9810  135.2680 N   0  0  0  0  0  2  0  0  0  0  0  0
  185.9090  174.0490  137.4710 O   0  0  0  0  0  0  0  0  0  0  0  0
  184.2210  174.0060  135.7910 C   0  0  0  0  0  2  0  0  0  0  0  0
  181.4940  175.8360  138.8220 N   0  0  0  0  0  0  0  0  0  0  0  0
  180.0780  177.2930  140.8190 C   0  0  0  0  0  2  0  0  0  0  0  0
  183.6470  175.3900  135.7690 C   0  0  0  0  0  0  0  0  0  0  0  0
  183.2840  177.4920  135.2150 C   0  0  0  0  0  3  0  0  0  0  0  0
  182.5020  177.1480  136.3050 C   0  0  0  0  0  3  0  0  0  0  0  0
  179.5060  176.0010  140.2440 C   0  0  0  0  0  2  0  0  0  0  0  0
  184.0200  176.3700  134.8720 C   0  0  0  0  0  3  0  0  0  0  0  0
  180.6380  175.1020  139.7530 C   0  0  0  0  0  2  0  0  0  0  0  0
  182.0260  177.1270  139.2580 C   0  0  0  0  0  2  0  0  0  0  0  0
  180.8920  178.0210  139.7540 C   0  0  0  0  0  2  0  0  0  0  0  0
  182.7330  175.8660  136.6410 N   0  0  0  0  0  0  0  0  0  0  0  0
  182.0790  175.1460  137.7030 C   0  0  0  0  0  0  0  0  0  0  0  0
  181.9950  173.8880  137.6390 O   0  0  0  0  0  0  0  0  0  0  0  0
  188.2430  170.9830  135.0180 C   0  0  0  0  0  1  0  0  0  0  0  0
  188.4060  171.9540  136.0390 O   0  0  0  0  0  0  0  0  0  0  0  0
  194.9000  175.2440  136.4100 C   0  0  0  0  0  0  0  0  0  0  0  0
  196.0660  174.8200  135.5870 C   0  0  0  0  0  1  0  0  0  0  0  0
  192.8380  176.6660  136.7790 C   0  0  0  0  0  2  0  0  0  0  0  0
  193.5030  174.9660  138.4640 C   0  0  0  0  0  2  0  0  0  0  0  0
  194.1510  176.4970  136.0150 C   0  0  0  0  0  2  0  0  0  0  0  0
  194.6550  174.6020  137.5650 C   0  0  0  0  0  3  0  0  0  0  0  0
  193.0710  176.4190  138.2650 C   0  0  2  0  0  3  0  0  0  0  0  0
  189.4640  176.7510  139.5610 C   0  0  0  0  0  2  0  0  0  0  0  0
  188.5480  178.9290  141.3100 C   0  0  0  0  0  1  0  0  0  0  0  0
  189.4810  177.9370  141.8210 N   0  0  0  0  0  0  0  0  0  0  0  0
  190.6960  175.9690  141.4600 O   0  0  0  0  0  0  0  0  0  0  0  0
  189.9070  176.8390  140.9950 C   0  0  0  0  0  0  0  0  0  0  0  0
  191.3430  178.0790  143.2340 O   0  0  0  0  0  1  0  0  0  0  0  0
  189.9460  178.0900  143.2010 C   0  0  2  0  0  3  0  0  0  0  0  0
  188.6320  177.8930  146.3630 C   0  0  0  0  0  0  0  0  0  0  0  0
  189.6230  177.3130  145.5150 N   0  0  0  0  0  2  0  0  0  0  0  0
  188.9430  178.2780  147.5190 O   0  0  0  0  0  0  0  0  0  0  0  0
  189.3730  176.9990  144.1120 C   0  0  1  0  0  3  0  0  0  0  0  0
  187.5290  175.7830  143.0560 C   0  0  0  0  0  2  0  0  0  0  0  0
  187.9020  176.7760  143.8560 C   0  0  0  0  0  0  0  0  0  0  0  0
  187.2840  178.0170  145.9100 N   0  0  0  0  0  2  0  0  0  0  0  0
  186.8480  177.5780  144.5840 C   0  0  1  0  0  3  0  0  0  0  0  0
  185.6590  178.2100  142.4480 C   0  0  0  0  0  2  0  0  0  0  0  0
  184.0270  179.1510  144.9020 C   0  0  0  0  0  2  0  0  0  0  0  0
  185.3760  179.7030  144.5470 C   0  0  0  0  0  2  0  0  0  0  0  0
  186.2700  178.7320  143.7550 C   0  0  1  0  0  3  0  0  0  0  0  0
  183.0960  178.7690  144.0240 C   0  0  0  0  0  0  0  0  0  0  0  0
  184.5420  179.1030  141.9200 C   0  0  0  0  0  2  0  0  0  0  0  0
  181.8020  178.2720  144.5550 C   0  0  0  0  0  1  0  0  0  0  0  0
  183.2940  178.7800  142.6020 N   0  0  0  0  0  0  0  0  0  0  0  0
  2  1  2  0  0  0  0
  2 37  1  0  0  0  0
  4  9  2  0  0  0  0
  5  8  2  0  0  0  0
  6  5  1  0  0  0  0
  6 10  2  0  0  0  0
  7  3  1  1  0  0  0
  7  4  1  0  0  0  0
  8  9  1  0  0  0  0
  9  2  1  0  0  0  0
 10  7  1  0  0  0  0
 10 29  1  0  0  0  0
 11 13  2  0  0  0  0
 12  6  1  0  0  0  0
 12 11  1  0  0  0  0
 14 11  1  0  0  0  0
 15 23  1  0  0  0  0
 15 22  1  0  0  0  0
 17 14  1  0  0  0  0
 17 25  1  0  0  0  0
 18 19  2  0  0  0  0
 19 25  1  0  0  0  0
 20 16  1  0  0  0  0
 21 18  1  0  0  0  0
 21 17  2  0  0  0  0
 22 20  1  0  0  0  0
 23 24  1  0  0  0  0
 24 16  1  0  0  0  0
 25 26  1  0  0  0  0
 26 15  1  0  0  0  0
 27 26  2  0  0  0  0
 28 29  1  0  0  0  0
 30 35  2  0  0  0  0
 31 30  1  0  0  0  0
 32 36  1  0  0  0  0
 34 30  1  0  0  0  0
 34 32  1  0  0  0  0
 35 33  1  0  0  0  0
 36 33  1  0  0  0  0
 36  1  1  1  0  0  0
 37 41  1  0  0  0  0
 38 39  1  0  0  0  0
 39 43  1  0  0  0  0
 41 40  2  0  0  0  0
 41 39  1  0  0  0  0
 43 42  1  6  0  0  0
 44 46  2  0  0  0  0
 45 44  1  0  0  0  0
 47 43  1  6  0  0  0
 47 45  1  0  0  0  0
 48 49  2  0  0  0  0
 49 47  1  0  0  0  0
 50 44  1  0  0  0  0
 51 49  1  6  0  0  0
 51 50  1  0  0  0  0
 54 53  1  0  0  0  0
 55 52  1  6  0  0  0
 55 54  1  0  0  0  0
 55 51  1  0  0  0  0
 56 58  1  0  0  0  0
 56 53  1  0  0  0  0
 57 52  1  0  0  0  0
 57 59  1  0  0  0  0
 59 56  2  0  0  0  0
M  END
>  <MODEL>
2

>  <REMARK>
 VINA RESULT:      -6.5      2.233      4.031
  Name = 
  11 active torsions:
  status: ('A' for Active; 'I' for Inactive)
    1  A    between atoms: O_6  and  C_55
    2  A    between atoms: C_12  and  C_40
    3  A    between atoms: N_18  and  C_48
    4  A    between atoms: N_19  and  C_28
    5  A    between atoms: C_20  and  C_40
    6  A    between atoms: C_24  and  C_48
    7  A    between atoms: C_30  and  C_59
    8  A    between atoms: C_32  and  C_57
    9  A    between atoms: C_34  and  C_43
   10  A    between atoms: C_43  and  C_58
   11  A    between atoms: C_51  and  C_58
                            x       y       z     vdW  Elec       q    Type
                         _______ _______ _______ _____ _____    ______ ____

>  <TORSDO>
F 11

$$$$
=
 OpenBabel11042412453D

 59 64  0  0  1  0  0  0  0  0999 V2000
  185.3300  178.7920  142.2490 C   0  0  0  0  0  3  0  0  0  0  0  0
  186.0380  178.7610  141.1060 C   0  0  0  0  0  0  0  0  0  0  0  0
  190.5650  178.6900  143.5710 Cl  0  0  0  0  0  0  0  0  0  0  0  0
  188.2840  178.4400  142.0960 C   0  0  0  0  0  3  0  0  0  0  0  0
  189.1970  177.9470  139.2120 C   0  0  0  0  0  3  0  0  0  0  0  0
  190.0110  176.9750  139.9790 C   0  0  0  0  0  0  0  0  0  0  0  0
  189.7660  178.3320  142.0150 C   0  0  2  0  0  3  0  0  0  0  0  0
  188.1280  178.6300  139.6470 C   0  0  0  0  0  3  0  0  0  0  0  0
  187.5200  178.5850  141.0040 C   0  0  0  0  0  0  0  0  0  0  0  0
  190.1860  177.0640  141.3130 C   0  0  0  0  0  0  0  0  0  0  0  0
  190.8660  175.8490  137.8590 C   0  0  0  0  0  0  0  0  0  0  0  0
  190.5030  175.8470  139.2440 N   0  0  0  0  0  2  0  0  0  0  0  0
  190.5310  176.8030  137.1080 O   0  0  0  0  0  0  0  0  0  0  0  0
  191.6180  174.6910  137.2910 C   0  0  0  0  0  2  0  0  0  0  0  0
  195.7510  173.0710  136.7780 N   0  0  0  0  0  0  0  0  0  0  0  0
  198.2570  171.9320  136.0440 C   0  0  0  0  0  2  0  0  0  0  0  0
  192.6520  175.1520  136.3110 C   0  0  0  0  0  0  0  0  0  0  0  0
  193.6070  176.1780  134.6100 C   0  0  0  0  0  3  0  0  0  0  0  0
  194.5200  175.3450  135.2320 C   0  0  0  0  0  3  0  0  0  0  0  0
  198.0040  172.4030  137.4730 C   0  0  0  0  0  2  0  0  0  0  0  0
  192.4090  176.0550  135.2960 C   0  0  0  0  0  3  0  0  0  0  0  0
  196.5110  172.3350  137.7880 C   0  0  0  0  0  2  0  0  0  0  0  0
  195.9880  172.7420  135.3720 C   0  0  0  0  0  2  0  0  0  0  0  0
  197.4820  172.8060  135.0630 C   0  0  0  0  0  2  0  0  0  0  0  0
  193.9290  174.7170  136.2650 N   0  0  0  0  0  0  0  0  0  0  0  0
  194.5730  173.7990  137.1680 C   0  0  0  0  0  0  0  0  0  0  0  0
  194.1100  173.6470  138.3330 O   0  0  0  0  0  0  0  0  0  0  0  0
  190.1420  175.4210  143.1850 C   0  0  0  0  0  1  0  0  0  0  0  0
  190.7070  175.9540  141.9980 O   0  0  0  0  0  0  0  0  0  0  0  0
  186.1900  177.8790  146.3520 C   0  0  0  0  0  0  0  0  0  0  0  0
  186.5690  177.6830  147.7780 C   0  0  0  0  0  1  0  0  0  0  0  0
  186.3830  177.2870  143.8970 C   0  0  0  0  0  2  0  0  0  0  0  0
  184.7810  179.0350  144.6400 C   0  0  0  0  0  2  0  0  0  0  0  0
  187.0290  177.2190  145.2810 C   0  0  0  0  0  2  0  0  0  0  0  0
  185.2260  178.7670  146.0540 C   0  0  0  0  0  3  0  0  0  0  0  0
  185.8810  178.7020  143.6320 C   0  0  2  0  0  3  0  0  0  0  0  0
  185.2470  178.9470  139.8450 C   0  0  0  0  0  2  0  0  0  0  0  0
  185.4970  177.5650  137.2620 C   0  0  0  0  0  1  0  0  0  0  0  0
  184.5140  177.1080  138.2330 N   0  0  0  0  0  0  0  0  0  0  0  0
  183.5670  177.3200  140.3630 O   0  0  0  0  0  0  0  0  0  0  0  0
  184.4060  177.7440  139.5200 C   0  0  0  0  0  0  0  0  0  0  0  0
  184.1930  174.7930  138.3790 O   0  0  0  0  0  1  0  0  0  0  0  0
  183.6640  175.9770  137.8570 C   0  0  2  0  0  3  0  0  0  0  0  0
  182.2430  173.8000  135.6210 C   0  0  0  0  0  0  0  0  0  0  0  0
  183.4630  174.4790  135.9120 N   0  0  0  0  0  2  0  0  0  0  0  0
  182.2510  172.5610  135.4030 O   0  0  0  0  0  0  0  0  0  0  0  0
  183.5050  175.8760  136.3360 C   0  0  1  0  0  3  0  0  0  0  0  0
  182.4410  177.8630  135.3800 C   0  0  0  0  0  2  0  0  0  0  0  0
  182.2900  176.6290  135.8520 C   0  0  0  0  0  0  0  0  0  0  0  0
  181.0160  174.5260  135.5530 N   0  0  0  0  0  2  0  0  0  0  0  0
  180.9330  175.9690  135.7800 C   0  0  1  0  0  3  0  0  0  0  0  0
  180.8010  176.3210  138.2780 C   0  0  0  0  0  2  0  0  0  0  0  0
  179.8500  178.8590  136.7860 C   0  0  0  0  0  3  0  0  0  0  0  0
  179.1210  177.5490  136.7330 C   0  0  0  0  0  2  0  0  0  0  0  0
  180.0160  176.3160  136.9600 C   0  0  1  0  0  3  0  0  0  0  0  0
  180.4990  179.3370  137.8510 C   0  0  0  0  0  0  0  0  0  0  0  0
  180.1930  177.2470  139.3240 C   0  0  0  0  0  2  0  0  0  0  0  0
  181.1420  180.6690  137.7330 C   0  0  0  0  0  1  0  0  0  0  0  0
  180.6390  178.6150  139.0850 N   0  0  0  0  0  2  0  0  0  0  0  0
  2  1  2  0  0  0  0
  5  8  2  0  0  0  0
  5  6  1  0  0  0  0
  6 10  2  0  0  0  0
  7  4  1  0  0  0  0
  7  3  1  1  0  0  0
  8  9  1  0  0  0  0
  9  2  1  0  0  0  0
  9  4  2  0  0  0  0
 10 29  1  0  0  0  0
 10  7  1  0  0  0  0
 11 12  1  0  0  0  0
 12  6  1  0  0  0  0
 13 11  2  0  0  0  0
 14 11  1  0  0  0  0
 15 26  1  0  0  0  0
 15 22  1  0  0  0  0
 16 20  1  0  0  0  0
 17 14  1  0  0  0  0
 18 19  2  0  0  0  0
 18 21  1  0  0  0  0
 19 25  1  0  0  0  0
 20 22  1  0  0  0  0
 21 17  2  0  0  0  0
 23 15  1  0  0  0  0
 24 23  1  0  0  0  0
 24 16  1  0  0  0  0
 25 17  1  0  0  0  0
 25 26  1  0  0  0  0
 26 27  2  0  0  0  0
 29 28  1  0  0  0  0
 30 31  1  0  0  0  0
 32 34  1  0  0  0  0
 33 35  1  0  0  0  0
 34 30  1  0  0  0  0
 35 30  2  0  0  0  0
 36  1  1  6  0  0  0
 36 32  1  0  0  0  0
 36 33  1  0  0  0  0
 37  2  1  0  0  0  0
 38 39  1  0  0  0  0
 39 41  1  0  0  0  0
 41 37  1  0  0  0  0
 41 40  2  0  0  0  0
 43 39  1  0  0  0  0
 43 42  1  6  0  0  0
 44 45  1  0  0  0  0
 45 47  1  0  0  0  0
 46 44  2  0  0  0  0
 47 43  1  1  0  0  0
 48 49  2  0  0  0  0
 49 47  1  0  0  0  0
 50 44  1  0  0  0  0
 51 50  1  1  0  0  0
 51 49  1  0  0  0  0
 51 55  1  0  0  0  0
 52 57  1  0  0  0  0
 53 56  2  0  0  0  0
 54 53  1  0  0  0  0
 55 54  1  6  0  0  0
 55 52  1  0  0  0  0
 56 59  1  0  0  0  0
 58 56  1  0  0  0  0
 59 57  1  0  0  0  0
M  END
>  <MODEL>
3

>  <REMARK>
 VINA RESULT:      -6.3      3.087     11.380
  Name = 
  11 active torsions:
  status: ('A' for Active; 'I' for Inactive)
    1  A    between atoms: O_6  and  C_55
    2  A    between atoms: C_12  and  C_40
    3  A    between atoms: N_18  and  C_48
    4  A    between atoms: N_19  and  C_28
    5  A    between atoms: C_20  and  C_40
    6  A    between atoms: C_24  and  C_48
    7  A    between atoms: C_30  and  C_59
    8  A    between atoms: C_32  and  C_57
    9  A    between atoms: C_34  and  C_43
   10  A    between atoms: C_43  and  C_58
   11  A    between atoms: C_51  and  C_58
                            x       y       z     vdW  Elec       q    Type
                         _______ _______ _______ _____ _____    ______ ____

>  <TORSDO>
F 11

$$$$
=
 OpenBabel11042412453D

 59 64  0  0  1  0  0  0  0  0999 V2000
  187.4290  178.3210  140.3440 C   0  0  0  0  0  3  0  0  0  0  0  0
  187.9700  177.8550  139.2050 C   0  0  0  0  0  0  0  0  0  0  0  0
  187.6470  173.4800  136.4950 Cl  0  0  0  0  0  0  0  0  0  0  0  0
  187.4660  175.7740  137.9610 C   0  0  0  0  0  3  0  0  0  0  0  0
  185.1590  177.3770  136.7330 C   0  0  0  0  0  3  0  0  0  0  0  0
  184.5650  176.0300  136.8960 C   0  0  0  0  0  0  0  0  0  0  0  0
  186.8020  175.0080  136.8710 C   0  0  2  0  0  3  0  0  0  0  0  0
  186.3000  177.8300  137.2740 C   0  0  0  0  0  3  0  0  0  0  0  0
  187.2430  177.0820  138.1480 C   0  0  0  0  0  0  0  0  0  0  0  0
  185.3110  174.9230  137.0900 C   0  0  0  0  0  0  0  0  0  0  0  0
  182.3560  176.1290  138.1620 C   0  0  0  0  0  0  0  0  0  0  0  0
  183.1350  175.9770  136.9700 N   0  0  0  0  0  2  0  0  0  0  0  0
  182.9000  176.0670  139.2970 O   0  0  0  0  0  0  0  0  0  0  0  0
  180.8810  176.3280  138.0590 C   0  0  0  0  0  2  0  0  0  0  0  0
  180.3080  180.7590  137.9440 N   0  0  0  0  0  0  0  0  0  0  0  0
  179.5180  183.4960  137.9430 C   0  0  0  0  0  2  0  0  0  0  0  0
  180.3790  177.2020  139.1680 C   0  0  0  0  0  0  0  0  0  0  0  0
  179.4860  177.8480  141.0760 C   0  0  0  0  0  3  0  0  0  0  0  0
  179.7920  178.9520  140.3000 C   0  0  0  0  0  3  0  0  0  0  0  0
  180.9510  183.0980  137.6000 C   0  0  0  0  0  2  0  0  0  0  0  0
  179.8570  176.7260  140.3540 C   0  0  0  0  0  3  0  0  0  0  0  0
  180.9760  181.6820  137.0290 C   0  0  0  0  0  2  0  0  0  0  0  0
  178.9570  181.1000  138.3920 C   0  0  0  0  0  2  0  0  0  0  0  0
  178.9350  182.5180  138.9580 C   0  0  0  0  0  2  0  0  0  0  0  0
  180.3310  178.5500  139.1340 N   0  0  0  0  0  0  0  0  0  0  0  0
  180.8060  179.4160  138.0860 C   0  0  0  0  0  0  0  0  0  0  0  0
  181.6940  178.9990  137.2910 O   0  0  0  0  0  0  0  0  0  0  0  0
  183.9690  172.8650  136.6790 C   0  0  0  0  0  1  0  0  0  0  0  0
  184.6750  173.7520  137.5330 O   0  0  0  0  0  0  0  0  0  0  0  0
  183.5030  178.6570  142.0420 C   0  0  0  0  0  0  0  0  0  0  0  0
  182.1290  178.6300  142.6130 C   0  0  0  0  0  1  0  0  0  0  0  0
  185.1250  179.1890  140.1720 C   0  0  0  0  0  2  0  0  0  0  0  0
  185.9560  178.2570  142.3200 C   0  0  0  0  0  2  0  0  0  0  0  0
  183.6700  178.9350  140.5650 C   0  0  0  0  0  2  0  0  0  0  0  0
  184.5330  178.2690  142.8140 C   0  0  0  0  0  3  0  0  0  0  0  0
  186.0220  178.1270  140.7980 C   0  0  2  0  0  3  0  0  0  0  0  0
  189.4330  178.1260  139.0200 C   0  0  0  0  0  2  0  0  0  0  0  0
  189.3900  179.3990  141.6690 C   0  0  0  0  0  1  0  0  0  0  0  0
  190.2540  178.2530  141.4340 N   0  0  0  0  0  0  0  0  0  0  0  0
  190.9930  176.5790  139.9750 O   0  0  0  0  0  0  0  0  0  0  0  0
  190.2580  177.5890  140.1570 C   0  0  0  0  0  0  0  0  0  0  0  0
  192.4430  177.8910  142.1850 O   0  0  0  0  0  1  0  0  0  0  0  0
  191.0950  177.7980  142.5420 C   0  0  2  0  0  3  0  0  0  0  0  0
  191.4850  175.8320  145.3260 C   0  0  0  0  0  0  0  0  0  0  0  0
  191.7200  175.8540  143.9190 N   0  0  0  0  0  2  0  0  0  0  0  0
  192.4140  175.5180  146.1130 O   0  0  0  0  0  0  0  0  0  0  0  0
  190.7430  176.3670  142.9640 C   0  0  1  0  0  3  0  0  0  0  0  0
  188.3550  175.8880  142.7180 C   0  0  0  0  0  2  0  0  0  0  0  0
  189.3410  176.2790  143.5180 C   0  0  0  0  0  0  0  0  0  0  0  0
  190.1910  176.1460  145.8410 N   0  0  0  0  0  2  0  0  0  0  0  0
  189.0610  176.5060  144.9840 C   0  0  1  0  0  3  0  0  0  0  0  0
  186.9910  177.8930  145.3990 C   0  0  0  0  0  2  0  0  0  0  0  0
  188.9120  178.0850  147.8160 C   0  0  0  0  0  2  0  0  0  0  0  0
  189.2410  178.6240  146.4570 C   0  0  0  0  0  2  0  0  0  0  0  0
  188.5220  177.9070  145.2990 C   0  0  1  0  0  3  0  0  0  0  0  0
  187.6970  178.0820  148.3710 C   0  0  0  0  0  0  0  0  0  0  0  0
  186.4480  178.9870  146.3090 C   0  0  0  0  0  2  0  0  0  0  0  0
  187.5590  177.5320  149.7430 C   0  0  0  0  0  1  0  0  0  0  0  0
  186.5170  178.5480  147.6980 N   0  0  0  0  0  0  0  0  0  0  0  0
  2  1  2  0  0  0  0
  4  9  2  0  0  0  0
  5  6  1  0  0  0  0
  5  8  2  0  0  0  0
  6 12  1  0  0  0  0
  6 10  2  0  0  0  0
  7  3  1  1  0  0  0
  7 10  1  0  0  0  0
  7  4  1  0  0  0  0
  8  9  1  0  0  0  0
  9  2  1  0  0  0  0
 10 29  1  0  0  0  0
 11 13  2  0  0  0  0
 12 11  1  0  0  0  0
 14 11  1  0  0  0  0
 14 17  1  0  0  0  0
 15 26  1  0  0  0  0
 15 23  1  0  0  0  0
 16 24  1  0  0  0  0
 17 21  2  0  0  0  0
 19 18  2  0  0  0  0
 20 16  1  0  0  0  0
 21 18  1  0  0  0  0
 22 20  1  0  0  0  0
 22 15  1  0  0  0  0
 23 24  1  0  0  0  0
 25 17  1  0  0  0  0
 25 19  1  0  0  0  0
 26 25  1  0  0  0  0
 27 26  2  0  0  0  0
 28 29  1  0  0  0  0
 30 31  1  0  0  0  0
 30 35  2  0  0  0  0
 32 34  1  0  0  0  0
 32 36  1  0  0  0  0
 33 35  1  0  0  0  0
 34 30  1  0  0  0  0
 36  1  1  6  0  0  0
 36 33  1  0  0  0  0
 37  2  1  0  0  0  0
 37 41  1  0  0  0  0
 39 38  1  0  0  0  0
 39 43  1  0  0  0  0
 40 41  2  0  0  0  0
 41 39  1  0  0  0  0
 43 42  1  6  0  0  0
 44 50  1  0  0  0  0
 44 46  2  0  0  0  0
 45 44  1  0  0  0  0
 47 43  1  1  0  0  0
 47 49  1  0  0  0  0
 47 45  1  0  0  0  0
 48 49  2  0  0  0  0
 51 49  1  6  0  0  0
 51 55  1  0  0  0  0
 51 50  1  0  0  0  0
 52 57  1  0  0  0  0
 53 56  1  0  0  0  0
 54 53  1  0  0  0  0
 55 52  1  1  0  0  0
 55 54  1  0  0  0  0
 56 58  1  0  0  0  0
 57 59  1  0  0  0  0
 59 56  2  0  0  0  0
M  END
>  <MODEL>
4

>  <REMARK>
 VINA RESULT:      -5.6      3.787      6.551
  Name = 
  11 active torsions:
  status: ('A' for Active; 'I' for Inactive)
    1  A    between atoms: O_6  and  C_55
    2  A    between atoms: C_12  and  C_40
    3  A    between atoms: N_18  and  C_48
    4  A    between atoms: N_19  and  C_28
    5  A    between atoms: C_20  and  C_40
    6  A    between atoms: C_24  and  C_48
    7  A    between atoms: C_30  and  C_59
    8  A    between atoms: C_32  and  C_57
    9  A    between atoms: C_34  and  C_43
   10  A    between atoms: C_43  and  C_58
   11  A    between atoms: C_51  and  C_58
                            x       y       z     vdW  Elec       q    Type
                         _______ _______ _______ _____ _____    ______ ____

>  <TORSDO>
F 11

$$$$
=
 OpenBabel11042412453D

 59 64  0  0  1  0  0  0  0  0999 V2000
  185.5370  178.8070  142.9760 C   0  0  0  0  0  3  0  0  0  0  0  0
  186.0710  178.9210  141.7470 C   0  0  0  0  0  0  0  0  0  0  0  0
  190.9020  179.6240  143.4030 Cl  0  0  0  0  0  0  0  0  0  0  0  0
  188.4640  178.9530  142.3810 C   0  0  0  0  0  3  0  0  0  0  0  0
  188.9730  178.1080  139.4780 C   0  0  0  0  0  3  0  0  0  0  0  0
  189.9980  177.3400  140.2230 C   0  0  0  0  0  0  0  0  0  0  0  0
  189.9190  178.9650  142.0670 C   0  0  2  0  0  3  0  0  0  0  0  0
  187.9140  178.7530  139.9900 C   0  0  0  0  0  3  0  0  0  0  0  0
  187.5300  178.8630  141.4230 C   0  0  0  0  0  0  0  0  0  0  0  0
  190.3640  177.6460  141.4840 C   0  0  1  0  0  3  0  0  0  0  0  0
  190.2720  175.8050  138.2070 C   0  0  0  0  0  0  0  0  0  0  0  0
  190.4930  176.1600  139.5770 N   0  0  0  0  0  0  0  0  0  0  0  0
  189.3930  176.3940  137.5250 O   0  0  0  0  0  0  0  0  0  0  0  0
  191.0670  174.7010  137.5940 C   0  0  0  0  0  2  0  0  0  0  0  0
  195.3820  173.7830  136.8770 N   0  0  0  0  0  0  0  0  0  0  0  0
  197.9970  173.0220  136.0410 C   0  0  0  0  0  2  0  0  0  0  0  0
  191.9250  175.2140  136.4780 C   0  0  0  0  0  0  0  0  0  0  0  0
  192.5490  176.1770  134.5960 C   0  0  0  0  0  3  0  0  0  0  0  0
  193.6430  175.5990  135.2170 C   0  0  0  0  0  3  0  0  0  0  0  0
  197.7630  173.6120  137.4290 C   0  0  0  0  0  2  0  0  0  0  0  0
  191.4470  175.9290  135.3990 C   0  0  0  0  0  3  0  0  0  0  0  0
  196.3350  173.3210  137.8850 C   0  0  0  0  0  2  0  0  0  0  0  0
  195.5740  173.3320  135.4980 C   0  0  0  0  0  2  0  0  0  0  0  0
  197.0050  173.6190  135.0480 C   0  0  0  0  0  2  0  0  0  0  0  0
  193.2540  175.0080  136.3620 N   0  0  0  0  0  0  0  0  0  0  0  0
  194.1200  174.3340  137.2940 C   0  0  0  0  0  0  0  0  0  0  0  0
  193.7770  174.2460  138.5070 O   0  0  0  0  0  0  0  0  0  0  0  0
  190.5250  175.7590  143.1030 C   0  0  0  0  0  1  0  0  0  0  0  0
  191.1040  176.7040  142.2170 O   0  0  0  0  0  0  0  0  0  0  0  0
  186.9270  177.7780  146.9030 C   0  0  0  0  0  0  0  0  0  0  0  0
  187.5030  177.5300  148.2530 C   0  0  0  0  0  1  0  0  0  0  0  0
  186.6420  177.1740  144.4600 C   0  0  0  0  0  2  0  0  0  0  0  0
  185.4180  179.1110  145.4200 C   0  0  0  0  0  2  0  0  0  0  0  0
  187.4900  177.0190  145.7230 C   0  0  0  0  0  2  0  0  0  0  0  0
  186.0470  178.7830  146.7490 C   0  0  0  0  0  3  0  0  0  0  0  0
  186.2880  178.6420  144.2540 C   0  0  2  0  0  3  0  0  0  0  0  0
  185.0940  179.1540  140.6330 C   0  0  0  0  0  2  0  0  0  0  0  0
  185.0640  177.8860  137.9800 C   0  0  0  0  0  1  0  0  0  0  0  0
  184.2160  177.3630  139.0400 N   0  0  0  0  0  0  0  0  0  0  0  0
  183.5270  177.4600  141.2750 O   0  0  0  0  0  0  0  0  0  0  0  0
  184.2480  177.9420  140.3570 C   0  0  0  0  0  0  0  0  0  0  0  0
  183.7950  175.6130  137.5420 O   0  0  0  0  0  1  0  0  0  0  0  0
  183.3540  176.2240  138.7190 C   0  0  2  0  0  3  0  0  0  0  0  0
  181.4150  177.9180  136.4520 C   0  0  0  0  0  0  0  0  0  0  0  0
  181.7700  177.8900  137.8340 N   0  0  0  0  0  2  0  0  0  0  0  0
  181.4720  178.9970  135.8110 O   0  0  0  0  0  0  0  0  0  0  0  0
  181.8860  176.6480  138.5920 C   0  0  1  0  0  3  0  0  0  0  0  0
  180.3520  174.7510  138.7860 C   0  0  0  0  0  2  0  0  0  0  0  0
  181.0410  175.5560  137.9840 C   0  0  0  0  0  0  0  0  0  0  0  0
  180.9730  176.7260  135.8010 N   0  0  0  0  0  2  0  0  0  0  0  0
  180.8680  175.4380  136.4880 C   0  0  1  0  0  3  0  0  0  0  0  0
  182.3150  173.4120  136.9110 C   0  0  0  0  0  2  0  0  0  0  0  0
  180.0460  172.7140  134.9270 C   0  0  0  0  0  3  0  0  0  0  0  0
  181.1480  173.6800  134.6120 C   0  0  0  0  0  2  0  0  0  0  0  0
  181.7610  174.3680  135.8470 C   0  0  1  0  0  3  0  0  0  0  0  0
  180.1780  171.6090  135.6670 C   0  0  0  0  0  0  0  0  0  0  0  0
  182.6230  172.0260  136.3570 C   0  0  0  0  0  2  0  0  0  0  0  0
  178.9820  170.7490  135.8520 C   0  0  0  0  0  1  0  0  0  0  0  0
  181.4000  171.2320  136.3180 N   0  0  0  0  0  2  0  0  0  0  0  0
  2  1  2  0  0  0  0
  5  8  2  0  0  0  0
  5  6  1  0  0  0  0
  6 10  1  0  0  0  0
  7  4  1  0  0  0  0
  7  3  1  1  0  0  0
  8  9  1  0  0  0  0
  9  2  1  0  0  0  0
  9  4  2  0  0  0  0
 10  7  1  0  0  0  0
 10 29  1  1  0  0  0
 11 12  1  0  0  0  0
 12  6  2  0  0  0  0
 13 11  2  0  0  0  0
 14 11  1  0  0  0  0
 15 26  1  0  0  0  0
 15 22  1  0  0  0  0
 16 20  1  0  0  0  0
 17 14  1  0  0  0  0
 18 19  2  0  0  0  0
 18 21  1  0  0  0  0
 19 25  1  0  0  0  0
 20 22  1  0  0  0  0
 21 17  2  0  0  0  0
 23 15  1  0  0  0  0
 24 23  1  0  0  0  0
 24 16  1  0  0  0  0
 25 17  1  0  0  0  0
 25 26  1  0  0  0  0
 26 27  2  0  0  0  0
 29 28  1  0  0  0  0
 30 31  1  0  0  0  0
 32 34  1  0  0  0  0
 33 35  1  0  0  0  0
 34 30  1  0  0  0  0
 35 30  2  0  0  0  0
 36  1  1  6  0  0  0
 36 32  1  0  0  0  0
 36 33  1  0  0  0  0
 37  2  1  0  0  0  0
 38 39  1  0  0  0  0
 39 41  1  0  0  0  0
 41 37  1  0  0  0  0
 41 40  2  0  0  0  0
 43 42  1  6  0  0  0
 43 39  1  0  0  0  0
 44 45  1  0  0  0  0
 45 47  1  0  0  0  0
 46 44  2  0  0  0  0
 47 43  1  6  0  0  0
 49 47  1  0  0  0  0
 49 48  2  0  0  0  0
 50 44  1  0  0  0  0
 51 50  1  6  0  0  0
 51 49  1  0  0  0  0
 53 56  2  0  0  0  0
 54 53  1  0  0  0  0
 55 54  1  6  0  0  0
 55 51  1  0  0  0  0
 55 52  1  0  0  0  0
 56 58  1  0  0  0  0
 56 59  1  0  0  0  0
 57 52  1  0  0  0  0
 59 57  1  0  0  0  0
M  END
>  <MODEL>
5

>  <REMARK>
 VINA RESULT:      -5.5      2.966     11.520
  Name = 
  11 active torsions:
  status: ('A' for Active; 'I' for Inactive)
    1  A    between atoms: O_6  and  C_55
    2  A    between atoms: C_12  and  C_40
    3  A    between atoms: N_18  and  C_48
    4  A    between atoms: N_19  and  C_28
    5  A    between atoms: C_20  and  C_40
    6  A    between atoms: C_24  and  C_48
    7  A    between atoms: C_30  and  C_59
    8  A    between atoms: C_32  and  C_57
    9  A    between atoms: C_34  and  C_43
   10  A    between atoms: C_43  and  C_58
   11  A    between atoms: C_51  and  C_58
                            x       y       z     vdW  Elec       q    Type
                         _______ _______ _______ _____ _____    ______ ____

>  <TORSDO>
F 11

$$$$
=
 OpenBabel11042412453D

 59 65  0  0  1  0  0  0  0  0999 V2000
  184.5300  178.3320  143.7940 C   0  0  0  0  0  2  0  0  0  0  0  0
  184.9900  178.6250  142.5660 C   0  0  0  0  0  0  0  0  0  0  0  0
  189.9230  178.3050  144.0300 Cl  0  0  0  0  0  0  0  0  0  0  0  0
  187.3980  178.2470  142.9980 C   0  0  1  0  0  3  0  0  0  0  0  0
  187.7220  178.5490  139.9650 C   0  0  0  0  0  3  0  0  0  0  0  0
  188.7010  177.4860  140.2900 C   0  0  0  0  0  0  0  0  0  0  0  0
  188.8360  178.2790  142.6140 C   0  0  2  0  0  3  0  0  0  0  0  0
  186.7450  179.0190  140.7550 C   0  0  0  0  0  3  0  0  0  0  0  0
  186.4260  178.5960  142.1440 C   0  0  0  0  0  0  0  0  0  0  0  0
  189.1390  177.2580  141.5440 C   0  0  0  0  0  0  0  0  0  0  0  0
  189.6350  177.0240  137.9650 C   0  0  0  0  0  0  0  0  0  0  0  0
  189.0640  176.6130  139.2120 N   0  0  0  0  0  2  0  0  0  0  0  0
  189.6230  178.2360  137.6200 O   0  0  0  0  0  0  0  0  0  0  0  0
  190.2180  176.0010  137.0470 C   0  0  0  0  0  2  0  0  0  0  0  0
  192.6340  172.5030  135.6690 N   0  0  0  0  0  0  0  0  0  0  0  0
  194.4490  170.5730  134.6230 C   0  0  0  0  0  2  0  0  0  0  0  0
  191.6210  175.6610  137.4450 C   0  0  0  0  0  0  0  0  0  0  0  0
  193.6470  175.8210  138.3010 C   0  0  0  0  0  3  0  0  0  0  0  0
  193.5120  174.6210  137.6240 C   0  0  0  0  0  3  0  0  0  0  0  0
  193.1320  170.1390  135.2600 C   0  0  0  0  0  2  0  0  0  0  0  0
  192.4400  176.4910  138.1860 C   0  0  0  0  0  3  0  0  0  0  0  0
  192.0980  171.2540  135.1300 C   0  0  0  0  0  2  0  0  0  0  0  0
  193.9340  172.9580  135.1740 C   0  0  0  0  0  2  0  0  0  0  0  0
  194.9640  171.8380  135.3010 C   0  0  0  0  0  2  0  0  0  0  0  0
  192.2760  174.5330  137.1000 N   0  0  0  0  0  0  0  0  0  0  0  0
  191.7580  173.4130  136.3580 C   0  0  0  0  0  0  0  0  0  0  0  0
  190.5110  173.2110  136.3300 O   0  0  0  0  0  0  0  0  0  0  0  0
  190.2140  175.6460  143.1110 C   0  0  0  0  0  1  0  0  0  0  0  0
  189.8190  176.0580  141.8120 O   0  0  0  0  0  0  0  0  0  0  0  0
  187.5570  177.8670  146.7980 C   0  0  0  0  0  0  0  0  0  0  0  0
  188.5350  177.5880  147.8860 C   0  0  0  0  0  1  0  0  0  0  0  0
  185.6450  179.2040  145.8150 C   0  0  0  0  0  2  0  0  0  0  0  0
  186.6760  177.3550  144.5150 C   0  0  1  0  0  3  0  0  0  0  0  0
  186.4100  178.8100  147.0790 C   0  0  0  0  0  2  0  0  0  0  0  0
  187.6270  177.1470  145.6650 C   0  0  0  0  0  3  0  0  0  0  0  0
  185.3520  177.9620  144.9820 C   0  0  2  0  0  3  0  0  0  0  0  0
  183.9540  179.0400  141.5640 C   0  0  0  0  0  2  0  0  0  0  0  0
  184.1780  179.3930  138.6530 C   0  0  0  0  0  1  0  0  0  0  0  0
  183.6820  178.1350  139.1920 N   0  0  0  0  0  0  0  0  0  0  0  0
  183.1990  176.8220  141.0680 O   0  0  0  0  0  0  0  0  0  0  0  0
  183.6060  177.9270  140.6140 C   0  0  0  0  0  0  0  0  0  0  0  0
  183.3710  175.8400  138.8430 O   0  0  0  0  0  1  0  0  0  0  0  0
  183.2870  177.0980  138.2380 C   0  0  2  0  0  3  0  0  0  0  0  0
  185.8220  175.2560  136.8430 C   0  0  0  0  0  0  0  0  0  0  0  0
  185.4670  176.5880  137.2140 N   0  0  0  0  0  2  0  0  0  0  0  0
  186.9250  174.7750  137.2090 O   0  0  0  0  0  0  0  0  0  0  0  0
  184.1420  177.1480  136.9670 C   0  0  1  0  0  3  0  0  0  0  0  0
  182.7810  177.1810  134.9330 C   0  0  0  0  0  2  0  0  0  0  0  0
  183.4630  176.4540  135.8110 C   0  0  0  0  0  0  0  0  0  0  0  0
  184.9370  174.4760  136.0400 N   0  0  0  0  0  2  0  0  0  0  0  0
  183.6450  174.9750  135.5670 C   0  0  1  0  0  3  0  0  0  0  0  0
  181.7130  173.4930  134.8960 C   0  0  0  0  0  2  0  0  0  0  0  0
  183.6460  171.9560  136.7590 C   0  0  0  0  0  2  0  0  0  0  0  0
  182.8400  173.1410  137.2030 C   0  0  0  0  0  2  0  0  0  0  0  0
  182.4760  174.1190  136.0700 C   0  0  1  0  0  3  0  0  0  0  0  0
  183.2400  171.0320  135.8850 C   0  0  0  0  0  0  0  0  0  0  0  0
  181.0230  172.1860  135.2680 C   0  0  0  0  0  2  0  0  0  0  0  0
  184.1610  169.9070  135.5840 C   0  0  0  0  0  1  0  0  0  0  0  0
  181.9810  171.0890  135.1970 N   0  0  0  0  0  0  0  0  0  0  0  0
  2  1  1  0  0  0  0
  4  9  1  6  0  0  0
  4 33  1  0  0  0  0
  5  6  1  0  0  0  0
  5  8  2  0  0  0  0
  6 10  2  0  0  0  0
  7  4  1  0  0  0  0
  7  3  1  1  0  0  0
  8  9  1  0  0  0  0
  9  2  2  0  0  0  0
 10 29  1  0  0  0  0
 10  7  1  0  0  0  0
 11 12  1  0  0  0  0
 12  6  1  0  0  0  0
 13 11  2  0  0  0  0
 14 17  1  0  0  0  0
 14 11  1  0  0  0  0
 15 26  1  0  0  0  0
 16 20  1  0  0  0  0
 16 24  1  0  0  0  0
 17 21  2  0  0  0  0
 19 18  2  0  0  0  0
 21 18  1  0  0  0  0
 22 20  1  0  0  0  0
 22 15  1  0  0  0  0
 23 24  1  0  0  0  0
 23 15  1  0  0  0  0
 25 17  1  0  0  0  0
 25 19  1  0  0  0  0
 26 25  1  0  0  0  0
 27 26  2  0  0  0  0
 29 28  1  0  0  0  0
 30 34  1  0  0  0  0
 30 31  1  0  0  0  0
 32 34  1  0  0  0  0
 33 36  1  0  0  0  0
 33 35  1  1  0  0  0
 35 30  2  0  0  0  0
 36  1  1  6  0  0  0
 36 32  1  0  0  0  0
 37  2  1  0  0  0  0
 38 39  1  0  0  0  0
 39 41  1  0  0  0  0
 41 40  2  0  0  0  0
 41 37  1  0  0  0  0
 43 42  1  1  0  0  0
 43 39  1  0  0  0  0
 44 46  2  0  0  0  0
 44 45  1  0  0  0  0
 47 45  1  0  0  0  0
 47 43  1  1  0  0  0
 48 49  2  0  0  0  0
 49 47  1  0  0  0  0
 50 44  1  0  0  0  0
 51 49  1  1  0  0  0
 51 50  1  0  0  0  0
 51 55  1  0  0  0  0
 52 57  1  0  0  0  0
 53 54  1  0  0  0  0
 55 52  1  6  0  0  0
 55 54  1  0  0  0  0
 56 53  1  0  0  0  0
 58 56  1  0  0  0  0
 59 57  1  0  0  0  0
 59 56  2  0  0  0  0
M  END
>  <MODEL>
6

>  <REMARK>
 VINA RESULT:      -5.0      3.062     10.840
  Name = 
  11 active torsions:
  status: ('A' for Active; 'I' for Inactive)
    1  A    between atoms: O_6  and  C_55
    2  A    between atoms: C_12  and  C_40
    3  A    between atoms: N_18  and  C_48
    4  A    between atoms: N_19  and  C_28
    5  A    between atoms: C_20  and  C_40
    6  A    between atoms: C_24  and  C_48
    7  A    between atoms: C_30  and  C_59
    8  A    between atoms: C_32  and  C_57
    9  A    between atoms: C_34  and  C_43
   10  A    between atoms: C_43  and  C_58
   11  A    between atoms: C_51  and  C_58
                            x       y       z     vdW  Elec       q    Type
                         _______ _______ _______ _____ _____    ______ ____

>  <TORSDO>
F 11

$$$$
