=
 OpenBabel11042412083D

 37 42  0  0  1  0  0  0  0  0999 V2000
  188.5030  177.4170  140.1810 N   0  0  0  0  0  0  0  0  0  0  0  0
  189.6510  177.1710  140.8360 C   0  0  0  0  0  0  0  0  0  0  0  0
  188.8140  177.7400  138.9350 N   0  0  0  0  0  0  0  0  0  0  0  0
  190.7140  177.3580  139.9660 C   0  0  0  0  0  0  0  0  0  0  0  0
  190.1500  177.7280  138.7560 C   0  0  0  0  0  3  0  0  0  0  0  0
  187.8390  178.1370  137.9260 C   0  0  1  0  0  3  0  0  0  0  0  0
  187.1220  177.6990  135.6170 C   0  0  0  0  0  2  0  0  0  0  0  0
  187.8100  177.1380  136.7790 C   0  0  2  0  0  3  0  0  0  0  0  0
  186.3990  176.7840  136.5150 N   0  0  1  0  0  0  0  0  0  0  0  0
  186.4570  178.1220  138.5210 C   0  0  0  0  0  2  0  0  0  0  0  0
  185.5770  177.6030  137.4020 C   0  0  2  0  0  3  0  0  0  0  0  0
  184.5060  176.7870  137.9580 N   0  0  0  0  0  2  0  0  0  0  0  0
  182.1570  177.9520  137.3850 S   0  0  0  0  0  0  0  0  0  0  0  0
  183.2520  177.3030  138.4210 C   0  0  0  0  0  0  0  0  0  0  0  0
  182.9830  177.3400  139.8830 C   0  0  0  0  0  2  0  0  0  0  0  0
  183.1940  178.6860  140.3950 N   0  0  0  0  0  2  0  0  0  0  0  0
  183.0720  178.6210  141.7460 O   0  0  0  0  0  0  0  0  0  0  0  0
  185.3120  177.6060  142.6850 O   0  0  0  0  0  1  0  0  0  0  0  0
  185.5390  179.7300  141.1580 O   0  0  0  0  0  0  0  0  0  0  0  0
  184.6360  178.9160  142.3400 P   0  0  0  0  0  0  0  0  0  0  0  0
  184.5380  179.8780  143.7370 O   0  0  0  0  0  1  0  0  0  0  0  0
  192.1440  177.2230  140.2720 C   0  0  0  0  0  3  0  0  0  0  0  0
  193.0470  177.0150  139.3230 C   0  0  0  0  0  2  0  0  0  0  0  0
  190.1060  175.6130  142.5630 O   0  0  0  0  0  0  0  0  0  0  0  0
  189.7070  176.7700  142.2610 C   0  0  0  0  0  0  0  0  0  0  0  0
  189.4040  177.7780  143.3580 C   0  0  2  0  0  3  0  0  0  0  0  0
  191.7680  177.5390  144.2590 O   0  0  0  0  0  0  0  0  0  0  0  0
  190.5350  178.2430  144.3430 C   0  0  2  0  0  0  0  0  0  0  0  0
  189.5870  177.0830  144.6620 C   0  0  1  0  0  3  0  0  0  0  0  0
  191.6280  178.5930  143.3820 C   0  0  0  0  0  2  0  0  0  0  0  0
  187.8790  178.0580  147.9200 C   0  0  0  0  0  0  0  0  0  0  0  0
  186.2170  178.0320  146.1540 C   0  0  0  0  0  3  0  0  0  0  0  0
  186.5560  178.2330  147.4980 C   0  0  0  0  0  3  0  0  0  0  0  0
  188.5360  177.5090  145.6440 C   0  0  0  0  0  0  0  0  0  0  0  0
  188.8650  177.6910  146.9970 C   0  0  0  0  0  3  0  0  0  0  0  0
  188.2060  178.2490  149.2230 F   0  0  0  0  0  0  0  0  0  0  0  0
  187.2030  177.6650  145.2310 C   0  0  0  0  0  3  0  0  0  0  0  0
  1  2  2  0  0  0  0
  2 25  1  0  0  0  0
  3  1  1  0  0  0  0
  4 22  1  0  0  0  0
  4  2  1  0  0  0  0
  5  3  1  0  0  0  0
  5  4  2  0  0  0  0
  6 10  1  1  0  0  0
  6  3  1  0  0  0  0
  8  7  1  6  0  0  0
  8  6  1  0  0  0  0
  9  7  1  6  0  0  0
  9  8  1  0  0  0  0
  9 11  1  0  0  0  0
 11 12  1  1  0  0  0
 11 10  1  0  0  0  0
 12 14  1  0  0  0  0
 13 14  2  0  0  0  0
 14 15  1  0  0  0  0
 15 16  1  0  0  0  0
 16 17  1  0  0  0  0
 17 20  1  0  0  0  0
 19 20  2  0  0  0  0
 20 18  1  0  0  0  0
 20 21  1  0  0  0  0
 23 22  2  0  0  0  0
 25 24  2  0  0  0  0
 26 25  1  6  0  0  0
 26 28  1  0  0  0  0
 26 29  1  0  0  0  0
 27 28  1  0  0  0  0
 28 30  1  1  0  0  0
 28 29  1  0  0  0  0
 29 34  1  1  0  0  0
 30 27  1  0  0  0  0
 31 36  1  0  0  0  0
 32 33  2  0  0  0  0
 33 31  1  0  0  0  0
 34 35  1  0  0  0  0
 35 31  2  0  0  0  0
 37 34  2  0  0  0  0
 37 32  1  0  0  0  0
M  END
>  <MODEL>
1

>  <REMARK>
 VINA RESULT:      -8.4      0.000      0.000
  Name = 
  11 active torsions:
  status: ('A' for Active; 'I' for Inactive)
    1  A    between atoms: C_2  and  N_32
    2  A    between atoms: C_4  and  C_33
    3  A    between atoms: C_8  and  N_14
    4  A    between atoms: C_8  and  C_27
    5  A    between atoms: C_11  and  C_13
    6  A    between atoms: C_13  and  C_21
    7  A    between atoms: N_14  and  C_35
    8  A    between atoms: O_19  and  P_25
    9  A    between atoms: O_19  and  N_36
   10  A    between atoms: C_22  and  C_30
   11  A    between atoms: C_27  and  N_36
                            x       y       z     vdW  Elec       q    Type
                         _______ _______ _______ _____ _____    ______ ____

>  <TORSDO>
F 11

$$$$
=
 OpenBabel11042412083D

 37 42  0  0  1  0  0  0  0  0999 V2000
  188.6090  177.4270  140.1410 N   0  0  0  0  0  0  0  0  0  0  0  0
  189.7080  177.2080  140.8840 C   0  0  0  0  0  0  0  0  0  0  0  0
  189.0090  177.7700  138.9270 N   0  0  0  0  0  0  0  0  0  0  0  0
  190.8310  177.4340  140.1040 C   0  0  0  0  0  0  0  0  0  0  0  0
  190.3540  177.7980  138.8550 C   0  0  0  0  0  3  0  0  0  0  0  0
  188.1070  178.1470  137.8460 C   0  0  1  0  0  3  0  0  0  0  0  0
  187.7230  177.8820  135.4320 C   0  0  0  0  0  2  0  0  0  0  0  0
  188.3500  177.2890  136.6130 C   0  0  2  0  0  3  0  0  0  0  0  0
  187.0430  176.7850  136.1390 N   0  0  1  0  0  0  0  0  0  0  0  0
  186.6830  177.8840  138.2560 C   0  0  0  0  0  2  0  0  0  0  0  0
  186.0180  177.3840  136.9890 C   0  0  2  0  0  3  0  0  0  0  0  0
  185.0200  176.3760  137.3240 N   0  0  0  0  0  2  0  0  0  0  0  0
  182.7780  177.0980  136.0370 S   0  0  0  0  0  0  0  0  0  0  0  0
  183.6090  176.6190  137.3690 C   0  0  0  0  0  0  0  0  0  0  0  0
  182.9020  176.5280  138.6740 C   0  0  0  0  0  2  0  0  0  0  0  0
  183.1740  177.7150  139.4710 N   0  0  0  0  0  2  0  0  0  0  0  0
  183.5480  177.2890  140.7050 O   0  0  0  0  0  0  0  0  0  0  0  0
  185.7190  178.1280  141.9370 O   0  0  0  0  0  1  0  0  0  0  0  0
  184.6570  179.7720  140.1870 O   0  0  0  0  0  0  0  0  0  0  0  0
  184.3910  178.6000  141.3820 P   0  0  0  0  0  0  0  0  0  0  0  0
  183.4700  179.2760  142.6400 O   0  0  0  0  0  1  0  0  0  0  0  0
  192.2360  177.3390  140.5230 C   0  0  0  0  0  3  0  0  0  0  0  0
  193.2070  177.0680  139.6610 C   0  0  0  0  0  2  0  0  0  0  0  0
  190.0390  175.6380  142.6280 O   0  0  0  0  0  0  0  0  0  0  0  0
  189.6620  176.7960  142.3070 C   0  0  0  0  0  0  0  0  0  0  0  0
  189.2780  177.7960  143.3870 C   0  0  2  0  0  3  0  0  0  0  0  0
  191.5470  177.5010  144.4930 O   0  0  0  0  0  0  0  0  0  0  0  0
  190.3240  178.2270  144.4760 C   0  0  2  0  0  0  0  0  0  0  0  0
  189.3310  177.0810  144.6920 C   0  0  1  0  0  3  0  0  0  0  0  0
  191.5050  178.5700  143.6220 C   0  0  0  0  0  2  0  0  0  0  0  0
  185.8840  178.1840  145.8660 C   0  0  0  0  0  0  0  0  0  0  0  0
  187.3840  178.1810  147.7710 C   0  0  0  0  0  3  0  0  0  0  0  0
  186.1100  178.3950  147.2310 C   0  0  0  0  0  3  0  0  0  0  0  0
  188.2040  177.5130  145.5810 C   0  0  0  0  0  0  0  0  0  0  0  0
  186.9290  177.7500  145.0430 C   0  0  0  0  0  3  0  0  0  0  0  0
  184.6500  178.3950  145.3430 F   0  0  0  0  0  0  0  0  0  0  0  0
  188.4290  177.7470  146.9480 C   0  0  0  0  0  3  0  0  0  0  0  0
  1  2  2  0  0  0  0
  2 25  1  0  0  0  0
  3  1  1  0  0  0  0
  4 22  1  0  0  0  0
  4  2  1  0  0  0  0
  5  3  1  0  0  0  0
  5  4  2  0  0  0  0
  6 10  1  1  0  0  0
  6  3  1  0  0  0  0
  8  7  1  6  0  0  0
  8  6  1  0  0  0  0
  9  7  1  6  0  0  0
  9  8  1  0  0  0  0
  9 11  1  0  0  0  0
 11 12  1  1  0  0  0
 11 10  1  0  0  0  0
 12 14  1  0  0  0  0
 13 14  2  0  0  0  0
 14 15  1  0  0  0  0
 15 16  1  0  0  0  0
 16 17  1  0  0  0  0
 17 20  1  0  0  0  0
 19 20  2  0  0  0  0
 20 18  1  0  0  0  0
 20 21  1  0  0  0  0
 23 22  2  0  0  0  0
 25 24  2  0  0  0  0
 26 25  1  6  0  0  0
 26 28  1  0  0  0  0
 26 29  1  0  0  0  0
 28 30  1  1  0  0  0
 28 27  1  0  0  0  0
 28 29  1  0  0  0  0
 29 34  1  1  0  0  0
 30 27  1  0  0  0  0
 31 33  1  0  0  0  0
 33 32  2  0  0  0  0
 34 37  2  0  0  0  0
 35 34  1  0  0  0  0
 35 31  2  0  0  0  0
 36 31  1  0  0  0  0
 37 32  1  0  0  0  0
M  END
>  <MODEL>
2

>  <REMARK>
 VINA RESULT:      -8.3      1.139      1.415
  Name = 
  11 active torsions:
  status: ('A' for Active; 'I' for Inactive)
    1  A    between atoms: C_2  and  N_32
    2  A    between atoms: C_4  and  C_33
    3  A    between atoms: C_8  and  N_14
    4  A    between atoms: C_8  and  C_27
    5  A    between atoms: C_11  and  C_13
    6  A    between atoms: C_13  and  C_21
    7  A    between atoms: N_14  and  C_35
    8  A    between atoms: O_19  and  P_25
    9  A    between atoms: O_19  and  N_36
   10  A    between atoms: C_22  and  C_30
   11  A    between atoms: C_27  and  N_36
                            x       y       z     vdW  Elec       q    Type
                         _______ _______ _______ _____ _____    ______ ____

>  <TORSDO>
F 11

$$$$
=
 OpenBabel11042412083D

 37 42  0  0  1  0  0  0  0  0999 V2000
  189.9020  177.0420  140.3670 N   0  0  0  0  0  0  0  0  0  0  0  0
  189.0970  177.3570  141.3970 C   0  0  0  0  0  0  0  0  0  0  0  0
  189.4610  177.6920  139.3010 N   0  0  0  0  0  0  0  0  0  0  0  0
  188.1140  178.2260  140.9500 C   0  0  0  0  0  0  0  0  0  0  0  0
  188.3670  178.4190  139.6020 C   0  0  0  0  0  3  0  0  0  0  0  0
  190.0380  177.5620  137.9690 C   0  0  1  0  0  3  0  0  0  0  0  0
  191.2360  176.0010  136.4970 C   0  0  0  0  0  2  0  0  0  0  0  0
  190.3430  176.1060  137.6500 C   0  0  2  0  0  3  0  0  0  0  0  0
  189.7890  175.8040  136.3130 N   0  0  1  0  0  0  0  0  0  0  0  0
  189.0390  178.0100  136.9360 C   0  0  0  0  0  2  0  0  0  0  0  0
  189.2440  177.0500  135.7820 C   0  0  2  0  0  3  0  0  0  0  0  0
  187.9660  176.7810  135.1350 N   0  0  0  0  0  2  0  0  0  0  0  0
  186.3830  174.9030  136.2170 S   0  0  0  0  0  0  0  0  0  0  0  0
  186.7590  176.4540  135.8320 C   0  0  0  0  0  0  0  0  0  0  0  0
  185.7800  177.5350  136.1260 C   0  0  0  0  0  2  0  0  0  0  0  0
  185.3620  177.4630  137.5180 N   0  0  0  0  0  2  0  0  0  0  0  0
  184.0110  177.5970  137.5350 O   0  0  0  0  0  0  0  0  0  0  0  0
  183.5780  177.7390  140.1280 O   0  0  0  0  0  1  0  0  0  0  0  0
  184.9410  179.7110  139.0590 O   0  0  0  0  0  1  0  0  0  0  0  0
  183.6870  178.5860  138.8780 P   0  0  0  0  0  0  0  0  0  0  0  0
  182.2200  179.4100  138.6330 O   0  0  0  0  0  0  0  0  0  0  0  0
  187.0120  178.7980  141.7350 C   0  0  0  0  0  3  0  0  0  0  0  0
  186.1480  178.0330  142.3900 C   0  0  0  0  0  2  0  0  0  0  0  0
  189.4930  175.5930  142.9300 O   0  0  0  0  0  0  0  0  0  0  0  0
  189.2800  176.8250  142.7680 C   0  0  0  0  0  0  0  0  0  0  0  0
  189.3320  177.7670  143.9600 C   0  0  2  0  0  3  0  0  0  0  0  0
  191.7320  177.0750  144.4270 O   0  0  0  0  0  0  0  0  0  0  0  0
  190.6680  177.9570  144.7630 C   0  0  2  0  0  0  0  0  0  0  0  0
  189.5970  176.9390  145.1680 C   0  0  1  0  0  3  0  0  0  0  0  0
  191.6390  178.2120  143.6520 C   0  0  0  0  0  2  0  0  0  0  0  0
  186.7230  178.2900  147.2650 C   0  0  0  0  0  0  0  0  0  0  0  0
  188.6890  178.1110  148.6740 C   0  0  0  0  0  3  0  0  0  0  0  0
  187.3380  178.4440  148.5120 C   0  0  0  0  0  3  0  0  0  0  0  0
  188.8050  177.4380  146.3390 C   0  0  0  0  0  0  0  0  0  0  0  0
  187.4560  177.7940  146.1800 C   0  0  0  0  0  3  0  0  0  0  0  0
  185.4160  178.6170  147.1090 F   0  0  0  0  0  0  0  0  0  0  0  0
  189.4210  177.6150  147.5890 C   0  0  0  0  0  3  0  0  0  0  0  0
  1  2  2  0  0  0  0
  2 25  1  0  0  0  0
  3  5  1  0  0  0  0
  3  1  1  0  0  0  0
  4  2  1  0  0  0  0
  4 22  1  0  0  0  0
  5  4  2  0  0  0  0
  6 10  1  6  0  0  0
  6  3  1  0  0  0  0
  8  7  1  6  0  0  0
  8  6  1  0  0  0  0
  9  7  1  6  0  0  0
  9  8  1  0  0  0  0
 11 12  1  1  0  0  0
 11  9  1  0  0  0  0
 11 10  1  0  0  0  0
 12 14  1  0  0  0  0
 14 15  1  0  0  0  0
 14 13  2  0  0  0  0
 15 16  1  0  0  0  0
 16 17  1  0  0  0  0
 17 20  1  0  0  0  0
 20 19  1  0  0  0  0
 20 18  1  0  0  0  0
 21 20  2  0  0  0  0
 22 23  2  0  0  0  0
 25 24  2  0  0  0  0
 26 25  1  6  0  0  0
 26 28  1  0  0  0  0
 26 29  1  0  0  0  0
 27 28  1  0  0  0  0
 28 30  1  1  0  0  0
 28 29  1  0  0  0  0
 29 34  1  1  0  0  0
 30 27  1  0  0  0  0
 31 33  1  0  0  0  0
 33 32  2  0  0  0  0
 34 37  2  0  0  0  0
 35 34  1  0  0  0  0
 35 31  2  0  0  0  0
 36 31  1  0  0  0  0
 37 32  1  0  0  0  0
M  END
>  <MODEL>
3

>  <REMARK>
 VINA RESULT:      -8.3      2.243      3.308
  Name = 
  11 active torsions:
  status: ('A' for Active; 'I' for Inactive)
    1  A    between atoms: C_2  and  N_32
    2  A    between atoms: C_4  and  C_33
    3  A    between atoms: C_8  and  N_14
    4  A    between atoms: C_8  and  C_27
    5  A    between atoms: C_11  and  C_13
    6  A    between atoms: C_13  and  C_21
    7  A    between atoms: N_14  and  C_35
    8  A    between atoms: O_19  and  P_25
    9  A    between atoms: O_19  and  N_36
   10  A    between atoms: C_22  and  C_30
   11  A    between atoms: C_27  and  N_36
                            x       y       z     vdW  Elec       q    Type
                         _______ _______ _______ _____ _____    ______ ____

>  <TORSDO>
F 11

$$$$
=
 OpenBabel11042412083D

 37 42  0  0  1  0  0  0  0  0999 V2000
  188.2780  177.4490  140.2140 N   0  0  0  0  0  0  0  0  0  0  0  0
  189.4580  177.2230  140.8160 C   0  0  0  0  0  0  0  0  0  0  0  0
  188.5260  177.7720  138.9550 N   0  0  0  0  0  0  0  0  0  0  0  0
  190.4770  177.4220  139.8980 C   0  0  0  0  0  0  0  0  0  0  0  0
  189.8520  177.7780  138.7150 C   0  0  0  0  0  3  0  0  0  0  0  0
  187.5010  178.1500  137.9910 C   0  0  1  0  0  3  0  0  0  0  0  0
  186.5510  177.5510  135.8040 C   0  0  0  0  0  2  0  0  0  0  0  0
  187.2940  177.0490  136.9600 C   0  0  2  0  0  3  0  0  0  0  0  0
  185.8420  176.7940  136.8480 N   0  0  1  0  0  0  0  0  0  0  0  0
  186.1790  178.3130  138.6910 C   0  0  0  0  0  2  0  0  0  0  0  0
  185.1670  177.7640  137.7060 C   0  0  2  0  0  3  0  0  0  0  0  0
  184.0890  177.1020  138.4290 N   0  0  0  0  0  2  0  0  0  0  0  0
  182.2090  178.9960  138.1410 S   0  0  0  0  0  0  0  0  0  0  0  0
  182.9370  177.7710  138.9550 C   0  0  0  0  0  0  0  0  0  0  0  0
  182.4510  177.4100  140.3140 C   0  0  0  0  0  2  0  0  0  0  0  0
  181.9470  178.5940  140.9930 N   0  0  0  0  0  2  0  0  0  0  0  0
  180.6870  178.3070  141.4110 O   0  0  0  0  0  0  0  0  0  0  0  0
  179.5430  178.2310  143.7810 O   0  0  0  0  0  1  0  0  0  0  0  0
  182.0890  178.8680  143.7300 O   0  0  0  0  0  1  0  0  0  0  0  0
  180.5790  178.9780  142.9670 P   0  0  0  0  0  0  0  0  0  0  0  0
  180.1240  180.6110  142.8500 O   0  0  0  0  0  0  0  0  0  0  0  0
  191.9220  177.3090  140.1380 C   0  0  0  0  0  3  0  0  0  0  0  0
  192.7600  176.9030  139.1940 C   0  0  0  0  0  2  0  0  0  0  0  0
  190.0730  175.7020  142.5280 O   0  0  0  0  0  0  0  0  0  0  0  0
  189.5860  176.8280  142.2390 C   0  0  0  0  0  0  0  0  0  0  0  0
  189.2470  177.8140  143.3460 C   0  0  2  0  0  3  0  0  0  0  0  0
  191.5430  177.4740  144.3800 O   0  0  0  0  0  0  0  0  0  0  0  0
  190.3290  178.2150  144.4110 C   0  0  2  0  0  0  0  0  0  0  0  0
  189.3290  177.0770  144.6370 C   0  0  1  0  0  3  0  0  0  0  0  0
  191.4900  178.5570  143.5280 C   0  0  0  0  0  2  0  0  0  0  0  0
  185.9250  178.1780  145.9330 C   0  0  0  0  0  0  0  0  0  0  0  0
  187.4920  178.1760  147.7840 C   0  0  0  0  0  3  0  0  0  0  0  0
  186.2000  178.3890  147.2900 C   0  0  0  0  0  3  0  0  0  0  0  0
  188.2340  177.5090  145.5660 C   0  0  0  0  0  0  0  0  0  0  0  0
  186.9410  177.7450  145.0730 C   0  0  0  0  0  3  0  0  0  0  0  0
  184.6730  178.3890  145.4540 F   0  0  0  0  0  0  0  0  0  0  0  0
  188.5080  177.7430  146.9240 C   0  0  0  0  0  3  0  0  0  0  0  0
  1  2  2  0  0  0  0
  2 25  1  0  0  0  0
  3  1  1  0  0  0  0
  4 22  1  0  0  0  0
  4  2  1  0  0  0  0
  5  3  1  0  0  0  0
  5  4  2  0  0  0  0
  6 10  1  1  0  0  0
  6  3  1  0  0  0  0
  8  7  1  6  0  0  0
  8  6  1  0  0  0  0
  9  7  1  6  0  0  0
  9  8  1  0  0  0  0
  9 11  1  0  0  0  0
 11 12  1  1  0  0  0
 11 10  1  0  0  0  0
 12 14  1  0  0  0  0
 13 14  2  0  0  0  0
 14 15  1  0  0  0  0
 15 16  1  0  0  0  0
 16 17  1  0  0  0  0
 17 20  1  0  0  0  0
 20 19  1  0  0  0  0
 20 18  1  0  0  0  0
 21 20  2  0  0  0  0
 23 22  2  0  0  0  0
 25 24  2  0  0  0  0
 26 25  1  6  0  0  0
 26 28  1  0  0  0  0
 26 29  1  0  0  0  0
 27 28  1  0  0  0  0
 28 30  1  1  0  0  0
 28 29  1  0  0  0  0
 29 34  1  1  0  0  0
 30 27  1  0  0  0  0
 31 33  1  0  0  0  0
 33 32  2  0  0  0  0
 34 37  2  0  0  0  0
 35 34  1  0  0  0  0
 35 31  2  0  0  0  0
 36 31  1  0  0  0  0
 37 32  1  0  0  0  0
M  END
>  <MODEL>
4

>  <REMARK>
 VINA RESULT:      -8.2      1.614      2.056
  Name = 
  11 active torsions:
  status: ('A' for Active; 'I' for Inactive)
    1  A    between atoms: C_2  and  N_32
    2  A    between atoms: C_4  and  C_33
    3  A    between atoms: C_8  and  N_14
    4  A    between atoms: C_8  and  C_27
    5  A    between atoms: C_11  and  C_13
    6  A    between atoms: C_13  and  C_21
    7  A    between atoms: N_14  and  C_35
    8  A    between atoms: O_19  and  P_25
    9  A    between atoms: O_19  and  N_36
   10  A    between atoms: C_22  and  C_30
   11  A    between atoms: C_27  and  N_36
                            x       y       z     vdW  Elec       q    Type
                         _______ _______ _______ _____ _____    ______ ____

>  <TORSDO>
F 11

$$$$
=
 OpenBabel11042412083D

 37 42  0  0  1  0  0  0  0  0999 V2000
  189.1420  177.1310  140.5160 N   0  0  0  0  0  0  0  0  0  0  0  0
  189.5390  176.9040  141.7800 C   0  0  0  0  0  0  0  0  0  0  0  0
  190.2260  177.3650  139.7920 N   0  0  0  0  0  0  0  0  0  0  0  0
  190.9200  177.0110  141.8440 C   0  0  0  0  0  0  0  0  0  0  0  0
  191.3340  177.3120  140.5570 C   0  0  0  0  0  3  0  0  0  0  0  0
  190.2030  177.7140  138.3770 C   0  0  1  0  0  3  0  0  0  0  0  0
  190.0830  176.7460  136.1210 C   0  0  0  0  0  2  0  0  0  0  0  0
  189.7660  176.5260  137.5320 C   0  0  2  0  0  3  0  0  0  0  0  0
  188.7130  176.9880  136.6020 N   0  0  1  0  0  0  0  0  0  0  0  0
  189.1790  178.7910  138.1350 C   0  0  0  0  0  2  0  0  0  0  0  0
  188.5690  178.4280  136.7970 C   0  0  2  0  0  3  0  0  0  0  0  0
  187.1540  178.7760  136.7930 N   0  0  0  0  0  2  0  0  0  0  0  0
  185.4150  176.7370  136.6370 S   0  0  0  0  0  0  0  0  0  0  0  0
  186.1260  177.9950  137.4150 C   0  0  0  0  0  0  0  0  0  0  0  0
  185.6270  178.3980  138.7570 C   0  0  0  0  0  2  0  0  0  0  0  0
  184.8690  179.6360  138.6560 N   0  0  0  0  0  2  0  0  0  0  0  0
  183.9830  179.6450  139.6850 O   0  0  0  0  0  0  0  0  0  0  0  0
  181.3760  179.3560  139.9150 O   0  0  0  0  0  1  0  0  0  0  0  0
  182.2070  181.4040  138.4970 O   0  0  0  0  0  1  0  0  0  0  0  0
  182.4590  179.7900  138.9490 P   0  0  0  0  0  0  0  0  0  0  0  0
  182.4020  178.8020  137.5670 O   0  0  0  0  0  0  0  0  0  0  0  0
  191.7660  176.8660  143.0360 C   0  0  0  0  0  3  0  0  0  0  0  0
  191.8090  175.7370  143.7320 C   0  0  0  0  0  2  0  0  0  0  0  0
  188.4940  175.4090  143.2930 O   0  0  0  0  0  0  0  0  0  0  0  0
  188.6030  176.5970  142.8870 C   0  0  0  0  0  0  0  0  0  0  0  0
  187.8680  177.7160  143.6090 C   0  0  2  0  0  3  0  0  0  0  0  0
  188.9140  177.0070  145.8130 O   0  0  0  0  0  0  0  0  0  0  0  0
  188.1230  177.9760  145.1360 C   0  0  2  0  0  0  0  0  0  0  0  0
  186.9870  177.0820  144.6280 C   0  0  1  0  0  3  0  0  0  0  0  0
  189.6200  178.0070  145.1780 C   0  0  0  0  0  2  0  0  0  0  0  0
  183.7310  178.7700  143.6140 C   0  0  0  0  0  0  0  0  0  0  0  0
  183.9750  178.9450  146.0210 C   0  0  0  0  0  3  0  0  0  0  0  0
  183.2440  179.2000  144.8540 C   0  0  0  0  0  3  0  0  0  0  0  0
  185.6710  177.7970  144.7100 C   0  0  0  0  0  0  0  0  0  0  0  0
  184.9440  178.0760  143.5420 C   0  0  0  0  0  3  0  0  0  0  0  0
  183.0240  179.0220  142.4840 F   0  0  0  0  0  0  0  0  0  0  0  0
  185.1870  178.2510  145.9480 C   0  0  0  0  0  3  0  0  0  0  0  0
  1  2  2  0  0  0  0
  2  4  1  0  0  0  0
  2 25  1  0  0  0  0
  3  1  1  0  0  0  0
  3  5  1  0  0  0  0
  4 22  1  0  0  0  0
  5  4  2  0  0  0  0
  6 10  1  1  0  0  0
  6  3  1  0  0  0  0
  8  7  1  6  0  0  0
  8  6  1  0  0  0  0
  9  7  1  6  0  0  0
  9 11  1  0  0  0  0
  9  8  1  0  0  0  0
 11 12  1  1  0  0  0
 11 10  1  0  0  0  0
 12 14  1  0  0  0  0
 13 14  2  0  0  0  0
 14 15  1  0  0  0  0
 16 15  1  0  0  0  0
 16 17  1  0  0  0  0
 19 20  1  0  0  0  0
 20 17  1  0  0  0  0
 20 18  1  0  0  0  0
 21 20  2  0  0  0  0
 22 23  2  0  0  0  0
 25 24  2  0  0  0  0
 26 25  1  1  0  0  0
 26 29  1  0  0  0  0
 26 28  1  0  0  0  0
 28 30  1  1  0  0  0
 28 27  1  0  0  0  0
 29 34  1  6  0  0  0
 29 28  1  0  0  0  0
 30 27  1  0  0  0  0
 31 33  1  0  0  0  0
 33 32  2  0  0  0  0
 34 37  2  0  0  0  0
 35 31  2  0  0  0  0
 35 34  1  0  0  0  0
 36 31  1  0  0  0  0
 37 32  1  0  0  0  0
M  END
>  <MODEL>
5

>  <REMARK>
 VINA RESULT:      -8.0      2.662      3.552
  Name = 
  11 active torsions:
  status: ('A' for Active; 'I' for Inactive)
    1  A    between atoms: C_2  and  N_32
    2  A    between atoms: C_4  and  C_33
    3  A    between atoms: C_8  and  N_14
    4  A    between atoms: C_8  and  C_27
    5  A    between atoms: C_11  and  C_13
    6  A    between atoms: C_13  and  C_21
    7  A    between atoms: N_14  and  C_35
    8  A    between atoms: O_19  and  P_25
    9  A    between atoms: O_19  and  N_36
   10  A    between atoms: C_22  and  C_30
   11  A    between atoms: C_27  and  N_36
                            x       y       z     vdW  Elec       q    Type
                         _______ _______ _______ _____ _____    ______ ____

>  <TORSDO>
F 11

$$$$
=
 OpenBabel11042412083D

 37 42  0  0  1  0  0  0  0  0999 V2000
  189.1680  178.6520  141.8480 N   0  0  0  0  0  0  0  0  0  0  0  0
  189.6990  177.9120  142.8370 C   0  0  0  0  0  0  0  0  0  0  0  0
  189.0570  177.8740  140.7830 N   0  0  0  0  0  0  0  0  0  0  0  0
  189.9350  176.6310  142.3640 C   0  0  0  0  0  0  0  0  0  0  0  0
  189.5190  176.6360  141.0430 C   0  0  0  0  0  3  0  0  0  0  0  0
  188.5770  178.3310  139.4850 C   0  0  1  0  0  3  0  0  0  0  0  0
  189.3180  178.9020  137.2120 C   0  0  0  0  0  2  0  0  0  0  0  0
  189.6390  178.1320  138.4130 C   0  0  2  0  0  3  0  0  0  0  0  0
  189.0030  177.4650  137.2570 N   0  0  1  0  0  0  0  0  0  0  0  0
  187.3980  177.5000  139.0560 C   0  0  0  0  0  2  0  0  0  0  0  0
  187.5800  177.3400  137.5610 C   0  0  2  0  0  3  0  0  0  0  0  0
  187.1120  176.0240  137.1480 N   0  0  0  0  0  2  0  0  0  0  0  0
  185.2170  174.1240  137.2180 S   0  0  0  0  0  0  0  0  0  0  0  0
  185.7330  175.6660  136.9960 C   0  0  0  0  0  0  0  0  0  0  0  0
  184.7670  176.6980  136.5330 C   0  0  0  0  0  2  0  0  0  0  0  0
  183.9650  177.1680  137.6520 N   0  0  0  0  0  2  0  0  0  0  0  0
  184.2890  178.4720  137.8530 O   0  0  0  0  0  0  0  0  0  0  0  0
  183.5090  177.5270  140.1840 O   0  0  0  0  0  1  0  0  0  0  0  0
  184.9280  179.7360  140.2310 O   0  0  0  0  0  1  0  0  0  0  0  0
  183.7520  178.8170  139.4280 P   0  0  0  0  0  0  0  0  0  0  0  0
  182.3020  179.7000  139.3510 O   0  0  0  0  0  0  0  0  0  0  0  0
  190.5320  175.5090  143.1010 C   0  0  0  0  0  3  0  0  0  0  0  0
  191.6980  175.6220  143.7240 C   0  0  0  0  0  2  0  0  0  0  0  0
  191.1280  178.8420  144.4840 O   0  0  0  0  0  0  0  0  0  0  0  0
  189.9690  178.4400  144.1960 C   0  0  0  0  0  0  0  0  0  0  0  0
  188.8370  178.6080  145.1970 C   0  0  2  0  0  3  0  0  0  0  0  0
  189.4200  176.3760  146.2620 O   0  0  0  0  0  0  0  0  0  0  0  0
  188.6250  177.5530  146.3410 C   0  0  2  0  0  0  0  0  0  0  0  0
  187.8960  177.4720  144.9960 C   0  0  1  0  0  3  0  0  0  0  0  0
  190.0130  177.4480  146.8960 C   0  0  0  0  0  2  0  0  0  0  0  0
  184.3810  178.6370  144.1180 C   0  0  0  0  0  0  0  0  0  0  0  0
  184.6110  178.6260  146.5330 C   0  0  0  0  0  3  0  0  0  0  0  0
  183.8360  178.8550  145.3890 C   0  0  0  0  0  3  0  0  0  0  0  0
  186.4740  177.9280  145.1340 C   0  0  0  0  0  0  0  0  0  0  0  0
  185.6980  178.1810  143.9910 C   0  0  0  0  0  3  0  0  0  0  0  0
  183.6310  178.8630  143.0110 F   0  0  0  0  0  0  0  0  0  0  0  0
  185.9280  178.1700  146.4060 C   0  0  0  0  0  3  0  0  0  0  0  0
  1  2  2  0  0  0  0
  2 25  1  0  0  0  0
  3  5  1  0  0  0  0
  3  1  1  0  0  0  0
  4  2  1  0  0  0  0
  4 22  1  0  0  0  0
  5  4  2  0  0  0  0
  6 10  1  6  0  0  0
  6  3  1  0  0  0  0
  8  7  1  6  0  0  0
  8  6  1  0  0  0  0
  9  7  1  6  0  0  0
  9 11  1  0  0  0  0
  9  8  1  0  0  0  0
 11 12  1  1  0  0  0
 11 10  1  0  0  0  0
 14 12  1  0  0  0  0
 14 13  2  0  0  0  0
 15 14  1  0  0  0  0
 15 16  1  0  0  0  0
 16 17  1  0  0  0  0
 17 20  1  0  0  0  0
 20 18  1  0  0  0  0
 20 19  1  0  0  0  0
 21 20  2  0  0  0  0
 22 23  2  0  0  0  0
 25 24  2  0  0  0  0
 26 25  1  6  0  0  0
 26 28  1  0  0  0  0
 27 28  1  0  0  0  0
 27 30  1  0  0  0  0
 28 30  1  1  0  0  0
 29 34  1  1  0  0  0
 29 26  1  0  0  0  0
 29 28  1  0  0  0  0
 31 33  1  0  0  0  0
 33 32  2  0  0  0  0
 34 37  2  0  0  0  0
 35 31  2  0  0  0  0
 35 34  1  0  0  0  0
 36 31  1  0  0  0  0
 37 32  1  0  0  0  0
M  END
>  <MODEL>
6

>  <REMARK>
 VINA RESULT:      -7.9      2.452      3.364
  Name = 
  11 active torsions:
  status: ('A' for Active; 'I' for Inactive)
    1  A    between atoms: C_2  and  N_32
    2  A    between atoms: C_4  and  C_33
    3  A    between atoms: C_8  and  N_14
    4  A    between atoms: C_8  and  C_27
    5  A    between atoms: C_11  and  C_13
    6  A    between atoms: C_13  and  C_21
    7  A    between atoms: N_14  and  C_35
    8  A    between atoms: O_19  and  P_25
    9  A    between atoms: O_19  and  N_36
   10  A    between atoms: C_22  and  C_30
   11  A    between atoms: C_27  and  N_36
                            x       y       z     vdW  Elec       q    Type
                         _______ _______ _______ _____ _____    ______ ____

>  <TORSDO>
F 11

$$$$
=
 OpenBabel11042412083D

 37 42  0  0  1  0  0  0  0  0999 V2000
  190.6480  176.4820  140.1330 N   0  0  0  0  0  0  0  0  0  0  0  0
  189.7680  176.9830  141.0180 C   0  0  0  0  0  0  0  0  0  0  0  0
  190.3870  177.0310  138.9560 N   0  0  0  0  0  0  0  0  0  0  0  0
  188.9260  177.8670  140.3630 C   0  0  0  0  0  0  0  0  0  0  0  0
  189.3410  177.8750  139.0420 C   0  0  0  0  0  3  0  0  0  0  0  0
  191.0910  176.6940  137.7250 C   0  0  1  0  0  3  0  0  0  0  0  0
  192.6430  175.0640  136.7380 C   0  0  0  0  0  2  0  0  0  0  0  0
  191.6480  175.2800  137.7880 C   0  0  2  0  0  3  0  0  0  0  0  0
  191.2660  174.5810  136.5420 N   0  0  1  0  0  0  0  0  0  0  0  0
  190.1280  176.7070  136.5690 C   0  0  0  0  0  2  0  0  0  0  0  0
  190.5800  175.5530  135.6960 C   0  0  2  0  0  3  0  0  0  0  0  0
  189.4210  174.9230  135.0770 N   0  0  0  0  0  2  0  0  0  0  0  0
  189.0370  172.2680  134.9740 S   0  0  0  0  0  0  0  0  0  0  0  0
  188.7590  173.7620  135.5940 C   0  0  0  0  0  0  0  0  0  0  0  0
  187.7250  173.9320  136.6500 C   0  0  0  0  0  2  0  0  0  0  0  0
  186.7270  174.9000  136.2180 N   0  0  0  0  0  2  0  0  0  0  0  0
  186.5250  175.7520  137.2560 O   0  0  0  0  0  0  0  0  0  0  0  0
  186.9390  178.1480  136.2470 O   0  0  0  0  0  1  0  0  0  0  0  0
  185.0490  176.7140  135.1220 O   0  0  0  0  0  0  0  0  0  0  0  0
  185.8480  177.1430  136.5540 P   0  0  0  0  0  0  0  0  0  0  0  0
  184.7370  177.8390  137.6340 O   0  0  0  0  0  1  0  0  0  0  0  0
  187.8030  178.6170  140.9440 C   0  0  0  0  0  3  0  0  0  0  0  0
  186.5780  178.5440  140.4420 C   0  0  0  0  0  2  0  0  0  0  0  0
  190.0650  175.4350  142.7880 O   0  0  0  0  0  0  0  0  0  0  0  0
  189.7510  176.6080  142.4520 C   0  0  0  0  0  0  0  0  0  0  0  0
  189.4750  177.6550  143.5190 C   0  0  2  0  0  3  0  0  0  0  0  0
  191.7630  177.2400  144.5450 O   0  0  0  0  0  0  0  0  0  0  0  0
  190.5890  178.0440  144.5560 C   0  0  2  0  0  0  0  0  0  0  0  0
  189.5340  176.9690  144.8390 C   0  0  1  0  0  3  0  0  0  0  0  0
  191.7550  178.2880  143.6490 C   0  0  0  0  0  2  0  0  0  0  0  0
  187.7360  178.0990  147.9960 C   0  0  0  0  0  0  0  0  0  0  0  0
  186.1900  178.2440  146.1330 C   0  0  0  0  0  3  0  0  0  0  0  0
  186.4650  178.4070  147.4970 C   0  0  0  0  0  3  0  0  0  0  0  0
  188.4730  177.4940  145.7590 C   0  0  0  0  0  0  0  0  0  0  0  0
  188.7350  177.6390  147.1310 C   0  0  0  0  0  3  0  0  0  0  0  0
  188.0000  178.2530  149.3180 F   0  0  0  0  0  0  0  0  0  0  0  0
  187.1890  177.7840  145.2680 C   0  0  0  0  0  3  0  0  0  0  0  0
  1  2  2  0  0  0  0
  2 25  1  0  0  0  0
  3  5  1  0  0  0  0
  3  1  1  0  0  0  0
  4 22  1  0  0  0  0
  4  2  1  0  0  0  0
  5  4  2  0  0  0  0
  6 10  1  6  0  0  0
  6  8  1  0  0  0  0
  6  3  1  0  0  0  0
  8  7  1  6  0  0  0
  9  7  1  6  0  0  0
  9  8  1  0  0  0  0
 11 12  1  1  0  0  0
 11  9  1  0  0  0  0
 11 10  1  0  0  0  0
 12 14  1  0  0  0  0
 13 14  2  0  0  0  0
 14 15  1  0  0  0  0
 16 15  1  0  0  0  0
 16 17  1  0  0  0  0
 18 20  1  0  0  0  0
 19 20  2  0  0  0  0
 20 17  1  0  0  0  0
 20 21  1  0  0  0  0
 23 22  2  0  0  0  0
 25 24  2  0  0  0  0
 26 25  1  6  0  0  0
 26 28  1  0  0  0  0
 26 29  1  0  0  0  0
 27 28  1  0  0  0  0
 28 30  1  1  0  0  0
 28 29  1  0  0  0  0
 29 34  1  1  0  0  0
 30 27  1  0  0  0  0
 31 36  1  0  0  0  0
 32 33  2  0  0  0  0
 33 31  1  0  0  0  0
 34 35  1  0  0  0  0
 35 31  2  0  0  0  0
 37 34  2  0  0  0  0
 37 32  1  0  0  0  0
M  END
>  <MODEL>
7

>  <REMARK>
 VINA RESULT:      -7.9      3.199      4.356
  Name = 
  11 active torsions:
  status: ('A' for Active; 'I' for Inactive)
    1  A    between atoms: C_2  and  N_32
    2  A    between atoms: C_4  and  C_33
    3  A    between atoms: C_8  and  N_14
    4  A    between atoms: C_8  and  C_27
    5  A    between atoms: C_11  and  C_13
    6  A    between atoms: C_13  and  C_21
    7  A    between atoms: N_14  and  C_35
    8  A    between atoms: O_19  and  P_25
    9  A    between atoms: O_19  and  N_36
   10  A    between atoms: C_22  and  C_30
   11  A    between atoms: C_27  and  N_36
                            x       y       z     vdW  Elec       q    Type
                         _______ _______ _______ _____ _____    ______ ____

>  <TORSDO>
F 11

$$$$
=
 OpenBabel11042412083D

 37 42  0  0  1  0  0  0  0  0999 V2000
  190.0130  176.9680  140.2470 N   0  0  0  0  0  0  0  0  0  0  0  0
  189.2130  177.3380  141.2630 C   0  0  0  0  0  0  0  0  0  0  0  0
  189.5850  177.5850  139.1560 N   0  0  0  0  0  0  0  0  0  0  0  0
  188.2480  178.2080  140.7820 C   0  0  0  0  0  0  0  0  0  0  0  0
  188.5060  178.3450  139.4280 C   0  0  0  0  0  3  0  0  0  0  0  0
  190.1600  177.3930  137.8310 C   0  0  1  0  0  3  0  0  0  0  0  0
  191.3040  175.7440  136.4120 C   0  0  0  0  0  2  0  0  0  0  0  0
  190.4130  175.9170  137.5590 C   0  0  2  0  0  3  0  0  0  0  0  0
  189.8510  175.5930  136.2300 N   0  0  1  0  0  0  0  0  0  0  0  0
  189.1810  177.8430  136.7810 C   0  0  0  0  0  2  0  0  0  0  0  0
  189.3530  176.8410  135.6580 C   0  0  2  0  0  3  0  0  0  0  0  0
  188.0680  176.5980  135.0160 N   0  0  0  0  0  2  0  0  0  0  0  0
  185.8950  176.2350  136.5490 S   0  0  0  0  0  0  0  0  0  0  0  0
  187.0640  175.7110  135.5230 C   0  0  0  0  0  0  0  0  0  0  0  0
  187.1440  174.2640  135.1870 C   0  0  0  0  0  2  0  0  0  0  0  0
  185.8070  173.7260  134.9850 N   0  0  0  0  0  2  0  0  0  0  0  0
  185.8090  172.4610  135.4800 O   0  0  0  0  0  0  0  0  0  0  0  0
  184.9730  172.6590  137.9690 O   0  0  0  0  0  1  0  0  0  0  0  0
  183.3680  173.6000  136.1160 O   0  0  0  0  0  0  0  0  0  0  0  0
  184.4930  172.4110  136.5540 P   0  0  0  0  0  0  0  0  0  0  0  0
  183.7570  170.8810  136.4760 O   0  0  0  0  0  1  0  0  0  0  0  0
  187.1570  178.8310  141.5440 C   0  0  0  0  0  3  0  0  0  0  0  0
  185.8830  178.6270  141.2360 C   0  0  0  0  0  2  0  0  0  0  0  0
  189.6910  175.6500  142.8570 O   0  0  0  0  0  0  0  0  0  0  0  0
  189.3850  176.8550  142.6540 C   0  0  0  0  0  0  0  0  0  0  0  0
  189.3140  177.8270  143.8210 C   0  0  2  0  0  3  0  0  0  0  0  0
  191.6820  177.2090  144.5060 O   0  0  0  0  0  0  0  0  0  0  0  0
  190.5720  178.0710  144.7290 C   0  0  2  0  0  0  0  0  0  0  0  0
  189.4960  177.0350  145.0690 C   0  0  1  0  0  3  0  0  0  0  0  0
  191.6270  178.3250  143.6970 C   0  0  0  0  0  2  0  0  0  0  0  0
  186.4270  178.3720  146.8780 C   0  0  0  0  0  0  0  0  0  0  0  0
  188.2630  178.2520  148.4580 C   0  0  0  0  0  3  0  0  0  0  0  0
  186.9270  178.5580  148.1720 C   0  0  0  0  0  3  0  0  0  0  0  0
  188.5950  177.5400  146.1560 C   0  0  0  0  0  0  0  0  0  0  0  0
  187.2600  177.8700  145.8710 C   0  0  0  0  0  3  0  0  0  0  0  0
  185.1330  178.6740  146.6010 F   0  0  0  0  0  0  0  0  0  0  0  0
  189.0960  177.7500  147.4510 C   0  0  0  0  0  3  0  0  0  0  0  0
  1  2  2  0  0  0  0
  2 25  1  0  0  0  0
  3  5  1  0  0  0  0
  3  1  1  0  0  0  0
  4  2  1  0  0  0  0
  4 22  1  0  0  0  0
  5  4  2  0  0  0  0
  6 10  1  6  0  0  0
  6  3  1  0  0  0  0
  8  7  1  6  0  0  0
  8  6  1  0  0  0  0
  9  7  1  6  0  0  0
  9  8  1  0  0  0  0
 11 12  1  1  0  0  0
 11  9  1  0  0  0  0
 11 10  1  0  0  0  0
 12 14  1  0  0  0  0
 14 13  2  0  0  0  0
 15 14  1  0  0  0  0
 16 15  1  0  0  0  0
 16 17  1  0  0  0  0
 17 20  1  0  0  0  0
 19 20  2  0  0  0  0
 20 18  1  0  0  0  0
 21 20  1  0  0  0  0
 23 22  2  0  0  0  0
 25 24  2  0  0  0  0
 26 25  1  6  0  0  0
 26 28  1  0  0  0  0
 26 29  1  0  0  0  0
 27 28  1  0  0  0  0
 28 30  1  1  0  0  0
 28 29  1  0  0  0  0
 29 34  1  1  0  0  0
 30 27  1  0  0  0  0
 31 33  1  0  0  0  0
 33 32  2  0  0  0  0
 34 37  2  0  0  0  0
 35 34  1  0  0  0  0
 35 31  2  0  0  0  0
 36 31  1  0  0  0  0
 37 32  1  0  0  0  0
M  END
>  <MODEL>
8

>  <REMARK>
 VINA RESULT:      -7.8      3.591      4.671
  Name = 
  11 active torsions:
  status: ('A' for Active; 'I' for Inactive)
    1  A    between atoms: C_2  and  N_32
    2  A    between atoms: C_4  and  C_33
    3  A    between atoms: C_8  and  N_14
    4  A    between atoms: C_8  and  C_27
    5  A    between atoms: C_11  and  C_13
    6  A    between atoms: C_13  and  C_21
    7  A    between atoms: N_14  and  C_35
    8  A    between atoms: O_19  and  P_25
    9  A    between atoms: O_19  and  N_36
   10  A    between atoms: C_22  and  C_30
   11  A    between atoms: C_27  and  N_36
                            x       y       z     vdW  Elec       q    Type
                         _______ _______ _______ _____ _____    ______ ____

>  <TORSDO>
F 11

$$$$
=
 OpenBabel11042412083D

 37 42  0  0  1  0  0  0  0  0999 V2000
  188.5410  177.4200  140.2510 N   0  0  0  0  0  0  0  0  0  0  0  0
  189.6240  177.1710  141.0080 C   0  0  0  0  0  0  0  0  0  0  0  0
  188.9640  177.7030  139.0290 N   0  0  0  0  0  0  0  0  0  0  0  0
  190.7610  177.3140  140.2270 C   0  0  0  0  0  0  0  0  0  0  0  0
  190.3090  177.6600  138.9650 C   0  0  0  0  0  3  0  0  0  0  0  0
  188.0870  178.0890  137.9310 C   0  0  1  0  0  3  0  0  0  0  0  0
  187.6880  177.7490  135.5290 C   0  0  0  0  0  2  0  0  0  0  0  0
  188.2770  177.1670  136.7350 C   0  0  2  0  0  3  0  0  0  0  0  0
  186.9420  176.7250  136.2790 N   0  0  1  0  0  0  0  0  0  0  0  0
  186.6490  177.9310  138.3470 C   0  0  0  0  0  2  0  0  0  0  0  0
  185.9550  177.4210  137.1010 C   0  0  2  0  0  3  0  0  0  0  0  0
  184.8970  176.4920  137.4740 N   0  0  0  0  0  2  0  0  0  0  0  0
  182.6390  175.8700  138.7860 S   0  0  0  0  0  0  0  0  0  0  0  0
  183.5940  176.8860  137.9200 C   0  0  0  0  0  0  0  0  0  0  0  0
  183.0590  178.2100  137.5030 C   0  0  0  0  0  2  0  0  0  0  0  0
  182.5150  178.9130  138.6550 N   0  0  0  0  0  2  0  0  0  0  0  0
  181.2590  179.3080  138.3240 O   0  0  0  0  0  0  0  0  0  0  0  0
  180.3740  181.5070  139.4720 O   0  0  0  0  0  1  0  0  0  0  0  0
  182.8890  181.5100  138.7190 O   0  0  0  0  0  1  0  0  0  0  0  0
  181.3060  181.0060  138.3870 P   0  0  0  0  0  0  0  0  0  0  0  0
  180.8120  181.6420  136.8910 O   0  0  0  0  0  0  0  0  0  0  0  0
  192.1570  177.1610  140.6580 C   0  0  0  0  0  3  0  0  0  0  0  0
  193.1710  177.3370  139.8210 C   0  0  0  0  0  2  0  0  0  0  0  0
  189.9440  175.6700  142.8140 O   0  0  0  0  0  0  0  0  0  0  0  0
  189.5510  176.8080  142.4430 C   0  0  0  0  0  0  0  0  0  0  0  0
  189.1210  177.8370  143.4770 C   0  0  2  0  0  3  0  0  0  0  0  0
  191.2930  177.4940  144.7510 O   0  0  0  0  0  0  0  0  0  0  0  0
  190.0970  178.2560  144.6330 C   0  0  2  0  0  0  0  0  0  0  0  0
  189.0570  177.1430  144.7930 C   0  0  1  0  0  3  0  0  0  0  0  0
  191.3480  178.5490  143.8630 C   0  0  0  0  0  2  0  0  0  0  0  0
  185.5680  178.3650  145.6950 C   0  0  0  0  0  0  0  0  0  0  0  0
  186.9260  178.3550  147.7040 C   0  0  0  0  0  3  0  0  0  0  0  0
  185.7010  178.5940  147.0690 C   0  0  0  0  0  3  0  0  0  0  0  0
  187.8820  177.6230  145.5900 C   0  0  0  0  0  0  0  0  0  0  0  0
  186.6560  177.8860  144.9570 C   0  0  0  0  0  3  0  0  0  0  0  0
  184.3820  178.6010  145.0800 F   0  0  0  0  0  0  0  0  0  0  0  0
  188.0150  177.8770  146.9660 C   0  0  0  0  0  3  0  0  0  0  0  0
  1  2  2  0  0  0  0
  2 25  1  0  0  0  0
  3  1  1  0  0  0  0
  4 22  1  0  0  0  0
  4  2  1  0  0  0  0
  5  3  1  0  0  0  0
  5  4  2  0  0  0  0
  6 10  1  1  0  0  0
  6  3  1  0  0  0  0
  8  7  1  6  0  0  0
  8  6  1  0  0  0  0
  9  7  1  6  0  0  0
  9  8  1  0  0  0  0
  9 11  1  0  0  0  0
 11 12  1  1  0  0  0
 11 10  1  0  0  0  0
 12 14  1  0  0  0  0
 14 13  2  0  0  0  0
 15 14  1  0  0  0  0
 15 16  1  0  0  0  0
 17 20  1  0  0  0  0
 17 16  1  0  0  0  0
 20 19  1  0  0  0  0
 20 18  1  0  0  0  0
 21 20  2  0  0  0  0
 23 22  2  0  0  0  0
 25 24  2  0  0  0  0
 26 25  1  6  0  0  0
 26 28  1  0  0  0  0
 26 29  1  0  0  0  0
 28 30  1  1  0  0  0
 28 27  1  0  0  0  0
 28 29  1  0  0  0  0
 29 34  1  1  0  0  0
 30 27  1  0  0  0  0
 31 33  1  0  0  0  0
 33 32  2  0  0  0  0
 34 37  2  0  0  0  0
 35 34  1  0  0  0  0
 35 31  2  0  0  0  0
 36 31  1  0  0  0  0
 37 32  1  0  0  0  0
M  END
>  <MODEL>
9

>  <REMARK>
 VINA RESULT:      -7.7      2.164      2.637
  Name = 
  11 active torsions:
  status: ('A' for Active; 'I' for Inactive)
    1  A    between atoms: C_2  and  N_32
    2  A    between atoms: C_4  and  C_33
    3  A    between atoms: C_8  and  N_14
    4  A    between atoms: C_8  and  C_27
    5  A    between atoms: C_11  and  C_13
    6  A    between atoms: C_13  and  C_21
    7  A    between atoms: N_14  and  C_35
    8  A    between atoms: O_19  and  P_25
    9  A    between atoms: O_19  and  N_36
   10  A    between atoms: C_22  and  C_30
   11  A    between atoms: C_27  and  N_36
                            x       y       z     vdW  Elec       q    Type
                         _______ _______ _______ _____ _____    ______ ____

>  <TORSDO>
F 11

$$$$
