=
 OpenBabel11032419133D

 30 34  0  0  1  0  0  0  0  0999 V2000
  184.1240  180.0870  144.2870 C   0  0  0  0  0  2  0  0  0  0  0  0
  184.7510  178.7940  143.7800 C   0  0  2  0  0  0  0  0  0  0  0  0
  183.2800  178.8190  144.2160 C   0  0  2  0  0  3  0  0  0  0  0  0
  188.1750  178.2550  145.1220 C   0  0  1  0  0  3  0  0  0  0  0  0
  190.4390  177.1430  145.5010 N   0  0  0  0  0  0  0  0  0  0  0  0
  185.6460  178.7330  146.0090 C   0  0  0  0  0  2  0  0  0  0  0  0
  188.7250  176.9960  147.1930 C   0  0  0  0  0  3  0  0  0  0  0  0
  187.1710  176.4680  143.6200 C   0  0  0  0  0  1  0  0  0  0  0  0
  187.8460  177.7090  146.4870 C   0  0  0  0  0  0  0  0  0  0  0  0
  189.5580  177.8870  144.6460 C   0  0  0  0  0  0  0  0  0  0  0  0
  185.6790  178.0830  144.6860 N   0  0  2  0  0  0  0  0  0  0  0  0
  186.4700  177.9420  147.0250 C   0  0  0  0  0  2  0  0  0  0  0  0
  190.0830  176.7180  146.6760 C   0  0  0  0  0  0  0  0  0  0  0  0
  190.0020  178.3550  143.5280 N   0  0  0  0  0  2  0  0  0  0  0  0
  187.0450  177.8990  144.1290 C   0  0  1  0  0  3  0  0  0  0  0  0
  192.2960  175.6530  146.9490 C   0  0  0  0  0  1  0  0  0  0  0  0
  191.0020  175.9860  147.4310 O   0  0  0  0  0  0  0  0  0  0  0  0
  186.1490  179.5870  141.7480 C   0  0  0  0  0  3  0  0  0  0  0  0
  185.1060  178.6380  140.1430 C   0  0  0  0  0  0  0  0  0  0  0  0
  184.6830  178.2310  138.8790 C   0  0  0  0  0  3  0  0  0  0  0  0
  184.4720  178.2280  141.2820 C   0  0  0  0  0  0  0  0  0  0  0  0
  185.1400  178.8200  142.3280 C   0  0  0  0  0  0  0  0  0  0  0  0
  183.3520  177.3990  141.2500 C   0  0  0  0  0  3  0  0  0  0  0  0
  183.1060  176.9700  137.6050 F   0  0  0  0  0  0  0  0  0  0  0  0
  183.5590  177.3870  138.8100 C   0  0  0  0  0  0  0  0  0  0  0  0
  182.8970  176.9770  139.9880 C   0  0  0  0  0  3  0  0  0  0  0  0
  186.1010  179.4380  140.4340 O   0  0  0  0  0  0  0  0  0  0  0  0
  182.3000  178.9380  143.0540 C   0  0  0  0  0  2  0  0  0  0  0  0
  180.9010  179.2130  143.5710 C   0  0  0  0  0  2  0  0  0  0  0  0
  180.3650  180.3300  142.9270 O   0  0  0  0  0  1  0  0  0  0  0  0
  2 22  1  6  0  0  0
  2  3  1  0  0  0  0
  2  1  1  0  0  0  0
  2 11  1  0  0  0  0
  3 28  1  6  0  0  0
  3  1  1  0  0  0  0
  4 10  1  6  0  0  0
  4  9  1  0  0  0  0
  5 13  2  0  0  0  0
  6 12  1  0  0  0  0
  9 12  1  0  0  0  0
  9  7  2  0  0  0  0
 10  5  1  0  0  0  0
 11  6  1  1  0  0  0
 13  7  1  0  0  0  0
 13 17  1  0  0  0  0
 14 10  2  0  0  0  0
 15  8  1  1  0  0  0
 15 11  1  0  0  0  0
 15  4  1  0  0  0  0
 16 17  1  0  0  0  0
 18 22  2  0  0  0  0
 19 27  1  0  0  0  0
 19 21  1  0  0  0  0
 20 19  2  0  0  0  0
 21 22  1  0  0  0  0
 23 21  2  0  0  0  0
 24 25  1  0  0  0  0
 25 20  1  0  0  0  0
 25 26  2  0  0  0  0
 26 23  1  0  0  0  0
 27 18  1  0  0  0  0
 28 29  1  0  0  0  0
 30 29  1  0  0  0  0
M  END
>  <MODEL>
1

>  <REMARK>
 VINA RESULT:      -8.5      0.000      0.000
  Name = 
  5 active torsions:
  status: ('A' for Active; 'I' for Inactive)
    1  A    between atoms: O_13  and  C_20
    2  A    between atoms: N_15  and  C_22
    3  A    between atoms: C_16  and  C_22
    4  A    between atoms: C_24  and  C_27
    5  A    between atoms: C_25  and  C_27
                            x       y       z     vdW  Elec       q    Type
                         _______ _______ _______ _____ _____    ______ ____

>  <TORSDO>
F 5

$$$$
=
 OpenBabel11032419133D

 30 34  0  0  1  0  0  0  0  0999 V2000
  189.3850  178.9370  138.9640 C   0  0  0  0  0  2  0  0  0  0  0  0
  188.8880  177.5390  139.3110 C   0  0  2  0  0  0  0  0  0  0  0  0
  187.9580  178.5360  138.6060 C   0  0  2  0  0  3  0  0  0  0  0  0
  189.3530  178.2570  142.9270 C   0  0  1  0  0  3  0  0  0  0  0  0
  190.1570  177.9700  145.3300 N   0  0  0  0  0  0  0  0  0  0  0  0
  187.3520  177.9920  141.1000 C   0  0  0  0  0  2  0  0  0  0  0  0
  187.8700  177.4560  144.7540 C   0  0  0  0  0  3  0  0  0  0  0  0
  190.3180  176.1020  141.9910 C   0  0  0  0  0  1  0  0  0  0  0  0
  188.0320  177.7760  143.4690 C   0  0  0  0  0  0  0  0  0  0  0  0
  190.4470  178.3030  143.9650 C   0  0  0  0  0  0  0  0  0  0  0  0
  188.5740  177.2560  140.7270 N   0  0  2  0  0  0  0  0  0  0  0  0
  186.8960  177.6120  142.5100 C   0  0  0  0  0  2  0  0  0  0  0  0
  188.9820  177.5740  145.7230 C   0  0  0  0  0  0  0  0  0  0  0  0
  191.6090  178.7730  143.6580 N   0  0  0  0  0  2  0  0  0  0  0  0
  189.7190  177.4610  141.6540 C   0  0  1  0  0  3  0  0  0  0  0  0
  189.0570  178.1760  148.1180 C   0  0  0  0  0  1  0  0  0  0  0  0
  188.7970  177.2540  147.0690 O   0  0  0  0  0  0  0  0  0  0  0  0
  188.9670  175.3020  138.0060 C   0  0  0  0  0  3  0  0  0  0  0  0
  191.0750  175.0400  137.7750 C   0  0  0  0  0  0  0  0  0  0  0  0
  192.3320  174.5210  137.4720 C   0  0  0  0  0  3  0  0  0  0  0  0
  190.9240  176.2400  138.4090 C   0  0  0  0  0  0  0  0  0  0  0  0
  189.5700  176.4320  138.5540 C   0  0  0  0  0  0  0  0  0  0  0  0
  192.0160  177.0080  138.8130 C   0  0  0  0  0  3  0  0  0  0  0  0
  194.6990  174.8100  137.5900 F   0  0  0  0  0  0  0  0  0  0  0  0
  193.4560  175.2750  137.8570 C   0  0  0  0  0  0  0  0  0  0  0  0
  193.2980  176.5080  138.5260 C   0  0  0  0  0  3  0  0  0  0  0  0
  189.9060  174.4970  137.5360 O   0  0  0  0  0  0  0  0  0  0  0  0
  187.8650  178.3250  137.0990 C   0  0  0  0  0  2  0  0  0  0  0  0
  186.4730  177.8600  136.7170 C   0  0  0  0  0  2  0  0  0  0  0  0
  185.6420  177.8710  137.8390 O   0  0  0  0  0  1  0  0  0  0  0  0
  1  2  1  0  0  0  0
  2 22  1  6  0  0  0
  2 11  1  0  0  0  0
  3 28  1  6  0  0  0
  3  1  1  0  0  0  0
  3  2  1  0  0  0  0
  4  9  1  1  0  0  0
  4 10  1  0  0  0  0
  5 13  2  0  0  0  0
  6 12  1  0  0  0  0
  7 13  1  0  0  0  0
  9  7  2  0  0  0  0
 10  5  1  0  0  0  0
 11  6  1  1  0  0  0
 11 15  1  0  0  0  0
 12  9  1  0  0  0  0
 13 17  1  0  0  0  0
 14 10  2  0  0  0  0
 15  8  1  1  0  0  0
 15  4  1  0  0  0  0
 17 16  1  0  0  0  0
 18 22  2  0  0  0  0
 19 21  1  0  0  0  0
 20 19  2  0  0  0  0
 20 25  1  0  0  0  0
 21 22  1  0  0  0  0
 21 23  2  0  0  0  0
 24 25  1  0  0  0  0
 25 26  2  0  0  0  0
 26 23  1  0  0  0  0
 27 19  1  0  0  0  0
 27 18  1  0  0  0  0
 29 28  1  0  0  0  0
 29 30  1  0  0  0  0
M  END
>  <MODEL>
2

>  <REMARK>
 VINA RESULT:      -8.3      4.829      6.464
  Name = 
  5 active torsions:
  status: ('A' for Active; 'I' for Inactive)
    1  A    between atoms: O_13  and  C_20
    2  A    between atoms: N_15  and  C_22
    3  A    between atoms: C_16  and  C_22
    4  A    between atoms: C_24  and  C_27
    5  A    between atoms: C_25  and  C_27
                            x       y       z     vdW  Elec       q    Type
                         _______ _______ _______ _____ _____    ______ ____

>  <TORSDO>
F 5

$$$$
=
 OpenBabel11032419133D

 30 34  0  0  1  0  0  0  0  0999 V2000
  189.0990  179.0380  139.0050 C   0  0  0  0  0  2  0  0  0  0  0  0
  189.2050  177.5980  139.4930 C   0  0  2  0  0  0  0  0  0  0  0  0
  188.1070  177.9960  138.4970 C   0  0  2  0  0  3  0  0  0  0  0  0
  189.4220  178.1800  143.1570 C   0  0  1  0  0  3  0  0  0  0  0  0
  189.9950  177.7640  145.6060 N   0  0  0  0  0  0  0  0  0  0  0  0
  187.5660  178.1310  141.1650 C   0  0  0  0  0  2  0  0  0  0  0  0
  187.7310  177.4590  144.8290 C   0  0  0  0  0  3  0  0  0  0  0  0
  190.2840  175.9770  142.2320 C   0  0  0  0  0  1  0  0  0  0  0  0
  188.0250  177.7970  143.5730 C   0  0  0  0  0  0  0  0  0  0  0  0
  190.4250  178.1070  144.2820 C   0  0  0  0  0  0  0  0  0  0  0  0
  188.7510  177.3050  140.8690 N   0  0  2  0  0  0  0  0  0  0  0  0
  186.9650  177.7540  142.5200 C   0  0  0  0  0  2  0  0  0  0  0  0
  188.7640  177.4590  145.8890 C   0  0  0  0  0  0  0  0  0  0  0  0
  191.6430  178.4860  144.0850 N   0  0  0  0  0  2  0  0  0  0  0  0
  189.8270  177.3900  141.8920 C   0  0  1  0  0  3  0  0  0  0  0  0
  188.7590  177.9530  148.3090 C   0  0  0  0  0  1  0  0  0  0  0  0
  188.4410  177.1200  147.2050 O   0  0  0  0  0  0  0  0  0  0  0  0
  191.7620  177.3290  139.1720 C   0  0  0  0  0  3  0  0  0  0  0  0
  191.8390  175.5420  138.0030 C   0  0  0  0  0  0  0  0  0  0  0  0
  192.2760  174.4680  137.2310 C   0  0  0  0  0  3  0  0  0  0  0  0
  190.5160  175.7400  138.2790 C   0  0  0  0  0  0  0  0  0  0  0  0
  190.4490  176.8800  139.0440 C   0  0  0  0  0  0  0  0  0  0  0  0
  189.5210  174.8950  137.7880 C   0  0  0  0  0  3  0  0  0  0  0  0
  191.6740  172.5350  135.9650 F   0  0  0  0  0  0  0  0  0  0  0  0
  191.2990  173.5900  136.7260 C   0  0  0  0  0  0  0  0  0  0  0  0
  189.9310  173.8050  137.0010 C   0  0  0  0  0  3  0  0  0  0  0  0
  192.5670  176.4880  138.5430 O   0  0  0  0  0  0  0  0  0  0  0  0
  188.4420  177.6570  137.0490 C   0  0  0  0  0  2  0  0  0  0  0  0
  187.1750  177.3510  136.2730 C   0  0  0  0  0  2  0  0  0  0  0  0
  186.3030  176.5980  137.0630 O   0  0  0  0  0  1  0  0  0  0  0  0
  1  2  1  0  0  0  0
  2 22  1  6  0  0  0
  2 11  1  0  0  0  0
  3 28  1  6  0  0  0
  3  1  1  0  0  0  0
  3  2  1  0  0  0  0
  4  9  1  1  0  0  0
  4 10  1  0  0  0  0
  5 13  2  0  0  0  0
  6 12  1  0  0  0  0
  7 13  1  0  0  0  0
  9  7  2  0  0  0  0
 10  5  1  0  0  0  0
 11  6  1  1  0  0  0
 11 15  1  0  0  0  0
 12  9  1  0  0  0  0
 13 17  1  0  0  0  0
 14 10  2  0  0  0  0
 15  8  1  1  0  0  0
 15  4  1  0  0  0  0
 17 16  1  0  0  0  0
 19 21  1  0  0  0  0
 19 27  1  0  0  0  0
 20 19  2  0  0  0  0
 21 22  1  0  0  0  0
 22 18  2  0  0  0  0
 23 21  2  0  0  0  0
 24 25  1  0  0  0  0
 25 26  2  0  0  0  0
 25 20  1  0  0  0  0
 26 23  1  0  0  0  0
 27 18  1  0  0  0  0
 29 28  1  0  0  0  0
 29 30  1  0  0  0  0
M  END
>  <MODEL>
3

>  <REMARK>
 VINA RESULT:      -8.2      4.801      6.281
  Name = 
  5 active torsions:
  status: ('A' for Active; 'I' for Inactive)
    1  A    between atoms: O_13  and  C_20
    2  A    between atoms: N_15  and  C_22
    3  A    between atoms: C_16  and  C_22
    4  A    between atoms: C_24  and  C_27
    5  A    between atoms: C_25  and  C_27
                            x       y       z     vdW  Elec       q    Type
                         _______ _______ _______ _____ _____    ______ ____

>  <TORSDO>
F 5

$$$$
=
 OpenBabel11032419133D

 30 34  0  0  1  0  0  0  0  0999 V2000
  179.4310  177.4620  141.5810 C   0  0  0  0  0  2  0  0  0  0  0  0
  180.5510  178.3060  140.9860 C   0  0  2  0  0  0  0  0  0  0  0  0
  179.9630  177.1320  140.1910 C   0  0  2  0  0  3  0  0  0  0  0  0
  184.1920  179.0450  140.8950 C   0  0  1  0  0  3  0  0  0  0  0  0
  186.6810  178.7110  140.4550 N   0  0  0  0  0  0  0  0  0  0  0  0
  182.1210  179.0100  142.6620 C   0  0  0  0  0  2  0  0  0  0  0  0
  185.8150  178.5000  142.6970 C   0  0  0  0  0  3  0  0  0  0  0  0
  183.4050  176.7550  140.1250 C   0  0  0  0  0  1  0  0  0  0  0  0
  184.5600  178.7620  142.3290 C   0  0  0  0  0  0  0  0  0  0  0  0
  185.3640  178.9670  139.9480 C   0  0  0  0  0  0  0  0  0  0  0  0
  181.9160  178.1050  141.5160 N   0  0  2  0  0  0  0  0  0  0  0  0
  183.4620  178.7310  143.3430 C   0  0  0  0  0  2  0  0  0  0  0  0
  186.9200  178.4900  141.7130 C   0  0  0  0  0  0  0  0  0  0  0  0
  185.2080  179.2660  138.7020 N   0  0  0  0  0  2  0  0  0  0  0  0
  182.9830  178.1750  140.4820 C   0  0  1  0  0  3  0  0  0  0  0  0
  189.1670  177.5590  141.2800 C   0  0  0  0  0  1  0  0  0  0  0  0
  188.2330  178.2310  142.1120 O   0  0  0  0  0  0  0  0  0  0  0  0
  179.3180  180.5390  141.4390 C   0  0  0  0  0  3  0  0  0  0  0  0
  179.7700  181.6220  139.6540 C   0  0  0  0  0  0  0  0  0  0  0  0
  179.8140  182.5920  138.6540 C   0  0  0  0  0  3  0  0  0  0  0  0
  180.4340  180.4350  139.5370 C   0  0  0  0  0  0  0  0  0  0  0  0
  180.1650  179.7290  140.6860 C   0  0  0  0  0  0  0  0  0  0  0  0
  181.1770  180.1090  138.4030 C   0  0  0  0  0  3  0  0  0  0  0  0
  180.6310  183.2060  136.4960 F   0  0  0  0  0  0  0  0  0  0  0  0
  180.5620  182.2990  137.4980 C   0  0  0  0  0  0  0  0  0  0  0  0
  181.2360  181.0640  137.3730 C   0  0  0  0  0  3  0  0  0  0  0  0
  179.1170  181.6740  140.7890 O   0  0  0  0  0  0  0  0  0  0  0  0
  178.9310  177.5540  139.1510 C   0  0  0  0  0  2  0  0  0  0  0  0
  179.2900  176.9850  137.7920 C   0  0  0  0  0  2  0  0  0  0  0  0
  180.5650  176.4170  137.8340 O   0  0  0  0  0  1  0  0  0  0  0  0
  2 22  1  6  0  0  0
  2 11  1  0  0  0  0
  2  1  1  0  0  0  0
  3 28  1  6  0  0  0
  3  2  1  0  0  0  0
  3  1  1  0  0  0  0
  4 10  1  6  0  0  0
  4  9  1  0  0  0  0
  5 13  2  0  0  0  0
  6 12  1  0  0  0  0
  9  7  2  0  0  0  0
  9 12  1  0  0  0  0
 10  5  1  0  0  0  0
 11  6  1  1  0  0  0
 13 17  1  0  0  0  0
 13  7  1  0  0  0  0
 14 10  2  0  0  0  0
 15  8  1  1  0  0  0
 15  4  1  0  0  0  0
 15 11  1  0  0  0  0
 16 17  1  0  0  0  0
 19 27  1  0  0  0  0
 20 19  2  0  0  0  0
 21 19  1  0  0  0  0
 21 22  1  0  0  0  0
 22 18  2  0  0  0  0
 23 21  2  0  0  0  0
 24 25  1  0  0  0  0
 25 20  1  0  0  0  0
 26 25  2  0  0  0  0
 26 23  1  0  0  0  0
 27 18  1  0  0  0  0
 29 30  1  0  0  0  0
 29 28  1  0  0  0  0
M  END
>  <MODEL>
4

>  <REMARK>
 VINA RESULT:      -8.2      3.772      5.891
  Name = 
  5 active torsions:
  status: ('A' for Active; 'I' for Inactive)
    1  A    between atoms: O_13  and  C_20
    2  A    between atoms: N_15  and  C_22
    3  A    between atoms: C_16  and  C_22
    4  A    between atoms: C_24  and  C_27
    5  A    between atoms: C_25  and  C_27
                            x       y       z     vdW  Elec       q    Type
                         _______ _______ _______ _____ _____    ______ ____

>  <TORSDO>
F 5

$$$$
=
 OpenBabel11032419133D

 30 34  0  0  1  0  0  0  0  0999 V2000
  190.5710  175.5990  138.7410 C   0  0  0  0  0  2  0  0  0  0  0  0
  190.3960  177.1000  138.9400 C   0  0  2  0  0  0  0  0  0  0  0  0
  191.7030  176.5450  138.3560 C   0  0  2  0  0  3  0  0  0  0  0  0
  189.7860  176.7010  142.5840 C   0  0  1  0  0  3  0  0  0  0  0  0
  188.6990  177.0230  144.8680 N   0  0  0  0  0  0  0  0  0  0  0  0
  191.8110  177.3100  140.8690 C   0  0  0  0  0  2  0  0  0  0  0  0
  190.8040  178.0940  144.3730 C   0  0  0  0  0  3  0  0  0  0  0  0
  188.3680  178.3710  141.2980 C   0  0  0  0  0  1  0  0  0  0  0  0
  190.8650  177.5960  143.1370 C   0  0  0  0  0  0  0  0  0  0  0  0
  188.6490  176.4660  143.5470 C   0  0  0  0  0  0  0  0  0  0  0  0
  190.4790  177.6210  140.3210 N   0  0  2  0  0  0  0  0  0  0  0  0
  192.0020  177.9640  142.2390 C   0  0  0  0  0  2  0  0  0  0  0  0
  189.6750  177.7780  145.2760 C   0  0  0  0  0  0  0  0  0  0  0  0
  187.6950  175.6530  143.2340 N   0  0  0  0  0  2  0  0  0  0  0  0
  189.3460  177.2080  141.1920 C   0  0  1  0  0  3  0  0  0  0  0  0
  189.1880  177.5230  147.6850 C   0  0  0  0  0  1  0  0  0  0  0  0
  189.6300  178.2900  146.5740 O   0  0  0  0  0  0  0  0  0  0  0  0
  189.1980  179.0810  137.7790 C   0  0  0  0  0  3  0  0  0  0  0  0
  187.5110  178.0890  136.9210 C   0  0  0  0  0  0  0  0  0  0  0  0
  186.3100  177.8160  136.2680 C   0  0  0  0  0  3  0  0  0  0  0  0
  188.2490  177.1050  137.5150 C   0  0  0  0  0  0  0  0  0  0  0  0
  189.3480  177.7250  138.0620 C   0  0  0  0  0  0  0  0  0  0  0  0
  187.8370  175.7730  137.5260 C   0  0  0  0  0  3  0  0  0  0  0  0
  184.7050  176.1650  135.6370 F   0  0  0  0  0  0  0  0  0  0  0  0
  185.8680  176.4800  136.2530 C   0  0  0  0  0  0  0  0  0  0  0  0
  186.6260  175.4670  136.8810 C   0  0  0  0  0  3  0  0  0  0  0  0
  188.0880  179.2550  137.0790 O   0  0  0  0  0  0  0  0  0  0  0  0
  191.7810  176.6350  136.8360 C   0  0  0  0  0  2  0  0  0  0  0  0
  193.0550  175.9840  136.3340 C   0  0  0  0  0  2  0  0  0  0  0  0
  194.1660  176.6990  136.7860 O   0  0  0  0  0  1  0  0  0  0  0  0
  1  2  1  0  0  0  0
  2 22  1  6  0  0  0
  2 11  1  0  0  0  0
  3 28  1  6  0  0  0
  3  1  1  0  0  0  0
  3  2  1  0  0  0  0
  4  9  1  1  0  0  0
  4 10  1  0  0  0  0
  5 13  2  0  0  0  0
  6 12  1  0  0  0  0
  7 13  1  0  0  0  0
  9  7  2  0  0  0  0
 10  5  1  0  0  0  0
 11  6  1  1  0  0  0
 11 15  1  0  0  0  0
 12  9  1  0  0  0  0
 13 17  1  0  0  0  0
 14 10  2  0  0  0  0
 15  8  1  1  0  0  0
 15  4  1  0  0  0  0
 17 16  1  0  0  0  0
 18 22  2  0  0  0  0
 19 27  1  0  0  0  0
 19 21  1  0  0  0  0
 20 19  2  0  0  0  0
 21 23  2  0  0  0  0
 21 22  1  0  0  0  0
 24 25  1  0  0  0  0
 25 20  1  0  0  0  0
 25 26  2  0  0  0  0
 26 23  1  0  0  0  0
 27 18  1  0  0  0  0
 29 30  1  0  0  0  0
 29 28  1  0  0  0  0
M  END
>  <MODEL>
5

>  <REMARK>
 VINA RESULT:      -8.2      4.420      6.683
  Name = 
  5 active torsions:
  status: ('A' for Active; 'I' for Inactive)
    1  A    between atoms: O_13  and  C_20
    2  A    between atoms: N_15  and  C_22
    3  A    between atoms: C_16  and  C_22
    4  A    between atoms: C_24  and  C_27
    5  A    between atoms: C_25  and  C_27
                            x       y       z     vdW  Elec       q    Type
                         _______ _______ _______ _____ _____    ______ ____

>  <TORSDO>
F 5

$$$$
=
 OpenBabel11032419133D

 30 34  0  0  1  0  0  0  0  0999 V2000
  189.0080  178.7740  140.1860 C   0  0  0  0  0  2  0  0  0  0  0  0
  188.5730  178.0340  141.4450 C   0  0  2  0  0  0  0  0  0  0  0  0
  189.0770  177.2520  140.2240 C   0  0  2  0  0  3  0  0  0  0  0  0
  185.5790  179.0560  143.3950 C   0  0  1  0  0  3  0  0  0  0  0  0
  183.6750  178.9190  145.0860 N   0  0  0  0  0  0  0  0  0  0  0  0
  186.4070  178.8540  140.8090 C   0  0  0  0  0  2  0  0  0  0  0  0
  183.2200  178.6350  142.7330 C   0  0  0  0  0  3  0  0  0  0  0  0
  186.5010  176.7130  143.7370 C   0  0  0  0  0  1  0  0  0  0  0  0
  184.4960  178.8000  142.3790 C   0  0  0  0  0  0  0  0  0  0  0  0
  185.0760  179.0720  144.8170 C   0  0  0  0  0  0  0  0  0  0  0  0
  187.1230  177.9390  141.7160 N   0  0  2  0  0  0  0  0  0  0  0  0
  184.8930  178.6800  140.9420 C   0  0  0  0  0  2  0  0  0  0  0  0
  182.7980  178.7140  144.1490 C   0  0  0  0  0  0  0  0  0  0  0  0
  185.8820  179.3610  145.7840 N   0  0  0  0  0  2  0  0  0  0  0  0
  186.7650  178.0940  143.1510 C   0  0  1  0  0  3  0  0  0  0  0  0
  180.4010  178.6120  143.5600 C   0  0  0  0  0  1  0  0  0  0  0  0
  181.4570  178.5580  144.5080 O   0  0  0  0  0  0  0  0  0  0  0  0
  189.9050  179.5040  143.1100 C   0  0  0  0  0  3  0  0  0  0  0  0
  190.8930  178.0080  144.2720 C   0  0  0  0  0  0  0  0  0  0  0  0
  191.7120  177.3530  145.1900 C   0  0  0  0  0  3  0  0  0  0  0  0
  190.1070  177.3240  143.3900 C   0  0  0  0  0  0  0  0  0  0  0  0
  189.4520  178.2730  142.6410 C   0  0  0  0  0  0  0  0  0  0  0  0
  190.0920  175.9300  143.3370 C   0  0  0  0  0  3  0  0  0  0  0  0
  192.4980  175.2640  146.0380 F   0  0  0  0  0  0  0  0  0  0  0  0
  191.7150  175.9460  145.1700 C   0  0  0  0  0  0  0  0  0  0  0  0
  190.9120  175.2410  144.2460 C   0  0  0  0  0  3  0  0  0  0  0  0
  190.7600  179.3000  144.1000 O   0  0  0  0  0  0  0  0  0  0  0  0
  190.5360  176.8230  140.3320 C   0  0  0  0  0  2  0  0  0  0  0  0
  191.1120  176.5620  138.9540 C   0  0  0  0  0  2  0  0  0  0  0  0
  190.6790  175.3210  138.4830 O   0  0  0  0  0  1  0  0  0  0  0  0
  1  3  1  0  0  0  0
  1  2  1  0  0  0  0
  2 11  1  0  0  0  0
  2 22  1  1  0  0  0
  3 28  1  1  0  0  0
  3  2  1  0  0  0  0
  4  9  1  6  0  0  0
  4 10  1  0  0  0  0
  6 12  1  0  0  0  0
  7 13  1  0  0  0  0
  9  7  2  0  0  0  0
 10  5  1  0  0  0  0
 10 14  2  0  0  0  0
 11  6  1  6  0  0  0
 11 15  1  0  0  0  0
 12  9  1  0  0  0  0
 13 17  1  0  0  0  0
 13  5  2  0  0  0  0
 15  4  1  0  0  0  0
 15  8  1  6  0  0  0
 16 17  1  0  0  0  0
 18 27  1  0  0  0  0
 19 20  1  0  0  0  0
 21 19  2  0  0  0  0
 22 18  2  0  0  0  0
 22 21  1  0  0  0  0
 23 21  1  0  0  0  0
 23 26  2  0  0  0  0
 25 20  2  0  0  0  0
 25 24  1  0  0  0  0
 26 25  1  0  0  0  0
 27 19  1  0  0  0  0
 29 28  1  0  0  0  0
 30 29  1  0  0  0  0
M  END
>  <MODEL>
6

>  <REMARK>
 VINA RESULT:      -8.1      3.602      7.601
  Name = 
  5 active torsions:
  status: ('A' for Active; 'I' for Inactive)
    1  A    between atoms: O_13  and  C_20
    2  A    between atoms: N_15  and  C_22
    3  A    between atoms: C_16  and  C_22
    4  A    between atoms: C_24  and  C_27
    5  A    between atoms: C_25  and  C_27
                            x       y       z     vdW  Elec       q    Type
                         _______ _______ _______ _____ _____    ______ ____

>  <TORSDO>
F 5

$$$$
=
 OpenBabel11032419133D

 30 34  0  0  1  0  0  0  0  0999 V2000
  180.6170  180.0160  140.1930 C   0  0  0  0  0  2  0  0  0  0  0  0
  181.5050  179.1730  139.2860 C   0  0  2  0  0  0  0  0  0  0  0  0
  180.7600  180.3890  138.7210 C   0  0  2  0  0  3  0  0  0  0  0  0
  182.0820  175.5830  138.5150 C   0  0  1  0  0  3  0  0  0  0  0  0
  182.3840  173.4610  137.1340 N   0  0  0  0  0  0  0  0  0  0  0  0
  180.4620  177.1470  140.0450 C   0  0  0  0  0  2  0  0  0  0  0  0
  180.3070  173.8570  138.2980 C   0  0  0  0  0  3  0  0  0  0  0  0
  181.5760  177.1650  136.5920 C   0  0  0  0  0  1  0  0  0  0  0  0
  180.7130  175.0230  138.8020 C   0  0  0  0  0  0  0  0  0  0  0  0
  182.9040  174.7160  137.5930 C   0  0  0  0  0  0  0  0  0  0  0  0
  180.9940  177.8510  138.8650 N   0  0  2  0  0  0  0  0  0  0  0  0
  179.7800  175.8390  139.6390 C   0  0  0  0  0  2  0  0  0  0  0  0
  181.1930  173.0400  137.4390 C   0  0  0  0  0  0  0  0  0  0  0  0
  184.1270  175.0350  137.3280 N   0  0  0  0  0  2  0  0  0  0  0  0
  181.9610  177.0560  138.0620 C   0  0  1  0  0  3  0  0  0  0  0  0
  179.3930  171.4550  136.8430 C   0  0  0  0  0  1  0  0  0  0  0  0
  180.7650  171.8110  136.9300 O   0  0  0  0  0  0  0  0  0  0  0  0
  184.0220  179.4230  138.7230 C   0  0  0  0  0  3  0  0  0  0  0  0
  184.9060  179.0030  140.6220 C   0  0  0  0  0  0  0  0  0  0  0  0
  185.8180  178.7560  141.6460 C   0  0  0  0  0  3  0  0  0  0  0  0
  183.5580  178.9530  140.8300 C   0  0  0  0  0  0  0  0  0  0  0  0
  182.9710  179.2350  139.6190 C   0  0  0  0  0  0  0  0  0  0  0  0
  183.0100  178.6310  142.0710 C   0  0  0  0  0  3  0  0  0  0  0  0
  186.1450  178.1810  143.9400 F   0  0  0  0  0  0  0  0  0  0  0  0
  185.3000  178.4350  142.9140 C   0  0  0  0  0  0  0  0  0  0  0  0
  183.9050  178.3700  143.1230 C   0  0  0  0  0  3  0  0  0  0  0  0
  185.1680  179.2880  139.3700 O   0  0  0  0  0  0  0  0  0  0  0  0
  181.6260  181.6390  138.6060 C   0  0  0  0  0  2  0  0  0  0  0  0
  180.9940  182.6310  137.6500 C   0  0  0  0  0  2  0  0  0  0  0  0
  181.7630  183.7960  137.5940 O   0  0  0  0  0  1  0  0  0  0  0  0
  2 22  1  1  0  0  0
  2  1  1  0  0  0  0
  3 28  1  1  0  0  0
  3  2  1  0  0  0  0
  3  1  1  0  0  0  0
  4 10  1  6  0  0  0
  4  9  1  0  0  0  0
  5 13  2  0  0  0  0
  5 10  1  0  0  0  0
  7  9  2  0  0  0  0
  9 12  1  0  0  0  0
 11  2  1  0  0  0  0
 11  6  1  1  0  0  0
 12  6  1  0  0  0  0
 13  7  1  0  0  0  0
 14 10  2  0  0  0  0
 15  8  1  6  0  0  0
 15  4  1  0  0  0  0
 15 11  1  0  0  0  0
 16 17  1  0  0  0  0
 17 13  1  0  0  0  0
 18 27  1  0  0  0  0
 18 22  2  0  0  0  0
 19 21  2  0  0  0  0
 19 20  1  0  0  0  0
 20 25  2  0  0  0  0
 21 23  1  0  0  0  0
 22 21  1  0  0  0  0
 23 26  2  0  0  0  0
 25 26  1  0  0  0  0
 25 24  1  0  0  0  0
 27 19  1  0  0  0  0
 29 28  1  0  0  0  0
 30 29  1  0  0  0  0
M  END
>  <MODEL>
7

>  <REMARK>
 VINA RESULT:      -8.0      4.905      8.384
  Name = 
  5 active torsions:
  status: ('A' for Active; 'I' for Inactive)
    1  A    between atoms: O_13  and  C_20
    2  A    between atoms: N_15  and  C_22
    3  A    between atoms: C_16  and  C_22
    4  A    between atoms: C_24  and  C_27
    5  A    between atoms: C_25  and  C_27
                            x       y       z     vdW  Elec       q    Type
                         _______ _______ _______ _____ _____    ______ ____

>  <TORSDO>
F 5

$$$$
=
 OpenBabel11032419133D

 30 34  0  0  1  0  0  0  0  0999 V2000
  189.3140  178.6030  137.2300 C   0  0  0  0  0  2  0  0  0  0  0  0
  189.3300  177.4780  138.2580 C   0  0  2  0  0  0  0  0  0  0  0  0
  188.0350  178.2550  137.9840 C   0  0  2  0  0  3  0  0  0  0  0  0
  189.9790  176.5490  141.7970 C   0  0  1  0  0  3  0  0  0  0  0  0
  189.8340  176.6110  144.3420 N   0  0  0  0  0  0  0  0  0  0  0  0
  191.3460  177.1940  139.5330 C   0  0  0  0  0  2  0  0  0  0  0  0
  191.7810  177.4940  143.2240 C   0  0  0  0  0  3  0  0  0  0  0  0
  188.5070  178.5660  141.3290 C   0  0  0  0  0  1  0  0  0  0  0  0
  191.3190  177.2060  142.0060 C   0  0  0  0  0  0  0  0  0  0  0  0
  189.2290  176.2930  143.0810 C   0  0  0  0  0  0  0  0  0  0  0  0
  189.9790  177.7480  139.5580 N   0  0  2  0  0  0  0  0  0  0  0  0
  192.1140  177.5820  140.7970 C   0  0  0  0  0  2  0  0  0  0  0  0
  191.0050  177.1660  144.4400 C   0  0  0  0  0  0  0  0  0  0  0  0
  188.1030  175.6620  143.0560 N   0  0  0  0  0  2  0  0  0  0  0  0
  189.1720  177.3310  140.7350 C   0  0  1  0  0  3  0  0  0  0  0  0
  191.9080  176.4460  146.6240 C   0  0  0  0  0  1  0  0  0  0  0  0
  191.5060  177.4560  145.7110 O   0  0  0  0  0  0  0  0  0  0  0  0
  188.8670  174.9430  137.9890 C   0  0  0  0  0  3  0  0  0  0  0  0
  190.4800  174.3690  136.7110 C   0  0  0  0  0  0  0  0  0  0  0  0
  191.3830  173.6320  135.9470 C   0  0  0  0  0  3  0  0  0  0  0  0
  190.6030  175.7200  136.8670 C   0  0  0  0  0  0  0  0  0  0  0  0
  189.5630  176.1100  137.6770 C   0  0  0  0  0  0  0  0  0  0  0  0
  191.6490  176.4420  136.2930 C   0  0  0  0  0  3  0  0  0  0  0  0
  193.3540  173.6570  134.5990 F   0  0  0  0  0  0  0  0  0  0  0  0
  192.4480  174.3300  135.3460 C   0  0  0  0  0  0  0  0  0  0  0  0
  192.5800  175.7250  135.5220 C   0  0  0  0  0  3  0  0  0  0  0  0
  189.4440  173.9220  137.3760 O   0  0  0  0  0  0  0  0  0  0  0  0
  187.0800  177.5370  137.0360 C   0  0  0  0  0  2  0  0  0  0  0  0
  185.6460  177.7240  137.4930 C   0  0  0  0  0  2  0  0  0  0  0  0
  185.6080  178.5370  138.6280 O   0  0  0  0  0  1  0  0  0  0  0  0
  1  3  1  0  0  0  0
  1  2  1  0  0  0  0
  2 22  1  6  0  0  0
  2 11  1  0  0  0  0
  3 28  1  6  0  0  0
  3  2  1  0  0  0  0
  4  9  1  1  0  0  0
  4 10  1  0  0  0  0
  5 13  2  0  0  0  0
  6 12  1  0  0  0  0
  7 13  1  0  0  0  0
  9  7  2  0  0  0  0
 10  5  1  0  0  0  0
 11  6  1  6  0  0  0
 11 15  1  0  0  0  0
 12  9  1  0  0  0  0
 13 17  1  0  0  0  0
 14 10  2  0  0  0  0
 15  8  1  1  0  0  0
 15  4  1  0  0  0  0
 17 16  1  0  0  0  0
 19 21  1  0  0  0  0
 19 27  1  0  0  0  0
 20 19  2  0  0  0  0
 21 22  1  0  0  0  0
 22 18  2  0  0  0  0
 23 21  2  0  0  0  0
 24 25  1  0  0  0  0
 25 26  2  0  0  0  0
 25 20  1  0  0  0  0
 26 23  1  0  0  0  0
 27 18  1  0  0  0  0
 28 29  1  0  0  0  0
 29 30  1  0  0  0  0
M  END
>  <MODEL>
8

>  <REMARK>
 VINA RESULT:      -7.9      5.329      6.990
  Name = 
  5 active torsions:
  status: ('A' for Active; 'I' for Inactive)
    1  A    between atoms: O_13  and  C_20
    2  A    between atoms: N_15  and  C_22
    3  A    between atoms: C_16  and  C_22
    4  A    between atoms: C_24  and  C_27
    5  A    between atoms: C_25  and  C_27
                            x       y       z     vdW  Elec       q    Type
                         _______ _______ _______ _____ _____    ______ ____

>  <TORSDO>
F 5

$$$$
=
 OpenBabel11032419133D

 30 34  0  0  1  0  0  0  0  0999 V2000
  190.4550  178.2500  138.8730 C   0  0  0  0  0  2  0  0  0  0  0  0
  189.2830  177.2980  139.0830 C   0  0  2  0  0  0  0  0  0  0  0  0
  189.0620  178.6560  138.4030 C   0  0  2  0  0  3  0  0  0  0  0  0
  189.3060  178.2800  142.6670 C   0  0  1  0  0  3  0  0  0  0  0  0
  189.7280  178.1280  145.1770 N   0  0  0  0  0  0  0  0  0  0  0  0
  187.5660  178.0450  140.5870 C   0  0  0  0  0  2  0  0  0  0  0  0
  187.5050  177.7800  144.3060 C   0  0  0  0  0  3  0  0  0  0  0  0
  190.1640  175.9720  142.0420 C   0  0  0  0  0  1  0  0  0  0  0  0
  187.8790  177.9720  143.0400 C   0  0  0  0  0  0  0  0  0  0  0  0
  190.2410  178.3140  143.8510 C   0  0  0  0  0  0  0  0  0  0  0  0
  188.7440  177.1690  140.4540 N   0  0  2  0  0  0  0  0  0  0  0  0
  186.8790  177.8310  141.9370 C   0  0  0  0  0  2  0  0  0  0  0  0
  188.4760  177.8790  145.4180 C   0  0  0  0  0  0  0  0  0  0  0  0
  191.4780  178.6460  143.6870 N   0  0  0  0  0  2  0  0  0  0  0  0
  189.7630  177.3460  141.5230 C   0  0  1  0  0  3  0  0  0  0  0  0
  188.9090  177.1030  147.7240 C   0  0  0  0  0  1  0  0  0  0  0  0
  188.0710  177.6940  146.7420 O   0  0  0  0  0  0  0  0  0  0  0  0
  190.5250  175.3500  137.9110 C   0  0  0  0  0  3  0  0  0  0  0  0
  188.9020  174.3640  136.9320 C   0  0  0  0  0  0  0  0  0  0  0  0
  188.1410  173.5050  136.1420 C   0  0  0  0  0  3  0  0  0  0  0  0
  188.3350  175.3870  137.6370 C   0  0  0  0  0  0  0  0  0  0  0  0
  189.3650  176.0260  138.2860 C   0  0  0  0  0  0  0  0  0  0  0  0
  186.9660  175.6500  137.5920 C   0  0  0  0  0  3  0  0  0  0  0  0
  185.9730  172.9320  135.3210 F   0  0  0  0  0  0  0  0  0  0  0  0
  186.7540  173.7360  136.0800 C   0  0  0  0  0  0  0  0  0  0  0  0
  186.1720  174.8040  136.7980 C   0  0  0  0  0  3  0  0  0  0  0  0
  190.2000  174.3500  137.1080 O   0  0  0  0  0  0  0  0  0  0  0  0
  189.0080  178.5770  136.8820 C   0  0  0  0  0  2  0  0  0  0  0  0
  187.6200  178.9370  136.3850 C   0  0  0  0  0  2  0  0  0  0  0  0
  186.7320  179.0060  137.4600 O   0  0  0  0  0  1  0  0  0  0  0  0
  1  2  1  0  0  0  0
  2 22  1  6  0  0  0
  2 11  1  0  0  0  0
  3 28  1  6  0  0  0
  3  1  1  0  0  0  0
  3  2  1  0  0  0  0
  4  9  1  1  0  0  0
  4 10  1  0  0  0  0
  5 13  2  0  0  0  0
  6 12  1  0  0  0  0
  7 13  1  0  0  0  0
  9  7  2  0  0  0  0
 10  5  1  0  0  0  0
 11  6  1  1  0  0  0
 11 15  1  0  0  0  0
 12  9  1  0  0  0  0
 13 17  1  0  0  0  0
 14 10  2  0  0  0  0
 15  8  1  1  0  0  0
 15  4  1  0  0  0  0
 17 16  1  0  0  0  0
 18 22  2  0  0  0  0
 19 27  1  0  0  0  0
 19 21  1  0  0  0  0
 20 19  2  0  0  0  0
 21 22  1  0  0  0  0
 23 21  2  0  0  0  0
 24 25  1  0  0  0  0
 25 20  1  0  0  0  0
 25 26  2  0  0  0  0
 26 23  1  0  0  0  0
 27 18  1  0  0  0  0
 29 28  1  0  0  0  0
 29 30  1  0  0  0  0
M  END
>  <MODEL>
9

>  <REMARK>
 VINA RESULT:      -7.6      4.080      5.780
  Name = 
  5 active torsions:
  status: ('A' for Active; 'I' for Inactive)
    1  A    between atoms: O_13  and  C_20
    2  A    between atoms: N_15  and  C_22
    3  A    between atoms: C_16  and  C_22
    4  A    between atoms: C_24  and  C_27
    5  A    between atoms: C_25  and  C_27
                            x       y       z     vdW  Elec       q    Type
                         _______ _______ _______ _____ _____    ______ ____

>  <TORSDO>
F 5

$$$$
