=
 OpenBabel11032420203D

 32 35  0  0  0  0  0  0  0  0999 V2000
  187.7130  177.2000  148.1290 O   0  0  0  0  0  0  0  0  0  0  0  0
  191.6020  176.3280  147.1450 C   0  0  0  0  0  0  0  0  0  0  0  0
  192.4690  175.9340  148.1540 O   0  0  0  0  0  1  0  0  0  0  0  0
  185.9330  178.7550  146.7060 C   0  0  0  0  0  3  0  0  0  0  0  0
  184.8520  179.2880  146.0110 C   0  0  0  0  0  3  0  0  0  0  0  0
  184.6840  179.0200  144.6480 C   0  0  0  0  0  0  0  0  0  0  0  0
  190.2780  176.6490  147.4480 C   0  0  0  0  0  3  0  0  0  0  0  0
  189.3690  177.0560  146.4520 C   0  0  0  0  0  0  0  0  0  0  0  0
  192.0500  176.4080  145.8300 C   0  0  0  0  0  3  0  0  0  0  0  0
  186.7100  177.6560  144.6950 C   0  0  0  0  0  0  0  0  0  0  0  0
  185.6170  178.2050  143.9860 C   0  0  0  0  0  0  0  0  0  0  0  0
  191.1740  176.8070  144.8220 C   0  0  0  0  0  3  0  0  0  0  0  0
  186.8830  177.9460  146.0670 C   0  0  0  0  0  0  0  0  0  0  0  0
  189.0080  177.5410  143.9520 C   0  0  0  0  0  2  0  0  0  0  0  0
  187.9780  177.3840  146.9090 C   0  0  0  0  0  0  0  0  0  0  0  0
  189.8430  177.1270  145.1120 C   0  0  0  0  0  0  0  0  0  0  0  0
  187.6930  176.8040  143.9730 C   0  0  0  0  0  2  0  0  0  0  0  0
  185.4160  177.9000  142.5310 C   0  0  0  0  0  2  0  0  0  0  0  0
  186.3600  178.7050  141.7030 C   0  0  0  0  0  3  0  0  0  0  0  0
  187.1420  178.1060  140.8120 C   0  0  0  0  0  3  0  0  0  0  0  0
  188.0860  178.9150  139.9880 C   0  0  0  0  0  2  0  0  0  0  0  0
  189.3540  177.9070  138.0820 C   0  0  0  0  0  3  0  0  0  0  0  0
  190.3670  177.0800  137.5870 C   0  0  0  0  0  3  0  0  0  0  0  0
  191.2060  176.3940  138.4720 C   0  0  0  0  0  3  0  0  0  0  0  0
  191.0290  176.5340  139.8520 C   0  0  0  0  0  3  0  0  0  0  0  0
  189.1790  178.0510  139.4630 C   0  0  0  0  0  0  0  0  0  0  0  0
  190.0140  177.3590  140.3470 C   0  0  0  0  0  3  0  0  0  0  0  0
  183.6020  179.5550  143.9350 O   0  0  0  0  0  0  0  0  0  0  0  0
  182.2900  179.0000  143.9660 C   0  0  0  0  0  2  0  0  0  0  0  0
  181.7000  178.9540  142.5670 C   0  0  0  0  0  2  0  0  0  0  0  0
  180.0720  178.4330  143.9610 C   0  0  0  0  0  1  0  0  0  0  0  0
  180.4160  178.4100  142.6110 O   0  0  0  0  0  0  0  0  0  0  0  0
  2  7  1  0  0  0  0
  2  3  1  0  0  0  0
  5  4  2  0  0  0  0
  6  5  1  0  0  0  0
  8 15  1  0  0  0  0
  8  7  2  0  0  0  0
  9  2  2  0  0  0  0
 10 13  2  0  0  0  0
 11  6  2  0  0  0  0
 11 10  1  0  0  0  0
 12 16  2  0  0  0  0
 12  9  1  0  0  0  0
 13  4  1  0  0  0  0
 13 15  1  0  0  0  0
 14 17  1  0  0  0  0
 14 16  1  0  0  0  0
 15  1  2  0  0  0  0
 16  8  1  0  0  0  0
 17 10  1  0  0  0  0
 18 11  1  0  0  0  0
 19 18  1  0  0  0  0
 20 19  2  0  0  0  0
 21 20  1  0  0  0  0
 22 26  1  0  0  0  0
 23 22  2  0  0  0  0
 23 24  1  0  0  0  0
 24 25  2  0  0  0  0
 25 27  1  0  0  0  0
 26 21  1  0  0  0  0
 26 27  2  0  0  0  0
 28 29  1  0  0  0  0
 28  6  1  0  0  0  0
 30 32  1  0  0  0  0
 30 29  1  0  0  0  0
 32 31  1  0  0  0  0
M  END
>  <MODEL>
1

>  <REMARK>
 VINA RESULT:      -9.3      0.000      0.000
  Name = 
  8 active torsions:
  status: ('A' for Active; 'I' for Inactive)
    1  A    between atoms: C_4  and  C_14
    2  A    between atoms: C_4  and  C_31
    3  A    between atoms: C_12  and  O_28
    4  A    between atoms: C_15  and  C_20
    5  A    between atoms: C_18  and  O_19
    6  A    between atoms: C_18  and  C_25
    7  A    between atoms: C_20  and  C_22
    8  A    between atoms: C_25  and  O_28
                            x       y       z     vdW  Elec       q    Type
                         _______ _______ _______ _____ _____    ______ ____

>  <TORSDO>
F 8

$$$$
=
 OpenBabel11032420203D

 32 35  0  0  0  0  0  0  0  0999 V2000
  185.8960  178.5610  146.9730 O   0  0  0  0  0  0  0  0  0  0  0  0
  183.3920  178.6730  143.7220 C   0  0  0  0  0  0  0  0  0  0  0  0
  182.0520  178.9740  143.9270 O   0  0  0  0  0  1  0  0  0  0  0  0
  188.3160  177.2540  147.1790 C   0  0  0  0  0  3  0  0  0  0  0  0
  189.6410  176.8750  147.3710 C   0  0  0  0  0  3  0  0  0  0  0  0
  190.5900  177.0800  146.3630 C   0  0  0  0  0  0  0  0  0  0  0  0
  184.2660  178.6090  144.8080 C   0  0  0  0  0  3  0  0  0  0  0  0
  185.6310  178.3050  144.6400 C   0  0  0  0  0  0  0  0  0  0  0  0
  183.8650  178.4320  142.4360 C   0  0  0  0  0  3  0  0  0  0  0  0
  188.8490  178.0670  144.9630 C   0  0  0  0  0  0  0  0  0  0  0  0
  190.1940  177.6740  145.1540 C   0  0  0  0  0  0  0  0  0  0  0  0
  185.2110  178.1280  142.2390 C   0  0  0  0  0  3  0  0  0  0  0  0
  187.8930  177.8410  145.9780 C   0  0  0  0  0  0  0  0  0  0  0  0
  187.5090  177.7300  142.9790 C   0  0  0  0  0  2  0  0  0  0  0  0
  186.4630  178.2560  145.8880 C   0  0  0  0  0  0  0  0  0  0  0  0
  186.0990  178.0660  143.3180 C   0  0  0  0  0  0  0  0  0  0  0  0
  188.4480  178.6860  143.6710 C   0  0  0  0  0  2  0  0  0  0  0  0
  191.2220  177.9150  144.0890 C   0  0  0  0  0  2  0  0  0  0  0  0
  191.0210  176.9630  142.9580 C   0  0  0  0  0  3  0  0  0  0  0  0
  191.0650  177.3990  141.7040 C   0  0  0  0  0  3  0  0  0  0  0  0
  190.8630  176.4430  140.5770 C   0  0  0  0  0  2  0  0  0  0  0  0
  190.4180  177.0780  138.1990 C   0  0  0  0  0  3  0  0  0  0  0  0
  189.6150  177.6720  137.2200 C   0  0  0  0  0  3  0  0  0  0  0  0
  188.3920  178.2490  137.5740 C   0  0  0  0  0  3  0  0  0  0  0  0
  187.9720  178.2330  138.9080 C   0  0  0  0  0  3  0  0  0  0  0  0
  189.9970  177.0570  139.5330 C   0  0  0  0  0  0  0  0  0  0  0  0
  188.7750  177.6400  139.8870 C   0  0  0  0  0  3  0  0  0  0  0  0
  191.9270  176.6980  146.5430 O   0  0  0  0  0  0  0  0  0  0  0  0
  192.3170  175.4510  147.1110 C   0  0  0  0  0  2  0  0  0  0  0  0
  192.9180  175.6620  148.4910 C   0  0  0  0  0  2  0  0  0  0  0  0
  193.6440  177.1280  149.9710 C   0  0  0  0  0  1  0  0  0  0  0  0
  192.8320  177.0080  148.8450 O   0  0  0  0  0  0  0  0  0  0  0  0
  2  3  1  0  0  0  0
  2  7  1  0  0  0  0
  4  5  1  0  0  0  0
  6 28  1  0  0  0  0
  6  5  2  0  0  0  0
  8  7  2  0  0  0  0
  8 15  1  0  0  0  0
  9  2  2  0  0  0  0
 10 11  2  0  0  0  0
 10 13  1  0  0  0  0
 11  6  1  0  0  0  0
 12  9  1  0  0  0  0
 12 16  2  0  0  0  0
 13  4  2  0  0  0  0
 14 16  1  0  0  0  0
 14 17  1  0  0  0  0
 15 13  1  0  0  0  0
 15  1  2  0  0  0  0
 16  8  1  0  0  0  0
 17 10  1  0  0  0  0
 18 11  1  0  0  0  0
 19 18  1  0  0  0  0
 20 19  2  0  0  0  0
 21 20  1  0  0  0  0
 22 26  1  0  0  0  0
 23 24  1  0  0  0  0
 23 22  2  0  0  0  0
 24 25  2  0  0  0  0
 25 27  1  0  0  0  0
 26 27  2  0  0  0  0
 26 21  1  0  0  0  0
 28 29  1  0  0  0  0
 29 30  1  0  0  0  0
 30 32  1  0  0  0  0
 32 31  1  0  0  0  0
M  END
>  <MODEL>
2

>  <REMARK>
 VINA RESULT:      -9.2      1.385      6.798
  Name = 
  8 active torsions:
  status: ('A' for Active; 'I' for Inactive)
    1  A    between atoms: C_4  and  C_14
    2  A    between atoms: C_4  and  C_31
    3  A    between atoms: C_12  and  O_28
    4  A    between atoms: C_15  and  C_20
    5  A    between atoms: C_18  and  O_19
    6  A    between atoms: C_18  and  C_25
    7  A    between atoms: C_20  and  C_22
    8  A    between atoms: C_25  and  O_28
                            x       y       z     vdW  Elec       q    Type
                         _______ _______ _______ _____ _____    ______ ____

>  <TORSDO>
F 8

$$$$
=
 OpenBabel11032420203D

 32 35  0  0  0  0  0  0  0  0999 V2000
  191.7840  177.1440  140.6550 O   0  0  0  0  0  0  0  0  0  0  0  0
  189.0160  177.9360  137.7290 C   0  0  0  0  0  0  0  0  0  0  0  0
  189.4270  177.9110  136.4040 O   0  0  0  0  0  1  0  0  0  0  0  0
  191.6630  177.8660  143.3150 C   0  0  0  0  0  3  0  0  0  0  0  0
  191.6500  177.9260  144.7050 C   0  0  0  0  0  3  0  0  0  0  0  0
  190.4810  177.6330  145.4160 C   0  0  0  0  0  0  0  0  0  0  0  0
  189.9360  177.6890  138.7490 C   0  0  0  0  0  3  0  0  0  0  0  0
  189.5570  177.7080  140.1050 C   0  0  0  0  0  0  0  0  0  0  0  0
  187.6890  178.2100  138.0440 C   0  0  0  0  0  3  0  0  0  0  0  0
  189.3350  177.2060  143.3020 C   0  0  0  0  0  0  0  0  0  0  0  0
  189.3180  177.2760  144.7140 C   0  0  0  0  0  0  0  0  0  0  0  0
  187.2850  178.2350  139.3780 C   0  0  0  0  0  3  0  0  0  0  0  0
  190.5140  177.5200  142.5900 C   0  0  0  0  0  0  0  0  0  0  0  0
  187.6430  178.0420  141.7910 C   0  0  0  0  0  2  0  0  0  0  0  0
  190.6420  177.4380  141.1060 C   0  0  0  0  0  0  0  0  0  0  0  0
  188.1950  177.9840  140.4100 C   0  0  0  0  0  0  0  0  0  0  0  0
  188.0900  176.8360  142.5770 C   0  0  0  0  0  2  0  0  0  0  0  0
  188.0770  176.9380  145.4840 C   0  0  0  0  0  2  0  0  0  0  0  0
  187.1260  178.0860  145.4540 C   0  0  0  0  0  3  0  0  0  0  0  0
  185.8170  177.8670  145.3940 C   0  0  0  0  0  3  0  0  0  0  0  0
  184.8700  179.0200  145.3630 C   0  0  0  0  0  2  0  0  0  0  0  0
  182.5900  179.0460  144.3360 C   0  0  0  0  0  3  0  0  0  0  0  0
  181.7450  178.9290  143.2280 C   0  0  0  0  0  3  0  0  0  0  0  0
  182.2830  178.6770  141.9620 C   0  0  0  0  0  3  0  0  0  0  0  0
  183.6660  178.5400  141.8040 C   0  0  0  0  0  3  0  0  0  0  0  0
  183.9740  178.9150  144.1780 C   0  0  0  0  0  0  0  0  0  0  0  0
  184.5100  178.6560  142.9120 C   0  0  0  0  0  3  0  0  0  0  0  0
  190.4540  177.6950  146.8170 O   0  0  0  0  0  0  0  0  0  0  0  0
  191.1990  176.8170  147.6560 C   0  0  0  0  0  2  0  0  0  0  0  0
  191.9400  175.7860  146.8190 C   0  0  0  0  0  2  0  0  0  0  0  0
  192.9910  175.9660  148.7510 C   0  0  0  0  0  1  0  0  0  0  0  0
  193.0630  175.3330  147.5110 O   0  0  0  0  0  0  0  0  0  0  0  0
  1 15  2  0  0  0  0
  2  9  2  0  0  0  0
  2  7  1  0  0  0  0
  3  2  1  0  0  0  0
  4  5  1  0  0  0  0
  5  6  2  0  0  0  0
  6 28  1  0  0  0  0
  7  8  2  0  0  0  0
  8 16  1  0  0  0  0
  8 15  1  0  0  0  0
  9 12  1  0  0  0  0
 10 11  2  0  0  0  0
 11  6  1  0  0  0  0
 11 18  1  0  0  0  0
 12 16  2  0  0  0  0
 13 10  1  0  0  0  0
 13  4  2  0  0  0  0
 14 17  1  0  0  0  0
 15 13  1  0  0  0  0
 16 14  1  0  0  0  0
 17 10  1  0  0  0  0
 19 18  1  0  0  0  0
 20 19  2  0  0  0  0
 21 20  1  0  0  0  0
 23 22  2  0  0  0  0
 24 23  1  0  0  0  0
 25 24  2  0  0  0  0
 25 27  1  0  0  0  0
 26 22  1  0  0  0  0
 26 21  1  0  0  0  0
 27 26  2  0  0  0  0
 28 29  1  0  0  0  0
 30 32  1  0  0  0  0
 30 29  1  0  0  0  0
 32 31  1  0  0  0  0
M  END
>  <MODEL>
3

>  <REMARK>
 VINA RESULT:      -9.0      2.663      7.986
  Name = 
  8 active torsions:
  status: ('A' for Active; 'I' for Inactive)
    1  A    between atoms: C_4  and  C_14
    2  A    between atoms: C_4  and  C_31
    3  A    between atoms: C_12  and  O_28
    4  A    between atoms: C_15  and  C_20
    5  A    between atoms: C_18  and  O_19
    6  A    between atoms: C_18  and  C_25
    7  A    between atoms: C_20  and  C_22
    8  A    between atoms: C_25  and  O_28
                            x       y       z     vdW  Elec       q    Type
                         _______ _______ _______ _____ _____    ______ ____

>  <TORSDO>
F 8

$$$$
=
 OpenBabel11032420203D

 32 35  0  0  0  0  0  0  0  0999 V2000
  186.2050  178.5250  137.9520 O   0  0  0  0  0  0  0  0  0  0  0  0
  190.1020  177.3400  138.4620 C   0  0  0  0  0  0  0  0  0  0  0  0
  190.8900  177.1480  137.3350 O   0  0  0  0  0  1  0  0  0  0  0  0
  184.1200  178.2340  139.7340 C   0  0  0  0  0  3  0  0  0  0  0  0
  183.0340  178.3930  140.5900 C   0  0  0  0  0  3  0  0  0  0  0  0
  183.2280  178.8190  141.9080 C   0  0  0  0  0  0  0  0  0  0  0  0
  188.7690  177.7260  138.3230 C   0  0  0  0  0  3  0  0  0  0  0  0
  187.9380  177.9290  139.4430 C   0  0  0  0  0  0  0  0  0  0  0  0
  190.6400  177.1470  139.7310 C   0  0  0  0  0  3  0  0  0  0  0  0
  185.6310  178.9320  141.4900 C   0  0  0  0  0  0  0  0  0  0  0  0
  184.5300  179.0850  142.3630 C   0  0  0  0  0  0  0  0  0  0  0  0
  189.8430  177.3410  140.8570 C   0  0  0  0  0  3  0  0  0  0  0  0
  185.4300  178.4850  140.1650 C   0  0  0  0  0  0  0  0  0  0  0  0
  187.7580  177.9040  142.0080 C   0  0  0  0  0  2  0  0  0  0  0  0
  186.5200  178.3300  139.1600 C   0  0  0  0  0  0  0  0  0  0  0  0
  188.5050  177.7320  140.7330 C   0  0  0  0  0  0  0  0  0  0  0  0
  187.0040  179.2090  141.9940 C   0  0  0  0  0  2  0  0  0  0  0  0
  184.7280  179.5670  143.7690 C   0  0  0  0  0  2  0  0  0  0  0  0
  185.1720  178.4400  144.6390 C   0  0  0  0  0  3  0  0  0  0  0  0
  186.1650  178.6170  145.5030 C   0  0  0  0  0  3  0  0  0  0  0  0
  186.6070  177.4860  146.3700 C   0  0  0  0  0  2  0  0  0  0  0  0
  188.7450  177.4050  145.0740 C   0  0  0  0  0  3  0  0  0  0  0  0
  190.1330  177.2490  145.0120 C   0  0  0  0  0  3  0  0  0  0  0  0
  190.8660  177.0260  146.1820 C   0  0  0  0  0  3  0  0  0  0  0  0
  190.2090  176.9580  147.4150 C   0  0  0  0  0  3  0  0  0  0  0  0
  188.0880  177.3410  146.3080 C   0  0  0  0  0  0  0  0  0  0  0  0
  188.8220  177.1110  147.4770 C   0  0  0  0  0  3  0  0  0  0  0  0
  182.1420  178.9790  142.7820 O   0  0  0  0  0  0  0  0  0  0  0  0
  180.7960  178.6840  142.4220 C   0  0  0  0  0  2  0  0  0  0  0  0
  179.8330  179.5460  143.2210 C   0  0  0  0  0  2  0  0  0  0  0  0
  179.3820  180.8490  141.4980 C   0  0  0  0  0  1  0  0  0  0  0  0
  179.9100  180.8700  142.7880 O   0  0  0  0  0  0  0  0  0  0  0  0
  1 15  2  0  0  0  0
  2  9  1  0  0  0  0
  3  2  1  0  0  0  0
  4 13  2  0  0  0  0
  4  5  1  0  0  0  0
  5  6  2  0  0  0  0
  6 11  1  0  0  0  0
  6 28  1  0  0  0  0
  7  2  2  0  0  0  0
  7  8  1  0  0  0  0
  8 16  2  0  0  0  0
  9 12  2  0  0  0  0
 10 17  1  0  0  0  0
 10 11  2  0  0  0  0
 11 18  1  0  0  0  0
 13 10  1  0  0  0  0
 15  8  1  0  0  0  0
 15 13  1  0  0  0  0
 16 12  1  0  0  0  0
 16 14  1  0  0  0  0
 17 14  1  0  0  0  0
 18 19  1  0  0  0  0
 19 20  2  0  0  0  0
 20 21  1  0  0  0  0
 22 26  1  0  0  0  0
 23 22  2  0  0  0  0
 23 24  1  0  0  0  0
 24 25  2  0  0  0  0
 25 27  1  0  0  0  0
 26 21  1  0  0  0  0
 26 27  2  0  0  0  0
 29 28  1  0  0  0  0
 29 30  1  0  0  0  0
 31 32  1  0  0  0  0
 32 30  1  0  0  0  0
M  END
>  <MODEL>
4

>  <REMARK>
 VINA RESULT:      -8.8      2.674      6.103
  Name = 
  8 active torsions:
  status: ('A' for Active; 'I' for Inactive)
    1  A    between atoms: C_4  and  C_14
    2  A    between atoms: C_4  and  C_31
    3  A    between atoms: C_12  and  O_28
    4  A    between atoms: C_15  and  C_20
    5  A    between atoms: C_18  and  O_19
    6  A    between atoms: C_18  and  C_25
    7  A    between atoms: C_20  and  C_22
    8  A    between atoms: C_25  and  O_28
                            x       y       z     vdW  Elec       q    Type
                         _______ _______ _______ _____ _____    ______ ____

>  <TORSDO>
F 8

$$$$
=
 OpenBabel11032420203D

 32 35  0  0  0  0  0  0  0  0999 V2000
  185.3020  178.4300  140.8820 O   0  0  0  0  0  0  0  0  0  0  0  0
  183.5190  178.9230  144.5470 C   0  0  0  0  0  0  0  0  0  0  0  0
  182.1900  179.3210  144.5900 O   0  0  0  0  0  1  0  0  0  0  0  0
  188.0010  178.4760  140.3140 C   0  0  0  0  0  3  0  0  0  0  0  0
  189.3030  178.2230  139.8940 C   0  0  0  0  0  3  0  0  0  0  0  0
  190.1540  177.4260  140.6670 C   0  0  0  0  0  0  0  0  0  0  0  0
  184.1600  178.7640  143.3180 C   0  0  0  0  0  3  0  0  0  0  0  0
  185.5080  178.3640  143.2350 C   0  0  0  0  0  0  0  0  0  0  0  0
  184.2150  178.6850  145.7280 C   0  0  0  0  0  3  0  0  0  0  0  0
  188.3560  177.1310  142.2930 C   0  0  0  0  0  0  0  0  0  0  0  0
  189.6820  176.8810  141.8730 C   0  0  0  0  0  0  0  0  0  0  0  0
  185.5500  178.2880  145.6770 C   0  0  0  0  0  3  0  0  0  0  0  0
  187.5080  177.9510  141.5170 C   0  0  0  0  0  0  0  0  0  0  0  0
  187.6280  177.6960  144.5290 C   0  0  0  0  0  2  0  0  0  0  0  0
  186.0840  178.2400  141.8550 C   0  0  0  0  0  0  0  0  0  0  0  0
  186.2040  178.1200  144.4510 C   0  0  0  0  0  0  0  0  0  0  0  0
  187.8790  176.5530  143.5790 C   0  0  0  0  0  2  0  0  0  0  0  0
  190.5920  176.0060  142.6830 C   0  0  0  0  0  2  0  0  0  0  0  0
  191.0410  176.7280  143.9080 C   0  0  0  0  0  3  0  0  0  0  0  0
  191.0710  176.1000  145.0780 C   0  0  0  0  0  3  0  0  0  0  0  0
  191.5190  176.8270  146.3010 C   0  0  0  0  0  2  0  0  0  0  0  0
  189.1990  176.3610  147.1100 C   0  0  0  0  0  3  0  0  0  0  0  0
  188.0910  176.6800  147.9010 C   0  0  0  0  0  3  0  0  0  0  0  0
  188.1290  177.7990  148.7400 C   0  0  0  0  0  3  0  0  0  0  0  0
  189.2750  178.5980  148.7860 C   0  0  0  0  0  3  0  0  0  0  0  0
  190.3480  177.1570  147.1600 C   0  0  0  0  0  0  0  0  0  0  0  0
  190.3820  178.2800  147.9950 C   0  0  0  0  0  3  0  0  0  0  0  0
  191.4700  177.1680  140.2580 O   0  0  0  0  0  0  0  0  0  0  0  0
  191.8130  176.7370  138.9430 C   0  0  0  0  0  2  0  0  0  0  0  0
  193.3230  176.7040  138.7730 C   0  0  0  0  0  2  0  0  0  0  0  0
  194.0790  175.2820  137.2650 C   0  0  0  0  0  1  0  0  0  0  0  0
  193.6450  176.5980  137.4200 O   0  0  0  0  0  0  0  0  0  0  0  0
  1 15  2  0  0  0  0
  2  3  1  0  0  0  0
  2  9  1  0  0  0  0
  4 13  1  0  0  0  0
  5  4  2  0  0  0  0
  5  6  1  0  0  0  0
  6 11  2  0  0  0  0
  7  2  2  0  0  0  0
  8  7  1  0  0  0  0
  8 16  2  0  0  0  0
 10 17  1  0  0  0  0
 11 10  1  0  0  0  0
 11 18  1  0  0  0  0
 12  9  2  0  0  0  0
 13 15  1  0  0  0  0
 13 10  2  0  0  0  0
 15  8  1  0  0  0  0
 16 14  1  0  0  0  0
 16 12  1  0  0  0  0
 17 14  1  0  0  0  0
 18 19  1  0  0  0  0
 19 20  2  0  0  0  0
 20 21  1  0  0  0  0
 21 26  1  0  0  0  0
 22 26  2  0  0  0  0
 22 23  1  0  0  0  0
 23 24  2  0  0  0  0
 24 25  1  0  0  0  0
 26 27  1  0  0  0  0
 27 25  2  0  0  0  0
 28  6  1  0  0  0  0
 29 28  1  0  0  0  0
 30 29  1  0  0  0  0
 31 32  1  0  0  0  0
 32 30  1  0  0  0  0
M  END
>  <MODEL>
5

>  <REMARK>
 VINA RESULT:      -8.8      2.814      8.283
  Name = 
  8 active torsions:
  status: ('A' for Active; 'I' for Inactive)
    1  A    between atoms: C_4  and  C_14
    2  A    between atoms: C_4  and  C_31
    3  A    between atoms: C_12  and  O_28
    4  A    between atoms: C_15  and  C_20
    5  A    between atoms: C_18  and  O_19
    6  A    between atoms: C_18  and  C_25
    7  A    between atoms: C_20  and  C_22
    8  A    between atoms: C_25  and  O_28
                            x       y       z     vdW  Elec       q    Type
                         _______ _______ _______ _____ _____    ______ ____

>  <TORSDO>
F 8

$$$$
=
 OpenBabel11032420203D

 32 35  0  0  0  0  0  0  0  0999 V2000
  184.1220  178.8050  145.7350 O   0  0  0  0  0  0  0  0  0  0  0  0
  180.9200  179.0480  143.1780 C   0  0  0  0  0  0  0  0  0  0  0  0
  179.6590  179.2740  143.7130 O   0  0  0  0  0  1  0  0  0  0  0  0
  186.5550  177.5930  145.2620 C   0  0  0  0  0  3  0  0  0  0  0  0
  187.8970  177.2590  145.1070 C   0  0  0  0  0  3  0  0  0  0  0  0
  188.5760  177.5790  143.9270 C   0  0  0  0  0  0  0  0  0  0  0  0
  182.0270  178.9430  144.0200 C   0  0  0  0  0  3  0  0  0  0  0  0
  183.3210  178.7110  143.5150 C   0  0  0  0  0  0  0  0  0  0  0  0
  181.0820  178.9240  141.8010 C   0  0  0  0  0  3  0  0  0  0  0  0
  186.5300  178.5910  143.0580 C   0  0  0  0  0  0  0  0  0  0  0  0
  187.8900  178.2430  142.8960 C   0  0  0  0  0  0  0  0  0  0  0  0
  182.3510  178.6950  141.2720 C   0  0  0  0  0  3  0  0  0  0  0  0
  185.8460  178.2490  144.2450 C   0  0  0  0  0  0  0  0  0  0  0  0
  184.7680  178.3440  141.4200 C   0  0  0  0  0  2  0  0  0  0  0  0
  184.4250  178.6060  144.5250 C   0  0  0  0  0  0  0  0  0  0  0  0
  183.4700  178.5910  142.1050 C   0  0  0  0  0  0  0  0  0  0  0  0
  185.8190  179.2850  141.9500 C   0  0  0  0  0  2  0  0  0  0  0  0
  188.6320  178.6070  141.6440 C   0  0  0  0  0  2  0  0  0  0  0  0
  188.5230  177.5050  140.6450 C   0  0  0  0  0  3  0  0  0  0  0  0
  188.9630  177.6840  139.4050 C   0  0  0  0  0  3  0  0  0  0  0  0
  188.8510  176.5790  138.4090 C   0  0  0  0  0  2  0  0  0  0  0  0
  190.3220  174.7840  137.4750 C   0  0  0  0  0  3  0  0  0  0  0  0
  191.5880  174.2610  137.1970 C   0  0  0  0  0  3  0  0  0  0  0  0
  192.7350  174.9850  137.5400 C   0  0  0  0  0  3  0  0  0  0  0  0
  192.6140  176.2310  138.1630 C   0  0  0  0  0  3  0  0  0  0  0  0
  190.2000  176.0330  138.0940 C   0  0  0  0  0  0  0  0  0  0  0  0
  191.3480  176.7530  138.4430 C   0  0  0  0  0  3  0  0  0  0  0  0
  189.9260  177.2430  143.7570 O   0  0  0  0  0  0  0  0  0  0  0  0
  190.9550  177.6510  144.6550 C   0  0  0  0  0  2  0  0  0  0  0  0
  191.6190  176.4380  145.2860 C   0  0  0  0  0  2  0  0  0  0  0  0
  190.8950  176.7530  147.3460 C   0  0  0  0  0  1  0  0  0  0  0  0
  192.0550  176.7520  146.5730 O   0  0  0  0  0  0  0  0  0  0  0  0
  2  3  1  0  0  0  0
  2  7  1  0  0  0  0
  5  4  1  0  0  0  0
  6  5  2  0  0  0  0
  8  7  2  0  0  0  0
  8 15  1  0  0  0  0
  9  2  2  0  0  0  0
 10 13  1  0  0  0  0
 11 10  2  0  0  0  0
 11  6  1  0  0  0  0
 12  9  1  0  0  0  0
 12 16  2  0  0  0  0
 13 15  1  0  0  0  0
 13  4  2  0  0  0  0
 14 17  1  0  0  0  0
 14 16  1  0  0  0  0
 15  1  2  0  0  0  0
 16  8  1  0  0  0  0
 17 10  1  0  0  0  0
 18 11  1  0  0  0  0
 19 18  1  0  0  0  0
 20 19  2  0  0  0  0
 21 20  1  0  0  0  0
 22 26  1  0  0  0  0
 23 22  2  0  0  0  0
 23 24  1  0  0  0  0
 24 25  2  0  0  0  0
 25 27  1  0  0  0  0
 26 21  1  0  0  0  0
 26 27  2  0  0  0  0
 28  6  1  0  0  0  0
 28 29  1  0  0  0  0
 29 30  1  0  0  0  0
 30 32  1  0  0  0  0
 32 31  1  0  0  0  0
M  END
>  <MODEL>
6

>  <REMARK>
 VINA RESULT:      -8.6      1.594      6.803
  Name = 
  8 active torsions:
  status: ('A' for Active; 'I' for Inactive)
    1  A    between atoms: C_4  and  C_14
    2  A    between atoms: C_4  and  C_31
    3  A    between atoms: C_12  and  O_28
    4  A    between atoms: C_15  and  C_20
    5  A    between atoms: C_18  and  O_19
    6  A    between atoms: C_18  and  C_25
    7  A    between atoms: C_20  and  C_22
    8  A    between atoms: C_25  and  O_28
                            x       y       z     vdW  Elec       q    Type
                         _______ _______ _______ _____ _____    ______ ____

>  <TORSDO>
F 8

$$$$
=
 OpenBabel11032420203D

 32 35  0  0  0  0  0  0  0  0999 V2000
  184.1260  178.7460  145.7590 O   0  0  0  0  0  0  0  0  0  0  0  0
  181.0860  179.0060  143.0120 C   0  0  0  0  0  0  0  0  0  0  0  0
  179.7970  179.2380  143.4690 O   0  0  0  0  0  1  0  0  0  0  0  0
  186.5770  177.5230  145.4330 C   0  0  0  0  0  3  0  0  0  0  0  0
  187.9240  177.1820  145.3610 C   0  0  0  0  0  3  0  0  0  0  0  0
  188.6750  177.5010  144.2250 C   0  0  0  0  0  0  0  0  0  0  0  0
  182.1390  178.8940  143.9200 C   0  0  0  0  0  3  0  0  0  0  0  0
  183.4610  178.6570  143.4940 C   0  0  0  0  0  0  0  0  0  0  0  0
  181.3310  178.8820  141.6470 C   0  0  0  0  0  3  0  0  0  0  0  0
  186.6910  178.5230  143.2330 C   0  0  0  0  0  0  0  0  0  0  0  0
  188.0570  178.1690  143.1550 C   0  0  0  0  0  0  0  0  0  0  0  0
  182.6290  178.6480  141.1960 C   0  0  0  0  0  3  0  0  0  0  0  0
  185.9340  178.1820  144.3760 C   0  0  0  0  0  0  0  0  0  0  0  0
  185.0310  178.2850  141.4910 C   0  0  0  0  0  2  0  0  0  0  0  0
  184.5010  178.5460  144.5700 C   0  0  0  0  0  0  0  0  0  0  0  0
  183.6950  178.5380  142.0960 C   0  0  0  0  0  0  0  0  0  0  0  0
  186.0520  179.2210  142.0850 C   0  0  0  0  0  2  0  0  0  0  0  0
  188.8750  178.5310  141.9510 C   0  0  0  0  0  2  0  0  0  0  0  0
  188.7190  177.4910  140.8930 C   0  0  0  0  0  3  0  0  0  0  0  0
  189.0090  177.7760  139.6290 C   0  0  0  0  0  3  0  0  0  0  0  0
  188.8500  176.7330  138.5750 C   0  0  0  0  0  2  0  0  0  0  0  0
  186.7190  177.9750  138.1580 C   0  0  0  0  0  3  0  0  0  0  0  0
  185.4420  178.0590  137.5960 C   0  0  0  0  0  3  0  0  0  0  0  0
  184.9390  176.9960  136.8380 C   0  0  0  0  0  3  0  0  0  0  0  0
  185.7140  175.8490  136.6430 C   0  0  0  0  0  3  0  0  0  0  0  0
  187.4970  176.8290  137.9590 C   0  0  0  0  0  0  0  0  0  0  0  0
  186.9910  175.7640  137.2050 C   0  0  0  0  0  3  0  0  0  0  0  0
  190.0320  177.1590  144.1370 O   0  0  0  0  0  0  0  0  0  0  0  0
  191.0210  177.6350  145.0460 C   0  0  0  0  0  2  0  0  0  0  0  0
  191.6810  176.4720  145.7690 C   0  0  0  0  0  2  0  0  0  0  0  0
  192.3880  175.6340  147.6830 C   0  0  0  0  0  1  0  0  0  0  0  0
  191.6880  176.7110  147.1430 O   0  0  0  0  0  0  0  0  0  0  0  0
  2  3  1  0  0  0  0
  2  7  1  0  0  0  0
  5  4  1  0  0  0  0
  6  5  2  0  0  0  0
  8  7  2  0  0  0  0
  8 15  1  0  0  0  0
  9  2  2  0  0  0  0
 10 13  1  0  0  0  0
 11 10  2  0  0  0  0
 11  6  1  0  0  0  0
 12  9  1  0  0  0  0
 12 16  2  0  0  0  0
 13 15  1  0  0  0  0
 13  4  2  0  0  0  0
 14 17  1  0  0  0  0
 14 16  1  0  0  0  0
 15  1  2  0  0  0  0
 16  8  1  0  0  0  0
 17 10  1  0  0  0  0
 18 11  1  0  0  0  0
 19 18  1  0  0  0  0
 20 19  2  0  0  0  0
 21 20  1  0  0  0  0
 23 22  2  0  0  0  0
 24 23  1  0  0  0  0
 25 24  2  0  0  0  0
 25 27  1  0  0  0  0
 26 22  1  0  0  0  0
 26 21  1  0  0  0  0
 27 26  2  0  0  0  0
 28  6  1  0  0  0  0
 28 29  1  0  0  0  0
 29 30  1  0  0  0  0
 30 32  1  0  0  0  0
 32 31  1  0  0  0  0
M  END
>  <MODEL>
7

>  <REMARK>
 VINA RESULT:      -8.5      2.058      7.071
  Name = 
  8 active torsions:
  status: ('A' for Active; 'I' for Inactive)
    1  A    between atoms: C_4  and  C_14
    2  A    between atoms: C_4  and  C_31
    3  A    between atoms: C_12  and  O_28
    4  A    between atoms: C_15  and  C_20
    5  A    between atoms: C_18  and  O_19
    6  A    between atoms: C_18  and  C_25
    7  A    between atoms: C_20  and  C_22
    8  A    between atoms: C_25  and  O_28
                            x       y       z     vdW  Elec       q    Type
                         _______ _______ _______ _____ _____    ______ ____

>  <TORSDO>
F 8

$$$$
=
 OpenBabel11032420203D

 32 35  0  0  0  0  0  0  0  0999 V2000
  188.8440  177.7020  145.0220 O   0  0  0  0  0  0  0  0  0  0  0  0
  184.9130  178.4580  145.9320 C   0  0  0  0  0  0  0  0  0  0  0  0
  184.5500  178.5650  147.2680 O   0  0  0  0  0  1  0  0  0  0  0  0
  189.8450  176.6220  142.6900 C   0  0  0  0  0  3  0  0  0  0  0  0
  190.5300  176.3310  141.5140 C   0  0  0  0  0  3  0  0  0  0  0  0
  190.1220  176.8900  140.2990 C   0  0  0  0  0  0  0  0  0  0  0  0
  186.2370  178.1840  145.5890 C   0  0  0  0  0  3  0  0  0  0  0  0
  186.6430  178.0660  144.2460 C   0  0  0  0  0  0  0  0  0  0  0  0
  183.9580  178.6210  144.9340 C   0  0  0  0  0  3  0  0  0  0  0  0
  188.3220  178.0530  141.4710 C   0  0  0  0  0  0  0  0  0  0  0  0
  189.0120  177.7510  140.2750 C   0  0  0  0  0  0  0  0  0  0  0  0
  184.3300  178.5110  143.5950 C   0  0  0  0  0  3  0  0  0  0  0  0
  188.7290  177.4710  142.6910 C   0  0  0  0  0  0  0  0  0  0  0  0
  185.9250  178.1440  141.7770 C   0  0  0  0  0  2  0  0  0  0  0  0
  188.0920  177.7580  144.0090 C   0  0  0  0  0  0  0  0  0  0  0  0
  185.6550  178.2410  143.2370 C   0  0  0  0  0  0  0  0  0  0  0  0
  187.1430  178.9590  141.4220 C   0  0  0  0  0  2  0  0  0  0  0  0
  188.5970  178.3680  138.9720 C   0  0  0  0  0  2  0  0  0  0  0  0
  187.4100  177.6520  138.4220 C   0  0  0  0  0  3  0  0  0  0  0  0
  186.3730  178.3400  137.9560 C   0  0  0  0  0  3  0  0  0  0  0  0
  185.1880  177.6190  137.4080 C   0  0  0  0  0  2  0  0  0  0  0  0
  183.7410  178.8460  139.0380 C   0  0  0  0  0  3  0  0  0  0  0  0
  182.7040  178.8730  139.9750 C   0  0  0  0  0  3  0  0  0  0  0  0
  181.9950  177.7040  140.2680 C   0  0  0  0  0  3  0  0  0  0  0  0
  182.3250  176.5070  139.6250 C   0  0  0  0  0  3  0  0  0  0  0  0
  184.0690  177.6500  138.3900 C   0  0  0  0  0  0  0  0  0  0  0  0
  183.3630  176.4800  138.6890 C   0  0  0  0  0  3  0  0  0  0  0  0
  190.8010  176.6010  139.1070 O   0  0  0  0  0  0  0  0  0  0  0  0
  192.2120  176.7370  138.9540 C   0  0  0  0  0  2  0  0  0  0  0  0
  192.6600  176.1540  137.6240 C   0  0  0  0  0  2  0  0  0  0  0  0
  194.2070  176.1000  136.0520 C   0  0  0  0  0  1  0  0  0  0  0  0
  193.8030  176.8170  137.1780 O   0  0  0  0  0  0  0  0  0  0  0  0
  2  3  1  0  0  0  0
  4 13  1  0  0  0  0
  5  4  2  0  0  0  0
  6  5  1  0  0  0  0
  7  2  1  0  0  0  0
  8  7  2  0  0  0  0
  9  2  2  0  0  0  0
 10 13  2  0  0  0  0
 11  6  2  0  0  0  0
 11 10  1  0  0  0  0
 12  9  1  0  0  0  0
 13 15  1  0  0  0  0
 14 16  1  0  0  0  0
 15  8  1  0  0  0  0
 15  1  2  0  0  0  0
 16 12  2  0  0  0  0
 16  8  1  0  0  0  0
 17 10  1  0  0  0  0
 17 14  1  0  0  0  0
 18 11  1  0  0  0  0
 19 18  1  0  0  0  0
 20 19  2  0  0  0  0
 21 20  1  0  0  0  0
 21 26  1  0  0  0  0
 22 23  1  0  0  0  0
 23 24  2  0  0  0  0
 25 24  1  0  0  0  0
 26 27  1  0  0  0  0
 26 22  2  0  0  0  0
 27 25  2  0  0  0  0
 28  6  1  0  0  0  0
 29 28  1  0  0  0  0
 30 29  1  0  0  0  0
 31 32  1  0  0  0  0
 32 30  1  0  0  0  0
M  END
>  <MODEL>
8

>  <REMARK>
 VINA RESULT:      -8.4      3.423      7.496
  Name = 
  8 active torsions:
  status: ('A' for Active; 'I' for Inactive)
    1  A    between atoms: C_4  and  C_14
    2  A    between atoms: C_4  and  C_31
    3  A    between atoms: C_12  and  O_28
    4  A    between atoms: C_15  and  C_20
    5  A    between atoms: C_18  and  O_19
    6  A    between atoms: C_18  and  C_25
    7  A    between atoms: C_20  and  C_22
    8  A    between atoms: C_25  and  O_28
                            x       y       z     vdW  Elec       q    Type
                         _______ _______ _______ _____ _____    ______ ____

>  <TORSDO>
F 8

$$$$
=
 OpenBabel11032420203D

 32 35  0  0  0  0  0  0  0  0999 V2000
  187.1140  177.1660  146.8700 O   0  0  0  0  0  0  0  0  0  0  0  0
  191.0690  177.1800  145.7680 C   0  0  0  0  0  0  0  0  0  0  0  0
  192.0190  176.7920  146.7030 O   0  0  0  0  0  1  0  0  0  0  0  0
  185.0480  178.5800  145.7120 C   0  0  0  0  0  3  0  0  0  0  0  0
  183.8710  179.0130  145.1090 C   0  0  0  0  0  3  0  0  0  0  0  0
  183.7180  178.9400  143.7210 C   0  0  0  0  0  0  0  0  0  0  0  0
  189.7180  177.2030  146.1160 C   0  0  0  0  0  3  0  0  0  0  0  0
  188.7250  177.5930  145.1960 C   0  0  0  0  0  0  0  0  0  0  0  0
  191.4610  177.5470  144.4850 C   0  0  0  0  0  3  0  0  0  0  0  0
  185.9550  177.9750  143.5520 C   0  0  0  0  0  0  0  0  0  0  0  0
  184.7640  178.4230  142.9380 C   0  0  0  0  0  0  0  0  0  0  0  0
  190.5010  177.9370  143.5520 C   0  0  0  0  0  3  0  0  0  0  0  0
  186.1100  178.0690  144.9530 C   0  0  0  0  0  0  0  0  0  0  0  0
  188.2160  178.3970  142.8060 C   0  0  0  0  0  2  0  0  0  0  0  0
  187.3100  177.5870  145.6960 C   0  0  0  0  0  0  0  0  0  0  0  0
  189.1420  177.9610  143.8860 C   0  0  0  0  0  0  0  0  0  0  0  0
  187.0550  177.4410  142.7040 C   0  0  0  0  0  2  0  0  0  0  0  0
  184.5820  178.3230  141.4530 C   0  0  0  0  0  2  0  0  0  0  0  0
  183.3930  177.4780  141.1380 C   0  0  0  0  0  3  0  0  0  0  0  0
  182.9790  177.3530  139.8820 C   0  0  0  0  0  3  0  0  0  0  0  0
  181.7890  176.5070  139.5730 C   0  0  0  0  0  2  0  0  0  0  0  0
  183.4910  175.2760  138.2160 C   0  0  0  0  0  3  0  0  0  0  0  0
  183.8350  174.2880  137.2880 C   0  0  0  0  0  3  0  0  0  0  0  0
  182.8440  173.4680  136.7390 C   0  0  0  0  0  3  0  0  0  0  0  0
  181.5090  173.6370  137.1180 C   0  0  0  0  0  3  0  0  0  0  0  0
  182.1560  175.4420  138.5990 C   0  0  0  0  0  0  0  0  0  0  0  0
  181.1650  174.6250  138.0450 C   0  0  0  0  0  3  0  0  0  0  0  0
  182.5380  179.3770  143.1010 O   0  0  0  0  0  0  0  0  0  0  0  0
  181.2400  179.1710  143.6500 C   0  0  0  0  0  2  0  0  0  0  0  0
  180.3330  178.5040  142.6300 C   0  0  0  0  0  2  0  0  0  0  0  0
  179.0790  179.1300  144.3340 C   0  0  0  0  0  1  0  0  0  0  0  0
  179.0070  178.5700  143.0600 O   0  0  0  0  0  0  0  0  0  0  0  0
  2  7  1  0  0  0  0
  2  3  1  0  0  0  0
  5  4  1  0  0  0  0
  6  5  2  0  0  0  0
  8 15  1  0  0  0  0
  8  7  2  0  0  0  0
  9  2  2  0  0  0  0
 10 13  1  0  0  0  0
 11 10  2  0  0  0  0
 11  6  1  0  0  0  0
 12 16  2  0  0  0  0
 12  9  1  0  0  0  0
 13 15  1  0  0  0  0
 13  4  2  0  0  0  0
 14 16  1  0  0  0  0
 15  1  2  0  0  0  0
 16  8  1  0  0  0  0
 17 14  1  0  0  0  0
 17 10  1  0  0  0  0
 18 11  1  0  0  0  0
 19 18  1  0  0  0  0
 20 19  2  0  0  0  0
 21 20  1  0  0  0  0
 22 26  1  0  0  0  0
 23 22  2  0  0  0  0
 24 25  2  0  0  0  0
 24 23  1  0  0  0  0
 25 27  1  0  0  0  0
 26 21  1  0  0  0  0
 27 26  2  0  0  0  0
 28 29  1  0  0  0  0
 28  6  1  0  0  0  0
 30 32  1  0  0  0  0
 30 29  1  0  0  0  0
 32 31  1  0  0  0  0
M  END
>  <MODEL>
9

>  <REMARK>
 VINA RESULT:      -8.1      3.131      4.161
  Name = 
  8 active torsions:
  status: ('A' for Active; 'I' for Inactive)
    1  A    between atoms: C_4  and  C_14
    2  A    between atoms: C_4  and  C_31
    3  A    between atoms: C_12  and  O_28
    4  A    between atoms: C_15  and  C_20
    5  A    between atoms: C_18  and  O_19
    6  A    between atoms: C_18  and  C_25
    7  A    between atoms: C_20  and  C_22
    8  A    between atoms: C_25  and  O_28
                            x       y       z     vdW  Elec       q    Type
                         _______ _______ _______ _____ _____    ______ ____

>  <TORSDO>
F 8

$$$$
