=
 OpenBabel11032421213D

 43 50  0  0  1  0  0  0  0  0999 V2000
  183.6220  179.4600  139.0370 C   0  0  0  0  0  3  0  0  0  0  0  0
  189.7640  177.7760  141.7910 C   0  0  1  0  0  3  0  0  0  0  0  0
  190.3670  176.5810  141.0840 C   0  0  0  0  0  2  0  0  0  0  0  0
  185.3170  177.8500  143.3140 C   0  0  0  0  0  3  0  0  0  0  0  0
  185.8490  178.9590  139.9260 N   0  0  0  0  0  0  0  0  0  0  0  0
  190.0630  176.7930  139.6050 C   0  0  0  0  0  2  0  0  0  0  0  0
  186.6250  177.5230  143.7410 C   0  0  0  0  0  2  0  0  0  0  0  0
  188.7380  178.2730  140.8770 N   0  0  0  0  0  0  0  0  0  0  0  0
  189.0640  177.3760  143.0220 N   0  0  0  0  0  0  0  0  0  0  0  0
  181.7940  179.1190  140.6260 C   0  0  0  0  0  3  0  0  0  0  0  0
  188.8600  177.7270  139.5490 C   0  0  1  0  0  3  0  0  0  0  0  0
  187.6980  177.7360  142.8510 C   0  0  0  0  0  0  0  0  0  0  0  0
  184.5050  179.0630  140.0380 C   0  0  0  0  0  0  0  0  0  0  0  0
  185.1580  178.3560  142.0150 C   0  0  0  0  0  0  0  0  0  0  0  0
  187.5120  178.2370  141.5940 C   0  0  0  0  0  0  0  0  0  0  0  0
  184.0480  178.7000  141.2920 C   0  0  0  0  0  0  0  0  0  0  0  0
  182.6980  178.7180  141.6250 C   0  0  0  0  0  3  0  0  0  0  0  0
  186.2260  178.5290  141.1520 C   0  0  0  0  0  0  0  0  0  0  0  0
  182.2530  179.4880  139.3430 C   0  0  0  0  0  3  0  0  0  0  0  0
  189.7110  177.2210  144.2850 C   0  0  0  0  0  0  0  0  0  0  0  0
  190.9980  176.9410  146.7530 C   0  0  0  0  0  0  0  0  0  0  0  0
  191.6830  176.6380  145.5670 C   0  0  0  0  0  3  0  0  0  0  0  0
  191.0410  176.7790  144.3360 C   0  0  0  0  0  3  0  0  0  0  0  0
  189.0310  177.5310  145.4700 C   0  0  0  0  0  3  0  0  0  0  0  0
  189.6750  177.3920  146.7000 C   0  0  0  0  0  3  0  0  0  0  0  0
  191.6910  176.8180  148.0670 C   0  0  0  0  0  2  0  0  0  0  0  0
  192.6520  175.7230  148.0260 N   0  0  0  0  0  1  0  0  0  0  0  0
  189.0880  178.8530  138.5560 C   0  0  0  0  0  2  0  0  0  0  0  0
  188.8790  178.3860  137.1250 C   0  0  0  0  0  2  0  0  0  0  0  0
  187.1280  179.9220  136.5650 O   0  0  0  0  0  1  0  0  0  0  0  0
  187.4260  178.5630  136.6990 C   0  0  1  0  0  3  0  0  0  0  0  0
  187.1490  177.8530  135.3810 C   0  0  0  0  0  2  0  0  0  0  0  0
  186.3270  176.6690  135.5890 N   0  0  0  0  0  2  0  0  0  0  0  0
  182.6860  175.7790  139.7940 O   0  0  0  0  0  1  0  0  0  0  0  0
  182.2270  176.4210  136.3350 C   0  0  1  0  0  3  0  0  0  0  0  0
  180.9530  175.5720  138.1510 C   0  0  0  0  0  2  0  0  0  0  0  0
  184.0550  177.3310  134.9490 C   0  0  0  0  0  2  0  0  0  0  0  0
  183.1200  176.4030  137.5380 C   0  0  2  0  0  3  0  0  0  0  0  0
  180.8410  176.4670  136.9220 C   0  0  0  0  0  2  0  0  0  0  0  0
  185.0370  177.0900  136.1150 C   0  0  1  0  0  3  0  0  0  0  0  0
  182.6200  177.5870  135.4460 C   0  0  0  0  0  2  0  0  0  0  0  0
  184.5210  176.0180  137.0950 C   0  0  0  0  0  2  0  0  0  0  0  0
  182.4410  175.4220  138.4670 C   0  0  1  0  0  3  0  0  0  0  0  0
  1 19  2  0  0  0  0
  1 13  1  0  0  0  0
  2  3  1  6  0  0  0
  2  9  1  0  0  0  0
  4  7  1  0  0  0  0
  5 13  1  0  0  0  0
  5 18  2  0  0  0  0
  6  3  1  0  0  0  0
  8 15  1  0  0  0  0
  8  2  1  0  0  0  0
  9 20  1  0  0  0  0
 10 17  2  0  0  0  0
 11 28  1  6  0  0  0
 11  6  1  0  0  0  0
 11  8  1  0  0  0  0
 12  9  1  0  0  0  0
 12  7  1  0  0  0  0
 13 16  2  0  0  0  0
 14  4  2  0  0  0  0
 15 12  2  0  0  0  0
 16 17  1  0  0  0  0
 16 14  1  0  0  0  0
 18 15  1  0  0  0  0
 18 14  1  0  0  0  0
 19 10  1  0  0  0  0
 20 23  2  0  0  0  0
 20 24  1  0  0  0  0
 21 26  1  0  0  0  0
 22 21  2  0  0  0  0
 23 22  1  0  0  0  0
 24 25  2  0  0  0  0
 25 21  1  0  0  0  0
 27 26  1  0  0  0  0
 29 28  1  0  0  0  0
 31 30  1  6  0  0  0
 31 29  1  0  0  0  0
 32 33  1  0  0  0  0
 32 31  1  0  0  0  0
 35 41  1  6  0  0  0
 35 39  1  0  0  0  0
 35 38  1  0  0  0  0
 36 43  1  0  0  0  0
 37 41  1  0  0  0  0
 37 40  1  0  0  0  0
 38 42  1  6  0  0  0
 38 43  1  0  0  0  0
 39 36  1  0  0  0  0
 40 33  1  6  0  0  0
 40 42  1  0  0  0  0
 43 34  1  1  0  0  0
M  END
>  <MODEL>
1

>  <REMARK>
 VINA RESULT:      -9.7      0.000      0.000
  Name = 
  8 active torsions:
  status: ('A' for Active; 'I' for Inactive)
    1  A    between atoms: C_3  and  C_12
    2  A    between atoms: C_5  and  N_26
    3  A    between atoms: C_9  and  C_10
    4  A    between atoms: C_9  and  C_39
    5  A    between atoms: C_10  and  C_24
    6  A    between atoms: N_18  and  C_19
    7  A    between atoms: N_18  and  C_39
    8  A    between atoms: C_24  and  C_28
                            x       y       z     vdW  Elec       q    Type
                         _______ _______ _______ _____ _____    ______ ____

>  <TORSDO>
F 8

$$$$
=
 OpenBabel11032421213D

 43 50  0  0  1  0  0  0  0  0999 V2000
  183.5950  179.4660  139.1600 C   0  0  0  0  0  3  0  0  0  0  0  0
  189.7780  177.8090  141.8370 C   0  0  1  0  0  3  0  0  0  0  0  0
  190.3920  176.6360  141.1010 C   0  0  0  0  0  2  0  0  0  0  0  0
  185.3410  177.7910  143.3920 C   0  0  0  0  0  3  0  0  0  0  0  0
  185.8350  178.9760  140.0230 N   0  0  0  0  0  0  0  0  0  0  0  0
  190.0750  176.8750  139.6290 C   0  0  0  0  0  2  0  0  0  0  0  0
  186.6570  177.4730  143.8030 C   0  0  0  0  0  2  0  0  0  0  0  0
  188.7390  178.3110  140.9410 N   0  0  0  0  0  0  0  0  0  0  0  0
  189.0920  177.3740  143.0640 N   0  0  0  0  0  0  0  0  0  0  0  0
  181.7830  179.0680  140.7540 C   0  0  0  0  0  3  0  0  0  0  0  0
  188.8590  177.7930  139.6010 C   0  0  1  0  0  3  0  0  0  0  0  0
  187.7200  177.7180  142.9100 C   0  0  0  0  0  0  0  0  0  0  0  0
  184.4900  179.0600  140.1470 C   0  0  0  0  0  0  0  0  0  0  0  0
  185.1670  178.3210  142.1040 C   0  0  0  0  0  0  0  0  0  0  0  0
  187.5190  178.2430  141.6650 C   0  0  0  0  0  0  0  0  0  0  0  0
  184.0470  178.6660  141.3960 C   0  0  0  0  0  0  0  0  0  0  0  0
  182.7000  178.6580  141.7380 C   0  0  0  0  0  3  0  0  0  0  0  0
  186.2260  178.5270  141.2380 C   0  0  0  0  0  0  0  0  0  0  0  0
  182.2280  179.4690  139.4760 C   0  0  0  0  0  3  0  0  0  0  0  0
  189.7510  177.2020  144.3190 C   0  0  0  0  0  0  0  0  0  0  0  0
  191.0610  176.8860  146.7710 C   0  0  0  0  0  0  0  0  0  0  0  0
  191.6790  176.4590  145.5850 C   0  0  0  0  0  3  0  0  0  0  0  0
  191.0250  176.6180  144.3630 C   0  0  0  0  0  3  0  0  0  0  0  0
  189.1390  177.6340  145.5030 C   0  0  0  0  0  3  0  0  0  0  0  0
  189.7940  177.4780  146.7250 C   0  0  0  0  0  3  0  0  0  0  0  0
  191.7690  176.7420  148.0740 C   0  0  0  0  0  2  0  0  0  0  0  0
  192.8760  175.8040  147.9430 N   0  0  0  0  0  1  0  0  0  0  0  0
  189.0650  178.9420  138.6290 C   0  0  0  0  0  2  0  0  0  0  0  0
  188.8680  178.4980  137.1890 C   0  0  0  0  0  2  0  0  0  0  0  0
  187.1920  180.0460  136.4570 O   0  0  0  0  0  1  0  0  0  0  0  0
  187.4220  178.6980  136.7500 C   0  0  1  0  0  3  0  0  0  0  0  0
  187.0990  177.8530  135.5250 C   0  0  0  0  0  2  0  0  0  0  0  0
  188.0740  176.7840  135.3580 N   0  0  0  0  0  2  0  0  0  0  0  0
  182.9940  174.3750  135.0150 O   0  0  0  0  0  1  0  0  0  0  0  0
  185.7440  173.8450  137.1930 C   0  0  1  0  0  3  0  0  0  0  0  0
  183.4250  173.3350  137.1320 C   0  0  0  0  0  2  0  0  0  0  0  0
  187.9940  174.6960  136.6420 C   0  0  0  0  0  2  0  0  0  0  0  0
  185.1890  174.4380  135.9340 C   0  0  2  0  0  3  0  0  0  0  0  0
  184.7740  172.7430  137.5240 C   0  0  0  0  0  2  0  0  0  0  0  0
  187.3840  175.5070  135.4790 C   0  0  1  0  0  3  0  0  0  0  0  0
  187.1820  173.4240  136.9460 C   0  0  0  0  0  2  0  0  0  0  0  0
  185.8780  175.7670  135.6810 C   0  0  0  0  0  2  0  0  0  0  0  0
  183.7050  174.5210  136.2080 C   0  0  1  0  0  3  0  0  0  0  0  0
  1 19  2  0  0  0  0
  1 13  1  0  0  0  0
  2  3  1  6  0  0  0
  2  9  1  0  0  0  0
  4  7  1  0  0  0  0
  5 13  1  0  0  0  0
  5 18  2  0  0  0  0
  6  3  1  0  0  0  0
  8 15  1  0  0  0  0
  8  2  1  0  0  0  0
  9 20  1  0  0  0  0
 10 17  2  0  0  0  0
 11 28  1  6  0  0  0
 11  6  1  0  0  0  0
 11  8  1  0  0  0  0
 12  9  1  0  0  0  0
 12  7  1  0  0  0  0
 13 16  2  0  0  0  0
 14  4  2  0  0  0  0
 15 12  2  0  0  0  0
 16 17  1  0  0  0  0
 16 14  1  0  0  0  0
 18 15  1  0  0  0  0
 18 14  1  0  0  0  0
 19 10  1  0  0  0  0
 20 23  2  0  0  0  0
 20 24  1  0  0  0  0
 21 26  1  0  0  0  0
 22 21  2  0  0  0  0
 23 22  1  0  0  0  0
 24 25  2  0  0  0  0
 25 21  1  0  0  0  0
 27 26  1  0  0  0  0
 29 28  1  0  0  0  0
 31 30  1  6  0  0  0
 31 29  1  0  0  0  0
 32 31  1  0  0  0  0
 33 32  1  0  0  0  0
 35 41  1  6  0  0  0
 35 39  1  0  0  0  0
 36 39  1  0  0  0  0
 37 41  1  0  0  0  0
 38 42  1  1  0  0  0
 38 43  1  0  0  0  0
 38 35  1  0  0  0  0
 40 33  1  1  0  0  0
 40 42  1  0  0  0  0
 40 37  1  0  0  0  0
 43 34  1  6  0  0  0
 43 36  1  0  0  0  0
M  END
>  <MODEL>
2

>  <REMARK>
 VINA RESULT:      -9.6      1.490      2.082
  Name = 
  8 active torsions:
  status: ('A' for Active; 'I' for Inactive)
    1  A    between atoms: C_3  and  C_12
    2  A    between atoms: C_5  and  N_26
    3  A    between atoms: C_9  and  C_10
    4  A    between atoms: C_9  and  C_39
    5  A    between atoms: C_10  and  C_24
    6  A    between atoms: N_18  and  C_19
    7  A    between atoms: N_18  and  C_39
    8  A    between atoms: C_24  and  C_28
                            x       y       z     vdW  Elec       q    Type
                         _______ _______ _______ _____ _____    ______ ____

>  <TORSDO>
F 8

$$$$
=
 OpenBabel11032421213D

 43 50  0  0  1  0  0  0  0  0999 V2000
  183.5740  179.4600  139.1000 C   0  0  0  0  0  3  0  0  0  0  0  0
  189.7660  177.8270  141.7720 C   0  0  1  0  0  3  0  0  0  0  0  0
  190.3770  176.6470  141.0460 C   0  0  0  0  0  2  0  0  0  0  0  0
  185.3340  177.8270  143.3420 C   0  0  0  0  0  3  0  0  0  0  0  0
  185.8170  178.9780  139.9600 N   0  0  0  0  0  0  0  0  0  0  0  0
  190.0550  176.8710  139.5720 C   0  0  0  0  0  2  0  0  0  0  0  0
  186.6510  177.5130  143.7520 C   0  0  0  0  0  2  0  0  0  0  0  0
  188.7240  178.3210  140.8740 N   0  0  0  0  0  0  0  0  0  0  0  0
  189.0840  177.4060  143.0060 N   0  0  0  0  0  0  0  0  0  0  0  0
  181.7670  179.0790  140.7030 C   0  0  0  0  0  3  0  0  0  0  0  0
  188.8390  177.7900  139.5390 C   0  0  1  0  0  3  0  0  0  0  0  0
  187.7120  177.7490  142.8530 C   0  0  0  0  0  0  0  0  0  0  0  0
  184.4730  179.0640  140.0870 C   0  0  0  0  0  0  0  0  0  0  0  0
  185.1560  178.3450  142.0500 C   0  0  0  0  0  0  0  0  0  0  0  0
  187.5060  178.2610  141.6030 C   0  0  0  0  0  0  0  0  0  0  0  0
  184.0330  178.6820  141.3420 C   0  0  0  0  0  0  0  0  0  0  0  0
  182.6870  178.6790  141.6890 C   0  0  0  0  0  3  0  0  0  0  0  0
  186.2120  178.5410  141.1780 C   0  0  0  0  0  0  0  0  0  0  0  0
  182.2080  179.4670  139.4200 C   0  0  0  0  0  3  0  0  0  0  0  0
  189.7470  177.2460  144.2600 C   0  0  0  0  0  0  0  0  0  0  0  0
  191.0260  176.9090  146.7260 C   0  0  0  0  0  0  0  0  0  0  0  0
  189.7480  177.4860  146.6720 C   0  0  0  0  0  3  0  0  0  0  0  0
  189.1100  177.6520  145.4420 C   0  0  0  0  0  3  0  0  0  0  0  0
  191.0190  176.6630  144.3170 C   0  0  0  0  0  3  0  0  0  0  0  0
  191.6560  176.4940  145.5470 C   0  0  0  0  0  3  0  0  0  0  0  0
  191.6970  176.7050  148.0400 C   0  0  0  0  0  2  0  0  0  0  0  0
  192.8610  175.8430  147.8800 N   0  0  0  0  0  1  0  0  0  0  0  0
  189.0420  178.9290  138.5550 C   0  0  0  0  0  2  0  0  0  0  0  0
  188.7050  178.5070  137.1350 C   0  0  0  0  0  2  0  0  0  0  0  0
  186.3980  177.9900  136.7520 O   0  0  0  0  0  1  0  0  0  0  0  0
  187.6230  177.4330  137.1270 C   0  0  1  0  0  3  0  0  0  0  0  0
  187.9790  176.3030  136.1690 C   0  0  0  0  0  2  0  0  0  0  0  0
  189.3370  176.4570  135.6640 N   0  0  0  0  0  2  0  0  0  0  0  0
  194.2260  175.7380  138.3670 O   0  0  0  0  0  1  0  0  0  0  0  0
  192.5160  173.7680  135.9640 C   0  0  1  0  0  3  0  0  0  0  0  0
  194.7070  173.9340  136.8650 C   0  0  0  0  0  2  0  0  0  0  0  0
  190.1280  174.1450  135.4640 C   0  0  0  0  0  2  0  0  0  0  0  0
  192.5090  174.8960  136.9490 C   0  0  2  0  0  3  0  0  0  0  0  0
  193.6710  172.9120  136.4100 C   0  0  0  0  0  2  0  0  0  0  0  0
  190.1790  175.4480  136.2900 C   0  0  1  0  0  3  0  0  0  0  0  0
  191.1490  173.1060  135.9630 C   0  0  0  0  0  2  0  0  0  0  0  0
  191.6130  176.0000  136.4150 C   0  0  0  0  0  2  0  0  0  0  0  0
  193.9710  175.2560  137.0820 C   0  0  1  0  0  3  0  0  0  0  0  0
  1 19  2  0  0  0  0
  1 13  1  0  0  0  0
  2  3  1  6  0  0  0
  2  9  1  0  0  0  0
  4  7  1  0  0  0  0
  5 13  1  0  0  0  0
  5 18  2  0  0  0  0
  6  3  1  0  0  0  0
  8 15  1  0  0  0  0
  8  2  1  0  0  0  0
  9 20  1  0  0  0  0
 10 17  2  0  0  0  0
 11 28  1  6  0  0  0
 11  6  1  0  0  0  0
 11  8  1  0  0  0  0
 12  9  1  0  0  0  0
 12  7  1  0  0  0  0
 13 16  2  0  0  0  0
 14  4  2  0  0  0  0
 15 12  2  0  0  0  0
 16 17  1  0  0  0  0
 16 14  1  0  0  0  0
 18 15  1  0  0  0  0
 18 14  1  0  0  0  0
 19 10  1  0  0  0  0
 20 24  2  0  0  0  0
 20 23  1  0  0  0  0
 21 26  1  0  0  0  0
 22 21  1  0  0  0  0
 23 22  2  0  0  0  0
 24 25  1  0  0  0  0
 25 21  2  0  0  0  0
 27 26  1  0  0  0  0
 29 28  1  0  0  0  0
 31 30  1  6  0  0  0
 31 29  1  0  0  0  0
 32 31  1  0  0  0  0
 33 32  1  0  0  0  0
 35 41  1  1  0  0  0
 35 39  1  0  0  0  0
 35 38  1  0  0  0  0
 36 43  1  0  0  0  0
 37 41  1  0  0  0  0
 37 40  1  0  0  0  0
 38 42  1  6  0  0  0
 38 43  1  0  0  0  0
 39 36  1  0  0  0  0
 40 33  1  6  0  0  0
 40 42  1  0  0  0  0
 43 34  1  1  0  0  0
M  END
>  <MODEL>
3

>  <REMARK>
 VINA RESULT:      -9.5      2.681      5.075
  Name = 
  8 active torsions:
  status: ('A' for Active; 'I' for Inactive)
    1  A    between atoms: C_3  and  C_12
    2  A    between atoms: C_5  and  N_26
    3  A    between atoms: C_9  and  C_10
    4  A    between atoms: C_9  and  C_39
    5  A    between atoms: C_10  and  C_24
    6  A    between atoms: N_18  and  C_19
    7  A    between atoms: N_18  and  C_39
    8  A    between atoms: C_24  and  C_28
                            x       y       z     vdW  Elec       q    Type
                         _______ _______ _______ _____ _____    ______ ____

>  <TORSDO>
F 8

$$$$
=
 OpenBabel11032421213D

 43 50  0  0  1  0  0  0  0  0999 V2000
  192.0630  175.9110  145.6900 C   0  0  0  0  0  3  0  0  0  0  0  0
  186.6990  177.8970  141.7620 C   0  0  1  0  0  3  0  0  0  0  0  0
  187.0700  179.0810  140.8940 C   0  0  0  0  0  2  0  0  0  0  0  0
  187.5990  177.7470  146.3740 C   0  0  0  0  0  3  0  0  0  0  0  0
  190.2070  176.5170  144.2100 N   0  0  0  0  0  0  0  0  0  0  0  0
  188.4900  178.7990  140.4150 C   0  0  0  0  0  2  0  0  0  0  0  0
  186.5930  178.1310  145.4570 C   0  0  0  0  0  3  0  0  0  0  0  0
  187.9760  177.3310  142.1900 N   0  0  0  0  0  0  0  0  0  0  0  0
  186.0040  178.3250  142.9870 N   0  0  0  0  0  0  0  0  0  0  0  0
  191.6190  176.2590  148.0700 C   0  0  0  0  0  3  0  0  0  0  0  0
  189.0920  177.8260  141.4230 C   0  0  1  0  0  3  0  0  0  0  0  0
  186.8160  177.9160  144.0820 C   0  0  0  0  0  0  0  0  0  0  0  0
  190.7760  176.3760  145.4290 C   0  0  0  0  0  0  0  0  0  0  0  0
  188.7760  177.1830  145.8580 C   0  0  0  0  0  0  0  0  0  0  0  0
  187.9710  177.3580  143.6100 C   0  0  0  0  0  0  0  0  0  0  0  0
  189.9390  176.7750  146.4550 C   0  0  0  0  0  0  0  0  0  0  0  0
  190.3240  176.7290  147.7890 C   0  0  0  0  0  3  0  0  0  0  0  0
  188.9800  177.0080  144.5000 C   0  0  0  0  0  0  0  0  0  0  0  0
  192.4800  175.8520  147.0280 C   0  0  0  0  0  2  0  0  0  0  0  0
  184.5960  178.5520  143.0590 C   0  0  0  0  0  0  0  0  0  0  0  0
  181.8330  178.9660  143.1970 C   0  0  0  0  0  0  0  0  0  0  0  0
  182.4310  178.6280  141.9740 C   0  0  0  0  0  3  0  0  0  0  0  0
  183.8100  178.4200  141.9060 C   0  0  0  0  0  3  0  0  0  0  0  0
  183.9970  178.8820  144.2810 C   0  0  0  0  0  3  0  0  0  0  0  0
  182.6180  179.0870  144.3490 C   0  0  0  0  0  3  0  0  0  0  0  0
  180.3580  179.1620  143.2770 C   0  0  0  0  0  2  0  0  0  0  0  0
  180.0070  180.5110  142.8550 N   0  0  0  0  0  1  0  0  0  0  0  0
  189.7790  176.6680  140.7210 C   0  0  0  0  0  2  0  0  0  0  0  0
  191.0040  177.1310  139.9490 C   0  0  0  0  0  2  0  0  0  0  0  0
  190.7340  175.2520  138.4890 O   0  0  0  0  0  1  0  0  0  0  0  0
  190.9640  176.6310  138.5100 C   0  0  1  0  0  3  0  0  0  0  0  0
  189.8740  177.3370  137.7140 C   0  0  0  0  0  2  0  0  0  0  0  0
  189.2930  176.4450  136.7200 N   0  0  0  0  0  2  0  0  0  0  0  0
  184.9140  179.4300  138.6260 O   0  0  0  0  0  1  0  0  0  0  0  0
  185.1250  176.5800  136.5250 C   0  0  1  0  0  3  0  0  0  0  0  0
  183.4720  177.6950  137.8140 C   0  0  0  0  0  2  0  0  0  0  0  0
  187.2550  175.9320  135.4580 C   0  0  0  0  0  2  0  0  0  0  0  0
  185.7940  177.7370  137.2030 C   0  0  2  0  0  3  0  0  0  0  0  0
  183.6750  176.9810  136.4830 C   0  0  0  0  0  2  0  0  0  0  0  0
  187.9900  176.9670  136.3360 C   0  0  1  0  0  3  0  0  0  0  0  0
  185.7960  176.3400  135.1840 C   0  0  0  0  0  2  0  0  0  0  0  0
  187.1950  177.3160  137.6090 C   0  0  0  0  0  2  0  0  0  0  0  0
  184.8580  178.0640  138.3440 C   0  0  1  0  0  3  0  0  0  0  0  0
  1 19  1  0  0  0  0
  2  3  1  6  0  0  0
  2  8  1  0  0  0  0
  2  9  1  0  0  0  0
  5 18  2  0  0  0  0
  5 13  1  0  0  0  0
  6  3  1  0  0  0  0
  6 11  1  0  0  0  0
  7  4  2  0  0  0  0
  8 15  1  0  0  0  0
  9 20  1  0  0  0  0
  9 12  1  0  0  0  0
 11 28  1  6  0  0  0
 11  8  1  0  0  0  0
 12  7  1  0  0  0  0
 13  1  2  0  0  0  0
 13 16  1  0  0  0  0
 14  4  1  0  0  0  0
 14 16  2  0  0  0  0
 15 12  2  0  0  0  0
 15 18  1  0  0  0  0
 16 17  1  0  0  0  0
 17 10  2  0  0  0  0
 18 14  1  0  0  0  0
 19 10  1  0  0  0  0
 20 24  1  0  0  0  0
 21 26  1  0  0  0  0
 21 25  1  0  0  0  0
 22 21  2  0  0  0  0
 23 22  1  0  0  0  0
 23 20  2  0  0  0  0
 24 25  2  0  0  0  0
 27 26  1  0  0  0  0
 29 28  1  0  0  0  0
 31 30  1  1  0  0  0
 31 29  1  0  0  0  0
 32 31  1  0  0  0  0
 33 32  1  0  0  0  0
 35 41  1  6  0  0  0
 35 38  1  0  0  0  0
 36 43  1  0  0  0  0
 37 40  1  0  0  0  0
 38 42  1  1  0  0  0
 38 43  1  0  0  0  0
 39 35  1  0  0  0  0
 39 36  1  0  0  0  0
 40 33  1  1  0  0  0
 40 42  1  0  0  0  0
 41 37  1  0  0  0  0
 43 34  1  6  0  0  0
M  END
>  <MODEL>
4

>  <REMARK>
 VINA RESULT:      -9.2      2.098      6.540
  Name = 
  8 active torsions:
  status: ('A' for Active; 'I' for Inactive)
    1  A    between atoms: C_3  and  C_12
    2  A    between atoms: C_5  and  N_26
    3  A    between atoms: C_9  and  C_10
    4  A    between atoms: C_9  and  C_39
    5  A    between atoms: C_10  and  C_24
    6  A    between atoms: N_18  and  C_19
    7  A    between atoms: N_18  and  C_39
    8  A    between atoms: C_24  and  C_28
                            x       y       z     vdW  Elec       q    Type
                         _______ _______ _______ _____ _____    ______ ____

>  <TORSDO>
F 8

$$$$
=
 OpenBabel11032421213D

 43 50  0  0  1  0  0  0  0  0999 V2000
  190.1040  177.5350  140.4840 C   0  0  0  0  0  3  0  0  0  0  0  0
  183.3680  179.1850  140.2690 C   0  0  1  0  0  3  0  0  0  0  0  0
  182.5480  178.2300  141.1100 C   0  0  0  0  0  2  0  0  0  0  0  0
  186.5590  177.7190  137.1430 C   0  0  0  0  0  3  0  0  0  0  0  0
  187.7480  178.2070  140.5110 N   0  0  0  0  0  0  0  0  0  0  0  0
  183.3810  177.9790  142.3630 C   0  0  0  0  0  2  0  0  0  0  0  0
  185.1910  178.0660  137.2460 C   0  0  0  0  0  3  0  0  0  0  0  0
  184.7430  179.0040  140.7310 N   0  0  0  0  0  0  0  0  0  0  0  0
  183.3540  178.8000  138.8490 N   0  0  0  0  0  0  0  0  0  0  0  0
  190.9280  176.8070  138.2980 C   0  0  0  0  0  3  0  0  0  0  0  0
  184.8240  178.2920  141.9810 C   0  0  1  0  0  3  0  0  0  0  0  0
  184.7000  178.5130  138.4890 C   0  0  0  0  0  0  0  0  0  0  0  0
  188.8650  177.7620  139.8900 C   0  0  2  0  0  3  0  0  0  0  0  0
  187.3510  177.8270  138.2970 C   0  0  0  0  0  0  0  0  0  0  0  0
  185.4990  178.6130  139.5940 C   0  0  0  0  0  0  0  0  0  0  0  0
  188.6610  177.5160  138.5440 C   0  0  0  0  0  0  0  0  0  0  0  0
  189.6700  177.0400  137.7140 C   0  0  0  0  0  3  0  0  0  0  0  0
  186.8370  178.2420  139.5120 C   0  0  0  0  0  0  0  0  0  0  0  0
  191.1420  177.0540  139.6710 C   0  0  0  0  0  3  0  0  0  0  0  0
  182.3350  179.1990  137.9320 C   0  0  0  0  0  0  0  0  0  0  0  0
  180.3590  180.0000  136.1210 C   0  0  0  0  0  0  0  0  0  0  0  0
  180.7950  180.8840  137.1190 C   0  0  0  0  0  3  0  0  0  0  0  0
  181.7820  180.4850  138.0220 C   0  0  0  0  0  3  0  0  0  0  0  0
  181.9040  178.3200  136.9300 C   0  0  0  0  0  3  0  0  0  0  0  0
  180.9190  178.7210  136.0270 C   0  0  0  0  0  3  0  0  0  0  0  0
  179.3250  180.4340  135.1400 C   0  0  0  0  0  2  0  0  0  0  0  0
  179.5000  181.8450  134.8190 N   0  0  0  0  0  1  0  0  0  0  0  0
  185.4860  179.1730  143.0260 C   0  0  0  0  0  2  0  0  0  0  0  0
  184.4690  179.7490  143.9970 C   0  0  0  0  0  2  0  0  0  0  0  0
  183.5910  178.8970  146.0560 O   0  0  0  0  0  1  0  0  0  0  0  0
  184.7680  179.3100  145.4260 C   0  0  1  0  0  3  0  0  0  0  0  0
  185.7810  178.1730  145.4500 C   0  0  0  0  0  2  0  0  0  0  0  0
  186.2520  177.9240  146.8050 N   0  0  0  0  0  2  0  0  0  0  0  0
  190.7090  178.8960  143.5000 O   0  0  0  0  0  1  0  0  0  0  0  0
  190.2050  176.7040  146.2440 C   0  0  1  0  0  3  0  0  0  0  0  0
  191.7470  176.9580  144.4550 C   0  0  0  0  0  2  0  0  0  0  0  0
  188.3010  177.0000  147.7860 C   0  0  0  0  0  2  0  0  0  0  0  0
  189.7520  177.8750  145.4260 C   0  0  2  0  0  3  0  0  0  0  0  0
  191.6750  176.6030  145.9360 C   0  0  0  0  0  2  0  0  0  0  0  0
  187.7030  178.0450  146.8190 C   0  0  1  0  0  3  0  0  0  0  0  0
  189.8370  176.9460  147.6970 C   0  0  0  0  0  2  0  0  0  0  0  0
  188.2340  177.8760  145.3820 C   0  0  0  0  0  2  0  0  0  0  0  0
  190.4390  177.6620  144.0960 C   0  0  1  0  0  3  0  0  0  0  0  0
  2  8  1  0  0  0  0
  2  3  1  1  0  0  0
  3  6  1  0  0  0  0
  4  7  2  0  0  0  0
  4 14  1  0  0  0  0
  7 12  1  0  0  0  0
  8 11  1  0  0  0  0
  9  2  1  0  0  0  0
 10 19  1  0  0  0  0
 11  6  1  0  0  0  0
 11 28  1  1  0  0  0
 12  9  1  0  0  0  0
 12 15  2  0  0  0  0
 13  1  1  1  0  0  0
 13  5  1  0  0  0  0
 14 16  2  0  0  0  0
 14 18  1  0  0  0  0
 15  8  1  0  0  0  0
 16 13  1  0  0  0  0
 17 10  2  0  0  0  0
 17 16  1  0  0  0  0
 18 15  1  0  0  0  0
 18  5  2  0  0  0  0
 19  1  2  0  0  0  0
 20 23  1  0  0  0  0
 20  9  1  0  0  0  0
 21 22  1  0  0  0  0
 22 23  2  0  0  0  0
 24 20  2  0  0  0  0
 25 21  2  0  0  0  0
 25 24  1  0  0  0  0
 26 21  1  0  0  0  0
 27 26  1  0  0  0  0
 28 29  1  0  0  0  0
 29 31  1  0  0  0  0
 31 32  1  0  0  0  0
 31 30  1  6  0  0  0
 32 33  1  0  0  0  0
 35 39  1  1  0  0  0
 35 41  1  0  0  0  0
 36 39  1  0  0  0  0
 38 42  1  6  0  0  0
 38 35  1  0  0  0  0
 40 33  1  6  0  0  0
 40 37  1  0  0  0  0
 41 37  1  0  0  0  0
 42 40  1  0  0  0  0
 43 34  1  1  0  0  0
 43 36  1  0  0  0  0
 43 38  1  0  0  0  0
M  END
>  <MODEL>
5

>  <REMARK>
 VINA RESULT:      -9.2      2.758     10.106
  Name = 
  8 active torsions:
  status: ('A' for Active; 'I' for Inactive)
    1  A    between atoms: C_3  and  C_12
    2  A    between atoms: C_5  and  N_26
    3  A    between atoms: C_9  and  C_10
    4  A    between atoms: C_9  and  C_39
    5  A    between atoms: C_10  and  C_24
    6  A    between atoms: N_18  and  C_19
    7  A    between atoms: N_18  and  C_39
    8  A    between atoms: C_24  and  C_28
                            x       y       z     vdW  Elec       q    Type
                         _______ _______ _______ _____ _____    ______ ____

>  <TORSDO>
F 8

$$$$
=
 OpenBabel11032421213D

 43 50  0  0  1  0  0  0  0  0999 V2000
  191.2450  176.7930  146.3420 C   0  0  0  0  0  3  0  0  0  0  0  0
  185.9450  177.9250  142.0100 C   0  0  1  0  0  3  0  0  0  0  0  0
  186.2860  179.0040  141.0040 C   0  0  0  0  0  2  0  0  0  0  0  0
  186.6650  178.4380  146.6270 C   0  0  0  0  0  3  0  0  0  0  0  0
  189.4200  177.0890  144.7340 N   0  0  0  0  0  0  0  0  0  0  0  0
  187.7380  178.7450  140.6140 C   0  0  0  0  0  2  0  0  0  0  0  0
  185.6780  178.6380  145.6340 C   0  0  0  0  0  3  0  0  0  0  0  0
  187.2320  177.4970  142.5510 N   0  0  0  0  0  0  0  0  0  0  0  0
  185.1790  178.4690  143.1430 N   0  0  0  0  0  0  0  0  0  0  0  0
  190.6880  177.4250  148.6380 C   0  0  0  0  0  3  0  0  0  0  0  0
  188.3490  177.9510  141.7620 C   0  0  1  0  0  3  0  0  0  0  0  0
  185.9670  178.2570  144.3090 C   0  0  0  0  0  0  0  0  0  0  0  0
  189.9470  177.1440  145.9790 C   0  0  0  0  0  0  0  0  0  0  0  0
  187.8910  177.8820  146.2300 C   0  0  0  0  0  0  0  0  0  0  0  0
  187.1680  177.7110  143.9540 C   0  0  0  0  0  0  0  0  0  0  0  0
  189.0480  177.6240  146.9140 C   0  0  0  0  0  0  0  0  0  0  0  0
  189.3820  177.7780  148.2550 C   0  0  0  0  0  3  0  0  0  0  0  0
  188.1590  177.5410  144.9160 C   0  0  0  0  0  0  0  0  0  0  0  0
  191.6110  176.9360  147.6890 C   0  0  0  0  0  2  0  0  0  0  0  0
  183.7590  178.6210  143.1380 C   0  0  0  0  0  0  0  0  0  0  0  0
  180.9750  178.8880  143.1210 C   0  0  0  0  0  0  0  0  0  0  0  0
  181.6680  178.6920  141.9170 C   0  0  0  0  0  3  0  0  0  0  0  0
  183.0570  178.5580  141.9260 C   0  0  0  0  0  3  0  0  0  0  0  0
  183.0660  178.8080  144.3400 C   0  0  0  0  0  3  0  0  0  0  0  0
  181.6760  178.9400  144.3310 C   0  0  0  0  0  3  0  0  0  0  0  0
  179.4890  179.0040  143.1170 C   0  0  0  0  0  2  0  0  0  0  0  0
  179.0860  180.2630  142.5050 N   0  0  0  0  0  1  0  0  0  0  0  0
  189.1260  176.7530  141.2440 C   0  0  0  0  0  2  0  0  0  0  0  0
  190.6250  176.9500  141.4000 C   0  0  0  0  0  2  0  0  0  0  0  0
  192.6420  177.5000  140.2310 O   0  0  0  0  0  1  0  0  0  0  0  0
  191.2560  177.3960  140.0850 C   0  0  1  0  0  3  0  0  0  0  0  0
  190.9370  176.4180  138.9630 C   0  0  0  0  0  2  0  0  0  0  0  0
  190.5510  177.1240  137.7500 N   0  0  0  0  0  2  0  0  0  0  0  0
  185.7780  174.1470  137.4760 O   0  0  0  0  0  1  0  0  0  0  0  0
  186.7350  177.2560  136.0610 C   0  0  1  0  0  3  0  0  0  0  0  0
  185.0450  175.6200  135.7320 C   0  0  0  0  0  2  0  0  0  0  0  0
  188.7020  178.4910  136.8980 C   0  0  0  0  0  2  0  0  0  0  0  0
  186.9870  176.1500  137.0410 C   0  0  2  0  0  3  0  0  0  0  0  0
  185.2680  177.1280  135.7500 C   0  0  0  0  0  2  0  0  0  0  0  0
  189.1010  177.2550  137.7320 C   0  0  1  0  0  3  0  0  0  0  0  0
  187.1810  178.5710  136.6770 C   0  0  0  0  0  2  0  0  0  0  0  0
  188.4870  175.9560  137.1750 C   0  0  0  0  0  2  0  0  0  0  0  0
  186.2330  174.9800  136.4520 C   0  0  1  0  0  3  0  0  0  0  0  0
  1 19  1  0  0  0  0
  2  3  1  6  0  0  0
  2  8  1  0  0  0  0
  2  9  1  0  0  0  0
  5 18  2  0  0  0  0
  5 13  1  0  0  0  0
  6  3  1  0  0  0  0
  6 11  1  0  0  0  0
  7  4  2  0  0  0  0
  8 15  1  0  0  0  0
  9 12  1  0  0  0  0
 11 28  1  6  0  0  0
 11  8  1  0  0  0  0
 12  7  1  0  0  0  0
 13  1  2  0  0  0  0
 13 16  1  0  0  0  0
 14  4  1  0  0  0  0
 14 16  2  0  0  0  0
 15 12  2  0  0  0  0
 15 18  1  0  0  0  0
 16 17  1  0  0  0  0
 17 10  2  0  0  0  0
 18 14  1  0  0  0  0
 19 10  1  0  0  0  0
 20  9  1  0  0  0  0
 20 24  1  0  0  0  0
 21 25  1  0  0  0  0
 22 23  1  0  0  0  0
 22 21  2  0  0  0  0
 23 20  2  0  0  0  0
 25 24  2  0  0  0  0
 26 21  1  0  0  0  0
 27 26  1  0  0  0  0
 28 29  1  0  0  0  0
 31 30  1  1  0  0  0
 31 29  1  0  0  0  0
 32 31  1  0  0  0  0
 33 32  1  0  0  0  0
 35 39  1  1  0  0  0
 35 41  1  0  0  0  0
 35 38  1  0  0  0  0
 36 39  1  0  0  0  0
 36 43  1  0  0  0  0
 37 40  1  0  0  0  0
 38 42  1  6  0  0  0
 40 33  1  6  0  0  0
 41 37  1  0  0  0  0
 42 40  1  0  0  0  0
 43 38  1  0  0  0  0
 43 34  1  1  0  0  0
M  END
>  <MODEL>
6

>  <REMARK>
 VINA RESULT:      -9.2      2.435      6.937
  Name = 
  8 active torsions:
  status: ('A' for Active; 'I' for Inactive)
    1  A    between atoms: C_3  and  C_12
    2  A    between atoms: C_5  and  N_26
    3  A    between atoms: C_9  and  C_10
    4  A    between atoms: C_9  and  C_39
    5  A    between atoms: C_10  and  C_24
    6  A    between atoms: N_18  and  C_19
    7  A    between atoms: N_18  and  C_39
    8  A    between atoms: C_24  and  C_28
                            x       y       z     vdW  Elec       q    Type
                         _______ _______ _______ _____ _____    ______ ____

>  <TORSDO>
F 8

$$$$
=
 OpenBabel11032421213D

 43 50  0  0  1  0  0  0  0  0999 V2000
  183.7150  179.2070  142.2740 C   0  0  0  0  0  3  0  0  0  0  0  0
  190.2090  177.2440  143.7320 C   0  0  1  0  0  3  0  0  0  0  0  0
  190.5900  176.0030  142.9530 C   0  0  0  0  0  2  0  0  0  0  0  0
  186.1930  177.5950  146.1510 C   0  0  0  0  0  3  0  0  0  0  0  0
  186.0530  178.6020  142.6920 N   0  0  0  0  0  0  0  0  0  0  0  0
  189.9910  176.2010  141.5640 C   0  0  0  0  0  2  0  0  0  0  0  0
  187.5440  177.2050  146.3040 C   0  0  0  0  0  2  0  0  0  0  0  0
  189.0390  177.7780  143.0380 N   0  0  0  0  0  0  0  0  0  0  0  0
  189.7660  176.9100  145.0950 N   0  0  0  0  0  0  0  0  0  0  0  0
  182.2490  179.0000  144.2210 C   0  0  0  0  0  3  0  0  0  0  0  0
  188.8510  177.1980  141.7320 C   0  0  1  0  0  3  0  0  0  0  0  0
  188.4140  177.3400  145.2030 C   0  0  0  0  0  0  0  0  0  0  0  0
  184.7690  178.7820  143.0810 C   0  0  0  0  0  0  0  0  0  0  0  0
  185.7890  178.0810  144.8980 C   0  0  0  0  0  0  0  0  0  0  0  0
  187.9920  177.8250  143.9970 C   0  0  0  0  0  0  0  0  0  0  0  0
  184.5690  178.4720  144.4130 C   0  0  0  0  0  0  0  0  0  0  0  0
  183.3230  178.5700  145.0210 C   0  0  0  0  0  3  0  0  0  0  0  0
  186.6580  178.1780  143.8250 C   0  0  0  0  0  0  0  0  0  0  0  0
  182.4450  179.3160  142.8600 C   0  0  0  0  0  3  0  0  0  0  0  0
  190.6570  176.7450  146.1980 C   0  0  0  0  0  0  0  0  0  0  0  0
  192.4260  176.4360  148.3430 C   0  0  0  0  0  0  0  0  0  0  0  0
  192.5580  175.6280  147.2030 C   0  0  0  0  0  3  0  0  0  0  0  0
  191.6760  175.7840  146.1330 C   0  0  0  0  0  3  0  0  0  0  0  0
  190.5320  177.5560  147.3330 C   0  0  0  0  0  3  0  0  0  0  0  0
  191.4160  177.4010  148.4020 C   0  0  0  0  0  3  0  0  0  0  0  0
  193.3840  176.2900  149.4750 C   0  0  0  0  0  2  0  0  0  0  0  0
  193.7810  177.6020  149.9680 N   0  0  0  0  0  1  0  0  0  0  0  0
  188.9200  178.2890  140.6780 C   0  0  0  0  0  2  0  0  0  0  0  0
  189.7870  177.8740  139.5000 C   0  0  0  0  0  2  0  0  0  0  0  0
  189.7240  177.4340  137.1470 O   0  0  0  0  0  1  0  0  0  0  0  0
  189.0590  178.1000  138.1800 C   0  0  1  0  0  3  0  0  0  0  0  0
  187.6200  177.6070  138.2560 C   0  0  0  0  0  2  0  0  0  0  0  0
  186.6920  178.6360  137.8070 N   0  0  0  0  0  2  0  0  0  0  0  0
  181.3100  178.4370  139.4560 O   0  0  0  0  0  1  0  0  0  0  0  0
  183.5460  175.9360  138.3040 C   0  0  1  0  0  3  0  0  0  0  0  0
  181.4770  176.0460  139.4650 C   0  0  0  0  0  2  0  0  0  0  0  0
  185.6350  176.5300  137.1300 C   0  0  0  0  0  2  0  0  0  0  0  0
  183.2080  177.3860  138.4770 C   0  0  2  0  0  3  0  0  0  0  0  0
  182.2120  175.2460  138.3950 C   0  0  0  0  0  2  0  0  0  0  0  0
  185.4110  178.0080  137.5160 C   0  0  1  0  0  3  0  0  0  0  0  0
  184.3080  175.7610  137.0020 C   0  0  0  0  0  2  0  0  0  0  0  0
  184.4900  178.1540  138.7430 C   0  0  0  0  0  2  0  0  0  0  0  0
  182.2090  177.3810  139.6120 C   0  0  1  0  0  3  0  0  0  0  0  0
  1 19  2  0  0  0  0
  1 13  1  0  0  0  0
  2  3  1  6  0  0  0
  2  9  1  0  0  0  0
  4  7  1  0  0  0  0
  5 13  1  0  0  0  0
  5 18  2  0  0  0  0
  6 11  1  0  0  0  0
  6  3  1  0  0  0  0
  8  2  1  0  0  0  0
  8 15  1  0  0  0  0
  9 12  1  0  0  0  0
  9 20  1  0  0  0  0
 10 17  2  0  0  0  0
 11 28  1  6  0  0  0
 11  8  1  0  0  0  0
 12  7  1  0  0  0  0
 13 16  2  0  0  0  0
 14  4  2  0  0  0  0
 15 12  2  0  0  0  0
 16 14  1  0  0  0  0
 16 17  1  0  0  0  0
 18 15  1  0  0  0  0
 18 14  1  0  0  0  0
 19 10  1  0  0  0  0
 20 24  1  0  0  0  0
 21 25  1  0  0  0  0
 21 26  1  0  0  0  0
 22 21  2  0  0  0  0
 23 20  2  0  0  0  0
 23 22  1  0  0  0  0
 24 25  2  0  0  0  0
 26 27  1  0  0  0  0
 29 28  1  0  0  0  0
 31 30  1  6  0  0  0
 31 32  1  0  0  0  0
 31 29  1  0  0  0  0
 33 32  1  0  0  0  0
 35 41  1  6  0  0  0
 35 39  1  0  0  0  0
 35 38  1  0  0  0  0
 36 43  1  0  0  0  0
 37 40  1  0  0  0  0
 38 42  1  1  0  0  0
 38 43  1  0  0  0  0
 39 36  1  0  0  0  0
 40 33  1  1  0  0  0
 40 42  1  0  0  0  0
 41 37  1  0  0  0  0
 43 34  1  6  0  0  0
M  END
>  <MODEL>
7

>  <REMARK>
 VINA RESULT:      -8.7      1.758      2.622
  Name = 
  8 active torsions:
  status: ('A' for Active; 'I' for Inactive)
    1  A    between atoms: C_3  and  C_12
    2  A    between atoms: C_5  and  N_26
    3  A    between atoms: C_9  and  C_10
    4  A    between atoms: C_9  and  C_39
    5  A    between atoms: C_10  and  C_24
    6  A    between atoms: N_18  and  C_19
    7  A    between atoms: N_18  and  C_39
    8  A    between atoms: C_24  and  C_28
                            x       y       z     vdW  Elec       q    Type
                         _______ _______ _______ _____ _____    ______ ____

>  <TORSDO>
F 8

$$$$
=
 OpenBabel11032421213D

 43 50  0  0  1  0  0  0  0  0999 V2000
  186.5400  178.3590  137.2480 C   0  0  0  0  0  3  0  0  0  0  0  0
  186.8910  177.7180  144.1480 C   0  0  1  0  0  3  0  0  0  0  0  0
  186.3190  178.9380  144.8370 C   0  0  0  0  0  2  0  0  0  0  0  0
  190.0160  178.0070  140.6480 C   0  0  0  0  0  3  0  0  0  0  0  0
  186.5440  178.0640  139.6810 N   0  0  0  0  0  0  0  0  0  0  0  0
  185.0870  179.3190  144.0230 C   0  0  0  0  0  2  0  0  0  0  0  0
  189.9420  177.8960  142.0560 C   0  0  0  0  0  2  0  0  0  0  0  0
  186.3800  177.7850  142.7810 N   0  0  0  0  0  0  0  0  0  0  0  0
  188.3570  177.7950  144.0470 N   0  0  0  0  0  0  0  0  0  0  0  0
  188.7630  178.4820  136.2370 C   0  0  0  0  0  3  0  0  0  0  0  0
  185.2950  178.7230  142.6350 C   0  0  1  0  0  3  0  0  0  0  0  0
  188.6720  177.7980  142.6590 C   0  0  0  0  0  0  0  0  0  0  0  0
  187.1620  178.1980  138.4840 C   0  0  0  0  0  0  0  0  0  0  0  0
  188.8120  178.0270  139.9280 C   0  0  0  0  0  0  0  0  0  0  0  0
  187.5160  177.8130  141.9290 C   0  0  0  0  0  0  0  0  0  0  0  0
  188.5400  178.1850  138.5950 C   0  0  0  0  0  0  0  0  0  0  0  0
  189.3760  178.3220  137.4930 C   0  0  0  0  0  3  0  0  0  0  0  0
  187.5760  177.9560  140.5470 C   0  0  0  0  0  0  0  0  0  0  0  0
  187.3580  178.4990  136.1170 C   0  0  0  0  0  3  0  0  0  0  0  0
  189.2450  177.3680  145.0800 C   0  0  0  0  0  0  0  0  0  0  0  0
  190.9980  176.5600  147.1050 C   0  0  0  0  0  0  0  0  0  0  0  0
  191.4590  176.6820  145.7850 C   0  0  0  0  0  3  0  0  0  0  0  0
  190.5840  177.0860  144.7760 C   0  0  0  0  0  3  0  0  0  0  0  0
  188.7880  177.2540  146.4000 C   0  0  0  0  0  3  0  0  0  0  0  0
  189.6640  176.8520  147.4090 C   0  0  0  0  0  3  0  0  0  0  0  0
  191.9370  176.1550  148.1880 C   0  0  0  0  0  2  0  0  0  0  0  0
  193.1750  175.6440  147.6140 N   0  0  0  0  0  1  0  0  0  0  0  0
  184.0510  177.9920  142.1620 C   0  0  0  0  0  2  0  0  0  0  0  0
  183.3460  178.7520  141.0500 C   0  0  0  0  0  2  0  0  0  0  0  0
  181.0630  178.8770  141.7630 O   0  0  0  0  0  1  0  0  0  0  0  0
  181.9220  178.2430  140.8600 C   0  0  1  0  0  3  0  0  0  0  0  0
  181.4350  178.4920  139.4390 C   0  0  0  0  0  2  0  0  0  0  0  0
  180.6890  179.7400  139.3550 N   0  0  0  0  0  2  0  0  0  0  0  0
  182.4360  184.8330  137.7010 O   0  0  0  0  0  1  0  0  0  0  0  0
  180.4320  182.3680  136.1220 C   0  0  1  0  0  3  0  0  0  0  0  0
  180.9010  184.6820  135.8660 C   0  0  0  0  0  2  0  0  0  0  0  0
  180.3840  180.0400  136.9410 C   0  0  0  0  0  2  0  0  0  0  0  0
  181.3810  182.7550  137.2140 C   0  0  2  0  0  3  0  0  0  0  0  0
  180.6680  183.4090  135.0600 C   0  0  0  0  0  2  0  0  0  0  0  0
  181.1620  180.4850  138.1980 C   0  0  1  0  0  3  0  0  0  0  0  0
  180.7000  180.9280  135.7230 C   0  0  0  0  0  2  0  0  0  0  0  0
  181.0060  181.9930  138.4730 C   0  0  0  0  0  2  0  0  0  0  0  0
  181.2300  184.2570  137.2970 C   0  0  1  0  0  3  0  0  0  0  0  0
  1 13  1  0  0  0  0
  2  3  1  1  0  0  0
  4  7  1  0  0  0  0
  5 18  2  0  0  0  0
  6  3  1  0  0  0  0
  7 12  1  0  0  0  0
  8  2  1  0  0  0  0
  9  2  1  0  0  0  0
  9 20  1  0  0  0  0
 10 17  2  0  0  0  0
 11 28  1  1  0  0  0
 11  8  1  0  0  0  0
 11  6  1  0  0  0  0
 12  9  1  0  0  0  0
 13 16  2  0  0  0  0
 13  5  1  0  0  0  0
 14 18  1  0  0  0  0
 14  4  2  0  0  0  0
 15 12  2  0  0  0  0
 15  8  1  0  0  0  0
 16 14  1  0  0  0  0
 17 16  1  0  0  0  0
 18 15  1  0  0  0  0
 19 10  1  0  0  0  0
 19  1  2  0  0  0  0
 20 24  1  0  0  0  0
 21 25  1  0  0  0  0
 21 26  1  0  0  0  0
 22 21  2  0  0  0  0
 23 20  2  0  0  0  0
 23 22  1  0  0  0  0
 24 25  2  0  0  0  0
 27 26  1  0  0  0  0
 29 28  1  0  0  0  0
 31 29  1  0  0  0  0
 31 30  1  1  0  0  0
 32 31  1  0  0  0  0
 33 32  1  0  0  0  0
 35 39  1  6  0  0  0
 35 38  1  0  0  0  0
 36 43  1  0  0  0  0
 37 40  1  0  0  0  0
 38 43  1  0  0  0  0
 38 42  1  1  0  0  0
 39 36  1  0  0  0  0
 40 42  1  0  0  0  0
 40 33  1  1  0  0  0
 41 35  1  0  0  0  0
 41 37  1  0  0  0  0
 43 34  1  6  0  0  0
M  END
>  <MODEL>
8

>  <REMARK>
 VINA RESULT:      -8.6      2.673      5.363
  Name = 
  8 active torsions:
  status: ('A' for Active; 'I' for Inactive)
    1  A    between atoms: C_3  and  C_12
    2  A    between atoms: C_5  and  N_26
    3  A    between atoms: C_9  and  C_10
    4  A    between atoms: C_9  and  C_39
    5  A    between atoms: C_10  and  C_24
    6  A    between atoms: N_18  and  C_19
    7  A    between atoms: N_18  and  C_39
    8  A    between atoms: C_24  and  C_28
                            x       y       z     vdW  Elec       q    Type
                         _______ _______ _______ _____ _____    ______ ____

>  <TORSDO>
F 8

$$$$
=
 OpenBabel11032421213D

 43 50  0  0  1  0  0  0  0  0999 V2000
  190.9540  176.7540  137.1550 C   0  0  0  0  0  3  0  0  0  0  0  0
  185.6730  179.0150  141.0460 C   0  0  1  0  0  3  0  0  0  0  0  0
  185.4790  178.1350  142.2630 C   0  0  0  0  0  2  0  0  0  0  0  0
  186.1290  177.2790  136.7010 C   0  0  0  0  0  3  0  0  0  0  0  0
  189.1770  177.6390  138.5910 N   0  0  0  0  0  0  0  0  0  0  0  0
  186.8870  177.8030  142.7480 C   0  0  0  0  0  2  0  0  0  0  0  0
  185.1480  177.7480  137.6060 C   0  0  0  0  0  2  0  0  0  0  0  0
  187.0210  178.7070  140.5720 N   0  0  0  0  0  0  0  0  0  0  0  0
  184.7560  178.6400  139.9590 N   0  0  0  0  0  0  0  0  0  0  0  0
  190.1930  175.9650  134.9680 C   0  0  0  0  0  3  0  0  0  0  0  0
  187.8030  177.9850  141.5440 C   0  0  1  0  0  3  0  0  0  0  0  0
  185.5650  178.2320  138.8630 C   0  0  0  0  0  0  0  0  0  0  0  0
  189.6340  177.0970  137.4390 C   0  0  0  0  0  0  0  0  0  0  0  0
  187.4690  177.3070  137.1150 C   0  0  0  0  0  0  0  0  0  0  0  0
  186.8800  178.2540  139.2340 C   0  0  0  0  0  0  0  0  0  0  0  0
  188.6250  176.8770  136.5190 C   0  0  0  0  0  0  0  0  0  0  0  0
  188.8650  176.3140  135.2710 C   0  0  0  0  0  3  0  0  0  0  0  0
  187.8490  177.7630  138.3650 C   0  0  0  0  0  0  0  0  0  0  0  0
  191.2280  176.1840  135.9020 C   0  0  0  0  0  3  0  0  0  0  0  0
  183.4210  179.1350  139.8440 C   0  0  0  0  0  0  0  0  0  0  0  0
  180.8040  180.0900  139.5920 C   0  0  0  0  0  0  0  0  0  0  0  0
  181.8190  180.6020  138.7710 C   0  0  0  0  0  3  0  0  0  0  0  0
  183.1250  180.1250  138.8960 C   0  0  0  0  0  3  0  0  0  0  0  0
  182.4050  178.6180  140.6580 C   0  0  0  0  0  3  0  0  0  0  0  0
  181.0990  179.0950  140.5300 C   0  0  0  0  0  3  0  0  0  0  0  0
  179.4050  180.5790  139.4410 C   0  0  0  0  0  2  0  0  0  0  0  0
  179.3860  182.0340  139.3780 N   0  0  0  0  0  1  0  0  0  0  0  0
  189.0330  178.7960  141.9110 C   0  0  0  0  0  2  0  0  0  0  0  0
  190.3090  177.9940  141.7180 C   0  0  0  0  0  2  0  0  0  0  0  0
  190.4680  175.8880  140.5870 O   0  0  0  0  0  1  0  0  0  0  0  0
  190.0250  176.4970  141.7650 C   0  0  1  0  0  3  0  0  0  0  0  0
  190.7110  175.8450  142.9590 C   0  0  0  0  0  2  0  0  0  0  0  0
  191.1260  176.8470  143.9310 N   0  0  0  0  0  2  0  0  0  0  0  0
  186.0700  177.5070  146.3230 O   0  0  0  0  0  1  0  0  0  0  0  0
  189.3690  177.8600  147.5800 C   0  0  1  0  0  3  0  0  0  0  0  0
  187.1710  178.5120  148.2010 C   0  0  0  0  0  2  0  0  0  0  0  0
  191.3050  176.9140  146.3760 C   0  0  0  0  0  2  0  0  0  0  0  0
  188.4390  177.3710  146.5110 C   0  0  2  0  0  3  0  0  0  0  0  0
  188.4810  177.9980  148.7870 C   0  0  0  0  0  2  0  0  0  0  0  0
  190.3900  176.6250  145.1670 C   0  0  1  0  0  3  0  0  0  0  0  0
  190.5290  176.8880  147.7050 C   0  0  0  0  0  2  0  0  0  0  0  0
  189.1310  177.5140  145.1660 C   0  0  0  0  0  2  0  0  0  0  0  0
  187.2070  178.2260  146.6990 C   0  0  1  0  0  3  0  0  0  0  0  0
  1 13  1  0  0  0  0
  2  3  1  1  0  0  0
  3  6  1  0  0  0  0
  4 14  2  0  0  0  0
  4  7  1  0  0  0  0
  7 12  1  0  0  0  0
  8  2  1  0  0  0  0
  8 11  1  0  0  0  0
  9  2  1  0  0  0  0
 10 17  2  0  0  0  0
 10 19  1  0  0  0  0
 11 28  1  1  0  0  0
 11  6  1  0  0  0  0
 12 15  2  0  0  0  0
 12  9  1  0  0  0  0
 13  5  1  0  0  0  0
 14 18  1  0  0  0  0
 15  8  1  0  0  0  0
 16 14  1  0  0  0  0
 16 13  2  0  0  0  0
 17 16  1  0  0  0  0
 18  5  2  0  0  0  0
 18 15  1  0  0  0  0
 19  1  2  0  0  0  0
 20  9  1  0  0  0  0
 20 24  1  0  0  0  0
 21 25  1  0  0  0  0
 22 23  1  0  0  0  0
 22 21  2  0  0  0  0
 23 20  2  0  0  0  0
 25 24  2  0  0  0  0
 26 21  1  0  0  0  0
 27 26  1  0  0  0  0
 29 31  1  0  0  0  0
 29 28  1  0  0  0  0
 31 30  1  6  0  0  0
 31 32  1  0  0  0  0
 32 33  1  0  0  0  0
 35 41  1  1  0  0  0
 35 39  1  0  0  0  0
 36 39  1  0  0  0  0
 37 41  1  0  0  0  0
 38 42  1  6  0  0  0
 38 43  1  0  0  0  0
 38 35  1  0  0  0  0
 40 33  1  6  0  0  0
 40 37  1  0  0  0  0
 42 40  1  0  0  0  0
 43 34  1  1  0  0  0
 43 36  1  0  0  0  0
M  END
>  <MODEL>
9

>  <REMARK>
 VINA RESULT:      -8.5      2.539      9.146
  Name = 
  8 active torsions:
  status: ('A' for Active; 'I' for Inactive)
    1  A    between atoms: C_3  and  C_12
    2  A    between atoms: C_5  and  N_26
    3  A    between atoms: C_9  and  C_10
    4  A    between atoms: C_9  and  C_39
    5  A    between atoms: C_10  and  C_24
    6  A    between atoms: N_18  and  C_19
    7  A    between atoms: N_18  and  C_39
    8  A    between atoms: C_24  and  C_28
                            x       y       z     vdW  Elec       q    Type
                         _______ _______ _______ _____ _____    ______ ____

>  <TORSDO>
F 8

$$$$
