=
 OpenBabel11032420473D

 47 55  0  0  1  0  0  0  0  0999 V2000
  183.5930  177.1070  138.6970 C   0  0  0  0  0  2  0  0  0  0  0  0
  179.4430  181.8110  139.1600 C   0  0  0  0  0  0  0  0  0  0  0  0
  181.7610  178.7160  136.9690 N   0  0  0  0  0  2  0  0  0  0  0  0
  182.2500  177.8020  136.0260 N   0  0  0  0  0  2  0  0  0  0  0  0
  181.2840  180.1540  139.8200 C   0  0  1  0  0  3  0  0  0  0  0  0
  185.5020  173.5840  136.6700 C   0  0  1  0  0  3  0  0  0  0  0  0
  179.8650  181.4380  135.5830 C   0  0  0  0  0  3  0  0  0  0  0  0
  180.6840  180.3180  135.3840 C   0  0  0  0  0  3  0  0  0  0  0  0
  178.9310  182.1130  140.2680 O   0  0  0  0  0  0  0  0  0  0  0  0
  181.0210  174.4180  135.9190 N   0  0  0  0  0  0  0  0  0  0  0  0
  183.3580  176.1350  137.5230 C   0  0  1  0  0  3  0  0  0  0  0  0
  181.2020  179.9860  136.6300 C   0  0  0  0  0  0  0  0  0  0  0  0
  186.1160  172.8360  137.7560 N   0  0  0  0  0  1  0  0  0  0  0  0
  183.7090  172.9950  135.8810 C   0  0  0  0  0  0  0  0  0  0  0  0
  185.1460  172.6930  135.6060 C   0  0  0  0  0  2  0  0  0  0  0  0
  184.1230  173.8760  136.9940 N   0  0  0  0  0  0  0  0  0  0  0  0
  182.4630  179.4930  139.4130 N   0  0  0  0  0  2  0  0  0  0  0  0
  180.7900  180.8840  137.5430 N   0  0  0  0  0  0  0  0  0  0  0  0
  180.5540  180.8700  138.9430 C   0  0  2  0  0  3  0  0  0  0  0  0
  179.0310  182.4360  137.8500 C   0  0  0  0  0  2  0  0  0  0  0  0
  182.5490  172.6060  135.3600 C   0  0  0  0  0  3  0  0  0  0  0  0
  180.2230  172.2250  136.1570 N   0  0  0  0  0  1  0  0  0  0  0  0
  183.4400  174.6860  137.9900 C   0  0  0  0  0  2  0  0  0  0  0  0
  181.9570  175.4590  135.5080 C   0  0  0  0  0  2  0  0  0  0  0  0
  182.6360  177.1260  139.8310 N   0  0  1  0  0  0  0  0  0  0  0  0
  181.0070  179.7780  141.2050 C   0  0  0  0  0  0  0  0  0  0  0  0
  180.0190  180.3980  142.1330 C   0  0  0  0  0  1  0  0  0  0  0  0
  181.8630  178.8080  141.5480 C   0  0  0  0  0  0  0  0  0  0  0  0
  182.1360  176.4720  136.6250 C   0  0  2  0  0  3  0  0  0  0  0  0
  182.7940  178.4850  140.4040 C   0  0  2  0  0  3  0  0  0  0  0  0
  179.9720  181.7240  136.9310 C   0  0  0  0  0  0  0  0  0  0  0  0
  181.2580  173.1420  135.8290 C   0  0  0  0  0  0  0  0  0  0  0  0
  179.4150  175.4080  140.0980 C   0  0  0  0  0  2  0  0  0  0  0  0
  180.8500  175.4480  139.6140 C   0  0  1  0  0  3  0  0  0  0  0  0
  181.2480  176.9010  139.3920 C   0  0  1  0  0  3  0  0  0  0  0  0
  180.3600  176.4980  140.5610 C   0  0  1  0  0  3  0  0  0  0  0  0
  182.0670  178.2950  142.9410 C   0  0  0  0  0  2  0  0  0  0  0  0
  183.2430  178.9780  143.6270 C   0  0  0  0  0  2  0  0  0  0  0  0
  184.5510  178.3330  143.1960 C   0  0  0  0  0  2  0  0  0  0  0  0
  187.7860  177.7340  146.3560 C   0  0  0  0  0  3  0  0  0  0  0  0
  185.2820  179.2380  145.4520 C   0  0  0  0  0  3  0  0  0  0  0  0
  185.5460  178.3420  144.3100 C   0  0  0  0  0  0  0  0  0  0  0  0
  185.7290  179.0500  146.6930 C   0  0  0  0  0  3  0  0  0  0  0  0
  187.8640  177.6310  145.0300 C   0  0  0  0  0  0  0  0  0  0  0  0
  186.6960  177.6760  144.1240 C   0  0  0  0  0  3  0  0  0  0  0  0
  186.4990  177.8420  147.1010 C   0  0  0  0  0  2  0  0  0  0  0  0
  189.0840  177.4330  144.4780 F   0  0  0  0  0  0  0  0  0  0  0  0
  2  9  2  0  0  0  0
  4 29  1  0  0  0  0
  4  3  1  0  0  0  0
  5 17  1  6  0  0  0
  5 26  1  0  0  0  0
  6 16  1  0  0  0  0
  6 13  1  1  0  0  0
  7 31  2  0  0  0  0
  8  7  1  0  0  0  0
  8 12  2  0  0  0  0
 11 23  1  1  0  0  0
 11  1  1  0  0  0  0
 12  3  1  0  0  0  0
 12 18  1  0  0  0  0
 14 16  1  0  0  0  0
 15 14  1  0  0  0  0
 15  6  1  0  0  0  0
 16 23  1  0  0  0  0
 18 19  1  0  0  0  0
 19  2  1  1  0  0  0
 19  5  1  0  0  0  0
 20  2  1  0  0  0  0
 21 32  1  0  0  0  0
 21 14  2  0  0  0  0
 24 10  1  0  0  0  0
 25  1  1  6  0  0  0
 25 30  1  0  0  0  0
 26 28  2  0  0  0  0
 26 27  1  0  0  0  0
 28 37  1  0  0  0  0
 29 24  1  6  0  0  0
 29 11  1  0  0  0  0
 30 17  1  6  0  0  0
 30 28  1  0  0  0  0
 31 18  1  0  0  0  0
 31 20  1  0  0  0  0
 32 10  2  0  0  0  0
 32 22  1  0  0  0  0
 34 33  1  6  0  0  0
 34 36  1  0  0  0  0
 35 34  1  0  0  0  0
 35 25  1  1  0  0  0
 35 36  1  0  0  0  0
 36 33  1  6  0  0  0
 37 38  1  0  0  0  0
 39 38  1  0  0  0  0
 39 42  1  0  0  0  0
 40 46  1  0  0  0  0
 41 43  2  0  0  0  0
 42 41  1  0  0  0  0
 43 46  1  0  0  0  0
 44 40  2  0  0  0  0
 45 42  2  0  0  0  0
 45 44  1  0  0  0  0
 47 44  1  0  0  0  0
M  END
>  <MODEL>
1

>  <REMARK>
 VINA RESULT:      -9.1      0.000      0.000
  Name = 
  5 active torsions:
  status: ('A' for Active; 'I' for Inactive)
    1  A    between atoms: C_5  and  C_30
    2  A    between atoms: C_19  and  C_31
    3  A    between atoms: C_19  and  C_42
    4  A    between atoms: C_30  and  C_31
    5  A    between atoms: C_37  and  N_38
                            x       y       z     vdW  Elec       q    Type
                         _______ _______ _______ _____ _____    ______ ____

>  <TORSDO>
F 5

$$$$
=
 OpenBabel11032420473D

 47 55  0  0  1  0  0  0  0  0999 V2000
  183.5220  177.1350  138.5100 C   0  0  0  0  0  2  0  0  0  0  0  0
  179.4650  181.9420  138.5430 C   0  0  0  0  0  0  0  0  0  0  0  0
  181.7700  178.6590  136.6290 N   0  0  0  0  0  2  0  0  0  0  0  0
  182.2620  177.6740  135.7640 N   0  0  0  0  0  2  0  0  0  0  0  0
  181.2510  180.2970  139.3630 C   0  0  1  0  0  3  0  0  0  0  0  0
  185.4040  173.4450  136.7780 C   0  0  1  0  0  3  0  0  0  0  0  0
  179.9700  181.3180  135.0110 C   0  0  0  0  0  3  0  0  0  0  0  0
  180.7690  180.1710  134.9110 C   0  0  0  0  0  3  0  0  0  0  0  0
  178.9310  182.3280  139.6140 O   0  0  0  0  0  0  0  0  0  0  0  0
  180.9630  174.3160  135.8510 N   0  0  0  0  0  0  0  0  0  0  0  0
  183.2950  176.0900  137.3980 C   0  0  1  0  0  3  0  0  0  0  0  0
  181.2480  179.9140  136.1900 C   0  0  0  0  0  0  0  0  0  0  0  0
  185.9730  172.7610  137.9280 N   0  0  0  0  0  1  0  0  0  0  0  0
  183.6200  172.8400  135.9820 C   0  0  0  0  0  0  0  0  0  0  0  0
  185.0570  172.4900  135.7660 C   0  0  0  0  0  2  0  0  0  0  0  0
  184.0240  173.7860  137.0440 N   0  0  0  0  0  0  0  0  0  0  0  0
  182.4250  179.5860  139.0330 N   0  0  0  0  0  2  0  0  0  0  0  0
  180.8320  180.8810  137.0290 N   0  0  0  0  0  0  0  0  0  0  0  0
  180.5600  180.9660  138.4200 C   0  0  2  0  0  3  0  0  0  0  0  0
  179.1000  182.4850  137.1840 C   0  0  0  0  0  2  0  0  0  0  0  0
  182.4650  172.4390  135.4570 C   0  0  0  0  0  3  0  0  0  0  0  0
  180.1120  172.1600  136.2140 N   0  0  0  0  0  1  0  0  0  0  0  0
  183.3340  174.6750  137.9640 C   0  0  0  0  0  2  0  0  0  0  0  0
  181.9320  175.3070  135.3960 C   0  0  0  0  0  2  0  0  0  0  0  0
  182.5370  177.2500  139.6140 N   0  0  1  0  0  0  0  0  0  0  0  0
  180.9310  180.0210  140.7620 C   0  0  0  0  0  0  0  0  0  0  0  0
  179.9330  180.7220  141.6190 C   0  0  0  0  0  1  0  0  0  0  0  0
  181.7570  179.0600  141.1920 C   0  0  0  0  0  0  0  0  0  0  0  0
  182.1040  176.3900  136.4470 C   0  0  2  0  0  3  0  0  0  0  0  0
  182.7090  178.6410  140.0980 C   0  0  2  0  0  3  0  0  0  0  0  0
  180.0480  181.6930  136.3400 C   0  0  0  0  0  0  0  0  0  0  0  0
  181.1740  173.0320  135.8530 C   0  0  0  0  0  0  0  0  0  0  0  0
  179.2900  175.5780  139.8760 C   0  0  0  0  0  2  0  0  0  0  0  0
  180.7360  175.5840  139.4210 C   0  0  1  0  0  3  0  0  0  0  0  0
  181.1550  177.0230  139.1540 C   0  0  1  0  0  3  0  0  0  0  0  0
  180.2380  176.6750  140.3180 C   0  0  1  0  0  3  0  0  0  0  0  0
  181.9140  178.6390  142.6220 C   0  0  0  0  0  2  0  0  0  0  0  0
  183.3270  178.1520  142.9140 C   0  0  0  0  0  2  0  0  0  0  0  0
  184.3420  179.2080  142.5050 C   0  0  0  0  0  2  0  0  0  0  0  0
  188.5610  177.4730  142.5070 C   0  0  0  0  0  3  0  0  0  0  0  0
  186.2010  178.5660  140.9000 C   0  0  0  0  0  3  0  0  0  0  0  0
  185.6890  178.6000  142.2830 C   0  0  0  0  0  0  0  0  0  0  0  0
  187.4890  178.5390  140.5610 C   0  0  0  0  0  3  0  0  0  0  0  0
  187.5310  177.2040  143.3090 C   0  0  0  0  0  0  0  0  0  0  0  0
  186.2640  177.9670  143.3160 C   0  0  0  0  0  3  0  0  0  0  0  0
  188.5910  178.6230  141.5600 C   0  0  0  0  0  2  0  0  0  0  0  0
  187.6650  176.1940  144.2000 F   0  0  0  0  0  0  0  0  0  0  0  0
  2  9  2  0  0  0  0
  4 29  1  0  0  0  0
  4  3  1  0  0  0  0
  5 17  1  6  0  0  0
  5 26  1  0  0  0  0
  6 16  1  0  0  0  0
  6 13  1  1  0  0  0
  7 31  2  0  0  0  0
  8  7  1  0  0  0  0
  8 12  2  0  0  0  0
 10 32  2  0  0  0  0
 11 23  1  1  0  0  0
 11  1  1  0  0  0  0
 12  3  1  0  0  0  0
 12 18  1  0  0  0  0
 14 16  1  0  0  0  0
 15 14  1  0  0  0  0
 15  6  1  0  0  0  0
 16 23  1  0  0  0  0
 18 19  1  0  0  0  0
 19  2  1  1  0  0  0
 19  5  1  0  0  0  0
 20  2  1  0  0  0  0
 21 32  1  0  0  0  0
 21 14  2  0  0  0  0
 24 10  1  0  0  0  0
 25  1  1  6  0  0  0
 25 30  1  0  0  0  0
 26 28  2  0  0  0  0
 26 27  1  0  0  0  0
 28 37  1  0  0  0  0
 29 24  1  6  0  0  0
 29 11  1  0  0  0  0
 30 17  1  6  0  0  0
 30 28  1  0  0  0  0
 31 18  1  0  0  0  0
 31 20  1  0  0  0  0
 32 22  1  0  0  0  0
 34 33  1  6  0  0  0
 34 36  1  0  0  0  0
 35 34  1  0  0  0  0
 35 25  1  1  0  0  0
 35 36  1  0  0  0  0
 36 33  1  6  0  0  0
 37 38  1  0  0  0  0
 39 38  1  0  0  0  0
 40 44  2  0  0  0  0
 41 42  1  0  0  0  0
 42 39  1  0  0  0  0
 42 45  2  0  0  0  0
 43 41  2  0  0  0  0
 43 46  1  0  0  0  0
 44 45  1  0  0  0  0
 44 47  1  0  0  0  0
 46 40  1  0  0  0  0
M  END
>  <MODEL>
2

>  <REMARK>
 VINA RESULT:      -7.5      1.146      1.691
  Name = 
  5 active torsions:
  status: ('A' for Active; 'I' for Inactive)
    1  A    between atoms: C_5  and  C_30
    2  A    between atoms: C_19  and  C_31
    3  A    between atoms: C_19  and  C_42
    4  A    between atoms: C_30  and  C_31
    5  A    between atoms: C_37  and  N_38
                            x       y       z     vdW  Elec       q    Type
                         _______ _______ _______ _____ _____    ______ ____

>  <TORSDO>
F 5

$$$$
=
 OpenBabel11032420473D

 47 55  0  0  1  0  0  0  0  0999 V2000
  185.1730  178.7880  137.7070 C   0  0  0  0  0  2  0  0  0  0  0  0
  189.5740  176.8930  141.7820 C   0  0  0  0  0  0  0  0  0  0  0  0
  185.4610  178.0910  140.5980 N   0  0  0  0  0  2  0  0  0  0  0  0
  184.0800  178.3190  140.5360 N   0  0  0  0  0  2  0  0  0  0  0  0
  188.5180  177.7600  139.6130 C   0  0  1  0  0  3  0  0  0  0  0  0
  180.9500  179.4170  136.3200 C   0  0  1  0  0  3  0  0  0  0  0  0
  186.7770  177.7310  143.9250 C   0  0  0  0  0  3  0  0  0  0  0  0
  185.7010  178.0450  143.0840 C   0  0  0  0  0  3  0  0  0  0  0  0
  190.6430  176.3660  141.3790 O   0  0  0  0  0  0  0  0  0  0  0  0
  181.8590  175.8600  139.1240 N   0  0  0  0  0  0  0  0  0  0  0  0
  183.7280  178.3820  138.0620 C   0  0  1  0  0  3  0  0  0  0  0  0
  186.2260  178.1630  141.8030 C   0  0  0  0  0  0  0  0  0  0  0  0
  181.0550  179.4780  134.8700 N   0  0  0  0  0  1  0  0  0  0  0  0
  180.3300  177.7030  137.2480 C   0  0  0  0  0  0  0  0  0  0  0  0
  179.6590  178.9170  136.6930 C   0  0  0  0  0  2  0  0  0  0  0  0
  181.6350  178.2420  136.8110 N   0  0  0  0  0  0  0  0  0  0  0  0
  187.5530  178.6190  139.0450 N   0  0  0  0  0  2  0  0  0  0  0  0
  187.5610  178.0020  141.8460 N   0  0  0  0  0  0  0  0  0  0  0  0
  188.5560  177.5450  140.9430 C   0  0  2  0  0  3  0  0  0  0  0  0
  189.1910  177.0000  143.2370 C   0  0  0  0  0  2  0  0  0  0  0  0
  179.9150  176.5920  137.8520 C   0  0  0  0  0  3  0  0  0  0  0  0
  180.6310  174.2130  137.9930 N   0  0  0  0  0  1  0  0  0  0  0  0
  183.0150  177.7870  136.8520 C   0  0  0  0  0  2  0  0  0  0  0  0
  182.1330  177.1930  139.6500 C   0  0  0  0  0  2  0  0  0  0  0  0
  186.1450  177.7430  137.2980 N   0  0  1  0  0  0  0  0  0  0  0  0
  189.2560  177.1220  138.5250 C   0  0  0  0  0  0  0  0  0  0  0  0
  190.5140  176.3280  138.6250 C   0  0  0  0  0  1  0  0  0  0  0  0
  188.6500  177.4390  137.3750 C   0  0  0  0  0  0  0  0  0  0  0  0
  183.5780  177.5750  139.3810 C   0  0  2  0  0  3  0  0  0  0  0  0
  187.4630  178.3380  137.6230 C   0  0  2  0  0  3  0  0  0  0  0  0
  187.8840  177.7130  143.0960 C   0  0  0  0  0  0  0  0  0  0  0  0
  180.8560  175.5700  138.3480 C   0  0  0  0  0  0  0  0  0  0  0  0
  185.5540  174.1310  137.3830 C   0  0  0  0  0  2  0  0  0  0  0  0
  185.0340  175.5480  137.2420 C   0  0  1  0  0  3  0  0  0  0  0  0
  185.9450  176.4790  138.0300 C   0  0  1  0  0  3  0  0  0  0  0  0
  186.5110  175.2990  137.2530 C   0  0  1  0  0  3  0  0  0  0  0  0
  189.2080  177.1750  136.0080 C   0  0  0  0  0  2  0  0  0  0  0  0
  189.2910  175.6840  135.7110 C   0  0  0  0  0  2  0  0  0  0  0  0
  190.4040  175.4080  134.7120 C   0  0  0  0  0  2  0  0  0  0  0  0
  193.8130  173.6290  137.1660 C   0  0  0  0  0  3  0  0  0  0  0  0
  192.7810  175.9280  135.4340 C   0  0  0  0  0  3  0  0  0  0  0  0
  191.6540  174.9770  135.4070 C   0  0  0  0  0  0  0  0  0  0  0  0
  193.7370  175.9590  136.3630 C   0  0  0  0  0  3  0  0  0  0  0  0
  192.9030  173.0190  136.4080 C   0  0  0  0  0  0  0  0  0  0  0  0
  191.7360  173.6980  135.8030 C   0  0  0  0  0  3  0  0  0  0  0  0
  193.7330  175.0660  137.5560 C   0  0  0  0  0  2  0  0  0  0  0  0
  193.0300  171.6860  136.2110 F   0  0  0  0  0  0  0  0  0  0  0  0
  1 11  1  0  0  0  0
  2 20  1  0  0  0  0
  3 12  1  0  0  0  0
  4  3  1  0  0  0  0
  5 26  1  6  0  0  0
  5 19  1  0  0  0  0
  6 13  1  6  0  0  0
  6 15  1  0  0  0  0
  6 16  1  0  0  0  0
  8  7  1  0  0  0  0
  9  2  2  0  0  0  0
 10 24  1  0  0  0  0
 11 23  1  6  0  0  0
 11 29  1  0  0  0  0
 12 18  1  0  0  0  0
 12  8  2  0  0  0  0
 14 21  2  0  0  0  0
 15 14  1  0  0  0  0
 16 23  1  0  0  0  0
 16 14  1  0  0  0  0
 17  5  1  0  0  0  0
 18 31  1  0  0  0  0
 19  2  1  1  0  0  0
 19 18  1  0  0  0  0
 21 32  1  0  0  0  0
 22 32  1  0  0  0  0
 25 30  1  0  0  0  0
 25  1  1  1  0  0  0
 26 27  1  0  0  0  0
 28 26  2  0  0  0  0
 29 24  1  1  0  0  0
 29  4  1  0  0  0  0
 30 28  1  1  0  0  0
 30 17  1  0  0  0  0
 31 20  1  0  0  0  0
 31  7  2  0  0  0  0
 32 10  2  0  0  0  0
 34 36  1  0  0  0  0
 34 33  1  1  0  0  0
 34 35  1  0  0  0  0
 35 25  1  6  0  0  0
 36 33  1  1  0  0  0
 36 35  1  0  0  0  0
 37 28  1  0  0  0  0
 38 37  1  0  0  0  0
 39 42  1  0  0  0  0
 39 38  1  0  0  0  0
 40 46  1  0  0  0  0
 41 43  2  0  0  0  0
 42 41  1  0  0  0  0
 42 45  2  0  0  0  0
 43 46  1  0  0  0  0
 44 40  2  0  0  0  0
 45 44  1  0  0  0  0
 47 44  1  0  0  0  0
M  END
>  <MODEL>
3

>  <REMARK>
 VINA RESULT:      -7.4      4.821      8.561
  Name = 
  5 active torsions:
  status: ('A' for Active; 'I' for Inactive)
    1  A    between atoms: C_5  and  C_30
    2  A    between atoms: C_19  and  C_31
    3  A    between atoms: C_19  and  C_42
    4  A    between atoms: C_30  and  C_31
    5  A    between atoms: C_37  and  N_38
                            x       y       z     vdW  Elec       q    Type
                         _______ _______ _______ _____ _____    ______ ____

>  <TORSDO>
F 5

$$$$
=
 OpenBabel11032420473D

 47 55  0  0  1  0  0  0  0  0999 V2000
  191.5910  176.2450  134.9580 C   0  0  0  0  0  2  0  0  0  0  0  0
  186.3410  172.9660  136.0730 C   0  0  0  0  0  0  0  0  0  0  0  0
  190.6570  173.4110  135.1120 N   0  0  0  0  0  2  0  0  0  0  0  0
  192.0270  173.2080  134.8990 N   0  0  0  0  0  2  0  0  0  0  0  0
  187.8750  174.9680  135.6180 C   0  0  1  0  0  3  0  0  0  0  0  0
  196.0370  176.7590  134.5940 C   0  0  1  0  0  3  0  0  0  0  0  0
  188.6390  170.4460  134.8550 C   0  0  0  0  0  3  0  0  0  0  0  0
  189.8840  171.0720  134.7010 C   0  0  0  0  0  3  0  0  0  0  0  0
  185.3640  173.4920  136.6650 O   0  0  0  0  0  0  0  0  0  0  0  0
  194.4000  173.6320  137.5750 N   0  0  0  0  0  0  0  0  0  0  0  0
  192.9070  175.5140  135.2920 C   0  0  1  0  0  3  0  0  0  0  0  0
  189.6540  172.4370  134.8200 C   0  0  0  0  0  0  0  0  0  0  0  0
  196.2500  178.1830  134.7990 N   0  0  0  0  0  1  0  0  0  0  0  0
  196.3720  175.4250  136.1080 C   0  0  0  0  0  0  0  0  0  0  0  0
  197.1950  176.0280  135.0160 C   0  0  0  0  0  2  0  0  0  0  0  0
  195.2140  176.2280  135.6590 N   0  0  0  0  0  0  0  0  0  0  0  0
  188.9740  175.4550  134.8790 N   0  0  0  0  0  2  0  0  0  0  0  0
  188.3360  172.6600  134.9700 N   0  0  0  0  0  0  0  0  0  0  0  0
  187.5420  173.6630  135.5860 C   0  0  2  0  0  3  0  0  0  0  0  0
  186.4040  171.5050  135.7000 C   0  0  0  0  0  2  0  0  0  0  0  0
  196.6010  174.5560  137.0890 C   0  0  0  0  0  3  0  0  0  0  0  0
  195.7760  174.1520  139.4010 N   0  0  0  0  0  1  0  0  0  0  0  0
  193.8410  176.4100  136.0980 C   0  0  0  0  0  2  0  0  0  0  0  0
  194.0730  173.4270  136.1680 C   0  0  0  0  0  2  0  0  0  0  0  0
  190.6900  176.6640  136.0600 N   0  0  1  0  0  0  0  0  0  0  0  0
  187.3640  176.0600  136.4460 C   0  0  0  0  0  0  0  0  0  0  0  0
  186.0840  176.0980  137.2080 C   0  0  0  0  0  1  0  0  0  0  0  0
  188.2170  177.0860  136.3460 C   0  0  0  0  0  0  0  0  0  0  0  0
  192.7370  174.0710  135.8430 C   0  0  2  0  0  3  0  0  0  0  0  0
  189.3580  176.7480  135.4160 C   0  0  2  0  0  3  0  0  0  0  0  0
  187.7390  171.4800  135.0250 C   0  0  0  0  0  0  0  0  0  0  0  0
  195.5340  174.1040  138.0020 C   0  0  0  0  0  0  0  0  0  0  0  0
  191.0250  175.8190  139.6070 C   0  0  0  0  0  2  0  0  0  0  0  0
  191.6500  176.1150  138.2580 C   0  0  1  0  0  3  0  0  0  0  0  0
  190.6760  175.6910  137.1680 C   0  0  1  0  0  3  0  0  0  0  0  0
  190.1830  176.3340  138.4570 C   0  0  1  0  0  3  0  0  0  0  0  0
  187.9580  178.4720  136.8550 C   0  0  0  0  0  2  0  0  0  0  0  0
  188.3250  178.6090  138.3270 C   0  0  0  0  0  2  0  0  0  0  0  0
  187.0690  178.5980  139.1860 C   0  0  0  0  0  2  0  0  0  0  0  0
  188.6000  177.5700  143.3580 C   0  0  0  0  0  3  0  0  0  0  0  0
  186.3680  178.7310  141.6220 C   0  0  0  0  0  3  0  0  0  0  0  0
  187.4080  178.4030  140.6280 C   0  0  0  0  0  0  0  0  0  0  0  0
  186.2730  178.1950  142.8380 C   0  0  0  0  0  3  0  0  0  0  0  0
  189.2720  177.9870  142.2850 C   0  0  0  0  0  0  0  0  0  0  0  0
  188.6810  178.1160  140.9350 C   0  0  0  0  0  3  0  0  0  0  0  0
  187.1810  177.1150  143.3180 C   0  0  0  0  0  2  0  0  0  0  0  0
  190.5870  178.2740  142.4290 F   0  0  0  0  0  0  0  0  0  0  0  0
  2  9  2  0  0  0  0
  4  3  1  0  0  0  0
  4 29  1  0  0  0  0
  5 17  1  1  0  0  0
  5 26  1  0  0  0  0
  6 13  1  1  0  0  0
  6 15  1  0  0  0  0
  6 16  1  0  0  0  0
  7 31  2  0  0  0  0
  8 12  2  0  0  0  0
  8  7  1  0  0  0  0
 10 32  2  0  0  0  0
 11  1  1  1  0  0  0
 11 29  1  0  0  0  0
 11 23  1  0  0  0  0
 12 18  1  0  0  0  0
 12  3  1  0  0  0  0
 14 21  2  0  0  0  0
 15 14  1  0  0  0  0
 16 23  1  0  0  0  0
 16 14  1  0  0  0  0
 18 31  1  0  0  0  0
 18 19  1  0  0  0  0
 19  5  1  0  0  0  0
 19  2  1  6  0  0  0
 20  2  1  0  0  0  0
 21 32  1  0  0  0  0
 24 10  1  0  0  0  0
 25  1  1  6  0  0  0
 26 27  1  0  0  0  0
 28 26  2  0  0  0  0
 28 37  1  0  0  0  0
 29 24  1  6  0  0  0
 30 17  1  1  0  0  0
 30 25  1  0  0  0  0
 30 28  1  0  0  0  0
 31 20  1  0  0  0  0
 32 22  1  0  0  0  0
 34 36  1  0  0  0  0
 34 33  1  1  0  0  0
 35 25  1  6  0  0  0
 35 34  1  0  0  0  0
 35 36  1  0  0  0  0
 36 33  1  1  0  0  0
 37 38  1  0  0  0  0
 38 39  1  0  0  0  0
 39 42  1  0  0  0  0
 41 43  2  0  0  0  0
 42 45  2  0  0  0  0
 42 41  1  0  0  0  0
 43 46  1  0  0  0  0
 44 47  1  0  0  0  0
 44 40  2  0  0  0  0
 45 44  1  0  0  0  0
 46 40  1  0  0  0  0
M  END
>  <MODEL>
4

>  <REMARK>
 VINA RESULT:      -7.3      6.589     10.276
  Name = 
  5 active torsions:
  status: ('A' for Active; 'I' for Inactive)
    1  A    between atoms: C_5  and  C_30
    2  A    between atoms: C_19  and  C_31
    3  A    between atoms: C_19  and  C_42
    4  A    between atoms: C_30  and  C_31
    5  A    between atoms: C_37  and  N_38
                            x       y       z     vdW  Elec       q    Type
                         _______ _______ _______ _____ _____    ______ ____

>  <TORSDO>
F 5

$$$$
=
 OpenBabel11032420473D

 47 55  0  0  1  0  0  0  0  0999 V2000
  184.9210  179.7240  138.4210 C   0  0  0  0  0  2  0  0  0  0  0  0
  189.9490  176.5280  140.4390 C   0  0  0  0  0  0  0  0  0  0  0  0
  186.0370  178.5770  140.9440 N   0  0  0  0  0  2  0  0  0  0  0  0
  184.8030  179.0470  141.4120 N   0  0  0  0  0  2  0  0  0  0  0  0
  188.4180  177.8700  138.8810 C   0  0  1  0  0  3  0  0  0  0  0  0
  180.7170  181.2670  138.7380 C   0  0  1  0  0  3  0  0  0  0  0  0
  188.3160  177.5180  143.5160 C   0  0  0  0  0  3  0  0  0  0  0  0
  187.1080  178.1310  143.1570 C   0  0  0  0  0  3  0  0  0  0  0  0
  190.6730  175.8890  139.6340 O   0  0  0  0  0  0  0  0  0  0  0  0
  181.7610  177.2390  140.7440 N   0  0  0  0  0  0  0  0  0  0  0  0
  183.6380  179.5270  139.2540 C   0  0  1  0  0  3  0  0  0  0  0  0
  187.1690  178.3410  141.7840 C   0  0  0  0  0  0  0  0  0  0  0  0
  180.3240  181.5190  137.3600 N   0  0  0  0  0  1  0  0  0  0  0  0
  180.1060  179.5700  139.7020 C   0  0  0  0  0  0  0  0  0  0  0  0
  179.5600  180.9490  139.5230 C   0  0  0  0  0  2  0  0  0  0  0  0
  181.2630  179.9330  138.8550 N   0  0  0  0  0  0  0  0  0  0  0  0
  187.5230  178.9550  138.7720 N   0  0  0  0  0  2  0  0  0  0  0  0
  188.3690  177.9470  141.3210 N   0  0  0  0  0  0  0  0  0  0  0  0
  188.8670  177.4610  140.0840 C   0  0  2  0  0  3  0  0  0  0  0  0
  190.1270  176.4890  141.9370 C   0  0  0  0  0  2  0  0  0  0  0  0
  179.7000  178.4720  140.3340 C   0  0  0  0  0  3  0  0  0  0  0  0
  179.8950  176.0100  140.0300 N   0  0  0  0  0  1  0  0  0  0  0  0
  182.4410  179.2460  138.3520 C   0  0  0  0  0  2  0  0  0  0  0  0
  182.4770  178.4150  141.2270 C   0  0  0  0  0  2  0  0  0  0  0  0
  185.4440  178.5980  137.6080 N   0  0  1  0  0  0  0  0  0  0  0  0
  188.5790  177.2780  137.5540 C   0  0  0  0  0  0  0  0  0  0  0  0
  189.5930  176.2730  137.1260 C   0  0  0  0  0  1  0  0  0  0  0  0
  187.6940  177.8570  136.7340 C   0  0  0  0  0  0  0  0  0  0  0  0
  183.7850  178.5750  140.4730 C   0  0  2  0  0  3  0  0  0  0  0  0
  186.8880  178.9030  137.4670 C   0  0  2  0  0  3  0  0  0  0  0  0
  189.0350  177.4290  142.3390 C   0  0  0  0  0  0  0  0  0  0  0  0
  180.5140  177.2420  140.3740 C   0  0  0  0  0  0  0  0  0  0  0  0
  183.8450  175.3110  137.8320 C   0  0  0  0  0  2  0  0  0  0  0  0
  183.8170  176.8090  138.0650 C   0  0  1  0  0  3  0  0  0  0  0  0
  185.2450  177.2950  138.2690 C   0  0  1  0  0  3  0  0  0  0  0  0
  184.9220  176.2070  137.2540 C   0  0  1  0  0  3  0  0  0  0  0  0
  187.6740  177.7030  135.2440 C   0  0  0  0  0  2  0  0  0  0  0  0
  186.7790  176.5500  134.8090 C   0  0  0  0  0  2  0  0  0  0  0  0
  187.6070  175.2930  134.5940 C   0  0  0  0  0  2  0  0  0  0  0  0
  185.1110  172.0500  136.6110 C   0  0  0  0  0  3  0  0  0  0  0  0
  187.8700  173.2610  136.0930 C   0  0  0  0  0  3  0  0  0  0  0  0
  186.9870  174.1180  135.2790 C   0  0  0  0  0  0  0  0  0  0  0  0
  187.4760  172.5160  137.1250 C   0  0  0  0  0  3  0  0  0  0  0  0
  184.9340  172.6500  135.4340 C   0  0  0  0  0  0  0  0  0  0  0  0
  185.7170  173.8160  134.9710 C   0  0  0  0  0  3  0  0  0  0  0  0
  186.0790  172.5240  137.6410 C   0  0  0  0  0  2  0  0  0  0  0  0
  183.9510  172.1890  134.6260 F   0  0  0  0  0  0  0  0  0  0  0  0
  1 11  1  0  0  0  0
  2 20  1  0  0  0  0
  3  4  1  0  0  0  0
  3 12  1  0  0  0  0
  5 26  1  1  0  0  0
  5 19  1  0  0  0  0
  6 13  1  6  0  0  0
  6 16  1  0  0  0  0
  6 15  1  0  0  0  0
  8  7  1  0  0  0  0
  9  2  2  0  0  0  0
 10 24  1  0  0  0  0
 11 23  1  6  0  0  0
 11 29  1  0  0  0  0
 12  8  2  0  0  0  0
 14 21  2  0  0  0  0
 15 14  1  0  0  0  0
 16 14  1  0  0  0  0
 17  5  1  0  0  0  0
 18 12  1  0  0  0  0
 18 31  1  0  0  0  0
 19  2  1  6  0  0  0
 19 18  1  0  0  0  0
 20 31  1  0  0  0  0
 21 32  1  0  0  0  0
 22 32  1  0  0  0  0
 23 16  1  0  0  0  0
 25  1  1  1  0  0  0
 27 26  1  0  0  0  0
 28 26  2  0  0  0  0
 29 24  1  1  0  0  0
 29  4  1  0  0  0  0
 30 28  1  6  0  0  0
 30 25  1  0  0  0  0
 30 17  1  0  0  0  0
 31  7  2  0  0  0  0
 32 10  2  0  0  0  0
 34 33  1  1  0  0  0
 34 35  1  0  0  0  0
 35 25  1  6  0  0  0
 36 33  1  1  0  0  0
 36 34  1  0  0  0  0
 36 35  1  0  0  0  0
 37 28  1  0  0  0  0
 38 37  1  0  0  0  0
 39 38  1  0  0  0  0
 39 42  1  0  0  0  0
 40 46  1  0  0  0  0
 41 43  2  0  0  0  0
 42 41  1  0  0  0  0
 43 46  1  0  0  0  0
 44 40  2  0  0  0  0
 45 42  2  0  0  0  0
 45 44  1  0  0  0  0
 47 44  1  0  0  0  0
M  END
>  <MODEL>
5

>  <REMARK>
 VINA RESULT:      -7.1      3.950      8.798
  Name = 
  5 active torsions:
  status: ('A' for Active; 'I' for Inactive)
    1  A    between atoms: C_5  and  C_30
    2  A    between atoms: C_19  and  C_31
    3  A    between atoms: C_19  and  C_42
    4  A    between atoms: C_30  and  C_31
    5  A    between atoms: C_37  and  N_38
                            x       y       z     vdW  Elec       q    Type
                         _______ _______ _______ _____ _____    ______ ____

>  <TORSDO>
F 5

$$$$
=
 OpenBabel11032420473D

 47 55  0  0  1  0  0  0  0  0999 V2000
  184.9630  177.8760  137.9420 C   0  0  0  0  0  2  0  0  0  0  0  0
  179.5720  181.0560  138.5600 C   0  0  0  0  0  0  0  0  0  0  0  0
  182.6670  178.8240  136.2810 N   0  0  0  0  0  2  0  0  0  0  0  0
  183.3850  178.1020  135.3190 N   0  0  0  0  0  2  0  0  0  0  0  0
  181.8570  180.0580  139.1530 C   0  0  1  0  0  3  0  0  0  0  0  0
  187.8080  175.1110  135.8390 C   0  0  1  0  0  3  0  0  0  0  0  0
  179.9740  180.8130  134.9690 C   0  0  0  0  0  3  0  0  0  0  0  0
  181.0940  180.0020  134.7390 C   0  0  0  0  0  3  0  0  0  0  0  0
  179.0260  181.1890  139.6850 O   0  0  0  0  0  0  0  0  0  0  0  0
  183.2690  174.5030  135.2360 N   0  0  0  0  0  0  0  0  0  0  0  0
  185.0050  176.8720  136.7710 C   0  0  1  0  0  3  0  0  0  0  0  0
  181.7290  179.8550  135.9670 C   0  0  0  0  0  0  0  0  0  0  0  0
  188.6590  174.5980  136.9010 N   0  0  0  0  0  1  0  0  0  0  0  0
  186.2640  173.9880  135.1050 C   0  0  0  0  0  0  0  0  0  0  0  0
  187.7140  174.1470  134.7820 C   0  0  0  0  0  2  0  0  0  0  0  0
  186.4180  174.9610  136.2080 N   0  0  0  0  0  0  0  0  0  0  0  0
  183.1690  179.7940  138.7050 N   0  0  0  0  0  2  0  0  0  0  0  0
  181.0880  180.5860  136.8960 N   0  0  0  0  0  0  0  0  0  0  0  0
  180.9120  180.5060  138.3030 C   0  0  2  0  0  3  0  0  0  0  0  0
  178.9440  181.5140  137.2670 C   0  0  0  0  0  2  0  0  0  0  0  0
  185.2670  173.2540  134.6190 C   0  0  0  0  0  3  0  0  0  0  0  0
  183.2010  172.1730  135.4890 N   0  0  0  0  0  1  0  0  0  0  0  0
  185.5490  175.5230  137.2290 C   0  0  0  0  0  2  0  0  0  0  0  0
  183.8200  175.7820  134.8000 C   0  0  0  0  0  2  0  0  0  0  0  0
  184.0850  177.6030  139.1060 N   0  0  1  0  0  0  0  0  0  0  0  0
  181.7550  179.6230  140.5440 C   0  0  0  0  0  0  0  0  0  0  0  0
  180.6530  179.9090  141.5070 C   0  0  0  0  0  1  0  0  0  0  0  0
  182.8820  178.9700  140.8550 C   0  0  0  0  0  0  0  0  0  0  0  0
  183.7100  176.8060  135.9150 C   0  0  2  0  0  3  0  0  0  0  0  0
  183.8300  178.9450  139.6800 C   0  0  2  0  0  3  0  0  0  0  0  0
  180.0290  181.1250  136.3140 C   0  0  0  0  0  0  0  0  0  0  0  0
  183.8880  173.3650  135.1320 C   0  0  0  0  0  0  0  0  0  0  0  0
  181.4170  175.1540  139.6470 C   0  0  0  0  0  2  0  0  0  0  0  0
  182.8100  175.4980  139.1600 C   0  0  1  0  0  3  0  0  0  0  0  0
  182.8220  176.9530  138.7110 C   0  0  1  0  0  3  0  0  0  0  0  0
  182.0250  176.5130  139.9310 C   0  0  1  0  0  3  0  0  0  0  0  0
  183.2800  178.5540  142.2390 C   0  0  0  0  0  2  0  0  0  0  0  0
  184.7910  178.4180  142.3740 C   0  0  0  0  0  2  0  0  0  0  0  0
  185.1920  178.4360  143.8400 C   0  0  0  0  0  2  0  0  0  0  0  0
  189.4750  177.3840  145.0070 C   0  0  0  0  0  3  0  0  0  0  0  0
  187.3960  177.7360  142.7930 C   0  0  0  0  0  3  0  0  0  0  0  0
  186.6100  177.9990  144.0140 C   0  0  0  0  0  0  0  0  0  0  0  0
  188.7220  177.8240  142.7010 C   0  0  0  0  0  3  0  0  0  0  0  0
  188.3350  177.1500  145.6570 C   0  0  0  0  0  0  0  0  0  0  0  0
  187.0230  177.7020  145.2550 C   0  0  0  0  0  3  0  0  0  0  0  0
  189.5810  178.2880  143.8270 C   0  0  0  0  0  2  0  0  0  0  0  0
  188.3850  176.3930  146.7780 F   0  0  0  0  0  0  0  0  0  0  0  0
  2  9  2  0  0  0  0
  4 29  1  0  0  0  0
  4  3  1  0  0  0  0
  5 17  1  6  0  0  0
  5 26  1  0  0  0  0
  6 16  1  0  0  0  0
  6 13  1  1  0  0  0
  7 31  2  0  0  0  0
  8  7  1  0  0  0  0
  8 12  2  0  0  0  0
 11 23  1  1  0  0  0
 11  1  1  0  0  0  0
 12  3  1  0  0  0  0
 12 18  1  0  0  0  0
 14 16  1  0  0  0  0
 15 14  1  0  0  0  0
 15  6  1  0  0  0  0
 16 23  1  0  0  0  0
 18 19  1  0  0  0  0
 19  2  1  1  0  0  0
 19  5  1  0  0  0  0
 20  2  1  0  0  0  0
 21 14  2  0  0  0  0
 21 32  1  0  0  0  0
 24 10  1  0  0  0  0
 25  1  1  6  0  0  0
 25 30  1  0  0  0  0
 26 28  2  0  0  0  0
 26 27  1  0  0  0  0
 28 37  1  0  0  0  0
 29 24  1  6  0  0  0
 29 11  1  0  0  0  0
 30 17  1  6  0  0  0
 30 28  1  0  0  0  0
 31 18  1  0  0  0  0
 31 20  1  0  0  0  0
 32 10  2  0  0  0  0
 32 22  1  0  0  0  0
 34 33  1  6  0  0  0
 34 36  1  0  0  0  0
 35 25  1  1  0  0  0
 35 34  1  0  0  0  0
 35 36  1  0  0  0  0
 36 33  1  6  0  0  0
 37 38  1  0  0  0  0
 38 39  1  0  0  0  0
 39 42  1  0  0  0  0
 40 44  2  0  0  0  0
 41 42  1  0  0  0  0
 42 45  2  0  0  0  0
 43 41  2  0  0  0  0
 43 46  1  0  0  0  0
 44 47  1  0  0  0  0
 45 44  1  0  0  0  0
 46 40  1  0  0  0  0
M  END
>  <MODEL>
6

>  <REMARK>
 VINA RESULT:      -6.4      1.591      2.123
  Name = 
  5 active torsions:
  status: ('A' for Active; 'I' for Inactive)
    1  A    between atoms: C_5  and  C_30
    2  A    between atoms: C_19  and  C_31
    3  A    between atoms: C_19  and  C_42
    4  A    between atoms: C_30  and  C_31
    5  A    between atoms: C_37  and  N_38
                            x       y       z     vdW  Elec       q    Type
                         _______ _______ _______ _____ _____    ______ ____

>  <TORSDO>
F 5

$$$$
=
 OpenBabel11032420473D

 47 55  0  0  1  0  0  0  0  0999 V2000
  191.2460  176.2010  135.0720 C   0  0  0  0  0  2  0  0  0  0  0  0
  185.9050  173.1510  136.3870 C   0  0  0  0  0  0  0  0  0  0  0  0
  190.2110  173.4080  135.3170 N   0  0  0  0  0  2  0  0  0  0  0  0
  191.5660  173.1490  135.0770 N   0  0  0  0  0  2  0  0  0  0  0  0
  187.5020  175.0820  135.8490 C   0  0  1  0  0  3  0  0  0  0  0  0
  195.6980  176.5360  134.5940 C   0  0  1  0  0  3  0  0  0  0  0  0
  188.0780  170.5170  135.1790 C   0  0  0  0  0  3  0  0  0  0  0  0
  189.3410  171.0910  134.9810 C   0  0  0  0  0  3  0  0  0  0  0  0
  184.9630  173.7280  136.9880 O   0  0  0  0  0  0  0  0  0  0  0  0
  194.0170  173.5460  137.6870 N   0  0  0  0  0  0  0  0  0  0  0  0
  192.5420  175.4280  135.3930 C   0  0  1  0  0  3  0  0  0  0  0  0
  189.1650  172.4670  135.0720 C   0  0  0  0  0  0  0  0  0  0  0  0
  195.9700  177.9560  134.7590 N   0  0  0  0  0  1  0  0  0  0  0  0
  196.0190  175.2270  136.1320 C   0  0  0  0  0  0  0  0  0  0  0  0
  196.8380  175.7720  135.0070 C   0  0  0  0  0  2  0  0  0  0  0  0
  194.8820  176.0620  135.6900 N   0  0  0  0  0  0  0  0  0  0  0  0
  188.6000  175.5090  135.0720 N   0  0  0  0  0  2  0  0  0  0  0  0
  187.8600  172.7430  135.2470 N   0  0  0  0  0  0  0  0  0  0  0  0
  187.1190  173.7900  135.8560 C   0  0  2  0  0  3  0  0  0  0  0  0
  185.9040  171.6800  136.0480 C   0  0  0  0  0  2  0  0  0  0  0  0
  196.2380  174.3730  137.1290 C   0  0  0  0  0  3  0  0  0  0  0  0
  195.4550  174.0550  139.4690 N   0  0  0  0  0  1  0  0  0  0  0  0
  193.5270  176.3070  136.1560 C   0  0  0  0  0  2  0  0  0  0  0  0
  193.6490  173.3200  136.2930 C   0  0  0  0  0  2  0  0  0  0  0  0
  190.3880  176.6790  136.1840 N   0  0  1  0  0  0  0  0  0  0  0  0
  187.0520  176.2110  136.6600 C   0  0  0  0  0  0  0  0  0  0  0  0
  185.7920  176.3170  137.4510 C   0  0  0  0  0  1  0  0  0  0  0  0
  187.9400  177.2020  136.5160 C   0  0  0  0  0  0  0  0  0  0  0  0
  192.3300  174.0060  135.9830 C   0  0  2  0  0  3  0  0  0  0  0  0
  189.0450  176.7990  135.5680 C   0  0  2  0  0  3  0  0  0  0  0  0
  187.2210  171.5890  135.3440 C   0  0  0  0  0  0  0  0  0  0  0  0
  195.1780  173.9830  138.0770 C   0  0  0  0  0  0  0  0  0  0  0  0
  190.7890  175.9030  139.7400 C   0  0  0  0  0  2  0  0  0  0  0  0
  191.3870  176.1390  138.3670 C   0  0  1  0  0  3  0  0  0  0  0  0
  190.3640  175.7350  137.3150 C   0  0  1  0  0  3  0  0  0  0  0  0
  189.9370  176.4280  138.6020 C   0  0  1  0  0  3  0  0  0  0  0  0
  187.7460  178.6080  136.9970 C   0  0  0  0  0  2  0  0  0  0  0  0
  187.0290  178.6500  138.3400 C   0  0  0  0  0  2  0  0  0  0  0  0
  188.0400  178.6270  139.4770 C   0  0  0  0  0  2  0  0  0  0  0  0
  185.6250  178.1590  143.3190 C   0  0  0  0  0  3  0  0  0  0  0  0
  188.1310  177.4420  141.7200 C   0  0  0  0  0  3  0  0  0  0  0  0
  187.3800  178.2900  140.7740 C   0  0  0  0  0  0  0  0  0  0  0  0
  187.9650  177.4360  143.0420 C   0  0  0  0  0  3  0  0  0  0  0  0
  185.2040  178.3060  142.0630 C   0  0  0  0  0  0  0  0  0  0  0  0
  186.0900  178.6270  140.9230 C   0  0  0  0  0  3  0  0  0  0  0  0
  187.0380  178.3670  143.7450 C   0  0  0  0  0  2  0  0  0  0  0  0
  183.8780  178.1930  141.8190 F   0  0  0  0  0  0  0  0  0  0  0  0
  2  9  2  0  0  0  0
  4  3  1  0  0  0  0
  4 29  1  0  0  0  0
  5 17  1  1  0  0  0
  5 19  1  0  0  0  0
  5 26  1  0  0  0  0
  6 13  1  1  0  0  0
  6 15  1  0  0  0  0
  6 16  1  0  0  0  0
  7 31  2  0  0  0  0
  8 12  2  0  0  0  0
  8  7  1  0  0  0  0
 10 32  2  0  0  0  0
 11  1  1  1  0  0  0
 11 29  1  0  0  0  0
 11 23  1  0  0  0  0
 12 18  1  0  0  0  0
 12  3  1  0  0  0  0
 14 21  2  0  0  0  0
 15 14  1  0  0  0  0
 16 14  1  0  0  0  0
 16 23  1  0  0  0  0
 18 31  1  0  0  0  0
 18 19  1  0  0  0  0
 19  2  1  6  0  0  0
 20  2  1  0  0  0  0
 21 32  1  0  0  0  0
 24 10  1  0  0  0  0
 25  1  1  6  0  0  0
 26 27  1  0  0  0  0
 28 26  2  0  0  0  0
 28 37  1  0  0  0  0
 29 24  1  6  0  0  0
 30 17  1  1  0  0  0
 30 25  1  0  0  0  0
 30 28  1  0  0  0  0
 31 20  1  0  0  0  0
 32 22  1  0  0  0  0
 34 36  1  0  0  0  0
 34 33  1  1  0  0  0
 35 25  1  6  0  0  0
 35 34  1  0  0  0  0
 35 36  1  0  0  0  0
 36 33  1  1  0  0  0
 37 38  1  0  0  0  0
 38 39  1  0  0  0  0
 39 42  1  0  0  0  0
 40 46  1  0  0  0  0
 41 43  2  0  0  0  0
 42 45  2  0  0  0  0
 42 41  1  0  0  0  0
 43 46  1  0  0  0  0
 44 40  2  0  0  0  0
 45 44  1  0  0  0  0
 47 44  1  0  0  0  0
M  END
>  <MODEL>
7

>  <REMARK>
 VINA RESULT:      -6.3      6.326      9.992
  Name = 
  5 active torsions:
  status: ('A' for Active; 'I' for Inactive)
    1  A    between atoms: C_5  and  C_30
    2  A    between atoms: C_19  and  C_31
    3  A    between atoms: C_19  and  C_42
    4  A    between atoms: C_30  and  C_31
    5  A    between atoms: C_37  and  N_38
                            x       y       z     vdW  Elec       q    Type
                         _______ _______ _______ _____ _____    ______ ____

>  <TORSDO>
F 5

$$$$
