=
 OpenBabel11042409473D

 60 69  0  0  1  0  0  0  0  0999 V2000
  181.3460  179.6010  138.5600 C   0  0  0  0  0  3  0  0  0  0  0  0
  182.7380  177.4130  137.4870 C   0  0  0  0  0  0  0  0  0  0  0  0
  181.3990  179.4260  137.1730 C   0  0  0  0  0  0  0  0  0  0  0  0
  182.6610  177.5950  138.8730 C   0  0  0  0  0  3  0  0  0  0  0  0
  182.1250  178.1420  135.2530 O   0  0  0  0  0  1  0  0  0  0  0  0
  182.0970  178.3300  136.6320 C   0  0  0  0  0  0  0  0  0  0  0  0
  181.9640  178.6800  139.4140 C   0  0  0  0  0  0  0  0  0  0  0  0
  185.9630  178.3520  137.7170 C   0  0  0  0  0  3  0  0  0  0  0  0
  187.4860  175.3120  136.6350 C   0  0  0  0  0  0  0  0  0  0  0  0
  184.8350  176.1300  136.9430 N   0  0  0  0  0  0  0  0  0  0  0  0
  187.2030  178.7210  137.8560 N   0  0  0  0  0  0  0  0  0  0  0  0
  189.2140  177.6110  136.8760 C   0  0  0  0  0  2  0  0  0  0  0  0
  185.0810  174.9260  136.3850 C   0  0  0  0  0  0  0  0  0  0  0  0
  185.8940  176.9080  137.5240 C   0  0  0  0  0  0  0  0  0  0  0  0
  188.6750  175.3340  136.0120 C   0  0  0  0  0  0  0  0  0  0  0  0
  187.1300  176.4580  137.4900 C   0  0  0  0  0  0  0  0  0  0  0  0
  188.0690  177.5400  137.8550 C   0  0  0  0  0  0  0  0  0  0  0  0
  183.9700  174.2700  136.0010 N   0  0  0  0  0  0  0  0  0  0  0  0
  186.4210  174.4420  136.2020 N   0  0  0  0  0  2  0  0  0  0  0  0
  189.5200  176.5680  136.0840 C   0  0  0  0  0  3  0  0  0  0  0  0
  182.9680  175.1150  136.3590 C   0  0  0  0  0  0  0  0  0  0  0  0
  183.4930  176.2630  136.9470 C   0  0  0  0  0  0  0  0  0  0  0  0
  180.8810  174.2620  137.3640 C   0  0  1  0  0  3  0  0  0  0  0  0
  181.2040  173.3600  136.1940 C   0  0  0  0  0  2  0  0  0  0  0  0
  181.5100  174.8500  136.1150 C   0  0  2  0  0  3  0  0  0  0  0  0
  179.3880  174.5150  137.3810 C   0  0  0  0  0  2  0  0  0  0  0  0
  179.0870  173.8140  140.9950 C   0  0  0  0  0  2  0  0  0  0  0  0
  179.3830  176.0930  140.7850 C   0  0  0  0  0  2  0  0  0  0  0  0
  179.9650  175.4340  139.5600 C   0  0  2  0  0  3  0  0  0  0  0  0
  179.1470  175.0470  141.7640 N   0  0  0  0  0  2  0  0  0  0  0  0
  178.9310  174.7160  138.8190 C   0  0  2  0  0  3  0  0  0  0  0  0
  179.8180  173.9840  139.7420 N   0  0  2  0  0  0  0  0  0  0  0  0
  189.0420  174.2680  135.1290 N   0  0  0  0  0  2  0  0  0  0  0  0
  189.8990  173.1750  135.5590 C   0  0  0  0  0  2  0  0  0  0  0  0
  192.1150  172.9620  136.3990 O   0  0  0  0  0  1  0  0  0  0  0  0
  190.9250  173.6740  136.5590 C   0  0  0  0  0  2  0  0  0  0  0  0
  181.8770  178.8390  140.8960 C   0  0  0  0  0  2  0  0  0  0  0  0
  182.9050  177.9460  141.5740 C   0  0  0  0  0  2  0  0  0  0  0  0
  185.1430  178.6810  142.4040 C   0  0  0  0  0  0  0  0  0  0  0  0
  185.6790  178.4330  141.2900 O   0  0  0  0  0  0  0  0  0  0  0  0
  183.7150  178.7210  142.4960 N   0  0  0  0  0  2  0  0  0  0  0  0
  187.0480  177.8540  143.8580 C   0  0  2  0  0  3  0  0  0  0  0  0
  186.0100  178.9790  143.6080 C   0  0  2  0  0  3  0  0  0  0  0  0
  185.5810  178.6110  146.1270 C   0  0  1  0  0  0  0  0  0  0  0  0
  184.3400  178.1970  145.3770 C   0  0  0  0  0  2  0  0  0  0  0  0
  186.7310  177.6130  146.0660 C   0  0  0  0  0  2  0  0  0  0  0  0
  185.1820  179.3690  144.8620 C   0  0  2  0  0  3  0  0  0  0  0  0
  187.6670  178.0250  145.1100 O   0  0  0  0  0  0  0  0  0  0  0  0
  185.3220  179.2740  147.3260 O   0  0  0  0  0  1  0  0  0  0  0  0
  188.0260  177.8980  142.8550 O   0  0  0  0  0  0  0  0  0  0  0  0
  189.0760  177.0860  143.3050 C   0  0  1  0  0  3  0  0  0  0  0  0
  188.6830  175.7430  143.2640 O   0  0  0  0  0  1  0  0  0  0  0  0
  190.3080  177.3100  142.4270 C   0  0  2  0  0  3  0  0  0  0  0  0
  190.0490  176.8720  141.0620 N   0  0  0  0  0  1  0  0  0  0  0  0
  191.5010  176.5580  142.9950 C   0  0  0  0  0  2  0  0  0  0  0  0
  191.5290  176.6740  144.3850 O   0  0  0  0  0  1  0  0  0  0  0  0
  180.6820  180.3880  136.2900 C   0  0  0  0  0  2  0  0  0  0  0  0
  179.8340  181.3410  137.1100 C   0  0  0  0  0  2  0  0  0  0  0  0
  180.5900  182.8170  135.2790 C   0  0  0  0  0  1  0  0  0  0  0  0
  180.1780  182.7630  136.7310 C   0  0  0  0  0  2  0  0  0  0  0  0
  1  7  1  0  0  0  0
  2  4  1  0  0  0  0
  3  1  2  0  0  0  0
  4  7  2  0  0  0  0
  5  6  1  0  0  0  0
  6  3  1  0  0  0  0
  6  2  2  0  0  0  0
  7 37  1  0  0  0  0
  8 11  1  0  0  0  0
  9 16  2  0  0  0  0
 10 22  1  0  0  0  0
 10 14  1  0  0  0  0
 12 17  1  0  0  0  0
 13 10  1  0  0  0  0
 14  8  2  0  0  0  0
 15 20  2  0  0  0  0
 15  9  1  0  0  0  0
 16 14  1  0  0  0  0
 16 17  1  0  0  0  0
 17 11  2  0  0  0  0
 18 21  1  0  0  0  0
 18 13  2  0  0  0  0
 19 13  1  0  0  0  0
 19  9  1  0  0  0  0
 20 12  1  0  0  0  0
 21 22  2  0  0  0  0
 22  2  1  0  0  0  0
 23 26  1  6  0  0  0
 24 23  1  0  0  0  0
 25 24  1  0  0  0  0
 25 21  1  1  0  0  0
 25 23  1  0  0  0  0
 27 30  1  0  0  0  0
 28 30  1  0  0  0  0
 29 32  1  0  0  0  0
 29 28  1  1  0  0  0
 31 26  1  6  0  0  0
 31 29  1  0  0  0  0
 31 32  1  0  0  0  0
 32 27  1  1  0  0  0
 33 34  1  0  0  0  0
 33 15  1  0  0  0  0
 34 36  1  0  0  0  0
 35 36  1  0  0  0  0
 37 38  1  0  0  0  0
 38 41  1  0  0  0  0
 39 41  1  0  0  0  0
 40 39  2  0  0  0  0
 42 50  1  6  0  0  0
 42 48  1  0  0  0  0
 43 39  1  6  0  0  0
 43 42  1  0  0  0  0
 43 47  1  0  0  0  0
 44 49  1  1  0  0  0
 45 44  1  0  0  0  0
 46 44  1  0  0  0  0
 47 45  1  6  0  0  0
 47 44  1  0  0  0  0
 48 46  1  0  0  0  0
 50 51  1  0  0  0  0
 51 52  1  6  0  0  0
 53 54  1  6  0  0  0
 53 55  1  0  0  0  0
 53 51  1  0  0  0  0
 55 56  1  0  0  0  0
 57 58  1  0  0  0  0
 57  3  1  0  0  0  0
 59 60  1  0  0  0  0
 60 58  1  0  0  0  0
M  END
>  <MODEL>
1

>  <REMARK>
 VINA RESULT:      -7.3      0.000      0.000
  Name = 
  18 active torsions:
  status: ('A' for Active; 'I' for Inactive)
    1  A    between atoms: C_2  and  C_11
    2  A    between atoms: C_6  and  C_51
    3  A    between atoms: C_9  and  O_27
    4  A    between atoms: C_12  and  C_54
    5  A    between atoms: C_13  and  C_52
    6  A    between atoms: C_13  and  C_54
    7  A    between atoms: N_20  and  C_24
    8  A    between atoms: N_20  and  C_35
    9  A    between atoms: C_21  and  C_38
   10  A    between atoms: C_21  and  C_58
   11  A    between atoms: O_27  and  C_41
   12  A    between atoms: C_30  and  CA_49
   13  A    between atoms: C_31  and  C_33
   14  A    between atoms: C_33  and  C_45
   15  A    between atoms: C_35  and  C_44
   16  A    between atoms: C_36  and  C_47
   17  A    between atoms: C_38  and  N_57
   18  A    between atoms: C_41  and  CA_49
                            x       y       z     vdW  Elec       q    Type
                         _______ _______ _______ _____ _____    ______ ____

>  <TORSDO>
F 18

$$$$
=
 OpenBabel11042409473D

 60 69  0  0  1  0  0  0  0  0999 V2000
  186.3180  176.0950  137.1400 C   0  0  0  0  0  3  0  0  0  0  0  0
  188.9540  176.3480  138.0680 C   0  0  0  0  0  0  0  0  0  0  0  0
  187.1530  174.9730  137.1700 C   0  0  0  0  0  0  0  0  0  0  0  0
  188.1000  177.4570  138.0450 C   0  0  0  0  0  3  0  0  0  0  0  0
  189.2960  173.9730  137.6910 O   0  0  0  0  0  1  0  0  0  0  0  0
  188.4750  175.0970  137.6350 C   0  0  0  0  0  0  0  0  0  0  0  0
  186.7830  177.3360  137.5890 C   0  0  0  0  0  0  0  0  0  0  0  0
  190.8410  175.0770  135.5860 C   0  0  0  0  0  3  0  0  0  0  0  0
  194.0610  175.8800  136.8940 C   0  0  0  0  0  0  0  0  0  0  0  0
  191.4590  176.2520  137.8330 N   0  0  0  0  0  0  0  0  0  0  0  0
  191.5480  174.6200  134.5940 N   0  0  0  0  0  0  0  0  0  0  0  0
  193.9950  174.1210  134.6070 C   0  0  0  0  0  3  0  0  0  0  0  0
  192.4900  176.5680  138.6420 C   0  0  0  0  0  0  0  0  0  0  0  0
  191.6780  175.8920  136.4580 C   0  0  0  0  0  0  0  0  0  0  0  0
  195.1240  175.1140  136.5980 C   0  0  0  0  0  0  0  0  0  0  0  0
  192.9040  175.8420  135.9830 C   0  0  0  0  0  0  0  0  0  0  0  0
  192.9060  175.1630  134.6710 C   0  0  2  0  0  3  0  0  0  0  0  0
  192.1120  177.0020  139.8580 N   0  0  0  0  0  0  0  0  0  0  0  0
  193.8550  176.4060  138.2200 N   0  0  0  0  0  2  0  0  0  0  0  0
  195.0380  174.1500  135.4560 C   0  0  0  0  0  3  0  0  0  0  0  0
  190.7550  176.9680  139.7940 C   0  0  0  0  0  0  0  0  0  0  0  0
  190.3440  176.5120  138.5440 C   0  0  0  0  0  0  0  0  0  0  0  0
  190.6470  177.4490  142.2130 C   0  0  1  0  0  3  0  0  0  0  0  0
  189.7890  176.2280  141.9710 C   0  0  0  0  0  2  0  0  0  0  0  0
  189.8440  177.3390  140.9300 C   0  0  2  0  0  3  0  0  0  0  0  0
  189.9410  178.3460  143.2090 C   0  0  0  0  0  2  0  0  0  0  0  0
  189.9460  177.4910  146.8020 C   0  0  0  0  0  2  0  0  0  0  0  0
  191.7810  176.4470  145.8710 C   0  0  0  0  0  2  0  0  0  0  0  0
  190.7710  176.6770  144.7750 C   0  0  2  0  0  3  0  0  0  0  0  0
  191.1030  176.6740  147.1340 N   0  0  0  0  0  2  0  0  0  0  0  0
  190.5200  178.1050  144.5970 C   0  0  2  0  0  3  0  0  0  0  0  0
  189.5910  177.2890  145.4000 N   0  0  2  0  0  0  0  0  0  0  0  0
  196.2490  175.0770  137.4810 N   0  0  0  0  0  2  0  0  0  0  0  0
  197.6140  175.0180  136.9830 C   0  0  0  0  0  2  0  0  0  0  0  0
  199.0020  175.4380  138.8690 O   0  0  0  0  0  1  0  0  0  0  0  0
  198.5320  174.4230  138.0340 C   0  0  0  0  0  2  0  0  0  0  0  0
  185.8850  178.5280  137.5970 C   0  0  0  0  0  2  0  0  0  0  0  0
  184.4710  178.1150  137.2210 C   0  0  0  0  0  2  0  0  0  0  0  0
  183.6600  178.7340  139.5010 C   0  0  0  0  0  0  0  0  0  0  0  0
  183.8190  179.9620  139.2650 O   0  0  0  0  0  0  0  0  0  0  0  0
  183.7020  177.8050  138.4120 N   0  0  0  0  0  2  0  0  0  0  0  0
  182.3820  179.2080  141.6380 C   0  0  2  0  0  3  0  0  0  0  0  0
  183.3790  178.2680  140.9130 C   0  0  2  0  0  3  0  0  0  0  0  0
  184.7030  178.6230  143.1010 C   0  0  1  0  0  0  0  0  0  0  0  0
  185.4860  179.2480  141.9740 C   0  0  0  0  0  2  0  0  0  0  0  0
  183.4980  179.4290  143.5700 C   0  0  0  0  0  2  0  0  0  0  0  0
  184.6730  177.9750  141.7170 C   0  0  2  0  0  3  0  0  0  0  0  0
  182.3270  178.9050  143.0100 O   0  0  0  0  0  0  0  0  0  0  0  0
  185.4940  177.9720  144.0470 O   0  0  0  0  0  1  0  0  0  0  0  0
  181.1050  179.0420  141.0830 O   0  0  0  0  0  0  0  0  0  0  0  0
  180.6970  177.7480  141.4350 C   0  0  1  0  0  3  0  0  0  0  0  0
  179.7570  177.8160  142.4690 O   0  0  0  0  0  1  0  0  0  0  0  0
  180.0970  177.0510  140.2130 C   0  0  2  0  0  3  0  0  0  0  0  0
  180.9360  175.9350  139.7980 N   0  0  0  0  0  1  0  0  0  0  0  0
  179.9440  178.0390  139.0670 C   0  0  0  0  0  2  0  0  0  0  0  0
  179.1290  179.1030  139.4520 O   0  0  0  0  0  1  0  0  0  0  0  0
  186.6130  173.6520  136.7420 C   0  0  0  0  0  2  0  0  0  0  0  0
  185.3410  173.3200  137.4990 C   0  0  0  0  0  2  0  0  0  0  0  0
  185.0900  171.8640  135.5180 C   0  0  0  0  0  1  0  0  0  0  0  0
  184.3520  172.6820  136.5520 C   0  0  0  0  0  2  0  0  0  0  0  0
  1  3  2  0  0  0  0
  1  7  1  0  0  0  0
  2 22  1  0  0  0  0
  3  6  1  0  0  0  0
  4  2  1  0  0  0  0
  6  5  1  0  0  0  0
  6  2  2  0  0  0  0
  7 37  1  0  0  0  0
  7  4  2  0  0  0  0
  8 14  1  0  0  0  0
  9 19  1  0  0  0  0
 10 22  1  0  0  0  0
 10 13  1  0  0  0  0
 11 17  1  0  0  0  0
 11  8  2  0  0  0  0
 12 20  2  0  0  0  0
 13 18  2  0  0  0  0
 14 10  1  0  0  0  0
 15  9  2  0  0  0  0
 15 33  1  0  0  0  0
 16 14  2  0  0  0  0
 16  9  1  0  0  0  0
 17 12  1  1  0  0  0
 17 16  1  0  0  0  0
 19 13  1  0  0  0  0
 20 15  1  0  0  0  0
 21 18  1  0  0  0  0
 22 21  2  0  0  0  0
 23 26  1  1  0  0  0
 24 23  1  0  0  0  0
 25 21  1  6  0  0  0
 25 24  1  0  0  0  0
 25 23  1  0  0  0  0
 27 30  1  0  0  0  0
 28 30  1  0  0  0  0
 29 32  1  0  0  0  0
 29 28  1  1  0  0  0
 31 26  1  6  0  0  0
 31 29  1  0  0  0  0
 31 32  1  0  0  0  0
 32 27  1  1  0  0  0
 34 33  1  0  0  0  0
 34 36  1  0  0  0  0
 36 35  1  0  0  0  0
 38 37  1  0  0  0  0
 38 41  1  0  0  0  0
 40 39  2  0  0  0  0
 41 39  1  0  0  0  0
 42 50  1  6  0  0  0
 42 48  1  0  0  0  0
 43 39  1  6  0  0  0
 43 42  1  0  0  0  0
 43 47  1  0  0  0  0
 44 46  1  0  0  0  0
 44 49  1  1  0  0  0
 45 44  1  0  0  0  0
 47 45  1  6  0  0  0
 47 44  1  0  0  0  0
 48 46  1  0  0  0  0
 50 51  1  0  0  0  0
 51 52  1  1  0  0  0
 53 54  1  6  0  0  0
 53 51  1  0  0  0  0
 55 56  1  0  0  0  0
 55 53  1  0  0  0  0
 57  3  1  0  0  0  0
 57 58  1  0  0  0  0
 59 60  1  0  0  0  0
 60 58  1  0  0  0  0
M  END
>  <MODEL>
2

>  <REMARK>
 VINA RESULT:      -7.2      3.347      8.364
  Name = 
  18 active torsions:
  status: ('A' for Active; 'I' for Inactive)
    1  A    between atoms: C_2  and  C_11
    2  A    between atoms: C_6  and  C_51
    3  A    between atoms: C_9  and  O_27
    4  A    between atoms: C_12  and  C_54
    5  A    between atoms: C_13  and  C_52
    6  A    between atoms: C_13  and  C_54
    7  A    between atoms: N_20  and  C_24
    8  A    between atoms: N_20  and  C_35
    9  A    between atoms: C_21  and  C_38
   10  A    between atoms: C_21  and  C_58
   11  A    between atoms: O_27  and  C_41
   12  A    between atoms: C_30  and  CA_49
   13  A    between atoms: C_31  and  C_33
   14  A    between atoms: C_33  and  C_45
   15  A    between atoms: C_35  and  C_44
   16  A    between atoms: C_36  and  C_47
   17  A    between atoms: C_38  and  N_57
   18  A    between atoms: C_41  and  CA_49
                            x       y       z     vdW  Elec       q    Type
                         _______ _______ _______ _____ _____    ______ ____

>  <TORSDO>
F 18

$$$$
=
 OpenBabel11042409473D

 60 69  0  0  1  0  0  0  0  0999 V2000
  185.3820  178.3710  142.5970 C   0  0  0  0  0  3  0  0  0  0  0  0
  187.7820  177.7820  141.2670 C   0  0  0  0  0  0  0  0  0  0  0  0
  186.3670  177.6180  143.2460 C   0  0  0  0  0  0  0  0  0  0  0  0
  186.7910  178.5470  140.6400 C   0  0  0  0  0  3  0  0  0  0  0  0
  188.5620  176.5970  143.2390 O   0  0  0  0  0  1  0  0  0  0  0  0
  187.5720  177.3210  142.5810 C   0  0  0  0  0  0  0  0  0  0  0  0
  185.5960  178.8480  141.2990 C   0  0  0  0  0  0  0  0  0  0  0  0
  186.7910  177.3050  138.0850 C   0  0  0  0  0  3  0  0  0  0  0  0
  189.9980  176.8780  136.5820 C   0  0  0  0  0  0  0  0  0  0  0  0
  189.1480  177.3180  139.2040 N   0  0  0  0  0  0  0  0  0  0  0  0
  186.3880  177.1690  136.8550 N   0  0  0  0  0  0  0  0  0  0  0  0
  187.7070  176.2540  134.9420 C   0  0  0  0  0  3  0  0  0  0  0  0
  190.4560  177.0740  138.9800 C   0  0  0  0  0  0  0  0  0  0  0  0
  188.2330  177.5180  138.1140 C   0  0  0  0  0  0  0  0  0  0  0  0
  190.1370  176.1140  135.4860 C   0  0  0  0  0  0  0  0  0  0  0  0
  188.6660  177.4350  136.8740 C   0  0  0  0  0  0  0  0  0  0  0  0
  187.5180  177.3650  135.9450 C   0  0  2  0  0  3  0  0  0  0  0  0
  191.2000  177.0360  140.1000 N   0  0  0  0  0  0  0  0  0  0  0  0
  190.9610  176.8440  137.6540 N   0  0  0  0  0  2  0  0  0  0  0  0
  188.9230  175.7360  134.6960 C   0  0  0  0  0  3  0  0  0  0  0  0
  190.2980  177.2890  141.0840 C   0  0  0  0  0  0  0  0  0  0  0  0
  189.0300  177.4700  140.5380 C   0  0  0  0  0  0  0  0  0  0  0  0
  191.0110  178.7410  142.9480 C   0  0  1  0  0  3  0  0  0  0  0  0
  192.0920  177.6980  142.7670 C   0  0  0  0  0  2  0  0  0  0  0  0
  190.6310  177.3270  142.5480 C   0  0  2  0  0  3  0  0  0  0  0  0
  190.7900  178.9550  144.4310 C   0  0  0  0  0  2  0  0  0  0  0  0
  191.9560  176.1310  146.5060 C   0  0  0  0  0  2  0  0  0  0  0  0
  189.7550  176.5120  147.0850 C   0  0  0  0  0  2  0  0  0  0  0  0
  190.3150  177.7920  146.5160 C   0  0  2  0  0  3  0  0  0  0  0  0
  190.8780  175.6300  147.3450 N   0  0  0  0  0  2  0  0  0  0  0  0
  190.7290  177.6030  145.1280 C   0  0  2  0  0  3  0  0  0  0  0  0
  191.7300  177.5430  146.2100 N   0  0  2  0  0  0  0  0  0  0  0  0
  191.3990  175.5060  135.1910 N   0  0  0  0  0  2  0  0  0  0  0  0
  191.5730  174.0630  135.1800 C   0  0  0  0  0  2  0  0  0  0  0  0
  191.7600  173.7390  137.5290 O   0  0  0  0  0  1  0  0  0  0  0  0
  190.9580  173.4500  136.4240 C   0  0  0  0  0  2  0  0  0  0  0  0
  184.5660  179.6850  140.6170 C   0  0  0  0  0  2  0  0  0  0  0  0
  184.2390  179.0960  139.2530 C   0  0  0  0  0  2  0  0  0  0  0  0
  182.2390  177.9070  138.3440 C   0  0  0  0  0  0  0  0  0  0  0  0
  182.5360  178.2330  137.1620 O   0  0  0  0  0  0  0  0  0  0  0  0
  183.2140  178.0750  139.3780 N   0  0  0  0  0  2  0  0  0  0  0  0
  180.6110  177.2310  140.1650 C   0  0  2  0  0  3  0  0  0  0  0  0
  180.8840  177.3010  138.6400 C   0  0  2  0  0  3  0  0  0  0  0  0
  180.1370  174.8340  138.7860 C   0  0  1  0  0  0  0  0  0  0  0  0
  181.5900  174.8590  138.3850 C   0  0  0  0  0  2  0  0  0  0  0  0
  179.8720  175.1150  140.2590 C   0  0  0  0  0  2  0  0  0  0  0  0
  180.6490  175.9630  137.8910 C   0  0  2  0  0  3  0  0  0  0  0  0
  179.4730  176.4470  140.4260 O   0  0  0  0  0  0  0  0  0  0  0  0
  179.3880  173.8530  138.1370 O   0  0  0  0  0  1  0  0  0  0  0  0
  180.3950  178.5270  140.6550 O   0  0  0  0  0  0  0  0  0  0  0  0
  180.5480  178.4430  142.0450 C   0  0  1  0  0  3  0  0  0  0  0  0
  181.8480  178.8200  142.3990 O   0  0  0  0  0  1  0  0  0  0  0  0
  179.5240  179.3520  142.7270 C   0  0  2  0  0  3  0  0  0  0  0  0
  179.9850  180.7330  142.7260 N   0  0  0  0  0  1  0  0  0  0  0  0
  179.2780  178.8880  144.1550 C   0  0  0  0  0  2  0  0  0  0  0  0
  179.6400  177.5480  144.2970 O   0  0  0  0  0  1  0  0  0  0  0  0
  186.1370  177.1740  144.6490 C   0  0  0  0  0  2  0  0  0  0  0  0
  185.1010  178.0480  145.3280 C   0  0  0  0  0  2  0  0  0  0  0  0
  186.6000  178.4010  147.2600 C   0  0  0  0  0  1  0  0  0  0  0  0
  185.8030  179.0850  146.1740 C   0  0  0  0  0  2  0  0  0  0  0  0
  1  3  1  0  0  0  0
  2  6  1  0  0  0  0
  3 57  1  0  0  0  0
  4  2  2  0  0  0  0
  4  7  1  0  0  0  0
  6  5  1  0  0  0  0
  6  3  2  0  0  0  0
  7  1  2  0  0  0  0
  8 14  1  0  0  0  0
  9 16  1  0  0  0  0
  9 19  1  0  0  0  0
 10 22  1  0  0  0  0
 11  8  2  0  0  0  0
 13 10  1  0  0  0  0
 13 18  2  0  0  0  0
 14 10  1  0  0  0  0
 15  9  2  0  0  0  0
 16 14  2  0  0  0  0
 17 12  1  6  0  0  0
 17 11  1  0  0  0  0
 17 16  1  0  0  0  0
 18 21  1  0  0  0  0
 19 13  1  0  0  0  0
 20 12  2  0  0  0  0
 20 15  1  0  0  0  0
 22 21  2  0  0  0  0
 22  2  1  0  0  0  0
 23 26  1  1  0  0  0
 24 23  1  0  0  0  0
 25 21  1  6  0  0  0
 25 24  1  0  0  0  0
 25 23  1  0  0  0  0
 27 30  1  0  0  0  0
 28 30  1  0  0  0  0
 29 28  1  1  0  0  0
 31 26  1  6  0  0  0
 31 32  1  0  0  0  0
 31 29  1  0  0  0  0
 32 27  1  1  0  0  0
 32 29  1  0  0  0  0
 33 15  1  0  0  0  0
 34 33  1  0  0  0  0
 34 36  1  0  0  0  0
 36 35  1  0  0  0  0
 37  7  1  0  0  0  0
 38 41  1  0  0  0  0
 38 37  1  0  0  0  0
 39 41  1  0  0  0  0
 40 39  2  0  0  0  0
 42 48  1  0  0  0  0
 42 50  1  6  0  0  0
 43 39  1  1  0  0  0
 43 42  1  0  0  0  0
 44 49  1  6  0  0  0
 44 46  1  0  0  0  0
 45 44  1  0  0  0  0
 46 48  1  0  0  0  0
 47 45  1  1  0  0  0
 47 43  1  0  0  0  0
 47 44  1  0  0  0  0
 50 51  1  0  0  0  0
 51 52  1  6  0  0  0
 51 53  1  0  0  0  0
 53 54  1  1  0  0  0
 53 55  1  0  0  0  0
 55 56  1  0  0  0  0
 57 58  1  0  0  0  0
 58 60  1  0  0  0  0
 60 59  1  0  0  0  0
M  END
>  <MODEL>
3

>  <REMARK>
 VINA RESULT:      -7.0      2.745      8.637
  Name = 
  18 active torsions:
  status: ('A' for Active; 'I' for Inactive)
    1  A    between atoms: C_2  and  C_11
    2  A    between atoms: C_6  and  C_51
    3  A    between atoms: C_9  and  O_27
    4  A    between atoms: C_12  and  C_54
    5  A    between atoms: C_13  and  C_52
    6  A    between atoms: C_13  and  C_54
    7  A    between atoms: N_20  and  C_24
    8  A    between atoms: N_20  and  C_35
    9  A    between atoms: C_21  and  C_38
   10  A    between atoms: C_21  and  C_58
   11  A    between atoms: O_27  and  C_41
   12  A    between atoms: C_30  and  CA_49
   13  A    between atoms: C_31  and  C_33
   14  A    between atoms: C_33  and  C_45
   15  A    between atoms: C_35  and  C_44
   16  A    between atoms: C_36  and  C_47
   17  A    between atoms: C_38  and  N_57
   18  A    between atoms: C_41  and  CA_49
                            x       y       z     vdW  Elec       q    Type
                         _______ _______ _______ _____ _____    ______ ____

>  <TORSDO>
F 18

$$$$
=
 OpenBabel11042409473D

 60 69  0  0  1  0  0  0  0  0999 V2000
  185.6790  178.2160  142.6280 C   0  0  0  0  0  3  0  0  0  0  0  0
  188.1210  177.6470  141.3670 C   0  0  0  0  0  0  0  0  0  0  0  0
  186.6300  177.4270  143.2840 C   0  0  0  0  0  0  0  0  0  0  0  0
  187.1640  178.4480  140.7330 C   0  0  0  0  0  3  0  0  0  0  0  0
  188.8120  176.3770  143.3190 O   0  0  0  0  0  1  0  0  0  0  0  0
  187.8550  177.1400  142.6540 C   0  0  0  0  0  0  0  0  0  0  0  0
  185.9480  178.7400  141.3590 C   0  0  0  0  0  0  0  0  0  0  0  0
  187.1980  176.9340  138.2090 C   0  0  0  0  0  3  0  0  0  0  0  0
  190.4430  176.5580  136.7730 C   0  0  0  0  0  0  0  0  0  0  0  0
  189.5360  177.1190  139.3530 N   0  0  0  0  0  0  0  0  0  0  0  0
  186.8190  176.7060  136.9850 N   0  0  0  0  0  0  0  0  0  0  0  0
  188.2040  175.7350  135.1470 C   0  0  0  0  0  3  0  0  0  0  0  0
  190.8560  176.9190  139.1600 C   0  0  0  0  0  0  0  0  0  0  0  0
  188.6290  177.2110  138.2420 C   0  0  0  0  0  0  0  0  0  0  0  0
  190.6300  175.7350  135.7280 C   0  0  0  0  0  0  0  0  0  0  0  0
  189.0830  177.0720  137.0150 C   0  0  0  0  0  0  0  0  0  0  0  0
  187.9530  176.8950  136.0780 C   0  0  2  0  0  3  0  0  0  0  0  0
  191.5850  176.9830  140.2890 N   0  0  0  0  0  0  0  0  0  0  0  0
  191.3900  176.6320  137.8570 N   0  0  0  0  0  2  0  0  0  0  0  0
  189.4460  175.2570  134.9480 C   0  0  0  0  0  3  0  0  0  0  0  0
  190.6580  177.2550  141.2440 C   0  0  0  0  0  0  0  0  0  0  0  0
  189.3910  177.3470  140.6740 C   0  0  0  0  0  0  0  0  0  0  0  0
  190.9150  178.8630  143.1000 C   0  0  1  0  0  3  0  0  0  0  0  0
  192.2540  178.1850  142.9200 C   0  0  0  0  0  2  0  0  0  0  0  0
  190.9670  177.3980  142.7070 C   0  0  2  0  0  3  0  0  0  0  0  0
  190.6430  179.0090  144.5830 C   0  0  0  0  0  2  0  0  0  0  0  0
  192.0050  176.1640  146.5040 C   0  0  0  0  0  2  0  0  0  0  0  0
  189.8200  176.4410  147.1920 C   0  0  0  0  0  2  0  0  0  0  0  0
  190.3060  177.7590  146.6450 C   0  0  2  0  0  3  0  0  0  0  0  0
  190.9860  175.5950  147.3720 N   0  0  0  0  0  2  0  0  0  0  0  0
  190.6640  177.6330  145.2340 C   0  0  2  0  0  3  0  0  0  0  0  0
  191.7140  177.5760  146.2680 N   0  0  2  0  0  0  0  0  0  0  0  0
  191.9210  175.1670  135.4860 N   0  0  0  0  0  2  0  0  0  0  0  0
  192.9680  175.9050  134.7970 C   0  0  0  0  0  2  0  0  0  0  0  0
  194.7270  176.7060  136.1850 O   0  0  0  0  0  1  0  0  0  0  0  0
  194.3180  175.6100  135.4230 C   0  0  0  0  0  2  0  0  0  0  0  0
  184.9540  179.6160  140.6710 C   0  0  0  0  0  2  0  0  0  0  0  0
  184.6170  179.0440  139.3030 C   0  0  0  0  0  2  0  0  0  0  0  0
  183.0930  177.2730  138.4210 C   0  0  0  0  0  0  0  0  0  0  0  0
  183.2560  177.6700  137.2350 O   0  0  0  0  0  0  0  0  0  0  0  0
  183.9750  177.7500  139.4420 N   0  0  0  0  0  2  0  0  0  0  0  0
  181.1050  175.9940  137.5050 C   0  0  2  0  0  3  0  0  0  0  0  0
  182.0070  176.2660  138.7360 C   0  0  2  0  0  3  0  0  0  0  0  0
  179.7060  176.5680  139.8690 C   0  0  1  0  0  0  0  0  0  0  0  0
  180.4100  177.9010  139.8780 C   0  0  0  0  0  2  0  0  0  0  0  0
  179.1140  176.1640  138.5240 C   0  0  0  0  0  2  0  0  0  0  0  0
  181.2250  176.6130  140.0310 C   0  0  2  0  0  3  0  0  0  0  0  0
  179.9670  175.2580  137.8820 O   0  0  0  0  0  0  0  0  0  0  0  0
  178.9900  176.2980  141.0340 O   0  0  0  0  0  1  0  0  0  0  0  0
  181.8300  175.2600  136.5560 O   0  0  0  0  0  0  0  0  0  0  0  0
  182.3500  174.1530  137.2400 C   0  0  1  0  0  3  0  0  0  0  0  0
  181.7310  172.9840  136.7850 O   0  0  0  0  0  1  0  0  0  0  0  0
  183.8620  174.0790  137.0170 C   0  0  2  0  0  3  0  0  0  0  0  0
  184.1810  174.2740  135.6100 N   0  0  0  0  0  1  0  0  0  0  0  0
  184.3970  172.7360  137.4900 C   0  0  0  0  0  2  0  0  0  0  0  0
  185.6450  172.8970  138.0900 O   0  0  0  0  0  1  0  0  0  0  0  0
  186.3420  176.9320  144.6590 C   0  0  0  0  0  2  0  0  0  0  0  0
  185.2820  177.7860  145.3280 C   0  0  0  0  0  2  0  0  0  0  0  0
  186.6500  178.3490  147.3070 C   0  0  0  0  0  1  0  0  0  0  0  0
  185.9540  178.9060  146.0880 C   0  0  0  0  0  2  0  0  0  0  0  0
  1  3  1  0  0  0  0
  2  6  1  0  0  0  0
  3 57  1  0  0  0  0
  4  7  1  0  0  0  0
  4  2  2  0  0  0  0
  6  3  2  0  0  0  0
  6  5  1  0  0  0  0
  7  1  2  0  0  0  0
  8 14  1  0  0  0  0
  9 16  1  0  0  0  0
  9 19  1  0  0  0  0
 10 22  1  0  0  0  0
 11  8  2  0  0  0  0
 13 10  1  0  0  0  0
 13 18  2  0  0  0  0
 14 10  1  0  0  0  0
 15  9  2  0  0  0  0
 16 14  2  0  0  0  0
 17 12  1  6  0  0  0
 17 11  1  0  0  0  0
 17 16  1  0  0  0  0
 18 21  1  0  0  0  0
 19 13  1  0  0  0  0
 20 12  2  0  0  0  0
 20 15  1  0  0  0  0
 22 21  2  0  0  0  0
 22  2  1  0  0  0  0
 23 26  1  1  0  0  0
 24 23  1  0  0  0  0
 25 21  1  6  0  0  0
 25 24  1  0  0  0  0
 25 23  1  0  0  0  0
 27 30  1  0  0  0  0
 28 30  1  0  0  0  0
 29 28  1  1  0  0  0
 31 26  1  6  0  0  0
 31 32  1  0  0  0  0
 31 29  1  0  0  0  0
 32 27  1  1  0  0  0
 32 29  1  0  0  0  0
 33 15  1  0  0  0  0
 34 36  1  0  0  0  0
 34 33  1  0  0  0  0
 36 35  1  0  0  0  0
 37  7  1  0  0  0  0
 38 41  1  0  0  0  0
 38 37  1  0  0  0  0
 39 41  1  0  0  0  0
 40 39  2  0  0  0  0
 42 50  1  6  0  0  0
 42 48  1  0  0  0  0
 42 43  1  0  0  0  0
 43 39  1  6  0  0  0
 43 47  1  0  0  0  0
 44 45  1  0  0  0  0
 44 47  1  0  0  0  0
 44 49  1  1  0  0  0
 46 44  1  0  0  0  0
 47 45  1  6  0  0  0
 48 46  1  0  0  0  0
 50 51  1  0  0  0  0
 51 52  1  6  0  0  0
 53 54  1  6  0  0  0
 53 51  1  0  0  0  0
 53 55  1  0  0  0  0
 55 56  1  0  0  0  0
 57 58  1  0  0  0  0
 58 60  1  0  0  0  0
 60 59  1  0  0  0  0
M  END
>  <MODEL>
4

>  <REMARK>
 VINA RESULT:      -6.6      2.761      8.603
  Name = 
  18 active torsions:
  status: ('A' for Active; 'I' for Inactive)
    1  A    between atoms: C_2  and  C_11
    2  A    between atoms: C_6  and  C_51
    3  A    between atoms: C_9  and  O_27
    4  A    between atoms: C_12  and  C_54
    5  A    between atoms: C_13  and  C_52
    6  A    between atoms: C_13  and  C_54
    7  A    between atoms: N_20  and  C_24
    8  A    between atoms: N_20  and  C_35
    9  A    between atoms: C_21  and  C_38
   10  A    between atoms: C_21  and  C_58
   11  A    between atoms: O_27  and  C_41
   12  A    between atoms: C_30  and  CA_49
   13  A    between atoms: C_31  and  C_33
   14  A    between atoms: C_33  and  C_45
   15  A    between atoms: C_35  and  C_44
   16  A    between atoms: C_36  and  C_47
   17  A    between atoms: C_38  and  N_57
   18  A    between atoms: C_41  and  CA_49
                            x       y       z     vdW  Elec       q    Type
                         _______ _______ _______ _____ _____    ______ ____

>  <TORSDO>
F 18

$$$$
=
 OpenBabel11042409473D

 60 69  0  0  1  0  0  0  0  0999 V2000
  186.0880  176.1450  137.1690 C   0  0  0  0  0  3  0  0  0  0  0  0
  188.7310  176.4560  138.0610 C   0  0  0  0  0  0  0  0  0  0  0  0
  186.9640  175.0540  137.1370 C   0  0  0  0  0  0  0  0  0  0  0  0
  187.8370  177.5320  138.1010 C   0  0  0  0  0  3  0  0  0  0  0  0
  189.1510  174.1130  137.5770 O   0  0  0  0  0  1  0  0  0  0  0  0
  188.2900  175.2070  137.5830 C   0  0  0  0  0  0  0  0  0  0  0  0
  186.5170  177.3820  137.6630 C   0  0  0  0  0  0  0  0  0  0  0  0
  190.6120  175.1540  135.5910 C   0  0  0  0  0  3  0  0  0  0  0  0
  193.8330  176.0340  136.8480 C   0  0  0  0  0  0  0  0  0  0  0  0
  191.2340  176.3900  137.8030 N   0  0  0  0  0  0  0  0  0  0  0  0
  191.3170  174.6840  134.6030 N   0  0  0  0  0  0  0  0  0  0  0  0
  193.7710  174.2200  134.6040 C   0  0  0  0  0  3  0  0  0  0  0  0
  192.2690  176.7400  138.5950 C   0  0  0  0  0  0  0  0  0  0  0  0
  191.4450  176.0020  136.4360 C   0  0  0  0  0  0  0  0  0  0  0  0
  194.9040  175.2770  136.5590 C   0  0  0  0  0  0  0  0  0  0  0  0
  192.6670  175.9580  135.9500 C   0  0  0  0  0  0  0  0  0  0  0  0
  192.6670  175.2480  134.6540 C   0  0  2  0  0  3  0  0  0  0  0  0
  191.8960  177.1970  139.8040 N   0  0  0  0  0  0  0  0  0  0  0  0
  193.6310  176.5880  138.1640 N   0  0  0  0  0  2  0  0  0  0  0  0
  194.8210  174.2850  135.4410 C   0  0  0  0  0  3  0  0  0  0  0  0
  190.5390  177.1420  139.7540 C   0  0  0  0  0  0  0  0  0  0  0  0
  190.1230  176.6510  138.5200 C   0  0  0  0  0  0  0  0  0  0  0  0
  190.4070  177.4870  142.1950 C   0  0  1  0  0  3  0  0  0  0  0  0
  189.4500  176.3650  141.8590 C   0  0  0  0  0  2  0  0  0  0  0  0
  189.6340  177.5260  140.8900 C   0  0  2  0  0  3  0  0  0  0  0  0
  189.7570  178.3830  143.2290 C   0  0  0  0  0  2  0  0  0  0  0  0
  189.8620  177.4190  146.7920 C   0  0  0  0  0  2  0  0  0  0  0  0
  191.6790  176.4160  145.7810 C   0  0  0  0  0  2  0  0  0  0  0  0
  190.6390  176.6730  144.7200 C   0  0  2  0  0  3  0  0  0  0  0  0
  191.0330  176.6000  147.0680 N   0  0  0  0  0  2  0  0  0  0  0  0
  190.3740  178.1040  144.5920 C   0  0  2  0  0  3  0  0  0  0  0  0
  189.4720  177.2570  145.3940 N   0  0  2  0  0  0  0  0  0  0  0  0
  196.0380  175.2770  137.4310 N   0  0  0  0  0  2  0  0  0  0  0  0
  197.2390  174.5150  137.1290 C   0  0  0  0  0  2  0  0  0  0  0  0
  196.5640  172.2890  137.6290 O   0  0  0  0  0  1  0  0  0  0  0  0
  197.3680  173.3380  138.0780 C   0  0  0  0  0  2  0  0  0  0  0  0
  185.5770  178.5380  137.7380 C   0  0  0  0  0  2  0  0  0  0  0  0
  184.1630  178.0420  137.9960 C   0  0  0  0  0  2  0  0  0  0  0  0
  182.1030  179.3090  138.6210 C   0  0  0  0  0  0  0  0  0  0  0  0
  181.3700  178.5030  137.9870 O   0  0  0  0  0  0  0  0  0  0  0  0
  183.4640  178.9510  138.8850 N   0  0  0  0  0  2  0  0  0  0  0  0
  180.2550  180.3740  139.9900 C   0  0  2  0  0  3  0  0  0  0  0  0
  181.5260  180.6100  139.1340 C   0  0  2  0  0  3  0  0  0  0  0  0
  179.9680  182.3270  137.9970 C   0  0  1  0  0  0  0  0  0  0  0  0
  180.2860  181.2480  136.9930 C   0  0  0  0  0  2  0  0  0  0  0  0
  178.9450  181.9370  139.0560 C   0  0  0  0  0  2  0  0  0  0  0  0
  181.3480  181.6700  138.0140 C   0  0  2  0  0  3  0  0  0  0  0  0
  179.5990  181.5920  140.2450 O   0  0  0  0  0  0  0  0  0  0  0  0
  179.9260  183.6110  137.4530 O   0  0  0  0  0  1  0  0  0  0  0  0
  180.6240  179.7910  141.2110 O   0  0  0  0  0  0  0  0  0  0  0  0
  179.5210  179.0300  141.6220 C   0  0  1  0  0  3  0  0  0  0  0  0
  179.7560  177.6770  141.3530 O   0  0  0  0  0  1  0  0  0  0  0  0
  179.2830  179.2430  143.1180 C   0  0  2  0  0  3  0  0  0  0  0  0
  179.7330  180.5680  143.5230 N   0  0  0  0  0  1  0  0  0  0  0  0
  180.0120  178.1790  143.9230 C   0  0  0  0  0  2  0  0  0  0  0  0
  181.2940  178.6170  144.2560 O   0  0  0  0  0  1  0  0  0  0  0  0
  186.4640  173.7330  136.6620 C   0  0  0  0  0  2  0  0  0  0  0  0
  184.9570  173.6460  136.8030 C   0  0  0  0  0  2  0  0  0  0  0  0
  182.8450  174.5090  135.8540 C   0  0  0  0  0  1  0  0  0  0  0  0
  184.3080  174.2500  135.5800 C   0  0  0  0  0  2  0  0  0  0  0  0
  1  7  1  0  0  0  0
  2  4  1  0  0  0  0
  2 22  1  0  0  0  0
  3  1  2  0  0  0  0
  3  6  1  0  0  0  0
  5  6  1  0  0  0  0
  6  2  2  0  0  0  0
  7 37  1  0  0  0  0
  7  4  2  0  0  0  0
  8 14  1  0  0  0  0
  9 19  1  0  0  0  0
 10 22  1  0  0  0  0
 10 13  1  0  0  0  0
 11 17  1  0  0  0  0
 11  8  2  0  0  0  0
 12 20  2  0  0  0  0
 13 18  2  0  0  0  0
 14 10  1  0  0  0  0
 15  9  2  0  0  0  0
 15 33  1  0  0  0  0
 16 14  2  0  0  0  0
 16  9  1  0  0  0  0
 17 12  1  1  0  0  0
 17 16  1  0  0  0  0
 19 13  1  0  0  0  0
 20 15  1  0  0  0  0
 21 18  1  0  0  0  0
 22 21  2  0  0  0  0
 23 26  1  1  0  0  0
 24 23  1  0  0  0  0
 25 21  1  6  0  0  0
 25 24  1  0  0  0  0
 25 23  1  0  0  0  0
 27 30  1  0  0  0  0
 28 30  1  0  0  0  0
 29 32  1  0  0  0  0
 29 28  1  1  0  0  0
 31 26  1  6  0  0  0
 31 29  1  0  0  0  0
 31 32  1  0  0  0  0
 32 27  1  1  0  0  0
 34 33  1  0  0  0  0
 34 36  1  0  0  0  0
 35 36  1  0  0  0  0
 37 38  1  0  0  0  0
 38 41  1  0  0  0  0
 39 41  1  0  0  0  0
 40 39  2  0  0  0  0
 42 48  1  0  0  0  0
 42 50  1  1  0  0  0
 43 39  1  6  0  0  0
 43 42  1  0  0  0  0
 44 49  1  6  0  0  0
 44 47  1  0  0  0  0
 44 46  1  0  0  0  0
 45 44  1  0  0  0  0
 46 48  1  0  0  0  0
 47 45  1  6  0  0  0
 47 43  1  0  0  0  0
 50 51  1  0  0  0  0
 51 52  1  1  0  0  0
 51 53  1  0  0  0  0
 53 54  1  1  0  0  0
 53 55  1  0  0  0  0
 55 56  1  0  0  0  0
 57 58  1  0  0  0  0
 57  3  1  0  0  0  0
 60 59  1  0  0  0  0
 60 58  1  0  0  0  0
M  END
>  <MODEL>
5

>  <REMARK>
 VINA RESULT:      -6.4      3.491      8.721
  Name = 
  18 active torsions:
  status: ('A' for Active; 'I' for Inactive)
    1  A    between atoms: C_2  and  C_11
    2  A    between atoms: C_6  and  C_51
    3  A    between atoms: C_9  and  O_27
    4  A    between atoms: C_12  and  C_54
    5  A    between atoms: C_13  and  C_52
    6  A    between atoms: C_13  and  C_54
    7  A    between atoms: N_20  and  C_24
    8  A    between atoms: N_20  and  C_35
    9  A    between atoms: C_21  and  C_38
   10  A    between atoms: C_21  and  C_58
   11  A    between atoms: O_27  and  C_41
   12  A    between atoms: C_30  and  CA_49
   13  A    between atoms: C_31  and  C_33
   14  A    between atoms: C_33  and  C_45
   15  A    between atoms: C_35  and  C_44
   16  A    between atoms: C_36  and  C_47
   17  A    between atoms: C_38  and  N_57
   18  A    between atoms: C_41  and  CA_49
                            x       y       z     vdW  Elec       q    Type
                         _______ _______ _______ _____ _____    ______ ____

>  <TORSDO>
F 18

$$$$
=
 OpenBabel11042409473D

 60 69  0  0  1  0  0  0  0  0999 V2000
  185.9510  177.8720  142.7740 C   0  0  0  0  0  3  0  0  0  0  0  0
  188.5180  177.4970  141.7050 C   0  0  0  0  0  0  0  0  0  0  0  0
  186.8740  177.0700  143.4530 C   0  0  0  0  0  0  0  0  0  0  0  0
  187.5860  178.3090  141.0470 C   0  0  0  0  0  3  0  0  0  0  0  0
  189.0890  176.1040  143.6110 O   0  0  0  0  0  1  0  0  0  0  0  0
  188.1620  176.8800  142.9200 C   0  0  0  0  0  0  0  0  0  0  0  0
  186.3080  178.5040  141.5780 C   0  0  0  0  0  0  0  0  0  0  0  0
  187.8990  176.7310  138.4850 C   0  0  0  0  0  3  0  0  0  0  0  0
  191.2630  176.6160  137.3030 C   0  0  0  0  0  0  0  0  0  0  0  0
  190.1200  177.0910  139.8060 N   0  0  0  0  0  0  0  0  0  0  0  0
  187.6340  176.4800  137.2360 N   0  0  0  0  0  0  0  0  0  0  0  0
  189.2270  175.6300  135.5110 C   0  0  0  0  0  3  0  0  0  0  0  0
  191.4630  176.9960  139.7140 C   0  0  0  0  0  0  0  0  0  0  0  0
  189.2970  177.1190  138.6280 C   0  0  0  0  0  0  0  0  0  0  0  0
  191.5940  175.8170  136.2760 C   0  0  0  0  0  0  0  0  0  0  0  0
  189.8530  177.0220  137.4390 C   0  0  0  0  0  0  0  0  0  0  0  0
  188.8160  176.7620  136.4190 C   0  0  2  0  0  3  0  0  0  0  0  0
  192.0960  177.1110  140.8960 N   0  0  0  0  0  0  0  0  0  0  0  0
  192.1160  176.7580  138.4570 N   0  0  0  0  0  2  0  0  0  0  0  0
  190.5140  175.2510  135.4080 C   0  0  0  0  0  3  0  0  0  0  0  0
  191.0800  177.3050  141.7770 C   0  0  0  0  0  0  0  0  0  0  0  0
  189.8580  177.3000  141.1110 C   0  0  0  0  0  0  0  0  0  0  0  0
  190.5500  178.7160  143.7330 C   0  0  1  0  0  3  0  0  0  0  0  0
  192.0540  178.7260  143.5810 C   0  0  0  0  0  2  0  0  0  0  0  0
  191.2640  177.4630  143.2600 C   0  0  2  0  0  3  0  0  0  0  0  0
  190.2140  178.6160  145.2060 C   0  0  0  0  0  2  0  0  0  0  0  0
  191.9130  176.9060  148.0040 C   0  0  0  0  0  2  0  0  0  0  0  0
  192.0250  175.4810  146.1920 C   0  0  0  0  0  2  0  0  0  0  0  0
  190.8460  176.4000  145.9900 C   0  0  2  0  0  3  0  0  0  0  0  0
  192.4470  175.6230  147.5730 N   0  0  0  0  0  2  0  0  0  0  0  0
  191.2830  177.7910  145.9090 C   0  0  2  0  0  3  0  0  0  0  0  0
  190.7590  177.2560  147.1790 N   0  0  2  0  0  0  0  0  0  0  0  0
  192.9400  175.3530  136.1340 N   0  0  0  0  0  2  0  0  0  0  0  0
  193.6810  175.5130  134.8930 C   0  0  0  0  0  2  0  0  0  0  0  0
  195.1810  176.9490  136.0540 O   0  0  0  0  0  1  0  0  0  0  0  0
  194.4190  176.8380  134.8900 C   0  0  0  0  0  2  0  0  0  0  0  0
  185.3410  179.3930  140.8690 C   0  0  0  0  0  2  0  0  0  0  0  0
  184.1500  178.5820  140.3830 C   0  0  0  0  0  2  0  0  0  0  0  0
  181.8230  179.4010  139.9920 C   0  0  0  0  0  0  0  0  0  0  0  0
  181.4720  179.0730  141.1580 O   0  0  0  0  0  0  0  0  0  0  0  0
  183.2170  179.4340  139.6690 N   0  0  0  0  0  2  0  0  0  0  0  0
  181.0210  179.1140  137.6050 C   0  0  2  0  0  3  0  0  0  0  0  0
  180.7770  179.8000  138.9730 C   0  0  2  0  0  3  0  0  0  0  0  0
  180.6070  181.8860  137.4610 C   0  0  1  0  0  0  0  0  0  0  0  0
  181.8240  182.0420  138.3370 C   0  0  0  0  0  2  0  0  0  0  0  0
  180.7740  180.9190  136.2950 C   0  0  0  0  0  2  0  0  0  0  0  0
  180.5800  181.3370  138.8870 C   0  0  2  0  0  3  0  0  0  0  0  0
  180.1990  179.6840  136.6150 O   0  0  0  0  0  0  0  0  0  0  0  0
  179.8950  183.0690  137.2640 O   0  0  0  0  0  1  0  0  0  0  0  0
  180.7250  177.7480  137.7140 O   0  0  0  0  0  0  0  0  0  0  0  0
  181.5570  177.0990  136.7920 C   0  0  1  0  0  3  0  0  0  0  0  0
  182.7800  177.7730  136.7060 O   0  0  0  0  0  1  0  0  0  0  0  0
  181.7760  175.6510  137.2340 C   0  0  2  0  0  3  0  0  0  0  0  0
  180.5350  175.0750  137.7330 N   0  0  0  0  0  1  0  0  0  0  0  0
  182.8480  175.5870  138.3110 C   0  0  0  0  0  2  0  0  0  0  0  0
  182.2910  175.8440  139.5640 O   0  0  0  0  0  1  0  0  0  0  0  0
  186.4870  176.4580  144.7550 C   0  0  0  0  0  2  0  0  0  0  0  0
  186.1540  177.5290  145.7760 C   0  0  0  0  0  2  0  0  0  0  0  0
  186.9750  178.6750  147.8050 C   0  0  0  0  0  1  0  0  0  0  0  0
  187.1800  177.4950  146.8840 C   0  0  0  0  0  2  0  0  0  0  0  0
  1  3  1  0  0  0  0
  2  6  1  0  0  0  0
  3 57  1  0  0  0  0
  4  7  1  0  0  0  0
  4  2  2  0  0  0  0
  6  3  2  0  0  0  0
  6  5  1  0  0  0  0
  7  1  2  0  0  0  0
  8 14  1  0  0  0  0
  9 16  1  0  0  0  0
  9 19  1  0  0  0  0
 10 22  1  0  0  0  0
 11  8  2  0  0  0  0
 13 10  1  0  0  0  0
 13 18  2  0  0  0  0
 14 10  1  0  0  0  0
 15  9  2  0  0  0  0
 16 14  2  0  0  0  0
 17 12  1  1  0  0  0
 17 11  1  0  0  0  0
 17 16  1  0  0  0  0
 18 21  1  0  0  0  0
 19 13  1  0  0  0  0
 20 12  2  0  0  0  0
 20 15  1  0  0  0  0
 22  2  1  0  0  0  0
 22 21  2  0  0  0  0
 23 26  1  1  0  0  0
 24 23  1  0  0  0  0
 25 21  1  6  0  0  0
 25 24  1  0  0  0  0
 25 23  1  0  0  0  0
 28 30  1  0  0  0  0
 29 28  1  1  0  0  0
 29 32  1  0  0  0  0
 30 27  1  0  0  0  0
 31 26  1  6  0  0  0
 31 29  1  0  0  0  0
 31 32  1  0  0  0  0
 32 27  1  1  0  0  0
 33 15  1  0  0  0  0
 34 33  1  0  0  0  0
 36 34  1  0  0  0  0
 36 35  1  0  0  0  0
 37  7  1  0  0  0  0
 38 37  1  0  0  0  0
 39 40  2  0  0  0  0
 41 39  1  0  0  0  0
 41 38  1  0  0  0  0
 42 50  1  1  0  0  0
 42 43  1  0  0  0  0
 43 39  1  1  0  0  0
 44 49  1  6  0  0  0
 44 45  1  0  0  0  0
 44 47  1  0  0  0  0
 46 48  1  0  0  0  0
 46 44  1  0  0  0  0
 47 45  1  1  0  0  0
 47 43  1  0  0  0  0
 48 42  1  0  0  0  0
 51 52  1  1  0  0  0
 51 53  1  0  0  0  0
 51 50  1  0  0  0  0
 53 54  1  1  0  0  0
 53 55  1  0  0  0  0
 55 56  1  0  0  0  0
 57 58  1  0  0  0  0
 58 60  1  0  0  0  0
 60 59  1  0  0  0  0
M  END
>  <MODEL>
6

>  <REMARK>
 VINA RESULT:      -6.3      2.746      9.152
  Name = 
  18 active torsions:
  status: ('A' for Active; 'I' for Inactive)
    1  A    between atoms: C_2  and  C_11
    2  A    between atoms: C_6  and  C_51
    3  A    between atoms: C_9  and  O_27
    4  A    between atoms: C_12  and  C_54
    5  A    between atoms: C_13  and  C_52
    6  A    between atoms: C_13  and  C_54
    7  A    between atoms: N_20  and  C_24
    8  A    between atoms: N_20  and  C_35
    9  A    between atoms: C_21  and  C_38
   10  A    between atoms: C_21  and  C_58
   11  A    between atoms: O_27  and  C_41
   12  A    between atoms: C_30  and  CA_49
   13  A    between atoms: C_31  and  C_33
   14  A    between atoms: C_33  and  C_45
   15  A    between atoms: C_35  and  C_44
   16  A    between atoms: C_36  and  C_47
   17  A    between atoms: C_38  and  N_57
   18  A    between atoms: C_41  and  CA_49
                            x       y       z     vdW  Elec       q    Type
                         _______ _______ _______ _____ _____    ______ ____

>  <TORSDO>
F 18

$$$$
=
 OpenBabel11042409473D

 60 69  0  0  1  0  0  0  0  0999 V2000
  188.9970  177.8620  140.9070 C   0  0  0  0  0  3  0  0  0  0  0  0
  186.2270  178.1520  141.2520 C   0  0  0  0  0  0  0  0  0  0  0  0
  188.3770  177.3080  142.0320 C   0  0  0  0  0  0  0  0  0  0  0  0
  186.8620  178.6870  140.1240 C   0  0  0  0  0  3  0  0  0  0  0  0
  186.3690  176.8760  143.3140 O   0  0  0  0  0  1  0  0  0  0  0  0
  186.9880  177.4520  142.2080 C   0  0  0  0  0  0  0  0  0  0  0  0
  188.2410  178.5400  139.9440 C   0  0  0  0  0  0  0  0  0  0  0  0
  184.8990  176.8890  138.4280 C   0  0  0  0  0  3  0  0  0  0  0  0
  181.4460  177.2070  139.2690 C   0  0  0  0  0  0  0  0  0  0  0  0
  183.8140  177.8720  140.5880 N   0  0  0  0  0  0  0  0  0  0  0  0
  184.4090  176.3550  137.3470 N   0  0  0  0  0  0  0  0  0  0  0  0
  182.0540  176.5240  136.5310 C   0  0  0  0  0  3  0  0  0  0  0  0
  182.6400  178.2420  141.1400 C   0  0  0  0  0  0  0  0  0  0  0  0
  183.8550  177.0100  139.4390 C   0  0  0  0  0  0  0  0  0  0  0  0
  180.5270  177.3870  138.3050 C   0  0  0  0  0  0  0  0  0  0  0  0
  182.7320  176.5940  138.8940 C   0  0  0  0  0  0  0  0  0  0  0  0
  183.0080  175.9930  137.5720 C   0  0  2  0  0  3  0  0  0  0  0  0
  182.7740  178.9440  142.2800 N   0  0  0  0  0  0  0  0  0  0  0  0
  181.3840  177.9280  140.5160 N   0  0  0  0  0  2  0  0  0  0  0  0
  180.8910  177.1020  136.8820 C   0  0  0  0  0  3  0  0  0  0  0  0
  184.1200  179.0000  142.4560 C   0  0  0  0  0  0  0  0  0  0  0  0
  184.7700  178.3350  141.4200 C   0  0  0  0  0  0  0  0  0  0  0  0
  184.9350  178.7710  144.7760 C   0  0  1  0  0  3  0  0  0  0  0  0
  183.8630  179.8380  144.7910 C   0  0  0  0  0  2  0  0  0  0  0  0
  184.7960  179.7120  143.5930 C   0  0  2  0  0  3  0  0  0  0  0  0
  186.0680  179.2110  145.6790 C   0  0  0  0  0  2  0  0  0  0  0  0
  188.7430  176.7050  146.1250 C   0  0  0  0  0  2  0  0  0  0  0  0
  187.9610  177.2190  148.2350 C   0  0  0  0  0  2  0  0  0  0  0  0
  187.6570  178.3860  147.3280 C   0  0  2  0  0  3  0  0  0  0  0  0
  188.8960  176.3610  147.5310 N   0  0  0  0  0  2  0  0  0  0  0  0
  186.7620  177.9810  146.2470 C   0  0  2  0  0  3  0  0  0  0  0  0
  188.2150  178.0610  146.0080 N   0  0  2  0  0  0  0  0  0  0  0  0
  179.2850  178.0280  138.6100 N   0  0  0  0  0  2  0  0  0  0  0  0
  178.9310  179.3220  138.0500 C   0  0  0  0  0  2  0  0  0  0  0  0
  180.6850  180.9270  138.1290 O   0  0  0  0  0  1  0  0  0  0  0  0
  179.5890  180.4360  138.8410 C   0  0  0  0  0  2  0  0  0  0  0  0
  188.8900  179.0990  138.7210 C   0  0  0  0  0  2  0  0  0  0  0  0
  188.0440  178.7860  137.4970 C   0  0  0  0  0  2  0  0  0  0  0  0
  189.0890  176.5930  136.9170 C   0  0  0  0  0  0  0  0  0  0  0  0
  188.3270  175.9770  137.7120 O   0  0  0  0  0  0  0  0  0  0  0  0
  188.7860  177.9480  136.5720 N   0  0  0  0  0  2  0  0  0  0  0  0
  190.0730  174.3420  136.2920 C   0  0  2  0  0  3  0  0  0  0  0  0
  190.2750  175.8790  136.3050 C   0  0  2  0  0  3  0  0  0  0  0  0
  192.5380  175.1840  137.3340 C   0  0  1  0  0  0  0  0  0  0  0  0
  191.7590  175.9340  138.3840 C   0  0  0  0  0  2  0  0  0  0  0  0
  192.0810  173.7500  137.0970 C   0  0  0  0  0  2  0  0  0  0  0  0
  191.6280  176.3360  136.9120 C   0  0  2  0  0  3  0  0  0  0  0  0
  191.2730  173.6910  135.9550 O   0  0  0  0  0  0  0  0  0  0  0  0
  193.9030  175.4700  137.3310 O   0  0  0  0  0  1  0  0  0  0  0  0
  189.0940  174.0140  135.3440 O   0  0  0  0  0  0  0  0  0  0  0  0
  188.2760  173.0520  135.9520 C   0  0  1  0  0  3  0  0  0  0  0  0
  188.7810  172.7380  137.2190 O   0  0  0  0  0  1  0  0  0  0  0  0
  186.8490  173.5930  136.0650 C   0  0  2  0  0  3  0  0  0  0  0  0
  186.2640  173.2260  137.3470 N   0  0  0  0  0  1  0  0  0  0  0  0
  185.9930  173.0550  134.9300 C   0  0  0  0  0  2  0  0  0  0  0  0
  184.7030  173.5800  135.0060 O   0  0  0  0  0  1  0  0  0  0  0  0
  189.1960  176.5400  143.0100 C   0  0  0  0  0  2  0  0  0  0  0  0
  190.6470  176.4860  142.5720 C   0  0  0  0  0  2  0  0  0  0  0  0
  191.7850  178.2290  143.9030 C   0  0  0  0  0  1  0  0  0  0  0  0
  191.5370  176.7450  143.7650 C   0  0  0  0  0  2  0  0  0  0  0  0
  1  3  1  0  0  0  0
  2 22  1  0  0  0  0
  2  6  1  0  0  0  0
  3  6  2  0  0  0  0
  3 57  1  0  0  0  0
  4  2  2  0  0  0  0
  6  5  1  0  0  0  0
  7  4  1  0  0  0  0
  7  1  2  0  0  0  0
  8 14  1  0  0  0  0
  9 19  1  0  0  0  0
 10 13  1  0  0  0  0
 10 22  1  0  0  0  0
 11 17  1  0  0  0  0
 11  8  2  0  0  0  0
 12 20  2  0  0  0  0
 13 18  2  0  0  0  0
 14 10  1  0  0  0  0
 15 33  1  0  0  0  0
 15  9  2  0  0  0  0
 16  9  1  0  0  0  0
 16 14  2  0  0  0  0
 17 12  1  6  0  0  0
 17 16  1  0  0  0  0
 18 21  1  0  0  0  0
 19 13  1  0  0  0  0
 20 15  1  0  0  0  0
 22 21  2  0  0  0  0
 23 24  1  0  0  0  0
 23 26  1  1  0  0  0
 25 21  1  6  0  0  0
 25 23  1  0  0  0  0
 25 24  1  0  0  0  0
 27 30  1  0  0  0  0
 29 28  1  1  0  0  0
 30 28  1  0  0  0  0
 31 26  1  6  0  0  0
 31 29  1  0  0  0  0
 32 27  1  1  0  0  0
 32 31  1  0  0  0  0
 32 29  1  0  0  0  0
 34 33  1  0  0  0  0
 34 36  1  0  0  0  0
 35 36  1  0  0  0  0
 37  7  1  0  0  0  0
 38 37  1  0  0  0  0
 39 40  2  0  0  0  0
 41 39  1  0  0  0  0
 41 38  1  0  0  0  0
 42 50  1  6  0  0  0
 42 43  1  0  0  0  0
 43 47  1  0  0  0  0
 43 39  1  1  0  0  0
 44 49  1  6  0  0  0
 44 45  1  0  0  0  0
 46 44  1  0  0  0  0
 47 44  1  0  0  0  0
 47 45  1  1  0  0  0
 48 42  1  0  0  0  0
 48 46  1  0  0  0  0
 50 51  1  0  0  0  0
 51 53  1  0  0  0  0
 51 52  1  1  0  0  0
 53 54  1  1  0  0  0
 55 56  1  0  0  0  0
 55 53  1  0  0  0  0
 58 57  1  0  0  0  0
 58 60  1  0  0  0  0
 60 59  1  0  0  0  0
M  END
>  <MODEL>
7

>  <REMARK>
 VINA RESULT:      -6.2      2.429      9.394
  Name = 
  18 active torsions:
  status: ('A' for Active; 'I' for Inactive)
    1  A    between atoms: C_2  and  C_11
    2  A    between atoms: C_6  and  C_51
    3  A    between atoms: C_9  and  O_27
    4  A    between atoms: C_12  and  C_54
    5  A    between atoms: C_13  and  C_52
    6  A    between atoms: C_13  and  C_54
    7  A    between atoms: N_20  and  C_24
    8  A    between atoms: N_20  and  C_35
    9  A    between atoms: C_21  and  C_38
   10  A    between atoms: C_21  and  C_58
   11  A    between atoms: O_27  and  C_41
   12  A    between atoms: C_30  and  CA_49
   13  A    between atoms: C_31  and  C_33
   14  A    between atoms: C_33  and  C_45
   15  A    between atoms: C_35  and  C_44
   16  A    between atoms: C_36  and  C_47
   17  A    between atoms: C_38  and  N_57
   18  A    between atoms: C_41  and  CA_49
                            x       y       z     vdW  Elec       q    Type
                         _______ _______ _______ _____ _____    ______ ____

>  <TORSDO>
F 18

$$$$
=
 OpenBabel11042409473D

 60 70  0  0  1  0  0  0  0  0999 V2000
  183.6450  179.0570  141.4950 C   0  0  0  0  0  3  0  0  0  0  0  0
  186.1600  178.1060  142.3000 C   0  0  0  0  0  0  0  0  0  0  0  0
  183.8090  178.5350  142.7830 C   0  0  0  0  0  0  0  0  0  0  0  0
  185.9800  178.6460  141.0200 C   0  0  0  0  0  3  0  0  0  0  0  0
  185.2370  177.5640  144.4800 O   0  0  0  0  0  0  0  0  0  0  0  0
  185.0690  178.0570  143.1890 C   0  0  0  0  0  0  0  0  0  0  0  0
  184.7310  179.1270  140.6160 C   0  0  0  0  0  0  0  0  0  0  0  0
  186.2830  178.5770  145.6310 C   0  0  1  0  0  3  0  0  0  0  0  0
  189.4190  177.0040  146.2800 C   0  0  0  0  0  0  0  0  0  0  0  0
  187.9460  177.4670  143.9540 N   0  0  0  0  0  0  0  0  0  0  0  0
  186.2880  178.7300  146.9230 N   0  0  0  0  0  2  0  0  0  0  0  0
  188.2550  178.5140  148.4470 C   0  0  0  0  0  3  0  0  0  0  0  0
  189.1830  176.9400  143.8440 C   0  0  0  0  0  0  0  0  0  0  0  0
  187.3230  177.6340  145.2390 C   0  0  1  0  0  3  0  0  0  0  0  0
  190.1810  177.4100  147.3090 C   0  0  0  0  0  0  0  0  0  0  0  0
  187.9750  177.2940  146.3300 C   0  0  0  0  0  0  0  0  0  0  0  0
  187.2810  177.8330  147.5180 C   0  0  0  0  0  0  0  0  0  0  0  0
  189.5730  176.7340  142.5720 N   0  0  0  0  0  0  0  0  0  0  0  0
  189.9930  176.6720  145.0000 N   0  0  0  0  0  2  0  0  0  0  0  0
  189.5740  178.2600  148.3820 C   0  0  0  0  0  3  0  0  0  0  0  0
  188.5000  177.1460  141.8460 C   0  0  0  0  0  0  0  0  0  0  0  0
  187.4900  177.5950  142.6920 C   0  0  0  0  0  0  0  0  0  0  0  0
  189.8530  177.1510  139.7810 C   0  0  1  0  0  3  0  0  0  0  0  0
  189.0400  178.4260  139.7750 C   0  0  0  0  0  2  0  0  0  0  0  0
  188.4440  177.1460  140.3450 C   0  0  2  0  0  3  0  0  0  0  0  0
  189.8690  176.5820  138.3770 C   0  0  0  0  0  2  0  0  0  0  0  0
  187.5710  177.5990  135.6710 C   0  0  0  0  0  2  0  0  0  0  0  0
  186.6230  175.7550  136.6850 C   0  0  0  0  0  2  0  0  0  0  0  0
  188.1100  175.7120  136.9370 C   0  0  2  0  0  3  0  0  0  0  0  0
  186.3920  176.7470  135.6510 N   0  0  0  0  0  2  0  0  0  0  0  0
  188.5390  176.8810  137.7000 C   0  0  2  0  0  3  0  0  0  0  0  0
  188.6980  176.8600  136.2340 N   0  0  2  0  0  0  0  0  0  0  0  0
  191.5960  177.1990  147.2800 N   0  0  0  0  0  2  0  0  0  0  0  0
  192.1800  175.8800  147.4610 C   0  0  0  0  0  2  0  0  0  0  0  0
  193.1730  177.1340  149.2220 O   0  0  0  0  0  1  0  0  0  0  0  0
  192.9940  175.8370  148.7410 C   0  0  0  0  0  2  0  0  0  0  0  0
  184.5720  179.7200  139.2560 C   0  0  0  0  0  2  0  0  0  0  0  0
  183.2180  179.3390  138.6790 C   0  0  0  0  0  2  0  0  0  0  0  0
  181.8660  177.2920  138.2070 C   0  0  0  0  0  0  0  0  0  0  0  0
  181.0050  177.9610  137.5730 O   0  0  0  0  0  0  0  0  0  0  0  0
  183.1230  177.8980  138.5250 N   0  0  0  0  0  2  0  0  0  0  0  0
  180.7490  175.1350  137.4810 C   0  0  2  0  0  3  0  0  0  0  0  0
  181.5800  175.8520  138.5760 C   0  0  2  0  0  3  0  0  0  0  0  0
  179.7500  174.8310  140.0850 C   0  0  1  0  0  0  0  0  0  0  0  0
  179.6100  176.3310  140.1310 C   0  0  0  0  0  2  0  0  0  0  0  0
  179.2230  174.1750  138.8150 C   0  0  0  0  0  2  0  0  0  0  0  0
  181.0020  175.7040  140.0090 C   0  0  2  0  0  3  0  0  0  0  0  0
  180.2860  173.8930  137.9490 O   0  0  0  0  0  0  0  0  0  0  0  0
  179.5330  174.2050  141.3120 O   0  0  0  0  0  1  0  0  0  0  0  0
  181.5560  174.9270  136.3540 O   0  0  0  0  0  0  0  0  0  0  0  0
  181.8070  173.5480  136.3090 C   0  0  1  0  0  3  0  0  0  0  0  0
  181.1780  172.9910  135.1910 O   0  0  0  0  0  1  0  0  0  0  0  0
  183.3160  173.3060  136.2500 C   0  0  2  0  0  3  0  0  0  0  0  0
  183.9160  174.0770  135.1700 N   0  0  0  0  0  1  0  0  0  0  0  0
  183.6020  171.8250  136.0510 C   0  0  0  0  0  2  0  0  0  0  0  0
  183.1340  171.0920  137.1410 O   0  0  0  0  0  1  0  0  0  0  0  0
  182.6500  178.5280  143.7190 C   0  0  0  0  0  2  0  0  0  0  0  0
  181.4100  179.0840  143.0450 C   0  0  0  0  0  2  0  0  0  0  0  0
  179.3500  178.9560  144.4020 C   0  0  0  0  0  1  0  0  0  0  0  0
  180.2210  178.2260  143.4070 C   0  0  0  0  0  2  0  0  0  0  0  0
  1  3  1  0  0  0  0
  2 22  1  0  0  0  0
  2  6  1  0  0  0  0
  3  6  2  0  0  0  0
  3 57  1  0  0  0  0
  4  2  2  0  0  0  0
  6  5  1  0  0  0  0
  7  4  1  0  0  0  0
  7  1  2  0  0  0  0
  8  5  1  1  0  0  0
  8 11  1  0  0  0  0
  9 16  2  0  0  0  0
  9 15  1  0  0  0  0
 10 14  1  0  0  0  0
 11 17  1  0  0  0  0
 13 10  1  0  0  0  0
 13 19  1  0  0  0  0
 14  8  1  0  0  0  0
 14 16  1  1  0  0  0
 15 20  2  0  0  0  0
 16 17  1  0  0  0  0
 17 12  2  0  0  0  0
 18 13  2  0  0  0  0
 19  9  1  0  0  0  0
 20 12  1  0  0  0  0
 21 18  1  0  0  0  0
 21 22  2  0  0  0  0
 22 10  1  0  0  0  0
 23 26  1  6  0  0  0
 23 25  1  0  0  0  0
 24 23  1  0  0  0  0
 24 25  1  0  0  0  0
 25 21  1  1  0  0  0
 29 28  1  6  0  0  0
 29 31  1  0  0  0  0
 30 27  1  0  0  0  0
 30 28  1  0  0  0  0
 31 26  1  1  0  0  0
 32 27  1  6  0  0  0
 32 29  1  0  0  0  0
 32 31  1  0  0  0  0
 33 15  1  0  0  0  0
 33 34  1  0  0  0  0
 34 36  1  0  0  0  0
 36 35  1  0  0  0  0
 37  7  1  0  0  0  0
 38 37  1  0  0  0  0
 39 41  1  0  0  0  0
 40 39  2  0  0  0  0
 41 38  1  0  0  0  0
 42 50  1  6  0  0  0
 42 48  1  0  0  0  0
 42 43  1  0  0  0  0
 43 39  1  6  0  0  0
 43 47  1  0  0  0  0
 44 45  1  0  0  0  0
 44 49  1  1  0  0  0
 46 44  1  0  0  0  0
 47 44  1  0  0  0  0
 47 45  1  6  0  0  0
 48 46  1  0  0  0  0
 51 52  1  6  0  0  0
 51 50  1  0  0  0  0
 53 54  1  6  0  0  0
 53 51  1  0  0  0  0
 55 53  1  0  0  0  0
 55 56  1  0  0  0  0
 58 60  1  0  0  0  0
 58 57  1  0  0  0  0
 60 59  1  0  0  0  0
M  END
>  <MODEL>
8

>  <REMARK>
 VINA RESULT:      -6.1      3.048      9.161
  Name = 
  18 active torsions:
  status: ('A' for Active; 'I' for Inactive)
    1  A    between atoms: C_2  and  C_11
    2  A    between atoms: C_6  and  C_51
    3  A    between atoms: C_9  and  O_27
    4  A    between atoms: C_12  and  C_54
    5  A    between atoms: C_13  and  C_52
    6  A    between atoms: C_13  and  C_54
    7  A    between atoms: N_20  and  C_24
    8  A    between atoms: N_20  and  C_35
    9  A    between atoms: C_21  and  C_38
   10  A    between atoms: C_21  and  C_58
   11  A    between atoms: O_27  and  C_41
   12  A    between atoms: C_30  and  CA_49
   13  A    between atoms: C_31  and  C_33
   14  A    between atoms: C_33  and  C_45
   15  A    between atoms: C_35  and  C_44
   16  A    between atoms: C_36  and  C_47
   17  A    between atoms: C_38  and  N_57
   18  A    between atoms: C_41  and  CA_49
                            x       y       z     vdW  Elec       q    Type
                         _______ _______ _______ _____ _____    ______ ____

>  <TORSDO>
F 18

$$$$
=
 OpenBabel11042409473D

 60 69  0  0  1  0  0  0  0  0999 V2000
  189.0370  177.9850  137.0190 C   0  0  0  0  0  3  0  0  0  0  0  0
  186.5810  176.6290  137.1010 C   0  0  0  0  0  0  0  0  0  0  0  0
  188.5450  177.3720  135.8620 C   0  0  0  0  0  0  0  0  0  0  0  0
  187.0820  177.2610  138.2450 C   0  0  0  0  0  3  0  0  0  0  0  0
  186.8120  176.1060  134.7400 O   0  0  0  0  0  1  0  0  0  0  0  0
  187.3140  176.6910  135.9000 C   0  0  0  0  0  0  0  0  0  0  0  0
  188.3020  177.9430  138.2090 C   0  0  0  0  0  0  0  0  0  0  0  0
  187.3560  173.4620  136.2570 C   0  0  0  0  0  3  0  0  0  0  0  0
  184.1660  171.9640  136.8120 C   0  0  0  0  0  0  0  0  0  0  0  0
  185.1260  174.5760  137.0330 N   0  0  0  0  0  0  0  0  0  0  0  0
  187.6890  172.2380  135.9710 N   0  0  0  0  0  0  0  0  0  0  0  0
  186.1390  170.3460  135.4630 C   0  0  0  0  0  3  0  0  0  0  0  0
  183.8060  174.3540  137.2030 C   0  0  0  0  0  0  0  0  0  0  0  0
  186.0510  173.4830  136.9090 C   0  0  0  0  0  0  0  0  0  0  0  0
  183.7890  170.8880  136.1020 C   0  0  0  0  0  0  0  0  0  0  0  0
  185.6070  172.2440  136.9340 C   0  0  0  0  0  0  0  0  0  0  0  0
  186.6700  171.3200  136.4850 C   0  0  2  0  0  3  0  0  0  0  0  0
  183.0940  175.4730  137.4280 N   0  0  0  0  0  0  0  0  0  0  0  0
  183.2470  173.0340  137.1080 N   0  0  0  0  0  2  0  0  0  0  0  0
  184.8200  170.1110  135.3440 C   0  0  0  0  0  3  0  0  0  0  0  0
  184.0360  176.4530  137.4120 C   0  0  0  0  0  0  0  0  0  0  0  0
  185.2950  175.9060  137.1750 C   0  0  0  0  0  0  0  0  0  0  0  0
  182.3720  178.0860  138.2220 C   0  0  1  0  0  3  0  0  0  0  0  0
  182.5490  178.3390  136.7410 C   0  0  0  0  0  2  0  0  0  0  0  0
  183.7410  177.9150  137.5900 C   0  0  2  0  0  3  0  0  0  0  0  0
  182.2730  179.4200  138.9320 C   0  0  0  0  0  2  0  0  0  0  0  0
  179.3390  181.2260  137.6020 C   0  0  0  0  0  2  0  0  0  0  0  0
  181.0280  182.7830  137.8260 C   0  0  0  0  0  2  0  0  0  0  0  0
  181.3090  181.6500  138.7820 C   0  0  2  0  0  3  0  0  0  0  0  0
  179.6610  182.6250  137.3640 N   0  0  0  0  0  2  0  0  0  0  0  0
  181.5020  180.3980  138.0560 C   0  0  2  0  0  3  0  0  0  0  0  0
  180.1930  180.7020  138.6640 N   0  0  2  0  0  0  0  0  0  0  0  0
  182.3990  170.6060  135.9110 N   0  0  0  0  0  2  0  0  0  0  0  0
  181.6220  171.2490  134.8640 C   0  0  0  0  0  2  0  0  0  0  0  0
  179.5380  171.2790  136.0110 O   0  0  0  0  0  1  0  0  0  0  0  0
  180.5260  172.1040  135.4720 C   0  0  0  0  0  2  0  0  0  0  0  0
  188.8030  178.6290  139.4370 C   0  0  0  0  0  2  0  0  0  0  0  0
  188.8170  177.6560  140.6050 C   0  0  0  0  0  2  0  0  0  0  0  0
  187.7480  177.8030  142.8580 C   0  0  0  0  0  0  0  0  0  0  0  0
  187.6110  176.5510  142.9160 O   0  0  0  0  0  0  0  0  0  0  0  0
  188.6000  178.3640  141.8540 N   0  0  0  0  0  2  0  0  0  0  0  0
  187.1510  178.0940  145.3040 C   0  0  2  0  0  3  0  0  0  0  0  0
  187.0550  178.6850  143.8740 C   0  0  2  0  0  3  0  0  0  0  0  0
  184.5650  178.8620  144.5340 C   0  0  1  0  0  0  0  0  0  0  0  0
  184.6810  177.8650  143.4080 C   0  0  0  0  0  2  0  0  0  0  0  0
  185.0030  178.3440  145.8980 C   0  0  0  0  0  2  0  0  0  0  0  0
  185.6160  179.0780  143.4450 C   0  0  2  0  0  3  0  0  0  0  0  0
  186.2990  178.7880  146.1820 O   0  0  0  0  0  0  0  0  0  0  0  0
  183.4410  179.6840  144.4480 O   0  0  0  0  0  1  0  0  0  0  0  0
  188.4710  178.2090  145.7630 O   0  0  0  0  0  0  0  0  0  0  0  0
  188.8810  176.9090  146.0860 C   0  0  1  0  0  3  0  0  0  0  0  0
  189.6650  176.3910  145.0500 O   0  0  0  0  0  1  0  0  0  0  0  0
  189.6730  176.9330  147.3950 C   0  0  2  0  0  3  0  0  0  0  0  0
  189.4250  178.1710  148.1190 N   0  0  0  0  0  1  0  0  0  0  0  0
  191.1600  176.7860  147.1110 C   0  0  0  0  0  2  0  0  0  0  0  0
  191.8410  176.4230  148.2730 O   0  0  0  0  0  1  0  0  0  0  0  0
  189.3190  177.4830  134.5940 C   0  0  0  0  0  2  0  0  0  0  0  0
  190.6090  176.6900  134.6790 C   0  0  0  0  0  2  0  0  0  0  0  0
  190.9390  174.2430  134.5940 C   0  0  0  0  0  1  0  0  0  0  0  0
  190.3430  175.3830  135.3870 C   0  0  0  0  0  2  0  0  0  0  0  0
  1  7  1  0  0  0  0
  2 22  1  0  0  0  0
  2  4  1  0  0  0  0
  3  6  1  0  0  0  0
  3  1  2  0  0  0  0
  5  6  1  0  0  0  0
  6  2  2  0  0  0  0
  7  4  2  0  0  0  0
  7 37  1  0  0  0  0
  8 14  1  0  0  0  0
  9 16  1  0  0  0  0
  9 19  1  0  0  0  0
 10 22  1  0  0  0  0
 10 13  1  0  0  0  0
 11  8  2  0  0  0  0
 11 17  1  0  0  0  0
 13 18  2  0  0  0  0
 14 16  2  0  0  0  0
 14 10  1  0  0  0  0
 15  9  2  0  0  0  0
 17 12  1  6  0  0  0
 17 16  1  0  0  0  0
 19 13  1  0  0  0  0
 20 12  2  0  0  0  0
 20 15  1  0  0  0  0
 21 18  1  0  0  0  0
 22 21  2  0  0  0  0
 23 26  1  1  0  0  0
 24 25  1  0  0  0  0
 24 23  1  0  0  0  0
 25 21  1  6  0  0  0
 25 23  1  0  0  0  0
 29 28  1  6  0  0  0
 30 27  1  0  0  0  0
 30 28  1  0  0  0  0
 31 32  1  0  0  0  0
 31 29  1  0  0  0  0
 31 26  1  1  0  0  0
 32 27  1  6  0  0  0
 32 29  1  0  0  0  0
 33 15  1  0  0  0  0
 34 36  1  0  0  0  0
 34 33  1  0  0  0  0
 36 35  1  0  0  0  0
 37 38  1  0  0  0  0
 38 41  1  0  0  0  0
 39 40  2  0  0  0  0
 41 39  1  0  0  0  0
 42 50  1  1  0  0  0
 42 48  1  0  0  0  0
 43 39  1  6  0  0  0
 43 42  1  0  0  0  0
 44 49  1  6  0  0  0
 44 46  1  0  0  0  0
 45 44  1  0  0  0  0
 46 48  1  0  0  0  0
 47 45  1  6  0  0  0
 47 43  1  0  0  0  0
 47 44  1  0  0  0  0
 50 51  1  0  0  0  0
 51 52  1  6  0  0  0
 51 53  1  0  0  0  0
 53 54  1  6  0  0  0
 55 53  1  0  0  0  0
 55 56  1  0  0  0  0
 57 58  1  0  0  0  0
 57  3  1  0  0  0  0
 58 60  1  0  0  0  0
 59 60  1  0  0  0  0
M  END
>  <MODEL>
9

>  <REMARK>
 VINA RESULT:      -6.1      2.843      6.214
  Name = 
  18 active torsions:
  status: ('A' for Active; 'I' for Inactive)
    1  A    between atoms: C_2  and  C_11
    2  A    between atoms: C_6  and  C_51
    3  A    between atoms: C_9  and  O_27
    4  A    between atoms: C_12  and  C_54
    5  A    between atoms: C_13  and  C_52
    6  A    between atoms: C_13  and  C_54
    7  A    between atoms: N_20  and  C_24
    8  A    between atoms: N_20  and  C_35
    9  A    between atoms: C_21  and  C_38
   10  A    between atoms: C_21  and  C_58
   11  A    between atoms: O_27  and  C_41
   12  A    between atoms: C_30  and  CA_49
   13  A    between atoms: C_31  and  C_33
   14  A    between atoms: C_33  and  C_45
   15  A    between atoms: C_35  and  C_44
   16  A    between atoms: C_36  and  C_47
   17  A    between atoms: C_38  and  N_57
   18  A    between atoms: C_41  and  CA_49
                            x       y       z     vdW  Elec       q    Type
                         _______ _______ _______ _____ _____    ______ ____

>  <TORSDO>
F 18

$$$$
