=
 OpenBabel11032420353D

 69 74  0  0  1  0  0  0  0  0999 V2000
  187.9730  177.6850  142.1820 C   0  0  0  0  0  3  0  0  0  0  0  0
  188.4370  176.8240  143.1000 C   0  0  0  0  0  0  0  0  0  0  0  0
  186.6090  177.7370  146.2220 C   0  0  0  0  0  2  0  0  0  0  0  0
  187.9700  176.7730  144.5270 C   0  0  1  0  0  3  0  0  0  0  0  0
  188.2010  177.8320  147.9260 C   0  0  0  0  0  1  0  0  0  0  0  0
  187.9890  178.1370  146.5230 N   0  0  0  0  0  0  0  0  0  0  0  0
  188.8300  177.2260  145.7320 C   0  0  2  0  0  3  0  0  0  0  0  0
  186.5970  177.3620  144.7530 C   0  0  0  0  0  2  0  0  0  0  0  0
  190.2910  178.9190  144.8830 O   0  0  0  0  0  0  0  0  0  0  0  0
  191.3730  177.2280  145.9740 O   0  0  0  0  0  1  0  0  0  0  0  0
  190.2090  177.8280  145.5100 C   0  0  0  0  0  0  0  0  0  0  0  0
  189.2300  175.6490  142.6300 C   0  0  0  0  0  2  0  0  0  0  0  0
  189.7330  175.9190  141.3490 O   0  0  0  0  0  0  0  0  0  0  0  0
  190.4970  177.0990  141.4650 C   0  0  2  0  0  3  0  0  0  0  0  0
  189.6740  177.4930  139.2470 C   0  0  0  0  0  2  0  0  0  0  0  0
  190.0600  176.5240  138.1540 C   0  0  0  0  0  2  0  0  0  0  0  0
  191.5610  176.6030  138.1250 C   0  0  1  0  0  3  0  0  0  0  0  0
  191.9580  177.0120  139.5310 C   0  0  0  0  0  2  0  0  0  0  0  0
  190.8090  177.6930  140.1380 N   0  0  0  0  0  0  0  0  0  0  0  0
  194.6610  173.5990  138.6390 N   0  0  0  0  0  0  0  0  0  0  0  0
  194.3370  174.0830  137.3440 C   0  0  0  0  0  0  0  0  0  0  0  0
  195.2600  174.8490  134.5990 N   0  0  0  0  0  2  0  0  0  0  0  0
  194.7970  173.5120  134.9600 C   0  0  0  0  0  2  0  0  0  0  0  0
  194.1410  175.7740  134.7560 C   0  0  0  0  0  2  0  0  0  0  0  0
  191.6080  174.2210  137.9840 O   0  0  0  0  0  0  0  0  0  0  0  0
  192.2020  175.2990  137.6690 C   0  0  0  0  0  0  0  0  0  0  0  0
  194.9030  173.3380  136.4380 C   0  0  0  0  0  0  0  0  0  0  0  0
  194.0300  176.2730  136.2050 C   0  0  0  0  0  2  0  0  0  0  0  0
  195.6350  172.3250  137.1210 N   0  0  0  0  0  0  0  0  0  0  0  0
  193.5120  175.2240  137.0830 N   0  0  0  0  0  0  0  0  0  0  0  0
  195.5490  172.5140  138.5180 N   0  0  0  0  0  0  0  0  0  0  0  0
  196.7810  171.6510  136.5090 C   0  0  0  0  0  2  0  0  0  0  0  0
  198.0780  172.3230  136.9070 C   0  0  0  0  0  1  0  0  0  0  0  0
  191.7590  176.8120  142.2960 C   0  0  0  0  0  2  0  0  0  0  0  0
  192.2950  178.0040  142.8260 O   0  0  0  0  0  1  0  0  0  0  0  0
  186.9820  178.7840  142.4460 C   0  0  0  0  0  2  0  0  0  0  0  0
  185.0750  179.8930  141.4860 O   0  0  0  0  0  1  0  0  0  0  0  0
  185.7830  178.6760  141.5090 C   0  0  1  0  0  3  0  0  0  0  0  0
  186.2280  178.3570  140.2200 O   0  0  0  0  0  0  0  0  0  0  0  0
  185.0910  178.3650  139.4040 C   0  0  2  0  0  3  0  0  0  0  0  0
  182.7130  178.8940  140.2640 C   0  0  0  0  0  2  0  0  0  0  0  0
  183.8370  177.8680  140.1360 C   0  0  1  0  0  3  0  0  0  0  0  0
  182.0750  177.2060  138.6630 N   0  0  0  0  0  2  0  0  0  0  0  0
  181.5750  178.3190  139.4410 C   0  0  2  0  0  3  0  0  0  0  0  0
  183.2360  176.7060  139.3950 C   0  0  0  0  0  2  0  0  0  0  0  0
  182.0550  180.5040  138.3490 C   0  0  0  0  0  1  0  0  0  0  0  0
  181.0460  179.3850  138.5020 C   0  0  0  0  0  2  0  0  0  0  0  0
  185.3340  177.4750  138.1740 C   0  0  0  0  0  2  0  0  0  0  0  0
  186.4430  177.9690  137.2780 C   0  0  0  0  0  0  0  0  0  0  0  0
  186.8800  179.1400  137.4270 O   0  0  0  0  0  0  0  0  0  0  0  0
  187.0470  177.1730  136.3130 O   0  0  0  0  0  0  0  0  0  0  0  0
  186.5240  176.9820  135.0020 C   0  0  0  0  0  2  0  0  0  0  0  0
  183.8910  173.6240  135.4300 C   0  0  0  0  0  0  0  0  0  0  0  0
  184.1830  176.0060  134.9570 C   0  0  0  0  0  0  0  0  0  0  0  0
  185.2930  173.5050  135.4910 C   0  0  0  0  0  0  0  0  0  0  0  0
  183.3350  174.8880  135.1430 C   0  0  0  0  0  0  0  0  0  0  0  0
  185.5680  175.8220  135.0520 C   0  0  0  0  0  0  0  0  0  0  0  0
  181.9120  175.0230  135.0130 N   0  0  0  0  0  1  0  0  0  0  0  0
  186.0720  174.5920  135.3080 N   0  0  0  0  0  0  0  0  0  0  0  0
  185.9870  172.2150  135.7510 C   0  0  0  0  0  1  0  0  0  0  0  0
  182.7450  177.9280  135.2130 O   0  0  0  0  0  0  0  0  0  0  0  0
  183.6890  177.3620  134.5940 C   0  0  0  0  0  3  0  0  0  0  0  0
  182.9450  172.4320  135.4760 C   0  0  2  0  0  3  0  0  0  0  0  0
  183.1630  171.0430  137.4530 O   0  0  0  0  0  1  0  0  0  0  0  0
  182.3660  172.0120  136.8440 C   0  0  2  0  0  3  0  0  0  0  0  0
  180.0420  172.5670  136.6180 O   0  0  0  0  0  1  0  0  0  0  0  0
  180.9320  171.4950  136.6980 C   0  0  0  0  0  2  0  0  0  0  0  0
  183.2540  171.3650  134.5950 O   0  0  0  0  0  0  0  0  0  0  0  0
  183.3830  170.2760  135.3340 O   0  0  0  0  0  1  0  0  0  0  0  0
  1 36  1  0  0  0  0
  1  2  2  0  0  0  0
  3  6  1  0  0  0  0
  4  2  1  6  0  0  0
  4  8  1  0  0  0  0
  4  7  1  0  0  0  0
  6  5  1  0  0  0  0
  7 11  1  6  0  0  0
  7  6  1  0  0  0  0
  8  3  1  0  0  0  0
  9 11  2  0  0  0  0
 11 10  1  0  0  0  0
 12  2  1  0  0  0  0
 13 14  1  0  0  0  0
 13 12  1  0  0  0  0
 14 34  1  6  0  0  0
 15 19  1  0  0  0  0
 16 15  1  0  0  0  0
 17 26  1  1  0  0  0
 17 16  1  0  0  0  0
 17 18  1  0  0  0  0
 18 19  1  0  0  0  0
 19 14  1  0  0  0  0
 21 20  1  0  0  0  0
 22 24  1  0  0  0  0
 22 23  1  0  0  0  0
 23 27  1  0  0  0  0
 24 28  1  0  0  0  0
 26 25  2  0  0  0  0
 27 29  1  0  0  0  0
 27 21  2  0  0  0  0
 28 30  1  0  0  0  0
 29 31  1  0  0  0  0
 30 21  1  0  0  0  0
 30 26  1  0  0  0  0
 31 20  2  0  0  0  0
 32 33  1  0  0  0  0
 32 29  1  0  0  0  0
 34 35  1  0  0  0  0
 38 37  1  6  0  0  0
 38 36  1  0  0  0  0
 39 38  1  0  0  0  0
 40 48  1  6  0  0  0
 40 39  1  0  0  0  0
 42 40  1  6  0  0  0
 42 41  1  0  0  0  0
 43 45  1  0  0  0  0
 43 44  1  0  0  0  0
 44 47  1  6  0  0  0
 44 41  1  0  0  0  0
 45 42  1  0  0  0  0
 46 47  1  0  0  0  0
 49 50  2  0  0  0  0
 49 48  1  0  0  0  0
 51 49  1  0  0  0  0
 52 57  1  0  0  0  0
 52 51  1  0  0  0  0
 53 63  1  0  0  0  0
 53 55  1  0  0  0  0
 54 57  2  0  0  0  0
 54 56  1  0  0  0  0
 55 60  1  0  0  0  0
 56 53  2  0  0  0  0
 57 59  1  0  0  0  0
 58 56  1  0  0  0  0
 59 55  2  0  0  0  0
 62 54  1  0  0  0  0
 62 61  2  0  0  0  0
 63 68  1  1  0  0  0
 63 65  1  0  0  0  0
 65 64  1  6  0  0  0
 66 67  1  0  0  0  0
 67 65  1  0  0  0  0
 68 69  1  0  0  0  0
M  END
>  <MODEL>
1

>  <REMARK>
 VINA RESULT:      -6.1      0.000      0.000
  Name = 
  25 active torsions:
  status: ('A' for Active; 'I' for Inactive)
    1  A    between atoms: C_1  and  C_13
    2  A    between atoms: C_1  and  C_45
    3  A    between atoms: O_5  and  C_14
    4  A    between atoms: O_5  and  C_63
    5  A    between atoms: C_7  and  C_35
    6  A    between atoms: C_9  and  C_55
    7  A    between atoms: C_10  and  C_45
    8  A    between atoms: C_11  and  C_53
    9  A    between atoms: C_13  and  O_34
   10  A    between atoms: C_14  and  C_21
   11  A    between atoms: C_14  and  N_54
   12  A    between atoms: O_17  and  C_35
   13  A    between atoms: O_19  and  C_45
   14  A    between atoms: O_19  and  C_58
   15  A    between atoms: C_20  and  C_26
   16  A    between atoms: C_20  and  C_58
   17  A    between atoms: C_24  and  C_67
   18  A    between atoms: C_31  and  C_52
   19  A    between atoms: O_34  and  C_52
   20  A    between atoms: C_35  and  C_67
   21  A    between atoms: C_37  and  C_50
   22  A    between atoms: C_41  and  C_44
   23  A    between atoms: C_49  and  C_64
   24  A    between atoms: C_55  and  C_63
   25  A    between atoms: N_59  and  C_62
                            x       y       z     vdW  Elec       q    Type
                         _______ _______ _______ _____ _____    ______ ____

>  <TORSDO>
F 25

$$$$
=
 OpenBabel11032420353D

 69 74  0  0  1  0  0  0  0  0999 V2000
  184.4510  177.8560  136.5670 C   0  0  0  0  0  3  0  0  0  0  0  0
  183.3900  177.2200  136.0520 C   0  0  0  0  0  0  0  0  0  0  0  0
  182.1140  173.9060  134.9070 C   0  0  0  0  0  2  0  0  0  0  0  0
  183.3050  175.7330  135.8550 C   0  0  1  0  0  3  0  0  0  0  0  0
  182.0450  172.5280  136.7900 C   0  0  0  0  0  1  0  0  0  0  0  0
  181.8170  173.8910  136.3450 N   0  0  0  0  0  0  0  0  0  0  0  0
  182.8500  174.7420  136.9560 C   0  0  2  0  0  3  0  0  0  0  0  0
  182.5840  175.3130  134.5950 C   0  0  0  0  0  2  0  0  0  0  0  0
  181.1540  175.2420  138.5660 O   0  0  0  0  0  0  0  0  0  0  0  0
  183.2690  175.7350  139.2710 O   0  0  0  0  0  1  0  0  0  0  0  0
  182.3870  175.2570  138.3100 C   0  0  0  0  0  0  0  0  0  0  0  0
  182.1010  177.9670  135.9450 C   0  0  0  0  0  2  0  0  0  0  0  0
  181.0670  177.1720  136.4620 O   0  0  0  0  0  0  0  0  0  0  0  0
  179.9300  177.4430  135.6740 C   0  0  2  0  0  3  0  0  0  0  0  0
  179.0400  179.6540  135.9410 C   0  0  0  0  0  2  0  0  0  0  0  0
  179.5760  180.5140  137.0610 C   0  0  0  0  0  2  0  0  0  0  0  0
  179.2590  179.7220  138.2990 C   0  0  1  0  0  3  0  0  0  0  0  0
  179.2210  178.2770  137.8390 C   0  0  0  0  0  2  0  0  0  0  0  0
  178.9340  178.2750  136.4000 N   0  0  0  0  0  0  0  0  0  0  0  0
  182.9500  178.6230  140.3150 N   0  0  0  0  0  0  0  0  0  0  0  0
  181.7820  178.9200  141.0660 C   0  0  0  0  0  0  0  0  0  0  0  0
  180.0750  178.3580  143.4630 N   0  0  0  0  0  2  0  0  0  0  0  0
  181.1380  179.3590  143.4360 C   0  0  0  0  0  2  0  0  0  0  0  0
  179.0460  178.7640  142.5100 C   0  0  0  0  0  2  0  0  0  0  0  0
  181.0480  180.9580  139.2820 O   0  0  0  0  0  0  0  0  0  0  0  0
  180.2570  179.9740  139.4210 C   0  0  0  0  0  0  0  0  0  0  0  0
  182.0850  179.0400  142.3270 C   0  0  0  0  0  0  0  0  0  0  0  0
  179.3790  178.2780  141.0900 C   0  0  0  0  0  2  0  0  0  0  0  0
  183.4860  178.8170  142.4490 N   0  0  0  0  0  0  0  0  0  0  0  0
  180.4690  179.0610  140.5100 N   0  0  0  0  0  0  0  0  0  0  0  0
  184.0410  178.4840  141.1930 N   0  0  0  0  0  0  0  0  0  0  0  0
  184.0920  178.3580  143.7000 C   0  0  0  0  0  2  0  0  0  0  0  0
  184.3000  179.5130  144.6550 C   0  0  0  0  0  1  0  0  0  0  0  0
  179.3340  176.1200  135.1640 C   0  0  0  0  0  2  0  0  0  0  0  0
  178.9310  175.3010  136.2380 O   0  0  0  0  0  1  0  0  0  0  0  0
  185.7500  177.2040  136.9530 C   0  0  0  0  0  2  0  0  0  0  0  0
  187.0020  177.6540  134.9490 O   0  0  0  0  0  1  0  0  0  0  0  0
  186.4530  176.6210  135.7310 C   0  0  1  0  0  3  0  0  0  0  0  0
  187.4650  175.7480  136.1500 O   0  0  0  0  0  0  0  0  0  0  0  0
  188.6180  176.5310  136.2910 C   0  0  2  0  0  3  0  0  0  0  0  0
  191.1580  176.3970  135.8330 C   0  0  0  0  0  2  0  0  0  0  0  0
  189.7430  176.1000  135.3400 C   0  0  1  0  0  3  0  0  0  0  0  0
  190.7560  174.0210  135.9440 N   0  0  0  0  0  2  0  0  0  0  0  0
  191.7890  175.0320  136.0310 C   0  0  2  0  0  3  0  0  0  0  0  0
  189.6970  174.6120  135.1310 C   0  0  0  0  0  2  0  0  0  0  0  0
  192.1690  176.2490  138.1690 C   0  0  0  0  0  1  0  0  0  0  0  0
  192.4320  174.9700  137.4020 C   0  0  0  0  0  2  0  0  0  0  0  0
  189.1280  176.4380  137.7390 C   0  0  0  0  0  2  0  0  0  0  0  0
  188.9450  177.7100  138.5290 C   0  0  0  0  0  0  0  0  0  0  0  0
  188.8510  178.8070  137.9180 O   0  0  0  0  0  0  0  0  0  0  0  0
  188.8270  177.7300  139.9120 O   0  0  0  0  0  0  0  0  0  0  0  0
  188.7940  176.5590  140.7230 C   0  0  0  0  0  2  0  0  0  0  0  0
  189.5570  177.4520  144.8470 C   0  0  0  0  0  0  0  0  0  0  0  0
  190.3600  177.3870  142.5380 C   0  0  0  0  0  0  0  0  0  0  0  0
  188.2920  177.0540  144.3770 C   0  0  0  0  0  0  0  0  0  0  0  0
  190.5960  177.6360  143.9120 C   0  0  0  0  0  0  0  0  0  0  0  0
  189.0840  176.9720  142.1400 C   0  0  0  0  0  0  0  0  0  0  0  0
  191.8780  178.1030  144.3580 N   0  0  0  0  0  1  0  0  0  0  0  0
  188.1020  176.8250  143.0600 N   0  0  0  0  0  0  0  0  0  0  0  0
  187.1170  176.8650  145.2690 C   0  0  0  0  0  1  0  0  0  0  0  0
  192.6120  177.7080  141.7270 O   0  0  0  0  0  0  0  0  0  0  0  0
  191.3780  177.6090  141.4750 C   0  0  0  0  0  3  0  0  0  0  0  0
  189.8230  177.8730  146.2870 C   0  0  2  0  0  3  0  0  0  0  0  0
  190.9430  177.4040  148.3870 O   0  0  0  0  0  1  0  0  0  0  0  0
  190.3490  176.8090  147.2730 C   0  0  2  0  0  3  0  0  0  0  0  0
  192.4580  175.6730  147.4060 O   0  0  0  0  0  1  0  0  0  0  0  0
  191.3450  175.8700  146.5880 C   0  0  0  0  0  2  0  0  0  0  0  0
  188.9100  178.8090  146.8340 O   0  0  0  0  0  0  0  0  0  0  0  0
  188.1630  178.1570  147.7090 O   0  0  0  0  0  1  0  0  0  0  0  0
  1 36  1  0  0  0  0
  2  1  2  0  0  0  0
  3  6  1  0  0  0  0
  4  2  1  1  0  0  0
  4  7  1  0  0  0  0
  6  5  1  0  0  0  0
  6  7  1  0  0  0  0
  7 11  1  1  0  0  0
  8  3  1  0  0  0  0
  8  4  1  0  0  0  0
 11  9  2  0  0  0  0
 11 10  1  0  0  0  0
 12  2  1  0  0  0  0
 12 13  1  0  0  0  0
 14 34  1  1  0  0  0
 14 19  1  0  0  0  0
 14 13  1  0  0  0  0
 15 19  1  0  0  0  0
 15 16  1  0  0  0  0
 16 17  1  0  0  0  0
 17 26  1  1  0  0  0
 18 17  1  0  0  0  0
 19 18  1  0  0  0  0
 20 21  1  0  0  0  0
 20 31  2  0  0  0  0
 21 27  2  0  0  0  0
 23 22  1  0  0  0  0
 24 22  1  0  0  0  0
 25 26  2  0  0  0  0
 26 30  1  0  0  0  0
 27 29  1  0  0  0  0
 27 23  1  0  0  0  0
 28 24  1  0  0  0  0
 29 32  1  0  0  0  0
 30 21  1  0  0  0  0
 30 28  1  0  0  0  0
 31 29  1  0  0  0  0
 32 33  1  0  0  0  0
 34 35  1  0  0  0  0
 38 37  1  1  0  0  0
 38 39  1  0  0  0  0
 38 36  1  0  0  0  0
 39 40  1  0  0  0  0
 40 48  1  1  0  0  0
 41 44  1  0  0  0  0
 42 41  1  0  0  0  0
 42 40  1  1  0  0  0
 43 44  1  0  0  0  0
 44 47  1  1  0  0  0
 45 42  1  0  0  0  0
 45 43  1  0  0  0  0
 47 46  1  0  0  0  0
 48 49  1  0  0  0  0
 49 51  1  0  0  0  0
 50 49  2  0  0  0  0
 51 52  1  0  0  0  0
 52 57  1  0  0  0  0
 53 63  1  0  0  0  0
 54 56  1  0  0  0  0
 55 53  1  0  0  0  0
 55 60  1  0  0  0  0
 56 58  1  0  0  0  0
 56 53  2  0  0  0  0
 57 54  2  0  0  0  0
 57 59  1  0  0  0  0
 59 55  2  0  0  0  0
 62 61  2  0  0  0  0
 62 54  1  0  0  0  0
 63 68  1  1  0  0  0
 63 65  1  0  0  0  0
 65 64  1  1  0  0  0
 67 65  1  0  0  0  0
 67 66  1  0  0  0  0
 68 69  1  0  0  0  0
M  END
>  <MODEL>
2

>  <REMARK>
 VINA RESULT:      -5.8      2.913     11.919
  Name = 
  25 active torsions:
  status: ('A' for Active; 'I' for Inactive)
    1  A    between atoms: C_1  and  C_13
    2  A    between atoms: C_1  and  C_45
    3  A    between atoms: O_5  and  C_14
    4  A    between atoms: O_5  and  C_63
    5  A    between atoms: C_7  and  C_35
    6  A    between atoms: C_9  and  C_55
    7  A    between atoms: C_10  and  C_45
    8  A    between atoms: C_11  and  C_53
    9  A    between atoms: C_13  and  O_34
   10  A    between atoms: C_14  and  C_21
   11  A    between atoms: C_14  and  N_54
   12  A    between atoms: O_17  and  C_35
   13  A    between atoms: O_19  and  C_45
   14  A    between atoms: O_19  and  C_58
   15  A    between atoms: C_20  and  C_26
   16  A    between atoms: C_20  and  C_58
   17  A    between atoms: C_24  and  C_67
   18  A    between atoms: C_31  and  C_52
   19  A    between atoms: O_34  and  C_52
   20  A    between atoms: C_35  and  C_67
   21  A    between atoms: C_37  and  C_50
   22  A    between atoms: C_41  and  C_44
   23  A    between atoms: C_49  and  C_64
   24  A    between atoms: C_55  and  C_63
   25  A    between atoms: N_59  and  C_62
                            x       y       z     vdW  Elec       q    Type
                         _______ _______ _______ _____ _____    ______ ____

>  <TORSDO>
F 25

$$$$
=
 OpenBabel11032420353D

 69 74  0  0  1  0  0  0  0  0999 V2000
  185.5190  178.0000  138.5610 C   0  0  0  0  0  3  0  0  0  0  0  0
  184.5560  178.6720  139.2080 C   0  0  0  0  0  0  0  0  0  0  0  0
  181.3140  180.4700  138.7890 C   0  0  0  0  0  2  0  0  0  0  0  0
  183.2910  179.1670  138.5670 C   0  0  1  0  0  3  0  0  0  0  0  0
  179.7820  178.9070  137.9780 C   0  0  0  0  0  1  0  0  0  0  0  0
  180.8980  179.0660  138.8930 N   0  0  0  0  0  0  0  0  0  0  0  0
  182.0300  178.2930  138.3600 C   0  0  2  0  0  3  0  0  0  0  0  0
  182.7960  180.4880  139.1100 C   0  0  0  0  0  2  0  0  0  0  0  0
  181.3170  176.0130  138.2350 O   0  0  0  0  0  0  0  0  0  0  0  0
  182.6740  176.4590  140.0170 O   0  0  0  0  0  1  0  0  0  0  0  0
  181.9920  176.8630  138.8760 C   0  0  0  0  0  0  0  0  0  0  0  0
  184.5750  178.6720  140.7010 C   0  0  0  0  0  2  0  0  0  0  0  0
  185.4150  179.7020  141.1490 O   0  0  0  0  0  0  0  0  0  0  0  0
  186.3980  179.0880  141.9520 C   0  0  2  0  0  3  0  0  0  0  0  0
  187.7220  177.3530  140.9580 C   0  0  0  0  0  2  0  0  0  0  0  0
  188.8790  176.7880  141.7500 C   0  0  0  0  0  2  0  0  0  0  0  0
  189.7610  177.9820  141.9890 C   0  0  1  0  0  3  0  0  0  0  0  0
  188.8220  179.1730  141.9620 C   0  0  0  0  0  2  0  0  0  0  0  0
  187.6370  178.7900  141.1860 N   0  0  0  0  0  0  0  0  0  0  0  0
  192.0020  175.5060  144.7710 N   0  0  0  0  0  0  0  0  0  0  0  0
  191.0480  176.4420  145.2500 C   0  0  0  0  0  0  0  0  0  0  0  0
  188.9400  177.1380  147.2610 N   0  0  0  0  0  2  0  0  0  0  0  0
  190.3540  177.4710  147.4140 C   0  0  0  0  0  2  0  0  0  0  0  0
  188.4270  177.8590  146.0990 C   0  0  0  0  0  2  0  0  0  0  0  0
  191.7500  178.3010  143.2690 O   0  0  0  0  0  0  0  0  0  0  0  0
  190.5570  177.8650  143.2820 C   0  0  0  0  0  0  0  0  0  0  0  0
  191.1660  176.5740  146.5400 C   0  0  0  0  0  0  0  0  0  0  0  0
  188.6850  177.0770  144.8010 C   0  0  0  0  0  2  0  0  0  0  0  0
  192.2170  175.7100  146.9590 N   0  0  0  0  0  0  0  0  0  0  0  0
  190.0980  177.1310  144.4280 N   0  0  0  0  0  0  0  0  0  0  0  0
  192.7150  174.9720  145.8620 N   0  0  0  0  0  0  0  0  0  0  0  0
  192.2980  175.1930  148.3270 C   0  0  0  0  0  2  0  0  0  0  0  0
  193.1920  176.0660  149.1810 C   0  0  0  0  0  1  0  0  0  0  0  0
  185.8030  177.8380  142.6220 C   0  0  0  0  0  2  0  0  0  0  0  0
  184.7210  178.1810  143.4590 O   0  0  0  0  0  1  0  0  0  0  0  0
  185.5330  177.7070  137.0870 C   0  0  0  0  0  2  0  0  0  0  0  0
  184.2630  176.4940  135.4420 O   0  0  0  0  0  1  0  0  0  0  0  0
  184.7240  176.4520  136.7710 C   0  0  1  0  0  3  0  0  0  0  0  0
  185.5270  175.3210  136.9640 O   0  0  0  0  0  0  0  0  0  0  0  0
  185.5510  174.6480  135.7360 C   0  0  2  0  0  3  0  0  0  0  0  0
  184.9340  172.4140  134.5940 C   0  0  0  0  0  2  0  0  0  0  0  0
  184.6670  173.3940  135.7350 C   0  0  1  0  0  3  0  0  0  0  0  0
  185.7410  171.4710  136.6630 N   0  0  0  0  0  2  0  0  0  0  0  0
  185.4530  171.1630  135.2780 C   0  0  2  0  0  3  0  0  0  0  0  0
  184.8870  172.6080  136.9970 C   0  0  0  0  0  2  0  0  0  0  0  0
  187.6200  169.9740  135.5710 C   0  0  0  0  0  1  0  0  0  0  0  0
  186.7260  170.7080  134.5940 C   0  0  0  0  0  2  0  0  0  0  0  0
  186.9950  174.2390  135.4020 C   0  0  0  0  0  2  0  0  0  0  0  0
  188.0090  174.7160  136.4120 C   0  0  0  0  0  0  0  0  0  0  0  0
  187.6690  174.8320  137.6180 O   0  0  0  0  0  0  0  0  0  0  0  0
  189.3290  174.9940  136.0830 O   0  0  0  0  0  0  0  0  0  0  0  0
  190.2010  174.0660  135.4440 C   0  0  0  0  0  2  0  0  0  0  0  0
  194.1660  174.2920  137.0610 C   0  0  0  0  0  0  0  0  0  0  0  0
  192.0160  175.3760  136.6380 C   0  0  0  0  0  0  0  0  0  0  0  0
  193.6270  173.1030  136.5330 C   0  0  0  0  0  0  0  0  0  0  0  0
  193.3430  175.4340  137.1280 C   0  0  0  0  0  0  0  0  0  0  0  0
  191.5480  174.1690  136.1050 C   0  0  0  0  0  0  0  0  0  0  0  0
  193.8480  176.6400  137.7200 N   0  0  0  0  0  1  0  0  0  0  0  0
  192.3570  173.0840  136.0740 N   0  0  0  0  0  0  0  0  0  0  0  0
  194.3930  171.8310  136.4480 C   0  0  0  0  0  1  0  0  0  0  0  0
  190.7590  177.0700  137.8130 O   0  0  0  0  0  0  0  0  0  0  0  0
  191.0580  176.5130  136.7200 C   0  0  0  0  0  3  0  0  0  0  0  0
  195.5310  174.3670  137.7330 C   0  0  2  0  0  3  0  0  0  0  0  0
  197.9530  174.3850  137.5920 O   0  0  0  0  0  1  0  0  0  0  0  0
  196.7870  174.1590  136.8600 C   0  0  2  0  0  3  0  0  0  0  0  0
  197.2170  176.3420  135.9640 O   0  0  0  0  0  1  0  0  0  0  0  0
  196.7570  175.0680  135.6290 C   0  0  0  0  0  2  0  0  0  0  0  0
  195.6050  173.8270  139.0420 O   0  0  0  0  0  0  0  0  0  0  0  0
  195.9000  174.8250  139.8570 O   0  0  0  0  0  1  0  0  0  0  0  0
  1  2  2  0  0  0  0
  2 12  1  0  0  0  0
  3  6  1  0  0  0  0
  3  8  1  0  0  0  0
  4  8  1  0  0  0  0
  4  2  1  1  0  0  0
  5  6  1  0  0  0  0
  7  4  1  0  0  0  0
  7 11  1  1  0  0  0
  7  6  1  0  0  0  0
  9 11  2  0  0  0  0
 11 10  1  0  0  0  0
 12 13  1  0  0  0  0
 13 14  1  0  0  0  0
 14 34  1  6  0  0  0
 15 19  1  0  0  0  0
 15 16  1  0  0  0  0
 16 17  1  0  0  0  0
 17 26  1  1  0  0  0
 18 17  1  0  0  0  0
 19 14  1  0  0  0  0
 19 18  1  0  0  0  0
 20 21  1  0  0  0  0
 20 31  2  0  0  0  0
 21 27  2  0  0  0  0
 22 23  1  0  0  0  0
 24 22  1  0  0  0  0
 25 26  2  0  0  0  0
 26 30  1  0  0  0  0
 27 29  1  0  0  0  0
 27 23  1  0  0  0  0
 28 24  1  0  0  0  0
 29 32  1  0  0  0  0
 30 28  1  0  0  0  0
 30 21  1  0  0  0  0
 31 29  1  0  0  0  0
 32 33  1  0  0  0  0
 34 35  1  0  0  0  0
 36  1  1  0  0  0  0
 38 37  1  6  0  0  0
 38 39  1  0  0  0  0
 38 36  1  0  0  0  0
 40 48  1  1  0  0  0
 40 39  1  0  0  0  0
 41 44  1  0  0  0  0
 41 42  1  0  0  0  0
 42 40  1  6  0  0  0
 42 45  1  0  0  0  0
 43 45  1  0  0  0  0
 44 47  1  6  0  0  0
 44 43  1  0  0  0  0
 47 46  1  0  0  0  0
 48 49  1  0  0  0  0
 49 50  2  0  0  0  0
 51 49  1  0  0  0  0
 52 51  1  0  0  0  0
 52 57  1  0  0  0  0
 53 56  1  0  0  0  0
 53 63  1  0  0  0  0
 54 62  1  0  0  0  0
 54 56  2  0  0  0  0
 55 53  2  0  0  0  0
 56 58  1  0  0  0  0
 57 54  1  0  0  0  0
 59 57  2  0  0  0  0
 59 55  1  0  0  0  0
 60 55  1  0  0  0  0
 62 61  2  0  0  0  0
 63 68  1  1  0  0  0
 65 64  1  1  0  0  0
 65 63  1  0  0  0  0
 67 66  1  0  0  0  0
 67 65  1  0  0  0  0
 68 69  1  0  0  0  0
M  END
>  <MODEL>
3

>  <REMARK>
 VINA RESULT:      -5.6      2.654      9.341
  Name = 
  25 active torsions:
  status: ('A' for Active; 'I' for Inactive)
    1  A    between atoms: C_1  and  C_13
    2  A    between atoms: C_1  and  C_45
    3  A    between atoms: O_5  and  C_14
    4  A    between atoms: O_5  and  C_63
    5  A    between atoms: C_7  and  C_35
    6  A    between atoms: C_9  and  C_55
    7  A    between atoms: C_10  and  C_45
    8  A    between atoms: C_11  and  C_53
    9  A    between atoms: C_13  and  O_34
   10  A    between atoms: C_14  and  C_21
   11  A    between atoms: C_14  and  N_54
   12  A    between atoms: O_17  and  C_35
   13  A    between atoms: O_19  and  C_45
   14  A    between atoms: O_19  and  C_58
   15  A    between atoms: C_20  and  C_26
   16  A    between atoms: C_20  and  C_58
   17  A    between atoms: C_24  and  C_67
   18  A    between atoms: C_31  and  C_52
   19  A    between atoms: O_34  and  C_52
   20  A    between atoms: C_35  and  C_67
   21  A    between atoms: C_37  and  C_50
   22  A    between atoms: C_41  and  C_44
   23  A    between atoms: C_49  and  C_64
   24  A    between atoms: C_55  and  C_63
   25  A    between atoms: N_59  and  C_62
                            x       y       z     vdW  Elec       q    Type
                         _______ _______ _______ _____ _____    ______ ____

>  <TORSDO>
F 25

$$$$
=
 OpenBabel11032420353D

 69 74  0  0  1  0  0  0  0  0999 V2000
  190.4610  176.2290  138.6310 C   0  0  0  0  0  3  0  0  0  0  0  0
  189.5960  175.5610  137.8550 C   0  0  0  0  0  0  0  0  0  0  0  0
  186.2050  175.7260  136.3050 C   0  0  0  0  0  2  0  0  0  0  0  0
  188.3190  176.1400  137.3140 C   0  0  1  0  0  3  0  0  0  0  0  0
  186.3280  177.3080  134.5940 C   0  0  0  0  0  1  0  0  0  0  0  0
  187.0750  176.2470  135.2440 N   0  0  0  0  0  0  0  0  0  0  0  0
  188.2100  176.8620  135.9480 C   0  0  2  0  0  3  0  0  0  0  0  0
  187.1340  175.2040  137.3830 C   0  0  0  0  0  2  0  0  0  0  0  0
  189.7900  178.1040  134.6510 O   0  0  0  0  0  1  0  0  0  0  0  0
  190.1310  175.8460  134.6060 O   0  0  0  0  0  0  0  0  0  0  0  0
  189.4190  176.9610  135.0320 C   0  0  0  0  0  0  0  0  0  0  0  0
  190.0470  174.2820  137.2300 C   0  0  0  0  0  2  0  0  0  0  0  0
  188.9290  173.4710  136.9870 O   0  0  0  0  0  0  0  0  0  0  0  0
  189.4190  172.2960  136.3780 C   0  0  2  0  0  3  0  0  0  0  0  0
  190.7160  171.3540  134.5940 C   0  0  0  0  0  2  0  0  0  0  0  0
  192.1680  171.0320  134.8530 C   0  0  0  0  0  2  0  0  0  0  0  0
  192.7660  172.3610  135.2240 C   0  0  1  0  0  3  0  0  0  0  0  0
  191.6140  173.1570  135.8070 C   0  0  0  0  0  2  0  0  0  0  0  0
  190.3680  172.5960  135.2730 N   0  0  0  0  0  0  0  0  0  0  0  0
  195.0570  173.9230  138.5710 N   0  0  0  0  0  0  0  0  0  0  0  0
  195.7190  173.4330  137.4130 C   0  0  0  0  0  0  0  0  0  0  0  0
  198.0030  173.6590  135.4890 N   0  0  0  0  0  2  0  0  0  0  0  0
  198.0270  172.8260  136.6890 C   0  0  0  0  0  2  0  0  0  0  0  0
  196.9720  173.1370  134.5960 C   0  0  0  0  0  2  0  0  0  0  0  0
  193.8410  171.3690  137.1090 O   0  0  0  0  0  0  0  0  0  0  0  0
  193.9480  172.2210  136.1730 C   0  0  0  0  0  0  0  0  0  0  0  0
  196.9940  173.3180  137.6480 C   0  0  0  0  0  0  0  0  0  0  0  0
  195.5900  173.7140  134.9450 C   0  0  0  0  0  2  0  0  0  0  0  0
  197.2180  173.7400  138.9890 N   0  0  0  0  0  0  0  0  0  0  0  0
  195.0700  173.1190  136.1750 N   0  0  0  0  0  0  0  0  0  0  0  0
  196.0120  174.1930  139.5700 N   0  0  0  0  0  0  0  0  0  0  0  0
  198.5180  174.2420  139.4380 C   0  0  0  0  0  2  0  0  0  0  0  0
  198.7530  175.6520  138.9400 C   0  0  0  0  0  1  0  0  0  0  0  0
  188.2370  171.4250  135.9210 C   0  0  0  0  0  2  0  0  0  0  0  0
  187.2060  172.2190  135.3790 O   0  0  0  0  0  1  0  0  0  0  0  0
  190.2590  177.6250  139.1520 C   0  0  0  0  0  2  0  0  0  0  0  0
  188.1320  176.8880  140.0000 O   0  0  0  0  0  1  0  0  0  0  0  0
  189.2810  177.6350  140.3220 C   0  0  1  0  0  3  0  0  0  0  0  0
  189.9030  177.0920  141.4530 O   0  0  0  0  0  0  0  0  0  0  0  0
  190.1800  178.1720  142.3010 C   0  0  2  0  0  3  0  0  0  0  0  0
  191.1640  178.1870  144.6900 C   0  0  0  0  0  2  0  0  0  0  0  0
  191.3930  177.9160  143.2040 C   0  0  1  0  0  3  0  0  0  0  0  0
  191.3170  175.8070  144.3270 N   0  0  0  0  0  2  0  0  0  0  0  0
  191.2990  176.8290  145.3520 C   0  0  2  0  0  3  0  0  0  0  0  0
  191.8020  176.4720  143.1200 C   0  0  0  0  0  2  0  0  0  0  0  0
  190.2090  177.4750  147.4940 C   0  0  0  0  0  1  0  0  0  0  0  0
  190.1130  176.5950  146.2660 C   0  0  0  0  0  2  0  0  0  0  0  0
  188.9540  178.4590  143.1840 C   0  0  0  0  0  2  0  0  0  0  0  0
  188.0370  177.2730  143.3520 C   0  0  0  0  0  0  0  0  0  0  0  0
  188.4780  176.1160  143.1260 O   0  0  0  0  0  0  0  0  0  0  0  0
  186.7260  177.3880  143.7940 O   0  0  0  0  0  0  0  0  0  0  0  0
  186.0320  178.6280  143.9070 C   0  0  0  0  0  2  0  0  0  0  0  0
  183.2850  178.5650  140.6150 C   0  0  0  0  0  0  0  0  0  0  0  0
  183.6510  178.6130  143.0320 C   0  0  0  0  0  0  0  0  0  0  0  0
  184.6780  178.6730  140.4410 C   0  0  0  0  0  0  0  0  0  0  0  0
  182.7680  178.5520  141.9270 C   0  0  0  0  0  0  0  0  0  0  0  0
  185.0270  178.6970  142.7900 C   0  0  0  0  0  0  0  0  0  0  0  0
  181.3490  178.5070  142.1300 N   0  0  0  0  0  1  0  0  0  0  0  0
  185.4900  178.7280  141.5180 N   0  0  0  0  0  0  0  0  0  0  0  0
  185.3270  178.7310  139.1050 C   0  0  0  0  0  1  0  0  0  0  0  0
  183.6070  179.5330  145.2640 O   0  0  0  0  0  0  0  0  0  0  0  0
  183.1940  178.6620  144.4480 C   0  0  0  0  0  3  0  0  0  0  0  0
  182.2880  178.6450  139.4660 C   0  0  2  0  0  3  0  0  0  0  0  0
  181.8060  176.2730  139.6170 O   0  0  0  0  0  1  0  0  0  0  0  0
  181.9210  177.3410  138.7270 C   0  0  2  0  0  3  0  0  0  0  0  0
  182.7250  175.7330  137.1380 O   0  0  0  0  0  1  0  0  0  0  0  0
  182.9530  177.0130  137.6450 C   0  0  0  0  0  2  0  0  0  0  0  0
  182.3780  179.8010  138.6500 O   0  0  0  0  0  0  0  0  0  0  0  0
  181.6160  180.7280  139.2050 O   0  0  0  0  0  1  0  0  0  0  0  0
  1 36  1  0  0  0  0
  2  1  2  0  0  0  0
  3  8  1  0  0  0  0
  4  8  1  0  0  0  0
  4  2  1  6  0  0  0
  5  6  1  0  0  0  0
  6  7  1  0  0  0  0
  6  3  1  0  0  0  0
  7 11  1  6  0  0  0
  7  4  1  0  0  0  0
  9 11  1  0  0  0  0
 10 11  2  0  0  0  0
 12  2  1  0  0  0  0
 13 12  1  0  0  0  0
 14 34  1  6  0  0  0
 14 13  1  0  0  0  0
 15 16  1  0  0  0  0
 15 19  1  0  0  0  0
 16 17  1  0  0  0  0
 17 18  1  0  0  0  0
 17 26  1  1  0  0  0
 19 18  1  0  0  0  0
 19 14  1  0  0  0  0
 20 31  2  0  0  0  0
 21 27  2  0  0  0  0
 21 20  1  0  0  0  0
 22 23  1  0  0  0  0
 23 27  1  0  0  0  0
 24 28  1  0  0  0  0
 24 22  1  0  0  0  0
 26 30  1  0  0  0  0
 26 25  2  0  0  0  0
 27 29  1  0  0  0  0
 28 30  1  0  0  0  0
 29 32  1  0  0  0  0
 29 31  1  0  0  0  0
 30 21  1  0  0  0  0
 33 32  1  0  0  0  0
 35 34  1  0  0  0  0
 36 38  1  0  0  0  0
 38 37  1  6  0  0  0
 38 39  1  0  0  0  0
 39 40  1  0  0  0  0
 40 48  1  1  0  0  0
 41 44  1  0  0  0  0
 42 40  1  6  0  0  0
 42 41  1  0  0  0  0
 43 44  1  0  0  0  0
 44 47  1  1  0  0  0
 45 42  1  0  0  0  0
 45 43  1  0  0  0  0
 47 46  1  0  0  0  0
 48 49  1  0  0  0  0
 49 51  1  0  0  0  0
 50 49  2  0  0  0  0
 51 52  1  0  0  0  0
 53 56  1  0  0  0  0
 54 62  1  0  0  0  0
 55 53  2  0  0  0  0
 55 59  1  0  0  0  0
 56 58  1  0  0  0  0
 56 54  2  0  0  0  0
 57 54  1  0  0  0  0
 57 52  1  0  0  0  0
 59 57  2  0  0  0  0
 60 55  1  0  0  0  0
 62 61  2  0  0  0  0
 63 68  1  6  0  0  0
 63 53  1  0  0  0  0
 65 63  1  0  0  0  0
 65 64  1  1  0  0  0
 66 67  1  0  0  0  0
 67 65  1  0  0  0  0
 68 69  1  0  0  0  0
M  END
>  <MODEL>
4

>  <REMARK>
 VINA RESULT:      -5.1      2.706      7.545
  Name = 
  25 active torsions:
  status: ('A' for Active; 'I' for Inactive)
    1  A    between atoms: C_1  and  C_13
    2  A    between atoms: C_1  and  C_45
    3  A    between atoms: O_5  and  C_14
    4  A    between atoms: O_5  and  C_63
    5  A    between atoms: C_7  and  C_35
    6  A    between atoms: C_9  and  C_55
    7  A    between atoms: C_10  and  C_45
    8  A    between atoms: C_11  and  C_53
    9  A    between atoms: C_13  and  O_34
   10  A    between atoms: C_14  and  C_21
   11  A    between atoms: C_14  and  N_54
   12  A    between atoms: O_17  and  C_35
   13  A    between atoms: O_19  and  C_45
   14  A    between atoms: O_19  and  C_58
   15  A    between atoms: C_20  and  C_26
   16  A    between atoms: C_20  and  C_58
   17  A    between atoms: C_24  and  C_67
   18  A    between atoms: C_31  and  C_52
   19  A    between atoms: O_34  and  C_52
   20  A    between atoms: C_35  and  C_67
   21  A    between atoms: C_37  and  C_50
   22  A    between atoms: C_41  and  C_44
   23  A    between atoms: C_49  and  C_64
   24  A    between atoms: C_55  and  C_63
   25  A    between atoms: N_59  and  C_62
                            x       y       z     vdW  Elec       q    Type
                         _______ _______ _______ _____ _____    ______ ____

>  <TORSDO>
F 25

$$$$
=
 OpenBabel11032420353D

 69 74  0  0  1  0  0  0  0  0999 V2000
  186.3190  177.8280  142.0600 C   0  0  0  0  0  3  0  0  0  0  0  0
  186.0500  177.9670  143.3660 C   0  0  0  0  0  0  0  0  0  0  0  0
  188.5840  176.8970  145.8870 C   0  0  0  0  0  2  0  0  0  0  0  0
  187.0950  178.0580  144.4420 C   0  0  1  0  0  3  0  0  0  0  0  0
  188.0500  177.9900  147.8790 C   0  0  0  0  0  1  0  0  0  0  0  0
  187.4610  177.3410  146.7220 N   0  0  0  0  0  0  0  0  0  0  0  0
  186.7800  178.3730  145.9260 C   0  0  2  0  0  3  0  0  0  0  0  0
  188.0700  176.9030  144.4610 C   0  0  0  0  0  2  0  0  0  0  0  0
  185.0610  179.5250  147.1250 O   0  0  0  0  0  1  0  0  0  0  0  0
  184.3290  177.6630  146.0230 O   0  0  0  0  0  0  0  0  0  0  0  0
  185.3410  178.5420  146.3870 C   0  0  0  0  0  0  0  0  0  0  0  0
  184.6660  178.3610  143.7660 C   0  0  0  0  0  2  0  0  0  0  0  0
  184.0390  178.9940  142.6830 O   0  0  0  0  0  0  0  0  0  0  0  0
  182.7300  178.4710  142.6250 C   0  0  2  0  0  3  0  0  0  0  0  0
  180.6650  178.3790  141.4100 C   0  0  0  0  0  2  0  0  0  0  0  0
  180.4290  177.2110  140.4810 C   0  0  0  0  0  2  0  0  0  0  0  0
  181.5570  177.3090  139.4930 C   0  0  1  0  0  3  0  0  0  0  0  0
  182.6740  178.0100  140.2440 C   0  0  0  0  0  2  0  0  0  0  0  0
  182.0630  178.7820  141.3330 N   0  0  0  0  0  0  0  0  0  0  0  0
  182.6300  174.8620  136.0650 N   0  0  0  0  0  0  0  0  0  0  0  0
  181.7180  174.3740  137.0390 C   0  0  0  0  0  0  0  0  0  0  0  0
  179.2690  172.7680  137.6680 N   0  0  0  0  0  2  0  0  0  0  0  0
  180.6250  172.2240  137.6730 C   0  0  0  0  0  2  0  0  0  0  0  0
  179.1840  173.7800  138.7170 C   0  0  0  0  0  2  0  0  0  0  0  0
  183.1630  175.5840  139.1190 O   0  0  0  0  0  0  0  0  0  0  0  0
  181.9610  175.9510  138.9360 C   0  0  0  0  0  0  0  0  0  0  0  0
  181.5090  173.1030  136.8530 C   0  0  0  0  0  0  0  0  0  0  0  0
  179.6660  175.1490  138.2110 C   0  0  0  0  0  2  0  0  0  0  0  0
  182.2860  172.7070  135.7270 N   0  0  0  0  0  0  0  0  0  0  0  0
  181.1210  175.1720  138.0680 N   0  0  0  0  0  0  0  0  0  0  0  0
  182.9510  173.8230  135.1710 N   0  0  0  0  0  0  0  0  0  0  0  0
  181.9330  171.5430  134.9110 C   0  0  0  0  0  2  0  0  0  0  0  0
  182.9020  170.4040  135.1480 C   0  0  0  0  0  1  0  0  0  0  0  0
  181.9270  178.9690  143.8380 C   0  0  0  0  0  2  0  0  0  0  0  0
  182.0690  180.3620  144.0000 O   0  0  0  0  0  1  0  0  0  0  0  0
  187.6910  177.6590  141.4700 C   0  0  0  0  0  2  0  0  0  0  0  0
  188.7630  179.8120  141.5340 O   0  0  0  0  0  1  0  0  0  0  0  0
  188.1060  178.9000  140.6860 C   0  0  1  0  0  3  0  0  0  0  0  0
  188.9540  178.5250  139.6370 O   0  0  0  0  0  0  0  0  0  0  0  0
  189.1350  177.1420  139.7600 C   0  0  2  0  0  3  0  0  0  0  0  0
  191.4670  177.9150  140.5590 C   0  0  0  0  0  2  0  0  0  0  0  0
  190.5890  176.7640  140.0740 C   0  0  1  0  0  3  0  0  0  0  0  0
  191.0030  176.4320  142.4050 N   0  0  0  0  0  2  0  0  0  0  0  0
  191.8260  177.5470  141.9870 C   0  0  2  0  0  3  0  0  0  0  0  0
  190.6270  175.7400  141.1740 C   0  0  0  0  0  2  0  0  0  0  0  0
  191.4120  178.2770  144.3300 C   0  0  0  0  0  1  0  0  0  0  0  0
  191.5570  178.7310  142.8930 C   0  0  0  0  0  2  0  0  0  0  0  0
  188.7130  176.4500  138.4530 C   0  0  0  0  0  2  0  0  0  0  0  0
  189.7710  176.4860  137.3790 C   0  0  0  0  0  0  0  0  0  0  0  0
  189.9290  177.5360  136.7040 O   0  0  0  0  0  0  0  0  0  0  0  0
  190.6220  175.4190  137.1220 O   0  0  0  0  0  0  0  0  0  0  0  0
  191.7540  175.4970  136.2590 C   0  0  0  0  0  2  0  0  0  0  0  0
  194.6210  172.4330  137.1460 C   0  0  0  0  0  0  0  0  0  0  0  0
  193.6840  174.6330  137.6600 C   0  0  0  0  0  0  0  0  0  0  0  0
  193.6110  172.2730  136.1790 C   0  0  0  0  0  0  0  0  0  0  0  0
  194.6440  173.6220  137.9050 C   0  0  0  0  0  0  0  0  0  0  0  0
  192.7190  174.4190  136.6690 C   0  0  0  0  0  0  0  0  0  0  0  0
  195.6250  173.7830  138.9400 N   0  0  0  0  0  1  0  0  0  0  0  0
  192.7110  173.2580  135.9710 N   0  0  0  0  0  0  0  0  0  0  0  0
  193.4700  171.0480  135.3470 C   0  0  0  0  0  1  0  0  0  0  0  0
  193.7510  177.0320  137.9280 O   0  0  0  0  0  0  0  0  0  0  0  0
  193.5970  175.8920  138.4490 C   0  0  0  0  0  3  0  0  0  0  0  0
  195.5820  171.3220  137.5470 C   0  0  2  0  0  3  0  0  0  0  0  0
  197.0090  169.6850  136.4680 O   0  0  0  0  0  1  0  0  0  0  0  0
  196.8050  171.0540  136.6460 C   0  0  2  0  0  3  0  0  0  0  0  0
  199.1780  170.8980  136.9660 O   0  0  0  0  0  1  0  0  0  0  0  0
  198.0660  171.7010  137.2240 C   0  0  0  0  0  2  0  0  0  0  0  0
  194.9870  170.1710  138.1230 O   0  0  0  0  0  0  0  0  0  0  0  0
  195.8850  169.6340  138.9310 O   0  0  0  0  0  1  0  0  0  0  0  0
  1  2  2  0  0  0  0
  2 12  1  0  0  0  0
  3  6  1  0  0  0  0
  4  2  1  6  0  0  0
  4  8  1  0  0  0  0
  4  7  1  0  0  0  0
  6  5  1  0  0  0  0
  7 11  1  6  0  0  0
  7  6  1  0  0  0  0
  8  3  1  0  0  0  0
 10 11  2  0  0  0  0
 11  9  1  0  0  0  0
 13 12  1  0  0  0  0
 14 13  1  0  0  0  0
 14 34  1  1  0  0  0
 16 15  1  0  0  0  0
 17 26  1  1  0  0  0
 17 18  1  0  0  0  0
 17 16  1  0  0  0  0
 18 19  1  0  0  0  0
 19 15  1  0  0  0  0
 19 14  1  0  0  0  0
 20 21  1  0  0  0  0
 21 30  1  0  0  0  0
 22 23  1  0  0  0  0
 22 24  1  0  0  0  0
 26 25  2  0  0  0  0
 27 21  2  0  0  0  0
 27 23  1  0  0  0  0
 28 24  1  0  0  0  0
 29 27  1  0  0  0  0
 30 28  1  0  0  0  0
 30 26  1  0  0  0  0
 31 29  1  0  0  0  0
 31 20  2  0  0  0  0
 32 33  1  0  0  0  0
 32 29  1  0  0  0  0
 34 35  1  0  0  0  0
 36  1  1  0  0  0  0
 38 36  1  0  0  0  0
 38 37  1  1  0  0  0
 39 40  1  0  0  0  0
 39 38  1  0  0  0  0
 40 48  1  6  0  0  0
 41 44  1  0  0  0  0
 42 40  1  1  0  0  0
 42 41  1  0  0  0  0
 42 45  1  0  0  0  0
 44 43  1  0  0  0  0
 44 47  1  1  0  0  0
 45 43  1  0  0  0  0
 47 46  1  0  0  0  0
 49 48  1  0  0  0  0
 50 49  2  0  0  0  0
 51 49  1  0  0  0  0
 52 57  1  0  0  0  0
 52 51  1  0  0  0  0
 53 63  1  0  0  0  0
 53 56  1  0  0  0  0
 54 56  2  0  0  0  0
 54 62  1  0  0  0  0
 55 53  2  0  0  0  0
 56 58  1  0  0  0  0
 57 54  1  0  0  0  0
 59 55  1  0  0  0  0
 59 57  2  0  0  0  0
 60 55  1  0  0  0  0
 61 62  2  0  0  0  0
 63 68  1  6  0  0  0
 65 64  1  1  0  0  0
 65 67  1  0  0  0  0
 65 63  1  0  0  0  0
 66 67  1  0  0  0  0
 68 69  1  0  0  0  0
M  END
>  <MODEL>
5

>  <REMARK>
 VINA RESULT:      -4.8      2.746      9.990
  Name = 
  25 active torsions:
  status: ('A' for Active; 'I' for Inactive)
    1  A    between atoms: C_1  and  C_13
    2  A    between atoms: C_1  and  C_45
    3  A    between atoms: O_5  and  C_14
    4  A    between atoms: O_5  and  C_63
    5  A    between atoms: C_7  and  C_35
    6  A    between atoms: C_9  and  C_55
    7  A    between atoms: C_10  and  C_45
    8  A    between atoms: C_11  and  C_53
    9  A    between atoms: C_13  and  O_34
   10  A    between atoms: C_14  and  C_21
   11  A    between atoms: C_14  and  N_54
   12  A    between atoms: O_17  and  C_35
   13  A    between atoms: O_19  and  C_45
   14  A    between atoms: O_19  and  C_58
   15  A    between atoms: C_20  and  C_26
   16  A    between atoms: C_20  and  C_58
   17  A    between atoms: C_24  and  C_67
   18  A    between atoms: C_31  and  C_52
   19  A    between atoms: O_34  and  C_52
   20  A    between atoms: C_35  and  C_67
   21  A    between atoms: C_37  and  C_50
   22  A    between atoms: C_41  and  C_44
   23  A    between atoms: C_49  and  C_64
   24  A    between atoms: C_55  and  C_63
   25  A    between atoms: N_59  and  C_62
                            x       y       z     vdW  Elec       q    Type
                         _______ _______ _______ _____ _____    ______ ____

>  <TORSDO>
F 25

$$$$
=
 OpenBabel11032420353D

 69 74  0  0  1  0  0  0  0  0999 V2000
  191.7900  176.5250  137.9250 C   0  0  0  0  0  3  0  0  0  0  0  0
  193.0650  176.4240  138.3250 C   0  0  0  0  0  0  0  0  0  0  0  0
  194.9590  175.7000  135.1940 C   0  0  0  0  0  2  0  0  0  0  0  0
  194.2270  176.1850  137.4030 C   0  0  1  0  0  3  0  0  0  0  0  0
  196.4560  173.9820  135.6990 C   0  0  0  0  0  1  0  0  0  0  0  0
  195.1100  174.4580  135.9610 N   0  0  0  0  0  0  0  0  0  0  0  0
  195.0460  174.8710  137.3710 C   0  0  2  0  0  3  0  0  0  0  0  0
  193.9580  176.5420  135.9600 C   0  0  0  0  0  2  0  0  0  0  0  0
  193.7100  172.9520  137.8750 O   0  0  0  0  0  0  0  0  0  0  0  0
  195.2920  173.4150  139.4560 O   0  0  0  0  0  1  0  0  0  0  0  0
  194.6520  173.6980  138.2550 C   0  0  0  0  0  0  0  0  0  0  0  0
  193.4110  176.8730  139.7070 C   0  0  0  0  0  2  0  0  0  0  0  0
  192.4800  176.3380  140.6100 O   0  0  0  0  0  0  0  0  0  0  0  0
  192.2560  177.3340  141.5820 C   0  0  2  0  0  3  0  0  0  0  0  0
  191.3740  175.5870  142.9690 C   0  0  0  0  0  2  0  0  0  0  0  0
  190.1300  175.8700  143.7770 C   0  0  0  0  0  2  0  0  0  0  0  0
  190.5340  177.0180  144.6600 C   0  0  1  0  0  3  0  0  0  0  0  0
  191.6270  177.7350  143.8910 C   0  0  0  0  0  2  0  0  0  0  0  0
  192.2230  176.7720  142.9580 N   0  0  0  0  0  0  0  0  0  0  0  0
  186.5170  177.4210  146.2700 N   0  0  0  0  0  0  0  0  0  0  0  0
  186.8870  178.1070  145.0830 C   0  0  0  0  0  0  0  0  0  0  0  0
  186.1150  179.1220  142.3730 N   0  0  0  0  0  2  0  0  0  0  0  0
  185.9960  179.9040  143.6010 C   0  0  0  0  0  2  0  0  0  0  0  0
  187.5310  178.8480  142.1450 C   0  0  0  0  0  2  0  0  0  0  0  0
  189.4630  178.6120  146.0770 O   0  0  0  0  0  0  0  0  0  0  0  0
  189.3570  177.9150  145.0200 C   0  0  0  0  0  0  0  0  0  0  0  0
  185.9720  178.9790  144.7720 C   0  0  0  0  0  0  0  0  0  0  0  0
  187.9850  177.5950  142.9110 C   0  0  0  0  0  2  0  0  0  0  0  0
  184.9490  178.8900  145.7580 N   0  0  0  0  0  0  0  0  0  0  0  0
  188.0900  177.8660  144.3440 N   0  0  0  0  0  0  0  0  0  0  0  0
  185.2430  177.8600  146.6790 N   0  0  0  0  0  0  0  0  0  0  0  0
  183.5710  179.3010  145.4860 C   0  0  0  0  0  2  0  0  0  0  0  0
  183.0820  178.7190  144.1770 C   0  0  0  0  0  1  0  0  0  0  0  0
  190.9770  178.1130  141.2320 C   0  0  0  0  0  2  0  0  0  0  0  0
  190.3580  177.5760  140.0840 O   0  0  0  0  0  1  0  0  0  0  0  0
  191.3050  176.3350  136.5150 C   0  0  0  0  0  2  0  0  0  0  0  0
  189.4840  175.3320  137.7270 O   0  0  0  0  0  1  0  0  0  0  0  0
  189.8400  175.9100  136.4930 C   0  0  1  0  0  3  0  0  0  0  0  0
  189.0360  177.0290  136.2390 O   0  0  0  0  0  0  0  0  0  0  0  0
  187.7150  176.5630  136.2290 C   0  0  2  0  0  3  0  0  0  0  0  0
  188.0120  174.4890  134.7180 C   0  0  0  0  0  2  0  0  0  0  0  0
  187.3520  175.8510  134.9190 C   0  0  1  0  0  3  0  0  0  0  0  0
  185.6650  174.1780  135.1820 N   0  0  0  0  0  2  0  0  0  0  0  0
  186.8600  173.5000  134.7270 C   0  0  2  0  0  3  0  0  0  0  0  0
  185.8720  175.5900  134.8690 C   0  0  0  0  0  2  0  0  0  0  0  0
  186.9110  172.7800  137.1090 C   0  0  0  0  0  1  0  0  0  0  0  0
  187.1810  172.3650  135.6790 C   0  0  0  0  0  2  0  0  0  0  0  0
  186.7520  177.7430  136.4380 C   0  0  0  0  0  2  0  0  0  0  0  0
  186.4520  178.0310  137.8880 C   0  0  0  0  0  0  0  0  0  0  0  0
  187.1080  177.4370  138.7830 O   0  0  0  0  0  0  0  0  0  0  0  0
  185.5070  178.9650  138.2930 O   0  0  0  0  0  0  0  0  0  0  0  0
  184.4930  178.7000  139.2580 C   0  0  0  0  0  2  0  0  0  0  0  0
  181.3910  176.2670  137.5700 C   0  0  0  0  0  0  0  0  0  0  0  0
  182.1620  178.4760  138.2820 C   0  0  0  0  0  0  0  0  0  0  0  0
  182.6720  175.7660  137.8710 C   0  0  0  0  0  0  0  0  0  0  0  0
  181.1430  177.6410  137.7630 C   0  0  0  0  0  0  0  0  0  0  0  0
  183.4070  177.9100  138.5800 C   0  0  0  0  0  0  0  0  0  0  0  0
  179.8650  178.1880  137.4050 N   0  0  0  0  0  1  0  0  0  0  0  0
  183.6210  176.5900  138.3640 N   0  0  0  0  0  0  0  0  0  0  0  0
  183.0550  174.3430  137.6720 C   0  0  0  0  0  1  0  0  0  0  0  0
  181.3980  180.6720  137.6320 O   0  0  0  0  0  0  0  0  0  0  0  0
  182.0090  179.9450  138.4640 C   0  0  0  0  0  3  0  0  0  0  0  0
  180.3120  175.4460  136.8760 C   0  0  2  0  0  3  0  0  0  0  0  0
  179.9060  174.4240  139.0380 O   0  0  0  0  0  1  0  0  0  0  0  0
  179.6250  174.3180  137.6760 C   0  0  2  0  0  3  0  0  0  0  0  0
  178.9420  172.2550  136.6600 O   0  0  0  0  0  1  0  0  0  0  0  0
  180.0500  172.9410  137.1590 C   0  0  0  0  0  2  0  0  0  0  0  0
  180.5350  175.1690  135.5040 O   0  0  0  0  0  0  0  0  0  0  0  0
  179.7850  176.0090  134.8120 O   0  0  0  0  0  1  0  0  0  0  0  0
  1  2  2  0  0  0  0
  2 12  1  0  0  0  0
  3  8  1  0  0  0  0
  3  6  1  0  0  0  0
  4  2  1  1  0  0  0
  5  6  1  0  0  0  0
  6  7  1  0  0  0  0
  7  4  1  0  0  0  0
  7 11  1  1  0  0  0
  8  4  1  0  0  0  0
  9 11  2  0  0  0  0
 11 10  1  0  0  0  0
 12 13  1  0  0  0  0
 13 14  1  0  0  0  0
 14 34  1  6  0  0  0
 14 19  1  0  0  0  0
 15 16  1  0  0  0  0
 16 17  1  0  0  0  0
 17 26  1  6  0  0  0
 18 17  1  0  0  0  0
 19 15  1  0  0  0  0
 19 18  1  0  0  0  0
 20 31  2  0  0  0  0
 21 20  1  0  0  0  0
 22 23  1  0  0  0  0
 23 27  1  0  0  0  0
 24 22  1  0  0  0  0
 24 28  1  0  0  0  0
 26 25  2  0  0  0  0
 27 21  2  0  0  0  0
 27 29  1  0  0  0  0
 28 30  1  0  0  0  0
 29 31  1  0  0  0  0
 30 26  1  0  0  0  0
 30 21  1  0  0  0  0
 32 29  1  0  0  0  0
 33 32  1  0  0  0  0
 35 34  1  0  0  0  0
 36  1  1  0  0  0  0
 38 36  1  0  0  0  0
 38 37  1  1  0  0  0
 39 38  1  0  0  0  0
 40 39  1  0  0  0  0
 40 48  1  6  0  0  0
 41 44  1  0  0  0  0
 41 42  1  0  0  0  0
 42 40  1  1  0  0  0
 44 43  1  0  0  0  0
 44 47  1  1  0  0  0
 45 42  1  0  0  0  0
 45 43  1  0  0  0  0
 47 46  1  0  0  0  0
 48 49  1  0  0  0  0
 49 51  1  0  0  0  0
 49 50  2  0  0  0  0
 51 52  1  0  0  0  0
 53 56  2  0  0  0  0
 53 55  1  0  0  0  0
 54 62  1  0  0  0  0
 54 57  2  0  0  0  0
 55 59  2  0  0  0  0
 56 54  1  0  0  0  0
 57 52  1  0  0  0  0
 58 56  1  0  0  0  0
 59 57  1  0  0  0  0
 60 55  1  0  0  0  0
 61 62  2  0  0  0  0
 63 68  1  6  0  0  0
 63 53  1  0  0  0  0
 63 65  1  0  0  0  0
 65 64  1  1  0  0  0
 66 67  1  0  0  0  0
 67 65  1  0  0  0  0
 69 68  1  0  0  0  0
M  END
>  <MODEL>
6

>  <REMARK>
 VINA RESULT:      -4.5      2.144      8.326
  Name = 
  25 active torsions:
  status: ('A' for Active; 'I' for Inactive)
    1  A    between atoms: C_1  and  C_13
    2  A    between atoms: C_1  and  C_45
    3  A    between atoms: O_5  and  C_14
    4  A    between atoms: O_5  and  C_63
    5  A    between atoms: C_7  and  C_35
    6  A    between atoms: C_9  and  C_55
    7  A    between atoms: C_10  and  C_45
    8  A    between atoms: C_11  and  C_53
    9  A    between atoms: C_13  and  O_34
   10  A    between atoms: C_14  and  C_21
   11  A    between atoms: C_14  and  N_54
   12  A    between atoms: O_17  and  C_35
   13  A    between atoms: O_19  and  C_45
   14  A    between atoms: O_19  and  C_58
   15  A    between atoms: C_20  and  C_26
   16  A    between atoms: C_20  and  C_58
   17  A    between atoms: C_24  and  C_67
   18  A    between atoms: C_31  and  C_52
   19  A    between atoms: O_34  and  C_52
   20  A    between atoms: C_35  and  C_67
   21  A    between atoms: C_37  and  C_50
   22  A    between atoms: C_41  and  C_44
   23  A    between atoms: C_49  and  C_64
   24  A    between atoms: C_55  and  C_63
   25  A    between atoms: N_59  and  C_62
                            x       y       z     vdW  Elec       q    Type
                         _______ _______ _______ _____ _____    ______ ____

>  <TORSDO>
F 25

$$$$
=
 OpenBabel11032420353D

 69 74  0  0  1  0  0  0  0  0999 V2000
  186.2600  177.8960  142.2980 C   0  0  0  0  0  3  0  0  0  0  0  0
  185.8540  178.1050  143.5580 C   0  0  0  0  0  0  0  0  0  0  0  0
  188.3360  177.5310  146.2840 C   0  0  0  0  0  2  0  0  0  0  0  0
  186.7760  178.3910  144.7090 C   0  0  1  0  0  3  0  0  0  0  0  0
  187.4540  178.5120  148.2100 C   0  0  0  0  0  1  0  0  0  0  0  0
  187.0880  177.7610  147.0220 N   0  0  0  0  0  0  0  0  0  0  0  0
  186.2930  178.6470  146.1580 C   0  0  2  0  0  3  0  0  0  0  0  0
  187.9430  177.4370  144.8230 C   0  0  0  0  0  2  0  0  0  0  0  0
  184.0380  179.4380  146.0680 O   0  0  0  0  0  0  0  0  0  0  0  0
  184.2940  177.5160  147.2760 O   0  0  0  0  0  1  0  0  0  0  0  0
  184.8160  178.5480  146.5050 C   0  0  0  0  0  0  0  0  0  0  0  0
  184.4060  178.3750  143.8000 C   0  0  0  0  0  2  0  0  0  0  0  0
  183.8160  178.8140  142.6050 O   0  0  0  0  0  0  0  0  0  0  0  0
  182.4950  178.3200  142.6130 C   0  0  2  0  0  3  0  0  0  0  0  0
  180.3020  178.6350  141.6950 C   0  0  0  0  0  2  0  0  0  0  0  0
  179.7210  177.5410  140.8290 C   0  0  0  0  0  2  0  0  0  0  0  0
  180.7010  177.4310  139.6930 C   0  0  1  0  0  3  0  0  0  0  0  0
  182.0230  177.8990  140.2710 C   0  0  0  0  0  2  0  0  0  0  0  0
  181.7270  178.7630  141.4190 N   0  0  0  0  0  0  0  0  0  0  0  0
  182.9720  174.3320  137.6620 N   0  0  0  0  0  0  0  0  0  0  0  0
  181.6370  174.6180  137.2700 C   0  0  0  0  0  0  0  0  0  0  0  0
  179.6140  174.8490  135.0730 N   0  0  0  0  0  2  0  0  0  0  0  0
  179.8510  173.6280  135.8390 C   0  0  0  0  0  2  0  0  0  0  0  0
  179.1080  175.8670  135.9900 C   0  0  0  0  0  2  0  0  0  0  0  0
  180.8610  175.0620  139.9300 O   0  0  0  0  0  0  0  0  0  0  0  0
  180.7570  176.0260  139.1100 C   0  0  0  0  0  0  0  0  0  0  0  0
  181.2050  173.6940  136.4610 C   0  0  0  0  0  0  0  0  0  0  0  0
  180.2600  176.6060  136.6910 C   0  0  0  0  0  2  0  0  0  0  0  0
  182.2630  172.7560  136.2870 N   0  0  0  0  0  0  0  0  0  0  0  0
  180.8870  175.7590  137.7040 N   0  0  0  0  0  0  0  0  0  0  0  0
  183.4150  173.1790  136.9870 N   0  0  0  0  0  0  0  0  0  0  0  0
  182.3580  171.9060  135.0990 C   0  0  0  0  0  2  0  0  0  0  0  0
  183.4500  170.8700  135.2620 C   0  0  0  0  0  1  0  0  0  0  0  0
  181.8100  178.7100  143.9340 C   0  0  0  0  0  2  0  0  0  0  0  0
  181.1880  179.9710  143.8250 O   0  0  0  0  0  1  0  0  0  0  0  0
  187.6920  177.8320  141.8460 C   0  0  0  0  0  2  0  0  0  0  0  0
  189.0890  179.7860  141.9930 O   0  0  0  0  0  1  0  0  0  0  0  0
  188.1200  179.1450  141.1970 C   0  0  1  0  0  3  0  0  0  0  0  0
  188.6420  178.8850  139.9240 O   0  0  0  0  0  0  0  0  0  0  0  0
  188.6470  177.4920  139.7830 C   0  0  2  0  0  3  0  0  0  0  0  0
  191.1450  177.8290  140.3530 C   0  0  0  0  0  2  0  0  0  0  0  0
  190.0650  176.9040  139.7950 C   0  0  1  0  0  3  0  0  0  0  0  0
  190.7240  176.0510  141.9290 N   0  0  0  0  0  2  0  0  0  0  0  0
  191.6290  177.1350  141.6130 C   0  0  2  0  0  3  0  0  0  0  0  0
  190.1050  175.6750  140.6600 C   0  0  0  0  0  2  0  0  0  0  0  0
  191.3390  177.4250  144.0680 C   0  0  0  0  0  1  0  0  0  0  0  0
  191.6390  178.1260  142.7600 C   0  0  0  0  0  2  0  0  0  0  0  0
  187.9600  177.1050  138.4640 C   0  0  0  0  0  2  0  0  0  0  0  0
  188.9250  176.7690  137.3540 C   0  0  0  0  0  0  0  0  0  0  0  0
  189.4150  177.6980  136.6600 O   0  0  0  0  0  0  0  0  0  0  0  0
  189.3410  175.4720  137.0820 O   0  0  0  0  0  0  0  0  0  0  0  0
  190.0390  175.0930  135.8990 C   0  0  0  0  0  2  0  0  0  0  0  0
  194.0080  174.2420  137.2820 C   0  0  0  0  0  0  0  0  0  0  0  0
  192.0640  173.5660  135.9620 C   0  0  0  0  0  0  0  0  0  0  0  0
  193.3550  175.4610  137.5470 C   0  0  0  0  0  0  0  0  0  0  0  0
  193.3590  173.2930  136.4650 C   0  0  0  0  0  0  0  0  0  0  0  0
  191.4610  174.7880  136.2820 C   0  0  0  0  0  0  0  0  0  0  0  0
  194.0290  172.0710  136.1270 N   0  0  0  0  0  1  0  0  0  0  0  0
  192.1200  175.6870  137.0510 N   0  0  0  0  0  0  0  0  0  0  0  0
  193.9610  176.5450  138.3660 C   0  0  0  0  0  1  0  0  0  0  0  0
  190.0670  172.6420  134.9670 O   0  0  0  0  0  0  0  0  0  0  0  0
  191.3270  172.6510  135.0470 C   0  0  0  0  0  3  0  0  0  0  0  0
  195.4530  173.9620  137.6750 C   0  0  2  0  0  3  0  0  0  0  0  0
  197.5230  172.8710  137.0350 O   0  0  0  0  0  1  0  0  0  0  0  0
  196.4650  173.6440  136.5540 C   0  0  2  0  0  3  0  0  0  0  0  0
  197.6320  175.7140  136.8850 O   0  0  0  0  0  1  0  0  0  0  0  0
  197.0020  174.9290  135.9180 C   0  0  0  0  0  2  0  0  0  0  0  0
  195.6350  173.2390  138.8810 O   0  0  0  0  0  0  0  0  0  0  0  0
  196.2140  174.0600  139.7410 O   0  0  0  0  0  1  0  0  0  0  0  0
  1  2  2  0  0  0  0
  2 12  1  0  0  0  0
  3  6  1  0  0  0  0
  4  2  1  6  0  0  0
  4  8  1  0  0  0  0
  4  7  1  0  0  0  0
  6  5  1  0  0  0  0
  7 11  1  6  0  0  0
  7  6  1  0  0  0  0
  8  3  1  0  0  0  0
  9 11  2  0  0  0  0
 11 10  1  0  0  0  0
 13 14  1  0  0  0  0
 13 12  1  0  0  0  0
 14 34  1  1  0  0  0
 16 15  1  0  0  0  0
 17 26  1  1  0  0  0
 17 18  1  0  0  0  0
 17 16  1  0  0  0  0
 18 19  1  0  0  0  0
 19 15  1  0  0  0  0
 19 14  1  0  0  0  0
 21 20  1  0  0  0  0
 21 30  1  0  0  0  0
 22 23  1  0  0  0  0
 22 24  1  0  0  0  0
 23 27  1  0  0  0  0
 24 28  1  0  0  0  0
 26 25  2  0  0  0  0
 27 21  2  0  0  0  0
 28 30  1  0  0  0  0
 29 27  1  0  0  0  0
 29 31  1  0  0  0  0
 30 26  1  0  0  0  0
 31 20  2  0  0  0  0
 32 33  1  0  0  0  0
 32 29  1  0  0  0  0
 35 34  1  0  0  0  0
 36  1  1  0  0  0  0
 38 36  1  0  0  0  0
 38 37  1  1  0  0  0
 39 38  1  0  0  0  0
 40 48  1  6  0  0  0
 40 39  1  0  0  0  0
 41 44  1  0  0  0  0
 42 40  1  1  0  0  0
 42 41  1  0  0  0  0
 42 45  1  0  0  0  0
 44 43  1  0  0  0  0
 44 47  1  1  0  0  0
 45 43  1  0  0  0  0
 47 46  1  0  0  0  0
 49 48  1  0  0  0  0
 50 49  2  0  0  0  0
 51 49  1  0  0  0  0
 52 57  1  0  0  0  0
 52 51  1  0  0  0  0
 53 55  1  0  0  0  0
 53 63  1  0  0  0  0
 54 57  2  0  0  0  0
 54 56  1  0  0  0  0
 55 60  1  0  0  0  0
 56 53  2  0  0  0  0
 57 59  1  0  0  0  0
 58 56  1  0  0  0  0
 59 55  2  0  0  0  0
 61 62  2  0  0  0  0
 62 54  1  0  0  0  0
 63 68  1  1  0  0  0
 65 64  1  1  0  0  0
 65 63  1  0  0  0  0
 67 65  1  0  0  0  0
 67 66  1  0  0  0  0
 68 69  1  0  0  0  0
M  END
>  <MODEL>
7

>  <REMARK>
 VINA RESULT:      -4.5      2.805      9.841
  Name = 
  25 active torsions:
  status: ('A' for Active; 'I' for Inactive)
    1  A    between atoms: C_1  and  C_13
    2  A    between atoms: C_1  and  C_45
    3  A    between atoms: O_5  and  C_14
    4  A    between atoms: O_5  and  C_63
    5  A    between atoms: C_7  and  C_35
    6  A    between atoms: C_9  and  C_55
    7  A    between atoms: C_10  and  C_45
    8  A    between atoms: C_11  and  C_53
    9  A    between atoms: C_13  and  O_34
   10  A    between atoms: C_14  and  C_21
   11  A    between atoms: C_14  and  N_54
   12  A    between atoms: O_17  and  C_35
   13  A    between atoms: O_19  and  C_45
   14  A    between atoms: O_19  and  C_58
   15  A    between atoms: C_20  and  C_26
   16  A    between atoms: C_20  and  C_58
   17  A    between atoms: C_24  and  C_67
   18  A    between atoms: C_31  and  C_52
   19  A    between atoms: O_34  and  C_52
   20  A    between atoms: C_35  and  C_67
   21  A    between atoms: C_37  and  C_50
   22  A    between atoms: C_41  and  C_44
   23  A    between atoms: C_49  and  C_64
   24  A    between atoms: C_55  and  C_63
   25  A    between atoms: N_59  and  C_62
                            x       y       z     vdW  Elec       q    Type
                         _______ _______ _______ _____ _____    ______ ____

>  <TORSDO>
F 25

$$$$
=
 OpenBabel11032420353D

 69 74  0  0  1  0  0  0  0  0999 V2000
  189.0170  177.6890  145.3130 C   0  0  0  0  0  3  0  0  0  0  0  0
  188.6130  177.3230  146.5370 C   0  0  0  0  0  0  0  0  0  0  0  0
  190.8650  179.0090  148.9880 C   0  0  0  0  0  2  0  0  0  0  0  0
  189.3940  177.5700  147.7970 C   0  0  1  0  0  3  0  0  0  0  0  0
  192.4260  177.4130  149.6710 C   0  0  0  0  0  1  0  0  0  0  0  0
  191.6800  177.8830  148.5170 N   0  0  0  0  0  0  0  0  0  0  0  0
  190.7120  176.8380  148.1520 C   0  0  2  0  0  3  0  0  0  0  0  0
  189.6350  179.0300  148.1020 C   0  0  0  0  0  2  0  0  0  0  0  0
  190.7460  174.7520  146.9820 O   0  0  0  0  0  1  0  0  0  0  0  0
  192.5080  176.1180  146.4850 O   0  0  0  0  0  0  0  0  0  0  0  0
  191.3310  175.8520  147.1750 C   0  0  0  0  0  0  0  0  0  0  0  0
  187.1850  176.9260  146.7220 C   0  0  0  0  0  2  0  0  0  0  0  0
  186.4060  177.5450  145.7330 O   0  0  0  0  0  0  0  0  0  0  0  0
  185.3800  178.2340  146.4140 C   0  0  2  0  0  3  0  0  0  0  0  0
  183.3160  179.0010  145.4640 C   0  0  0  0  0  2  0  0  0  0  0  0
  182.9780  178.5890  144.0500 C   0  0  0  0  0  2  0  0  0  0  0  0
  184.1120  179.1490  143.2370 C   0  0  1  0  0  3  0  0  0  0  0  0
  185.2850  179.2140  144.1960 C   0  0  0  0  0  2  0  0  0  0  0  0
  184.7450  179.2720  145.5590 N   0  0  0  0  0  0  0  0  0  0  0  0
  185.4070  178.9940  139.0910 N   0  0  0  0  0  0  0  0  0  0  0  0
  184.2650  178.2630  139.5150 C   0  0  0  0  0  0  0  0  0  0  0  0
  181.5200  177.2320  138.9020 N   0  0  0  0  0  2  0  0  0  0  0  0
  182.7480  176.4840  138.6460 C   0  0  0  0  0  2  0  0  0  0  0  0
  181.4000  177.4260  140.3440 C   0  0  0  0  0  2  0  0  0  0  0  0
  185.4670  177.6450  141.9740 O   0  0  0  0  0  0  0  0  0  0  0  0
  184.3940  178.3240  141.9890 C   0  0  0  0  0  0  0  0  0  0  0  0
  183.8970  177.4350  138.5810 C   0  0  0  0  0  0  0  0  0  0  0  0
  182.1780  178.6700  140.8050 C   0  0  0  0  0  2  0  0  0  0  0  0
  184.7980  177.5990  137.4900 N   0  0  0  0  0  0  0  0  0  0  0  0
  183.6190  178.4250  140.7830 N   0  0  0  0  0  0  0  0  0  0  0  0
  185.7220  178.6310  137.7670 N   0  0  0  0  0  0  0  0  0  0  0  0
  184.4250  177.2550  136.1170 C   0  0  0  0  0  2  0  0  0  0  0  0
  184.6370  175.7800  135.8530 C   0  0  0  0  0  1  0  0  0  0  0  0
  185.9340  178.8090  147.7280 C   0  0  0  0  0  2  0  0  0  0  0  0
  186.0560  180.2120  147.6520 O   0  0  0  0  0  1  0  0  0  0  0  0
  190.3410  178.3240  144.9890 C   0  0  0  0  0  2  0  0  0  0  0  0
  191.2070  180.3220  143.9670 O   0  0  0  0  0  1  0  0  0  0  0  0
  190.1970  179.3470  143.8670 C   0  0  1  0  0  3  0  0  0  0  0  0
  190.2810  178.6950  142.6300 O   0  0  0  0  0  0  0  0  0  0  0  0
  188.9850  178.2530  142.3350 C   0  0  2  0  0  3  0  0  0  0  0  0
  190.3120  176.1110  141.7630 C   0  0  0  0  0  2  0  0  0  0  0  0
  188.9460  176.7730  141.9290 C   0  0  1  0  0  3  0  0  0  0  0  0
  189.2570  175.2750  143.7650 N   0  0  0  0  0  2  0  0  0  0  0  0
  190.3630  175.0600  142.8560 C   0  0  2  0  0  3  0  0  0  0  0  0
  188.2370  175.9700  142.9840 C   0  0  0  0  0  2  0  0  0  0  0  0
  192.4290  176.4150  143.1580 C   0  0  0  0  0  1  0  0  0  0  0  0
  191.6660  175.1910  143.6190 C   0  0  0  0  0  2  0  0  0  0  0  0
  188.4020  179.0980  141.1910 C   0  0  0  0  0  2  0  0  0  0  0  0
  188.7300  178.5680  139.8170 C   0  0  0  0  0  0  0  0  0  0  0  0
  189.0440  179.3750  138.9040 O   0  0  0  0  0  0  0  0  0  0  0  0
  188.7470  177.2120  139.5150 O   0  0  0  0  0  0  0  0  0  0  0  0
  188.8090  176.6950  138.1890 C   0  0  0  0  0  2  0  0  0  0  0  0
  192.8350  175.2720  137.7950 C   0  0  0  0  0  0  0  0  0  0  0  0
  190.4890  175.1220  137.1220 C   0  0  0  0  0  0  0  0  0  0  0  0
  192.4960  176.3840  138.5880 C   0  0  0  0  0  0  0  0  0  0  0  0
  191.8200  174.6460  137.0420 C   0  0  0  0  0  0  0  0  0  0  0  0
  190.2160  176.2190  137.9470 C   0  0  0  0  0  0  0  0  0  0  0  0
  192.1510  173.5500  136.1770 N   0  0  0  0  0  1  0  0  0  0  0  0
  191.2160  176.8110  138.6410 N   0  0  0  0  0  0  0  0  0  0  0  0
  193.4920  177.1410  139.3940 C   0  0  0  0  0  1  0  0  0  0  0  0
  188.4510  173.8590  136.8340 O   0  0  0  0  0  0  0  0  0  0  0  0
  189.3660  174.5620  136.3210 C   0  0  0  0  0  3  0  0  0  0  0  0
  194.2690  174.8150  137.5610 C   0  0  2  0  0  3  0  0  0  0  0  0
  196.0830  174.7740  139.1700 O   0  0  0  0  0  1  0  0  0  0  0  0
  194.9870  174.0530  138.6950 C   0  0  2  0  0  3  0  0  0  0  0  0
  196.6800  172.7510  137.6010 O   0  0  0  0  0  1  0  0  0  0  0  0
  195.4350  172.6660  138.2270 C   0  0  0  0  0  2  0  0  0  0  0  0
  195.0850  175.7020  136.8140 O   0  0  0  0  0  0  0  0  0  0  0  0
  194.8820  175.4320  135.5350 O   0  0  0  0  0  1  0  0  0  0  0  0
  1  2  2  0  0  0  0
  2 12  1  0  0  0  0
  4  2  1  6  0  0  0
  4  8  1  0  0  0  0
  4  7  1  0  0  0  0
  6  3  1  0  0  0  0
  6  5  1  0  0  0  0
  7 11  1  6  0  0  0
  7  6  1  0  0  0  0
  8  3  1  0  0  0  0
  9 11  1  0  0  0  0
 10 11  2  0  0  0  0
 13 14  1  0  0  0  0
 13 12  1  0  0  0  0
 14 34  1  1  0  0  0
 15 19  1  0  0  0  0
 16 15  1  0  0  0  0
 17 26  1  6  0  0  0
 17 16  1  0  0  0  0
 17 18  1  0  0  0  0
 18 19  1  0  0  0  0
 19 14  1  0  0  0  0
 20 21  1  0  0  0  0
 21 30  1  0  0  0  0
 22 24  1  0  0  0  0
 23 22  1  0  0  0  0
 24 28  1  0  0  0  0
 25 26  2  0  0  0  0
 27 23  1  0  0  0  0
 27 21  2  0  0  0  0
 29 31  1  0  0  0  0
 29 27  1  0  0  0  0
 30 28  1  0  0  0  0
 30 26  1  0  0  0  0
 31 20  2  0  0  0  0
 32 29  1  0  0  0  0
 33 32  1  0  0  0  0
 35 34  1  0  0  0  0
 36  1  1  0  0  0  0
 38 37  1  6  0  0  0
 38 36  1  0  0  0  0
 39 38  1  0  0  0  0
 40 48  1  6  0  0  0
 40 39  1  0  0  0  0
 41 42  1  0  0  0  0
 41 44  1  0  0  0  0
 42 40  1  1  0  0  0
 42 45  1  0  0  0  0
 44 47  1  1  0  0  0
 44 43  1  0  0  0  0
 45 43  1  0  0  0  0
 46 47  1  0  0  0  0
 49 48  1  0  0  0  0
 50 49  2  0  0  0  0
 51 49  1  0  0  0  0
 52 51  1  0  0  0  0
 53 55  1  0  0  0  0
 54 57  2  0  0  0  0
 55 59  2  0  0  0  0
 55 60  1  0  0  0  0
 56 54  1  0  0  0  0
 56 53  2  0  0  0  0
 57 52  1  0  0  0  0
 57 59  1  0  0  0  0
 58 56  1  0  0  0  0
 62 61  2  0  0  0  0
 62 54  1  0  0  0  0
 63 68  1  1  0  0  0
 63 53  1  0  0  0  0
 63 65  1  0  0  0  0
 65 64  1  6  0  0  0
 66 67  1  0  0  0  0
 67 65  1  0  0  0  0
 69 68  1  0  0  0  0
M  END
>  <MODEL>
8

>  <REMARK>
 VINA RESULT:      -3.9      2.993      9.044
  Name = 
  25 active torsions:
  status: ('A' for Active; 'I' for Inactive)
    1  A    between atoms: C_1  and  C_13
    2  A    between atoms: C_1  and  C_45
    3  A    between atoms: O_5  and  C_14
    4  A    between atoms: O_5  and  C_63
    5  A    between atoms: C_7  and  C_35
    6  A    between atoms: C_9  and  C_55
    7  A    between atoms: C_10  and  C_45
    8  A    between atoms: C_11  and  C_53
    9  A    between atoms: C_13  and  O_34
   10  A    between atoms: C_14  and  C_21
   11  A    between atoms: C_14  and  N_54
   12  A    between atoms: O_17  and  C_35
   13  A    between atoms: O_19  and  C_45
   14  A    between atoms: O_19  and  C_58
   15  A    between atoms: C_20  and  C_26
   16  A    between atoms: C_20  and  C_58
   17  A    between atoms: C_24  and  C_67
   18  A    between atoms: C_31  and  C_52
   19  A    between atoms: O_34  and  C_52
   20  A    between atoms: C_35  and  C_67
   21  A    between atoms: C_37  and  C_50
   22  A    between atoms: C_41  and  C_44
   23  A    between atoms: C_49  and  C_64
   24  A    between atoms: C_55  and  C_63
   25  A    between atoms: N_59  and  C_62
                            x       y       z     vdW  Elec       q    Type
                         _______ _______ _______ _____ _____    ______ ____

>  <TORSDO>
F 25

$$$$
=
 OpenBabel11032420353D

 69 74  0  0  1  0  0  0  0  0999 V2000
  186.5590  178.5330  139.9370 C   0  0  0  0  0  3  0  0  0  0  0  0
  187.8770  178.3930  139.7410 C   0  0  0  0  0  0  0  0  0  0  0  0
  190.6850  178.6240  142.1880 C   0  0  0  0  0  2  0  0  0  0  0  0
  188.8550  177.9890  140.8080 C   0  0  1  0  0  3  0  0  0  0  0  0
  192.0570  176.7750  141.8090 C   0  0  0  0  0  1  0  0  0  0  0  0
  191.2400  177.7670  141.1340 N   0  0  0  0  0  0  0  0  0  0  0  0
  190.0790  177.0740  140.5550 C   0  0  2  0  0  3  0  0  0  0  0  0
  189.3620  179.1360  141.6520 C   0  0  0  0  0  2  0  0  0  0  0  0
  191.0570  177.3360  138.3880 O   0  0  0  0  0  0  0  0  0  0  0  0
  189.9860  175.3410  138.6810 O   0  0  0  0  0  1  0  0  0  0  0  0
  190.3940  176.5830  139.1510 C   0  0  0  0  0  0  0  0  0  0  0  0
  188.3810  178.3280  138.3370 C   0  0  0  0  0  2  0  0  0  0  0  0
  187.2950  178.1360  137.4690 O   0  0  0  0  0  0  0  0  0  0  0  0
  187.7850  177.3750  136.3880 C   0  0  2  0  0  3  0  0  0  0  0  0
  188.2080  175.1890  135.4950 C   0  0  0  0  0  2  0  0  0  0  0  0
  187.0480  174.4100  134.9220 C   0  0  0  0  0  2  0  0  0  0  0  0
  186.1030  174.2740  136.0830 C   0  0  1  0  0  3  0  0  0  0  0  0
  186.3950  175.4730  136.9660 C   0  0  0  0  0  2  0  0  0  0  0  0
  187.7640  175.9170  136.6770 N   0  0  0  0  0  0  0  0  0  0  0  0
  181.8850  174.3350  137.1290 N   0  0  0  0  0  0  0  0  0  0  0  0
  182.3880  173.3590  136.2280 C   0  0  0  0  0  0  0  0  0  0  0  0
  182.2920  170.5510  135.1900 N   0  0  0  0  0  2  0  0  0  0  0  0
  181.5130  171.6540  134.6320 C   0  0  0  0  0  2  0  0  0  0  0  0
  183.7070  170.8470  134.9860 C   0  0  0  0  0  2  0  0  0  0  0  0
  184.1540  175.2100  135.0750 O   0  0  0  0  0  0  0  0  0  0  0  0
  184.6490  174.1870  135.6410 C   0  0  0  0  0  0  0  0  0  0  0  0
  181.4000  172.7390  135.6510 C   0  0  0  0  0  0  0  0  0  0  0  0
  184.2610  171.7270  136.1180 C   0  0  0  0  0  2  0  0  0  0  0  0
  180.1930  173.2920  136.1660 N   0  0  0  0  0  0  0  0  0  0  0  0
  183.7780  173.1010  135.9980 N   0  0  0  0  0  0  0  0  0  0  0  0
  180.4790  174.2590  137.1550 N   0  0  0  0  0  0  0  0  0  0  0  0
  178.9350  172.5430  136.1700 C   0  0  0  0  0  2  0  0  0  0  0  0
  179.0950  171.2240  136.8960 C   0  0  0  0  0  1  0  0  0  0  0  0
  189.1860  177.8790  136.0000 C   0  0  0  0  0  2  0  0  0  0  0  0
  189.3650  177.8430  134.6020 O   0  0  0  0  0  1  0  0  0  0  0  0
  185.8590  178.3940  141.2600 C   0  0  0  0  0  2  0  0  0  0  0  0
  184.3890  179.8810  140.0690 O   0  0  0  0  0  1  0  0  0  0  0  0
  184.5210  179.1270  141.2510 C   0  0  1  0  0  3  0  0  0  0  0  0
  183.4800  178.1950  141.3420 O   0  0  0  0  0  0  0  0  0  0  0  0
  182.7200  178.5700  142.4570 C   0  0  2  0  0  3  0  0  0  0  0  0
  180.7270  178.5540  140.8130 C   0  0  0  0  0  2  0  0  0  0  0  0
  181.3540  179.1530  142.0700 C   0  0  1  0  0  3  0  0  0  0  0  0
  179.5110  177.7910  142.7520 N   0  0  0  0  0  2  0  0  0  0  0  0
  179.4760  177.8520  141.3060 C   0  0  2  0  0  3  0  0  0  0  0  0
  180.3590  178.9040  143.1700 C   0  0  0  0  0  2  0  0  0  0  0  0
  180.8220  176.0070  140.3160 C   0  0  0  0  0  1  0  0  0  0  0  0
  179.4380  176.4430  140.7490 C   0  0  0  0  0  2  0  0  0  0  0  0
  183.4920  179.6160  143.2780 C   0  0  0  0  0  2  0  0  0  0  0  0
  183.8780  179.1390  144.6570 C   0  0  0  0  0  0  0  0  0  0  0  0
  182.9820  178.9720  145.5240 O   0  0  0  0  0  0  0  0  0  0  0  0
  185.1850  178.8290  145.0100 O   0  0  0  0  0  0  0  0  0  0  0  0
  186.0500  178.0190  144.2190 C   0  0  0  0  0  2  0  0  0  0  0  0
  189.6090  177.2400  146.4820 C   0  0  0  0  0  0  0  0  0  0  0  0
  187.2250  177.7850  146.4550 C   0  0  0  0  0  0  0  0  0  0  0  0
  189.5560  177.1150  145.0800 C   0  0  0  0  0  0  0  0  0  0  0  0
  188.4240  177.5620  147.1750 C   0  0  0  0  0  0  0  0  0  0  0  0
  187.2460  177.6660  145.0610 C   0  0  0  0  0  0  0  0  0  0  0  0
  188.4380  177.6330  148.6080 N   0  0  0  0  0  1  0  0  0  0  0  0
  188.3960  177.3350  144.4260 N   0  0  0  0  0  0  0  0  0  0  0  0
  190.7350  176.7450  144.2530 C   0  0  0  0  0  1  0  0  0  0  0  0
  185.6900  179.1480  147.7250 O   0  0  0  0  0  0  0  0  0  0  0  0
  185.9170  178.0720  147.1050 C   0  0  0  0  0  3  0  0  0  0  0  0
  190.8320  176.8690  147.3110 C   0  0  2  0  0  3  0  0  0  0  0  0
  191.3200  175.1260  148.9250 O   0  0  0  0  0  1  0  0  0  0  0  0
  191.1120  175.3730  147.5680 C   0  0  2  0  0  3  0  0  0  0  0  0
  193.4660  175.5840  147.1530 O   0  0  0  0  0  1  0  0  0  0  0  0
  192.3190  174.8940  146.7570 C   0  0  0  0  0  2  0  0  0  0  0  0
  191.1320  177.7370  148.3900 O   0  0  0  0  0  0  0  0  0  0  0  0
  192.4480  177.7680  148.5090 O   0  0  0  0  0  1  0  0  0  0  0  0
  1 36  1  0  0  0  0
  2  1  2  0  0  0  0
  4  2  1  6  0  0  0
  4  8  1  0  0  0  0
  6  5  1  0  0  0  0
  6  3  1  0  0  0  0
  7 11  1  6  0  0  0
  7  4  1  0  0  0  0
  7  6  1  0  0  0  0
  8  3  1  0  0  0  0
  9 11  2  0  0  0  0
 10 11  1  0  0  0  0
 12  2  1  0  0  0  0
 13 12  1  0  0  0  0
 14 34  1  1  0  0  0
 14 19  1  0  0  0  0
 14 13  1  0  0  0  0
 15 19  1  0  0  0  0
 16 15  1  0  0  0  0
 16 17  1  0  0  0  0
 17 26  1  6  0  0  0
 17 18  1  0  0  0  0
 19 18  1  0  0  0  0
 20 31  2  0  0  0  0
 21 20  1  0  0  0  0
 23 22  1  0  0  0  0
 23 27  1  0  0  0  0
 24 22  1  0  0  0  0
 24 28  1  0  0  0  0
 25 26  2  0  0  0  0
 26 30  1  0  0  0  0
 27 29  1  0  0  0  0
 27 21  2  0  0  0  0
 29 32  1  0  0  0  0
 29 31  1  0  0  0  0
 30 28  1  0  0  0  0
 30 21  1  0  0  0  0
 32 33  1  0  0  0  0
 35 34  1  0  0  0  0
 38 37  1  6  0  0  0
 38 36  1  0  0  0  0
 38 39  1  0  0  0  0
 39 40  1  0  0  0  0
 40 48  1  6  0  0  0
 41 44  1  0  0  0  0
 41 42  1  0  0  0  0
 42 40  1  1  0  0  0
 42 45  1  0  0  0  0
 43 45  1  0  0  0  0
 44 47  1  6  0  0  0
 44 43  1  0  0  0  0
 46 47  1  0  0  0  0
 48 49  1  0  0  0  0
 49 51  1  0  0  0  0
 49 50  2  0  0  0  0
 52 51  1  0  0  0  0
 52 57  1  0  0  0  0
 53 56  1  0  0  0  0
 53 63  1  0  0  0  0
 54 62  1  0  0  0  0
 54 56  2  0  0  0  0
 55 53  2  0  0  0  0
 56 58  1  0  0  0  0
 57 54  1  0  0  0  0
 59 57  2  0  0  0  0
 59 55  1  0  0  0  0
 60 55  1  0  0  0  0
 62 61  2  0  0  0  0
 63 65  1  0  0  0  0
 63 68  1  1  0  0  0
 65 64  1  1  0  0  0
 67 66  1  0  0  0  0
 67 65  1  0  0  0  0
 68 69  1  0  0  0  0
M  END
>  <MODEL>
9

>  <REMARK>
 VINA RESULT:      -3.6      3.560     10.060
  Name = 
  25 active torsions:
  status: ('A' for Active; 'I' for Inactive)
    1  A    between atoms: C_1  and  C_13
    2  A    between atoms: C_1  and  C_45
    3  A    between atoms: O_5  and  C_14
    4  A    between atoms: O_5  and  C_63
    5  A    between atoms: C_7  and  C_35
    6  A    between atoms: C_9  and  C_55
    7  A    between atoms: C_10  and  C_45
    8  A    between atoms: C_11  and  C_53
    9  A    between atoms: C_13  and  O_34
   10  A    between atoms: C_14  and  C_21
   11  A    between atoms: C_14  and  N_54
   12  A    between atoms: O_17  and  C_35
   13  A    between atoms: O_19  and  C_45
   14  A    between atoms: O_19  and  C_58
   15  A    between atoms: C_20  and  C_26
   16  A    between atoms: C_20  and  C_58
   17  A    between atoms: C_24  and  C_67
   18  A    between atoms: C_31  and  C_52
   19  A    between atoms: O_34  and  C_52
   20  A    between atoms: C_35  and  C_67
   21  A    between atoms: C_37  and  C_50
   22  A    between atoms: C_41  and  C_44
   23  A    between atoms: C_49  and  C_64
   24  A    between atoms: C_55  and  C_63
   25  A    between atoms: N_59  and  C_62
                            x       y       z     vdW  Elec       q    Type
                         _______ _______ _______ _____ _____    ______ ____

>  <TORSDO>
F 25

$$$$
