=
 OpenBabel11042411193D

 48 52  0  0  1  0  0  0  0  0999 V2000
  185.8530  178.8410  142.7800 C   0  0  2  0  0  3  0  0  0  0  0  0
  182.9790  179.0760  143.0610 C   0  0  0  0  0  3  0  0  0  0  0  0
  188.2290  177.9970  142.2330 N   0  0  0  0  0  2  0  0  0  0  0  0
  184.6910  178.2280  146.9670 O   0  0  0  0  0  0  0  0  0  0  0  0
  186.0600  178.2300  145.0680 N   0  0  0  0  0  0  0  0  0  0  0  0
  185.8080  177.9550  146.4530 C   0  0  0  0  0  0  0  0  0  0  0  0
  187.2530  177.9080  144.4170 N   0  0  0  0  0  0  0  0  0  0  0  0
  185.1560  178.7290  144.0930 C   0  0  0  0  0  0  0  0  0  0  0  0
  184.9290  177.8580  141.5560 S   0  0  0  0  0  0  0  0  0  0  0  0
  183.8320  178.8340  144.2410 C   0  0  0  0  0  3  0  0  0  0  0  0
  183.3910  178.7940  141.8170 C   0  0  0  0  0  0  0  0  0  0  0  0
  187.1600  178.2060  143.1580 C   0  0  0  0  0  0  0  0  0  0  0  0
  181.5510  177.0470  140.2540 N   0  0  0  0  0  2  0  0  0  0  0  0
  178.9310  179.1950  137.7330 N   0  0  0  0  0  0  0  0  0  0  0  0
  179.4710  180.3530  137.9690 C   0  0  0  0  0  0  0  0  0  0  0  0
  179.6420  178.2420  138.4690 N   0  0  0  0  0  2  0  0  0  0  0  0
  182.5360  179.1550  140.7250 N   0  0  0  0  0  2  0  0  0  0  0  0
  180.5660  180.2860  138.8820 N   0  0  0  0  0  2  0  0  0  0  0  0
  180.6410  178.9220  139.1630 N   0  0  0  0  0  0  0  0  0  0  0  0
  181.5540  178.3290  140.0860 C   0  0  0  0  0  0  0  0  0  0  0  0
  180.5930  183.9480  135.0630 C   0  0  0  0  0  1  0  0  0  0  0  0
  179.4620  181.9470  135.9810 C   0  0  1  0  0  3  0  0  0  0  0  0
  178.9650  181.6420  137.3900 C   0  0  2  0  0  3  0  0  0  0  0  0
  179.3570  182.7610  138.2430 N   0  0  0  0  0  2  0  0  0  0  0  0
  180.3180  183.5740  137.4970 C   0  0  0  0  0  2  0  0  0  0  0  0
  180.6010  182.9100  136.1650 C   0  0  2  0  0  3  0  0  0  0  0  0
  181.1720  180.5410  134.9960 O   0  0  0  0  0  1  0  0  0  0  0  0
  179.7930  180.7520  135.0800 C   0  0  0  0  0  2  0  0  0  0  0  0
  189.2430  175.8520  142.8060 C   0  0  0  0  0  1  0  0  0  0  0  0
  189.4770  177.3380  142.6000 C   0  0  1  0  0  3  0  0  0  0  0  0
  191.7900  177.1250  141.9760 O   0  0  0  0  0  1  0  0  0  0  0  0
  190.5370  177.5520  141.5260 C   0  0  1  0  0  3  0  0  0  0  0  0
  190.1490  176.8120  140.2520 C   0  0  0  0  0  2  0  0  0  0  0  0
  191.1740  177.0160  139.1470 C   0  0  0  0  0  2  0  0  0  0  0  0
  190.5540  176.8260  137.7600 C   0  0  2  0  0  3  0  0  0  0  0  0
  186.5400  177.4040  137.6820 O   0  0  0  0  0  0  0  0  0  0  0  0
  188.7490  178.3720  137.4390 C   0  0  0  0  0  2  0  0  0  0  0  0
  186.9030  176.3420  136.8350 C   0  0  0  0  0  2  0  0  0  0  0  0
  189.0900  176.9950  137.8180 N   0  0  0  0  0  0  0  0  0  0  0  0
  188.3970  176.0110  136.9680 C   0  0  0  0  0  2  0  0  0  0  0  0
  187.2380  178.5370  137.2230 C   0  0  0  0  0  2  0  0  0  0  0  0
  191.0230  175.5360  137.1140 C   0  0  0  0  0  0  0  0  0  0  0  0
  191.4900  175.5350  135.9440 O   0  0  0  0  0  0  0  0  0  0  0  0
  191.0360  174.3220  137.8610 N   0  0  0  0  0  1  0  0  0  0  0  0
  186.8850  177.3800  147.3130 C   0  0  0  0  0  2  0  0  0  0  0  0
  187.5110  178.4590  148.1840 C   0  0  0  0  0  2  0  0  0  0  0  0
  189.4740  177.0290  147.6170 C   0  0  0  0  0  1  0  0  0  0  0  0
  189.0300  178.3700  148.1710 C   0  0  0  0  0  2  0  0  0  0  0  0
  1  9  1  6  0  0  0
  1 12  1  0  0  0  0
  1  8  1  0  0  0  0
  2 10  1  0  0  0  0
  3 30  1  0  0  0  0
  3 12  1  0  0  0  0
  5  6  1  0  0  0  0
  6  4  2  0  0  0  0
  6 45  1  0  0  0  0
  7  5  1  0  0  0  0
  8 10  2  0  0  0  0
  8  5  1  0  0  0  0
  9 11  1  0  0  0  0
 11  2  2  0  0  0  0
 12  7  2  0  0  0  0
 14 15  2  0  0  0  0
 14 16  1  0  0  0  0
 15 18  1  0  0  0  0
 16 19  1  0  0  0  0
 17 11  1  0  0  0  0
 18 19  1  0  0  0  0
 19 20  1  0  0  0  0
 20 13  2  0  0  0  0
 20 17  1  0  0  0  0
 22 28  1  1  0  0  0
 22 26  1  0  0  0  0
 22 23  1  0  0  0  0
 23 15  1  1  0  0  0
 23 24  1  0  0  0  0
 25 24  1  0  0  0  0
 26 21  1  6  0  0  0
 26 25  1  0  0  0  0
 27 28  1  0  0  0  0
 30 29  1  6  0  0  0
 32 31  1  1  0  0  0
 32 30  1  0  0  0  0
 33 32  1  0  0  0  0
 34 33  1  0  0  0  0
 35 39  1  0  0  0  0
 35 34  1  1  0  0  0
 37 39  1  0  0  0  0
 38 40  1  0  0  0  0
 38 36  1  0  0  0  0
 40 39  1  0  0  0  0
 41 37  1  0  0  0  0
 41 36  1  0  0  0  0
 42 35  1  0  0  0  0
 42 44  1  0  0  0  0
 43 42  2  0  0  0  0
 45 46  1  0  0  0  0
 47 48  1  0  0  0  0
 48 46  1  0  0  0  0
M  END
>  <MODEL>
1

>  <REMARK>
 VINA RESULT:      -7.6      0.000      0.000
  Name = 
  13 active torsions:
  status: ('A' for Active; 'I' for Inactive)
    1  A    between atoms: C_5  and  C_14
    2  A    between atoms: C_7  and  C_10
    3  A    between atoms: C_9  and  C_26
    4  A    between atoms: C_9  and  C_39
    5  A    between atoms: N_13  and  C_40
    6  A    between atoms: C_17  and  C_32
    7  A    between atoms: N_19  and  C_30
    8  A    between atoms: C_26  and  C_27
    9  A    between atoms: C_30  and  C_36
   10  A    between atoms: C_32  and  C_34
   11  A    between atoms: C_32  and  N_42
   12  A    between atoms: C_34  and  C_43
   13  A    between atoms: C_36  and  C_43
                            x       y       z     vdW  Elec       q    Type
                         _______ _______ _______ _____ _____    ______ ____

>  <TORSDO>
F 13

$$$$
=
 OpenBabel11042411193D

 48 52  0  0  1  0  0  0  0  0999 V2000
  188.9690  176.6440  139.2700 C   0  0  2  0  0  3  0  0  0  0  0  0
  187.7000  177.1620  136.7170 C   0  0  0  0  0  3  0  0  0  0  0  0
  190.0400  176.9020  141.6020 N   0  0  0  0  0  2  0  0  0  0  0  0
  191.8970  176.2580  136.0230 O   0  0  0  0  0  0  0  0  0  0  0  0
  191.0890  176.4450  138.2130 N   0  0  0  0  0  0  0  0  0  0  0  0
  192.1510  176.3440  137.2540 C   0  0  0  0  0  0  0  0  0  0  0  0
  191.2950  176.5960  139.5860 N   0  0  0  0  0  0  0  0  0  0  0  0
  189.6930  176.5450  137.9700 C   0  0  0  0  0  0  0  0  0  0  0  0
  187.9790  178.1720  139.2570 S   0  0  0  0  0  0  0  0  0  0  0  0
  189.1240  176.7800  136.7850 C   0  0  0  0  0  3  0  0  0  0  0  0
  187.0530  177.6800  137.7710 C   0  0  0  0  0  0  0  0  0  0  0  0
  190.1540  176.7350  140.1870 C   0  0  0  0  0  0  0  0  0  0  0  0
  184.8620  175.7080  137.3300 N   0  0  0  0  0  2  0  0  0  0  0  0
  181.0020  177.3470  137.8320 N   0  0  0  0  0  0  0  0  0  0  0  0
  181.4170  178.5690  137.9890 C   0  0  0  0  0  0  0  0  0  0  0  0
  182.1280  176.5440  137.6260 N   0  0  0  0  0  2  0  0  0  0  0  0
  185.6470  177.9270  137.6440 N   0  0  0  0  0  2  0  0  0  0  0  0
  182.8370  178.6920  137.9190 N   0  0  0  0  0  2  0  0  0  0  0  0
  183.2420  177.3790  137.6770 N   0  0  0  0  0  0  0  0  0  0  0  0
  184.5990  176.9510  137.5790 C   0  0  0  0  0  0  0  0  0  0  0  0
  180.1640  182.9080  136.4980 C   0  0  0  0  0  1  0  0  0  0  0  0
  180.0480  180.4950  137.0370 C   0  0  1  0  0  3  0  0  0  0  0  0
  180.5070  179.7280  138.2720 C   0  0  2  0  0  3  0  0  0  0  0  0
  181.1720  180.6810  139.1570 N   0  0  0  0  0  2  0  0  0  0  0  0
  181.4060  181.9080  138.3940 C   0  0  0  0  0  2  0  0  0  0  0  0
  180.9450  181.6990  136.9660 C   0  0  2  0  0  3  0  0  0  0  0  0
  180.9990  180.0230  134.8600 O   0  0  0  0  0  1  0  0  0  0  0  0
  179.9450  179.7130  135.7230 C   0  0  0  0  0  2  0  0  0  0  0  0
  191.5690  178.4980  142.6380 C   0  0  0  0  0  1  0  0  0  0  0  0
  191.1980  177.0340  142.4800 C   0  0  1  0  0  3  0  0  0  0  0  0
  191.6470  177.0710  144.8420 O   0  0  0  0  0  1  0  0  0  0  0  0
  190.9140  176.4200  143.8450 C   0  0  1  0  0  3  0  0  0  0  0  0
  189.4230  176.4900  144.1510 C   0  0  0  0  0  2  0  0  0  0  0  0
  189.0830  177.6810  145.0350 C   0  0  0  0  0  2  0  0  0  0  0  0
  187.8670  177.4000  145.9190 C   0  0  2  0  0  3  0  0  0  0  0  0
  184.6030  179.4870  144.7180 O   0  0  0  0  0  0  0  0  0  0  0  0
  186.3100  177.8620  144.1530 C   0  0  0  0  0  2  0  0  0  0  0  0
  184.3390  178.8050  145.9190 C   0  0  0  0  0  2  0  0  0  0  0  0
  186.7230  178.2380  145.5110 N   0  0  0  0  0  0  0  0  0  0  0  0
  185.6070  178.1340  146.4670 C   0  0  0  0  0  2  0  0  0  0  0  0
  184.9690  178.5080  143.7760 C   0  0  0  0  0  2  0  0  0  0  0  0
  188.2210  177.4750  147.3930 C   0  0  0  0  0  0  0  0  0  0  0  0
  188.1180  176.4600  148.1320 O   0  0  0  0  0  0  0  0  0  0  0  0
  188.7710  178.6720  147.9380 N   0  0  0  0  0  1  0  0  0  0  0  0
  193.5720  176.3000  137.7090 C   0  0  0  0  0  2  0  0  0  0  0  0
  194.3150  175.1510  137.0430 C   0  0  0  0  0  2  0  0  0  0  0  0
  195.5020  173.7450  138.7270 C   0  0  0  0  0  1  0  0  0  0  0  0
  194.2480  173.8850  137.8850 C   0  0  0  0  0  2  0  0  0  0  0  0
  1  8  1  6  0  0  0
  1 12  1  0  0  0  0
  2 10  1  0  0  0  0
  2 11  2  0  0  0  0
  3 30  1  0  0  0  0
  4  6  2  0  0  0  0
  5  7  1  0  0  0  0
  6 45  1  0  0  0  0
  6  5  1  0  0  0  0
  7 12  2  0  0  0  0
  8  5  1  0  0  0  0
  9  1  1  0  0  0  0
 10  8  2  0  0  0  0
 11  9  1  0  0  0  0
 12  3  1  0  0  0  0
 13 20  2  0  0  0  0
 14 15  2  0  0  0  0
 16 19  1  0  0  0  0
 16 14  1  0  0  0  0
 17 11  1  0  0  0  0
 18 15  1  0  0  0  0
 19 18  1  0  0  0  0
 20 17  1  0  0  0  0
 20 19  1  0  0  0  0
 22 28  1  6  0  0  0
 22 23  1  0  0  0  0
 23 15  1  6  0  0  0
 23 24  1  0  0  0  0
 25 24  1  0  0  0  0
 26 21  1  1  0  0  0
 26 22  1  0  0  0  0
 26 25  1  0  0  0  0
 27 28  1  0  0  0  0
 30 29  1  1  0  0  0
 30 32  1  0  0  0  0
 32 33  1  0  0  0  0
 32 31  1  1  0  0  0
 33 34  1  0  0  0  0
 35 34  1  6  0  0  0
 35 42  1  0  0  0  0
 36 38  1  0  0  0  0
 37 39  1  0  0  0  0
 38 40  1  0  0  0  0
 39 35  1  0  0  0  0
 39 40  1  0  0  0  0
 41 37  1  0  0  0  0
 41 36  1  0  0  0  0
 42 44  1  0  0  0  0
 42 43  2  0  0  0  0
 46 45  1  0  0  0  0
 46 48  1  0  0  0  0
 48 47  1  0  0  0  0
M  END
>  <MODEL>
2

>  <REMARK>
 VINA RESULT:      -7.4      2.311      7.148
  Name = 
  13 active torsions:
  status: ('A' for Active; 'I' for Inactive)
    1  A    between atoms: C_5  and  C_14
    2  A    between atoms: C_7  and  C_10
    3  A    between atoms: C_9  and  C_26
    4  A    between atoms: C_9  and  C_39
    5  A    between atoms: N_13  and  C_40
    6  A    between atoms: C_17  and  C_32
    7  A    between atoms: N_19  and  C_30
    8  A    between atoms: C_26  and  C_27
    9  A    between atoms: C_30  and  C_36
   10  A    between atoms: C_32  and  C_34
   11  A    between atoms: C_32  and  N_42
   12  A    between atoms: C_34  and  C_43
   13  A    between atoms: C_36  and  C_43
                            x       y       z     vdW  Elec       q    Type
                         _______ _______ _______ _____ _____    ______ ____

>  <TORSDO>
F 13

$$$$
=
 OpenBabel11042411193D

 48 52  0  0  1  0  0  0  0  0999 V2000
  186.8070  178.0100  137.6360 C   0  0  2  0  0  3  0  0  0  0  0  0
  188.0890  176.4790  135.5380 C   0  0  0  0  0  3  0  0  0  0  0  0
  185.7870  178.7680  139.8810 N   0  0  0  0  0  2  0  0  0  0  0  0
  183.8210  176.6500  134.7210 O   0  0  0  0  0  0  0  0  0  0  0  0
  184.6660  177.5460  136.7120 N   0  0  0  0  0  0  0  0  0  0  0  0
  183.5890  177.1170  135.8670 C   0  0  0  0  0  0  0  0  0  0  0  0
  184.4890  178.0240  138.0120 N   0  0  0  0  0  0  0  0  0  0  0  0
  186.0630  177.4500  136.4720 C   0  0  0  0  0  0  0  0  0  0  0  0
  187.9290  176.7230  138.2700 S   0  0  0  0  0  0  0  0  0  0  0  0
  186.6370  176.7420  135.4960 C   0  0  0  0  0  3  0  0  0  0  0  0
  188.7900  176.5490  136.6770 C   0  0  0  0  0  0  0  0  0  0  0  0
  185.6440  178.2610  138.5530 C   0  0  0  0  0  0  0  0  0  0  0  0
  190.8460  177.2880  138.7050 N   0  0  0  0  0  2  0  0  0  0  0  0
  194.6720  175.7050  137.8740 N   0  0  0  0  0  0  0  0  0  0  0  0
  194.3430  175.2150  136.7160 C   0  0  0  0  0  0  0  0  0  0  0  0
  193.5390  176.3300  138.4030 N   0  0  0  0  0  2  0  0  0  0  0  0
  190.2120  176.3770  136.6060 N   0  0  0  0  0  2  0  0  0  0  0  0
  192.9770  175.4500  136.3750 N   0  0  0  0  0  2  0  0  0  0  0  0
  192.5120  176.1710  137.4750 N   0  0  0  0  0  0  0  0  0  0  0  0
  191.1640  176.6050  137.6530 C   0  0  0  0  0  0  0  0  0  0  0  0
  198.0600  172.2490  136.7860 C   0  0  0  0  0  1  0  0  0  0  0  0
  195.7690  173.1200  136.4500 C   0  0  1  0  0  3  0  0  0  0  0  0
  195.2810  174.4320  135.8450 C   0  0  2  0  0  3  0  0  0  0  0  0
  196.4610  175.2350  135.5330 N   0  0  0  0  0  2  0  0  0  0  0  0
  197.6100  174.6110  136.1900 C   0  0  0  0  0  2  0  0  0  0  0  0
  197.1320  173.4250  137.0030 C   0  0  2  0  0  3  0  0  0  0  0  0
  195.3180  172.5010  138.7480 O   0  0  0  0  0  1  0  0  0  0  0  0
  194.8350  172.4150  137.4390 C   0  0  0  0  0  2  0  0  0  0  0  0
  183.6590  177.8320  140.6230 C   0  0  0  0  0  1  0  0  0  0  0  0
  184.6550  178.9660  140.7800 C   0  0  1  0  0  3  0  0  0  0  0  0
  184.3120  178.2660  143.0550 O   0  0  0  0  0  1  0  0  0  0  0  0
  185.1230  179.0480  142.2280 C   0  0  1  0  0  3  0  0  0  0  0  0
  186.5760  178.6040  142.3350 C   0  0  0  0  0  2  0  0  0  0  0  0
  186.7520  177.4910  143.3580 C   0  0  0  0  0  2  0  0  0  0  0  0
  187.6930  177.9090  144.4900 C   0  0  2  0  0  3  0  0  0  0  0  0
  191.2600  176.0770  143.8810 O   0  0  0  0  0  0  0  0  0  0  0  0
  188.9210  176.2500  143.2680 C   0  0  0  0  0  2  0  0  0  0  0  0
  191.3980  177.4720  143.7830 C   0  0  0  0  0  2  0  0  0  0  0  0
  188.9950  177.2270  144.3630 N   0  0  0  0  0  0  0  0  0  0  0  0
  190.0920  178.1880  144.1600 C   0  0  0  0  0  2  0  0  0  0  0  0
  190.3100  175.7010  142.9130 C   0  0  0  0  0  2  0  0  0  0  0  0
  187.0270  177.7650  145.8470 C   0  0  0  0  0  0  0  0  0  0  0  0
  185.7800  177.8960  145.9690 O   0  0  0  0  0  0  0  0  0  0  0  0
  187.7940  177.3780  146.9850 N   0  0  0  0  0  1  0  0  0  0  0  0
  182.1740  177.2590  136.3230 C   0  0  0  0  0  2  0  0  0  0  0  0
  181.5780  175.9000  136.6560 C   0  0  0  0  0  2  0  0  0  0  0  0
  180.8750  175.3290  138.9800 C   0  0  0  0  0  1  0  0  0  0  0  0
  182.0460  175.4090  138.0190 C   0  0  0  0  0  2  0  0  0  0  0  0
  1  8  1  6  0  0  0
  1  9  1  0  0  0  0
  1 12  1  0  0  0  0
  2 11  2  0  0  0  0
  3 30  1  0  0  0  0
  4  6  2  0  0  0  0
  5  7  1  0  0  0  0
  6 45  1  0  0  0  0
  6  5  1  0  0  0  0
  7 12  2  0  0  0  0
  8  5  1  0  0  0  0
 10  2  1  0  0  0  0
 10  8  2  0  0  0  0
 11  9  1  0  0  0  0
 12  3  1  0  0  0  0
 14 16  1  0  0  0  0
 15 14  2  0  0  0  0
 17 11  1  0  0  0  0
 17 20  1  0  0  0  0
 18 15  1  0  0  0  0
 18 19  1  0  0  0  0
 19 20  1  0  0  0  0
 19 16  1  0  0  0  0
 20 13  2  0  0  0  0
 22 26  1  0  0  0  0
 22 28  1  1  0  0  0
 23 22  1  0  0  0  0
 23 15  1  1  0  0  0
 24 23  1  0  0  0  0
 24 25  1  0  0  0  0
 25 26  1  0  0  0  0
 26 21  1  6  0  0  0
 28 27  1  0  0  0  0
 30 29  1  1  0  0  0
 30 32  1  0  0  0  0
 32 33  1  0  0  0  0
 32 31  1  1  0  0  0
 33 34  1  0  0  0  0
 35 34  1  6  0  0  0
 35 42  1  0  0  0  0
 37 39  1  0  0  0  0
 38 36  1  0  0  0  0
 38 40  1  0  0  0  0
 39 35  1  0  0  0  0
 40 39  1  0  0  0  0
 41 37  1  0  0  0  0
 41 36  1  0  0  0  0
 42 43  2  0  0  0  0
 42 44  1  0  0  0  0
 45 46  1  0  0  0  0
 46 48  1  0  0  0  0
 48 47  1  0  0  0  0
M  END
>  <MODEL>
3

>  <REMARK>
 VINA RESULT:      -7.4      3.539     11.588
  Name = 
  13 active torsions:
  status: ('A' for Active; 'I' for Inactive)
    1  A    between atoms: C_5  and  C_14
    2  A    between atoms: C_7  and  C_10
    3  A    between atoms: C_9  and  C_26
    4  A    between atoms: C_9  and  C_39
    5  A    between atoms: N_13  and  C_40
    6  A    between atoms: C_17  and  C_32
    7  A    between atoms: N_19  and  C_30
    8  A    between atoms: C_26  and  C_27
    9  A    between atoms: C_30  and  C_36
   10  A    between atoms: C_32  and  C_34
   11  A    between atoms: C_32  and  N_42
   12  A    between atoms: C_34  and  C_43
   13  A    between atoms: C_36  and  C_43
                            x       y       z     vdW  Elec       q    Type
                         _______ _______ _______ _____ _____    ______ ____

>  <TORSDO>
F 13

$$$$
=
 OpenBabel11042411193D

 48 52  0  0  1  0  0  0  0  0999 V2000
  188.3380  176.7730  142.5420 C   0  0  2  0  0  3  0  0  0  0  0  0
  191.0870  176.3590  141.7280 C   0  0  0  0  0  3  0  0  0  0  0  0
  185.9900  177.7710  142.9250 N   0  0  0  0  0  2  0  0  0  0  0  0
  191.0160  177.2080  145.9920 O   0  0  0  0  0  0  0  0  0  0  0  0
  189.0400  177.3360  144.7430 N   0  0  0  0  0  0  0  0  0  0  0  0
  189.8080  177.5590  145.9340 C   0  0  0  0  0  0  0  0  0  0  0  0
  187.7140  177.7460  144.5860 N   0  0  0  0  0  0  0  0  0  0  0  0
  189.4800  176.8090  143.4990 C   0  0  0  0  0  0  0  0  0  0  0  0
  188.8000  177.7300  141.0630 S   0  0  0  0  0  0  0  0  0  0  0  0
  190.7530  176.6210  143.1410 C   0  0  0  0  0  3  0  0  0  0  0  0
  190.2600  176.6980  140.7290 C   0  0  0  0  0  0  0  0  0  0  0  0
  187.3110  177.4750  143.3830 C   0  0  0  0  0  0  0  0  0  0  0  0
  188.5700  176.7330  138.2750 N   0  0  0  0  0  2  0  0  0  0  0  0
  190.7600  176.1170  134.7170 N   0  0  0  0  0  0  0  0  0  0  0  0
  191.8850  175.8700  135.3180 C   0  0  0  0  0  0  0  0  0  0  0  0
  189.8000  176.3600  135.7040 N   0  0  0  0  0  2  0  0  0  0  0  0
  190.6200  176.3150  139.3950 N   0  0  0  0  0  2  0  0  0  0  0  0
  191.7890  175.9380  136.7400 N   0  0  0  0  0  2  0  0  0  0  0  0
  190.4420  176.2430  136.9360 N   0  0  0  0  0  0  0  0  0  0  0  0
  189.8360  176.4790  138.2070 C   0  0  0  0  0  0  0  0  0  0  0  0
  195.7680  173.1230  135.3220 C   0  0  0  0  0  1  0  0  0  0  0  0
  193.6220  174.1380  134.6250 C   0  0  1  0  0  3  0  0  0  0  0  0
  193.1730  175.5950  134.5970 C   0  0  2  0  0  3  0  0  0  0  0  0
  194.2490  176.3960  135.1740 N   0  0  0  0  0  2  0  0  0  0  0  0
  195.1890  175.4790  135.8200 C   0  0  0  0  0  2  0  0  0  0  0  0
  194.6520  174.0660  135.7170 C   0  0  2  0  0  3  0  0  0  0  0  0
  192.4480  172.5380  136.0150 O   0  0  0  0  0  1  0  0  0  0  0  0
  192.5290  173.0690  134.7240 C   0  0  0  0  0  2  0  0  0  0  0  0
  185.2960  179.9840  143.6840 C   0  0  0  0  0  1  0  0  0  0  0  0
  185.0140  178.4930  143.7330 C   0  0  1  0  0  3  0  0  0  0  0  0
  182.6560  178.7600  144.1250 O   0  0  0  0  0  1  0  0  0  0  0  0
  183.5970  178.2170  143.2450 C   0  0  1  0  0  3  0  0  0  0  0  0
  183.4060  178.7860  141.8450 C   0  0  0  0  0  2  0  0  0  0  0  0
  182.9980  177.7090  140.8500 C   0  0  0  0  0  2  0  0  0  0  0  0
  183.3860  178.0870  139.4180 C   0  0  2  0  0  3  0  0  0  0  0  0
  184.0540  174.7760  137.1730 O   0  0  0  0  0  0  0  0  0  0  0  0
  182.6620  175.8800  138.8220 C   0  0  0  0  0  2  0  0  0  0  0  0
  184.0180  175.9240  136.3630 C   0  0  0  0  0  2  0  0  0  0  0  0
  183.7190  176.8830  138.6340 N   0  0  0  0  0  0  0  0  0  0  0  0
  183.9180  177.2010  137.2100 C   0  0  0  0  0  2  0  0  0  0  0  0
  182.8130  174.7150  137.8330 C   0  0  0  0  0  2  0  0  0  0  0  0
  184.4440  179.1750  139.3980 C   0  0  0  0  0  0  0  0  0  0  0  0
  185.6500  178.9050  139.6450 O   0  0  0  0  0  0  0  0  0  0  0  0
  184.1030  180.5010  138.9980 N   0  0  0  0  0  1  0  0  0  0  0  0
  189.1690  178.1760  147.1350 C   0  0  0  0  0  2  0  0  0  0  0  0
  188.4220  177.1260  147.9440 C   0  0  0  0  0  2  0  0  0  0  0  0
  186.5140  178.6540  147.4530 C   0  0  0  0  0  1  0  0  0  0  0  0
  187.0870  177.6580  148.4430 C   0  0  0  0  0  2  0  0  0  0  0  0
  1  9  1  6  0  0  0
  1 12  1  0  0  0  0
  1  8  1  0  0  0  0
  2 10  1  0  0  0  0
  3 12  1  0  0  0  0
  3 30  1  0  0  0  0
  5  6  1  0  0  0  0
  6  4  2  0  0  0  0
  6 45  1  0  0  0  0
  7  5  1  0  0  0  0
  8  5  1  0  0  0  0
 10  8  2  0  0  0  0
 11  9  1  0  0  0  0
 11  2  2  0  0  0  0
 12  7  2  0  0  0  0
 14 15  2  0  0  0  0
 14 16  1  0  0  0  0
 15 18  1  0  0  0  0
 16 19  1  0  0  0  0
 17 11  1  0  0  0  0
 18 19  1  0  0  0  0
 19 20  1  0  0  0  0
 20 13  2  0  0  0  0
 20 17  1  0  0  0  0
 22 28  1  1  0  0  0
 22 26  1  0  0  0  0
 23 22  1  0  0  0  0
 23 24  1  0  0  0  0
 23 15  1  1  0  0  0
 24 25  1  0  0  0  0
 26 21  1  6  0  0  0
 26 25  1  0  0  0  0
 28 27  1  0  0  0  0
 30 29  1  6  0  0  0
 32 30  1  0  0  0  0
 32 31  1  1  0  0  0
 33 32  1  0  0  0  0
 34 33  1  0  0  0  0
 35 34  1  1  0  0  0
 36 41  1  0  0  0  0
 38 36  1  0  0  0  0
 38 40  1  0  0  0  0
 39 37  1  0  0  0  0
 39 35  1  0  0  0  0
 40 39  1  0  0  0  0
 41 37  1  0  0  0  0
 42 35  1  0  0  0  0
 42 43  2  0  0  0  0
 44 42  1  0  0  0  0
 45 46  1  0  0  0  0
 46 48  1  0  0  0  0
 47 48  1  0  0  0  0
M  END
>  <MODEL>
4

>  <REMARK>
 VINA RESULT:      -7.3      3.426      9.231
  Name = 
  13 active torsions:
  status: ('A' for Active; 'I' for Inactive)
    1  A    between atoms: C_5  and  C_14
    2  A    between atoms: C_7  and  C_10
    3  A    between atoms: C_9  and  C_26
    4  A    between atoms: C_9  and  C_39
    5  A    between atoms: N_13  and  C_40
    6  A    between atoms: C_17  and  C_32
    7  A    between atoms: N_19  and  C_30
    8  A    between atoms: C_26  and  C_27
    9  A    between atoms: C_30  and  C_36
   10  A    between atoms: C_32  and  C_34
   11  A    between atoms: C_32  and  N_42
   12  A    between atoms: C_34  and  C_43
   13  A    between atoms: C_36  and  C_43
                            x       y       z     vdW  Elec       q    Type
                         _______ _______ _______ _____ _____    ______ ____

>  <TORSDO>
F 13

$$$$
=
 OpenBabel11042411193D

 48 52  0  0  1  0  0  0  0  0999 V2000
  187.8560  178.4790  144.0120 C   0  0  2  0  0  3  0  0  0  0  0  0
  185.2880  178.2340  145.3300 C   0  0  0  0  0  3  0  0  0  0  0  0
  189.9600  178.0440  142.5840 N   0  0  0  0  0  2  0  0  0  0  0  0
  188.4250  177.6340  148.2810 O   0  0  0  0  0  0  0  0  0  0  0  0
  188.9810  177.8830  146.0210 N   0  0  0  0  0  0  0  0  0  0  0  0
  189.3010  177.5550  147.3800 C   0  0  0  0  0  0  0  0  0  0  0  0
  189.8830  177.7700  144.9620 N   0  0  0  0  0  0  0  0  0  0  0  0
  187.7180  178.2380  145.4770 C   0  0  0  0  0  0  0  0  0  0  0  0
  186.7040  177.3720  143.1390 S   0  0  0  0  0  0  0  0  0  0  0  0
  186.5420  178.1220  146.1010 C   0  0  0  0  0  3  0  0  0  0  0  0
  185.2500  178.0380  144.0050 C   0  0  0  0  0  0  0  0  0  0  0  0
  189.2890  178.0630  143.8460 C   0  0  0  0  0  0  0  0  0  0  0  0
  182.7750  179.3250  145.0550 N   0  0  0  0  0  2  0  0  0  0  0  0
  179.9260  180.1840  142.0590 N   0  0  0  0  0  0  0  0  0  0  0  0
  180.5830  179.5940  141.1050 C   0  0  0  0  0  0  0  0  0  0  0  0
  180.6710  180.0410  143.2330 N   0  0  0  0  0  2  0  0  0  0  0  0
  184.0090  178.2660  143.3250 N   0  0  0  0  0  2  0  0  0  0  0  0
  181.8160  179.0230  141.5430 N   0  0  0  0  0  2  0  0  0  0  0  0
  181.8210  179.3260  142.9050 N   0  0  0  0  0  0  0  0  0  0  0  0
  182.8850  179.0170  143.8040 C   0  0  0  0  0  0  0  0  0  0  0  0
  181.1760  177.3630  136.9460 C   0  0  0  0  0  1  0  0  0  0  0  0
  180.1310  178.1760  139.0370 C   0  0  1  0  0  3  0  0  0  0  0  0
  180.1270  179.5600  139.6750 C   0  0  2  0  0  3  0  0  0  0  0  0
  180.9790  180.4210  138.8590 N   0  0  0  0  0  2  0  0  0  0  0  0
  181.7320  179.5620  137.9430 C   0  0  0  0  0  2  0  0  0  0  0  0
  181.4040  178.1130  138.2410 C   0  0  2  0  0  3  0  0  0  0  0  0
  180.8880  175.9930  139.7680 O   0  0  0  0  0  1  0  0  0  0  0  0
  179.9130  176.9750  139.9640 C   0  0  0  0  0  2  0  0  0  0  0  0
  191.5290  176.2440  143.0910 C   0  0  0  0  0  1  0  0  0  0  0  0
  191.3390  177.5960  142.4260 C   0  0  1  0  0  3  0  0  0  0  0  0
  193.0830  177.2690  140.8020 O   0  0  0  0  0  1  0  0  0  0  0  0
  191.7130  177.5060  140.9520 C   0  0  1  0  0  3  0  0  0  0  0  0
  190.9070  176.4050  140.2740 C   0  0  0  0  0  2  0  0  0  0  0  0
  190.4960  176.7950  138.8620 C   0  0  0  0  0  2  0  0  0  0  0  0
  188.9760  176.9040  138.7260 C   0  0  2  0  0  3  0  0  0  0  0  0
  187.6210  175.3380  135.2380 O   0  0  0  0  0  0  0  0  0  0  0  0
  187.1310  176.6540  137.2130 C   0  0  0  0  0  2  0  0  0  0  0  0
  188.7940  176.0820  135.0230 C   0  0  0  0  0  2  0  0  0  0  0  0
  188.5160  176.2500  137.4860 N   0  0  0  0  0  0  0  0  0  0  0  0
  189.4040  176.5550  136.3500 C   0  0  0  0  0  2  0  0  0  0  0  0
  186.6870  176.2220  135.8090 C   0  0  0  0  0  2  0  0  0  0  0  0
  188.5030  178.3350  138.9050 C   0  0  0  0  0  0  0  0  0  0  0  0
  187.7030  178.6380  139.8300 O   0  0  0  0  0  0  0  0  0  0  0  0
  189.0380  179.3750  138.0890 N   0  0  0  0  0  1  0  0  0  0  0  0
  190.6920  177.1550  147.7480 C   0  0  0  0  0  2  0  0  0  0  0  0
  190.9570  175.7100  147.3550 C   0  0  0  0  0  2  0  0  0  0  0  0
  193.1880  175.6310  148.4670 C   0  0  0  0  0  1  0  0  0  0  0  0
  192.4440  175.4530  147.1570 C   0  0  0  0  0  2  0  0  0  0  0  0
  1  9  1  6  0  0  0
  1  8  1  0  0  0  0
  2 10  1  0  0  0  0
  3 12  1  0  0  0  0
  5  6  1  0  0  0  0
  6 45  1  0  0  0  0
  6  4  2  0  0  0  0
  7  5  1  0  0  0  0
  8  5  1  0  0  0  0
  8 10  2  0  0  0  0
  9 11  1  0  0  0  0
 11  2  2  0  0  0  0
 12  1  1  0  0  0  0
 12  7  2  0  0  0  0
 14 16  1  0  0  0  0
 15 18  1  0  0  0  0
 15 14  2  0  0  0  0
 17 20  1  0  0  0  0
 17 11  1  0  0  0  0
 18 19  1  0  0  0  0
 19 16  1  0  0  0  0
 19 20  1  0  0  0  0
 20 13  2  0  0  0  0
 22 23  1  0  0  0  0
 22 28  1  1  0  0  0
 23 15  1  1  0  0  0
 24 23  1  0  0  0  0
 25 26  1  0  0  0  0
 25 24  1  0  0  0  0
 26 21  1  6  0  0  0
 26 22  1  0  0  0  0
 27 28  1  0  0  0  0
 30  3  1  0  0  0  0
 30 29  1  6  0  0  0
 32 31  1  1  0  0  0
 32 30  1  0  0  0  0
 33 32  1  0  0  0  0
 34 33  1  0  0  0  0
 35 34  1  6  0  0  0
 35 42  1  0  0  0  0
 36 41  1  0  0  0  0
 37 39  1  0  0  0  0
 38 36  1  0  0  0  0
 38 40  1  0  0  0  0
 39 35  1  0  0  0  0
 40 39  1  0  0  0  0
 41 37  1  0  0  0  0
 42 43  2  0  0  0  0
 44 42  1  0  0  0  0
 46 45  1  0  0  0  0
 48 46  1  0  0  0  0
 48 47  1  0  0  0  0
M  END
>  <MODEL>
5

>  <REMARK>
 VINA RESULT:      -7.0      2.509      3.754
  Name = 
  13 active torsions:
  status: ('A' for Active; 'I' for Inactive)
    1  A    between atoms: C_5  and  C_14
    2  A    between atoms: C_7  and  C_10
    3  A    between atoms: C_9  and  C_26
    4  A    between atoms: C_9  and  C_39
    5  A    between atoms: N_13  and  C_40
    6  A    between atoms: C_17  and  C_32
    7  A    between atoms: N_19  and  C_30
    8  A    between atoms: C_26  and  C_27
    9  A    between atoms: C_30  and  C_36
   10  A    between atoms: C_32  and  C_34
   11  A    between atoms: C_32  and  N_42
   12  A    between atoms: C_34  and  C_43
   13  A    between atoms: C_36  and  C_43
                            x       y       z     vdW  Elec       q    Type
                         _______ _______ _______ _____ _____    ______ ____

>  <TORSDO>
F 13

$$$$
=
 OpenBabel11042411193D

 48 52  0  0  1  0  0  0  0  0999 V2000
  183.3340  177.9030  141.9360 C   0  0  2  0  0  3  0  0  0  0  0  0
  183.7740  179.3120  144.4280 C   0  0  0  0  0  3  0  0  0  0  0  0
  183.3950  177.1550  139.4680 N   0  0  0  0  0  2  0  0  0  0  0  0
  179.8010  180.2970  142.9600 O   0  0  0  0  0  0  0  0  0  0  0  0
  181.2370  178.9880  141.6540 N   0  0  0  0  0  0  0  0  0  0  0  0
  180.0480  179.7670  141.8440 C   0  0  0  0  0  0  0  0  0  0  0  0
  181.6030  178.4150  140.4340 N   0  0  0  0  0  0  0  0  0  0  0  0
  182.2970  178.7650  142.5730 C   0  0  0  0  0  0  0  0  0  0  0  0
  184.9250  178.7870  141.9890 S   0  0  0  0  0  0  0  0  0  0  0  0
  182.4830  179.4220  143.7210 C   0  0  0  0  0  3  0  0  0  0  0  0
  184.8970  178.9340  143.8020 C   0  0  0  0  0  0  0  0  0  0  0  0
  182.7590  177.8380  140.5500 C   0  0  0  0  0  0  0  0  0  0  0  0
  185.1110  178.2440  146.6930 N   0  0  0  0  0  2  0  0  0  0  0  0
  189.0320  177.2350  147.8940 N   0  0  0  0  0  0  0  0  0  0  0  0
  189.5790  177.5280  146.7520 C   0  0  0  0  0  0  0  0  0  0  0  0
  187.6630  177.4960  147.7830 N   0  0  0  0  0  2  0  0  0  0  0  0
  186.0820  178.7580  144.5890 N   0  0  0  0  0  2  0  0  0  0  0  0
  188.6400  177.9910  145.7830 N   0  0  0  0  0  2  0  0  0  0  0  0
  187.4380  177.9610  146.4890 N   0  0  0  0  0  0  0  0  0  0  0  0
  186.1610  178.2840  145.9390 C   0  0  0  0  0  0  0  0  0  0  0  0
  192.7980  174.4550  145.0750 C   0  0  0  0  0  1  0  0  0  0  0  0
  191.3440  176.4470  145.2660 C   0  0  1  0  0  3  0  0  0  0  0  0
  191.0400  177.3480  146.4570 C   0  0  2  0  0  3  0  0  0  0  0  0
  191.7180  176.7800  147.6200 N   0  0  0  0  0  2  0  0  0  0  0  0
  192.1610  175.4320  147.2610 C   0  0  0  0  0  2  0  0  0  0  0  0
  191.6820  175.1090  145.8600 C   0  0  2  0  0  3  0  0  0  0  0  0
  190.7720  175.6750  143.0420 O   0  0  0  0  0  1  0  0  0  0  0  0
  190.2990  176.3890  144.1460 C   0  0  0  0  0  2  0  0  0  0  0  0
  182.7900  178.5450  137.5540 C   0  0  0  0  0  1  0  0  0  0  0  0
  182.8500  177.1350  138.1140 C   0  0  1  0  0  3  0  0  0  0  0  0
  183.0220  175.0650  136.9030 O   0  0  0  0  0  1  0  0  0  0  0  0
  183.6960  176.2520  137.2050 C   0  0  1  0  0  3  0  0  0  0  0  0
  184.0490  177.0020  135.9260 C   0  0  0  0  0  2  0  0  0  0  0  0
  185.5500  177.0240  135.6820 C   0  0  0  0  0  2  0  0  0  0  0  0
  186.3210  176.3970  136.8450 C   0  0  2  0  0  3  0  0  0  0  0  0
  188.9160  179.0290  138.5160 O   0  0  0  0  0  0  0  0  0  0  0  0
  188.3180  176.7110  138.1370 C   0  0  0  0  0  2  0  0  0  0  0  0
  188.7430  179.3060  137.1480 C   0  0  0  0  0  2  0  0  0  0  0  0
  187.1910  177.3980  137.4930 N   0  0  0  0  0  0  0  0  0  0  0  0
  187.6520  178.4170  136.5350 C   0  0  0  0  0  2  0  0  0  0  0  0
  189.3920  177.7060  138.5970 C   0  0  0  0  0  2  0  0  0  0  0  0
  187.0240  175.1200  136.4210 C   0  0  0  0  0  0  0  0  0  0  0  0
  186.8840  174.0580  137.0840 O   0  0  0  0  0  0  0  0  0  0  0  0
  187.7720  175.0810  135.2080 N   0  0  0  0  0  1  0  0  0  0  0  0
  179.0660  179.9240  140.7300 C   0  0  0  0  0  2  0  0  0  0  0  0
  179.2990  181.2330  139.9890 C   0  0  0  0  0  2  0  0  0  0  0  0
  180.6000  182.3750  138.1940 C   0  0  0  0  0  1  0  0  0  0  0  0
  180.2120  181.0340  138.7880 C   0  0  0  0  0  2  0  0  0  0  0  0
  1 12  1  6  0  0  0
  1  9  1  0  0  0  0
  1  8  1  0  0  0  0
  3 12  1  0  0  0  0
  5  6  1  0  0  0  0
  5  8  1  0  0  0  0
  6  4  2  0  0  0  0
  7 12  2  0  0  0  0
  7  5  1  0  0  0  0
  8 10  2  0  0  0  0
  9 11  1  0  0  0  0
 10  2  1  0  0  0  0
 11  2  2  0  0  0  0
 11 17  1  0  0  0  0
 15 14  2  0  0  0  0
 16 14  1  0  0  0  0
 17 20  1  0  0  0  0
 18 19  1  0  0  0  0
 18 15  1  0  0  0  0
 19 16  1  0  0  0  0
 20 19  1  0  0  0  0
 20 13  2  0  0  0  0
 22 28  1  6  0  0  0
 22 26  1  0  0  0  0
 22 23  1  0  0  0  0
 23 15  1  1  0  0  0
 23 24  1  0  0  0  0
 25 24  1  0  0  0  0
 26 21  1  6  0  0  0
 26 25  1  0  0  0  0
 27 28  1  0  0  0  0
 30 29  1  6  0  0  0
 30  3  1  0  0  0  0
 32 31  1  6  0  0  0
 32 30  1  0  0  0  0
 33 32  1  0  0  0  0
 34 33  1  0  0  0  0
 35 34  1  6  0  0  0
 35 39  1  0  0  0  0
 36 41  1  0  0  0  0
 37 41  1  0  0  0  0
 38 36  1  0  0  0  0
 39 37  1  0  0  0  0
 40 38  1  0  0  0  0
 40 39  1  0  0  0  0
 42 35  1  0  0  0  0
 42 43  2  0  0  0  0
 44 42  1  0  0  0  0
 45  6  1  0  0  0  0
 46 45  1  0  0  0  0
 47 48  1  0  0  0  0
 48 46  1  0  0  0  0
M  END
>  <MODEL>
6

>  <REMARK>
 VINA RESULT:      -6.7      2.624      9.605
  Name = 
  13 active torsions:
  status: ('A' for Active; 'I' for Inactive)
    1  A    between atoms: C_5  and  C_14
    2  A    between atoms: C_7  and  C_10
    3  A    between atoms: C_9  and  C_26
    4  A    between atoms: C_9  and  C_39
    5  A    between atoms: N_13  and  C_40
    6  A    between atoms: C_17  and  C_32
    7  A    between atoms: N_19  and  C_30
    8  A    between atoms: C_26  and  C_27
    9  A    between atoms: C_30  and  C_36
   10  A    between atoms: C_32  and  C_34
   11  A    between atoms: C_32  and  N_42
   12  A    between atoms: C_34  and  C_43
   13  A    between atoms: C_36  and  C_43
                            x       y       z     vdW  Elec       q    Type
                         _______ _______ _______ _____ _____    ______ ____

>  <TORSDO>
F 13

$$$$
=
 OpenBabel11042411193D

 48 52  0  0  1  0  0  0  0  0999 V2000
  186.5890  178.9310  141.1540 C   0  0  2  0  0  3  0  0  0  0  0  0
  183.7790  178.9960  141.8540 C   0  0  0  0  0  3  0  0  0  0  0  0
  188.8800  178.2910  140.1540 N   0  0  0  0  0  2  0  0  0  0  0  0
  186.0310  177.5600  145.2850 O   0  0  0  0  0  0  0  0  0  0  0  0
  187.1230  177.9440  143.2500 N   0  0  0  0  0  0  0  0  0  0  0  0
  187.0710  177.4260  144.5870 C   0  0  0  0  0  0  0  0  0  0  0  0
  188.2190  177.7880  142.3990 N   0  0  0  0  0  0  0  0  0  0  0  0
  186.0830  178.5660  142.5080 C   0  0  0  0  0  0  0  0  0  0  0  0
  185.5210  178.1360  139.9110 S   0  0  0  0  0  0  0  0  0  0  0  0
  184.7920  178.5900  142.8480 C   0  0  0  0  0  3  0  0  0  0  0  0
  184.0190  178.9490  140.5360 C   0  0  0  0  0  0  0  0  0  0  0  0
  187.9460  178.2940  141.2360 C   0  0  0  0  0  0  0  0  0  0  0  0
  181.7720  177.4730  139.2490 N   0  0  0  0  0  2  0  0  0  0  0  0
  178.9400  180.0030  137.4020 N   0  0  0  0  0  0  0  0  0  0  0  0
  179.6170  181.0940  137.5990 C   0  0  0  0  0  0  0  0  0  0  0  0
  179.6840  178.9450  137.9320 N   0  0  0  0  0  2  0  0  0  0  0  0
  183.0140  179.4570  139.6490 N   0  0  0  0  0  2  0  0  0  0  0  0
  180.8500  180.8740  138.2830 N   0  0  0  0  0  2  0  0  0  0  0  0
  180.8510  179.4910  138.4630 N   0  0  0  0  0  0  0  0  0  0  0  0
  181.8600  178.7610  139.1600 C   0  0  0  0  0  0  0  0  0  0  0  0
  180.7390  184.9820  135.0990 C   0  0  0  0  0  1  0  0  0  0  0  0
  179.5790  182.9180  135.8200 C   0  0  1  0  0  3  0  0  0  0  0  0
  179.1330  182.4590  137.2030 C   0  0  2  0  0  3  0  0  0  0  0  0
  179.5990  183.4530  138.1660 N   0  0  0  0  0  2  0  0  0  0  0  0
  180.5550  184.3230  137.4800 C   0  0  0  0  0  2  0  0  0  0  0  0
  180.7580  183.8170  136.0660 C   0  0  2  0  0  3  0  0  0  0  0  0
  181.1720  181.4440  134.7420 O   0  0  0  0  0  1  0  0  0  0  0  0
  179.8290  181.8330  134.7680 C   0  0  0  0  0  2  0  0  0  0  0  0
  190.1300  176.4940  141.2340 C   0  0  0  0  0  1  0  0  0  0  0  0
  190.1780  177.6310  140.2290 C   0  0  1  0  0  3  0  0  0  0  0  0
  190.6040  175.7000  138.8600 O   0  0  0  0  0  1  0  0  0  0  0  0
  190.5930  177.0980  138.8630 C   0  0  1  0  0  3  0  0  0  0  0  0
  189.6510  177.6240  137.7870 C   0  0  0  0  0  2  0  0  0  0  0  0
  189.0320  176.4950  136.9780 C   0  0  0  0  0  2  0  0  0  0  0  0
  187.5080  176.6150  136.9170 C   0  0  2  0  0  3  0  0  0  0  0  0
  186.0300  173.1470  135.4190 O   0  0  0  0  0  0  0  0  0  0  0  0
  187.9890  174.4670  135.9640 C   0  0  0  0  0  2  0  0  0  0  0  0
  185.4920  173.4040  136.6920 C   0  0  0  0  0  2  0  0  0  0  0  0
  186.9150  175.4050  136.3140 N   0  0  0  0  0  0  0  0  0  0  0  0
  185.9220  174.7850  137.2080 C   0  0  0  0  0  2  0  0  0  0  0  0
  187.4270  173.0900  135.5810 C   0  0  0  0  0  2  0  0  0  0  0  0
  187.0780  177.9220  136.2770 C   0  0  0  0  0  0  0  0  0  0  0  0
  187.2810  179.0210  136.8590 O   0  0  0  0  0  0  0  0  0  0  0  0
  186.5290  177.9310  134.9610 N   0  0  0  0  0  1  0  0  0  0  0  0
  188.2660  176.7570  145.1800 C   0  0  0  0  0  2  0  0  0  0  0  0
  189.1400  177.7650  145.9110 C   0  0  0  0  0  2  0  0  0  0  0  0
  190.6190  177.4110  147.8870 C   0  0  0  0  0  1  0  0  0  0  0  0
  190.4260  177.1250  146.4100 C   0  0  0  0  0  2  0  0  0  0  0  0
  1  9  1  6  0  0  0
  1 12  1  0  0  0  0
  1  8  1  0  0  0  0
  2 10  1  0  0  0  0
  3 30  1  0  0  0  0
  3 12  1  0  0  0  0
  5  6  1  0  0  0  0
  6 45  1  0  0  0  0
  6  4  2  0  0  0  0
  7  5  1  0  0  0  0
  8 10  2  0  0  0  0
  8  5  1  0  0  0  0
  9 11  1  0  0  0  0
 11  2  2  0  0  0  0
 12  7  2  0  0  0  0
 14 15  2  0  0  0  0
 14 16  1  0  0  0  0
 15 18  1  0  0  0  0
 16 19  1  0  0  0  0
 17 11  1  0  0  0  0
 18 19  1  0  0  0  0
 19 20  1  0  0  0  0
 20 13  2  0  0  0  0
 20 17  1  0  0  0  0
 22 28  1  6  0  0  0
 22 26  1  0  0  0  0
 22 23  1  0  0  0  0
 23 15  1  1  0  0  0
 23 24  1  0  0  0  0
 25 24  1  0  0  0  0
 26 21  1  6  0  0  0
 26 25  1  0  0  0  0
 27 28  1  0  0  0  0
 30 29  1  1  0  0  0
 32 31  1  1  0  0  0
 32 30  1  0  0  0  0
 33 32  1  0  0  0  0
 34 33  1  0  0  0  0
 35 34  1  6  0  0  0
 36 41  1  0  0  0  0
 36 38  1  0  0  0  0
 37 39  1  0  0  0  0
 38 40  1  0  0  0  0
 39 35  1  0  0  0  0
 39 40  1  0  0  0  0
 41 37  1  0  0  0  0
 42 43  2  0  0  0  0
 42 35  1  0  0  0  0
 44 42  1  0  0  0  0
 45 46  1  0  0  0  0
 46 48  1  0  0  0  0
 48 47  1  0  0  0  0
M  END
>  <MODEL>
7

>  <REMARK>
 VINA RESULT:      -6.7      1.792      2.650
  Name = 
  13 active torsions:
  status: ('A' for Active; 'I' for Inactive)
    1  A    between atoms: C_5  and  C_14
    2  A    between atoms: C_7  and  C_10
    3  A    between atoms: C_9  and  C_26
    4  A    between atoms: C_9  and  C_39
    5  A    between atoms: N_13  and  C_40
    6  A    between atoms: C_17  and  C_32
    7  A    between atoms: N_19  and  C_30
    8  A    between atoms: C_26  and  C_27
    9  A    between atoms: C_30  and  C_36
   10  A    between atoms: C_32  and  C_34
   11  A    between atoms: C_32  and  N_42
   12  A    between atoms: C_34  and  C_43
   13  A    between atoms: C_36  and  C_43
                            x       y       z     vdW  Elec       q    Type
                         _______ _______ _______ _____ _____    ______ ____

>  <TORSDO>
F 13

$$$$
=
 OpenBabel11042411193D

 48 52  0  0  1  0  0  0  0  0999 V2000
  187.4830  178.2780  139.6330 C   0  0  2  0  0  3  0  0  0  0  0  0
  185.1790  179.1400  141.1630 C   0  0  0  0  0  3  0  0  0  0  0  0
  189.0990  176.9530  138.1210 N   0  0  0  0  0  2  0  0  0  0  0  0
  188.2160  177.6970  143.9210 O   0  0  0  0  0  0  0  0  0  0  0  0
  188.5480  177.5020  141.6120 N   0  0  0  0  0  0  0  0  0  0  0  0
  188.8890  177.2100  142.9750 C   0  0  0  0  0  0  0  0  0  0  0  0
  189.2140  176.9570  140.5120 N   0  0  0  0  0  0  0  0  0  0  0  0
  187.4440  178.2490  141.1230 C   0  0  0  0  0  0  0  0  0  0  0  0
  185.9120  177.6030  139.0060 S   0  0  0  0  0  0  0  0  0  0  0  0
  186.3900  178.6420  141.8440 C   0  0  0  0  0  3  0  0  0  0  0  0
  184.9130  178.8450  139.8830 C   0  0  0  0  0  0  0  0  0  0  0  0
  188.6370  177.3420  139.4160 C   0  0  0  0  0  0  0  0  0  0  0  0
  182.2060  177.6740  139.4560 N   0  0  0  0  0  2  0  0  0  0  0  0
  179.3190  180.5110  138.2510 N   0  0  0  0  0  0  0  0  0  0  0  0
  180.1650  181.4900  138.1310 C   0  0  0  0  0  0  0  0  0  0  0  0
  180.0380  179.3810  138.6510 N   0  0  0  0  0  2  0  0  0  0  0  0
  183.7670  179.4540  139.2740 N   0  0  0  0  0  2  0  0  0  0  0  0
  181.5050  181.1160  138.4500 N   0  0  0  0  0  2  0  0  0  0  0  0
  181.3730  179.7640  138.7640 N   0  0  0  0  0  0  0  0  0  0  0  0
  182.4370  178.9240  139.2130 C   0  0  0  0  0  0  0  0  0  0  0  0
  180.8150  184.9040  134.8830 C   0  0  0  0  0  1  0  0  0  0  0  0
  179.7250  183.1530  136.2510 C   0  0  1  0  0  3  0  0  0  0  0  0
  179.7740  182.8890  137.7520 C   0  0  2  0  0  3  0  0  0  0  0  0
  180.7110  183.8450  138.3350 N   0  0  0  0  0  2  0  0  0  0  0  0
  181.4530  184.4670  137.2370 C   0  0  0  0  0  2  0  0  0  0  0  0
  181.0280  183.8300  135.9290 C   0  0  2  0  0  3  0  0  0  0  0  0
  180.5360  181.4890  134.6890 O   0  0  0  0  0  1  0  0  0  0  0  0
  179.3950  181.9670  135.3400 C   0  0  0  0  0  2  0  0  0  0  0  0
  189.9320  175.1610  136.6870 C   0  0  0  0  0  1  0  0  0  0  0  0
  190.1930  176.0080  137.9200 C   0  0  1  0  0  3  0  0  0  0  0  0
  192.2110  176.7590  138.9900 O   0  0  0  0  0  1  0  0  0  0  0  0
  191.5200  176.7420  137.7740 C   0  0  1  0  0  3  0  0  0  0  0  0
  192.3660  176.0850  136.6910 C   0  0  0  0  0  2  0  0  0  0  0  0
  193.7520  175.7190  137.2020 C   0  0  0  0  0  2  0  0  0  0  0  0
  194.6450  175.1850  136.0800 C   0  0  2  0  0  3  0  0  0  0  0  0
  196.7400  171.9720  137.3980 O   0  0  0  0  0  0  0  0  0  0  0  0
  194.7560  173.3470  137.6170 C   0  0  0  0  0  2  0  0  0  0  0  0
  196.5460  171.8990  136.0070 C   0  0  0  0  0  2  0  0  0  0  0  0
  195.4830  174.0730  136.5680 N   0  0  0  0  0  0  0  0  0  0  0  0
  195.8890  173.1790  135.4700 C   0  0  0  0  0  2  0  0  0  0  0  0
  195.4580  172.0290  137.9760 C   0  0  0  0  0  2  0  0  0  0  0  0
  195.4060  176.3050  135.3950 C   0  0  0  0  0  0  0  0  0  0  0  0
  194.8200  177.0910  134.6030 O   0  0  0  0  0  0  0  0  0  0  0  0
  196.7740  176.5450  135.7170 N   0  0  0  0  0  1  0  0  0  0  0  0
  190.0740  176.3570  143.2870 C   0  0  0  0  0  2  0  0  0  0  0  0
  191.3620  177.1530  143.1440 C   0  0  0  0  0  2  0  0  0  0  0  0
  191.2700  177.1050  145.6360 C   0  0  0  0  0  1  0  0  0  0  0  0
  191.6890  177.9120  144.4220 C   0  0  0  0  0  2  0  0  0  0  0  0
  1  9  1  6  0  0  0
  1  8  1  0  0  0  0
  2 10  1  0  0  0  0
  3 12  1  0  0  0  0
  5  6  1  0  0  0  0
  6 45  1  0  0  0  0
  6  4  2  0  0  0  0
  7  5  1  0  0  0  0
  8  5  1  0  0  0  0
  8 10  2  0  0  0  0
  9 11  1  0  0  0  0
 11  2  2  0  0  0  0
 12  1  1  0  0  0  0
 12  7  2  0  0  0  0
 14 16  1  0  0  0  0
 15 14  2  0  0  0  0
 15 18  1  0  0  0  0
 16 19  1  0  0  0  0
 17 11  1  0  0  0  0
 18 19  1  0  0  0  0
 19 20  1  0  0  0  0
 20 17  1  0  0  0  0
 20 13  2  0  0  0  0
 22 28  1  6  0  0  0
 22 23  1  0  0  0  0
 23 15  1  6  0  0  0
 23 24  1  0  0  0  0
 25 24  1  0  0  0  0
 26 21  1  6  0  0  0
 26 22  1  0  0  0  0
 26 25  1  0  0  0  0
 27 28  1  0  0  0  0
 30 29  1  6  0  0  0
 30  3  1  0  0  0  0
 32 30  1  0  0  0  0
 32 31  1  1  0  0  0
 33 34  1  0  0  0  0
 33 32  1  0  0  0  0
 35 39  1  0  0  0  0
 35 34  1  1  0  0  0
 36 41  1  0  0  0  0
 37 41  1  0  0  0  0
 38 36  1  0  0  0  0
 39 37  1  0  0  0  0
 40 38  1  0  0  0  0
 40 39  1  0  0  0  0
 42 44  1  0  0  0  0
 42 35  1  0  0  0  0
 43 42  2  0  0  0  0
 46 45  1  0  0  0  0
 46 48  1  0  0  0  0
 48 47  1  0  0  0  0
M  END
>  <MODEL>
8

>  <REMARK>
 VINA RESULT:      -6.5      2.921      4.709
  Name = 
  13 active torsions:
  status: ('A' for Active; 'I' for Inactive)
    1  A    between atoms: C_5  and  C_14
    2  A    between atoms: C_7  and  C_10
    3  A    between atoms: C_9  and  C_26
    4  A    between atoms: C_9  and  C_39
    5  A    between atoms: N_13  and  C_40
    6  A    between atoms: C_17  and  C_32
    7  A    between atoms: N_19  and  C_30
    8  A    between atoms: C_26  and  C_27
    9  A    between atoms: C_30  and  C_36
   10  A    between atoms: C_32  and  C_34
   11  A    between atoms: C_32  and  N_42
   12  A    between atoms: C_34  and  C_43
   13  A    between atoms: C_36  and  C_43
                            x       y       z     vdW  Elec       q    Type
                         _______ _______ _______ _____ _____    ______ ____

>  <TORSDO>
F 13

$$$$
=
 OpenBabel11042411193D

 48 52  0  0  1  0  0  0  0  0999 V2000
  188.3880  176.8350  142.8210 C   0  0  2  0  0  3  0  0  0  0  0  0
  191.0920  176.3450  141.9040 C   0  0  0  0  0  3  0  0  0  0  0  0
  186.0930  177.9070  143.3110 N   0  0  0  0  0  2  0  0  0  0  0  0
  191.1890  177.0590  146.1930 O   0  0  0  0  0  0  0  0  0  0  0  0
  189.1800  177.3010  145.0140 N   0  0  0  0  0  0  0  0  0  0  0  0
  189.9940  177.4570  146.1850 C   0  0  0  0  0  0  0  0  0  0  0  0
  187.8670  177.7650  144.9130 N   0  0  0  0  0  0  0  0  0  0  0  0
  189.5610  176.7980  143.7410 C   0  0  0  0  0  0  0  0  0  0  0  0
  188.8390  177.8210  141.3580 S   0  0  0  0  0  0  0  0  0  0  0  0
  190.8140  176.5740  143.3350 C   0  0  0  0  0  3  0  0  0  0  0  0
  190.2470  176.7460  140.9440 C   0  0  0  0  0  0  0  0  0  0  0  0
  187.4160  177.5480  143.7160 C   0  0  0  0  0  0  0  0  0  0  0  0
  188.5620  177.1210  138.5150 N   0  0  0  0  0  2  0  0  0  0  0  0
  190.6390  176.4270  134.9040 N   0  0  0  0  0  0  0  0  0  0  0  0
  191.7280  176.0110  135.4780 C   0  0  0  0  0  0  0  0  0  0  0  0
  189.7230  176.7350  135.9140 N   0  0  0  0  0  2  0  0  0  0  0  0
  190.5500  176.3920  139.5880 N   0  0  0  0  0  2  0  0  0  0  0  0
  191.6480  176.0150  136.9030 N   0  0  0  0  0  2  0  0  0  0  0  0
  190.3510  176.4740  137.1310 N   0  0  0  0  0  0  0  0  0  0  0  0
  189.7860  176.7150  138.4190 C   0  0  0  0  0  0  0  0  0  0  0  0
  195.4790  173.0860  135.5430 C   0  0  0  0  0  1  0  0  0  0  0  0
  193.3510  174.1470  134.8570 C   0  0  1  0  0  3  0  0  0  0  0  0
  192.9680  175.6170  134.7290 C   0  0  2  0  0  3  0  0  0  0  0  0
  194.1050  176.4080  135.1940 N   0  0  0  0  0  2  0  0  0  0  0  0
  195.0300  175.5000  135.8730 C   0  0  0  0  0  2  0  0  0  0  0  0
  194.4260  174.1110  135.9070 C   0  0  2  0  0  3  0  0  0  0  0  0
  192.6380  172.0670  135.8720 O   0  0  0  0  0  1  0  0  0  0  0  0
  192.2170  173.1440  135.0880 C   0  0  0  0  0  2  0  0  0  0  0  0
  185.3540  180.1340  143.9820 C   0  0  0  0  0  1  0  0  0  0  0  0
  185.1720  178.6390  144.1730 C   0  0  1  0  0  3  0  0  0  0  0  0
  182.8880  178.6300  144.9260 O   0  0  0  0  0  1  0  0  0  0  0  0
  183.7290  178.2500  143.8760 C   0  0  1  0  0  3  0  0  0  0  0  0
  183.2720  178.8900  142.5710 C   0  0  0  0  0  2  0  0  0  0  0  0
  181.7640  179.0810  142.5340 C   0  0  0  0  0  2  0  0  0  0  0  0
  181.1750  178.6670  141.1830 C   0  0  2  0  0  3  0  0  0  0  0  0
  180.3830  181.7640  138.6860 O   0  0  0  0  0  0  0  0  0  0  0  0
  181.3170  179.5440  138.9550 C   0  0  0  0  0  2  0  0  0  0  0  0
  179.2180  181.3660  139.3640 C   0  0  0  0  0  2  0  0  0  0  0  0
  180.9300  179.8520  140.3380 N   0  0  0  0  0  0  0  0  0  0  0  0
  179.5290  180.2980  140.4230 C   0  0  0  0  0  2  0  0  0  0  0  0
  180.8420  180.6340  137.9840 C   0  0  0  0  0  2  0  0  0  0  0  0
  179.9800  177.7480  141.3560 C   0  0  0  0  0  0  0  0  0  0  0  0
  179.3230  177.7410  142.4310 O   0  0  0  0  0  0  0  0  0  0  0  0
  179.5230  176.9520  140.2650 N   0  0  0  0  0  1  0  0  0  0  0  0
  189.4180  178.0580  147.4250 C   0  0  0  0  0  2  0  0  0  0  0  0
  188.3870  177.1270  148.0440 C   0  0  0  0  0  2  0  0  0  0  0  0
  186.5140  178.7370  147.7010 C   0  0  0  0  0  1  0  0  0  0  0  0
  187.2700  177.9080  148.7210 C   0  0  0  0  0  2  0  0  0  0  0  0
  1  9  1  6  0  0  0
  1 12  1  0  0  0  0
  1  8  1  0  0  0  0
  2 10  1  0  0  0  0
  3 12  1  0  0  0  0
  3 30  1  0  0  0  0
  5  6  1  0  0  0  0
  6  4  2  0  0  0  0
  6 45  1  0  0  0  0
  7  5  1  0  0  0  0
  8  5  1  0  0  0  0
 10  8  2  0  0  0  0
 11  9  1  0  0  0  0
 11  2  2  0  0  0  0
 12  7  2  0  0  0  0
 14 15  2  0  0  0  0
 14 16  1  0  0  0  0
 15 18  1  0  0  0  0
 16 19  1  0  0  0  0
 17 11  1  0  0  0  0
 18 19  1  0  0  0  0
 19 20  1  0  0  0  0
 20 13  2  0  0  0  0
 20 17  1  0  0  0  0
 22 28  1  1  0  0  0
 22 26  1  0  0  0  0
 23 22  1  0  0  0  0
 23 24  1  0  0  0  0
 23 15  1  1  0  0  0
 24 25  1  0  0  0  0
 25 26  1  0  0  0  0
 26 21  1  6  0  0  0
 28 27  1  0  0  0  0
 30 29  1  6  0  0  0
 32 30  1  0  0  0  0
 32 31  1  1  0  0  0
 33 32  1  0  0  0  0
 34 33  1  0  0  0  0
 35 42  1  0  0  0  0
 35 34  1  1  0  0  0
 36 38  1  0  0  0  0
 37 39  1  0  0  0  0
 38 40  1  0  0  0  0
 39 40  1  0  0  0  0
 39 35  1  0  0  0  0
 41 36  1  0  0  0  0
 41 37  1  0  0  0  0
 42 43  2  0  0  0  0
 44 42  1  0  0  0  0
 45 46  1  0  0  0  0
 46 48  1  0  0  0  0
 47 48  1  0  0  0  0
M  END
>  <MODEL>
9

>  <REMARK>
 VINA RESULT:      -6.5      2.589      9.879
  Name = 
  13 active torsions:
  status: ('A' for Active; 'I' for Inactive)
    1  A    between atoms: C_5  and  C_14
    2  A    between atoms: C_7  and  C_10
    3  A    between atoms: C_9  and  C_26
    4  A    between atoms: C_9  and  C_39
    5  A    between atoms: N_13  and  C_40
    6  A    between atoms: C_17  and  C_32
    7  A    between atoms: N_19  and  C_30
    8  A    between atoms: C_26  and  C_27
    9  A    between atoms: C_30  and  C_36
   10  A    between atoms: C_32  and  C_34
   11  A    between atoms: C_32  and  N_42
   12  A    between atoms: C_34  and  C_43
   13  A    between atoms: C_36  and  C_43
                            x       y       z     vdW  Elec       q    Type
                         _______ _______ _______ _____ _____    ______ ____

>  <TORSDO>
F 13

$$$$
