=
 OpenBabel11032419393D

 49 55  0  0  1  0  0  0  0  0999 V2000
  186.8340  176.6460  134.5940 O   0  0  0  0  0  0  0  0  0  0  0  0
  186.3330  176.3730  137.3920 C   0  0  2  0  0  3  0  0  0  0  0  0
  184.1230  178.3620  143.2250 C   0  0  0  0  0  1  0  0  0  0  0  0
  189.3420  176.6460  141.3700 C   0  0  0  0  0  2  0  0  0  0  0  0
  190.9830  176.7880  139.4700 C   0  0  0  0  0  0  0  0  0  0  0  0
  189.4610  177.7950  142.3750 C   0  0  1  0  0  3  0  0  0  0  0  0
  185.3750  177.5170  137.0830 C   0  0  0  0  0  2  0  0  0  0  0  0
  184.4990  178.5350  141.9620 C   0  0  0  0  0  0  0  0  0  0  0  0
  189.1520  177.1090  134.8010 C   0  0  0  0  0  2  0  0  0  0  0  0
  185.8920  179.0150  141.6350 C   0  0  0  0  0  0  0  0  0  0  0  0
  183.8980  178.4360  139.6090 N   0  0  0  0  0  0  0  0  0  0  0  0
  187.6530  176.6150  136.8010 N   0  0  0  0  0  0  0  0  0  0  0  0
  188.3340  178.8130  142.1900 C   0  0  0  0  0  2  0  0  0  0  0  0
  185.7450  175.0580  136.9050 C   0  0  0  0  0  1  0  0  0  0  0  0
  191.2020  176.6190  138.1550 C   0  0  0  0  0  0  0  0  0  0  0  0
  183.5530  178.3620  140.9470 O   0  0  0  0  0  0  0  0  0  0  0  0
  189.6090  177.1580  139.9600 C   0  0  1  0  0  3  0  0  0  0  0  0
  191.3770  176.4310  135.2070 O   0  0  0  0  0  0  0  0  0  0  0  0
  190.2590  176.7040  135.7160 C   0  0  0  0  0  0  0  0  0  0  0  0
  188.5970  176.6980  139.0650 O   0  0  0  0  0  0  0  0  0  0  0  0
  186.1730  178.9860  140.1570 C   0  0  0  0  0  3  0  0  0  0  0  0
  190.0560  176.6800  137.1880 C   0  0  0  0  0  0  0  0  0  0  0  0
  186.9510  178.1860  142.3570 C   0  0  0  0  0  2  0  0  0  0  0  0
  185.2620  178.7030  139.2290 C   0  0  0  0  0  0  0  0  0  0  0  0
  192.0380  176.7040  140.3750 O   0  0  0  0  0  1  0  0  0  0  0  0
  187.8200  176.7580  135.3740 C   0  0  0  0  0  0  0  0  0  0  0  0
  188.7960  176.6760  137.6780 C   0  0  0  0  0  0  0  0  0  0  0  0
  185.6760  178.6380  137.8980 O   0  0  0  0  0  0  0  0  0  0  0  0
  178.9670  176.1290  139.3090 C   0  0  0  0  0  3  0  0  0  0  0  0
  180.6600  179.4670  139.0630 C   0  0  0  0  0  3  0  0  0  0  0  0
  181.8010  177.4210  138.8770 C   0  0  0  0  0  0  0  0  0  0  0  0
  181.2090  174.9900  139.1620 C   0  0  0  0  0  3  0  0  0  0  0  0
  179.8900  174.9940  139.3400 C   0  0  0  0  0  3  0  0  0  0  0  0
  182.0950  179.7680  138.6350 C   0  0  0  0  0  3  0  0  0  0  0  0
  180.5410  178.0210  139.1420 N   0  0  0  0  0  0  0  0  0  0  0  0
  182.0930  176.1250  138.8890 C   0  0  0  0  0  3  0  0  0  0  0  0
  179.2400  177.4300  139.2290 C   0  0  0  0  0  3  0  0  0  0  0  0
  182.8450  178.4380  138.5920 C   0  0  1  0  0  3  0  0  0  0  0  0
  192.8660  174.8650  137.6070 C   0  0  0  0  0  1  0  0  0  0  0  0
  192.6020  176.3590  137.6850 C   0  0  0  0  0  2  0  0  0  0  0  0
  189.5830  177.3350  143.8010 C   0  0  0  0  0  0  0  0  0  0  0  0
  190.7010  176.9230  144.2150 O   0  0  0  0  0  0  0  0  0  0  0  0
  189.6840  177.6710  146.7430 C   0  0  0  0  0  3  0  0  0  0  0  0
  188.4390  177.3420  144.6720 N   0  0  0  0  0  0  0  0  0  0  0  0
  188.4340  177.5540  145.9570 C   0  0  0  0  0  0  0  0  0  0  0  0
  189.6440  177.8520  148.0620 C   0  0  0  0  0  3  0  0  0  0  0  0
  187.1230  177.4770  146.6840 C   0  0  0  0  0  2  0  0  0  0  0  0
  188.3890  177.9860  148.7360 N   0  0  0  0  0  2  0  0  0  0  0  0
  187.1620  178.2720  147.9910 C   0  0  0  0  0  2  0  0  0  0  0  0
  1 26  2  0  0  0  0
  2 14  1  6  0  0  0
  4  6  1  0  0  0  0
  5 17  1  0  0  0  0
  5 25  1  0  0  0  0
  6 41  1  1  0  0  0
  7  2  1  0  0  0  0
  7 28  1  0  0  0  0
  8  3  1  0  0  0  0
  9 26  1  0  0  0  0
  9 19  1  0  0  0  0
 10  8  2  0  0  0  0
 10 23  1  0  0  0  0
 11 16  1  0  0  0  0
 12  2  1  0  0  0  0
 12 27  1  0  0  0  0
 13 23  1  0  0  0  0
 13  6  1  0  0  0  0
 15  5  2  0  0  0  0
 16  8  1  0  0  0  0
 17  4  1  1  0  0  0
 18 19  2  0  0  0  0
 19 22  1  0  0  0  0
 20 17  1  0  0  0  0
 21 10  1  0  0  0  0
 22 27  2  0  0  0  0
 22 15  1  0  0  0  0
 24 11  1  0  0  0  0
 24 21  2  0  0  0  0
 26 12  1  0  0  0  0
 27 20  1  0  0  0  0
 28 24  1  0  0  0  0
 29 33  1  0  0  0  0
 30 35  1  0  0  0  0
 31 36  2  0  0  0  0
 31 35  1  0  0  0  0
 32 33  2  0  0  0  0
 34 30  2  0  0  0  0
 35 37  1  0  0  0  0
 36 32  1  0  0  0  0
 37 29  2  0  0  0  0
 38 34  1  1  0  0  0
 38 31  1  0  0  0  0
 38 11  1  0  0  0  0
 39 40  1  0  0  0  0
 40 15  1  0  0  0  0
 41 42  2  0  0  0  0
 41 44  1  0  0  0  0
 43 46  2  0  0  0  0
 44 45  2  0  0  0  0
 45 47  1  0  0  0  0
 45 43  1  0  0  0  0
 46 48  1  0  0  0  0
 47 49  1  0  0  0  0
 49 48  1  0  0  0  0
M  END
>  <MODEL>
1

>  <REMARK>
 VINA RESULT:     -10.2      0.000      0.000
  Name = 
  4 active torsions:
  status: ('A' for Active; 'I' for Inactive)
    1  A    between atoms: C_4  and  C_13
    2  A    between atoms: C_4  and  N_16
    3  A    between atoms: C_10  and  C_25
    4  A    between atoms: N_20  and  C_44
                            x       y       z     vdW  Elec       q    Type
                         _______ _______ _______ _____ _____    ______ ____

>  <TORSDO>
F 4

$$$$
=
 OpenBabel11032419393D

 49 55  0  0  1  0  0  0  0  0999 V2000
  191.6810  176.6940  143.7800 O   0  0  0  0  0  0  0  0  0  0  0  0
  189.0290  176.5060  142.7350 C   0  0  2  0  0  3  0  0  0  0  0  0
  184.0990  178.2090  138.7780 C   0  0  0  0  0  1  0  0  0  0  0  0
  184.6100  177.9650  144.5500 C   0  0  0  0  0  2  0  0  0  0  0  0
  186.1440  178.4330  146.4860 C   0  0  0  0  0  0  0  0  0  0  0  0
  183.7750  179.1740  144.1180 C   0  0  1  0  0  3  0  0  0  0  0  0
  189.6830  177.2900  141.6030 C   0  0  0  0  0  2  0  0  0  0  0  0
  185.2720  178.3850  139.3770 C   0  0  0  0  0  0  0  0  0  0  0  0
  191.0820  177.8320  145.7730 C   0  0  0  0  0  2  0  0  0  0  0  0
  185.3790  179.2270  140.6260 C   0  0  0  0  0  0  0  0  0  0  0  0
  187.6590  177.9290  139.3880 N   0  0  0  0  0  0  0  0  0  0  0  0
  189.3720  177.0780  144.0410 N   0  0  0  0  0  0  0  0  0  0  0  0
  184.3240  179.7970  142.8320 C   0  0  0  0  0  2  0  0  0  0  0  0
  189.4320  175.0420  142.6540 C   0  0  0  0  0  1  0  0  0  0  0  0
  187.3500  178.2330  147.0420 C   0  0  0  0  0  0  0  0  0  0  0  0
  186.4210  177.8620  138.7750 O   0  0  0  0  0  0  0  0  0  0  0  0
  185.9960  178.4190  144.9890 C   0  0  1  0  0  3  0  0  0  0  0  0
  190.1470  177.8730  147.9410 O   0  0  0  0  0  0  0  0  0  0  0  0
  189.9150  177.8450  146.7040 C   0  0  0  0  0  0  0  0  0  0  0  0
  187.0000  177.6130  144.3740 O   0  0  0  0  0  0  0  0  0  0  0  0
  186.7510  179.1660  141.2390 C   0  0  0  0  0  3  0  0  0  0  0  0
  188.5260  177.8780  146.1790 C   0  0  0  0  0  0  0  0  0  0  0  0
  184.3490  178.8060  141.6710 C   0  0  0  0  0  2  0  0  0  0  0  0
  187.7930  178.5540  140.6800 C   0  0  0  0  0  0  0  0  0  0  0  0
  185.0430  178.7350  147.2840 O   0  0  0  0  0  1  0  0  0  0  0  0
  190.7430  177.1520  144.4900 C   0  0  0  0  0  0  0  0  0  0  0  0
  188.3030  177.5420  144.8890 C   0  0  0  0  0  0  0  0  0  0  0  0
  188.9910  178.5100  141.3940 O   0  0  0  0  0  0  0  0  0  0  0  0
  188.4500  175.3650  134.6420 C   0  0  0  0  0  3  0  0  0  0  0  0
  189.3270  178.5370  136.4400 C   0  0  0  0  0  3  0  0  0  0  0  0
  188.5350  176.6110  137.5280 C   0  0  0  0  0  0  0  0  0  0  0  0
  187.6350  174.3720  136.8100 C   0  0  0  0  0  3  0  0  0  0  0  0
  187.8140  174.3550  135.4910 C   0  0  0  0  0  3  0  0  0  0  0  0
  189.4450  178.7680  137.9450 C   0  0  0  0  0  3  0  0  0  0  0  0
  188.8150  177.1900  136.2610 N   0  0  0  0  0  0  0  0  0  0  0  0
  188.0250  175.4080  137.7680 C   0  0  0  0  0  3  0  0  0  0  0  0
  188.8780  176.5830  134.9660 C   0  0  0  0  0  3  0  0  0  0  0  0
  188.8570  177.5410  138.6410 C   0  0  1  0  0  3  0  0  0  0  0  0
  187.3690  176.9990  149.1920 C   0  0  0  0  0  1  0  0  0  0  0  0
  187.4890  178.3610  148.5300 C   0  0  0  0  0  2  0  0  0  0  0  0
  182.3020  178.8830  144.0250 C   0  0  0  0  0  0  0  0  0  0  0  0
  181.8290  177.9160  144.6800 O   0  0  0  0  0  0  0  0  0  0  0  0
  181.0430  177.9520  141.5100 C   0  0  0  0  0  3  0  0  0  0  0  0
  181.4520  179.6800  143.1810 N   0  0  0  0  0  0  0  0  0  0  0  0
  180.8250  179.2890  142.1080 C   0  0  0  0  0  0  0  0  0  0  0  0
  180.4130  177.5960  140.3910 C   0  0  0  0  0  3  0  0  0  0  0  0
  180.0150  180.3010  141.3510 C   0  0  0  0  0  2  0  0  0  0  0  0
  179.4770  178.4850  139.7740 N   0  0  0  0  0  2  0  0  0  0  0  0
  178.9310  179.6280  140.5070 C   0  0  0  0  0  2  0  0  0  0  0  0
  1 26  2  0  0  0  0
  2 14  1  1  0  0  0
  2 12  1  0  0  0  0
  3  8  1  0  0  0  0
  5 15  2  0  0  0  0
  5 25  1  0  0  0  0
  6 41  1  6  0  0  0
  6  4  1  0  0  0  0
  7  2  1  0  0  0  0
  8 10  2  0  0  0  0
  9 19  1  0  0  0  0
 10 21  1  0  0  0  0
 10 23  1  0  0  0  0
 11 24  1  0  0  0  0
 12 26  1  0  0  0  0
 12 27  1  0  0  0  0
 13  6  1  0  0  0  0
 15 40  1  0  0  0  0
 16  8  1  0  0  0  0
 16 11  1  0  0  0  0
 17  4  1  1  0  0  0
 17  5  1  0  0  0  0
 19 18  2  0  0  0  0
 20 27  1  0  0  0  0
 20 17  1  0  0  0  0
 22 19  1  0  0  0  0
 22 15  1  0  0  0  0
 23 13  1  0  0  0  0
 24 21  2  0  0  0  0
 24 28  1  0  0  0  0
 26  9  1  0  0  0  0
 27 22  2  0  0  0  0
 28  7  1  0  0  0  0
 29 37  2  0  0  0  0
 29 33  1  0  0  0  0
 30 34  2  0  0  0  0
 31 36  2  0  0  0  0
 31 38  1  0  0  0  0
 32 36  1  0  0  0  0
 33 32  2  0  0  0  0
 35 30  1  0  0  0  0
 35 31  1  0  0  0  0
 37 35  1  0  0  0  0
 38 34  1  6  0  0  0
 38 11  1  0  0  0  0
 40 39  1  0  0  0  0
 41 42  2  0  0  0  0
 43 45  1  0  0  0  0
 44 41  1  0  0  0  0
 45 44  2  0  0  0  0
 46 43  2  0  0  0  0
 47 45  1  0  0  0  0
 48 46  1  0  0  0  0
 48 49  1  0  0  0  0
 49 47  1  0  0  0  0
M  END
>  <MODEL>
2

>  <REMARK>
 VINA RESULT:      -8.7      2.362      8.265
  Name = 
  4 active torsions:
  status: ('A' for Active; 'I' for Inactive)
    1  A    between atoms: C_4  and  C_13
    2  A    between atoms: C_4  and  N_16
    3  A    between atoms: C_10  and  C_25
    4  A    between atoms: N_20  and  C_44
                            x       y       z     vdW  Elec       q    Type
                         _______ _______ _______ _____ _____    ______ ____

>  <TORSDO>
F 4

$$$$
=
 OpenBabel11032419393D

 49 55  0  0  1  0  0  0  0  0999 V2000
  191.2200  176.3240  144.9870 O   0  0  0  0  0  0  0  0  0  0  0  0
  189.3870  175.9540  142.8290 C   0  0  2  0  0  3  0  0  0  0  0  0
  187.1740  176.8440  136.7310 C   0  0  0  0  0  1  0  0  0  0  0  0
  184.8390  177.8240  141.9480 C   0  0  0  0  0  2  0  0  0  0  0  0
  185.3070  178.6730  144.2680 C   0  0  0  0  0  0  0  0  0  0  0  0
  184.4570  178.9250  140.9540 C   0  0  1  0  0  3  0  0  0  0  0  0
  190.5870  176.4710  142.0440 C   0  0  0  0  0  2  0  0  0  0  0  0
  187.9320  177.1270  137.7860 C   0  0  0  0  0  0  0  0  0  0  0  0
  189.8800  177.8680  146.1900 C   0  0  0  0  0  2  0  0  0  0  0  0
  187.5260  178.2140  138.7530 C   0  0  0  0  0  0  0  0  0  0  0  0
  189.9540  176.6520  139.0480 N   0  0  0  0  0  0  0  0  0  0  0  0
  189.1290  176.7860  144.0090 N   0  0  0  0  0  0  0  0  0  0  0  0
  185.6210  179.2530  140.0160 C   0  0  0  0  0  2  0  0  0  0  0  0
  189.6080  174.5010  143.2190 C   0  0  0  0  0  1  0  0  0  0  0  0
  186.0700  178.5790  145.3700 C   0  0  0  0  0  0  0  0  0  0  0  0
  189.1600  176.4730  137.9300 O   0  0  0  0  0  0  0  0  0  0  0  0
  185.8900  178.3430  142.9210 C   0  0  1  0  0  3  0  0  0  0  0  0
  188.0360  178.3810  147.5730 O   0  0  0  0  0  0  0  0  0  0  0  0
  188.4210  178.0940  146.4100 C   0  0  0  0  0  0  0  0  0  0  0  0
  186.9650  177.4120  143.0340 O   0  0  0  0  0  0  0  0  0  0  0  0
  188.4220  178.2660  139.9600 C   0  0  0  0  0  3  0  0  0  0  0  0
  187.4640  178.0330  145.2740 C   0  0  0  0  0  0  0  0  0  0  0  0
  186.0820  178.0380  139.2140 C   0  0  0  0  0  2  0  0  0  0  0  0
  189.5270  177.5360  140.1040 C   0  0  0  0  0  0  0  0  0  0  0  0
  184.0010  179.1520  144.3550 O   0  0  0  0  0  1  0  0  0  0  0  0
  190.1180  176.9350  145.0510 C   0  0  0  0  0  0  0  0  0  0  0  0
  187.8460  177.4340  144.1240 C   0  0  0  0  0  0  0  0  0  0  0  0
  190.2250  177.6280  141.3080 O   0  0  0  0  0  0  0  0  0  0  0  0
  193.0930  174.2910  135.2670 C   0  0  0  0  0  3  0  0  0  0  0  0
  193.0930  177.1280  137.7200 C   0  0  0  0  0  3  0  0  0  0  0  0
  191.6020  175.3160  137.8390 C   0  0  0  0  0  0  0  0  0  0  0  0
  191.0520  173.3310  136.3910 C   0  0  0  0  0  3  0  0  0  0  0  0
  191.9700  173.3650  135.4270 C   0  0  0  0  0  3  0  0  0  0  0  0
  192.3270  177.2370  139.0370 C   0  0  0  0  0  3  0  0  0  0  0  0
  192.6370  175.9120  137.0700 N   0  0  0  0  0  0  0  0  0  0  0  0
  190.9170  174.2140  137.5500 C   0  0  0  0  0  3  0  0  0  0  0  0
  193.3820  175.3870  135.9660 C   0  0  0  0  0  3  0  0  0  0  0  0
  191.3090  176.0990  139.0670 C   0  0  1  0  0  3  0  0  0  0  0  0
  184.7340  177.8780  147.3370 C   0  0  0  0  0  1  0  0  0  0  0  0
  185.4960  179.0180  146.6840 C   0  0  0  0  0  2  0  0  0  0  0  0
  183.1850  178.6410  140.2040 C   0  0  0  0  0  0  0  0  0  0  0  0
  182.5100  177.6220  140.5130 O   0  0  0  0  0  0  0  0  0  0  0  0
  180.7220  180.2870  140.2240 C   0  0  0  0  0  3  0  0  0  0  0  0
  182.7590  179.5040  139.1350 N   0  0  0  0  0  0  0  0  0  0  0  0
  181.7230  180.2940  139.1320 C   0  0  0  0  0  0  0  0  0  0  0  0
  179.6540  181.0820  140.1730 C   0  0  0  0  0  3  0  0  0  0  0  0
  181.4370  181.0840  137.8890 C   0  0  0  0  0  2  0  0  0  0  0  0
  179.4810  181.9920  139.0830 N   0  0  0  0  0  2  0  0  0  0  0  0
  180.5980  182.3270  138.1980 C   0  0  0  0  0  2  0  0  0  0  0  0
  1 26  2  0  0  0  0
  2 14  1  1  0  0  0
  2 12  1  0  0  0  0
  3  8  1  0  0  0  0
  5 25  1  0  0  0  0
  5 15  2  0  0  0  0
  6 41  1  6  0  0  0
  6  4  1  0  0  0  0
  7  2  1  0  0  0  0
  8 16  1  0  0  0  0
  8 10  2  0  0  0  0
  9 19  1  0  0  0  0
 10 23  1  0  0  0  0
 10 21  1  0  0  0  0
 11 38  1  0  0  0  0
 11 24  1  0  0  0  0
 12 27  1  0  0  0  0
 12 26  1  0  0  0  0
 13  6  1  0  0  0  0
 15 40  1  0  0  0  0
 16 11  1  0  0  0  0
 17  4  1  6  0  0  0
 17 20  1  0  0  0  0
 17  5  1  0  0  0  0
 19 18  2  0  0  0  0
 20 27  1  0  0  0  0
 21 24  2  0  0  0  0
 22 15  1  0  0  0  0
 22 19  1  0  0  0  0
 23 13  1  0  0  0  0
 24 28  1  0  0  0  0
 26  9  1  0  0  0  0
 27 22  2  0  0  0  0
 28  7  1  0  0  0  0
 29 33  1  0  0  0  0
 29 37  2  0  0  0  0
 30 34  2  0  0  0  0
 31 38  1  0  0  0  0
 32 36  1  0  0  0  0
 33 32  2  0  0  0  0
 35 30  1  0  0  0  0
 35 31  1  0  0  0  0
 36 31  2  0  0  0  0
 37 35  1  0  0  0  0
 38 34  1  6  0  0  0
 40 39  1  0  0  0  0
 41 42  2  0  0  0  0
 44 41  1  0  0  0  0
 45 44  2  0  0  0  0
 45 43  1  0  0  0  0
 46 43  2  0  0  0  0
 47 49  1  0  0  0  0
 47 45  1  0  0  0  0
 48 46  1  0  0  0  0
 49 48  1  0  0  0  0
M  END
>  <MODEL>
3

>  <REMARK>
 VINA RESULT:      -8.1      2.333      9.393
  Name = 
  4 active torsions:
  status: ('A' for Active; 'I' for Inactive)
    1  A    between atoms: C_4  and  C_13
    2  A    between atoms: C_4  and  N_16
    3  A    between atoms: C_10  and  C_25
    4  A    between atoms: N_20  and  C_44
                            x       y       z     vdW  Elec       q    Type
                         _______ _______ _______ _____ _____    ______ ____

>  <TORSDO>
F 4

$$$$
=
 OpenBabel11032419393D

 49 55  0  0  1  0  0  0  0  0999 V2000
  191.3320  176.2820  145.0040 O   0  0  0  0  0  0  0  0  0  0  0  0
  189.4940  175.9450  142.8430 C   0  0  2  0  0  3  0  0  0  0  0  0
  187.2850  176.9100  136.7560 C   0  0  0  0  0  1  0  0  0  0  0  0
  184.9600  177.8560  141.9840 C   0  0  0  0  0  2  0  0  0  0  0  0
  185.4340  178.6790  144.3120 C   0  0  0  0  0  0  0  0  0  0  0  0
  184.5850  178.9690  141.0010 C   0  0  1  0  0  3  0  0  0  0  0  0
  190.6980  176.4610  142.0620 C   0  0  0  0  0  2  0  0  0  0  0  0
  188.0450  177.1780  137.8130 C   0  0  0  0  0  0  0  0  0  0  0  0
  190.0030  177.8230  146.2220 C   0  0  0  0  0  2  0  0  0  0  0  0
  187.6480  178.2580  138.7900 C   0  0  0  0  0  0  0  0  0  0  0  0
  190.0640  176.6760  139.0690 N   0  0  0  0  0  0  0  0  0  0  0  0
  189.2430  176.7680  144.0310 N   0  0  0  0  0  0  0  0  0  0  0  0
  185.7500  179.2980  140.0650 C   0  0  0  0  0  2  0  0  0  0  0  0
  189.7050  174.4880  143.2190 C   0  0  0  0  0  1  0  0  0  0  0  0
  186.1970  178.5690  145.4120 C   0  0  0  0  0  0  0  0  0  0  0  0
  189.2680  176.5140  137.9500 O   0  0  0  0  0  0  0  0  0  0  0  0
  186.0150  178.3580  142.9610 C   0  0  1  0  0  3  0  0  0  0  0  0
  188.1640  178.3360  147.6110 O   0  0  0  0  0  0  0  0  0  0  0  0
  188.5460  178.0570  146.4450 C   0  0  0  0  0  0  0  0  0  0  0  0
  187.0830  177.4180  143.0640 O   0  0  0  0  0  0  0  0  0  0  0  0
  188.5450  178.2920  139.9980 C   0  0  0  0  0  3  0  0  0  0  0  0
  187.5880  178.0140  145.3100 C   0  0  0  0  0  0  0  0  0  0  0  0
  186.2030  178.0880  139.2510 C   0  0  0  0  0  2  0  0  0  0  0  0
  189.6440  177.5530  140.1330 C   0  0  0  0  0  0  0  0  0  0  0  0
  184.1330  179.1660  144.4040 O   0  0  0  0  0  1  0  0  0  0  0  0
  190.2340  176.9000  145.0740 C   0  0  0  0  0  0  0  0  0  0  0  0
  187.9650  177.4230  144.1540 C   0  0  0  0  0  0  0  0  0  0  0  0
  190.3430  177.6280  141.3380 O   0  0  0  0  0  0  0  0  0  0  0  0
  193.1670  174.2870  135.2750 C   0  0  0  0  0  3  0  0  0  0  0  0
  193.2000  177.1280  137.7240 C   0  0  0  0  0  3  0  0  0  0  0  0
  191.6960  175.3270  137.8530 C   0  0  0  0  0  0  0  0  0  0  0  0
  191.1250  173.3440  136.4100 C   0  0  0  0  0  3  0  0  0  0  0  0
  192.0380  173.3700  135.4420 C   0  0  0  0  0  3  0  0  0  0  0  0
  192.4420  177.2440  139.0440 C   0  0  0  0  0  3  0  0  0  0  0  0
  192.7310  175.9140  137.0780 N   0  0  0  0  0  0  0  0  0  0  0  0
  191.0020  174.2300  137.5700 C   0  0  0  0  0  3  0  0  0  0  0  0
  193.4670  175.3820  135.9700 C   0  0  0  0  0  3  0  0  0  0  0  0
  191.4150  176.1130  139.0810 C   0  0  1  0  0  3  0  0  0  0  0  0
  184.8090  177.8770  147.3450 C   0  0  0  0  0  1  0  0  0  0  0  0
  185.6280  178.9990  146.7310 C   0  0  0  0  0  2  0  0  0  0  0  0
  183.3100  178.7020  140.2490 C   0  0  0  0  0  0  0  0  0  0  0  0
  182.6110  179.6790  139.8670 O   0  0  0  0  0  0  0  0  0  0  0  0
  183.2030  177.4310  137.5750 C   0  0  0  0  0  3  0  0  0  0  0  0
  182.8830  177.3530  139.9910 N   0  0  0  0  0  0  0  0  0  0  0  0
  182.8860  176.7360  138.8430 C   0  0  0  0  0  0  0  0  0  0  0  0
  183.1620  176.7790  136.4130 C   0  0  0  0  0  3  0  0  0  0  0  0
  182.3570  175.3320  138.7910 C   0  0  0  0  0  2  0  0  0  0  0  0
  182.8570  175.3820  136.3790 N   0  0  0  0  0  2  0  0  0  0  0  0
  182.9230  174.5670  137.5920 C   0  0  0  0  0  2  0  0  0  0  0  0
  1 26  2  0  0  0  0
  2 14  1  1  0  0  0
  2 12  1  0  0  0  0
  3  8  1  0  0  0  0
  5 25  1  0  0  0  0
  5 15  2  0  0  0  0
  6 41  1  6  0  0  0
  6  4  1  0  0  0  0
  7  2  1  0  0  0  0
  8 16  1  0  0  0  0
  8 10  2  0  0  0  0
  9 19  1  0  0  0  0
 10 23  1  0  0  0  0
 10 21  1  0  0  0  0
 11 38  1  0  0  0  0
 11 24  1  0  0  0  0
 12 27  1  0  0  0  0
 12 26  1  0  0  0  0
 13  6  1  0  0  0  0
 15 40  1  0  0  0  0
 16 11  1  0  0  0  0
 17  4  1  6  0  0  0
 17 20  1  0  0  0  0
 17  5  1  0  0  0  0
 19 18  2  0  0  0  0
 20 27  1  0  0  0  0
 21 24  2  0  0  0  0
 22 15  1  0  0  0  0
 22 19  1  0  0  0  0
 23 13  1  0  0  0  0
 24 28  1  0  0  0  0
 26  9  1  0  0  0  0
 27 22  2  0  0  0  0
 28  7  1  0  0  0  0
 29 33  1  0  0  0  0
 29 37  2  0  0  0  0
 30 34  2  0  0  0  0
 31 38  1  0  0  0  0
 32 36  1  0  0  0  0
 33 32  2  0  0  0  0
 35 30  1  0  0  0  0
 35 31  1  0  0  0  0
 36 31  2  0  0  0  0
 37 35  1  0  0  0  0
 38 34  1  6  0  0  0
 40 39  1  0  0  0  0
 42 41  2  0  0  0  0
 43 45  1  0  0  0  0
 44 41  1  0  0  0  0
 45 44  2  0  0  0  0
 46 43  2  0  0  0  0
 47 45  1  0  0  0  0
 48 46  1  0  0  0  0
 48 49  1  0  0  0  0
 49 47  1  0  0  0  0
M  END
>  <MODEL>
4

>  <REMARK>
 VINA RESULT:      -7.9      2.149      9.344
  Name = 
  4 active torsions:
  status: ('A' for Active; 'I' for Inactive)
    1  A    between atoms: C_4  and  C_13
    2  A    between atoms: C_4  and  N_16
    3  A    between atoms: C_10  and  C_25
    4  A    between atoms: N_20  and  C_44
                            x       y       z     vdW  Elec       q    Type
                         _______ _______ _______ _____ _____    ______ ____

>  <TORSDO>
F 4

$$$$
