=
 OpenBabel11042410293D

 35 36  0  0  1  0  0  0  0  0999 V2000
  188.3600  177.6530  145.0780 C   0  0  0  0  0  0  0  0  0  0  0  0
  188.3870  177.2790  143.6240 C   0  0  1  0  0  3  0  0  0  0  0  0
  186.4350  177.7750  146.6550 N   0  0  0  0  0  0  0  0  0  0  0  0
  186.9570  177.7160  143.2120 C   0  0  0  0  0  0  0  0  0  0  0  0
  186.6300  178.5080  142.0030 N   0  0  0  0  0  2  0  0  0  0  0  0
  187.0460  178.2040  145.3530 C   0  0  2  0  0  3  0  0  0  0  0  0
  186.2040  177.9800  144.2490 N   0  0  0  0  0  0  0  0  0  0  0  0
  189.2480  177.5150  146.0670 C   0  0  0  0  0  3  0  0  0  0  0  0
  185.0620  178.2260  146.8870 C   0  0  0  0  0  1  0  0  0  0  0  0
  188.7870  177.8280  147.5560 C   0  0  0  0  0  3  0  0  0  0  0  0
  187.4180  177.9290  147.7510 C   0  0  0  0  0  3  0  0  0  0  0  0
  189.4330  177.8370  142.6470 C   0  0  0  0  0  2  0  0  0  0  0  0
  189.9710  175.6150  142.5690 O   0  0  0  0  0  0  0  0  0  0  0  0
  190.8720  176.7240  140.7840 N   0  0  0  0  0  2  0  0  0  0  0  0
  190.1340  176.6910  141.9970 C   0  0  0  0  0  0  0  0  0  0  0  0
  190.9070  175.0310  138.3520 O   0  0  0  0  0  0  0  0  0  0  0  0
  190.3380  176.1590  138.3880 C   0  0  0  0  0  0  0  0  0  0  0  0
  190.1080  176.8450  139.6210 N   0  0  0  0  0  2  0  0  0  0  0  0
  189.7950  176.7390  137.1140 C   0  0  0  0  0  2  0  0  0  0  0  0
  188.3000  176.4460  137.0000 C   0  0  0  0  0  2  0  0  0  0  0  0
  187.2840  178.1070  135.0420 O   0  0  0  0  0  0  0  0  0  0  0  0
  186.0870  177.8270  137.2290 O   0  0  0  0  0  1  0  0  0  0  0  0
  188.4670  179.2910  137.3250 O   0  0  0  0  0  1  0  0  0  0  0  0
  187.4820  178.0270  136.7130 P   0  0  0  0  0  0  0  0  0  0  0  0
  185.3380  179.1160  141.6930 C   0  0  0  0  0  2  0  0  0  0  0  0
  185.0480  179.0010  140.2440 C   0  0  0  0  0  2  0  0  0  0  0  0
  183.5340  178.9510  140.0560 C   0  0  0  0  0  2  0  0  0  0  0  0
  182.9600  177.5240  140.3250 C   0  0  0  0  0  2  0  0  0  0  0  0
  181.4340  177.4760  140.3150 C   0  0  0  0  0  2  0  0  0  0  0  0
  180.7290  178.7350  140.6160 C   0  0  0  0  0  2  0  0  0  0  0  0
  179.5320  177.5200  142.2870 O   0  0  0  0  0  1  0  0  0  0  0  0
  179.7550  178.7990  141.7890 C   0  0  1  0  0  3  0  0  0  0  0  0
  180.3530  179.6240  142.9370 C   0  0  0  0  0  2  0  0  0  0  0  0
  181.0150  178.6840  143.8910 C   0  0  0  0  0  2  0  0  0  0  0  0
  182.5510  178.8570  143.9950 C   0  0  0  0  0  1  0  0  0  0  0  0
  1  6  1  0  0  0  0
  1  8  2  0  0  0  0
  2 12  1  6  0  0  0
  2  1  1  0  0  0  0
  3  9  1  0  0  0  0
  3 11  1  0  0  0  0
  4  2  1  0  0  0  0
  4  7  2  0  0  0  0
  5  4  1  0  0  0  0
  6  7  1  6  0  0  0
  6  3  1  0  0  0  0
  8 10  1  0  0  0  0
 10 11  2  0  0  0  0
 14 15  1  0  0  0  0
 15 13  2  0  0  0  0
 15 12  1  0  0  0  0
 16 17  2  0  0  0  0
 17 18  1  0  0  0  0
 18 14  1  0  0  0  0
 19 17  1  0  0  0  0
 20 19  1  0  0  0  0
 21 24  2  0  0  0  0
 24 20  1  0  0  0  0
 24 22  1  0  0  0  0
 24 23  1  0  0  0  0
 25  5  1  0  0  0  0
 26 25  1  0  0  0  0
 27 26  1  0  0  0  0
 27 28  1  0  0  0  0
 29 28  1  0  0  0  0
 29 30  1  0  0  0  0
 30 32  1  0  0  0  0
 32 31  1  1  0  0  0
 32 33  1  0  0  0  0
 33 34  1  0  0  0  0
 34 35  1  0  0  0  0
M  END
>  <MODEL>
1

>  <REMARK>
 VINA RESULT:      -7.4      0.000      0.000
  Name = 
  15 active torsions:
  status: ('A' for Active; 'I' for Inactive)
    1  A    between atoms: C_1  and  C_14
    2  A    between atoms: C_1  and  C_32
    3  A    between atoms: C_5  and  C_22
    4  A    between atoms: C_6  and  C_31
    5  A    between atoms: C_7  and  C_16
    6  A    between atoms: C_7  and  C_27
    7  A    between atoms: N_12  and  C_32
    8  A    between atoms: C_14  and  C_16
    9  A    between atoms: C_18  and  C_28
   10  A    between atoms: C_22  and  C_30
   11  A    between atoms: N_25  and  N_26
   12  A    between atoms: C_27  and  C_29
   13  A    between atoms: C_28  and  C_34
   14  A    between atoms: C_29  and  C_31
   15  A    between atoms: C_34  and  P_35
                            x       y       z     vdW  Elec       q    Type
                         _______ _______ _______ _____ _____    ______ ____

>  <TORSDO>
F 15

$$$$
=
 OpenBabel11042410293D

 35 36  0  0  1  0  0  0  0  0999 V2000
  184.2760  178.6480  142.5990 C   0  0  0  0  0  0  0  0  0  0  0  0
  185.2230  178.8190  141.4470 C   0  0  1  0  0  3  0  0  0  0  0  0
  184.6520  179.0100  145.0360 N   0  0  0  0  0  0  0  0  0  0  0  0
  186.5680  178.5390  142.1660 C   0  0  0  0  0  0  0  0  0  0  0  0
  187.6340  177.6480  141.6480 N   0  0  0  0  0  2  0  0  0  0  0  0
  185.0770  178.3310  143.7660 C   0  0  2  0  0  3  0  0  0  0  0  0
  186.4380  178.5230  143.4680 N   0  0  0  0  0  0  0  0  0  0  0  0
  182.9520  178.7890  142.7150 C   0  0  0  0  0  3  0  0  0  0  0  0
  185.5240  178.7920  146.1910 C   0  0  0  0  0  1  0  0  0  0  0  0
  182.3030  178.7440  144.1660 C   0  0  0  0  0  3  0  0  0  0  0  0
  183.1910  178.8640  145.2240 C   0  0  0  0  0  3  0  0  0  0  0  0
  185.1090  177.9950  140.1550 C   0  0  0  0  0  2  0  0  0  0  0  0
  184.6430  180.0230  139.2050 O   0  0  0  0  0  0  0  0  0  0  0  0
  185.7950  178.6950  137.7430 N   0  0  0  0  0  2  0  0  0  0  0  0
  185.1590  178.9280  138.9910 C   0  0  0  0  0  0  0  0  0  0  0  0
  187.7240  176.4510  137.5860 O   0  0  0  0  0  0  0  0  0  0  0  0
  188.0630  177.6160  137.9390 C   0  0  0  0  0  0  0  0  0  0  0  0
  187.1910  178.7360  137.7660 N   0  0  0  0  0  2  0  0  0  0  0  0
  189.4570  177.8430  138.4480 C   0  0  0  0  0  2  0  0  0  0  0  0
  190.0430  176.5350  138.9750 C   0  0  0  0  0  2  0  0  0  0  0  0
  192.7230  176.6760  138.3250 O   0  0  0  0  0  1  0  0  0  0  0  0
  191.4500  174.5330  138.0440 O   0  0  0  0  0  1  0  0  0  0  0  0
  190.8350  176.5600  136.2190 O   0  0  0  0  0  0  0  0  0  0  0  0
  191.2810  176.0000  137.7780 P   0  0  0  0  0  0  0  0  0  0  0  0
  188.8110  177.1930  142.3850 C   0  0  0  0  0  2  0  0  0  0  0  0
  189.7420  178.3240  142.6180 C   0  0  0  0  0  2  0  0  0  0  0  0
  191.1090  177.7550  142.9890 C   0  0  0  0  0  2  0  0  0  0  0  0
  191.0770  176.2000  143.1240 C   0  0  0  0  0  2  0  0  0  0  0  0
  191.5560  175.7030  144.4860 C   0  0  0  0  0  2  0  0  0  0  0  0
  191.6990  176.7150  145.5480 C   0  0  0  0  0  2  0  0  0  0  0  0
  191.5200  177.2300  147.8730 O   0  0  0  0  0  1  0  0  0  0  0  0
  190.8610  176.6070  146.8180 C   0  0  1  0  0  3  0  0  0  0  0  0
  189.5210  177.3370  146.6410 C   0  0  0  0  0  2  0  0  0  0  0  0
  188.6550  177.0110  147.8140 C   0  0  0  0  0  2  0  0  0  0  0  0
  188.2340  178.2400  148.6580 C   0  0  0  0  0  1  0  0  0  0  0  0
  1  8  2  0  0  0  0
  2 12  1  6  0  0  0
  2  4  1  0  0  0  0
  2  1  1  0  0  0  0
  3 11  1  0  0  0  0
  3  9  1  0  0  0  0
  4  7  2  0  0  0  0
  5  4  1  0  0  0  0
  5 25  1  0  0  0  0
  6  1  1  6  0  0  0
  6  3  1  0  0  0  0
  7  6  1  0  0  0  0
  8 10  1  0  0  0  0
 10 11  2  0  0  0  0
 14 18  1  0  0  0  0
 14 15  1  0  0  0  0
 15 13  2  0  0  0  0
 15 12  1  0  0  0  0
 16 17  2  0  0  0  0
 17 19  1  0  0  0  0
 18 17  1  0  0  0  0
 19 20  1  0  0  0  0
 23 24  2  0  0  0  0
 24 22  1  0  0  0  0
 24 21  1  0  0  0  0
 24 20  1  0  0  0  0
 25 26  1  0  0  0  0
 26 27  1  0  0  0  0
 27 28  1  0  0  0  0
 28 29  1  0  0  0  0
 29 30  1  0  0  0  0
 30 32  1  0  0  0  0
 32 31  1  1  0  0  0
 33 32  1  0  0  0  0
 33 34  1  0  0  0  0
 34 35  1  0  0  0  0
M  END
>  <MODEL>
2

>  <REMARK>
 VINA RESULT:      -7.3      2.465      6.629
  Name = 
  15 active torsions:
  status: ('A' for Active; 'I' for Inactive)
    1  A    between atoms: C_1  and  C_14
    2  A    between atoms: C_1  and  C_32
    3  A    between atoms: C_5  and  C_22
    4  A    between atoms: C_6  and  C_31
    5  A    between atoms: C_7  and  C_16
    6  A    between atoms: C_7  and  C_27
    7  A    between atoms: N_12  and  C_32
    8  A    between atoms: C_14  and  C_16
    9  A    between atoms: C_18  and  C_28
   10  A    between atoms: C_22  and  C_30
   11  A    between atoms: N_25  and  N_26
   12  A    between atoms: C_27  and  C_29
   13  A    between atoms: C_28  and  C_34
   14  A    between atoms: C_29  and  C_31
   15  A    between atoms: C_34  and  P_35
                            x       y       z     vdW  Elec       q    Type
                         _______ _______ _______ _____ _____    ______ ____

>  <TORSDO>
F 15

$$$$
=
 OpenBabel11042410293D

 35 36  0  0  1  0  0  0  0  0999 V2000
  183.1150  178.8390  143.1430 C   0  0  0  0  0  0  0  0  0  0  0  0
  184.3800  178.4750  143.8630 C   0  0  1  0  0  3  0  0  0  0  0  0
  182.2340  178.0260  140.9590 N   0  0  0  0  0  0  0  0  0  0  0  0
  185.2770  178.1060  142.6510 C   0  0  0  0  0  0  0  0  0  0  0  0
  186.6690  178.5740  142.4570 N   0  0  0  0  0  2  0  0  0  0  0  0
  183.3610  178.6550  141.7250 C   0  0  2  0  0  3  0  0  0  0  0  0
  184.5870  177.9910  141.5450 N   0  0  0  0  0  0  0  0  0  0  0  0
  181.9040  179.2110  143.5690 C   0  0  0  0  0  3  0  0  0  0  0  0
  182.5160  177.7240  139.5540 C   0  0  0  0  0  1  0  0  0  0  0  0
  180.7180  179.3030  142.5130 C   0  0  0  0  0  3  0  0  0  0  0  0
  180.9580  178.7010  141.2870 C   0  0  0  0  0  3  0  0  0  0  0  0
  185.1050  179.4490  144.8040 C   0  0  0  0  0  2  0  0  0  0  0  0
  183.9810  178.3950  146.4960 O   0  0  0  0  0  0  0  0  0  0  0  0
  186.1460  178.8120  147.1050 N   0  0  0  0  0  0  0  0  0  0  0  0
  185.0650  178.8900  146.1880 C   0  0  0  0  0  0  0  0  0  0  0  0
  188.2860  177.7280  148.8440 O   0  0  0  0  0  0  0  0  0  0  0  0
  188.2730  177.5530  147.5930 C   0  0  0  0  0  0  0  0  0  0  0  0
  187.1180  177.8550  146.8050 N   0  0  0  0  0  0  0  0  0  0  0  0
  189.4590  176.9090  146.9370 C   0  0  0  0  0  2  0  0  0  0  0  0
  189.4520  177.1990  145.4370 C   0  0  0  0  0  2  0  0  0  0  0  0
  192.0590  176.9360  146.3080 O   0  0  0  0  0  1  0  0  0  0  0  0
  191.3390  175.9590  144.1130 O   0  0  0  0  0  0  0  0  0  0  0  0
  191.5250  178.7480  144.1990 O   0  0  0  0  0  1  0  0  0  0  0  0
  191.1740  177.2240  144.9040 P   0  0  0  0  0  0  0  0  0  0  0  0
  187.4670  178.4270  141.2410 C   0  0  0  0  0  2  0  0  0  0  0  0
  188.9130  178.4490  141.5670 C   0  0  0  0  0  2  0  0  0  0  0  0
  189.4870  177.0580  141.3090 C   0  0  0  0  0  2  0  0  0  0  0  0
  190.7330  177.1060  140.3700 C   0  0  0  0  0  2  0  0  0  0  0  0
  190.4910  176.4510  139.0120 C   0  0  0  0  0  2  0  0  0  0  0  0
  190.2110  177.3540  137.8810 C   0  0  0  0  0  2  0  0  0  0  0  0
  189.0250  179.4260  137.8250 O   0  0  0  0  0  1  0  0  0  0  0  0
  188.8550  178.0460  137.7790 C   0  0  1  0  0  3  0  0  0  0  0  0
  188.1890  177.7260  136.4330 C   0  0  0  0  0  2  0  0  0  0  0  0
  186.7790  178.2150  136.4830 C   0  0  0  0  0  2  0  0  0  0  0  0
  185.7250  177.1050  136.7150 C   0  0  0  0  0  1  0  0  0  0  0  0
  1  8  2  0  0  0  0
  1  2  1  0  0  0  0
  2 12  1  6  0  0  0
  3 11  1  0  0  0  0
  3  6  1  0  0  0  0
  4  2  1  0  0  0  0
  5  4  1  0  0  0  0
  6  7  1  1  0  0  0
  6  1  1  0  0  0  0
  7  4  2  0  0  0  0
  9  3  1  0  0  0  0
 10  8  1  0  0  0  0
 11 10  2  0  0  0  0
 12 15  1  0  0  0  0
 15 13  2  0  0  0  0
 15 14  1  0  0  0  0
 17 16  2  0  0  0  0
 18 14  2  0  0  0  0
 18 17  1  0  0  0  0
 19 17  1  0  0  0  0
 20 19  1  0  0  0  0
 22 24  2  0  0  0  0
 23 24  1  0  0  0  0
 24 20  1  0  0  0  0
 24 21  1  0  0  0  0
 25 26  1  0  0  0  0
 25  5  1  0  0  0  0
 27 26  1  0  0  0  0
 28 27  1  0  0  0  0
 29 28  1  0  0  0  0
 30 29  1  0  0  0  0
 32 31  1  6  0  0  0
 32 30  1  0  0  0  0
 33 34  1  0  0  0  0
 33 32  1  0  0  0  0
 34 35  1  0  0  0  0
M  END
>  <MODEL>
3

>  <REMARK>
 VINA RESULT:      -7.3      2.850      7.996
  Name = 
  15 active torsions:
  status: ('A' for Active; 'I' for Inactive)
    1  A    between atoms: C_1  and  C_14
    2  A    between atoms: C_1  and  C_32
    3  A    between atoms: C_5  and  C_22
    4  A    between atoms: C_6  and  C_31
    5  A    between atoms: C_7  and  C_16
    6  A    between atoms: C_7  and  C_27
    7  A    between atoms: N_12  and  C_32
    8  A    between atoms: C_14  and  C_16
    9  A    between atoms: C_18  and  C_28
   10  A    between atoms: C_22  and  C_30
   11  A    between atoms: N_25  and  N_26
   12  A    between atoms: C_27  and  C_29
   13  A    between atoms: C_28  and  C_34
   14  A    between atoms: C_29  and  C_31
   15  A    between atoms: C_34  and  P_35
                            x       y       z     vdW  Elec       q    Type
                         _______ _______ _______ _____ _____    ______ ____

>  <TORSDO>
F 15

$$$$
=
 OpenBabel11042410293D

 35 36  0  0  1  0  0  0  0  0999 V2000
  183.3610  178.8080  143.2130 C   0  0  0  0  0  0  0  0  0  0  0  0
  184.6340  178.4430  143.9200 C   0  0  1  0  0  3  0  0  0  0  0  0
  182.4820  178.0340  141.0130 N   0  0  0  0  0  0  0  0  0  0  0  0
  185.5300  178.1130  142.6970 C   0  0  0  0  0  0  0  0  0  0  0  0
  186.9160  178.6020  142.5080 N   0  0  0  0  0  2  0  0  0  0  0  0
  183.6050  178.6590  141.7910 C   0  0  2  0  0  3  0  0  0  0  0  0
  184.8380  178.0150  141.5910 N   0  0  0  0  0  0  0  0  0  0  0  0
  182.1470  179.1550  143.6510 C   0  0  0  0  0  3  0  0  0  0  0  0
  182.7630  177.7680  139.6020 C   0  0  0  0  0  1  0  0  0  0  0  0
  180.9570  179.2560  142.6010 C   0  0  0  0  0  3  0  0  0  0  0  0
  181.2000  178.6850  141.3620 C   0  0  0  0  0  3  0  0  0  0  0  0
  185.3510  179.4040  144.8810 C   0  0  0  0  0  2  0  0  0  0  0  0
  184.0730  178.4580  146.5270 O   0  0  0  0  0  0  0  0  0  0  0  0
  186.2200  178.7710  147.2520 N   0  0  0  0  0  0  0  0  0  0  0  0
  185.1990  178.8840  146.2720 C   0  0  0  0  0  0  0  0  0  0  0  0
  188.6330  178.0870  148.8290 O   0  0  0  0  0  0  0  0  0  0  0  0
  188.4240  177.6240  147.6720 C   0  0  0  0  0  0  0  0  0  0  0  0
  187.1510  177.7530  147.0320 N   0  0  0  0  0  0  0  0  0  0  0  0
  189.5030  176.8250  147.0030 C   0  0  0  0  0  2  0  0  0  0  0  0
  189.5220  177.1210  145.5030 C   0  0  0  0  0  2  0  0  0  0  0  0
  191.6180  178.5430  144.4030 O   0  0  0  0  0  1  0  0  0  0  0  0
  192.0210  176.8960  146.2520 O   0  0  0  0  0  1  0  0  0  0  0  0
  191.3770  175.7960  143.7620 O   0  0  0  0  0  0  0  0  0  0  0  0
  191.2420  177.0040  144.9730 P   0  0  0  0  0  0  0  0  0  0  0  0
  187.7110  178.4940  141.2870 C   0  0  0  0  0  2  0  0  0  0  0  0
  188.8390  177.5530  141.4870 C   0  0  0  0  0  2  0  0  0  0  0  0
  189.5780  177.3950  140.1610 C   0  0  0  0  0  2  0  0  0  0  0  0
  188.6470  177.6660  138.9390 C   0  0  0  0  0  2  0  0  0  0  0  0
  189.3030  178.5230  137.8580 C   0  0  0  0  0  2  0  0  0  0  0  0
  188.9540  178.2080  136.4610 C   0  0  0  0  0  2  0  0  0  0  0  0
  188.5210  176.6920  134.6680 O   0  0  0  0  0  1  0  0  0  0  0  0
  188.9790  176.7610  135.9790 C   0  0  1  0  0  3  0  0  0  0  0  0
  190.4180  176.2230  135.9750 C   0  0  0  0  0  2  0  0  0  0  0  0
  190.5120  175.1380  136.9990 C   0  0  0  0  0  2  0  0  0  0  0  0
  191.8490  175.1100  137.7790 C   0  0  0  0  0  1  0  0  0  0  0  0
  1  8  2  0  0  0  0
  1  2  1  0  0  0  0
  2 12  1  6  0  0  0
  3 11  1  0  0  0  0
  3  6  1  0  0  0  0
  4  2  1  0  0  0  0
  5  4  1  0  0  0  0
  6  7  1  1  0  0  0
  6  1  1  0  0  0  0
  7  4  2  0  0  0  0
  9  3  1  0  0  0  0
 10  8  1  0  0  0  0
 11 10  2  0  0  0  0
 12 15  1  0  0  0  0
 15 13  2  0  0  0  0
 15 14  1  0  0  0  0
 17 16  2  0  0  0  0
 18 14  2  0  0  0  0
 18 17  1  0  0  0  0
 19 17  1  0  0  0  0
 20 19  1  0  0  0  0
 21 24  1  0  0  0  0
 23 24  2  0  0  0  0
 24 20  1  0  0  0  0
 24 22  1  0  0  0  0
 25 26  1  0  0  0  0
 25  5  1  0  0  0  0
 27 26  1  0  0  0  0
 28 27  1  0  0  0  0
 29 28  1  0  0  0  0
 30 29  1  0  0  0  0
 32 31  1  6  0  0  0
 32 30  1  0  0  0  0
 33 32  1  0  0  0  0
 33 34  1  0  0  0  0
 34 35  1  0  0  0  0
M  END
>  <MODEL>
4

>  <REMARK>
 VINA RESULT:      -7.1      2.879      8.281
  Name = 
  15 active torsions:
  status: ('A' for Active; 'I' for Inactive)
    1  A    between atoms: C_1  and  C_14
    2  A    between atoms: C_1  and  C_32
    3  A    between atoms: C_5  and  C_22
    4  A    between atoms: C_6  and  C_31
    5  A    between atoms: C_7  and  C_16
    6  A    between atoms: C_7  and  C_27
    7  A    between atoms: N_12  and  C_32
    8  A    between atoms: C_14  and  C_16
    9  A    between atoms: C_18  and  C_28
   10  A    between atoms: C_22  and  C_30
   11  A    between atoms: N_25  and  N_26
   12  A    between atoms: C_27  and  C_29
   13  A    between atoms: C_28  and  C_34
   14  A    between atoms: C_29  and  C_31
   15  A    between atoms: C_34  and  P_35
                            x       y       z     vdW  Elec       q    Type
                         _______ _______ _______ _____ _____    ______ ____

>  <TORSDO>
F 15

$$$$
=
 OpenBabel11042410293D

 35 36  0  0  1  0  0  0  0  0999 V2000
  188.4990  177.4990  145.1040 C   0  0  0  0  0  0  0  0  0  0  0  0
  188.4570  177.1460  143.6460 C   0  0  1  0  0  3  0  0  0  0  0  0
  186.6370  177.7120  146.7460 N   0  0  0  0  0  0  0  0  0  0  0  0
  187.0430  177.6750  143.2870 C   0  0  0  0  0  0  0  0  0  0  0  0
  186.7260  178.5030  142.1000 N   0  0  0  0  0  2  0  0  0  0  0  0
  187.2310  178.1230  145.4300 C   0  0  2  0  0  3  0  0  0  0  0  0
  186.3410  177.9680  144.3520 N   0  0  0  0  0  0  0  0  0  0  0  0
  189.4080  177.2930  146.0610 C   0  0  0  0  0  3  0  0  0  0  0  0
  185.3020  178.2410  147.0290 C   0  0  0  0  0  1  0  0  0  0  0  0
  189.0150  177.6100  147.5690 C   0  0  0  0  0  3  0  0  0  0  0  0
  187.6620  177.7900  147.8110 C   0  0  0  0  0  3  0  0  0  0  0  0
  189.5030  177.6550  142.6420 C   0  0  0  0  0  2  0  0  0  0  0  0
  190.0500  175.4340  142.6710 O   0  0  0  0  0  0  0  0  0  0  0  0
  190.8910  176.4460  140.8010 N   0  0  0  0  0  2  0  0  0  0  0  0
  190.1900  176.4780  142.0350 C   0  0  0  0  0  0  0  0  0  0  0  0
  191.0610  174.8110  138.3350 O   0  0  0  0  0  0  0  0  0  0  0  0
  190.3690  175.8660  138.4050 C   0  0  0  0  0  0  0  0  0  0  0  0
  190.0910  176.5000  139.6560 N   0  0  0  0  0  2  0  0  0  0  0  0
  189.7350  176.4030  137.1550 C   0  0  0  0  0  2  0  0  0  0  0  0
  189.5160  177.9100  137.2820 C   0  0  0  0  0  2  0  0  0  0  0  0
  187.3550  178.3570  138.9420 O   0  0  0  0  0  1  0  0  0  0  0  0
  187.5500  179.5540  136.7460 O   0  0  0  0  0  1  0  0  0  0  0  0
  186.9510  176.8260  136.5950 O   0  0  0  0  0  0  0  0  0  0  0  0
  187.7330  178.1750  137.3110 P   0  0  0  0  0  0  0  0  0  0  0  0
  185.4640  179.1930  141.8410 C   0  0  0  0  0  2  0  0  0  0  0  0
  184.3450  178.2210  141.7940 C   0  0  0  0  0  2  0  0  0  0  0  0
  183.3320  178.7010  140.7590 C   0  0  0  0  0  2  0  0  0  0  0  0
  184.0250  179.3600  139.5250 C   0  0  0  0  0  2  0  0  0  0  0  0
  183.9430  178.5080  138.2600 C   0  0  0  0  0  2  0  0  0  0  0  0
  182.6520  177.8540  137.9850 C   0  0  0  0  0  2  0  0  0  0  0  0
  183.7640  175.8080  137.4560 O   0  0  0  0  0  1  0  0  0  0  0  0
  182.5670  176.3310  137.9320 C   0  0  1  0  0  3  0  0  0  0  0  0
  182.3600  175.7570  139.3410 C   0  0  0  0  0  2  0  0  0  0  0  0
  180.9120  175.4310  139.5030 C   0  0  0  0  0  2  0  0  0  0  0  0
  180.1330  176.4120  140.4140 C   0  0  0  0  0  1  0  0  0  0  0  0
  1  6  1  0  0  0  0
  1  8  2  0  0  0  0
  2 12  1  6  0  0  0
  2  1  1  0  0  0  0
  3  9  1  0  0  0  0
  3 11  1  0  0  0  0
  4  2  1  0  0  0  0
  4  7  2  0  0  0  0
  5  4  1  0  0  0  0
  6  7  1  6  0  0  0
  6  3  1  0  0  0  0
  8 10  1  0  0  0  0
 10 11  2  0  0  0  0
 14 15  1  0  0  0  0
 15 12  1  0  0  0  0
 15 13  2  0  0  0  0
 16 17  2  0  0  0  0
 17 18  1  0  0  0  0
 18 14  1  0  0  0  0
 19 20  1  0  0  0  0
 19 17  1  0  0  0  0
 20 24  1  0  0  0  0
 22 24  1  0  0  0  0
 23 24  2  0  0  0  0
 24 21  1  0  0  0  0
 25  5  1  0  0  0  0
 26 25  1  0  0  0  0
 27 26  1  0  0  0  0
 28 27  1  0  0  0  0
 29 28  1  0  0  0  0
 30 29  1  0  0  0  0
 32 31  1  1  0  0  0
 32 30  1  0  0  0  0
 32 33  1  0  0  0  0
 33 34  1  0  0  0  0
 34 35  1  0  0  0  0
M  END
>  <MODEL>
5

>  <REMARK>
 VINA RESULT:      -7.0      1.804      2.544
  Name = 
  15 active torsions:
  status: ('A' for Active; 'I' for Inactive)
    1  A    between atoms: C_1  and  C_14
    2  A    between atoms: C_1  and  C_32
    3  A    between atoms: C_5  and  C_22
    4  A    between atoms: C_6  and  C_31
    5  A    between atoms: C_7  and  C_16
    6  A    between atoms: C_7  and  C_27
    7  A    between atoms: N_12  and  C_32
    8  A    between atoms: C_14  and  C_16
    9  A    between atoms: C_18  and  C_28
   10  A    between atoms: C_22  and  C_30
   11  A    between atoms: N_25  and  N_26
   12  A    between atoms: C_27  and  C_29
   13  A    between atoms: C_28  and  C_34
   14  A    between atoms: C_29  and  C_31
   15  A    between atoms: C_34  and  P_35
                            x       y       z     vdW  Elec       q    Type
                         _______ _______ _______ _____ _____    ______ ____

>  <TORSDO>
F 15

$$$$
=
 OpenBabel11042410293D

 35 36  0  0  1  0  0  0  0  0999 V2000
  188.5170  177.5370  145.2420 C   0  0  0  0  0  0  0  0  0  0  0  0
  188.5150  177.1580  143.7890 C   0  0  1  0  0  3  0  0  0  0  0  0
  186.6100  177.7840  146.8260 N   0  0  0  0  0  0  0  0  0  0  0  0
  187.1130  177.6830  143.3810 C   0  0  0  0  0  0  0  0  0  0  0  0
  186.8320  178.4910  142.1710 N   0  0  0  0  0  2  0  0  0  0  0  0
  187.2420  178.1700  145.5200 C   0  0  2  0  0  3  0  0  0  0  0  0
  186.3830  177.9970  144.4200 N   0  0  0  0  0  0  0  0  0  0  0  0
  189.3980  177.3460  146.2280 C   0  0  0  0  0  3  0  0  0  0  0  0
  185.2690  178.3220  147.0620 C   0  0  0  0  0  1  0  0  0  0  0  0
  188.9630  177.6910  147.7180 C   0  0  0  0  0  3  0  0  0  0  0  0
  187.6050  177.8790  147.9180 C   0  0  0  0  0  3  0  0  0  0  0  0
  189.5900  177.6460  142.8060 C   0  0  0  0  0  2  0  0  0  0  0  0
  189.9570  175.3900  142.6980 O   0  0  0  0  0  0  0  0  0  0  0  0
  190.9120  176.4480  140.9090 N   0  0  0  0  0  2  0  0  0  0  0  0
  190.1920  176.4580  142.1340 C   0  0  0  0  0  0  0  0  0  0  0  0
  191.0770  175.0440  138.3050 O   0  0  0  0  0  0  0  0  0  0  0  0
  190.4230  176.1150  138.4600 C   0  0  0  0  0  0  0  0  0  0  0  0
  190.1400  176.6390  139.7600 N   0  0  0  0  0  2  0  0  0  0  0  0
  189.8380  176.7890  137.2540 C   0  0  0  0  0  2  0  0  0  0  0  0
  188.3140  176.6750  137.2770 C   0  0  0  0  0  2  0  0  0  0  0  0
  186.5230  178.5400  138.2460 O   0  0  0  0  0  1  0  0  0  0  0  0
  188.7890  179.2450  137.4340 O   0  0  0  0  0  1  0  0  0  0  0  0
  186.9830  178.4450  135.4540 O   0  0  0  0  0  0  0  0  0  0  0  0
  187.6650  178.3380  137.0250 P   0  0  0  0  0  0  0  0  0  0  0  0
  185.5800  179.1790  141.8640 C   0  0  0  0  0  2  0  0  0  0  0  0
  184.4410  178.2320  141.9310 C   0  0  0  0  0  2  0  0  0  0  0  0
  183.4230  178.7700  142.9320 C   0  0  0  0  0  2  0  0  0  0  0  0
  181.9740  178.7640  142.3510 C   0  0  0  0  0  2  0  0  0  0  0  0
  181.9080  178.2980  140.8980 C   0  0  0  0  0  2  0  0  0  0  0  0
  181.3210  179.2390  139.9270 C   0  0  0  0  0  2  0  0  0  0  0  0
  183.2130  179.1630  138.4730 O   0  0  0  0  0  1  0  0  0  0  0  0
  182.2280  180.0080  138.9720 C   0  0  1  0  0  3  0  0  0  0  0  0
  181.4270  180.5160  137.7640 C   0  0  0  0  0  2  0  0  0  0  0  0
  180.6510  181.7190  138.1930 C   0  0  0  0  0  2  0  0  0  0  0  0
  181.1190  183.0460  137.5450 C   0  0  0  0  0  1  0  0  0  0  0  0
  1  6  1  0  0  0  0
  1  8  2  0  0  0  0
  2 12  1  6  0  0  0
  2  1  1  0  0  0  0
  3  9  1  0  0  0  0
  3 11  1  0  0  0  0
  4  2  1  0  0  0  0
  4  7  2  0  0  0  0
  5  4  1  0  0  0  0
  6  7  1  6  0  0  0
  6  3  1  0  0  0  0
  8 10  1  0  0  0  0
 10 11  2  0  0  0  0
 14 15  1  0  0  0  0
 15 13  2  0  0  0  0
 15 12  1  0  0  0  0
 16 17  2  0  0  0  0
 17 18  1  0  0  0  0
 18 14  1  0  0  0  0
 19 20  1  0  0  0  0
 19 17  1  0  0  0  0
 23 24  2  0  0  0  0
 24 20  1  0  0  0  0
 24 22  1  0  0  0  0
 24 21  1  0  0  0  0
 25 26  1  0  0  0  0
 25  5  1  0  0  0  0
 26 27  1  0  0  0  0
 28 27  1  0  0  0  0
 29 28  1  0  0  0  0
 30 29  1  0  0  0  0
 32 31  1  6  0  0  0
 32 30  1  0  0  0  0
 33 34  1  0  0  0  0
 33 32  1  0  0  0  0
 35 34  1  0  0  0  0
M  END
>  <MODEL>
6

>  <REMARK>
 VINA RESULT:      -7.0      1.541      2.550
  Name = 
  15 active torsions:
  status: ('A' for Active; 'I' for Inactive)
    1  A    between atoms: C_1  and  C_14
    2  A    between atoms: C_1  and  C_32
    3  A    between atoms: C_5  and  C_22
    4  A    between atoms: C_6  and  C_31
    5  A    between atoms: C_7  and  C_16
    6  A    between atoms: C_7  and  C_27
    7  A    between atoms: N_12  and  C_32
    8  A    between atoms: C_14  and  C_16
    9  A    between atoms: C_18  and  C_28
   10  A    between atoms: C_22  and  C_30
   11  A    between atoms: N_25  and  N_26
   12  A    between atoms: C_27  and  C_29
   13  A    between atoms: C_28  and  C_34
   14  A    between atoms: C_29  and  C_31
   15  A    between atoms: C_34  and  P_35
                            x       y       z     vdW  Elec       q    Type
                         _______ _______ _______ _____ _____    ______ ____

>  <TORSDO>
F 15

$$$$
=
 OpenBabel11042410293D

 35 36  0  0  1  0  0  0  0  0999 V2000
  188.7510  177.5630  145.5070 C   0  0  0  0  0  0  0  0  0  0  0  0
  188.9080  177.0930  144.0890 C   0  0  1  0  0  3  0  0  0  0  0  0
  186.6920  177.7910  146.8910 N   0  0  0  0  0  0  0  0  0  0  0  0
  187.5240  177.5040  143.5210 C   0  0  0  0  0  0  0  0  0  0  0  0
  187.3140  178.2150  142.2380 N   0  0  0  0  0  2  0  0  0  0  0  0
  187.4220  178.1320  145.6240 C   0  0  2  0  0  3  0  0  0  0  0  0
  186.6820  177.8370  144.4650 N   0  0  0  0  0  0  0  0  0  0  0  0
  189.5450  177.4890  146.5790 C   0  0  0  0  0  3  0  0  0  0  0  0
  185.3070  178.2580  146.9660 C   0  0  0  0  0  1  0  0  0  0  0  0
  188.9520  177.9000  147.9970 C   0  0  0  0  0  3  0  0  0  0  0  0
  187.5730  178.0150  148.0590 C   0  0  0  0  0  3  0  0  0  0  0  0
  190.0430  177.5840  143.1770 C   0  0  0  0  0  2  0  0  0  0  0  0
  190.1860  175.3720  142.6090 O   0  0  0  0  0  0  0  0  0  0  0  0
  190.7120  176.6980  140.8220 N   0  0  0  0  0  0  0  0  0  0  0  0
  190.3470  176.5140  142.1820 C   0  0  0  0  0  0  0  0  0  0  0  0
  190.7720  177.1300  137.8910 O   0  0  0  0  0  0  0  0  0  0  0  0
  189.8270  177.5460  138.6200 C   0  0  0  0  0  0  0  0  0  0  0  0
  189.6810  177.1160  139.9760 N   0  0  0  0  0  0  0  0  0  0  0  0
  188.7740  178.4260  138.0130 C   0  0  0  0  0  2  0  0  0  0  0  0
  187.3830  177.9240  138.4000 C   0  0  0  0  0  2  0  0  0  0  0  0
  187.5080  177.8350  135.6430 O   0  0  0  0  0  0  0  0  0  0  0  0
  187.2350  175.7300  136.9790 O   0  0  0  0  0  1  0  0  0  0  0  0
  185.0010  177.4110  136.8870 O   0  0  0  0  0  1  0  0  0  0  0  0
  186.6930  177.1300  136.9360 P   0  0  0  0  0  0  0  0  0  0  0  0
  186.0610  178.8030  141.7720 C   0  0  0  0  0  2  0  0  0  0  0  0
  185.2710  179.3120  142.9190 C   0  0  0  0  0  2  0  0  0  0  0  0
  183.9090  178.6240  142.9120 C   0  0  0  0  0  2  0  0  0  0  0  0
  182.9830  179.1500  144.0530 C   0  0  0  0  0  2  0  0  0  0  0  0
  181.4960  178.9810  143.7500 C   0  0  0  0  0  2  0  0  0  0  0  0
  181.1300  178.7440  142.3420 C   0  0  0  0  0  2  0  0  0  0  0  0
  180.0530  180.8750  142.3360 O   0  0  0  0  0  1  0  0  0  0  0  0
  180.1300  179.6670  141.6520 C   0  0  1  0  0  3  0  0  0  0  0  0
  180.5970  179.9930  140.2260 C   0  0  0  0  0  2  0  0  0  0  0  0
  181.7080  179.0580  139.8750 C   0  0  0  0  0  2  0  0  0  0  0  0
  182.9280  179.7380  139.2060 C   0  0  0  0  0  1  0  0  0  0  0  0
  1  6  1  0  0  0  0
  1  8  2  0  0  0  0
  2 12  1  6  0  0  0
  2  1  1  0  0  0  0
  3  9  1  0  0  0  0
  3 11  1  0  0  0  0
  4  2  1  0  0  0  0
  4  7  2  0  0  0  0
  5  4  1  0  0  0  0
  6  7  1  6  0  0  0
  6  3  1  0  0  0  0
  8 10  1  0  0  0  0
 10 11  2  0  0  0  0
 14 15  1  0  0  0  0
 15 13  2  0  0  0  0
 15 12  1  0  0  0  0
 16 17  2  0  0  0  0
 17 18  1  0  0  0  0
 18 14  2  0  0  0  0
 19 20  1  0  0  0  0
 19 17  1  0  0  0  0
 21 24  2  0  0  0  0
 23 24  1  0  0  0  0
 24 22  1  0  0  0  0
 24 20  1  0  0  0  0
 25  5  1  0  0  0  0
 25 26  1  0  0  0  0
 27 26  1  0  0  0  0
 27 28  1  0  0  0  0
 29 28  1  0  0  0  0
 30 29  1  0  0  0  0
 32 31  1  1  0  0  0
 32 30  1  0  0  0  0
 33 32  1  0  0  0  0
 34 33  1  0  0  0  0
 35 34  1  0  0  0  0
M  END
>  <MODEL>
7

>  <REMARK>
 VINA RESULT:      -6.8      1.285      2.107
  Name = 
  15 active torsions:
  status: ('A' for Active; 'I' for Inactive)
    1  A    between atoms: C_1  and  C_14
    2  A    between atoms: C_1  and  C_32
    3  A    between atoms: C_5  and  C_22
    4  A    between atoms: C_6  and  C_31
    5  A    between atoms: C_7  and  C_16
    6  A    between atoms: C_7  and  C_27
    7  A    between atoms: N_12  and  C_32
    8  A    between atoms: C_14  and  C_16
    9  A    between atoms: C_18  and  C_28
   10  A    between atoms: C_22  and  C_30
   11  A    between atoms: N_25  and  N_26
   12  A    between atoms: C_27  and  C_29
   13  A    between atoms: C_28  and  C_34
   14  A    between atoms: C_29  and  C_31
   15  A    between atoms: C_34  and  P_35
                            x       y       z     vdW  Elec       q    Type
                         _______ _______ _______ _____ _____    ______ ____

>  <TORSDO>
F 15

$$$$
=
 OpenBabel11042410293D

 35 36  0  0  1  0  0  0  0  0999 V2000
  189.4190  177.1280  145.0920 C   0  0  0  0  0  0  0  0  0  0  0  0
  188.4860  176.9360  143.9320 C   0  0  1  0  0  3  0  0  0  0  0  0
  188.9370  177.1680  147.5360 N   0  0  0  0  0  0  0  0  0  0  0  0
  187.1800  177.5040  144.5470 C   0  0  0  0  0  0  0  0  0  0  0  0
  186.2710  178.4580  143.8680 N   0  0  0  0  0  2  0  0  0  0  0  0
  188.6470  177.7180  146.1690 C   0  0  2  0  0  3  0  0  0  0  0  0
  187.2810  177.6830  145.8390 N   0  0  0  0  0  0  0  0  0  0  0  0
  190.7050  176.8170  145.2830 C   0  0  0  0  0  3  0  0  0  0  0  0
  188.0790  177.6680  148.6120 C   0  0  0  0  0  1  0  0  0  0  0  0
  191.3190  176.9700  146.7420 C   0  0  0  0  0  3  0  0  0  0  0  0
  190.3980  177.1270  147.7660 C   0  0  0  0  0  3  0  0  0  0  0  0
  188.7510  177.5470  142.5470 C   0  0  0  0  0  2  0  0  0  0  0  0
  189.9870  175.6280  142.3900 O   0  0  0  0  0  0  0  0  0  0  0  0
  190.4090  177.0060  140.6150 N   0  0  0  0  0  2  0  0  0  0  0  0
  189.7660  176.7090  141.8450 C   0  0  0  0  0  0  0  0  0  0  0  0
  190.7110  175.1730  138.3070 O   0  0  0  0  0  0  0  0  0  0  0  0
  189.9350  176.1700  138.2860 C   0  0  0  0  0  0  0  0  0  0  0  0
  189.6070  176.8900  139.4770 N   0  0  0  0  0  2  0  0  0  0  0  0
  189.2590  176.5370  136.9970 C   0  0  0  0  0  2  0  0  0  0  0  0
  187.7680  176.2100  137.0760 C   0  0  0  0  0  2  0  0  0  0  0  0
  185.2630  177.3710  137.0290 O   0  0  0  0  0  1  0  0  0  0  0  0
  187.2430  178.6350  137.9100 O   0  0  0  0  0  1  0  0  0  0  0  0
  187.1840  178.2460  135.1410 O   0  0  0  0  0  0  0  0  0  0  0  0
  186.8820  177.7470  136.7550 P   0  0  0  0  0  0  0  0  0  0  0  0
  185.1570  179.1750  144.4840 C   0  0  0  0  0  2  0  0  0  0  0  0
  183.9010  178.3990  144.3410 C   0  0  0  0  0  2  0  0  0  0  0  0
  182.7570  179.3760  144.0810 C   0  0  0  0  0  2  0  0  0  0  0  0
  181.4510  178.6420  143.6450 C   0  0  0  0  0  2  0  0  0  0  0  0
  180.4950  179.5300  142.8520 C   0  0  0  0  0  3  0  0  0  0  0  0
  180.4060  179.2790  141.4030 C   0  0  0  0  0  3  0  0  0  0  0  0
  180.4530  177.4910  139.8210 O   0  0  0  0  0  1  0  0  0  0  0  0
  181.2190  178.1490  140.7770 C   0  0  1  0  0  3  0  0  0  0  0  0
  182.4480  178.7130  140.0490 C   0  0  0  0  0  2  0  0  0  0  0  0
  183.6690  178.1090  140.6610 C   0  0  0  0  0  2  0  0  0  0  0  0
  184.9320  179.0020  140.5830 C   0  0  0  0  0  1  0  0  0  0  0  0
  1  8  2  0  0  0  0
  2 12  1  6  0  0  0
  2  4  1  0  0  0  0
  2  1  1  0  0  0  0
  3 11  1  0  0  0  0
  3  9  1  0  0  0  0
  4  7  2  0  0  0  0
  5 25  1  0  0  0  0
  5  4  1  0  0  0  0
  6  1  1  6  0  0  0
  6  3  1  0  0  0  0
  7  6  1  0  0  0  0
  8 10  1  0  0  0  0
 10 11  2  0  0  0  0
 14 15  1  0  0  0  0
 15 13  2  0  0  0  0
 15 12  1  0  0  0  0
 17 16  2  0  0  0  0
 17 18  1  0  0  0  0
 18 14  1  0  0  0  0
 19 20  1  0  0  0  0
 19 17  1  0  0  0  0
 23 24  2  0  0  0  0
 24 21  1  0  0  0  0
 24 20  1  0  0  0  0
 24 22  1  0  0  0  0
 26 25  1  0  0  0  0
 27 26  1  0  0  0  0
 28 27  1  0  0  0  0
 29 28  1  0  0  0  0
 30 29  2  0  0  0  0
 32 31  1  6  0  0  0
 32 30  1  0  0  0  0
 33 34  1  0  0  0  0
 33 32  1  0  0  0  0
 35 34  1  0  0  0  0
M  END
>  <MODEL>
8

>  <REMARK>
 VINA RESULT:      -6.8      1.188      2.423
  Name = 
  15 active torsions:
  status: ('A' for Active; 'I' for Inactive)
    1  A    between atoms: C_1  and  C_14
    2  A    between atoms: C_1  and  C_32
    3  A    between atoms: C_5  and  C_22
    4  A    between atoms: C_6  and  C_31
    5  A    between atoms: C_7  and  C_16
    6  A    between atoms: C_7  and  C_27
    7  A    between atoms: N_12  and  C_32
    8  A    between atoms: C_14  and  C_16
    9  A    between atoms: C_18  and  C_28
   10  A    between atoms: C_22  and  C_30
   11  A    between atoms: N_25  and  N_26
   12  A    between atoms: C_27  and  C_29
   13  A    between atoms: C_28  and  C_34
   14  A    between atoms: C_29  and  C_31
   15  A    between atoms: C_34  and  P_35
                            x       y       z     vdW  Elec       q    Type
                         _______ _______ _______ _____ _____    ______ ____

>  <TORSDO>
F 15

$$$$
=
 OpenBabel11042410293D

 35 36  0  0  1  0  0  0  0  0999 V2000
  189.5920  177.0620  137.5160 C   0  0  0  0  0  0  0  0  0  0  0  0
  190.5460  177.3200  138.6460 C   0  0  1  0  0  3  0  0  0  0  0  0
  187.3040  177.9690  137.1240 N   0  0  0  0  0  0  0  0  0  0  0  0
  189.5350  177.6370  139.7790 C   0  0  0  0  0  0  0  0  0  0  0  0
  189.5920  177.0680  141.1460 N   0  0  0  0  0  2  0  0  0  0  0  0
  188.2510  177.2470  138.0380 C   0  0  2  0  0  3  0  0  0  0  0  0
  188.3230  177.8190  139.3210 N   0  0  0  0  0  0  0  0  0  0  0  0
  189.7730  176.7770  136.2230 C   0  0  0  0  0  3  0  0  0  0  0  0
  185.9870  178.2680  137.6880 C   0  0  0  0  0  1  0  0  0  0  0  0
  188.5110  176.7890  135.2550 C   0  0  0  0  0  3  0  0  0  0  0  0
  187.3700  177.3880  135.7650 C   0  0  0  0  0  3  0  0  0  0  0  0
  191.5800  176.2820  139.1080 C   0  0  0  0  0  2  0  0  0  0  0  0
  193.5900  177.2520  139.6110 O   0  0  0  0  0  0  0  0  0  0  0  0
  193.5390  176.5930  137.4220 N   0  0  0  0  0  2  0  0  0  0  0  0
  192.9370  176.7490  138.6990 C   0  0  0  0  0  0  0  0  0  0  0  0
  195.4990  174.8730  138.8290 O   0  0  0  0  0  0  0  0  0  0  0  0
  195.0740  174.6110  137.6680 C   0  0  0  0  0  0  0  0  0  0  0  0
  193.9510  175.2960  137.1080 N   0  0  0  0  0  2  0  0  0  0  0  0
  195.6950  173.4770  136.9060 C   0  0  0  0  0  2  0  0  0  0  0  0
  196.2870  172.4540  137.8750 C   0  0  0  0  0  2  0  0  0  0  0  0
  195.2870  170.0260  138.7300 O   0  0  0  0  0  1  0  0  0  0  0  0
  194.4250  171.0970  136.6320 O   0  0  0  0  0  1  0  0  0  0  0  0
  197.0140  170.0520  136.4870 O   0  0  0  0  0  0  0  0  0  0  0  0
  195.7330  170.8310  137.3190 P   0  0  0  0  0  0  0  0  0  0  0  0
  188.5520  177.1700  142.1670 C   0  0  0  0  0  2  0  0  0  0  0  0
  189.0780  177.8530  143.3740 C   0  0  0  0  0  2  0  0  0  0  0  0
  188.7780  176.9830  144.5910 C   0  0  0  0  0  2  0  0  0  0  0  0
  189.0590  177.7340  145.9290 C   0  0  0  0  0  2  0  0  0  0  0  0
  187.8300  177.8470  146.8290 C   0  0  0  0  0  2  0  0  0  0  0  0
  186.5300  177.5130  146.2190 C   0  0  0  0  0  2  0  0  0  0  0  0
  185.6690  179.4410  147.3320 O   0  0  0  0  0  1  0  0  0  0  0  0
  185.3240  178.4150  146.4590 C   0  0  1  0  0  3  0  0  0  0  0  0
  184.8820  179.0800  145.1470 C   0  0  0  0  0  2  0  0  0  0  0  0
  185.3630  178.2350  144.0120 C   0  0  0  0  0  2  0  0  0  0  0  0
  184.5620  178.4140  142.6990 C   0  0  0  0  0  1  0  0  0  0  0  0
  1  2  1  0  0  0  0
  2 12  1  1  0  0  0
  2  4  1  0  0  0  0
  3  9  1  0  0  0  0
  3  6  1  0  0  0  0
  4  5  1  0  0  0  0
  5 25  1  0  0  0  0
  6  1  1  6  0  0  0
  6  7  1  0  0  0  0
  7  4  2  0  0  0  0
  8  1  2  0  0  0  0
 10 11  2  0  0  0  0
 10  8  1  0  0  0  0
 11  3  1  0  0  0  0
 14 15  1  0  0  0  0
 15 12  1  0  0  0  0
 15 13  2  0  0  0  0
 17 16  2  0  0  0  0
 18 14  1  0  0  0  0
 18 17  1  0  0  0  0
 19 17  1  0  0  0  0
 19 20  1  0  0  0  0
 22 24  1  0  0  0  0
 23 24  2  0  0  0  0
 24 20  1  0  0  0  0
 24 21  1  0  0  0  0
 25 26  1  0  0  0  0
 26 27  1  0  0  0  0
 27 28  1  0  0  0  0
 28 29  1  0  0  0  0
 30 32  1  0  0  0  0
 30 29  1  0  0  0  0
 32 31  1  1  0  0  0
 33 32  1  0  0  0  0
 34 33  1  0  0  0  0
 35 34  1  0  0  0  0
M  END
>  <MODEL>
9

>  <REMARK>
 VINA RESULT:      -6.7      4.153      7.694
  Name = 
  15 active torsions:
  status: ('A' for Active; 'I' for Inactive)
    1  A    between atoms: C_1  and  C_14
    2  A    between atoms: C_1  and  C_32
    3  A    between atoms: C_5  and  C_22
    4  A    between atoms: C_6  and  C_31
    5  A    between atoms: C_7  and  C_16
    6  A    between atoms: C_7  and  C_27
    7  A    between atoms: N_12  and  C_32
    8  A    between atoms: C_14  and  C_16
    9  A    between atoms: C_18  and  C_28
   10  A    between atoms: C_22  and  C_30
   11  A    between atoms: N_25  and  N_26
   12  A    between atoms: C_27  and  C_29
   13  A    between atoms: C_28  and  C_34
   14  A    between atoms: C_29  and  C_31
   15  A    between atoms: C_34  and  P_35
                            x       y       z     vdW  Elec       q    Type
                         _______ _______ _______ _____ _____    ______ ____

>  <TORSDO>
F 15

$$$$
