=
 OpenBabel11042411563D

 37 39  0  0  1  0  0  0  0  0999 V2000
  182.5020  178.7390  140.8990 C   0  0  0  0  0  0  0  0  0  0  0  0
  185.2620  178.6530  141.3990 C   0  0  0  0  0  3  0  0  0  0  0  0
  184.7970  178.8990  140.0980 C   0  0  0  0  0  0  0  0  0  0  0  0
  182.9850  178.4910  142.1950 C   0  0  0  0  0  3  0  0  0  0  0  0
  183.4220  178.9420  139.8580 C   0  0  0  0  0  3  0  0  0  0  0  0
  184.3580  178.4480  142.4500 C   0  0  0  0  0  0  0  0  0  0  0  0
  181.0130  178.7900  140.6360 C   0  0  2  0  0  0  0  0  0  0  0  0
  179.4480  177.4150  141.6850 N   0  0  0  0  0  0  0  0  0  0  0  0
  180.2980  179.6360  141.6850 C   0  0  0  0  0  3  0  0  0  0  0  0
  179.2670  178.7050  142.3230 C   0  0  0  0  0  3  0  0  0  0  0  0
  180.3760  177.4600  140.7910 C   0  0  0  0  0  0  0  0  0  0  0  0
  180.7310  179.2970  139.3630 O   0  0  0  0  0  1  0  0  0  0  0  0
  180.7450  176.3240  140.0010 N   0  0  0  0  0  0  0  0  0  0  0  0
  180.1680  175.1950  140.1150 C   0  0  0  0  0  0  0  0  0  0  0  0
  179.6050  174.0980  140.2230 O   0  0  0  0  0  0  0  0  0  0  0  0
  185.6770  179.1090  139.0310 O   0  0  0  0  0  0  0  0  0  0  0  0
  185.8400  178.1820  137.9630 C   0  0  0  0  0  2  0  0  0  0  0  0
  187.9520  177.6970  138.3830 C   0  0  0  0  0  1  0  0  0  0  0  0
  187.1260  178.2950  137.4320 O   0  0  0  0  0  0  0  0  0  0  0  0
  184.8150  178.1930  143.7800 N   0  0  0  0  0  2  0  0  0  0  0  0
  183.4100  179.3120  145.2560 F   0  0  0  0  0  0  0  0  0  0  0  0
  184.7280  179.1710  144.8550 C   0  0  1  0  0  3  0  0  0  0  0  0
  185.3070  179.1560  147.1690 O   0  0  0  0  0  0  0  0  0  0  0  0
  186.6350  177.8160  145.7880 N   0  0  0  0  0  2  0  0  0  0  0  0
  185.5600  178.7310  146.0090 C   0  0  0  0  0  0  0  0  0  0  0  0
  187.5480  177.4060  146.8450 C   0  0  0  0  0  2  0  0  0  0  0  0
  190.9420  176.7950  145.9620 C   0  0  0  0  0  2  0  0  0  0  0  0
  188.9250  178.0110  146.6220 C   0  0  2  0  0  3  0  0  0  0  0  0
  189.6040  177.3020  145.4600 C   0  0  1  0  0  3  0  0  0  0  0  0
  190.7920  176.7000  147.4620 C   0  0  0  0  0  2  0  0  0  0  0  0
  189.8170  177.7950  147.8350 C   0  0  0  0  0  2  0  0  0  0  0  0
  189.7800  178.2320  144.2640 C   0  0  0  0  0  2  0  0  0  0  0  0
  190.7690  177.7510  143.3970 O   0  0  0  0  0  0  0  0  0  0  0  0
  190.1640  175.2800  142.7310 O   0  0  0  0  0  1  0  0  0  0  0  0
  188.3060  177.0760  142.3010 O   0  0  0  0  0  1  0  0  0  0  0  0
  189.9610  176.7210  142.3190 P   0  0  0  0  0  0  0  0  0  0  0  0
  190.5900  176.9470  140.7670 O   0  0  0  0  0  0  0  0  0  0  0  0
  1  4  1  0  0  0  0
  2  6  1  0  0  0  0
  3  2  2  0  0  0  0
  4  6  2  0  0  0  0
  5  3  1  0  0  0  0
  5  1  2  0  0  0  0
  6 20  1  0  0  0  0
  7 12  1  6  0  0  0
  7 11  1  0  0  0  0
  7  1  1  0  0  0  0
  7  9  1  0  0  0  0
  8 10  1  0  0  0  0
  9 10  2  0  0  0  0
 11  8  2  0  0  0  0
 13 14  2  0  0  0  0
 13 11  1  0  0  0  0
 14 15  2  0  0  0  0
 16  3  1  0  0  0  0
 17 16  1  0  0  0  0
 19 17  1  0  0  0  0
 19 18  1  0  0  0  0
 20 22  1  0  0  0  0
 22 21  1  1  0  0  0
 22 25  1  0  0  0  0
 24 25  1  0  0  0  0
 24 26  1  0  0  0  0
 25 23  2  0  0  0  0
 27 30  1  0  0  0  0
 28 26  1  1  0  0  0
 28 31  1  0  0  0  0
 29 32  1  6  0  0  0
 29 27  1  0  0  0  0
 29 28  1  0  0  0  0
 30 31  1  0  0  0  0
 33 32  1  0  0  0  0
 35 36  1  0  0  0  0
 36 34  1  0  0  0  0
 36 33  1  0  0  0  0
 37 36  2  0  0  0  0
M  END
>  <MODEL>
1

>  <REMARK>
 VINA RESULT:      -8.2      0.000      0.000
  Name = 
  13 active torsions:
  status: ('A' for Active; 'I' for Inactive)
    1  A    between atoms: C_2  and  C_4
    2  A    between atoms: O_8  and  C_25
    3  A    between atoms: O_8  and  P_30
    4  A    between atoms: C_9  and  C_28
    5  A    between atoms: N_11  and  C_28
    6  A    between atoms: O_13  and  C_15
    7  A    between atoms: O_13  and  C_36
    8  A    between atoms: C_16  and  C_25
    9  A    between atoms: N_20  and  C_23
   10  A    between atoms: N_20  and  C_37
   11  A    between atoms: C_21  and  N_27
   12  A    between atoms: C_23  and  C_32
   13  A    between atoms: O_24  and  C_36
                            x       y       z     vdW  Elec       q    Type
                         _______ _______ _______ _____ _____    ______ ____

>  <TORSDO>
F 13

$$$$
=
 OpenBabel11042411563D

 37 39  0  0  1  0  0  0  0  0999 V2000
  182.4340  178.7450  140.4810 C   0  0  0  0  0  0  0  0  0  0  0  0
  185.1770  178.6340  141.0650 C   0  0  0  0  0  3  0  0  0  0  0  0
  184.7540  178.8610  139.7460 C   0  0  0  0  0  0  0  0  0  0  0  0
  182.8760  178.5170  141.7960 C   0  0  0  0  0  3  0  0  0  0  0  0
  183.3870  178.9160  139.4640 C   0  0  0  0  0  3  0  0  0  0  0  0
  184.2400  178.4620  142.0920 C   0  0  0  0  0  0  0  0  0  0  0  0
  180.9550  178.8110  140.1720 C   0  0  2  0  0  0  0  0  0  0  0  0
  180.0750  179.3510  138.0800 N   0  0  0  0  0  0  0  0  0  0  0  0
  180.4680  177.5120  139.5370 C   0  0  0  0  0  3  0  0  0  0  0  0
  179.8760  177.9180  138.1870 C   0  0  0  0  0  3  0  0  0  0  0  0
  180.6500  179.8240  139.1330 C   0  0  0  0  0  0  0  0  0  0  0  0
  180.1990  179.0760  141.3190 O   0  0  0  0  0  1  0  0  0  0  0  0
  180.9490  181.2160  139.2920 N   0  0  0  0  0  0  0  0  0  0  0  0
  181.0320  182.0150  138.3050 C   0  0  0  0  0  0  0  0  0  0  0  0
  181.1100  182.7930  137.3450 O   0  0  0  0  0  0  0  0  0  0  0  0
  185.6680  179.0380  138.7020 O   0  0  0  0  0  0  0  0  0  0  0  0
  186.8190  178.2190  138.5280 C   0  0  0  0  0  2  0  0  0  0  0  0
  187.7130  176.4750  137.5120 C   0  0  0  0  0  1  0  0  0  0  0  0
  186.6060  177.3220  137.4790 O   0  0  0  0  0  0  0  0  0  0  0  0
  184.6540  178.2280  143.4410 N   0  0  0  0  0  2  0  0  0  0  0  0
  183.3900  179.5700  144.8560 F   0  0  0  0  0  0  0  0  0  0  0  0
  184.6810  179.2670  144.4590 C   0  0  1  0  0  3  0  0  0  0  0  0
  185.2940  179.3350  146.7640 O   0  0  0  0  0  0  0  0  0  0  0  0
  186.4220  177.7510  145.4660 N   0  0  0  0  0  2  0  0  0  0  0  0
  185.4730  178.8050  145.6330 C   0  0  0  0  0  0  0  0  0  0  0  0
  187.2960  177.3020  146.5400 C   0  0  0  0  0  2  0  0  0  0  0  0
  190.7660  176.8420  145.8930 C   0  0  0  0  0  2  0  0  0  0  0  0
  188.6610  177.9650  146.4260 C   0  0  2  0  0  3  0  0  0  0  0  0
  189.4480  177.3060  145.3040 C   0  0  1  0  0  3  0  0  0  0  0  0
  190.5140  176.7110  147.3760 C   0  0  0  0  0  2  0  0  0  0  0  0
  189.4720  177.7600  147.6970 C   0  0  0  0  0  2  0  0  0  0  0  0
  189.6710  178.2660  144.1400 C   0  0  0  0  0  2  0  0  0  0  0  0
  190.9230  178.0560  143.5510 O   0  0  0  0  0  0  0  0  0  0  0  0
  189.3590  177.8960  141.4430 O   0  0  0  0  0  1  0  0  0  0  0  0
  191.9130  177.5040  141.0140 O   0  0  0  0  0  0  0  0  0  0  0  0
  190.6030  177.3020  142.0660 P   0  0  0  0  0  0  0  0  0  0  0  0
  190.3570  175.6510  142.3300 O   0  0  0  0  0  1  0  0  0  0  0  0
  1  4  1  0  0  0  0
  2  6  1  0  0  0  0
  3  2  2  0  0  0  0
  4  6  2  0  0  0  0
  5  3  1  0  0  0  0
  5  1  2  0  0  0  0
  6 20  1  0  0  0  0
  7  1  1  0  0  0  0
  7 12  1  1  0  0  0
  8 10  1  0  0  0  0
  8 11  2  0  0  0  0
  9  7  1  0  0  0  0
 10  9  2  0  0  0  0
 11 13  1  0  0  0  0
 11  7  1  0  0  0  0
 14 13  2  0  0  0  0
 15 14  2  0  0  0  0
 16  3  1  0  0  0  0
 17 16  1  0  0  0  0
 19 18  1  0  0  0  0
 19 17  1  0  0  0  0
 20 22  1  0  0  0  0
 22 21  1  1  0  0  0
 22 25  1  0  0  0  0
 24 25  1  0  0  0  0
 24 26  1  0  0  0  0
 25 23  2  0  0  0  0
 27 30  1  0  0  0  0
 28 26  1  1  0  0  0
 28 31  1  0  0  0  0
 29 32  1  6  0  0  0
 29 27  1  0  0  0  0
 29 28  1  0  0  0  0
 30 31  1  0  0  0  0
 33 32  1  0  0  0  0
 34 36  1  0  0  0  0
 35 36  2  0  0  0  0
 36 37  1  0  0  0  0
 36 33  1  0  0  0  0
M  END
>  <MODEL>
2

>  <REMARK>
 VINA RESULT:      -7.6      1.628      2.625
  Name = 
  13 active torsions:
  status: ('A' for Active; 'I' for Inactive)
    1  A    between atoms: C_2  and  C_4
    2  A    between atoms: O_8  and  C_25
    3  A    between atoms: O_8  and  P_30
    4  A    between atoms: C_9  and  C_28
    5  A    between atoms: N_11  and  C_28
    6  A    between atoms: O_13  and  C_15
    7  A    between atoms: O_13  and  C_36
    8  A    between atoms: C_16  and  C_25
    9  A    between atoms: N_20  and  C_23
   10  A    between atoms: N_20  and  C_37
   11  A    between atoms: C_21  and  N_27
   12  A    between atoms: C_23  and  C_32
   13  A    between atoms: O_24  and  C_36
                            x       y       z     vdW  Elec       q    Type
                         _______ _______ _______ _____ _____    ______ ____

>  <TORSDO>
F 13

$$$$
=
 OpenBabel11042411563D

 37 39  0  0  1  0  0  0  0  0999 V2000
  187.7210  177.3260  144.1830 C   0  0  0  0  0  0  0  0  0  0  0  0
  185.5750  178.3890  145.6460 C   0  0  0  0  0  3  0  0  0  0  0  0
  186.8030  178.1520  146.2830 C   0  0  0  0  0  0  0  0  0  0  0  0
  186.4830  177.5680  143.5620 C   0  0  0  0  0  3  0  0  0  0  0  0
  187.8660  177.6240  145.5470 C   0  0  0  0  0  3  0  0  0  0  0  0
  185.4120  178.0980  144.2850 C   0  0  0  0  0  0  0  0  0  0  0  0
  188.8770  176.7590  143.3890 C   0  0  2  0  0  0  0  0  0  0  0  0
  190.4400  178.0570  142.2400 N   0  0  0  0  0  0  0  0  0  0  0  0
  190.1610  176.7560  144.2120 C   0  0  0  0  0  3  0  0  0  0  0  0
  191.1600  177.5900  143.4100 C   0  0  0  0  0  3  0  0  0  0  0  0
  189.2270  177.6180  142.2300 C   0  0  0  0  0  0  0  0  0  0  0  0
  188.6090  175.4600  142.9440 O   0  0  0  0  0  1  0  0  0  0  0  0
  188.3040  177.9170  141.1770 N   0  0  0  0  0  0  0  0  0  0  0  0
  188.6680  178.4480  140.0790 C   0  0  0  0  0  0  0  0  0  0  0  0
  189.0220  178.9630  139.0100 O   0  0  0  0  0  0  0  0  0  0  0  0
  186.9930  178.4350  147.6390 O   0  0  0  0  0  0  0  0  0  0  0  0
  187.9310  177.7430  148.4550 C   0  0  0  0  0  2  0  0  0  0  0  0
  190.0970  177.6060  148.0560 C   0  0  0  0  0  1  0  0  0  0  0  0
  189.1170  178.4740  148.5370 O   0  0  0  0  0  0  0  0  0  0  0  0
  184.1670  178.3310  143.6210 N   0  0  0  0  0  2  0  0  0  0  0  0
  183.7290  180.5610  144.1060 F   0  0  0  0  0  0  0  0  0  0  0  0
  183.1790  179.2910  144.0920 C   0  0  1  0  0  3  0  0  0  0  0  0
  181.0040  180.0210  143.4410 O   0  0  0  0  0  0  0  0  0  0  0  0
  181.9770  178.4000  142.0660 N   0  0  0  0  0  2  0  0  0  0  0  0
  181.9870  179.2690  143.1990 C   0  0  0  0  0  0  0  0  0  0  0  0
  180.8180  178.2550  141.1970 C   0  0  0  0  0  2  0  0  0  0  0  0
  180.5380  177.3510  137.7650 C   0  0  0  0  0  2  0  0  0  0  0  0
  181.0740  177.1860  140.1450 C   0  0  2  0  0  3  0  0  0  0  0  0
  181.4830  177.8510  138.8390 C   0  0  1  0  0  3  0  0  0  0  0  0
  179.3040  176.8890  138.5050 C   0  0  0  0  0  2  0  0  0  0  0  0
  179.8040  176.4020  139.8470 C   0  0  0  0  0  2  0  0  0  0  0  0
  182.9340  177.5430  138.4860 C   0  0  0  0  0  2  0  0  0  0  0  0
  183.7600  177.6680  139.6080 O   0  0  0  0  0  0  0  0  0  0  0  0
  183.6340  180.2160  138.9710 O   0  0  0  0  0  1  0  0  0  0  0  0
  185.3630  179.5790  140.8330 O   0  0  0  0  0  1  0  0  0  0  0  0
  184.5950  179.1280  139.3930 P   0  0  0  0  0  0  0  0  0  0  0  0
  185.7620  178.9210  138.1880 O   0  0  0  0  0  0  0  0  0  0  0  0
  1  5  1  0  0  0  0
  2  3  1  0  0  0  0
  3 16  1  0  0  0  0
  4  1  2  0  0  0  0
  4  6  1  0  0  0  0
  5  3  2  0  0  0  0
  6  2  2  0  0  0  0
  7 12  1  6  0  0  0
  7  1  1  0  0  0  0
  7  9  1  0  0  0  0
  8 10  1  0  0  0  0
 10  9  2  0  0  0  0
 11  8  2  0  0  0  0
 11  7  1  0  0  0  0
 13 11  1  0  0  0  0
 14 13  2  0  0  0  0
 15 14  2  0  0  0  0
 16 17  1  0  0  0  0
 17 19  1  0  0  0  0
 18 19  1  0  0  0  0
 20 22  1  0  0  0  0
 20  6  1  0  0  0  0
 22 21  1  6  0  0  0
 24 25  1  0  0  0  0
 25 23  2  0  0  0  0
 25 22  1  0  0  0  0
 26 24  1  0  0  0  0
 27 30  1  0  0  0  0
 27 29  1  0  0  0  0
 28 26  1  1  0  0  0
 29 32  1  6  0  0  0
 29 28  1  0  0  0  0
 30 31  1  0  0  0  0
 31 28  1  0  0  0  0
 32 33  1  0  0  0  0
 34 36  1  0  0  0  0
 36 33  1  0  0  0  0
 36 35  1  0  0  0  0
 37 36  2  0  0  0  0
M  END
>  <MODEL>
3

>  <REMARK>
 VINA RESULT:      -7.4      2.511      8.592
  Name = 
  13 active torsions:
  status: ('A' for Active; 'I' for Inactive)
    1  A    between atoms: C_2  and  C_4
    2  A    between atoms: O_8  and  C_25
    3  A    between atoms: O_8  and  P_30
    4  A    between atoms: C_9  and  C_28
    5  A    between atoms: N_11  and  C_28
    6  A    between atoms: O_13  and  C_15
    7  A    between atoms: O_13  and  C_36
    8  A    between atoms: C_16  and  C_25
    9  A    between atoms: N_20  and  C_23
   10  A    between atoms: N_20  and  C_37
   11  A    between atoms: C_21  and  N_27
   12  A    between atoms: C_23  and  C_32
   13  A    between atoms: O_24  and  C_36
                            x       y       z     vdW  Elec       q    Type
                         _______ _______ _______ _____ _____    ______ ____

>  <TORSDO>
F 13

$$$$
=
 OpenBabel11042411563D

 37 39  0  0  1  0  0  0  0  0999 V2000
  182.6090  177.6110  139.2470 C   0  0  0  0  0  0  0  0  0  0  0  0
  184.6760  178.7600  140.7570 C   0  0  0  0  0  3  0  0  0  0  0  0
  184.8330  178.5970  139.3720 C   0  0  0  0  0  0  0  0  0  0  0  0
  182.4700  177.7800  140.6360 C   0  0  0  0  0  3  0  0  0  0  0  0
  183.7980  178.0250  138.6280 C   0  0  0  0  0  3  0  0  0  0  0  0
  183.4960  178.3520  141.3920 C   0  0  0  0  0  0  0  0  0  0  0  0
  181.4890  176.9970  138.4370 C   0  0  2  0  0  0  0  0  0  0  0  0
  180.9430  174.7280  138.4620 N   0  0  0  0  0  0  0  0  0  0  0  0
  180.2230  176.8450  139.2740 C   0  0  0  0  0  3  0  0  0  0  0  0
  179.8890  175.3540  139.2380 C   0  0  0  0  0  3  0  0  0  0  0  0
  181.7930  175.6000  138.0390 C   0  0  0  0  0  0  0  0  0  0  0  0
  181.2000  177.7550  137.2970 O   0  0  0  0  0  1  0  0  0  0  0  0
  182.9250  175.2510  137.2340 N   0  0  0  0  0  0  0  0  0  0  0  0
  183.7680  174.3660  137.5890 C   0  0  0  0  0  0  0  0  0  0  0  0
  184.5880  173.5040  137.9320 O   0  0  0  0  0  0  0  0  0  0  0  0
  186.0000  178.9960  138.7130 O   0  0  0  0  0  0  0  0  0  0  0  0
  186.7410  178.1380  137.8530 C   0  0  0  0  0  2  0  0  0  0  0  0
  188.8430  178.7580  137.5940 C   0  0  0  0  0  1  0  0  0  0  0  0
  187.5750  178.8980  137.0310 O   0  0  0  0  0  0  0  0  0  0  0  0
  183.3210  178.5090  142.8020 N   0  0  0  0  0  2  0  0  0  0  0  0
  183.3550  180.4350  144.1020 F   0  0  0  0  0  0  0  0  0  0  0  0
  184.1360  179.4020  143.6130 C   0  0  1  0  0  3  0  0  0  0  0  0
  184.2060  178.6890  145.8890 O   0  0  0  0  0  0  0  0  0  0  0  0
  185.9170  177.8700  144.5220 N   0  0  0  0  0  2  0  0  0  0  0  0
  184.7400  178.6480  144.7470 C   0  0  0  0  0  0  0  0  0  0  0  0
  186.6170  177.1760  145.5930 C   0  0  0  0  0  2  0  0  0  0  0  0
  189.3780  177.4120  147.8280 C   0  0  0  0  0  2  0  0  0  0  0  0
  187.6630  178.0850  146.2200 C   0  0  2  0  0  3  0  0  0  0  0  0
  188.9690  177.3200  146.3710 C   0  0  1  0  0  3  0  0  0  0  0  0
  188.1010  177.7030  148.5800 C   0  0  0  0  0  2  0  0  0  0  0  0
  187.2480  178.5050  147.6220 C   0  0  0  0  0  2  0  0  0  0  0  0
  190.0540  177.8820  145.4570 C   0  0  0  0  0  2  0  0  0  0  0  0
  190.8680  176.8580  144.9590 O   0  0  0  0  0  0  0  0  0  0  0  0
  191.8530  177.3570  142.5720 O   0  0  0  0  0  0  0  0  0  0  0  0
  190.2510  175.2920  142.7470 O   0  0  0  0  0  1  0  0  0  0  0  0
  190.6150  176.8570  143.2820 P   0  0  0  0  0  0  0  0  0  0  0  0
  189.3180  177.8790  142.9210 O   0  0  0  0  0  1  0  0  0  0  0  0
  1  4  1  0  0  0  0
  2  6  1  0  0  0  0
  3  2  2  0  0  0  0
  4  6  2  0  0  0  0
  5  1  2  0  0  0  0
  5  3  1  0  0  0  0
  6 20  1  0  0  0  0
  7 12  1  6  0  0  0
  7  1  1  0  0  0  0
  7  9  1  0  0  0  0
  8 10  1  0  0  0  0
 10  9  2  0  0  0  0
 11  7  1  0  0  0  0
 11  8  2  0  0  0  0
 13 14  2  0  0  0  0
 13 11  1  0  0  0  0
 14 15  2  0  0  0  0
 16  3  1  0  0  0  0
 17 16  1  0  0  0  0
 19 18  1  0  0  0  0
 19 17  1  0  0  0  0
 20 22  1  0  0  0  0
 22 21  1  1  0  0  0
 22 25  1  0  0  0  0
 24 25  1  0  0  0  0
 24 26  1  0  0  0  0
 25 23  2  0  0  0  0
 27 30  1  0  0  0  0
 28 26  1  1  0  0  0
 28 29  1  0  0  0  0
 28 31  1  0  0  0  0
 29 32  1  6  0  0  0
 29 27  1  0  0  0  0
 31 30  1  0  0  0  0
 33 32  1  0  0  0  0
 34 36  2  0  0  0  0
 35 36  1  0  0  0  0
 36 33  1  0  0  0  0
 37 36  1  0  0  0  0
M  END
>  <MODEL>
4

>  <REMARK>
 VINA RESULT:      -7.3      1.918      2.523
  Name = 
  13 active torsions:
  status: ('A' for Active; 'I' for Inactive)
    1  A    between atoms: C_2  and  C_4
    2  A    between atoms: O_8  and  C_25
    3  A    between atoms: O_8  and  P_30
    4  A    between atoms: C_9  and  C_28
    5  A    between atoms: N_11  and  C_28
    6  A    between atoms: O_13  and  C_15
    7  A    between atoms: O_13  and  C_36
    8  A    between atoms: C_16  and  C_25
    9  A    between atoms: N_20  and  C_23
   10  A    between atoms: N_20  and  C_37
   11  A    between atoms: C_21  and  N_27
   12  A    between atoms: C_23  and  C_32
   13  A    between atoms: O_24  and  C_36
                            x       y       z     vdW  Elec       q    Type
                         _______ _______ _______ _____ _____    ______ ____

>  <TORSDO>
F 13

$$$$
=
 OpenBabel11042411563D

 37 39  0  0  1  0  0  0  0  0999 V2000
  189.1170  176.8280  137.9360 C   0  0  0  0  0  0  0  0  0  0  0  0
  187.8780  178.2940  139.9830 C   0  0  0  0  0  3  0  0  0  0  0  0
  187.2340  178.1460  138.7450 C   0  0  0  0  0  0  0  0  0  0  0  0
  189.7480  176.9880  139.1810 C   0  0  0  0  0  3  0  0  0  0  0  0
  187.8570  177.4140  137.7320 C   0  0  0  0  0  3  0  0  0  0  0  0
  189.1350  177.7160  140.2040 C   0  0  0  0  0  0  0  0  0  0  0  0
  189.7850  176.0320  136.8370 C   0  0  2  0  0  0  0  0  0  0  0  0
  191.4100  174.3980  137.2060 N   0  0  0  0  0  0  0  0  0  0  0  0
  189.1130  174.6750  136.6540 C   0  0  0  0  0  3  0  0  0  0  0  0
  190.2170  173.6410  136.8750 C   0  0  0  0  0  3  0  0  0  0  0  0
  191.1800  175.6660  137.1880 C   0  0  0  0  0  0  0  0  0  0  0  0
  189.7750  176.7210  135.6200 O   0  0  0  0  0  1  0  0  0  0  0  0
  192.1930  176.6410  137.4630 N   0  0  0  0  0  0  0  0  0  0  0  0
  193.2000  176.3900  138.2000 C   0  0  0  0  0  0  0  0  0  0  0  0
  194.1810  176.1470  138.9150 O   0  0  0  0  0  0  0  0  0  0  0  0
  185.9790  178.7110  138.4980 O   0  0  0  0  0  0  0  0  0  0  0  0
  184.8090  177.9360  138.2600 C   0  0  0  0  0  2  0  0  0  0  0  0
  183.8880  179.5270  139.4820 C   0  0  0  0  0  1  0  0  0  0  0  0
  183.6780  178.7500  138.3430 O   0  0  0  0  0  0  0  0  0  0  0  0
  189.8050  177.8590  141.4590 N   0  0  0  0  0  2  0  0  0  0  0  0
  192.0810  177.3860  141.4180 F   0  0  0  0  0  0  0  0  0  0  0  0
  190.8580  176.9600  141.9090 C   0  0  1  0  0  3  0  0  0  0  0  0
  191.5490  176.0280  143.9930 O   0  0  0  0  0  0  0  0  0  0  0  0
  190.2000  177.9330  144.1360 N   0  0  0  0  0  2  0  0  0  0  0  0
  190.8960  176.9280  143.3970 C   0  0  0  0  0  0  0  0  0  0  0  0
  190.1150  177.9220  145.5900 C   0  0  0  0  0  2  0  0  0  0  0  0
  187.0630  178.1210  147.4110 C   0  0  0  0  0  2  0  0  0  0  0  0
  188.8620  177.1880  146.0430 C   0  0  2  0  0  3  0  0  0  0  0  0
  187.6820  178.1490  146.0280 C   0  0  1  0  0  3  0  0  0  0  0  0
  188.1590  177.6310  148.3280 C   0  0  0  0  0  2  0  0  0  0  0  0
  189.0040  176.7060  147.4790 C   0  0  0  0  0  2  0  0  0  0  0  0
  186.6640  177.7670  144.9600 C   0  0  0  0  0  2  0  0  0  0  0  0
  185.3620  178.0570  145.3820 O   0  0  0  0  0  0  0  0  0  0  0  0
  183.0820  178.5010  144.1480 O   0  0  0  0  0  1  0  0  0  0  0  0
  184.9220  180.3440  143.8660 O   0  0  0  0  0  1  0  0  0  0  0  0
  184.5770  178.6940  144.0210 P   0  0  0  0  0  0  0  0  0  0  0  0
  185.1240  177.8850  142.6420 O   0  0  0  0  0  0  0  0  0  0  0  0
  1  4  1  0  0  0  0
  2  6  1  0  0  0  0
  3  2  2  0  0  0  0
  4  6  2  0  0  0  0
  5  1  2  0  0  0  0
  5  3  1  0  0  0  0
  6 20  1  0  0  0  0
  7 12  1  6  0  0  0
  7 11  1  0  0  0  0
  7  1  1  0  0  0  0
  9  7  1  0  0  0  0
  9 10  2  0  0  0  0
 10  8  1  0  0  0  0
 11  8  2  0  0  0  0
 11 13  1  0  0  0  0
 13 14  2  0  0  0  0
 14 15  2  0  0  0  0
 16  3  1  0  0  0  0
 17 19  1  0  0  0  0
 17 16  1  0  0  0  0
 19 18  1  0  0  0  0
 20 22  1  0  0  0  0
 22 21  1  6  0  0  0
 22 25  1  0  0  0  0
 24 26  1  0  0  0  0
 25 23  2  0  0  0  0
 25 24  1  0  0  0  0
 27 30  1  0  0  0  0
 28 26  1  1  0  0  0
 28 31  1  0  0  0  0
 29 32  1  6  0  0  0
 29 28  1  0  0  0  0
 29 27  1  0  0  0  0
 31 30  1  0  0  0  0
 32 33  1  0  0  0  0
 35 36  1  0  0  0  0
 36 34  1  0  0  0  0
 36 33  1  0  0  0  0
 37 36  2  0  0  0  0
M  END
>  <MODEL>
5

>  <REMARK>
 VINA RESULT:      -7.3      4.102      7.523
  Name = 
  13 active torsions:
  status: ('A' for Active; 'I' for Inactive)
    1  A    between atoms: C_2  and  C_4
    2  A    between atoms: O_8  and  C_25
    3  A    between atoms: O_8  and  P_30
    4  A    between atoms: C_9  and  C_28
    5  A    between atoms: N_11  and  C_28
    6  A    between atoms: O_13  and  C_15
    7  A    between atoms: O_13  and  C_36
    8  A    between atoms: C_16  and  C_25
    9  A    between atoms: N_20  and  C_23
   10  A    between atoms: N_20  and  C_37
   11  A    between atoms: C_21  and  N_27
   12  A    between atoms: C_23  and  C_32
   13  A    between atoms: O_24  and  C_36
                            x       y       z     vdW  Elec       q    Type
                         _______ _______ _______ _____ _____    ______ ____

>  <TORSDO>
F 13

$$$$
=
 OpenBabel11042411563D

 37 39  0  0  1  0  0  0  0  0999 V2000
  186.4650  177.8750  143.6270 C   0  0  0  0  0  0  0  0  0  0  0  0
  184.5270  179.2050  142.0940 C   0  0  0  0  0  3  0  0  0  0  0  0
  184.2960  178.9710  143.4580 C   0  0  0  0  0  0  0  0  0  0  0  0
  186.6780  178.1150  142.2590 C   0  0  0  0  0  3  0  0  0  0  0  0
  185.2660  178.3100  144.2150 C   0  0  0  0  0  3  0  0  0  0  0  0
  185.7170  178.7780  141.4920 C   0  0  0  0  0  0  0  0  0  0  0  0
  187.5150  177.1630  144.4510 C   0  0  2  0  0  0  0  0  0  0  0  0
  188.9030  178.2190  146.0010 N   0  0  0  0  0  0  0  0  0  0  0  0
  186.9860  176.8200  145.8400 C   0  0  0  0  0  3  0  0  0  0  0  0
  187.9390  177.5060  146.8180 C   0  0  0  0  0  3  0  0  0  0  0  0
  188.6770  178.0380  144.7440 C   0  0  0  0  0  0  0  0  0  0  0  0
  187.9580  175.9940  143.8230 O   0  0  0  0  0  1  0  0  0  0  0  0
  189.4910  178.6180  143.7190 N   0  0  0  0  0  0  0  0  0  0  0  0
  190.7410  178.8130  143.8680 C   0  0  0  0  0  0  0  0  0  0  0  0
  191.9560  179.0010  144.0100 O   0  0  0  0  0  0  0  0  0  0  0  0
  183.1170  179.3880  144.0860 O   0  0  0  0  0  0  0  0  0  0  0  0
  181.8220  178.9840  143.6560 C   0  0  0  0  0  2  0  0  0  0  0  0
  179.8330  179.8460  143.2390 C   0  0  0  0  0  1  0  0  0  0  0  0
  181.1920  180.0410  142.9960 O   0  0  0  0  0  0  0  0  0  0  0  0
  185.9670  179.0060  140.1020 N   0  0  0  0  0  2  0  0  0  0  0  0
  184.1950  179.5940  138.7180 F   0  0  0  0  0  0  0  0  0  0  0  0
  185.0650  178.5690  139.0460 C   0  0  1  0  0  3  0  0  0  0  0  0
  185.2820  177.5680  136.8920 O   0  0  0  0  0  0  0  0  0  0  0  0
  187.2400  178.4860  137.7790 N   0  0  0  0  0  2  0  0  0  0  0  0
  185.8490  178.1690  137.8440 C   0  0  0  0  0  0  0  0  0  0  0  0
  188.0940  178.0550  136.6810 C   0  0  0  0  0  2  0  0  0  0  0  0
  190.4520  175.5790  135.6930 C   0  0  0  0  0  2  0  0  0  0  0  0
  188.7000  176.6930  136.9830 C   0  0  2  0  0  3  0  0  0  0  0  0
  190.1850  176.7180  136.6560 C   0  0  1  0  0  3  0  0  0  0  0  0
  189.1190  175.2820  135.0480 C   0  0  0  0  0  2  0  0  0  0  0  0
  188.0850  175.6160  136.1010 C   0  0  0  0  0  2  0  0  0  0  0  0
  191.0370  176.5890  137.9140 C   0  0  0  0  0  2  0  0  0  0  0  0
  190.3180  175.9720  138.9440 O   0  0  0  0  0  0  0  0  0  0  0  0
  191.9580  177.5210  140.2950 O   0  0  0  0  0  0  0  0  0  0  0  0
  189.4310  178.2090  140.3340 O   0  0  0  0  0  1  0  0  0  0  0  0
  190.5590  176.9470  140.3100 P   0  0  0  0  0  0  0  0  0  0  0  0
  190.3610  176.0050  141.7000 O   0  0  0  0  0  1  0  0  0  0  0  0
  1  5  1  0  0  0  0
  1  7  1  0  0  0  0
  2  3  1  0  0  0  0
  3 16  1  0  0  0  0
  3  5  2  0  0  0  0
  4  1  2  0  0  0  0
  6  2  2  0  0  0  0
  6  4  1  0  0  0  0
  7 12  1  6  0  0  0
  7 11  1  0  0  0  0
  7  9  1  0  0  0  0
  8 10  1  0  0  0  0
  9 10  2  0  0  0  0
 11  8  2  0  0  0  0
 13 14  2  0  0  0  0
 13 11  1  0  0  0  0
 14 15  2  0  0  0  0
 17 16  1  0  0  0  0
 19 18  1  0  0  0  0
 19 17  1  0  0  0  0
 20  6  1  0  0  0  0
 22 21  1  6  0  0  0
 22 20  1  0  0  0  0
 23 25  2  0  0  0  0
 24 25  1  0  0  0  0
 25 22  1  0  0  0  0
 26 24  1  0  0  0  0
 27 29  1  0  0  0  0
 28 26  1  6  0  0  0
 29 28  1  0  0  0  0
 29 32  1  1  0  0  0
 30 27  1  0  0  0  0
 30 31  1  0  0  0  0
 31 28  1  0  0  0  0
 32 33  1  0  0  0  0
 33 36  1  0  0  0  0
 34 36  2  0  0  0  0
 36 35  1  0  0  0  0
 36 37  1  0  0  0  0
M  END
>  <MODEL>
6

>  <REMARK>
 VINA RESULT:      -7.3      3.082      7.996
  Name = 
  13 active torsions:
  status: ('A' for Active; 'I' for Inactive)
    1  A    between atoms: C_2  and  C_4
    2  A    between atoms: O_8  and  C_25
    3  A    between atoms: O_8  and  P_30
    4  A    between atoms: C_9  and  C_28
    5  A    between atoms: N_11  and  C_28
    6  A    between atoms: O_13  and  C_15
    7  A    between atoms: O_13  and  C_36
    8  A    between atoms: C_16  and  C_25
    9  A    between atoms: N_20  and  C_23
   10  A    between atoms: N_20  and  C_37
   11  A    between atoms: C_21  and  N_27
   12  A    between atoms: C_23  and  C_32
   13  A    between atoms: O_24  and  C_36
                            x       y       z     vdW  Elec       q    Type
                         _______ _______ _______ _____ _____    ______ ____

>  <TORSDO>
F 13

$$$$
=
 OpenBabel11042411563D

 37 39  0  0  1  0  0  0  0  0999 V2000
  185.7150  178.3080  138.6030 C   0  0  0  0  0  0  0  0  0  0  0  0
  183.6810  178.7480  140.4860 C   0  0  0  0  0  3  0  0  0  0  0  0
  183.3470  178.3900  139.1710 C   0  0  0  0  0  0  0  0  0  0  0  0
  186.0310  178.6700  139.9240 C   0  0  0  0  0  3  0  0  0  0  0  0
  184.3660  178.1710  138.2400 C   0  0  0  0  0  3  0  0  0  0  0  0
  185.0220  178.8880  140.8650 C   0  0  0  0  0  0  0  0  0  0  0  0
  186.8150  178.0660  137.5930 C   0  0  2  0  0  0  0  0  0  0  0  0
  187.9280  176.0320  137.3300 N   0  0  0  0  0  0  0  0  0  0  0  0
  186.2670  177.4100  136.3300 C   0  0  0  0  0  3  0  0  0  0  0  0
  187.0430  176.1010  136.1830 C   0  0  0  0  0  3  0  0  0  0  0  0
  187.8060  177.0740  138.0800 C   0  0  0  0  0  0  0  0  0  0  0  0
  187.4720  179.2520  137.2510 O   0  0  0  0  0  1  0  0  0  0  0  0
  188.5770  177.2650  139.2710 N   0  0  0  0  0  0  0  0  0  0  0  0
  189.8360  177.0820  139.3070 C   0  0  0  0  0  0  0  0  0  0  0  0
  191.0610  176.9050  139.3430 O   0  0  0  0  0  0  0  0  0  0  0  0
  182.0170  178.2410  138.7650 O   0  0  0  0  0  0  0  0  0  0  0  0
  181.0970  179.3250  138.7000 C   0  0  0  0  0  2  0  0  0  0  0  0
  181.2200  181.5250  138.5660 C   0  0  0  0  0  1  0  0  0  0  0  0
  181.6370  180.3570  137.9300 O   0  0  0  0  0  0  0  0  0  0  0  0
  185.3800  179.2550  142.2010 N   0  0  0  0  0  2  0  0  0  0  0  0
  183.1730  178.9620  142.8700 F   0  0  0  0  0  0  0  0  0  0  0  0
  184.4030  179.4640  143.2600 C   0  0  1  0  0  3  0  0  0  0  0  0
  184.2650  179.0100  145.5980 O   0  0  0  0  0  0  0  0  0  0  0  0
  185.9430  177.8610  144.4430 N   0  0  0  0  0  2  0  0  0  0  0  0
  184.8530  178.7810  144.5050 C   0  0  0  0  0  0  0  0  0  0  0  0
  186.4990  177.2210  145.6270 C   0  0  0  0  0  2  0  0  0  0  0  0
  189.2900  177.3490  147.8320 C   0  0  0  0  0  2  0  0  0  0  0  0
  187.5920  178.0860  146.2350 C   0  0  2  0  0  3  0  0  0  0  0  0
  188.8630  177.2630  146.3800 C   0  0  1  0  0  3  0  0  0  0  0  0
  188.0360  177.7060  148.5950 C   0  0  0  0  0  2  0  0  0  0  0  0
  187.2120  178.5380  147.6370 C   0  0  0  0  0  2  0  0  0  0  0  0
  189.9630  177.7650  145.4510 C   0  0  0  0  0  2  0  0  0  0  0  0
  190.7130  176.6990  144.9410 O   0  0  0  0  0  0  0  0  0  0  0  0
  190.2360  175.3750  142.7190 O   0  0  0  0  0  1  0  0  0  0  0  0
  189.2020  177.7770  142.8720 O   0  0  0  0  0  1  0  0  0  0  0  0
  190.5010  176.7630  143.2590 P   0  0  0  0  0  0  0  0  0  0  0  0
  191.9090  177.3730  142.5500 O   0  0  0  0  0  0  0  0  0  0  0  0
  1  4  1  0  0  0  0
  2  6  1  0  0  0  0
  3  2  2  0  0  0  0
  4  6  2  0  0  0  0
  5  1  2  0  0  0  0
  5  3  1  0  0  0  0
  6 20  1  0  0  0  0
  7 12  1  6  0  0  0
  7 11  1  0  0  0  0
  7  1  1  0  0  0  0
  8 11  2  0  0  0  0
  9  7  1  0  0  0  0
 10  9  2  0  0  0  0
 10  8  1  0  0  0  0
 11 13  1  0  0  0  0
 13 14  2  0  0  0  0
 14 15  2  0  0  0  0
 16  3  1  0  0  0  0
 17 16  1  0  0  0  0
 19 18  1  0  0  0  0
 19 17  1  0  0  0  0
 20 22  1  0  0  0  0
 22 21  1  6  0  0  0
 22 25  1  0  0  0  0
 24 25  1  0  0  0  0
 24 26  1  0  0  0  0
 25 23  2  0  0  0  0
 27 30  1  0  0  0  0
 28 26  1  1  0  0  0
 28 29  1  0  0  0  0
 28 31  1  0  0  0  0
 29 32  1  6  0  0  0
 29 27  1  0  0  0  0
 31 30  1  0  0  0  0
 33 32  1  0  0  0  0
 34 36  1  0  0  0  0
 35 36  1  0  0  0  0
 36 33  1  0  0  0  0
 37 36  2  0  0  0  0
M  END
>  <MODEL>
7

>  <REMARK>
 VINA RESULT:      -7.3      2.384      5.106
  Name = 
  13 active torsions:
  status: ('A' for Active; 'I' for Inactive)
    1  A    between atoms: C_2  and  C_4
    2  A    between atoms: O_8  and  C_25
    3  A    between atoms: O_8  and  P_30
    4  A    between atoms: C_9  and  C_28
    5  A    between atoms: N_11  and  C_28
    6  A    between atoms: O_13  and  C_15
    7  A    between atoms: O_13  and  C_36
    8  A    between atoms: C_16  and  C_25
    9  A    between atoms: N_20  and  C_23
   10  A    between atoms: N_20  and  C_37
   11  A    between atoms: C_21  and  N_27
   12  A    between atoms: C_23  and  C_32
   13  A    between atoms: O_24  and  C_36
                            x       y       z     vdW  Elec       q    Type
                         _______ _______ _______ _____ _____    ______ ____

>  <TORSDO>
F 13

$$$$
=
 OpenBabel11042411563D

 37 39  0  0  1  0  0  0  0  0999 V2000
  187.0940  177.5300  137.7830 C   0  0  0  0  0  0  0  0  0  0  0  0
  187.3380  178.4820  140.4120 C   0  0  0  0  0  3  0  0  0  0  0  0
  186.0890  178.5120  139.7730 C   0  0  0  0  0  0  0  0  0  0  0  0
  188.3380  177.5100  138.4380 C   0  0  0  0  0  3  0  0  0  0  0  0
  185.9760  178.0350  138.4650 C   0  0  0  0  0  3  0  0  0  0  0  0
  188.4640  177.9820  139.7460 C   0  0  0  0  0  0  0  0  0  0  0  0
  186.9670  177.0100  136.3680 C   0  0  2  0  0  0  0  0  0  0  0  0
  185.1750  175.7280  135.5990 N   0  0  0  0  0  0  0  0  0  0  0  0
  186.0850  177.9250  135.5230 C   0  0  0  0  0  3  0  0  0  0  0  0
  184.9460  177.0380  135.0200 C   0  0  0  0  0  3  0  0  0  0  0  0
  186.2470  175.7140  136.3170 C   0  0  0  0  0  0  0  0  0  0  0  0
  188.2160  176.8750  135.7530 O   0  0  0  0  0  1  0  0  0  0  0  0
  186.7120  174.5390  136.9900 N   0  0  0  0  0  0  0  0  0  0  0  0
  185.9190  173.6790  137.4920 C   0  0  0  0  0  0  0  0  0  0  0  0
  185.1480  172.8420  137.9790 O   0  0  0  0  0  0  0  0  0  0  0  0
  184.9470  179.0050  140.4140 O   0  0  0  0  0  0  0  0  0  0  0  0
  183.7350  179.2980  139.7290 C   0  0  0  0  0  2  0  0  0  0  0  0
  182.5920  180.8040  138.5900 C   0  0  0  0  0  1  0  0  0  0  0  0
  183.8880  180.4610  138.9730 O   0  0  0  0  0  0  0  0  0  0  0  0
  189.7450  177.9460  140.3820 N   0  0  0  0  0  2  0  0  0  0  0  0
  191.3160  176.2680  140.7220 F   0  0  0  0  0  0  0  0  0  0  0  0
  190.1780  176.8560  141.2450 C   0  0  1  0  0  3  0  0  0  0  0  0
  191.6540  177.5390  142.9890 O   0  0  0  0  0  0  0  0  0  0  0  0
  189.3730  177.6950  143.4790 N   0  0  0  0  0  2  0  0  0  0  0  0
  190.4620  177.3750  142.6120 C   0  0  0  0  0  0  0  0  0  0  0  0
  189.5660  178.1220  144.8570 C   0  0  0  0  0  2  0  0  0  0  0  0
  187.5010  178.0910  147.7560 C   0  0  0  0  0  2  0  0  0  0  0  0
  188.7200  177.2790  145.7990 C   0  0  2  0  0  3  0  0  0  0  0  0
  187.5060  178.0810  146.2410 C   0  0  1  0  0  3  0  0  0  0  0  0
  188.9300  177.8170  148.1600 C   0  0  0  0  0  2  0  0  0  0  0  0
  189.4910  176.9370  147.0650 C   0  0  0  0  0  2  0  0  0  0  0  0
  186.2140  177.4900  145.6880 C   0  0  0  0  0  2  0  0  0  0  0  0
  186.0160  177.8740  144.3570 O   0  0  0  0  0  0  0  0  0  0  0  0
  185.0570  180.2860  143.9330 O   0  0  0  0  0  1  0  0  0  0  0  0
  183.4600  178.2930  143.3490 O   0  0  0  0  0  0  0  0  0  0  0  0
  184.6620  178.8950  144.3780 P   0  0  0  0  0  0  0  0  0  0  0  0
  184.0540  178.9690  145.9530 O   0  0  0  0  0  1  0  0  0  0  0  0
  1  4  2  0  0  0  0
  1  5  1  0  0  0  0
  3  2  1  0  0  0  0
  3 16  1  0  0  0  0
  4  6  1  0  0  0  0
  5  3  2  0  0  0  0
  6 20  1  0  0  0  0
  6  2  2  0  0  0  0
  7 12  1  6  0  0  0
  7  1  1  0  0  0  0
  8 11  2  0  0  0  0
  9  7  1  0  0  0  0
 10  9  2  0  0  0  0
 10  8  1  0  0  0  0
 11  7  1  0  0  0  0
 11 13  1  0  0  0  0
 13 14  2  0  0  0  0
 14 15  2  0  0  0  0
 17 16  1  0  0  0  0
 18 19  1  0  0  0  0
 19 17  1  0  0  0  0
 20 22  1  0  0  0  0
 22 21  1  6  0  0  0
 22 25  1  0  0  0  0
 24 26  1  0  0  0  0
 25 23  2  0  0  0  0
 25 24  1  0  0  0  0
 27 30  1  0  0  0  0
 28 26  1  6  0  0  0
 28 29  1  0  0  0  0
 28 31  1  0  0  0  0
 29 32  1  1  0  0  0
 29 27  1  0  0  0  0
 31 30  1  0  0  0  0
 33 36  1  0  0  0  0
 33 32  1  0  0  0  0
 34 36  1  0  0  0  0
 35 36  2  0  0  0  0
 36 37  1  0  0  0  0
M  END
>  <MODEL>
8

>  <REMARK>
 VINA RESULT:      -7.3      3.673      5.905
  Name = 
  13 active torsions:
  status: ('A' for Active; 'I' for Inactive)
    1  A    between atoms: C_2  and  C_4
    2  A    between atoms: O_8  and  C_25
    3  A    between atoms: O_8  and  P_30
    4  A    between atoms: C_9  and  C_28
    5  A    between atoms: N_11  and  C_28
    6  A    between atoms: O_13  and  C_15
    7  A    between atoms: O_13  and  C_36
    8  A    between atoms: C_16  and  C_25
    9  A    between atoms: N_20  and  C_23
   10  A    between atoms: N_20  and  C_37
   11  A    between atoms: C_21  and  N_27
   12  A    between atoms: C_23  and  C_32
   13  A    between atoms: O_24  and  C_36
                            x       y       z     vdW  Elec       q    Type
                         _______ _______ _______ _____ _____    ______ ____

>  <TORSDO>
F 13

$$$$
=
 OpenBabel11042411563D

 37 39  0  0  1  0  0  0  0  0999 V2000
  189.6810  177.3740  144.4130 C   0  0  0  0  0  0  0  0  0  0  0  0
  187.3670  177.4420  142.8260 C   0  0  0  0  0  3  0  0  0  0  0  0
  187.2550  177.5070  144.2230 C   0  0  0  0  0  0  0  0  0  0  0  0
  189.7730  177.3080  143.0120 C   0  0  0  0  0  3  0  0  0  0  0  0
  188.4120  177.4740  145.0060 C   0  0  0  0  0  3  0  0  0  0  0  0
  188.6250  177.3420  142.2170 C   0  0  0  0  0  0  0  0  0  0  0  0
  190.9310  177.3440  145.2630 C   0  0  2  0  0  0  0  0  0  0  0  0
  191.0940  176.2440  147.3150 N   0  0  0  0  0  0  0  0  0  0  0  0
  191.7250  176.0630  145.0290 C   0  0  0  0  0  3  0  0  0  0  0  0
  191.8310  175.3940  146.3990 C   0  0  0  0  0  3  0  0  0  0  0  0
  190.6150  177.2780  146.7120 C   0  0  0  0  0  0  0  0  0  0  0  0
  191.7520  178.4490  145.0150 O   0  0  0  0  0  1  0  0  0  0  0  0
  189.8580  178.2870  147.3880 N   0  0  0  0  0  0  0  0  0  0  0  0
  188.8990  178.0090  148.1780 C   0  0  0  0  0  0  0  0  0  0  0  0
  187.9680  177.7390  148.9480 O   0  0  0  0  0  0  0  0  0  0  0  0
  186.0120  177.6080  144.8570 O   0  0  0  0  0  0  0  0  0  0  0  0
  185.7850  178.4260  145.9990 C   0  0  0  0  0  2  0  0  0  0  0  0
  183.9730  179.0070  144.8810 C   0  0  0  0  0  1  0  0  0  0  0  0
  184.4160  178.6510  146.1550 O   0  0  0  0  0  0  0  0  0  0  0  0
  188.7560  177.2720  140.7950 N   0  0  0  0  0  2  0  0  0  0  0  0
  190.9010  176.5800  140.2290 F   0  0  0  0  0  0  0  0  0  0  0  0
  189.9840  177.6080  140.0890 C   0  0  1  0  0  3  0  0  0  0  0  0
  190.3930  177.2580  137.7650 O   0  0  0  0  0  0  0  0  0  0  0  0
  188.6110  178.6840  138.2730 N   0  0  0  0  0  2  0  0  0  0  0  0
  189.6940  177.8300  138.6450 C   0  0  0  0  0  0  0  0  0  0  0  0
  188.3180  179.0220  136.8880 C   0  0  0  0  0  2  0  0  0  0  0  0
  186.3910  176.0630  137.3370 C   0  0  0  0  0  2  0  0  0  0  0  0
  187.1800  178.1610  136.3610 C   0  0  2  0  0  3  0  0  0  0  0  0
  186.4140  177.5660  137.5330 C   0  0  1  0  0  3  0  0  0  0  0  0
  187.5630  175.7620  136.4340 C   0  0  0  0  0  2  0  0  0  0  0  0
  187.7140  176.9850  135.5570 C   0  0  0  0  0  2  0  0  0  0  0  0
  185.0010  178.1330  137.6230 C   0  0  0  0  0  2  0  0  0  0  0  0
  184.3550  177.6860  138.7810 O   0  0  0  0  0  0  0  0  0  0  0  0
  183.4820  178.7710  141.0120 O   0  0  0  0  0  1  0  0  0  0  0  0
  186.0400  179.0500  140.5200 O   0  0  0  0  0  1  0  0  0  0  0  0
  184.4730  178.9670  139.8860 P   0  0  0  0  0  0  0  0  0  0  0  0
  184.1240  180.4160  139.0880 O   0  0  0  0  0  0  0  0  0  0  0  0
  1  5  1  0  0  0  0
  1  7  1  0  0  0  0
  2  3  1  0  0  0  0
  3 16  1  0  0  0  0
  3  5  2  0  0  0  0
  4  1  2  0  0  0  0
  6  2  2  0  0  0  0
  6  4  1  0  0  0  0
  7 12  1  6  0  0  0
  7 11  1  0  0  0  0
  9  7  1  0  0  0  0
  9 10  2  0  0  0  0
 10  8  1  0  0  0  0
 11  8  2  0  0  0  0
 11 13  1  0  0  0  0
 13 14  2  0  0  0  0
 14 15  2  0  0  0  0
 16 17  1  0  0  0  0
 17 19  1  0  0  0  0
 18 19  1  0  0  0  0
 20  6  1  0  0  0  0
 22 21  1  6  0  0  0
 22 20  1  0  0  0  0
 23 25  2  0  0  0  0
 24 25  1  0  0  0  0
 25 22  1  0  0  0  0
 26 24  1  0  0  0  0
 27 29  1  0  0  0  0
 28 26  1  1  0  0  0
 28 29  1  0  0  0  0
 29 32  1  6  0  0  0
 30 27  1  0  0  0  0
 31 28  1  0  0  0  0
 31 30  1  0  0  0  0
 32 33  1  0  0  0  0
 33 36  1  0  0  0  0
 36 35  1  0  0  0  0
 36 34  1  0  0  0  0
 37 36  2  0  0  0  0
M  END
>  <MODEL>
9

>  <REMARK>
 VINA RESULT:      -7.2      4.179      9.335
  Name = 
  13 active torsions:
  status: ('A' for Active; 'I' for Inactive)
    1  A    between atoms: C_2  and  C_4
    2  A    between atoms: O_8  and  C_25
    3  A    between atoms: O_8  and  P_30
    4  A    between atoms: C_9  and  C_28
    5  A    between atoms: N_11  and  C_28
    6  A    between atoms: O_13  and  C_15
    7  A    between atoms: O_13  and  C_36
    8  A    between atoms: C_16  and  C_25
    9  A    between atoms: N_20  and  C_23
   10  A    between atoms: N_20  and  C_37
   11  A    between atoms: C_21  and  N_27
   12  A    between atoms: C_23  and  C_32
   13  A    between atoms: O_24  and  C_36
                            x       y       z     vdW  Elec       q    Type
                         _______ _______ _______ _____ _____    ______ ____

>  <TORSDO>
F 13

$$$$
