=
 OpenBabel11032419413D

 49 56  0  0  1  0  0  0  0  0999 V2000
  185.4290  176.4420  137.0250 C   0  0  0  0  0  2  0  0  0  0  0  0
  185.5290  177.6130  137.9910 C   0  0  2  0  0  3  0  0  0  0  0  0
  184.0730  176.9380  136.5480 C   0  0  2  0  0  3  0  0  0  0  0  0
  184.1870  178.1370  137.5000 C   0  0  1  0  0  3  0  0  0  0  0  0
  186.1730  178.0410  144.2540 C   0  0  0  0  0  0  0  0  0  0  0  0
  188.1830  177.6950  145.5290 C   0  0  0  0  0  3  0  0  0  0  0  0
  183.3890  177.6470  139.9640 C   0  0  0  0  0  2  0  0  0  0  0  0
  183.1410  178.2190  138.5880 C   0  0  0  0  0  0  0  0  0  0  0  0
  184.8510  178.2990  144.0850 N   0  0  0  0  0  0  0  0  0  0  0  0
  181.5730  179.0810  140.6790 N   0  0  0  0  0  0  0  0  0  0  0  0
  183.2000  178.6350  142.3240 N   0  0  0  0  0  2  0  0  0  0  0  0
  182.0260  178.8230  138.3430 N   0  0  0  0  0  0  0  0  0  0  0  0
  186.8020  177.9530  145.4950 C   0  0  0  0  0  3  0  0  0  0  0  0
  185.8740  178.0510  141.7690 S   0  0  0  0  0  0  0  0  0  0  0  0
  180.9840  178.9170  139.3480 C   0  0  0  0  0  2  0  0  0  0  0  0
  182.6900  178.4940  140.9930 C   0  0  0  0  0  0  0  0  0  0  0  0
  186.8990  177.8760  143.0840 C   0  0  0  0  0  0  0  0  0  0  0  0
  188.2670  177.6230  143.0900 C   0  0  0  0  0  3  0  0  0  0  0  0
  184.5260  178.3210  142.7700 C   0  0  0  0  0  0  0  0  0  0  0  0
  188.9100  177.5310  144.3340 C   0  0  0  0  0  3  0  0  0  0  0  0
  182.9770  175.9540  136.8610 C   0  0  0  0  0  0  0  0  0  0  0  0
  181.7690  176.2710  136.6840 O   0  0  0  0  0  0  0  0  0  0  0  0
  183.0080  171.1640  136.8340 C   0  0  0  0  0  3  0  0  0  0  0  0
  183.4270  173.5030  134.8390 S   0  0  0  0  0  0  0  0  0  0  0  0
  182.1700  171.2330  135.7820 C   0  0  0  0  0  3  0  0  0  0  0  0
  183.8710  172.2990  137.3320 C   0  0  0  0  0  2  0  0  0  0  0  0
  181.9170  172.4840  134.9800 C   0  0  1  0  0  3  0  0  0  0  0  0
  183.3480  174.6500  137.3310 N   0  0  0  0  0  0  0  0  0  0  0  0
  183.5780  173.5790  136.6280 C   0  0  0  0  0  0  0  0  0  0  0  0
  180.8870  173.2240  135.5670 O   0  0  0  0  0  0  0  0  0  0  0  0
  179.9620  172.2740  136.0040 C   0  0  0  0  0  2  0  0  0  0  0  0
  180.2040  172.4620  138.3560 F   0  0  0  0  0  0  0  0  0  0  0  0
  179.3410  172.7270  137.3100 C   0  0  0  0  0  2  0  0  0  0  0  0
  186.6400  178.5540  137.5670 C   0  0  0  0  0  2  0  0  0  0  0  0
  188.0130  177.0260  138.6840 C   0  0  0  0  0  2  0  0  0  0  0  0
  188.9300  178.9660  137.8010 C   0  0  0  0  0  2  0  0  0  0  0  0
  187.7580  178.4460  138.4880 N   0  0  0  0  0  0  0  0  0  0  0  0
  190.1140  178.1240  138.2170 C   0  0  0  0  0  2  0  0  0  0  0  0
  189.5150  176.8150  138.6790 C   0  0  2  0  0  3  0  0  0  0  0  0
  192.0610  175.7890  138.4610 O   0  0  0  0  0  0  0  0  0  0  0  0
  190.4910  173.6580  136.1080 C   0  0  0  0  0  0  0  0  0  0  0  0
  188.9230  175.1580  137.0090 N   0  0  0  0  0  0  0  0  0  0  0  0
  192.7350  173.6120  136.7070 C   0  0  0  0  0  3  0  0  0  0  0  0
  191.4830  174.2100  136.8830 C   0  0  0  0  0  0  0  0  0  0  0  0
  191.1260  172.4190  135.1860 S   0  0  0  0  0  0  0  0  0  0  0  0
  192.7090  172.5710  135.7730 C   0  0  0  0  0  3  0  0  0  0  0  0
  191.1700  175.2670  137.7380 C   0  0  0  0  0  0  0  0  0  0  0  0
  189.8750  175.7200  137.7750 N   0  0  0  0  0  0  0  0  0  0  0  0
  189.1890  174.1260  136.1620 C   0  0  0  0  0  3  0  0  0  0  0  0
  1  2  1  0  0  0  0
  2 34  1  6  0  0  0
  3 21  1  1  0  0  0
  3  1  1  0  0  0  0
  3  4  1  0  0  0  0
  4  2  1  0  0  0  0
  4  8  1  1  0  0  0
  5 13  1  0  0  0  0
  7 16  1  0  0  0  0
  8  7  1  0  0  0  0
  9  5  1  0  0  0  0
 10 16  2  0  0  0  0
 11 19  1  0  0  0  0
 12  8  2  0  0  0  0
 12 15  1  0  0  0  0
 13  6  2  0  0  0  0
 14 19  1  0  0  0  0
 14 17  1  0  0  0  0
 15 10  1  0  0  0  0
 16 11  1  0  0  0  0
 17 18  1  0  0  0  0
 17  5  2  0  0  0  0
 18 20  2  0  0  0  0
 19  9  2  0  0  0  0
 20  6  1  0  0  0  0
 21 28  1  0  0  0  0
 22 21  2  0  0  0  0
 23 26  1  0  0  0  0
 24 27  1  0  0  0  0
 24 29  1  0  0  0  0
 25 23  2  0  0  0  0
 27 30  1  1  0  0  0
 27 25  1  0  0  0  0
 29 28  2  0  0  0  0
 29 26  1  0  0  0  0
 30 31  1  0  0  0  0
 31 33  1  0  0  0  0
 33 32  1  0  0  0  0
 34 37  1  0  0  0  0
 36 38  1  0  0  0  0
 36 37  1  0  0  0  0
 37 35  1  0  0  0  0
 38 39  1  0  0  0  0
 39 48  1  6  0  0  0
 39 35  1  0  0  0  0
 41 49  1  0  0  0  0
 41 44  2  0  0  0  0
 42 48  1  0  0  0  0
 43 44  1  0  0  0  0
 44 47  1  0  0  0  0
 45 46  1  0  0  0  0
 45 41  1  0  0  0  0
 46 43  2  0  0  0  0
 47 48  1  0  0  0  0
 47 40  2  0  0  0  0
 49 42  2  0  0  0  0
M  END
>  <MODEL>
1

>  <REMARK>
 VINA RESULT:      -7.6      0.000      0.000
  Name = 
  9 active torsions:
  status: ('A' for Active; 'I' for Inactive)
    1  A    between atoms: C_7  and  C_32
    2  A    between atoms: C_7  and  N_42
    3  A    between atoms: C_12  and  C_47
    4  A    between atoms: C_15  and  C_24
    5  A    between atoms: C_15  and  O_48
    6  A    between atoms: C_21  and  C_43
    7  A    between atoms: N_30  and  C_43
    8  A    between atoms: N_33  and  C_38
    9  A    between atoms: C_35  and  O_48
                            x       y       z     vdW  Elec       q    Type
                         _______ _______ _______ _____ _____    ______ ____

>  <TORSDO>
F 9

$$$$
=
 OpenBabel11032419413D

 49 56  0  0  1  0  0  0  0  0999 V2000
  188.5600  178.5310  137.9840 C   0  0  0  0  0  2  0  0  0  0  0  0
  189.6630  177.7640  138.6970 C   0  0  2  0  0  3  0  0  0  0  0  0
  187.8990  177.2230  137.5770 C   0  0  2  0  0  3  0  0  0  0  0  0
  188.9950  176.4480  138.3220 C   0  0  1  0  0  3  0  0  0  0  0  0
  186.1770  170.8260  135.1580 C   0  0  0  0  0  0  0  0  0  0  0  0
  184.0870  169.6340  135.1430 C   0  0  0  0  0  3  0  0  0  0  0  0
  189.5260  174.0990  137.2510 C   0  0  0  0  0  2  0  0  0  0  0  0
  189.8680  175.5540  137.4710 C   0  0  0  0  0  0  0  0  0  0  0  0
  187.4600  171.0680  134.7850 N   0  0  0  0  0  0  0  0  0  0  0  0
  191.0090  174.2380  135.3410 N   0  0  0  0  0  0  0  0  0  0  0  0
  189.2610  172.6700  135.1370 N   0  0  0  0  0  2  0  0  0  0  0  0
  190.9070  176.0570  136.8930 N   0  0  0  0  0  0  0  0  0  0  0  0
  185.4100  169.7620  134.6860 C   0  0  0  0  0  3  0  0  0  0  0  0
  186.7940  172.8930  136.4260 S   0  0  0  0  0  0  0  0  0  0  0  0
  191.7850  175.2390  136.0770 C   0  0  0  0  0  2  0  0  0  0  0  0
  189.9560  173.6870  135.8690 C   0  0  0  0  0  0  0  0  0  0  0  0
  185.6420  171.7320  136.0600 C   0  0  0  0  0  0  0  0  0  0  0  0
  184.3350  171.6310  136.5260 C   0  0  0  0  0  3  0  0  0  0  0  0
  187.9470  172.1660  135.4090 C   0  0  0  0  0  0  0  0  0  0  0  0
  183.5540  170.5630  136.0580 C   0  0  0  0  0  3  0  0  0  0  0  0
  187.8770  177.0510  136.0810 C   0  0  0  0  0  0  0  0  0  0  0  0
  188.6490  177.7300  135.3510 O   0  0  0  0  0  0  0  0  0  0  0  0
  183.6070  175.0640  135.1980 C   0  0  0  0  0  3  0  0  0  0  0  0
  184.9500  177.8570  135.0380 S   0  0  0  0  0  0  0  0  0  0  0  0
  183.0720  176.0480  135.9450 C   0  0  0  0  0  3  0  0  0  0  0  0
  184.9920  175.0890  134.5940 C   0  0  0  0  0  2  0  0  0  0  0  0
  183.8060  177.3010  136.3500 C   0  0  1  0  0  3  0  0  0  0  0  0
  186.9820  176.0770  135.5240 N   0  0  0  0  0  0  0  0  0  0  0  0
  185.7840  176.2650  135.0510 C   0  0  0  0  0  0  0  0  0  0  0  0
  184.5050  177.0800  137.5400 O   0  0  0  0  0  0  0  0  0  0  0  0
  183.5480  177.2020  138.5490 C   0  0  0  0  0  2  0  0  0  0  0  0
  183.7820  177.4870  140.8930 F   0  0  0  0  0  0  0  0  0  0  0  0
  184.0980  178.0560  139.6740 C   0  0  0  0  0  2  0  0  0  0  0  0
  189.5750  177.9810  140.1960 C   0  0  0  0  0  2  0  0  0  0  0  0
  188.6090  176.6390  141.8480 C   0  0  0  0  0  2  0  0  0  0  0  0
  187.5660  178.6120  141.2130 C   0  0  0  0  0  2  0  0  0  0  0  0
  188.3090  177.4740  140.6950 N   0  0  0  0  0  0  0  0  0  0  0  0
  186.8160  178.1460  142.4400 C   0  0  0  0  0  2  0  0  0  0  0  0
  187.5740  176.9290  142.9180 C   0  0  2  0  0  3  0  0  0  0  0  0
  186.2050  177.5450  145.2270 O   0  0  0  0  0  0  0  0  0  0  0  0
  189.4750  177.6080  146.5850 C   0  0  0  0  0  0  0  0  0  0  0  0
  189.5640  177.1000  144.2940 N   0  0  0  0  0  0  0  0  0  0  0  0
  187.5060  178.0000  147.7520 C   0  0  0  0  0  3  0  0  0  0  0  0
  188.1040  177.6930  146.5260 C   0  0  0  0  0  0  0  0  0  0  0  0
  189.9870  177.9070  148.1470 S   0  0  0  0  0  0  0  0  0  0  0  0
  188.4360  178.1560  148.7850 C   0  0  0  0  0  3  0  0  0  0  0  0
  187.4620  177.4750  145.3080 C   0  0  0  0  0  0  0  0  0  0  0  0
  188.2250  177.1820  144.2050 N   0  0  0  0  0  0  0  0  0  0  0  0
  190.2290  177.3080  145.4640 C   0  0  0  0  0  3  0  0  0  0  0  0
  1  2  1  0  0  0  0
  2 34  1  1  0  0  0
  3 21  1  6  0  0  0
  3  1  1  0  0  0  0
  3  4  1  0  0  0  0
  4  8  1  6  0  0  0
  4  2  1  0  0  0  0
  5 17  1  0  0  0  0
  6 20  2  0  0  0  0
  7  8  1  0  0  0  0
  9  5  1  0  0  0  0
  9 19  2  0  0  0  0
 10 16  2  0  0  0  0
 10 15  1  0  0  0  0
 11 19  1  0  0  0  0
 11 16  1  0  0  0  0
 12  8  2  0  0  0  0
 13  6  1  0  0  0  0
 13  5  2  0  0  0  0
 15 12  1  0  0  0  0
 16  7  1  0  0  0  0
 17 14  1  0  0  0  0
 17 18  2  0  0  0  0
 19 14  1  0  0  0  0
 20 18  1  0  0  0  0
 22 21  2  0  0  0  0
 23 25  2  0  0  0  0
 24 29  1  0  0  0  0
 24 27  1  0  0  0  0
 25 27  1  0  0  0  0
 26 29  1  0  0  0  0
 26 23  1  0  0  0  0
 27 30  1  1  0  0  0
 28 21  1  0  0  0  0
 29 28  2  0  0  0  0
 30 31  1  0  0  0  0
 31 33  1  0  0  0  0
 33 32  1  0  0  0  0
 34 37  1  0  0  0  0
 36 38  1  0  0  0  0
 37 36  1  0  0  0  0
 37 35  1  0  0  0  0
 38 39  1  0  0  0  0
 39 35  1  6  0  0  0
 39 48  1  0  0  0  0
 40 47  2  0  0  0  0
 41 45  1  0  0  0  0
 42 49  2  0  0  0  0
 43 46  2  0  0  0  0
 44 41  2  0  0  0  0
 44 43  1  0  0  0  0
 45 46  1  0  0  0  0
 47 44  1  0  0  0  0
 48 42  1  0  0  0  0
 48 47  1  0  0  0  0
 49 41  1  0  0  0  0
M  END
>  <MODEL>
2

>  <REMARK>
 VINA RESULT:      -7.5      3.113      8.583
  Name = 
  9 active torsions:
  status: ('A' for Active; 'I' for Inactive)
    1  A    between atoms: C_7  and  C_32
    2  A    between atoms: C_7  and  N_42
    3  A    between atoms: C_12  and  C_47
    4  A    between atoms: C_15  and  C_24
    5  A    between atoms: C_15  and  O_48
    6  A    between atoms: C_21  and  C_43
    7  A    between atoms: N_30  and  C_43
    8  A    between atoms: N_33  and  C_38
    9  A    between atoms: C_35  and  O_48
                            x       y       z     vdW  Elec       q    Type
                         _______ _______ _______ _____ _____    ______ ____

>  <TORSDO>
F 9

$$$$
=
 OpenBabel11032419413D

 49 56  0  0  1  0  0  0  0  0999 V2000
  188.2850  177.2340  139.0720 C   0  0  0  0  0  2  0  0  0  0  0  0
  188.2850  176.7320  137.6360 C   0  0  2  0  0  3  0  0  0  0  0  0
  189.7280  177.6910  138.9240 C   0  0  2  0  0  3  0  0  0  0  0  0
  189.7200  177.2120  137.4650 C   0  0  1  0  0  3  0  0  0  0  0  0
  187.2570  170.9960  135.2590 C   0  0  0  0  0  0  0  0  0  0  0  0
  185.1340  169.8890  135.0210 C   0  0  0  0  0  3  0  0  0  0  0  0
  190.2810  174.6490  137.2140 C   0  0  0  0  0  2  0  0  0  0  0  0
  190.6880  176.1010  137.1280 C   0  0  0  0  0  0  0  0  0  0  0  0
  188.6080  171.1010  135.1770 N   0  0  0  0  0  0  0  0  0  0  0  0
  192.1860  174.2290  135.7790 N   0  0  0  0  0  0  0  0  0  0  0  0
  190.4070  172.7010  135.5490 N   0  0  0  0  0  2  0  0  0  0  0  0
  191.8760  176.4050  136.7240 N   0  0  0  0  0  0  0  0  0  0  0  0
  186.5340  169.8600  134.9000 C   0  0  0  0  0  3  0  0  0  0  0  0
  187.7320  173.3190  136.0600 S   0  0  0  0  0  0  0  0  0  0  0  0
  192.8480  175.3770  136.4020 C   0  0  0  0  0  2  0  0  0  0  0  0
  190.9930  173.8650  136.1440 C   0  0  0  0  0  0  0  0  0  0  0  0
  186.6030  172.1260  135.7270 C   0  0  0  0  0  0  0  0  0  0  0  0
  185.2190  172.1830  135.8530 C   0  0  0  0  0  3  0  0  0  0  0  0
  189.0260  172.3180  135.5970 C   0  0  0  0  0  0  0  0  0  0  0  0
  184.4820  171.0430  135.4940 C   0  0  0  0  0  3  0  0  0  0  0  0
  190.6480  176.9440  139.8530 C   0  0  0  0  0  0  0  0  0  0  0  0
  190.9650  175.7480  139.6080 O   0  0  0  0  0  0  0  0  0  0  0  0
  190.5750  178.6250  144.3390 C   0  0  0  0  0  3  0  0  0  0  0  0
  190.0550  175.9540  142.8480 S   0  0  0  0  0  0  0  0  0  0  0  0
  189.3430  178.0900  144.4460 C   0  0  0  0  0  3  0  0  0  0  0  0
  191.5920  178.2580  143.2830 C   0  0  0  0  0  2  0  0  0  0  0  0
  188.7680  177.0870  143.4790 C   0  0  1  0  0  3  0  0  0  0  0  0
  191.1720  177.6400  140.9930 N   0  0  0  0  0  0  0  0  0  0  0  0
  191.0260  177.3440  142.2520 C   0  0  0  0  0  0  0  0  0  0  0  0
  188.1460  177.7510  142.4180 O   0  0  0  0  0  0  0  0  0  0  0  0
  186.8180  177.9100  142.8200 C   0  0  0  0  0  2  0  0  0  0  0  0
  185.4420  179.7830  142.3440 F   0  0  0  0  0  0  0  0  0  0  0  0
  186.0540  178.6880  141.7660 C   0  0  0  0  0  2  0  0  0  0  0  0
  187.3530  177.5700  136.7820 C   0  0  0  0  0  2  0  0  0  0  0  0
  185.5750  176.1230  137.2410 C   0  0  0  0  0  2  0  0  0  0  0  0
  185.4310  177.5910  135.4500 C   0  0  0  0  0  2  0  0  0  0  0  0
  186.3510  176.7190  136.1640 N   0  0  0  0  0  0  0  0  0  0  0  0
  184.0450  177.0070  135.5930 C   0  0  0  0  0  2  0  0  0  0  0  0
  184.1140  176.1450  136.8330 C   0  0  2  0  0  3  0  0  0  0  0  0
  181.7670  174.9980  137.7040 O   0  0  0  0  0  0  0  0  0  0  0  0
  181.8080  177.7440  139.9390 C   0  0  0  0  0  0  0  0  0  0  0  0
  183.6870  177.8220  138.5330 N   0  0  0  0  0  0  0  0  0  0  0  0
  180.1850  176.0860  139.8460 C   0  0  0  0  0  3  0  0  0  0  0  0
  181.3790  176.5920  139.3240 C   0  0  0  0  0  0  0  0  0  0  0  0
  180.7300  178.1690  141.1430 S   0  0  0  0  0  0  0  0  0  0  0  0
  179.6780  176.8640  140.8920 C   0  0  0  0  0  3  0  0  0  0  0  0
  182.1370  176.0550  138.2830 C   0  0  0  0  0  0  0  0  0  0  0  0
  183.2890  176.6990  137.9090 N   0  0  0  0  0  0  0  0  0  0  0  0
  182.9750  178.3780  139.5520 C   0  0  0  0  0  3  0  0  0  0  0  0
  2 34  1  6  0  0  0
  2  1  1  0  0  0  0
  3  1  1  0  0  0  0
  3 21  1  1  0  0  0
  4  8  1  1  0  0  0
  4  2  1  0  0  0  0
  4  3  1  0  0  0  0
  5 17  1  0  0  0  0
  6 20  2  0  0  0  0
  8  7  1  0  0  0  0
  9  5  1  0  0  0  0
  9 19  2  0  0  0  0
 10 16  2  0  0  0  0
 10 15  1  0  0  0  0
 11 19  1  0  0  0  0
 11 16  1  0  0  0  0
 12  8  2  0  0  0  0
 13  6  1  0  0  0  0
 13  5  2  0  0  0  0
 15 12  1  0  0  0  0
 16  7  1  0  0  0  0
 17 18  2  0  0  0  0
 17 14  1  0  0  0  0
 19 14  1  0  0  0  0
 20 18  1  0  0  0  0
 21 28  1  0  0  0  0
 22 21  2  0  0  0  0
 23 25  2  0  0  0  0
 24 27  1  0  0  0  0
 26 23  1  0  0  0  0
 27 30  1  6  0  0  0
 27 25  1  0  0  0  0
 28 29  2  0  0  0  0
 29 24  1  0  0  0  0
 29 26  1  0  0  0  0
 30 31  1  0  0  0  0
 33 32  1  0  0  0  0
 33 31  1  0  0  0  0
 36 38  1  0  0  0  0
 36 37  1  0  0  0  0
 37 34  1  0  0  0  0
 37 35  1  0  0  0  0
 39 38  1  6  0  0  0
 39 35  1  0  0  0  0
 39 48  1  0  0  0  0
 40 47  2  0  0  0  0
 41 45  1  0  0  0  0
 42 49  2  0  0  0  0
 43 46  2  0  0  0  0
 44 43  1  0  0  0  0
 44 41  2  0  0  0  0
 46 45  1  0  0  0  0
 47 44  1  0  0  0  0
 48 47  1  0  0  0  0
 48 42  1  0  0  0  0
 49 41  1  0  0  0  0
M  END
>  <MODEL>
3

>  <REMARK>
 VINA RESULT:      -7.2      2.925      9.871
  Name = 
  9 active torsions:
  status: ('A' for Active; 'I' for Inactive)
    1  A    between atoms: C_7  and  C_32
    2  A    between atoms: C_7  and  N_42
    3  A    between atoms: C_12  and  C_47
    4  A    between atoms: C_15  and  C_24
    5  A    between atoms: C_15  and  O_48
    6  A    between atoms: C_21  and  C_43
    7  A    between atoms: N_30  and  C_43
    8  A    between atoms: N_33  and  C_38
    9  A    between atoms: C_35  and  O_48
                            x       y       z     vdW  Elec       q    Type
                         _______ _______ _______ _____ _____    ______ ____

>  <TORSDO>
F 9

$$$$
=
 OpenBabel11032419413D

 49 56  0  0  1  0  0  0  0  0999 V2000
  182.4240  179.2130  140.8370 C   0  0  0  0  0  2  0  0  0  0  0  0
  183.7840  178.5470  140.7000 C   0  0  2  0  0  3  0  0  0  0  0  0
  181.8510  178.2860  139.7760 C   0  0  2  0  0  3  0  0  0  0  0  0
  183.2160  177.5920  139.6590 C   0  0  1  0  0  3  0  0  0  0  0  0
  190.2450  177.4350  139.2960 C   0  0  0  0  0  0  0  0  0  0  0  0
  192.1210  177.4600  140.8020 C   0  0  0  0  0  3  0  0  0  0  0  0
  185.3030  178.2350  138.1830 C   0  0  0  0  0  2  0  0  0  0  0  0
  183.8980  177.6960  138.3140 C   0  0  0  0  0  0  0  0  0  0  0  0
  189.6420  177.3980  138.0810 N   0  0  0  0  0  0  0  0  0  0  0  0
  185.3210  177.1280  136.0290 N   0  0  0  0  0  0  0  0  0  0  0  0
  187.4250  177.3180  137.0710 N   0  0  0  0  0  2  0  0  0  0  0  0
  183.2760  177.2810  137.2610 N   0  0  0  0  0  0  0  0  0  0  0  0
  191.6260  177.4330  139.4870 C   0  0  0  0  0  3  0  0  0  0  0  0
  187.8020  177.4470  139.8360 S   0  0  0  0  0  0  0  0  0  0  0  0
  183.8790  177.3720  135.9450 C   0  0  0  0  0  2  0  0  0  0  0  0
  186.0080  177.5260  137.0580 C   0  0  0  0  0  0  0  0  0  0  0  0
  189.3850  177.4660  140.3840 C   0  0  0  0  0  0  0  0  0  0  0  0
  189.8490  177.4890  141.6950 C   0  0  0  0  0  3  0  0  0  0  0  0
  188.2940  177.4140  138.2080 C   0  0  0  0  0  0  0  0  0  0  0  0
  191.2380  177.4880  141.8980 C   0  0  0  0  0  3  0  0  0  0  0  0
  181.3960  179.0440  138.5580 C   0  0  0  0  0  0  0  0  0  0  0  0
  180.5650  178.5280  137.7610 O   0  0  0  0  0  0  0  0  0  0  0  0
  181.0950  183.7130  137.5240 C   0  0  0  0  0  3  0  0  0  0  0  0
  179.6970  181.6450  139.3670 S   0  0  0  0  0  0  0  0  0  0  0  0
  179.7760  183.5170  137.3390 C   0  0  0  0  0  3  0  0  0  0  0  0
  182.0160  182.7740  138.2690 C   0  0  0  0  0  2  0  0  0  0  0  0
  179.0290  182.2880  137.7920 C   0  0  1  0  0  3  0  0  0  0  0  0
  181.9060  180.3700  138.3530 N   0  0  0  0  0  0  0  0  0  0  0  0
  181.3380  181.5040  138.6470 C   0  0  0  0  0  0  0  0  0  0  0  0
  179.0900  181.3030  136.8030 O   0  0  0  0  0  0  0  0  0  0  0  0
  178.9370  181.9910  135.5980 C   0  0  0  0  0  2  0  0  0  0  0  0
  181.1530  181.2210  135.2440 F   0  0  0  0  0  0  0  0  0  0  0  0
  179.9660  181.5040  134.5960 C   0  0  0  0  0  2  0  0  0  0  0  0
  184.1310  177.7870  141.9660 C   0  0  0  0  0  2  0  0  0  0  0  0
  184.3520  177.8940  144.2920 C   0  0  0  0  0  2  0  0  0  0  0  0
  184.6850  179.8030  143.0140 C   0  0  0  0  0  2  0  0  0  0  0  0
  183.8550  178.6140  143.1290 N   0  0  0  0  0  0  0  0  0  0  0  0
  185.1420  180.1740  144.4060 C   0  0  0  0  0  2  0  0  0  0  0  0
  185.0370  178.8940  145.2030 C   0  0  2  0  0  3  0  0  0  0  0  0
  186.1080  179.2440  147.7160 O   0  0  0  0  0  0  0  0  0  0  0  0
  188.8100  177.4480  146.2970 C   0  0  0  0  0  0  0  0  0  0  0  0
  187.1080  177.7330  144.7040 N   0  0  0  0  0  0  0  0  0  0  0  0
  188.6940  178.2410  148.4770 C   0  0  0  0  0  3  0  0  0  0  0  0
  188.0670  178.1270  147.2330 C   0  0  0  0  0  0  0  0  0  0  0  0
  190.2590  176.9680  146.9760 S   0  0  0  0  0  0  0  0  0  0  0  0
  189.9540  177.6340  148.5050 C   0  0  0  0  0  3  0  0  0  0  0  0
  186.8110  178.6200  146.8760 C   0  0  0  0  0  0  0  0  0  0  0  0
  186.3600  178.4060  145.5980 N   0  0  0  0  0  0  0  0  0  0  0  0
  188.3380  177.2380  145.0130 C   0  0  0  0  0  3  0  0  0  0  0  0
  2  1  1  0  0  0  0
  2 34  1  1  0  0  0
  3 21  1  6  0  0  0
  3  1  1  0  0  0  0
  4  8  1  6  0  0  0
  4  3  1  0  0  0  0
  4  2  1  0  0  0  0
  5 13  2  0  0  0  0
  5 17  1  0  0  0  0
  6 20  2  0  0  0  0
  7  8  1  0  0  0  0
  9 19  2  0  0  0  0
  9  5  1  0  0  0  0
 10 16  2  0  0  0  0
 11 19  1  0  0  0  0
 12  8  2  0  0  0  0
 13  6  1  0  0  0  0
 14 17  1  0  0  0  0
 15 10  1  0  0  0  0
 15 12  1  0  0  0  0
 16 11  1  0  0  0  0
 16  7  1  0  0  0  0
 17 18  2  0  0  0  0
 18 20  1  0  0  0  0
 19 14  1  0  0  0  0
 22 21  2  0  0  0  0
 23 26  1  0  0  0  0
 25 23  2  0  0  0  0
 25 27  1  0  0  0  0
 26 29  1  0  0  0  0
 27 30  1  6  0  0  0
 27 24  1  0  0  0  0
 28 21  1  0  0  0  0
 28 29  2  0  0  0  0
 29 24  1  0  0  0  0
 31 30  1  0  0  0  0
 33 32  1  0  0  0  0
 33 31  1  0  0  0  0
 34 37  1  0  0  0  0
 36 37  1  0  0  0  0
 36 38  1  0  0  0  0
 37 35  1  0  0  0  0
 38 39  1  0  0  0  0
 39 35  1  6  0  0  0
 39 48  1  0  0  0  0
 41 45  1  0  0  0  0
 41 44  2  0  0  0  0
 42 49  2  0  0  0  0
 42 48  1  0  0  0  0
 43 46  2  0  0  0  0
 44 43  1  0  0  0  0
 45 46  1  0  0  0  0
 47 44  1  0  0  0  0
 47 40  2  0  0  0  0
 48 47  1  0  0  0  0
 49 41  1  0  0  0  0
M  END
>  <MODEL>
4

>  <REMARK>
 VINA RESULT:      -7.1      4.085      8.036
  Name = 
  9 active torsions:
  status: ('A' for Active; 'I' for Inactive)
    1  A    between atoms: C_7  and  C_32
    2  A    between atoms: C_7  and  N_42
    3  A    between atoms: C_12  and  C_47
    4  A    between atoms: C_15  and  C_24
    5  A    between atoms: C_15  and  O_48
    6  A    between atoms: C_21  and  C_43
    7  A    between atoms: N_30  and  C_43
    8  A    between atoms: N_33  and  C_38
    9  A    between atoms: C_35  and  O_48
                            x       y       z     vdW  Elec       q    Type
                         _______ _______ _______ _____ _____    ______ ____

>  <TORSDO>
F 9

$$$$
=
 OpenBabel11032419413D

 49 56  0  0  1  0  0  0  0  0999 V2000
  185.6640  178.2220  139.6720 C   0  0  0  0  0  2  0  0  0  0  0  0
  186.5220  178.2430  140.9290 C   0  0  2  0  0  3  0  0  0  0  0  0
  184.7950  179.3360  140.2350 C   0  0  2  0  0  3  0  0  0  0  0  0
  185.6780  179.3790  141.4900 C   0  0  1  0  0  3  0  0  0  0  0  0
  189.4720  176.8270  146.8430 C   0  0  0  0  0  0  0  0  0  0  0  0
  191.7200  176.0720  147.2520 C   0  0  0  0  0  3  0  0  0  0  0  0
  185.5660  177.9940  143.7300 C   0  0  0  0  0  2  0  0  0  0  0  0
  184.9930  179.0310  142.7920 C   0  0  0  0  0  0  0  0  0  0  0  0
  188.1850  177.1020  147.1780 N   0  0  0  0  0  0  0  0  0  0  0  0
  184.1660  179.0250  145.4160 N   0  0  0  0  0  0  0  0  0  0  0  0
  186.1430  178.0340  146.2300 N   0  0  0  0  0  2  0  0  0  0  0  0
  183.9160  179.6610  143.1230 N   0  0  0  0  0  0  0  0  0  0  0  0
  190.4150  176.2970  147.7230 C   0  0  0  0  0  3  0  0  0  0  0  0
  188.4860  177.7500  144.7370 S   0  0  0  0  0  0  0  0  0  0  0  0
  183.2130  179.3550  144.3540 C   0  0  0  0  0  2  0  0  0  0  0  0
  185.2670  178.3860  145.1520 C   0  0  0  0  0  0  0  0  0  0  0  0
  189.8190  177.1210  145.5340 C   0  0  0  0  0  0  0  0  0  0  0  0
  191.1040  176.9110  145.0430 C   0  0  0  0  0  3  0  0  0  0  0  0
  187.5060  177.6030  146.1190 C   0  0  0  0  0  0  0  0  0  0  0  0
  192.0610  176.3780  145.9200 C   0  0  0  0  0  3  0  0  0  0  0  0
  183.3750  178.8820  140.4480 C   0  0  0  0  0  0  0  0  0  0  0  0
  182.4950  179.7020  140.8280 O   0  0  0  0  0  0  0  0  0  0  0  0
  180.4630  175.1090  139.9640 C   0  0  0  0  0  3  0  0  0  0  0  0
  180.6320  178.0530  139.0010 S   0  0  0  0  0  0  0  0  0  0  0  0
  179.4540  175.9290  140.3140 C   0  0  0  0  0  3  0  0  0  0  0  0
  181.8210  175.5600  139.4810 C   0  0  0  0  0  2  0  0  0  0  0  0
  179.5540  177.4330  140.3400 C   0  0  1  0  0  3  0  0  0  0  0  0
  183.0530  177.5110  140.1760 N   0  0  0  0  0  0  0  0  0  0  0  0
  181.9930  177.0360  139.5870 C   0  0  0  0  0  0  0  0  0  0  0  0
  180.0340  177.8560  141.5820 O   0  0  0  0  0  0  0  0  0  0  0  0
  179.0550  178.7210  142.0740 C   0  0  0  0  0  2  0  0  0  0  0  0
  179.8100  178.4490  144.3060 F   0  0  0  0  0  0  0  0  0  0  0  0
  179.5550  179.3980  143.3340 C   0  0  0  0  0  2  0  0  0  0  0  0
  187.9170  178.7430  140.6080 C   0  0  0  0  0  2  0  0  0  0  0  0
  189.0450  176.7260  140.2520 C   0  0  0  0  0  2  0  0  0  0  0  0
  190.1840  178.5390  141.1470 C   0  0  0  0  0  2  0  0  0  0  0  0
  188.9070  177.8430  141.1740 N   0  0  0  0  0  0  0  0  0  0  0  0
  191.2520  177.5180  140.8320 C   0  0  0  0  0  2  0  0  0  0  0  0
  190.5200  176.3910  140.1400 C   0  0  2  0  0  3  0  0  0  0  0  0
  193.1220  176.6170  139.2650 O   0  0  0  0  0  0  0  0  0  0  0  0
  191.6110  176.0490  136.1130 C   0  0  0  0  0  0  0  0  0  0  0  0
  189.9770  176.0530  137.8000 N   0  0  0  0  0  0  0  0  0  0  0  0
  193.8790  176.3690  136.5010 C   0  0  0  0  0  3  0  0  0  0  0  0
  192.5940  176.2820  137.0460 C   0  0  0  0  0  0  0  0  0  0  0  0
  192.2980  175.9420  134.5940 S   0  0  0  0  0  0  0  0  0  0  0  0
  193.8910  176.1980  135.1140 C   0  0  0  0  0  3  0  0  0  0  0  0
  192.2400  176.4050  138.3900 C   0  0  0  0  0  0  0  0  0  0  0  0
  190.9170  176.2870  138.7340 N   0  0  0  0  0  0  0  0  0  0  0  0
  190.2820  175.9290  136.4790 C   0  0  0  0  0  3  0  0  0  0  0  0
  1  3  1  0  0  0  0
  1  2  1  0  0  0  0
  2 34  1  6  0  0  0
  2  4  1  0  0  0  0
  3 21  1  1  0  0  0
  3  4  1  0  0  0  0
  4  8  1  1  0  0  0
  5  9  1  0  0  0  0
  5 13  1  0  0  0  0
  6 13  2  0  0  0  0
  7 16  1  0  0  0  0
  8 12  2  0  0  0  0
  8  7  1  0  0  0  0
 12 15  1  0  0  0  0
 14 17  1  0  0  0  0
 14 19  1  0  0  0  0
 15 10  1  0  0  0  0
 16 10  2  0  0  0  0
 16 11  1  0  0  0  0
 17  5  2  0  0  0  0
 18 17  1  0  0  0  0
 18 20  2  0  0  0  0
 19 11  1  0  0  0  0
 19  9  2  0  0  0  0
 20  6  1  0  0  0  0
 21 22  2  0  0  0  0
 23 25  2  0  0  0  0
 24 29  1  0  0  0  0
 24 27  1  0  0  0  0
 25 27  1  0  0  0  0
 26 29  1  0  0  0  0
 26 23  1  0  0  0  0
 27 30  1  1  0  0  0
 28 21  1  0  0  0  0
 29 28  2  0  0  0  0
 30 31  1  0  0  0  0
 31 33  1  0  0  0  0
 33 32  1  0  0  0  0
 34 37  1  0  0  0  0
 35 37  1  0  0  0  0
 36 37  1  0  0  0  0
 38 36  1  0  0  0  0
 39 48  1  6  0  0  0
 39 35  1  0  0  0  0
 39 38  1  0  0  0  0
 41 49  1  0  0  0  0
 41 44  2  0  0  0  0
 42 48  1  0  0  0  0
 43 44  1  0  0  0  0
 44 47  1  0  0  0  0
 45 46  1  0  0  0  0
 45 41  1  0  0  0  0
 46 43  2  0  0  0  0
 47 48  1  0  0  0  0
 47 40  2  0  0  0  0
 49 42  2  0  0  0  0
M  END
>  <MODEL>
5

>  <REMARK>
 VINA RESULT:      -7.0      3.433      4.723
  Name = 
  9 active torsions:
  status: ('A' for Active; 'I' for Inactive)
    1  A    between atoms: C_7  and  C_32
    2  A    between atoms: C_7  and  N_42
    3  A    between atoms: C_12  and  C_47
    4  A    between atoms: C_15  and  C_24
    5  A    between atoms: C_15  and  O_48
    6  A    between atoms: C_21  and  C_43
    7  A    between atoms: N_30  and  C_43
    8  A    between atoms: N_33  and  C_38
    9  A    between atoms: C_35  and  O_48
                            x       y       z     vdW  Elec       q    Type
                         _______ _______ _______ _____ _____    ______ ____

>  <TORSDO>
F 9

$$$$
=
 OpenBabel11032419413D

 49 56  0  0  1  0  0  0  0  0999 V2000
  183.6880  178.2970  137.9750 C   0  0  0  0  0  2  0  0  0  0  0  0
  184.7780  178.1180  139.0210 C   0  0  2  0  0  3  0  0  0  0  0  0
  183.0780  179.4270  138.7890 C   0  0  2  0  0  3  0  0  0  0  0  0
  184.1950  179.2670  139.8310 C   0  0  1  0  0  3  0  0  0  0  0  0
  189.0040  177.3220  144.5900 C   0  0  0  0  0  0  0  0  0  0  0  0
  191.3650  176.8690  144.6740 C   0  0  0  0  0  3  0  0  0  0  0  0
  184.5800  177.9230  142.0660 C   0  0  0  0  0  2  0  0  0  0  0  0
  183.7520  178.8600  141.2180 C   0  0  0  0  0  0  0  0  0  0  0  0
  187.7530  177.4380  145.1050 N   0  0  0  0  0  0  0  0  0  0  0  0
  183.3120  178.8000  143.9330 N   0  0  0  0  0  0  0  0  0  0  0  0
  185.4950  178.0840  144.4570 N   0  0  0  0  0  2  0  0  0  0  0  0
  182.6600  179.3540  141.6980 N   0  0  0  0  0  0  0  0  0  0  0  0
  190.1230  176.9350  145.3270 C   0  0  0  0  0  3  0  0  0  0  0  0
  187.6200  178.0720  142.6450 S   0  0  0  0  0  0  0  0  0  0  0  0
  182.1830  178.9840  143.0180 C   0  0  0  0  0  2  0  0  0  0  0  0
  184.4370  178.3010  143.5150 C   0  0  0  0  0  0  0  0  0  0  0  0
  189.1220  177.6330  143.2440 C   0  0  0  0  0  0  0  0  0  0  0  0
  190.3410  177.5800  142.5750 C   0  0  0  0  0  3  0  0  0  0  0  0
  186.8720  177.8290  144.1530 C   0  0  0  0  0  0  0  0  0  0  0  0
  191.4730  177.1900  143.3070 C   0  0  0  0  0  3  0  0  0  0  0  0
  181.6890  179.0890  139.2620 C   0  0  0  0  0  0  0  0  0  0  0  0
  181.2260  177.9280  139.0940 O   0  0  0  0  0  0  0  0  0  0  0  0
  178.9450  183.0080  139.5190 C   0  0  0  0  0  3  0  0  0  0  0  0
  179.0200  180.3200  137.9710 S   0  0  0  0  0  0  0  0  0  0  0  0
  179.0320  183.0730  138.1770 C   0  0  0  0  0  3  0  0  0  0  0  0
  179.2540  181.7840  140.3500 C   0  0  0  0  0  2  0  0  0  0  0  0
  179.5190  181.9460  137.3030 C   0  0  1  0  0  3  0  0  0  0  0  0
  180.9320  180.1080  139.9290 N   0  0  0  0  0  0  0  0  0  0  0  0
  179.8310  180.6810  139.5340 C   0  0  0  0  0  0  0  0  0  0  0  0
  180.9100  182.0100  137.1740 O   0  0  0  0  0  0  0  0  0  0  0  0
  181.1450  183.0920  136.3230 C   0  0  0  0  0  2  0  0  0  0  0  0
  182.6320  183.8990  137.9860 F   0  0  0  0  0  0  0  0  0  0  0  0
  181.6170  184.2850  137.1310 C   0  0  0  0  0  2  0  0  0  0  0  0
  186.1270  178.5150  138.4530 C   0  0  0  0  0  2  0  0  0  0  0  0
  187.6370  178.2630  136.6850 C   0  0  0  0  0  2  0  0  0  0  0  0
  186.1790  176.5350  137.2100 C   0  0  0  0  0  2  0  0  0  0  0  0
  186.2730  177.9830  137.1090 N   0  0  0  0  0  0  0  0  0  0  0  0
  187.1470  175.9460  136.2100 C   0  0  0  0  0  2  0  0  0  0  0  0
  188.1640  177.0370  135.9650 C   0  0  2  0  0  3  0  0  0  0  0  0
  189.9140  175.3730  134.6420 O   0  0  0  0  0  0  0  0  0  0  0  0
  191.9320  176.0220  137.4790 C   0  0  0  0  0  0  0  0  0  0  0  0
  189.8840  177.1570  137.6700 N   0  0  0  0  0  0  0  0  0  0  0  0
  192.5100  174.6830  135.6720 C   0  0  0  0  0  3  0  0  0  0  0  0
  191.5470  175.5050  136.2650 C   0  0  0  0  0  0  0  0  0  0  0  0
  193.4670  175.4810  137.8550 S   0  0  0  0  0  0  0  0  0  0  0  0
  193.6680  174.5610  136.4460 C   0  0  0  0  0  3  0  0  0  0  0  0
  190.2910  175.8320  135.7540 C   0  0  0  0  0  0  0  0  0  0  0  0
  189.4790  176.6620  136.4870 N   0  0  0  0  0  0  0  0  0  0  0  0
  191.1020  176.8610  138.2030 C   0  0  0  0  0  3  0  0  0  0  0  0
  1  3  1  0  0  0  0
  1  2  1  0  0  0  0
  2 34  1  6  0  0  0
  2  4  1  0  0  0  0
  3 21  1  1  0  0  0
  3  4  1  0  0  0  0
  4  8  1  1  0  0  0
  5  9  1  0  0  0  0
  5 13  1  0  0  0  0
  6 13  2  0  0  0  0
  7 16  1  0  0  0  0
  8 12  2  0  0  0  0
  8  7  1  0  0  0  0
 12 15  1  0  0  0  0
 14 17  1  0  0  0  0
 14 19  1  0  0  0  0
 15 10  1  0  0  0  0
 16 10  2  0  0  0  0
 16 11  1  0  0  0  0
 17  5  2  0  0  0  0
 18 17  1  0  0  0  0
 18 20  2  0  0  0  0
 19 11  1  0  0  0  0
 19  9  2  0  0  0  0
 20  6  1  0  0  0  0
 21 28  1  0  0  0  0
 22 21  2  0  0  0  0
 23 26  1  0  0  0  0
 24 29  1  0  0  0  0
 25 23  2  0  0  0  0
 27 30  1  1  0  0  0
 27 24  1  0  0  0  0
 27 25  1  0  0  0  0
 29 28  2  0  0  0  0
 29 26  1  0  0  0  0
 31 33  1  0  0  0  0
 31 30  1  0  0  0  0
 33 32  1  0  0  0  0
 35 37  1  0  0  0  0
 37 36  1  0  0  0  0
 37 34  1  0  0  0  0
 38 36  1  0  0  0  0
 39 38  1  1  0  0  0
 39 48  1  0  0  0  0
 39 35  1  0  0  0  0
 40 47  2  0  0  0  0
 41 45  1  0  0  0  0
 41 49  1  0  0  0  0
 42 49  2  0  0  0  0
 43 44  1  0  0  0  0
 43 46  2  0  0  0  0
 44 41  2  0  0  0  0
 46 45  1  0  0  0  0
 47 44  1  0  0  0  0
 47 48  1  0  0  0  0
 48 42  1  0  0  0  0
M  END
>  <MODEL>
6

>  <REMARK>
 VINA RESULT:      -6.8      3.690      5.617
  Name = 
  9 active torsions:
  status: ('A' for Active; 'I' for Inactive)
    1  A    between atoms: C_7  and  C_32
    2  A    between atoms: C_7  and  N_42
    3  A    between atoms: C_12  and  C_47
    4  A    between atoms: C_15  and  C_24
    5  A    between atoms: C_15  and  O_48
    6  A    between atoms: C_21  and  C_43
    7  A    between atoms: N_30  and  C_43
    8  A    between atoms: N_33  and  C_38
    9  A    between atoms: C_35  and  O_48
                            x       y       z     vdW  Elec       q    Type
                         _______ _______ _______ _____ _____    ______ ____

>  <TORSDO>
F 9

$$$$
=
 OpenBabel11032419413D

 49 56  0  0  1  0  0  0  0  0999 V2000
  185.0370  178.0660  138.5260 C   0  0  0  0  0  2  0  0  0  0  0  0
  185.9140  177.9460  139.7630 C   0  0  2  0  0  3  0  0  0  0  0  0
  184.2890  179.2300  139.1580 C   0  0  2  0  0  3  0  0  0  0  0  0
  185.1940  179.1290  140.3940 C   0  0  1  0  0  3  0  0  0  0  0  0
  189.0280  177.2370  145.9880 C   0  0  0  0  0  0  0  0  0  0  0  0
  191.3210  176.7230  146.5010 C   0  0  0  0  0  3  0  0  0  0  0  0
  185.1370  177.8600  142.7040 C   0  0  0  0  0  2  0  0  0  0  0  0
  184.5010  178.7860  141.6940 C   0  0  0  0  0  0  0  0  0  0  0  0
  187.7110  177.4050  146.2690 N   0  0  0  0  0  0  0  0  0  0  0  0
  183.5900  178.8410  144.2900 N   0  0  0  0  0  0  0  0  0  0  0  0
  185.6230  178.0870  145.2130 N   0  0  0  0  0  2  0  0  0  0  0  0
  183.3590  179.3270  141.9580 N   0  0  0  0  0  0  0  0  0  0  0  0
  189.9860  176.8470  146.9220 C   0  0  0  0  0  3  0  0  0  0  0  0
  188.0310  177.9490  143.8060 S   0  0  0  0  0  0  0  0  0  0  0  0
  182.6470  179.0210  143.1840 C   0  0  0  0  0  2  0  0  0  0  0  0
  184.7550  178.2960  144.0930 C   0  0  0  0  0  0  0  0  0  0  0  0
  189.3900  177.4930  144.6740 C   0  0  0  0  0  0  0  0  0  0  0  0
  190.7050  177.3820  144.2320 C   0  0  0  0  0  3  0  0  0  0  0  0
  187.0240  177.7830  145.1650 C   0  0  0  0  0  0  0  0  0  0  0  0
  191.6780  176.9890  145.1650 C   0  0  0  0  0  3  0  0  0  0  0  0
  182.8360  178.9050  139.3810 C   0  0  0  0  0  0  0  0  0  0  0  0
  181.9900  179.8310  139.5150 O   0  0  0  0  0  0  0  0  0  0  0  0
  179.8540  175.2370  140.1610 C   0  0  0  0  0  3  0  0  0  0  0  0
  179.8230  177.9980  138.7460 S   0  0  0  0  0  0  0  0  0  0  0  0
  178.9630  176.1440  140.6030 C   0  0  0  0  0  3  0  0  0  0  0  0
  181.0660  175.5510  139.3160 C   0  0  0  0  0  2  0  0  0  0  0  0
  179.0820  177.6300  140.3760 C   0  0  1  0  0  3  0  0  0  0  0  0
  182.4450  177.5240  139.4030 N   0  0  0  0  0  0  0  0  0  0  0  0
  181.2730  177.0170  139.1520 C   0  0  0  0  0  0  0  0  0  0  0  0
  179.8430  178.2080  141.3950 O   0  0  0  0  0  0  0  0  0  0  0  0
  178.9310  178.9380  142.1590 C   0  0  0  0  0  2  0  0  0  0  0  0
  179.2300  180.8680  140.8110 F   0  0  0  0  0  0  0  0  0  0  0  0
  179.2890  180.4110  142.1130 C   0  0  0  0  0  2  0  0  0  0  0  0
  187.3460  178.3250  139.4360 C   0  0  0  0  0  2  0  0  0  0  0  0
  188.9400  178.5940  137.7460 C   0  0  0  0  0  2  0  0  0  0  0  0
  187.2020  177.0830  137.4600 C   0  0  0  0  0  2  0  0  0  0  0  0
  187.5200  178.3980  137.9950 N   0  0  0  0  0  0  0  0  0  0  0  0
  188.1490  176.8180  136.3120 C   0  0  0  0  0  2  0  0  0  0  0  0
  189.3350  177.7190  136.5720 C   0  0  2  0  0  3  0  0  0  0  0  0
  190.4610  175.8770  134.8630 O   0  0  0  0  0  0  0  0  0  0  0  0
  192.7820  175.5410  137.5170 C   0  0  0  0  0  0  0  0  0  0  0  0
  191.1430  177.1280  138.0760 N   0  0  0  0  0  0  0  0  0  0  0  0
  192.8370  174.3870  135.5020 C   0  0  0  0  0  3  0  0  0  0  0  0
  192.1820  175.3320  136.2970 C   0  0  0  0  0  0  0  0  0  0  0  0
  194.1350  174.5690  137.6480 S   0  0  0  0  0  0  0  0  0  0  0  0
  193.9720  173.8520  136.1210 C   0  0  0  0  0  3  0  0  0  0  0  0
  191.0290  176.0480  135.9750 C   0  0  0  0  0  0  0  0  0  0  0  0
  190.5320  176.9400  136.8920 N   0  0  0  0  0  0  0  0  0  0  0  0
  192.2690  176.4480  138.4280 C   0  0  0  0  0  3  0  0  0  0  0  0
  1  3  1  0  0  0  0
  1  2  1  0  0  0  0
  2 34  1  6  0  0  0
  2  4  1  0  0  0  0
  3 21  1  1  0  0  0
  3  4  1  0  0  0  0
  4  8  1  1  0  0  0
  5  9  1  0  0  0  0
  5 13  1  0  0  0  0
  6 13  2  0  0  0  0
  7 16  1  0  0  0  0
  8 12  2  0  0  0  0
  8  7  1  0  0  0  0
 12 15  1  0  0  0  0
 14 17  1  0  0  0  0
 14 19  1  0  0  0  0
 15 10  1  0  0  0  0
 16 10  2  0  0  0  0
 16 11  1  0  0  0  0
 17  5  2  0  0  0  0
 18 17  1  0  0  0  0
 18 20  2  0  0  0  0
 19 11  1  0  0  0  0
 19  9  2  0  0  0  0
 20  6  1  0  0  0  0
 21 28  1  0  0  0  0
 21 22  2  0  0  0  0
 23 25  2  0  0  0  0
 24 29  1  0  0  0  0
 24 27  1  0  0  0  0
 26 23  1  0  0  0  0
 27 25  1  0  0  0  0
 27 30  1  1  0  0  0
 29 26  1  0  0  0  0
 29 28  2  0  0  0  0
 30 31  1  0  0  0  0
 32 33  1  0  0  0  0
 33 31  1  0  0  0  0
 35 37  1  0  0  0  0
 36 37  1  0  0  0  0
 37 34  1  0  0  0  0
 38 36  1  0  0  0  0
 39 38  1  1  0  0  0
 39 48  1  0  0  0  0
 39 35  1  0  0  0  0
 40 47  2  0  0  0  0
 41 45  1  0  0  0  0
 41 49  1  0  0  0  0
 42 49  2  0  0  0  0
 43 46  2  0  0  0  0
 43 44  1  0  0  0  0
 44 41  2  0  0  0  0
 46 45  1  0  0  0  0
 47 44  1  0  0  0  0
 47 48  1  0  0  0  0
 48 42  1  0  0  0  0
M  END
>  <MODEL>
7

>  <REMARK>
 VINA RESULT:      -6.7      3.280      4.410
  Name = 
  9 active torsions:
  status: ('A' for Active; 'I' for Inactive)
    1  A    between atoms: C_7  and  C_32
    2  A    between atoms: C_7  and  N_42
    3  A    between atoms: C_12  and  C_47
    4  A    between atoms: C_15  and  C_24
    5  A    between atoms: C_15  and  O_48
    6  A    between atoms: C_21  and  C_43
    7  A    between atoms: N_30  and  C_43
    8  A    between atoms: N_33  and  C_38
    9  A    between atoms: C_35  and  O_48
                            x       y       z     vdW  Elec       q    Type
                         _______ _______ _______ _____ _____    ______ ____

>  <TORSDO>
F 9

$$$$
=
 OpenBabel11032419413D

 49 56  0  0  1  0  0  0  0  0999 V2000
  185.6230  177.9300  139.9240 C   0  0  0  0  0  2  0  0  0  0  0  0
  186.4910  178.1250  141.1580 C   0  0  2  0  0  3  0  0  0  0  0  0
  184.6760  179.0190  140.4060 C   0  0  2  0  0  3  0  0  0  0  0  0
  185.5690  179.2370  141.6370 C   0  0  1  0  0  3  0  0  0  0  0  0
  189.5150  176.7880  146.9270 C   0  0  0  0  0  0  0  0  0  0  0  0
  191.7600  175.9970  147.2750 C   0  0  0  0  0  3  0  0  0  0  0  0
  185.5160  177.9360  143.9290 C   0  0  0  0  0  2  0  0  0  0  0  0
  184.9290  178.9520  142.9770 C   0  0  0  0  0  0  0  0  0  0  0  0
  188.2500  177.1050  147.3010 N   0  0  0  0  0  0  0  0  0  0  0  0
  184.2070  179.0590  145.6290 N   0  0  0  0  0  0  0  0  0  0  0  0
  186.1920  178.0510  146.4000 N   0  0  0  0  0  2  0  0  0  0  0  0
  183.8800  179.6180  143.3260 N   0  0  0  0  0  0  0  0  0  0  0  0
  190.4810  176.2690  147.7880 C   0  0  0  0  0  3  0  0  0  0  0  0
  188.4670  177.6600  144.8290 S   0  0  0  0  0  0  0  0  0  0  0  0
  183.2200  179.3730  144.5940 C   0  0  0  0  0  2  0  0  0  0  0  0
  185.2820  178.3850  145.3460 C   0  0  0  0  0  0  0  0  0  0  0  0
  189.8170  177.0280  145.5950 C   0  0  0  0  0  0  0  0  0  0  0  0
  191.0760  176.7710  145.0630 C   0  0  0  0  0  3  0  0  0  0  0  0
  187.5400  177.5850  146.2520 C   0  0  0  0  0  0  0  0  0  0  0  0
  192.0550  176.2460  145.9210 C   0  0  0  0  0  3  0  0  0  0  0  0
  183.2990  178.4790  140.6840 C   0  0  0  0  0  0  0  0  0  0  0  0
  183.1330  177.2520  140.9250 O   0  0  0  0  0  0  0  0  0  0  0  0
  179.1670  180.3500  139.1410 C   0  0  0  0  0  3  0  0  0  0  0  0
  180.3290  177.5680  139.8740 S   0  0  0  0  0  0  0  0  0  0  0  0
  179.1850  179.4160  138.1710 C   0  0  0  0  0  3  0  0  0  0  0  0
  179.9820  180.2970  140.4130 C   0  0  0  0  0  2  0  0  0  0  0  0
  180.0810  178.2030  138.1790 C   0  0  1  0  0  3  0  0  0  0  0  0
  182.1990  179.4000  140.6990 N   0  0  0  0  0  0  0  0  0  0  0  0
  180.9500  179.1660  140.4130 C   0  0  0  0  0  0  0  0  0  0  0  0
  181.3110  178.5170  137.5940 O   0  0  0  0  0  0  0  0  0  0  0  0
  181.8100  177.3010  137.1250 C   0  0  0  0  0  2  0  0  0  0  0  0
  184.1300  176.8610  137.3480 F   0  0  0  0  0  0  0  0  0  0  0  0
  183.2000  177.5030  136.5550 C   0  0  0  0  0  2  0  0  0  0  0  0
  187.8400  178.7000  140.7700 C   0  0  0  0  0  2  0  0  0  0  0  0
  189.0520  176.7340  140.4060 C   0  0  0  0  0  2  0  0  0  0  0  0
  190.1390  178.6280  141.1890 C   0  0  0  0  0  2  0  0  0  0  0  0
  188.9040  177.8690  141.3050 N   0  0  0  0  0  0  0  0  0  0  0  0
  191.2420  177.6540  140.8440 C   0  0  0  0  0  2  0  0  0  0  0  0
  190.5340  176.4720  140.2230 C   0  0  2  0  0  3  0  0  0  0  0  0
  193.1030  176.5450  139.2320 O   0  0  0  0  0  0  0  0  0  0  0  0
  191.4210  176.0720  136.1510 C   0  0  0  0  0  0  0  0  0  0  0  0
  189.8680  176.1710  137.9100 N   0  0  0  0  0  0  0  0  0  0  0  0
  193.7190  176.2580  136.4370 C   0  0  0  0  0  3  0  0  0  0  0  0
  192.4570  176.2460  137.0390 C   0  0  0  0  0  0  0  0  0  0  0  0
  192.0310  175.9280  134.6030 S   0  0  0  0  0  0  0  0  0  0  0  0
  193.6580  176.0890  135.0500 C   0  0  0  0  0  3  0  0  0  0  0  0
  192.1710  176.3870  138.3970 C   0  0  0  0  0  0  0  0  0  0  0  0
  190.8600  176.3470  138.8010 N   0  0  0  0  0  0  0  0  0  0  0  0
  190.1050  176.0300  136.5760 C   0  0  0  0  0  3  0  0  0  0  0  0
  1  3  1  0  0  0  0
  1  2  1  0  0  0  0
  2 34  1  6  0  0  0
  2  4  1  0  0  0  0
  3 21  1  1  0  0  0
  3  4  1  0  0  0  0
  4  8  1  1  0  0  0
  5  9  1  0  0  0  0
  5 13  1  0  0  0  0
  6 13  2  0  0  0  0
  7 16  1  0  0  0  0
  8 12  2  0  0  0  0
  8  7  1  0  0  0  0
 12 15  1  0  0  0  0
 14 17  1  0  0  0  0
 14 19  1  0  0  0  0
 15 10  1  0  0  0  0
 16 10  2  0  0  0  0
 16 11  1  0  0  0  0
 17  5  2  0  0  0  0
 18 17  1  0  0  0  0
 18 20  2  0  0  0  0
 19 11  1  0  0  0  0
 19  9  2  0  0  0  0
 20  6  1  0  0  0  0
 21 28  1  0  0  0  0
 21 22  2  0  0  0  0
 23 26  1  0  0  0  0
 24 29  1  0  0  0  0
 25 27  1  0  0  0  0
 25 23  2  0  0  0  0
 27 30  1  1  0  0  0
 27 24  1  0  0  0  0
 29 26  1  0  0  0  0
 29 28  2  0  0  0  0
 31 30  1  0  0  0  0
 33 31  1  0  0  0  0
 33 32  1  0  0  0  0
 34 37  1  0  0  0  0
 35 37  1  0  0  0  0
 36 37  1  0  0  0  0
 38 36  1  0  0  0  0
 39 48  1  6  0  0  0
 39 35  1  0  0  0  0
 39 38  1  0  0  0  0
 41 49  1  0  0  0  0
 41 44  2  0  0  0  0
 42 48  1  0  0  0  0
 43 44  1  0  0  0  0
 44 47  1  0  0  0  0
 45 46  1  0  0  0  0
 45 41  1  0  0  0  0
 46 43  2  0  0  0  0
 47 48  1  0  0  0  0
 47 40  2  0  0  0  0
 49 42  2  0  0  0  0
M  END
>  <MODEL>
8

>  <REMARK>
 VINA RESULT:      -6.7      3.296      4.874
  Name = 
  9 active torsions:
  status: ('A' for Active; 'I' for Inactive)
    1  A    between atoms: C_7  and  C_32
    2  A    between atoms: C_7  and  N_42
    3  A    between atoms: C_12  and  C_47
    4  A    between atoms: C_15  and  C_24
    5  A    between atoms: C_15  and  O_48
    6  A    between atoms: C_21  and  C_43
    7  A    between atoms: N_30  and  C_43
    8  A    between atoms: N_33  and  C_38
    9  A    between atoms: C_35  and  O_48
                            x       y       z     vdW  Elec       q    Type
                         _______ _______ _______ _____ _____    ______ ____

>  <TORSDO>
F 9

$$$$
=
 OpenBabel11032419413D

 49 56  0  0  1  0  0  0  0  0999 V2000
  182.9270  180.0550  139.4970 C   0  0  0  0  0  2  0  0  0  0  0  0
  183.2130  178.5950  139.8130 C   0  0  2  0  0  3  0  0  0  0  0  0
  181.6740  180.0070  140.3570 C   0  0  2  0  0  3  0  0  0  0  0  0
  181.9780  178.5420  140.7020 C   0  0  1  0  0  3  0  0  0  0  0  0
  183.8970  173.3890  136.3060 C   0  0  0  0  0  0  0  0  0  0  0  0
  185.8220  172.7610  135.0070 C   0  0  0  0  0  3  0  0  0  0  0  0
  181.1030  176.7930  138.9340 C   0  0  0  0  0  2  0  0  0  0  0  0
  180.9530  177.5280  140.2450 C   0  0  0  0  0  0  0  0  0  0  0  0
  182.6320  173.2500  136.7800 N   0  0  0  0  0  0  0  0  0  0  0  0
  179.5330  175.2030  139.8670 N   0  0  0  0  0  0  0  0  0  0  0  0
  181.0620  174.3040  138.3170 N   0  0  0  0  0  2  0  0  0  0  0  0
  179.9490  177.2620  141.0120 N   0  0  0  0  0  0  0  0  0  0  0  0
  184.5000  172.5080  135.4080 C   0  0  0  0  0  3  0  0  0  0  0  0
  183.6130  175.3390  137.8470 S   0  0  0  0  0  0  0  0  0  0  0  0
  178.9310  176.3090  140.6150 C   0  0  0  0  0  2  0  0  0  0  0  0
  180.5420  175.4040  139.0720 C   0  0  0  0  0  0  0  0  0  0  0  0
  184.5920  174.4880  136.7870 C   0  0  0  0  0  0  0  0  0  0  0  0
  185.9030  174.7590  136.4090 C   0  0  0  0  0  3  0  0  0  0  0  0
  182.3210  174.2560  137.6310 C   0  0  0  0  0  0  0  0  0  0  0  0
  186.5190  173.8790  135.5050 C   0  0  0  0  0  3  0  0  0  0  0  0
  180.4280  180.2430  139.5440 C   0  0  0  0  0  0  0  0  0  0  0  0
  179.3700  180.6390  140.1040 O   0  0  0  0  0  0  0  0  0  0  0  0
  180.2030  181.5520  134.9410 C   0  0  0  0  0  3  0  0  0  0  0  0
  181.5520  182.5070  137.5660 S   0  0  0  0  0  0  0  0  0  0  0  0
  179.8910  182.7860  135.3780 C   0  0  0  0  0  3  0  0  0  0  0  0
  180.8380  180.4680  135.7810 C   0  0  0  0  0  2  0  0  0  0  0  0
  180.0690  183.2520  136.8010 C   0  0  1  0  0  3  0  0  0  0  0  0
  180.4950  180.0370  138.1260 N   0  0  0  0  0  0  0  0  0  0  0  0
  180.9390  180.8550  137.2150 C   0  0  0  0  0  0  0  0  0  0  0  0
  178.9310  182.9400  137.5490 O   0  0  0  0  0  0  0  0  0  0  0  0
  179.0520  183.6870  138.7220 C   0  0  0  0  0  2  0  0  0  0  0  0
  179.0400  185.9050  139.5640 F   0  0  0  0  0  0  0  0  0  0  0  0
  178.9560  185.1660  138.4000 C   0  0  0  0  0  2  0  0  0  0  0  0
  184.4660  178.4730  140.6590 C   0  0  0  0  0  2  0  0  0  0  0  0
  184.9250  177.4990  142.7350 C   0  0  0  0  0  2  0  0  0  0  0  0
  184.5730  179.7880  142.5900 C   0  0  0  0  0  2  0  0  0  0  0  0
  184.1160  178.5090  142.0680 N   0  0  0  0  0  0  0  0  0  0  0  0
  185.0740  179.5540  143.9960 C   0  0  0  0  0  2  0  0  0  0  0  0
  185.4160  178.0820  144.0460 C   0  0  2  0  0  3  0  0  0  0  0  0
  186.6340  177.4090  146.4220 O   0  0  0  0  0  0  0  0  0  0  0  0
  189.5410  177.4710  144.4010 C   0  0  0  0  0  0  0  0  0  0  0  0
  187.6520  178.0060  143.1110 N   0  0  0  0  0  0  0  0  0  0  0  0
  189.4670  176.9750  146.6680 C   0  0  0  0  0  3  0  0  0  0  0  0
  188.7540  177.3280  145.5180 C   0  0  0  0  0  0  0  0  0  0  0  0
  191.1350  177.1660  144.7970 S   0  0  0  0  0  0  0  0  0  0  0  0
  190.8390  176.8410  146.4340 C   0  0  0  0  0  3  0  0  0  0  0  0
  187.3790  177.5360  145.4120 C   0  0  0  0  0  0  0  0  0  0  0  0
  186.8580  177.8780  144.1890 N   0  0  0  0  0  0  0  0  0  0  0  0
  188.9990  177.8130  143.1740 C   0  0  0  0  0  3  0  0  0  0  0  0
  1  2  1  0  0  0  0
  1  3  1  0  0  0  0
  2 34  1  1  0  0  0
  2  4  1  0  0  0  0
  3 21  1  6  0  0  0
  3  4  1  0  0  0  0
  4  8  1  6  0  0  0
  5  9  1  0  0  0  0
  5 17  1  0  0  0  0
  6 13  1  0  0  0  0
  6 20  2  0  0  0  0
  7 16  1  0  0  0  0
  7  8  1  0  0  0  0
  8 12  2  0  0  0  0
  9 19  2  0  0  0  0
 10 15  1  0  0  0  0
 11 16  1  0  0  0  0
 13  5  2  0  0  0  0
 15 12  1  0  0  0  0
 16 10  2  0  0  0  0
 17 14  1  0  0  0  0
 18 17  2  0  0  0  0
 19 14  1  0  0  0  0
 19 11  1  0  0  0  0
 20 18  1  0  0  0  0
 21 22  2  0  0  0  0
 23 25  2  0  0  0  0
 23 26  1  0  0  0  0
 25 27  1  0  0  0  0
 26 29  1  0  0  0  0
 27 30  1  1  0  0  0
 27 24  1  0  0  0  0
 28 21  1  0  0  0  0
 29 24  1  0  0  0  0
 29 28  2  0  0  0  0
 30 31  1  0  0  0  0
 33 31  1  0  0  0  0
 33 32  1  0  0  0  0
 34 37  1  0  0  0  0
 36 38  1  0  0  0  0
 37 36  1  0  0  0  0
 37 35  1  0  0  0  0
 38 39  1  0  0  0  0
 39 35  1  6  0  0  0
 39 48  1  0  0  0  0
 41 45  1  0  0  0  0
 41 44  2  0  0  0  0
 42 49  2  0  0  0  0
 42 48  1  0  0  0  0
 44 43  1  0  0  0  0
 45 46  1  0  0  0  0
 46 43  2  0  0  0  0
 47 44  1  0  0  0  0
 47 40  2  0  0  0  0
 48 47  1  0  0  0  0
 49 41  1  0  0  0  0
M  END
>  <MODEL>
9

>  <REMARK>
 VINA RESULT:      -6.6      4.467      8.254
  Name = 
  9 active torsions:
  status: ('A' for Active; 'I' for Inactive)
    1  A    between atoms: C_7  and  C_32
    2  A    between atoms: C_7  and  N_42
    3  A    between atoms: C_12  and  C_47
    4  A    between atoms: C_15  and  C_24
    5  A    between atoms: C_15  and  O_48
    6  A    between atoms: C_21  and  C_43
    7  A    between atoms: N_30  and  C_43
    8  A    between atoms: N_33  and  C_38
    9  A    between atoms: C_35  and  O_48
                            x       y       z     vdW  Elec       q    Type
                         _______ _______ _______ _____ _____    ______ ____

>  <TORSDO>
F 9

$$$$
