=
 OpenBabel11032419493D

 27 30  0  0  1  0  0  0  0  0999 V2000
  190.3750  176.7740  140.0450 C   0  0  2  0  0  3  0  0  0  0  0  0
  186.1980  178.3080  145.7190 C   0  0  0  0  0  3  0  0  0  0  0  0
  187.3770  177.8170  142.3220 O   0  0  0  0  0  0  0  0  0  0  0  0
  188.5390  177.4580  141.6310 C   0  0  0  0  0  0  0  0  0  0  0  0
  189.5970  177.0130  142.2770 C   0  0  0  0  0  0  0  0  0  0  0  0
  186.1080  178.1200  144.3930 C   0  0  0  0  0  0  0  0  0  0  0  0
  188.4480  177.3330  145.9000 C   0  0  0  0  0  0  0  0  0  0  0  0
  188.7410  177.5990  139.8680 S   0  0  0  0  0  0  0  0  0  0  0  0
  187.3700  177.8540  146.4930 C   0  0  0  0  0  3  0  0  0  0  0  0
  189.6170  176.9860  143.7500 C   0  0  0  0  0  3  0  0  0  0  0  0
  187.1700  177.3350  143.6580 C   0  0  2  0  0  3  0  0  0  0  0  0
  188.4780  177.2230  144.4250 C   0  0  0  0  0  0  0  0  0  0  0  0
  190.7100  176.6920  141.4620 N   0  0  0  0  0  2  0  0  0  0  0  0
  183.6370  178.7290  144.5210 C   0  0  0  0  0  2  0  0  0  0  0  0
  184.8840  178.5990  143.6620 C   0  0  0  0  0  0  0  0  0  0  0  0
  184.3870  179.9740  144.0710 C   0  0  0  0  0  2  0  0  0  0  0  0
  184.7070  178.2110  142.1830 C   0  0  2  0  0  3  0  0  0  0  0  0
  185.2530  179.2980  141.2720 C   0  0  0  0  0  1  0  0  0  0  0  0
  183.2370  177.4090  140.4080 N   0  0  0  0  0  1  0  0  0  0  0  0
  183.2720  177.8740  141.7850 C   0  0  0  0  0  2  0  0  0  0  0  0
  190.4840  176.6420  147.3600 N   0  0  0  0  0  0  0  0  0  0  0  0
  189.5760  176.9510  146.7090 C   0  0  0  0  0  0  0  0  0  0  0  0
  191.4580  177.5040  139.2580 C   0  0  0  0  0  2  0  0  0  0  0  0
  194.3740  175.4850  138.3210 O   0  0  0  0  0  0  0  0  0  0  0  0
  193.2950  176.1260  138.1940 C   0  0  0  0  0  0  0  0  0  0  0  0
  192.7330  176.7970  139.3260 N   0  0  0  0  0  2  0  0  0  0  0  0
  192.6160  176.1640  136.8650 C   0  0  0  0  0  1  0  0  0  0  0  0
  1 23  1  6  0  0  0
  1 13  1  0  0  0  0
  2  9  1  0  0  0  0
  4  5  2  0  0  0  0
  4  3  1  0  0  0  0
  5 10  1  0  0  0  0
  6  2  2  0  0  0  0
  7  9  2  0  0  0  0
  7 22  1  0  0  0  0
  8  1  1  0  0  0  0
  8  4  1  0  0  0  0
 10 12  2  0  0  0  0
 11  3  1  6  0  0  0
 11  6  1  0  0  0  0
 11 12  1  0  0  0  0
 12  7  1  0  0  0  0
 13  5  1  0  0  0  0
 15 16  1  0  0  0  0
 15  6  1  0  0  0  0
 15 14  1  0  0  0  0
 16 14  1  0  0  0  0
 17 18  1  6  0  0  0
 17 15  1  0  0  0  0
 19 20  1  0  0  0  0
 20 17  1  0  0  0  0
 22 21  3  0  0  0  0
 23 26  1  0  0  0  0
 25 24  2  0  0  0  0
 25 26  1  0  0  0  0
 27 25  1  0  0  0  0
M  END
>  <MODEL>
1

>  <REMARK>
 VINA RESULT:      -8.4      0.000      0.000
  Name = 
  6 active torsions:
  status: ('A' for Active; 'I' for Inactive)
    1  A    between atoms: C_1  and  C_22
    2  A    between atoms: C_5  and  C_9
    3  A    between atoms: C_5  and  C_20
    4  A    between atoms: C_9  and  C_15
    5  A    between atoms: N_10  and  C_22
    6  A    between atoms: C_14  and  C_16
                            x       y       z     vdW  Elec       q    Type
                         _______ _______ _______ _____ _____    ______ ____

>  <TORSDO>
F 6

$$$$
=
 OpenBabel11032419493D

 27 30  0  0  1  0  0  0  0  0999 V2000
  190.0860  176.8230  140.5220 C   0  0  2  0  0  3  0  0  0  0  0  0
  187.8330  178.0110  147.2670 C   0  0  0  0  0  3  0  0  0  0  0  0
  187.9390  177.7590  143.6490 O   0  0  0  0  0  0  0  0  0  0  0  0
  188.8300  177.4270  142.6220 C   0  0  0  0  0  0  0  0  0  0  0  0
  190.0080  176.9060  142.8950 C   0  0  0  0  0  0  0  0  0  0  0  0
  187.3490  177.9300  146.0180 C   0  0  0  0  0  0  0  0  0  0  0  0
  189.9880  176.9680  146.7080 C   0  0  0  0  0  0  0  0  0  0  0  0
  188.5120  177.7010  140.8920 S   0  0  0  0  0  0  0  0  0  0  0  0
  189.1580  177.4680  147.6280 C   0  0  0  0  0  3  0  0  0  0  0  0
  190.4580  176.7620  144.2910 C   0  0  0  0  0  3  0  0  0  0  0  0
  188.1100  177.1790  144.9500 C   0  0  2  0  0  3  0  0  0  0  0  0
  189.5790  176.9740  145.2870 C   0  0  0  0  0  0  0  0  0  0  0  0
  190.8170  176.6220  141.7670 N   0  0  0  0  0  2  0  0  0  0  0  0
  184.8610  177.9400  146.5710 C   0  0  0  0  0  2  0  0  0  0  0  0
  185.9890  178.4960  145.7160 C   0  0  0  0  0  0  0  0  0  0  0  0
  185.3860  179.3470  146.8200 C   0  0  0  0  0  2  0  0  0  0  0  0
  185.6640  178.9090  144.2690 C   0  0  2  0  0  3  0  0  0  0  0  0
  184.9200  180.2340  144.2410 C   0  0  0  0  0  1  0  0  0  0  0  0
  184.8350  178.2490  142.0710 N   0  0  0  0  0  1  0  0  0  0  0  0
  184.8890  177.8630  143.4720 C   0  0  0  0  0  2  0  0  0  0  0  0
  192.3280  176.1160  147.4480 N   0  0  0  0  0  0  0  0  0  0  0  0
  191.2840  176.4960  147.1190 C   0  0  0  0  0  0  0  0  0  0  0  0
  190.9230  177.5860  139.5010 C   0  0  0  0  0  2  0  0  0  0  0  0
  194.0440  175.9860  138.4230 O   0  0  0  0  0  0  0  0  0  0  0  0
  192.8610  176.4210  138.3630 C   0  0  0  0  0  0  0  0  0  0  0  0
  192.3040  177.1120  139.4860 N   0  0  0  0  0  2  0  0  0  0  0  0
  192.0580  176.1970  137.1240 C   0  0  0  0  0  1  0  0  0  0  0  0
  1 23  1  6  0  0  0
  1  8  1  0  0  0  0
  1 13  1  0  0  0  0
  2  9  1  0  0  0  0
  4  5  2  0  0  0  0
  4  3  1  0  0  0  0
  5 10  1  0  0  0  0
  6  2  2  0  0  0  0
  7 22  1  0  0  0  0
  7  9  2  0  0  0  0
  8  4  1  0  0  0  0
 10 12  2  0  0  0  0
 11  3  1  6  0  0  0
 11 12  1  0  0  0  0
 11  6  1  0  0  0  0
 12  7  1  0  0  0  0
 13  5  1  0  0  0  0
 14 16  1  0  0  0  0
 15  6  1  0  0  0  0
 15 14  1  0  0  0  0
 15 16  1  0  0  0  0
 17 18  1  1  0  0  0
 17 15  1  0  0  0  0
 19 20  1  0  0  0  0
 20 17  1  0  0  0  0
 22 21  3  0  0  0  0
 25 24  2  0  0  0  0
 25 26  1  0  0  0  0
 26 23  1  0  0  0  0
 27 25  1  0  0  0  0
M  END
>  <MODEL>
2

>  <REMARK>
 VINA RESULT:      -8.4      1.241      1.769
  Name = 
  6 active torsions:
  status: ('A' for Active; 'I' for Inactive)
    1  A    between atoms: C_1  and  C_22
    2  A    between atoms: C_5  and  C_9
    3  A    between atoms: C_5  and  C_20
    4  A    between atoms: C_9  and  C_15
    5  A    between atoms: N_10  and  C_22
    6  A    between atoms: C_14  and  C_16
                            x       y       z     vdW  Elec       q    Type
                         _______ _______ _______ _____ _____    ______ ____

>  <TORSDO>
F 6

$$$$
=
 OpenBabel11032419493D

 27 30  0  0  1  0  0  0  0  0999 V2000
  189.2290  178.1980  138.7570 C   0  0  2  0  0  3  0  0  0  0  0  0
  187.4850  177.4160  145.7100 C   0  0  0  0  0  3  0  0  0  0  0  0
  189.3720  177.6030  142.6160 O   0  0  0  0  0  0  0  0  0  0  0  0
  189.1690  177.7980  141.2450 C   0  0  0  0  0  0  0  0  0  0  0  0
  187.9900  178.1590  140.7830 C   0  0  0  0  0  0  0  0  0  0  0  0
  188.5670  177.5450  144.9270 C   0  0  0  0  0  0  0  0  0  0  0  0
  185.9040  178.1500  143.9770 C   0  0  0  0  0  0  0  0  0  0  0  0
  190.4180  177.5460  140.0010 S   0  0  0  0  0  0  0  0  0  0  0  0
  186.1340  177.7800  145.2390 C   0  0  0  0  0  3  0  0  0  0  0  0
  186.8310  178.2590  141.6880 C   0  0  0  0  0  3  0  0  0  0  0  0
  188.4500  178.1720  143.5560 C   0  0  2  0  0  3  0  0  0  0  0  0
  187.0280  178.1810  143.0160 C   0  0  0  0  0  0  0  0  0  0  0  0
  187.9150  178.3150  139.3780 N   0  0  0  0  0  2  0  0  0  0  0  0
  190.8740  176.5770  144.4410 C   0  0  0  0  0  2  0  0  0  0  0  0
  189.9180  177.1640  145.4670 C   0  0  0  0  0  0  0  0  0  0  0  0
  191.0770  177.9980  144.9490 C   0  0  0  0  0  2  0  0  0  0  0  0
  190.0200  176.6650  146.9200 C   0  0  2  0  0  3  0  0  0  0  0  0
  189.7300  177.7920  147.8980 C   0  0  0  0  0  1  0  0  0  0  0  0
  192.1410  176.8980  148.1020 N   0  0  0  0  0  1  0  0  0  0  0  0
  191.3510  176.0050  147.2700 C   0  0  0  0  0  2  0  0  0  0  0  0
  183.4700  178.6880  143.2400 N   0  0  0  0  0  0  0  0  0  0  0  0
  184.5550  178.4480  143.5700 C   0  0  0  0  0  0  0  0  0  0  0  0
  189.1820  177.3150  137.5150 C   0  0  0  0  0  2  0  0  0  0  0  0
  190.2990  173.8200  137.4830 O   0  0  0  0  0  0  0  0  0  0  0  0
  190.2500  175.0440  137.1820 C   0  0  0  0  0  0  0  0  0  0  0  0
  189.3280  175.9040  137.8600 N   0  0  0  0  0  2  0  0  0  0  0  0
  191.1500  175.5740  136.1150 C   0  0  0  0  0  1  0  0  0  0  0  0
  1 23  1  6  0  0  0
  1 13  1  0  0  0  0
  1  8  1  0  0  0  0
  4  3  1  0  0  0  0
  5  4  2  0  0  0  0
  5 10  1  0  0  0  0
  6 15  1  0  0  0  0
  6  2  2  0  0  0  0
  7  9  2  0  0  0  0
  8  4  1  0  0  0  0
  9  2  1  0  0  0  0
 10 12  2  0  0  0  0
 11  3  1  6  0  0  0
 11  6  1  0  0  0  0
 12 11  1  0  0  0  0
 12  7  1  0  0  0  0
 13  5  1  0  0  0  0
 14 16  1  0  0  0  0
 14 15  1  0  0  0  0
 15 17  1  0  0  0  0
 16 15  1  0  0  0  0
 17 20  1  0  0  0  0
 17 18  1  1  0  0  0
 20 19  1  0  0  0  0
 21 22  3  0  0  0  0
 22  7  1  0  0  0  0
 23 26  1  0  0  0  0
 25 24  2  0  0  0  0
 25 26  1  0  0  0  0
 27 25  1  0  0  0  0
M  END
>  <MODEL>
3

>  <REMARK>
 VINA RESULT:      -8.3      2.095      5.223
  Name = 
  6 active torsions:
  status: ('A' for Active; 'I' for Inactive)
    1  A    between atoms: C_1  and  C_22
    2  A    between atoms: C_5  and  C_9
    3  A    between atoms: C_5  and  C_20
    4  A    between atoms: C_9  and  C_15
    5  A    between atoms: N_10  and  C_22
    6  A    between atoms: C_14  and  C_16
                            x       y       z     vdW  Elec       q    Type
                         _______ _______ _______ _____ _____    ______ ____

>  <TORSDO>
F 6

$$$$
=
 OpenBabel11032419493D

 27 30  0  0  1  0  0  0  0  0999 V2000
  189.1500  178.2130  138.7220 C   0  0  2  0  0  3  0  0  0  0  0  0
  188.1200  177.2000  145.7860 C   0  0  0  0  0  3  0  0  0  0  0  0
  189.6830  177.4880  142.5230 O   0  0  0  0  0  0  0  0  0  0  0  0
  189.3420  177.7300  141.1880 C   0  0  0  0  0  0  0  0  0  0  0  0
  188.1240  178.1080  140.8620 C   0  0  0  0  0  0  0  0  0  0  0  0
  189.1180  177.3530  144.9020 C   0  0  0  0  0  0  0  0  0  0  0  0
  186.3740  177.9960  144.2490 C   0  0  0  0  0  0  0  0  0  0  0  0
  190.4560  177.5170  139.8160 S   0  0  0  0  0  0  0  0  0  0  0  0
  186.7300  177.5830  145.4690 C   0  0  0  0  0  3  0  0  0  0  0  0
  187.0640  178.1800  141.8830 C   0  0  0  0  0  3  0  0  0  0  0  0
  188.8650  178.0260  143.5720 C   0  0  2  0  0  3  0  0  0  0  0  0
  187.3950  178.0570  143.1800 C   0  0  0  0  0  0  0  0  0  0  0  0
  187.9070  178.3120  139.4770 N   0  0  0  0  0  2  0  0  0  0  0  0
  191.3700  176.4350  144.1430 C   0  0  0  0  0  2  0  0  0  0  0  0
  190.5140  176.9520  145.2880 C   0  0  0  0  0  0  0  0  0  0  0  0
  191.6170  177.8240  144.7140 C   0  0  0  0  0  2  0  0  0  0  0  0
  190.7540  176.3670  146.6920 C   0  0  2  0  0  3  0  0  0  0  0  0
  190.6070  177.4430  147.7550 C   0  0  0  0  0  1  0  0  0  0  0  0
  192.7050  176.0400  148.1200 N   0  0  0  0  0  1  0  0  0  0  0  0
  192.0930  175.6530  146.8590 C   0  0  0  0  0  2  0  0  0  0  0  0
  183.8820  178.5650  143.7840 N   0  0  0  0  0  0  0  0  0  0  0  0
  184.9930  178.3110  143.9920 C   0  0  0  0  0  0  0  0  0  0  0  0
  188.9720  177.3740  137.4620 C   0  0  0  0  0  2  0  0  0  0  0  0
  186.3710  174.7930  137.2720 O   0  0  0  0  0  0  0  0  0  0  0  0
  187.0390  175.8170  136.9630 C   0  0  0  0  0  0  0  0  0  0  0  0
  188.1940  176.1690  137.7320 N   0  0  0  0  0  2  0  0  0  0  0  0
  186.6070  176.6530  135.8040 C   0  0  0  0  0  1  0  0  0  0  0  0
  1 23  1  6  0  0  0
  1 13  1  0  0  0  0
  1  8  1  0  0  0  0
  4  3  1  0  0  0  0
  5  4  2  0  0  0  0
  5 10  1  0  0  0  0
  6 15  1  0  0  0  0
  6  2  2  0  0  0  0
  7  9  2  0  0  0  0
  8  4  1  0  0  0  0
  9  2  1  0  0  0  0
 10 12  2  0  0  0  0
 11  3  1  6  0  0  0
 11  6  1  0  0  0  0
 12 11  1  0  0  0  0
 12  7  1  0  0  0  0
 13  5  1  0  0  0  0
 14 16  1  0  0  0  0
 14 15  1  0  0  0  0
 15 17  1  0  0  0  0
 16 15  1  0  0  0  0
 17 20  1  0  0  0  0
 17 18  1  1  0  0  0
 20 19  1  0  0  0  0
 21 22  3  0  0  0  0
 22  7  1  0  0  0  0
 23 26  1  0  0  0  0
 25 24  2  0  0  0  0
 25 26  1  0  0  0  0
 27 25  1  0  0  0  0
M  END
>  <MODEL>
4

>  <REMARK>
 VINA RESULT:      -8.1      2.718      5.764
  Name = 
  6 active torsions:
  status: ('A' for Active; 'I' for Inactive)
    1  A    between atoms: C_1  and  C_22
    2  A    between atoms: C_5  and  C_9
    3  A    between atoms: C_5  and  C_20
    4  A    between atoms: C_9  and  C_15
    5  A    between atoms: N_10  and  C_22
    6  A    between atoms: C_14  and  C_16
                            x       y       z     vdW  Elec       q    Type
                         _______ _______ _______ _____ _____    ______ ____

>  <TORSDO>
F 6

$$$$
=
 OpenBabel11032419493D

 27 30  0  0  1  0  0  0  0  0999 V2000
  188.2670  178.2610  139.4870 C   0  0  2  0  0  3  0  0  0  0  0  0
  186.3530  177.8800  146.4280 C   0  0  0  0  0  3  0  0  0  0  0  0
  188.3120  177.8690  143.3730 O   0  0  0  0  0  0  0  0  0  0  0  0
  188.1440  177.9940  141.9900 C   0  0  0  0  0  0  0  0  0  0  0  0
  186.9820  178.3520  141.4830 C   0  0  0  0  0  0  0  0  0  0  0  0
  187.4550  177.9480  145.6650 C   0  0  0  0  0  0  0  0  0  0  0  0
  184.8260  178.5500  144.6220 C   0  0  0  0  0  0  0  0  0  0  0  0
  189.4150  177.6540  140.7910 S   0  0  0  0  0  0  0  0  0  0  0  0
  185.0200  178.2430  145.9080 C   0  0  0  0  0  3  0  0  0  0  0  0
  185.8060  178.5210  142.3540 C   0  0  0  0  0  3  0  0  0  0  0  0
  187.3810  178.5030  144.2610 C   0  0  2  0  0  3  0  0  0  0  0  0
  185.9710  178.5100  143.6880 C   0  0  0  0  0  0  0  0  0  0  0  0
  186.9420  178.4340  140.0690 N   0  0  0  0  0  2  0  0  0  0  0  0
  189.0510  178.1350  147.6430 C   0  0  0  0  0  2  0  0  0  0  0  0
  188.7860  177.5720  146.2560 C   0  0  0  0  0  0  0  0  0  0  0  0
  188.7170  176.6610  147.4690 C   0  0  0  0  0  2  0  0  0  0  0  0
  189.9860  177.3780  145.3120 C   0  0  2  0  0  3  0  0  0  0  0  0
  190.9910  176.4080  145.9110 C   0  0  0  0  0  1  0  0  0  0  0  0
  191.6750  178.3980  143.8770 N   0  0  0  0  0  1  0  0  0  0  0  0
  190.6910  178.6720  144.9110 C   0  0  0  0  0  2  0  0  0  0  0  0
  182.4200  179.0950  143.8050 N   0  0  0  0  0  0  0  0  0  0  0  0
  183.4920  178.8510  144.1690 C   0  0  0  0  0  0  0  0  0  0  0  0
  188.2310  177.3150  138.2920 C   0  0  0  0  0  2  0  0  0  0  0  0
  190.6110  174.5560  137.8580 O   0  0  0  0  0  0  0  0  0  0  0  0
  189.9970  175.6310  137.6170 C   0  0  0  0  0  0  0  0  0  0  0  0
  189.0170  176.1100  138.5430 N   0  0  0  0  0  2  0  0  0  0  0  0
  190.2960  176.3820  136.3610 C   0  0  0  0  0  1  0  0  0  0  0  0
  1 23  1  6  0  0  0
  1 13  1  0  0  0  0
  1  8  1  0  0  0  0
  4  3  1  0  0  0  0
  5  4  2  0  0  0  0
  5 10  1  0  0  0  0
  6 15  1  0  0  0  0
  6  2  2  0  0  0  0
  7  9  2  0  0  0  0
  8  4  1  0  0  0  0
  9  2  1  0  0  0  0
 10 12  2  0  0  0  0
 11  3  1  6  0  0  0
 11  6  1  0  0  0  0
 12 11  1  0  0  0  0
 12  7  1  0  0  0  0
 13  5  1  0  0  0  0
 15 16  1  0  0  0  0
 15 14  1  0  0  0  0
 16 14  1  0  0  0  0
 17 18  1  1  0  0  0
 17 15  1  0  0  0  0
 19 20  1  0  0  0  0
 20 17  1  0  0  0  0
 21 22  3  0  0  0  0
 22  7  1  0  0  0  0
 23 26  1  0  0  0  0
 25 24  2  0  0  0  0
 25 26  1  0  0  0  0
 27 25  1  0  0  0  0
M  END
>  <MODEL>
5

>  <REMARK>
 VINA RESULT:      -8.1      2.236      4.864
  Name = 
  6 active torsions:
  status: ('A' for Active; 'I' for Inactive)
    1  A    between atoms: C_1  and  C_22
    2  A    between atoms: C_5  and  C_9
    3  A    between atoms: C_5  and  C_20
    4  A    between atoms: C_9  and  C_15
    5  A    between atoms: N_10  and  C_22
    6  A    between atoms: C_14  and  C_16
                            x       y       z     vdW  Elec       q    Type
                         _______ _______ _______ _____ _____    ______ ____

>  <TORSDO>
F 6

$$$$
=
 OpenBabel11032419493D

 27 30  0  0  1  0  0  0  0  0999 V2000
  187.0720  178.5220  137.5930 C   0  0  2  0  0  3  0  0  0  0  0  0
  187.6510  177.3340  144.6810 C   0  0  0  0  0  3  0  0  0  0  0  0
  188.4310  177.6550  141.1520 O   0  0  0  0  0  0  0  0  0  0  0  0
  187.8030  177.9530  139.9370 C   0  0  0  0  0  0  0  0  0  0  0  0
  186.5640  178.3960  139.9100 C   0  0  0  0  0  0  0  0  0  0  0  0
  188.4240  177.4710  143.5930 C   0  0  0  0  0  0  0  0  0  0  0  0
  185.6400  178.2560  143.6080 C   0  0  0  0  0  0  0  0  0  0  0  0
  188.5580  177.7340  138.3390 S   0  0  0  0  0  0  0  0  0  0  0  0
  186.2460  177.7890  144.7030 C   0  0  0  0  0  3  0  0  0  0  0  0
  185.7730  178.4830  141.1510 C   0  0  0  0  0  3  0  0  0  0  0  0
  187.9050  178.1960  142.3720 C   0  0  2  0  0  3  0  0  0  0  0  0
  186.3880  178.3050  142.3330 C   0  0  0  0  0  0  0  0  0  0  0  0
  186.0430  178.6530  138.6180 N   0  0  0  0  0  2  0  0  0  0  0  0
  190.0520  175.5460  143.2200 C   0  0  0  0  0  2  0  0  0  0  0  0
  189.8500  176.9950  143.6360 C   0  0  0  0  0  0  0  0  0  0  0  0
  190.4620  176.6740  142.2840 C   0  0  0  0  0  2  0  0  0  0  0  0
  190.7930  177.5800  144.7030 C   0  0  2  0  0  3  0  0  0  0  0  0
  191.6660  178.6720  144.1080 C   0  0  0  0  0  1  0  0  0  0  0  0
  191.7280  176.8430  146.8320 N   0  0  0  0  0  1  0  0  0  0  0  0
  191.6660  176.5470  145.4100 C   0  0  0  0  0  2  0  0  0  0  0  0
  183.1400  178.9500  143.7460 N   0  0  0  0  0  0  0  0  0  0  0  0
  184.2550  178.6400  143.6860 C   0  0  0  0  0  0  0  0  0  0  0  0
  186.5650  177.7310  136.3920 C   0  0  0  0  0  2  0  0  0  0  0  0
  184.3830  174.8810  137.1490 O   0  0  0  0  0  0  0  0  0  0  0  0
  185.4410  175.5220  136.9050 C   0  0  0  0  0  0  0  0  0  0  0  0
  185.3860  176.9420  136.7350 N   0  0  0  0  0  2  0  0  0  0  0  0
  186.7350  174.7850  136.7870 C   0  0  0  0  0  1  0  0  0  0  0  0
  1 23  1  6  0  0  0
  1  8  1  0  0  0  0
  1 13  1  0  0  0  0
  2  9  1  0  0  0  0
  4  3  1  0  0  0  0
  5  4  2  0  0  0  0
  5 10  1  0  0  0  0
  6 15  1  0  0  0  0
  6  2  2  0  0  0  0
  7 22  1  0  0  0  0
  7  9  2  0  0  0  0
  8  4  1  0  0  0  0
 10 12  2  0  0  0  0
 11  3  1  6  0  0  0
 11  6  1  0  0  0  0
 12 11  1  0  0  0  0
 12  7  1  0  0  0  0
 13  5  1  0  0  0  0
 14 15  1  0  0  0  0
 15 17  1  0  0  0  0
 16 14  1  0  0  0  0
 16 15  1  0  0  0  0
 17 18  1  6  0  0  0
 17 20  1  0  0  0  0
 20 19  1  0  0  0  0
 22 21  3  0  0  0  0
 23 26  1  0  0  0  0
 25 24  2  0  0  0  0
 26 25  1  0  0  0  0
 27 25  1  0  0  0  0
M  END
>  <MODEL>
6

>  <REMARK>
 VINA RESULT:      -7.9      3.047      6.011
  Name = 
  6 active torsions:
  status: ('A' for Active; 'I' for Inactive)
    1  A    between atoms: C_1  and  C_22
    2  A    between atoms: C_5  and  C_9
    3  A    between atoms: C_5  and  C_20
    4  A    between atoms: C_9  and  C_15
    5  A    between atoms: N_10  and  C_22
    6  A    between atoms: C_14  and  C_16
                            x       y       z     vdW  Elec       q    Type
                         _______ _______ _______ _____ _____    ______ ____

>  <TORSDO>
F 6

$$$$
=
 OpenBabel11032419493D

 27 30  0  0  1  0  0  0  0  0999 V2000
  183.6970  179.3050  144.1040 C   0  0  2  0  0  3  0  0  0  0  0  0
  190.1760  176.7070  145.9100 C   0  0  0  0  0  3  0  0  0  0  0  0
  187.3180  177.8460  143.9840 O   0  0  0  0  0  0  0  0  0  0  0  0
  186.0200  178.3290  144.1750 C   0  0  0  0  0  0  0  0  0  0  0  0
  185.5870  178.6400  145.3800 C   0  0  0  0  0  0  0  0  0  0  0  0
  189.5060  177.1490  144.8340 C   0  0  0  0  0  0  0  0  0  0  0  0
  188.5700  177.6250  147.5290 C   0  0  0  0  0  0  0  0  0  0  0  0
  184.8240  178.5330  142.8720 S   0  0  0  0  0  0  0  0  0  0  0  0
  189.7250  177.0010  147.2850 C   0  0  0  0  0  3  0  0  0  0  0  0
  186.4230  178.3800  146.5650 C   0  0  0  0  0  3  0  0  0  0  0  0
  188.3110  178.0600  144.9980 C   0  0  2  0  0  3  0  0  0  0  0  0
  187.7070  178.0190  146.3940 C   0  0  0  0  0  0  0  0  0  0  0  0
  184.2520  179.1100  145.4380 N   0  0  0  0  0  2  0  0  0  0  0  0
  190.8770  175.5690  143.3790 C   0  0  0  0  0  2  0  0  0  0  0  0
  190.0200  176.8230  143.4590 C   0  0  0  0  0  0  0  0  0  0  0  0
  189.4530  175.5560  142.8440 C   0  0  0  0  0  2  0  0  0  0  0  0
  190.3370  177.9800  142.4940 C   0  0  2  0  0  3  0  0  0  0  0  0
  189.1760  178.2200  141.5430 C   0  0  0  0  0  1  0  0  0  0  0  0
  191.3200  177.4300  140.3300 N   0  0  0  0  0  1  0  0  0  0  0  0
  191.6290  177.8050  141.7000 C   0  0  0  0  0  2  0  0  0  0  0  0
  187.8420  178.0160  149.9930 N   0  0  0  0  0  0  0  0  0  0  0  0
  188.1660  177.8400  148.8940 C   0  0  0  0  0  0  0  0  0  0  0  0
  182.2850  178.7390  144.0000 C   0  0  0  0  0  2  0  0  0  0  0  0
  179.9760  179.0710  141.1670 O   0  0  0  0  0  0  0  0  0  0  0  0
  180.3770  179.0390  142.3630 C   0  0  0  0  0  0  0  0  0  0  0  0
  181.7680  178.8470  142.6390 N   0  0  0  0  0  2  0  0  0  0  0  0
  179.3890  179.1900  143.4730 C   0  0  0  0  0  1  0  0  0  0  0  0
  1 23  1  1  0  0  0
  1 13  1  0  0  0  0
  2  9  1  0  0  0  0
  3  4  1  0  0  0  0
  4  5  2  0  0  0  0
  5 13  1  0  0  0  0
  5 10  1  0  0  0  0
  6 11  1  0  0  0  0
  6  2  2  0  0  0  0
  7 22  1  0  0  0  0
  8  1  1  0  0  0  0
  8  4  1  0  0  0  0
  9  7  2  0  0  0  0
 11  3  1  6  0  0  0
 11 12  1  0  0  0  0
 12 10  2  0  0  0  0
 12  7  1  0  0  0  0
 14 15  1  0  0  0  0
 15  6  1  0  0  0  0
 16 14  1  0  0  0  0
 16 15  1  0  0  0  0
 17 18  1  6  0  0  0
 17 15  1  0  0  0  0
 19 20  1  0  0  0  0
 20 17  1  0  0  0  0
 22 21  3  0  0  0  0
 24 25  2  0  0  0  0
 25 26  1  0  0  0  0
 25 27  1  0  0  0  0
 26 23  1  0  0  0  0
M  END
>  <MODEL>
7

>  <REMARK>
 VINA RESULT:      -7.9      2.961      7.478
  Name = 
  6 active torsions:
  status: ('A' for Active; 'I' for Inactive)
    1  A    between atoms: C_1  and  C_22
    2  A    between atoms: C_5  and  C_9
    3  A    between atoms: C_5  and  C_20
    4  A    between atoms: C_9  and  C_15
    5  A    between atoms: N_10  and  C_22
    6  A    between atoms: C_14  and  C_16
                            x       y       z     vdW  Elec       q    Type
                         _______ _______ _______ _____ _____    ______ ____

>  <TORSDO>
F 6

$$$$
=
 OpenBabel11032419493D

 27 30  0  0  1  0  0  0  0  0999 V2000
  185.0080  178.6710  139.9560 C   0  0  2  0  0  3  0  0  0  0  0  0
  191.9330  177.5180  141.5990 C   0  0  0  0  0  3  0  0  0  0  0  0
  188.3970  178.2920  141.8610 O   0  0  0  0  0  0  0  0  0  0  0  0
  187.2660  178.4280  141.0490 C   0  0  0  0  0  0  0  0  0  0  0  0
  187.3030  178.0840  139.7790 C   0  0  0  0  0  0  0  0  0  0  0  0
  190.7460  177.6920  142.2010 C   0  0  0  0  0  0  0  0  0  0  0  0
  190.9650  177.0930  139.3800 C   0  0  0  0  0  0  0  0  0  0  0  0
  185.7130  179.1010  141.6000 S   0  0  0  0  0  0  0  0  0  0  0  0
  192.0390  177.1560  140.1710 C   0  0  0  0  0  3  0  0  0  0  0  0
  188.5670  177.6500  139.1570 C   0  0  0  0  0  3  0  0  0  0  0  0
  189.4620  177.4210  141.4520 C   0  0  2  0  0  3  0  0  0  0  0  0
  189.6340  177.4110  139.9410 C   0  0  0  0  0  0  0  0  0  0  0  0
  186.0940  178.2780  139.0660 N   0  0  0  0  0  2  0  0  0  0  0  0
  191.9070  178.8410  144.1570 C   0  0  0  0  0  2  0  0  0  0  0  0
  190.7050  178.0530  143.6600 C   0  0  0  0  0  0  0  0  0  0  0  0
  190.5680  179.5360  143.9530 C   0  0  0  0  0  2  0  0  0  0  0  0
  190.0170  177.0860  144.6420 C   0  0  2  0  0  3  0  0  0  0  0  0
  188.7390  177.6980  145.1910 C   0  0  0  0  0  1  0  0  0  0  0  0
  190.2180  176.8220  147.0580 N   0  0  0  0  0  1  0  0  0  0  0  0
  190.9030  176.6170  145.7930 C   0  0  0  0  0  2  0  0  0  0  0  0
  191.2820  176.5250  136.8640 N   0  0  0  0  0  0  0  0  0  0  0  0
  191.1410  176.7790  137.9850 C   0  0  0  0  0  0  0  0  0  0  0  0
  184.2030  179.8280  139.3740 C   0  0  0  0  0  2  0  0  0  0  0  0
  180.9110  179.7580  137.7550 O   0  0  0  0  0  0  0  0  0  0  0  0
  181.9460  180.2300  138.3000 C   0  0  0  0  0  0  0  0  0  0  0  0
  183.0070  179.3510  138.6860 N   0  0  0  0  0  2  0  0  0  0  0  0
  182.0420  181.7010  138.5440 C   0  0  0  0  0  1  0  0  0  0  0  0
  1 23  1  6  0  0  0
  1  8  1  0  0  0  0
  2  6  2  0  0  0  0
  4  8  1  0  0  0  0
  4  3  1  0  0  0  0
  5  4  2  0  0  0  0
  6 15  1  0  0  0  0
  7 12  1  0  0  0  0
  7  9  2  0  0  0  0
  9  2  1  0  0  0  0
 10  5  1  0  0  0  0
 10 12  2  0  0  0  0
 11 12  1  6  0  0  0
 11  3  1  0  0  0  0
 11  6  1  0  0  0  0
 13  5  1  0  0  0  0
 13  1  1  0  0  0  0
 15 16  1  0  0  0  0
 15 14  1  0  0  0  0
 15 17  1  0  0  0  0
 16 14  1  0  0  0  0
 17 18  1  1  0  0  0
 17 20  1  0  0  0  0
 20 19  1  0  0  0  0
 21 22  3  0  0  0  0
 22  7  1  0  0  0  0
 24 25  2  0  0  0  0
 25 27  1  0  0  0  0
 25 26  1  0  0  0  0
 26 23  1  0  0  0  0
M  END
>  <MODEL>
8

>  <REMARK>
 VINA RESULT:      -7.5      2.842      7.580
  Name = 
  6 active torsions:
  status: ('A' for Active; 'I' for Inactive)
    1  A    between atoms: C_1  and  C_22
    2  A    between atoms: C_5  and  C_9
    3  A    between atoms: C_5  and  C_20
    4  A    between atoms: C_9  and  C_15
    5  A    between atoms: N_10  and  C_22
    6  A    between atoms: C_14  and  C_16
                            x       y       z     vdW  Elec       q    Type
                         _______ _______ _______ _____ _____    ______ ____

>  <TORSDO>
F 6

$$$$
=
 OpenBabel11032419493D

 27 30  0  0  1  0  0  0  0  0999 V2000
  189.6630  177.8980  143.1370 C   0  0  2  0  0  3  0  0  0  0  0  0
  189.8430  176.3830  136.0900 C   0  0  0  0  0  3  0  0  0  0  0  0
  188.7170  177.4360  139.3760 O   0  0  0  0  0  0  0  0  0  0  0  0
  189.1780  177.5140  140.6940 C   0  0  0  0  0  0  0  0  0  0  0  0
  190.4420  177.2810  140.9800 C   0  0  0  0  0  0  0  0  0  0  0  0
  189.0670  177.0050  136.9910 C   0  0  0  0  0  0  0  0  0  0  0  0
  191.8120  176.2910  137.5600 C   0  0  0  0  0  0  0  0  0  0  0  0
  188.1450  177.8790  142.0970 S   0  0  0  0  0  0  0  0  0  0  0  0
  191.2600  176.0710  136.3640 C   0  0  0  0  0  3  0  0  0  0  0  0
  191.3740  176.8240  139.9340 C   0  0  0  0  0  3  0  0  0  0  0  0
  189.6540  177.5050  138.2910 C   0  0  2  0  0  3  0  0  0  0  0  0
  190.9780  176.8470  138.6490 C   0  0  0  0  0  0  0  0  0  0  0  0
  190.7780  177.3840  142.3520 N   0  0  0  0  0  2  0  0  0  0  0  0
  187.3110  178.7770  136.4690 C   0  0  0  0  0  2  0  0  0  0  0  0
  187.6330  177.3020  136.6500 C   0  0  0  0  0  0  0  0  0  0  0  0
  187.4060  177.8620  135.2570 C   0  0  0  0  0  2  0  0  0  0  0  0
  186.5330  176.3860  137.2160 C   0  0  2  0  0  3  0  0  0  0  0  0
  186.7990  174.9350  136.8470 C   0  0  0  0  0  1  0  0  0  0  0  0
  184.3750  177.2420  137.9670 N   0  0  0  0  0  1  0  0  0  0  0  0
  185.1140  176.7730  136.8060 C   0  0  0  0  0  2  0  0  0  0  0  0
  194.2940  175.6280  137.9480 N   0  0  0  0  0  0  0  0  0  0  0  0
  193.1870  175.9230  137.7760 C   0  0  0  0  0  0  0  0  0  0  0  0
  189.4690  177.0980  144.4210 C   0  0  0  0  0  2  0  0  0  0  0  0
  192.0560  176.5270  146.9600 O   0  0  0  0  0  0  0  0  0  0  0  0
  190.9150  176.7530  146.4700 C   0  0  0  0  0  0  0  0  0  0  0  0
  190.7490  176.7830  145.0490 N   0  0  0  0  0  2  0  0  0  0  0  0
  189.7590  176.9960  147.3820 C   0  0  0  0  0  1  0  0  0  0  0  0
  1 23  1  1  0  0  0
  2  9  1  0  0  0  0
  2  6  2  0  0  0  0
  3  4  1  0  0  0  0
  4  5  2  0  0  0  0
  4  8  1  0  0  0  0
  5 13  1  0  0  0  0
  7 22  1  0  0  0  0
  7 12  1  0  0  0  0
  8  1  1  0  0  0  0
  9  7  2  0  0  0  0
 10  5  1  0  0  0  0
 11  6  1  6  0  0  0
 11 12  1  0  0  0  0
 11  3  1  0  0  0  0
 12 10  2  0  0  0  0
 13  1  1  0  0  0  0
 14 15  1  0  0  0  0
 15  6  1  0  0  0  0
 15 17  1  0  0  0  0
 16 14  1  0  0  0  0
 16 15  1  0  0  0  0
 17 18  1  6  0  0  0
 20 17  1  0  0  0  0
 20 19  1  0  0  0  0
 22 21  3  0  0  0  0
 23 26  1  0  0  0  0
 25 24  2  0  0  0  0
 25 27  1  0  0  0  0
 26 25  1  0  0  0  0
M  END
>  <MODEL>
9

>  <REMARK>
 VINA RESULT:      -7.5      3.264      7.149
  Name = 
  6 active torsions:
  status: ('A' for Active; 'I' for Inactive)
    1  A    between atoms: C_1  and  C_22
    2  A    between atoms: C_5  and  C_9
    3  A    between atoms: C_5  and  C_20
    4  A    between atoms: C_9  and  C_15
    5  A    between atoms: N_10  and  C_22
    6  A    between atoms: C_14  and  C_16
                            x       y       z     vdW  Elec       q    Type
                         _______ _______ _______ _____ _____    ______ ____

>  <TORSDO>
F 6

$$$$
