=
 OpenBabel11032419473D

 65 68  0  0  1  0  0  0  0  0999 V2000
  190.2860  176.8050  141.9880 C   0  0  1  0  0  3  0  0  0  0  0  0
  189.2380  177.4240  147.4690 N   0  0  0  0  0  0  0  0  0  0  0  0
  190.9900  176.2650  144.4310 C   0  0  0  0  0  0  0  0  0  0  0  0
  192.0490  175.2690  143.9520 C   0  0  0  0  0  1  0  0  0  0  0  0
  189.7060  177.1980  146.2330 C   0  0  0  0  0  0  0  0  0  0  0  0
  189.1010  177.7480  144.0180 C   0  0  0  0  0  3  0  0  0  0  0  0
  190.7820  176.3970  145.8120 C   0  0  0  0  0  3  0  0  0  0  0  0
  188.9650  177.8320  145.3650 C   0  0  0  0  0  0  0  0  0  0  0  0
  190.1640  177.0020  143.4980 C   0  0  0  0  0  0  0  0  0  0  0  0
  188.1570  178.2180  147.2420 C   0  0  0  0  0  0  0  0  0  0  0  0
  187.9090  178.4300  145.8860 N   0  0  0  0  0  2  0  0  0  0  0  0
  187.1600  178.6030  148.2900 C   0  0  0  0  0  2  0  0  0  0  0  0
  185.7240  178.8860  147.8280 C   0  0  0  0  0  2  0  0  0  0  0  0
  184.9750  177.9260  146.7770 C   0  0  0  0  0  2  0  0  0  0  0  0
  182.8160  178.9650  144.9880 O   0  0  0  0  0  1  0  0  0  0  0  0
  184.5360  178.8680  145.1290 P   0  0  0  0  0  0  0  0  0  0  0  0
  185.0570  178.0290  143.9470 O   0  0  0  0  0  0  0  0  0  0  0  0
  185.2190  180.4750  145.1180 O   0  0  0  0  0  1  0  0  0  0  0  0
  188.5860  179.3260  141.4470 O   0  0  0  0  0  0  0  0  0  0  0  0
  188.2440  178.2160  140.9470 C   0  0  0  0  0  0  0  0  0  0  0  0
  189.0020  177.0130  141.1660 N   0  0  0  0  0  2  0  0  0  0  0  0
  187.0270  178.0540  140.0110 C   0  0  2  0  0  3  0  0  0  0  0  0
  187.3230  177.6890  138.7040 O   0  0  0  0  0  0  0  0  0  0  0  0
  187.6310  178.8600  138.1630 O   0  0  0  0  0  1  0  0  0  0  0  0
  185.7500  178.9020  140.3490 C   0  0  0  0  0  2  0  0  0  0  0  0
  184.4900  178.4030  139.6090 C   0  0  2  0  0  3  0  0  0  0  0  0
  183.9250  179.6840  139.0180 C   0  0  0  0  0  1  0  0  0  0  0  0
  183.4620  177.6480  140.5290 C   0  0  0  0  0  2  0  0  0  0  0  0
  182.1190  177.1970  139.8260 C   0  0  0  0  0  2  0  0  0  0  0  0
  182.4120  176.1110  138.8250 N   0  0  0  0  0  2  0  0  0  0  0  0
  182.4640  176.4110  137.4070 C   0  0  1  0  0  3  0  0  0  0  0  0
  182.0400  174.1150  136.9880 O   0  0  0  0  0  0  0  0  0  0  0  0
  182.5850  175.1690  136.6440 C   0  0  0  0  0  0  0  0  0  0  0  0
  183.1800  175.3220  135.2760 C   0  0  0  0  0  2  0  0  0  0  0  0
  184.6210  175.2490  135.2100 N   0  0  0  0  0  1  0  0  0  0  0  0
  180.1940  176.3460  136.3030 N   0  0  0  0  0  1  0  0  0  0  0  0
  181.1500  177.1480  137.0360 C   0  0  2  0  0  3  0  0  0  0  0  0
  181.3650  178.3570  136.0970 C   0  0  0  0  0  2  0  0  0  0  0  0
  180.5870  179.4570  136.4650 O   0  0  0  0  0  1  0  0  0  0  0  0
  191.5870  177.3130  141.2170 C   0  0  0  0  0  2  0  0  0  0  0  0
  191.3240  177.5890  139.7190 C   0  0  0  0  0  2  0  0  0  0  0  0
  190.8440  176.3880  139.1780 N   0  0  0  0  0  2  0  0  0  0  0  0
  191.0960  176.2730  137.8390 C   0  0  0  0  0  2  0  0  0  0  0  0
  192.2150  173.1640  136.2850 C   0  0  0  0  0  0  0  0  0  0  0  0
  189.3810  174.0530  135.1790 C   0  0  0  0  0  3  0  0  0  0  0  0
  189.8060  172.7920  135.2110 C   0  0  0  0  0  0  0  0  0  0  0  0
  189.6940  175.1810  136.1530 C   0  0  0  0  0  3  0  0  0  0  0  0
  191.1770  172.2020  135.6430 C   0  0  0  0  0  3  0  0  0  0  0  0
  191.9900  174.3050  136.9080 C   0  0  0  0  0  2  0  0  0  0  0  0
  190.7050  175.1750  137.0580 C   0  0  0  0  0  0  0  0  0  0  0  0
  188.7840  171.7520  134.5950 C   0  0  2  0  0  3  0  0  0  0  0  0
  187.5180  172.1000  135.2140 O   0  0  0  0  0  0  0  0  0  0  0  0
  189.1610  170.2970  135.0120 C   0  0  0  0  0  2  0  0  0  0  0  0
  186.8740  170.8870  135.3860 C   0  0  2  0  0  3  0  0  0  0  0  0
  187.7990  169.6590  135.1410 C   0  0  0  0  0  2  0  0  0  0  0  0
  185.5650  170.8650  134.6350 C   0  0  0  0  0  2  0  0  0  0  0  0
  184.2100  171.6040  136.1620 C   0  0  0  0  0  1  0  0  0  0  0  0
  184.7980  171.9730  134.9520 O   0  0  0  0  0  0  0  0  0  0  0  0
  193.6570  172.7780  136.2280 C   0  0  0  0  0  2  0  0  0  0  0  0
  194.7530  173.6630  136.6890 C   0  0  1  0  0  3  0  0  0  0  0  0
  195.7120  172.9370  137.3650 O   0  0  0  0  0  1  0  0  0  0  0  0
  195.6850  174.3020  134.6090 O   0  0  0  0  0  0  0  0  0  0  0  0
  195.2610  174.6770  135.7390 C   0  0  0  0  0  0  0  0  0  0  0  0
  195.3880  175.9880  136.0940 O   0  0  0  0  0  0  0  0  0  0  0  0
  195.8870  177.0100  135.2360 C   0  0  0  0  0  1  0  0  0  0  0  0
  1 40  1  6  0  0  0
  1  9  1  0  0  0  0
  3  7  1  0  0  0  0
  4  3  1  0  0  0  0
  5  2  1  0  0  0  0
  6  8  2  0  0  0  0
  7  5  2  0  0  0  0
  8 11  1  0  0  0  0
  8  5  1  0  0  0  0
  9  6  1  0  0  0  0
  9  3  2  0  0  0  0
 10  2  2  0  0  0  0
 10 12  1  0  0  0  0
 11 10  1  0  0  0  0
 13 12  1  0  0  0  0
 14 13  1  0  0  0  0
 15 16  1  0  0  0  0
 16 14  1  0  0  0  0
 17 16  2  0  0  0  0
 18 16  1  0  0  0  0
 20 21  1  0  0  0  0
 20 19  2  0  0  0  0
 21  1  1  0  0  0  0
 22 25  1  6  0  0  0
 22 20  1  0  0  0  0
 23 22  1  0  0  0  0
 24 23  1  0  0  0  0
 26 27  1  1  0  0  0
 26 25  1  0  0  0  0
 26 28  1  0  0  0  0
 29 28  1  0  0  0  0
 30 29  1  0  0  0  0
 31 33  1  6  0  0  0
 31 30  1  0  0  0  0
 33 32  2  0  0  0  0
 34 33  1  0  0  0  0
 35 34  1  0  0  0  0
 37 36  1  6  0  0  0
 37 31  1  0  0  0  0
 38 39  1  0  0  0  0
 38 37  1  0  0  0  0
 41 40  1  0  0  0  0
 42 41  1  0  0  0  0
 43 42  1  0  0  0  0
 44 49  1  0  0  0  0
 45 46  2  0  0  0  0
 45 47  1  0  0  0  0
 46 48  1  0  0  0  0
 47 50  2  0  0  0  0
 48 44  2  0  0  0  0
 49 50  1  0  0  0  0
 50 43  1  0  0  0  0
 51 53  1  0  0  0  0
 51 46  1  1  0  0  0
 51 52  1  0  0  0  0
 52 54  1  0  0  0  0
 53 55  1  0  0  0  0
 54 56  1  6  0  0  0
 55 54  1  0  0  0  0
 56 58  1  0  0  0  0
 58 57  1  0  0  0  0
 59 44  1  0  0  0  0
 59 60  1  0  0  0  0
 60 61  1  6  0  0  0
 62 63  2  0  0  0  0
 63 64  1  0  0  0  0
 63 60  1  0  0  0  0
 65 64  1  0  0  0  0
M  END
>  <MODEL>
1

>  <REMARK>
 VINA RESULT:      -4.7      0.000      0.000
  Name = 
  29 active torsions:
  status: ('A' for Active; 'I' for Inactive)
    1  A    between atoms: O_2  and  C_61
    2  A    between atoms: O_3  and  C_28
    3  A    between atoms: C_4  and  C_14
    4  A    between atoms: C_4  and  C_46
    5  A    between atoms: C_5  and  N_38
    6  A    between atoms: C_5  and  C_57
    7  A    between atoms: C_7  and  CA_16
    8  A    between atoms: C_7  and  N_38
    9  A    between atoms: C_7  and  C_62
   10  A    between atoms: C_10  and  C_42
   11  A    between atoms: C_10  and  C_44
   12  A    between atoms: C_10  and  N_58
   13  A    between atoms: C_11  and  C_30
   14  A    between atoms: CA_16  and  C_17
   15  A    between atoms: P_19  and  C_50
   16  A    between atoms: O_22  and  C_59
   17  A    between atoms: C_25  and  C_33
   18  A    between atoms: C_25  and  C_49
   19  A    between atoms: C_28  and  C_40
   20  A    between atoms: C_28  and  C_43
   21  A    between atoms: C_33  and  C_50
   22  A    between atoms: C_34  and  C_59
   23  A    between atoms: C_39  and  C_62
   24  A    between atoms: C_40  and  C_52
   25  A    between atoms: C_41  and  C_44
   26  A    between atoms: C_41  and  N_51
   27  A    between atoms: C_46  and  C_61
   28  A    between atoms: C_52  and  C_57
   29  A    between atoms: C_63  and  C_65
                            x       y       z     vdW  Elec       q    Type
                         _______ _______ _______ _____ _____    ______ ____

>  <TORSDO>
F 29

$$$$
=
 OpenBabel11032419473D

 65 68  0  0  1  0  0  0  0  0999 V2000
  189.6480  177.8320  139.4400 C   0  0  1  0  0  3  0  0  0  0  0  0
  194.6280  175.5920  138.1310 N   0  0  0  0  0  0  0  0  0  0  0  0
  192.1080  177.3860  140.1520 C   0  0  0  0  0  0  0  0  0  0  0  0
  191.9630  178.2840  141.3810 C   0  0  0  0  0  1  0  0  0  0  0  0
  193.5270  176.1370  138.6690 C   0  0  0  0  0  0  0  0  0  0  0  0
  191.2760  176.4810  138.0480 C   0  0  0  0  0  3  0  0  0  0  0  0
  193.3690  176.8330  139.8810 C   0  0  0  0  0  3  0  0  0  0  0  0
  192.5190  175.9730  137.8570 C   0  0  0  0  0  0  0  0  0  0  0  0
  191.0070  177.1620  139.2400 C   0  0  0  0  0  0  0  0  0  0  0  0
  194.1780  175.1220  136.9370 C   0  0  0  0  0  0  0  0  0  0  0  0
  192.8380  175.4270  136.6980 N   0  0  0  0  0  2  0  0  0  0  0  0
  195.0640  174.5850  135.8560 C   0  0  0  0  0  2  0  0  0  0  0  0
  194.8770  173.1160  135.4550 C   0  0  0  0  0  2  0  0  0  0  0  0
  196.1080  172.2260  134.9270 C   0  0  0  0  0  2  0  0  0  0  0  0
  198.3300  174.0980  135.6350 O   0  0  0  0  0  1  0  0  0  0  0  0
  197.7150  172.5220  135.9880 P   0  0  0  0  0  0  0  0  0  0  0  0
  198.7740  171.4950  135.5460 O   0  0  0  0  0  0  0  0  0  0  0  0
  197.3770  172.3900  137.6970 O   0  0  0  0  0  1  0  0  0  0  0  0
  187.6950  179.1950  137.4750 O   0  0  0  0  0  0  0  0  0  0  0  0
  187.5940  177.9550  137.7060 C   0  0  0  0  0  0  0  0  0  0  0  0
  188.4800  177.2720  138.6100 N   0  0  0  0  0  2  0  0  0  0  0  0
  186.5620  177.0490  137.0020 C   0  0  2  0  0  3  0  0  0  0  0  0
  186.9740  176.5010  135.7940 O   0  0  0  0  0  0  0  0  0  0  0  0
  187.4000  175.3050  136.1760 O   0  0  0  0  0  1  0  0  0  0  0  0
  185.0460  177.3410  137.2870 C   0  0  0  0  0  2  0  0  0  0  0  0
  184.1240  176.8900  136.1320 C   0  0  2  0  0  3  0  0  0  0  0  0
  182.9320  177.8210  136.2790 C   0  0  0  0  0  1  0  0  0  0  0  0
  183.7250  175.3700  136.1850 C   0  0  0  0  0  2  0  0  0  0  0  0
  183.2030  174.8500  137.5840 C   0  0  0  0  0  2  0  0  0  0  0  0
  182.0180  173.9450  137.3770 N   0  0  0  0  0  2  0  0  0  0  0  0
  180.6800  174.3980  137.7040 C   0  0  1  0  0  3  0  0  0  0  0  0
  179.9730  173.1520  139.5950 O   0  0  0  0  0  0  0  0  0  0  0  0
  179.9450  173.3240  138.3720 C   0  0  0  0  0  0  0  0  0  0  0  0
  178.9380  172.6170  137.5140 C   0  0  0  0  0  2  0  0  0  0  0  0
  179.3280  172.4060  136.1390 N   0  0  0  0  0  1  0  0  0  0  0  0
  180.5070  175.3590  140.0330 N   0  0  0  0  0  1  0  0  0  0  0  0
  180.8160  175.6250  138.6440 C   0  0  2  0  0  3  0  0  0  0  0  0
  179.8470  176.7770  138.2980 C   0  0  0  0  0  2  0  0  0  0  0  0
  179.3710  176.6920  136.9870 O   0  0  0  0  0  1  0  0  0  0  0  0
  189.1900  178.2910  140.8980 C   0  0  0  0  0  2  0  0  0  0  0  0
  189.0090  177.1030  141.8690 C   0  0  0  0  0  2  0  0  0  0  0  0
  187.6530  177.0890  142.2240 N   0  0  0  0  0  2  0  0  0  0  0  0
  186.9230  178.0370  141.5620 C   0  0  0  0  0  2  0  0  0  0  0  0
  184.3050  178.6530  144.0320 C   0  0  0  0  0  0  0  0  0  0  0  0
  183.0770  177.8300  141.2280 C   0  0  0  0  0  3  0  0  0  0  0  0
  182.4430  178.5770  142.1290 C   0  0  0  0  0  0  0  0  0  0  0  0
  184.5700  177.7680  140.9360 C   0  0  0  0  0  3  0  0  0  0  0  0
  182.8650  179.0000  143.5640 C   0  0  0  0  0  2  0  0  0  0  0  0
  185.3710  178.4280  143.2880 C   0  0  0  0  0  3  0  0  0  0  0  0
  185.5470  178.2400  141.7500 C   0  0  0  0  0  0  0  0  0  0  0  0
  180.9740  178.9910  141.7050 C   0  0  2  0  0  3  0  0  0  0  0  0
  181.1770  179.8610  140.5600 O   0  0  0  0  0  0  0  0  0  0  0  0
  180.2840  179.8090  142.8390 C   0  0  0  0  0  2  0  0  0  0  0  0
  180.1770  180.8130  140.6710 C   0  0  2  0  0  3  0  0  0  0  0  0
  179.4410  180.7750  142.0420 C   0  0  0  0  0  2  0  0  0  0  0  0
  179.2790  180.7880  139.4580 C   0  0  0  0  0  2  0  0  0  0  0  0
  179.5350  180.5520  137.3160 C   0  0  0  0  0  1  0  0  0  0  0  0
  179.9000  181.3850  138.3740 O   0  0  0  0  0  0  0  0  0  0  0  0
  184.5630  178.5680  145.5020 C   0  0  0  0  0  2  0  0  0  0  0  0
  185.8920  178.2520  146.0760 C   0  0  1  0  0  3  0  0  0  0  0  0
  186.8660  178.2980  145.1000 O   0  0  0  0  0  1  0  0  0  0  0  0
  185.7920  180.0220  147.6450 O   0  0  0  0  0  0  0  0  0  0  0  0
  186.2440  178.8740  147.3710 C   0  0  0  0  0  0  0  0  0  0  0  0
  187.1340  178.2900  148.2250 O   0  0  0  0  0  0  0  0  0  0  0  0
  188.4480  177.8760  147.8600 C   0  0  0  0  0  1  0  0  0  0  0  0
  1 40  1  1  0  0  0
  2  5  1  0  0  0  0
  3  4  1  0  0  0  0
  5  7  2  0  0  0  0
  6  9  1  0  0  0  0
  7  3  1  0  0  0  0
  8  6  2  0  0  0  0
  8  5  1  0  0  0  0
  9  1  1  0  0  0  0
  9  3  2  0  0  0  0
 10  2  2  0  0  0  0
 11 10  1  0  0  0  0
 11  8  1  0  0  0  0
 12 10  1  0  0  0  0
 13 12  1  0  0  0  0
 14 13  1  0  0  0  0
 14 16  1  0  0  0  0
 15 16  1  0  0  0  0
 16 18  1  0  0  0  0
 17 16  2  0  0  0  0
 19 20  2  0  0  0  0
 20 21  1  0  0  0  0
 21  1  1  0  0  0  0
 22 25  1  6  0  0  0
 22 20  1  0  0  0  0
 23 24  1  0  0  0  0
 23 22  1  0  0  0  0
 26 28  1  0  0  0  0
 26 27  1  1  0  0  0
 26 25  1  0  0  0  0
 28 29  1  0  0  0  0
 30 29  1  0  0  0  0
 31 30  1  1  0  0  0
 31 33  1  0  0  0  0
 31 37  1  0  0  0  0
 33 32  2  0  0  0  0
 34 33  1  0  0  0  0
 35 34  1  0  0  0  0
 37 36  1  1  0  0  0
 38 37  1  0  0  0  0
 39 38  1  0  0  0  0
 40 41  1  0  0  0  0
 41 42  1  0  0  0  0
 43 50  1  0  0  0  0
 43 42  1  0  0  0  0
 44 59  1  0  0  0  0
 45 46  2  0  0  0  0
 46 48  1  0  0  0  0
 47 45  1  0  0  0  0
 47 50  2  0  0  0  0
 48 44  1  0  0  0  0
 49 44  2  0  0  0  0
 50 49  1  0  0  0  0
 51 46  1  1  0  0  0
 51 53  1  0  0  0  0
 52 54  1  0  0  0  0
 52 51  1  0  0  0  0
 54 56  1  6  0  0  0
 54 55  1  0  0  0  0
 55 53  1  0  0  0  0
 57 58  1  0  0  0  0
 58 56  1  0  0  0  0
 59 60  1  0  0  0  0
 60 61  1  6  0  0  0
 60 63  1  0  0  0  0
 63 62  2  0  0  0  0
 63 64  1  0  0  0  0
 65 64  1  0  0  0  0
M  END
>  <MODEL>
2

>  <REMARK>
 VINA RESULT:      -4.6      3.707     10.145
  Name = 
  29 active torsions:
  status: ('A' for Active; 'I' for Inactive)
    1  A    between atoms: O_2  and  C_61
    2  A    between atoms: O_3  and  C_28
    3  A    between atoms: C_4  and  C_14
    4  A    between atoms: C_4  and  C_46
    5  A    between atoms: C_5  and  N_38
    6  A    between atoms: C_5  and  C_57
    7  A    between atoms: C_7  and  CA_16
    8  A    between atoms: C_7  and  N_38
    9  A    between atoms: C_7  and  C_62
   10  A    between atoms: C_10  and  C_42
   11  A    between atoms: C_10  and  C_44
   12  A    between atoms: C_10  and  N_58
   13  A    between atoms: C_11  and  C_30
   14  A    between atoms: CA_16  and  C_17
   15  A    between atoms: P_19  and  C_50
   16  A    between atoms: O_22  and  C_59
   17  A    between atoms: C_25  and  C_33
   18  A    between atoms: C_25  and  C_49
   19  A    between atoms: C_28  and  C_40
   20  A    between atoms: C_28  and  C_43
   21  A    between atoms: C_33  and  C_50
   22  A    between atoms: C_34  and  C_59
   23  A    between atoms: C_39  and  C_62
   24  A    between atoms: C_40  and  C_52
   25  A    between atoms: C_41  and  C_44
   26  A    between atoms: C_41  and  N_51
   27  A    between atoms: C_46  and  C_61
   28  A    between atoms: C_52  and  C_57
   29  A    between atoms: C_63  and  C_65
                            x       y       z     vdW  Elec       q    Type
                         _______ _______ _______ _____ _____    ______ ____

>  <TORSDO>
F 29

$$$$
=
 OpenBabel11032419473D

 65 68  0  0  1  0  0  0  0  0999 V2000
  191.2850  176.5090  142.1140 C   0  0  1  0  0  3  0  0  0  0  0  0
  190.9300  176.6320  147.7170 N   0  0  0  0  0  0  0  0  0  0  0  0
  191.9300  175.4060  144.3780 C   0  0  0  0  0  0  0  0  0  0  0  0
  192.5280  174.1910  143.6670 C   0  0  0  0  0  1  0  0  0  0  0  0
  191.1950  176.4450  146.4150 C   0  0  0  0  0  0  0  0  0  0  0  0
  190.6640  177.4880  144.3650 C   0  0  0  0  0  3  0  0  0  0  0  0
  191.8840  175.3970  145.7810 C   0  0  0  0  0  3  0  0  0  0  0  0
  190.6650  177.4140  145.7200 C   0  0  0  0  0  0  0  0  0  0  0  0
  191.3520  176.5100  143.6410 C   0  0  0  0  0  0  0  0  0  0  0  0
  190.1870  177.7720  147.7120 C   0  0  0  0  0  0  0  0  0  0  0  0
  189.9320  178.2530  146.4280 N   0  0  0  0  0  2  0  0  0  0  0  0
  189.4710  178.3150  148.9080 C   0  0  0  0  0  3  0  0  0  0  0  0
  187.9430  178.1700  148.9440 C   0  0  0  0  0  3  0  0  0  0  0  0
  187.1340  177.5120  147.7190 C   0  0  0  0  0  2  0  0  0  0  0  0
  185.9410  180.2530  147.8190 O   0  0  0  0  0  1  0  0  0  0  0  0
  185.8240  178.7490  146.9760 P   0  0  0  0  0  0  0  0  0  0  0  0
  184.4210  178.1710  147.2390 O   0  0  0  0  0  1  0  0  0  0  0  0
  186.0960  179.0070  145.2710 O   0  0  0  0  0  0  0  0  0  0  0  0
  189.5440  179.0240  142.5350 O   0  0  0  0  0  0  0  0  0  0  0  0
  189.1720  178.1290  141.7220 C   0  0  0  0  0  0  0  0  0  0  0  0
  189.9470  176.9400  141.4880 N   0  0  0  0  0  2  0  0  0  0  0  0
  187.8940  178.2490  140.8650 C   0  0  2  0  0  3  0  0  0  0  0  0
  188.0470  177.9380  139.5190 O   0  0  0  0  0  0  0  0  0  0  0  0
  186.8930  178.3540  139.0160 O   0  0  0  0  0  1  0  0  0  0  0  0
  186.8080  179.2760  141.3440 C   0  0  0  0  0  2  0  0  0  0  0  0
  185.8980  178.7070  142.4540 C   0  0  2  0  0  3  0  0  0  0  0  0
  186.4590  177.3090  142.6560 C   0  0  0  0  0  1  0  0  0  0  0  0
  184.3670  178.7060  142.0910 C   0  0  0  0  0  2  0  0  0  0  0  0
  184.0310  178.5980  140.5500 C   0  0  0  0  0  2  0  0  0  0  0  0
  182.7330  179.3040  140.2640 N   0  0  0  0  0  2  0  0  0  0  0  0
  181.6110  178.5800  139.6950 C   0  0  1  0  0  3  0  0  0  0  0  0
  182.4410  177.9830  137.5550 O   0  0  0  0  0  0  0  0  0  0  0  0
  182.0940  177.6350  138.6880 C   0  0  0  0  0  0  0  0  0  0  0  0
  182.4020  176.2620  139.2050 C   0  0  0  0  0  2  0  0  0  0  0  0
  182.2470  175.1870  138.2510 N   0  0  0  0  0  1  0  0  0  0  0  0
  179.7130  177.1030  140.4630 N   0  0  0  0  0  1  0  0  0  0  0  0
  180.9060  177.8240  140.8520 C   0  0  2  0  0  3  0  0  0  0  0  0
  180.3860  178.7550  141.9700 C   0  0  0  0  0  2  0  0  0  0  0  0
  181.0900  178.5890  143.1650 O   0  0  0  0  0  1  0  0  0  0  0  0
  192.5390  176.9970  141.2580 C   0  0  0  0  0  2  0  0  0  0  0  0
  192.1420  177.5050  139.8540 C   0  0  0  0  0  2  0  0  0  0  0  0
  191.1930  176.5980  139.3620 N   0  0  0  0  0  2  0  0  0  0  0  0
  191.2740  176.4290  138.0080 C   0  0  0  0  0  2  0  0  0  0  0  0
  191.0910  173.3620  136.0340 C   0  0  0  0  0  0  0  0  0  0  0  0
  188.4760  175.1180  135.6840 C   0  0  0  0  0  3  0  0  0  0  0  0
  188.5110  173.7960  135.5330 C   0  0  0  0  0  0  0  0  0  0  0  0
  189.2980  175.9840  136.6300 C   0  0  0  0  0  3  0  0  0  0  0  0
  189.7090  172.8070  135.5920 C   0  0  0  0  0  3  0  0  0  0  0  0
  191.3430  174.4310  136.7660 C   0  0  0  0  0  2  0  0  0  0  0  0
  190.4280  175.5870  137.2700 C   0  0  0  0  0  0  0  0  0  0  0  0
  187.1260  173.1590  135.1060 C   0  0  2  0  0  3  0  0  0  0  0  0
  186.2750  173.3740  136.2630 O   0  0  0  0  0  0  0  0  0  0  0  0
  187.2750  171.6240  134.8730 C   0  0  0  0  0  2  0  0  0  0  0  0
  185.4670  172.2500  136.3080 C   0  0  2  0  0  3  0  0  0  0  0  0
  185.9360  171.1160  135.3490 C   0  0  0  0  0  2  0  0  0  0  0  0
  184.0120  172.6320  136.1910 C   0  0  0  0  0  2  0  0  0  0  0  0
  182.0080  171.9150  135.7690 C   0  0  0  0  0  1  0  0  0  0  0  0
  183.1970  171.5320  136.3900 O   0  0  0  0  0  0  0  0  0  0  0  0
  192.3140  172.6120  135.6150 C   0  0  0  0  0  2  0  0  0  0  0  0
  193.6330  172.7780  136.2710 C   0  0  1  0  0  3  0  0  0  0  0  0
  194.3390  171.5940  136.2470 O   0  0  0  0  0  1  0  0  0  0  0  0
  194.5340  174.3500  134.7470 O   0  0  0  0  0  0  0  0  0  0  0  0
  194.4060  173.9990  135.9550 C   0  0  0  0  0  0  0  0  0  0  0  0
  195.0780  174.6890  136.9210 O   0  0  0  0  0  0  0  0  0  0  0  0
  194.8140  174.5830  138.3170 C   0  0  0  0  0  1  0  0  0  0  0  0
  1 40  1  6  0  0  0
  1  9  1  0  0  0  0
  3  7  1  0  0  0  0
  4  3  1  0  0  0  0
  5  2  1  0  0  0  0
  6  8  2  0  0  0  0
  7  5  2  0  0  0  0
  8  5  1  0  0  0  0
  8 11  1  0  0  0  0
  9  6  1  0  0  0  0
  9  3  2  0  0  0  0
 10  2  2  0  0  0  0
 10 12  1  0  0  0  0
 11 10  1  0  0  0  0
 12 13  2  0  0  0  0
 14 13  1  0  0  0  0
 16 17  1  0  0  0  0
 16 14  1  0  0  0  0
 16 15  1  0  0  0  0
 18 16  2  0  0  0  0
 20 19  2  0  0  0  0
 21 20  1  0  0  0  0
 21  1  1  0  0  0  0
 22 25  1  6  0  0  0
 22 20  1  0  0  0  0
 23 22  1  0  0  0  0
 24 23  1  0  0  0  0
 25 26  1  0  0  0  0
 26 27  1  6  0  0  0
 28 26  1  0  0  0  0
 29 28  1  0  0  0  0
 30 29  1  0  0  0  0
 31 33  1  6  0  0  0
 31 30  1  0  0  0  0
 31 37  1  0  0  0  0
 32 33  2  0  0  0  0
 33 34  1  0  0  0  0
 35 34  1  0  0  0  0
 37 36  1  6  0  0  0
 37 38  1  0  0  0  0
 38 39  1  0  0  0  0
 41 40  1  0  0  0  0
 42 41  1  0  0  0  0
 43 42  1  0  0  0  0
 44 49  1  0  0  0  0
 45 47  1  0  0  0  0
 46 48  1  0  0  0  0
 46 45  2  0  0  0  0
 47 50  2  0  0  0  0
 48 44  2  0  0  0  0
 49 50  1  0  0  0  0
 50 43  1  0  0  0  0
 51 46  1  1  0  0  0
 51 52  1  0  0  0  0
 52 54  1  0  0  0  0
 53 51  1  0  0  0  0
 53 55  1  0  0  0  0
 54 56  1  6  0  0  0
 55 54  1  0  0  0  0
 56 58  1  0  0  0  0
 57 58  1  0  0  0  0
 59 44  1  0  0  0  0
 59 60  1  0  0  0  0
 60 61  1  6  0  0  0
 62 63  2  0  0  0  0
 63 60  1  0  0  0  0
 63 64  1  0  0  0  0
 64 65  1  0  0  0  0
M  END
>  <MODEL>
3

>  <REMARK>
 VINA RESULT:      -3.2      1.706      2.558
  Name = 
  29 active torsions:
  status: ('A' for Active; 'I' for Inactive)
    1  A    between atoms: O_2  and  C_61
    2  A    between atoms: O_3  and  C_28
    3  A    between atoms: C_4  and  C_14
    4  A    between atoms: C_4  and  C_46
    5  A    between atoms: C_5  and  N_38
    6  A    between atoms: C_5  and  C_57
    7  A    between atoms: C_7  and  CA_16
    8  A    between atoms: C_7  and  N_38
    9  A    between atoms: C_7  and  C_62
   10  A    between atoms: C_10  and  C_42
   11  A    between atoms: C_10  and  C_44
   12  A    between atoms: C_10  and  N_58
   13  A    between atoms: C_11  and  C_30
   14  A    between atoms: CA_16  and  C_17
   15  A    between atoms: P_19  and  C_50
   16  A    between atoms: O_22  and  C_59
   17  A    between atoms: C_25  and  C_33
   18  A    between atoms: C_25  and  C_49
   19  A    between atoms: C_28  and  C_40
   20  A    between atoms: C_28  and  C_43
   21  A    between atoms: C_33  and  C_50
   22  A    between atoms: C_34  and  C_59
   23  A    between atoms: C_39  and  C_62
   24  A    between atoms: C_40  and  C_52
   25  A    between atoms: C_41  and  C_44
   26  A    between atoms: C_41  and  N_51
   27  A    between atoms: C_46  and  C_61
   28  A    between atoms: C_52  and  C_57
   29  A    between atoms: C_63  and  C_65
                            x       y       z     vdW  Elec       q    Type
                         _______ _______ _______ _____ _____    ______ ____

>  <TORSDO>
F 29

$$$$
=
 OpenBabel11032419473D

 65 68  0  0  1  0  0  0  0  0999 V2000
  190.4220  176.7250  137.2270 C   0  0  1  0  0  3  0  0  0  0  0  0
  190.2810  177.9920  142.6950 N   0  0  0  0  0  0  0  0  0  0  0  0
  191.7510  177.0670  139.4350 C   0  0  0  0  0  0  0  0  0  0  0  0
  193.0360  176.5350  138.7960 C   0  0  0  0  0  1  0  0  0  0  0  0
  190.5540  177.7280  141.4090 C   0  0  0  0  0  0  0  0  0  0  0  0
  189.3510  177.4860  139.3920 C   0  0  0  0  0  3  0  0  0  0  0  0
  191.7750  177.3890  140.8000 C   0  0  0  0  0  3  0  0  0  0  0  0
  189.4520  177.7890  140.7100 C   0  0  0  0  0  0  0  0  0  0  0  0
  190.5160  177.1680  138.6860 C   0  0  0  0  0  0  0  0  0  0  0  0
  188.9350  178.1860  142.6840 C   0  0  0  0  0  0  0  0  0  0  0  0
  188.3630  177.9800  141.4290 N   0  0  0  0  0  2  0  0  0  0  0  0
  188.0950  178.3270  143.9150 C   0  0  0  0  0  3  0  0  0  0  0  0
  188.5620  177.5880  145.1770 C   0  0  0  0  0  3  0  0  0  0  0  0
  187.7850  177.7430  146.5770 C   0  0  0  0  0  2  0  0  0  0  0  0
  184.9250  177.3250  145.8070 O   0  0  0  0  0  1  0  0  0  0  0  0
  186.0260  178.5470  146.3380 P   0  0  0  0  0  0  0  0  0  0  0  0
  186.1320  179.6020  145.2210 O   0  0  0  0  0  0  0  0  0  0  0  0
  185.4480  179.2550  147.8260 O   0  0  0  0  0  1  0  0  0  0  0  0
  190.0210  173.6640  137.2750 O   0  0  0  0  0  0  0  0  0  0  0  0
  189.0790  174.4170  136.8930 C   0  0  0  0  0  0  0  0  0  0  0  0
  189.2140  175.8490  136.8540 N   0  0  0  0  0  2  0  0  0  0  0  0
  187.6870  173.8860  136.4930 C   0  0  2  0  0  3  0  0  0  0  0  0
  187.5020  173.6600  135.1340 O   0  0  0  0  0  0  0  0  0  0  0  0
  188.1710  172.5290  134.9590 O   0  0  0  0  0  1  0  0  0  0  0  0
  186.4820  174.2670  137.4250 C   0  0  0  0  0  2  0  0  0  0  0  0
  185.1200  173.8250  136.8500 C   0  0  2  0  0  3  0  0  0  0  0  0
  184.1420  174.3100  137.9070 C   0  0  0  0  0  1  0  0  0  0  0  0
  185.0100  172.2800  136.5760 C   0  0  0  0  0  2  0  0  0  0  0  0
  183.6210  171.7860  136.0040 C   0  0  0  0  0  2  0  0  0  0  0  0
  182.7460  171.3170  137.1350 N   0  0  0  0  0  2  0  0  0  0  0  0
  181.3970  171.8310  137.2830 C   0  0  1  0  0  3  0  0  0  0  0  0
  181.8540  173.5300  135.6920 O   0  0  0  0  0  0  0  0  0  0  0  0
  181.3280  173.1940  136.7580 C   0  0  0  0  0  0  0  0  0  0  0  0
  180.3470  174.0910  137.4530 C   0  0  0  0  0  2  0  0  0  0  0  0
  180.2170  173.8890  138.8780 N   0  0  0  0  0  1  0  0  0  0  0  0
  180.9170  170.5490  135.1610 N   0  0  0  0  0  1  0  0  0  0  0  0
  180.4490  170.8960  136.4860 C   0  0  2  0  0  3  0  0  0  0  0  0
  179.0640  171.5190  136.2010 C   0  0  0  0  0  2  0  0  0  0  0  0
  179.0900  172.3860  135.1060 O   0  0  0  0  0  1  0  0  0  0  0  0
  190.8210  177.7340  136.0570 C   0  0  0  0  0  2  0  0  0  0  0  0
  189.8280  177.7000  134.8740 C   0  0  0  0  0  2  0  0  0  0  0  0
  188.5760  178.0460  135.4030 N   0  0  0  0  0  2  0  0  0  0  0  0
  187.5520  177.3270  134.8510 C   0  0  0  0  0  2  0  0  0  0  0  0
  185.2410  178.1750  137.5490 C   0  0  0  0  0  0  0  0  0  0  0  0
  183.7160  176.9030  135.0780 C   0  0  0  0  0  3  0  0  0  0  0  0
  183.1570  177.7430  135.9470 C   0  0  0  0  0  0  0  0  0  0  0  0
  185.1600  176.8660  134.5950 C   0  0  0  0  0  3  0  0  0  0  0  0
  183.7340  178.3870  137.2390 C   0  0  0  0  0  2  0  0  0  0  0  0
  186.2140  177.8930  136.7030 C   0  0  0  0  0  3  0  0  0  0  0  0
  186.2020  177.4940  135.1960 C   0  0  0  0  0  0  0  0  0  0  0  0
  181.6230  178.0260  135.6750 C   0  0  2  0  0  3  0  0  0  0  0  0
  181.3600  179.2460  136.4160 O   0  0  0  0  0  0  0  0  0  0  0  0
  180.7400  176.8820  136.2630 C   0  0  0  0  0  2  0  0  0  0  0  0
  180.0650  179.0920  136.8820 C   0  0  2  0  0  3  0  0  0  0  0  0
  179.5150  177.6460  136.7040 C   0  0  0  0  0  2  0  0  0  0  0  0
  179.1730  180.1890  136.3560 C   0  0  0  0  0  2  0  0  0  0  0  0
  178.9380  181.6790  134.7960 C   0  0  0  0  0  1  0  0  0  0  0  0
  179.9030  181.1110  135.6260 O   0  0  0  0  0  0  0  0  0  0  0  0
  185.6920  178.3140  138.9660 C   0  0  0  0  0  2  0  0  0  0  0  0
  185.0550  179.2390  139.9330 C   0  0  1  0  0  3  0  0  0  0  0  0
  184.6350  180.3910  139.3000 O   0  0  0  0  0  1  0  0  0  0  0  0
  184.2460  177.4530  141.2590 O   0  0  0  0  0  0  0  0  0  0  0  0
  184.1110  178.6610  140.9150 C   0  0  0  0  0  0  0  0  0  0  0  0
  183.0340  179.3650  141.3710 O   0  0  0  0  0  0  0  0  0  0  0  0
  182.4820  179.2360  142.6780 C   0  0  0  0  0  1  0  0  0  0  0  0
  1 40  1  6  0  0  0
  1  9  1  0  0  0  0
  3  7  1  0  0  0  0
  4  3  1  0  0  0  0
  5  2  1  0  0  0  0
  6  8  2  0  0  0  0
  7  5  2  0  0  0  0
  8  5  1  0  0  0  0
  8 11  1  0  0  0  0
  9  6  1  0  0  0  0
  9  3  2  0  0  0  0
 10  2  2  0  0  0  0
 10 12  1  0  0  0  0
 11 10  1  0  0  0  0
 12 13  2  0  0  0  0
 13 14  1  0  0  0  0
 15 16  1  0  0  0  0
 16 14  1  0  0  0  0
 16 18  1  0  0  0  0
 17 16  2  0  0  0  0
 20 19  2  0  0  0  0
 21 20  1  0  0  0  0
 21  1  1  0  0  0  0
 22 20  1  0  0  0  0
 22 25  1  6  0  0  0
 23 22  1  0  0  0  0
 24 23  1  0  0  0  0
 26 25  1  0  0  0  0
 26 27  1  1  0  0  0
 28 26  1  0  0  0  0
 29 28  1  0  0  0  0
 29 30  1  0  0  0  0
 30 31  1  0  0  0  0
 31 33  1  6  0  0  0
 32 33  2  0  0  0  0
 33 34  1  0  0  0  0
 34 35  1  0  0  0  0
 37 36  1  6  0  0  0
 37 31  1  0  0  0  0
 38 37  1  0  0  0  0
 39 38  1  0  0  0  0
 41 42  1  0  0  0  0
 41 40  1  0  0  0  0
 43 50  1  0  0  0  0
 43 42  1  0  0  0  0
 44 59  1  0  0  0  0
 45 46  2  0  0  0  0
 46 48  1  0  0  0  0
 47 45  1  0  0  0  0
 47 50  2  0  0  0  0
 48 44  1  0  0  0  0
 49 44  2  0  0  0  0
 50 49  1  0  0  0  0
 51 46  1  1  0  0  0
 51 53  1  0  0  0  0
 51 52  1  0  0  0  0
 52 54  1  0  0  0  0
 53 55  1  0  0  0  0
 54 56  1  6  0  0  0
 55 54  1  0  0  0  0
 57 58  1  0  0  0  0
 58 56  1  0  0  0  0
 59 60  1  0  0  0  0
 60 61  1  6  0  0  0
 60 63  1  0  0  0  0
 63 62  2  0  0  0  0
 63 64  1  0  0  0  0
 64 65  1  0  0  0  0
M  END
>  <MODEL>
4

>  <REMARK>
 VINA RESULT:      -3.1      2.907      7.459
  Name = 
  29 active torsions:
  status: ('A' for Active; 'I' for Inactive)
    1  A    between atoms: O_2  and  C_61
    2  A    between atoms: O_3  and  C_28
    3  A    between atoms: C_4  and  C_14
    4  A    between atoms: C_4  and  C_46
    5  A    between atoms: C_5  and  N_38
    6  A    between atoms: C_5  and  C_57
    7  A    between atoms: C_7  and  CA_16
    8  A    between atoms: C_7  and  N_38
    9  A    between atoms: C_7  and  C_62
   10  A    between atoms: C_10  and  C_42
   11  A    between atoms: C_10  and  C_44
   12  A    between atoms: C_10  and  N_58
   13  A    between atoms: C_11  and  C_30
   14  A    between atoms: CA_16  and  C_17
   15  A    between atoms: P_19  and  C_50
   16  A    between atoms: O_22  and  C_59
   17  A    between atoms: C_25  and  C_33
   18  A    between atoms: C_25  and  C_49
   19  A    between atoms: C_28  and  C_40
   20  A    between atoms: C_28  and  C_43
   21  A    between atoms: C_33  and  C_50
   22  A    between atoms: C_34  and  C_59
   23  A    between atoms: C_39  and  C_62
   24  A    between atoms: C_40  and  C_52
   25  A    between atoms: C_41  and  C_44
   26  A    between atoms: C_41  and  N_51
   27  A    between atoms: C_46  and  C_61
   28  A    between atoms: C_52  and  C_57
   29  A    between atoms: C_63  and  C_65
                            x       y       z     vdW  Elec       q    Type
                         _______ _______ _______ _____ _____    ______ ____

>  <TORSDO>
F 29

$$$$
=
 OpenBabel11032419473D

 65 68  0  0  1  0  0  0  0  0999 V2000
  186.5780  177.8800  137.0490 C   0  0  1  0  0  3  0  0  0  0  0  0
  184.1420  173.2710  134.9630 N   0  0  0  0  0  0  0  0  0  0  0  0
  185.1100  176.8300  135.1790 C   0  0  0  0  0  0  0  0  0  0  0  0
  184.7840  178.2080  134.5990 C   0  0  0  0  0  1  0  0  0  0  0  0
  184.6780  174.4680  135.2430 C   0  0  0  0  0  0  0  0  0  0  0  0
  186.0670  175.4040  136.9070 C   0  0  0  0  0  3  0  0  0  0  0  0
  184.4910  175.7070  134.6070 C   0  0  0  0  0  3  0  0  0  0  0  0
  185.4430  174.3660  136.2970 C   0  0  0  0  0  0  0  0  0  0  0  0
  185.9710  176.6750  136.3320 C   0  0  0  0  0  0  0  0  0  0  0  0
  184.6400  172.4790  135.9510 C   0  0  0  0  0  0  0  0  0  0  0  0
  185.4180  173.1790  136.8730 N   0  0  0  0  0  2  0  0  0  0  0  0
  184.1940  171.0740  136.2080 C   0  0  0  0  0  3  0  0  0  0  0  0
  182.9380  170.8780  137.0680 C   0  0  0  0  0  3  0  0  0  0  0  0
  182.0270  172.1240  137.5200 C   0  0  0  0  0  2  0  0  0  0  0  0
  179.2600  171.2500  136.7960 O   0  0  0  0  0  1  0  0  0  0  0  0
  180.4990  172.3640  136.3360 P   0  0  0  0  0  0  0  0  0  0  0  0
  180.9430  172.0080  134.9060 O   0  0  0  0  0  0  0  0  0  0  0  0
  179.8830  173.9960  136.4230 O   0  0  0  0  0  1  0  0  0  0  0  0
  187.7510  179.2220  139.5700 O   0  0  0  0  0  0  0  0  0  0  0  0
  186.5290  178.9000  139.5390 C   0  0  0  0  0  0  0  0  0  0  0  0
  185.9320  178.2750  138.3890 N   0  0  0  0  0  2  0  0  0  0  0  0
  185.5510  179.1970  140.6960 C   0  0  2  0  0  3  0  0  0  0  0  0
  184.8050  180.3630  140.5620 O   0  0  0  0  0  0  0  0  0  0  0  0
  184.3380  180.2410  139.3280 O   0  0  0  0  0  1  0  0  0  0  0  0
  185.9250  178.6280  142.1100 C   0  0  0  0  0  2  0  0  0  0  0  0
  184.9880  179.1410  143.2260 C   0  0  2  0  0  3  0  0  0  0  0  0
  185.7630  178.8030  144.4880 C   0  0  0  0  0  1  0  0  0  0  0  0
  183.5500  178.5030  143.2000 C   0  0  0  0  0  2  0  0  0  0  0  0
  182.8770  178.3960  141.7730 C   0  0  0  0  0  2  0  0  0  0  0  0
  181.4790  178.9510  141.8300 N   0  0  0  0  0  2  0  0  0  0  0  0
  180.5730  178.7810  140.7110 C   0  0  1  0  0  3  0  0  0  0  0  0
  181.1820  180.0510  138.8020 O   0  0  0  0  0  0  0  0  0  0  0  0
  180.5820  179.9850  139.8800 C   0  0  0  0  0  0  0  0  0  0  0  0
  179.5940  181.0390  140.2820 C   0  0  0  0  0  2  0  0  0  0  0  0
  179.5700  182.2210  139.4510 N   0  0  0  0  0  1  0  0  0  0  0  0
  180.2700  177.2570  138.7200 N   0  0  0  0  0  1  0  0  0  0  0  0
  181.0620  177.5560  139.8930 C   0  0  2  0  0  3  0  0  0  0  0  0
  181.0110  176.2280  140.6820 C   0  0  0  0  0  2  0  0  0  0  0  0
  181.8740  175.2660  140.1520 O   0  0  0  0  0  1  0  0  0  0  0  0
  188.1580  178.0970  137.0520 C   0  0  0  0  0  2  0  0  0  0  0  0
  188.9370  176.8120  137.4110 C   0  0  0  0  0  2  0  0  0  0  0  0
  189.7290  177.1300  138.5230 N   0  0  0  0  0  2  0  0  0  0  0  0
  189.1920  176.6850  139.6990 C   0  0  0  0  0  2  0  0  0  0  0  0
  192.3320  177.2740  141.4670 C   0  0  0  0  0  0  0  0  0  0  0  0
  190.0070  176.4910  143.4730 C   0  0  0  0  0  3  0  0  0  0  0  0
  191.0640  177.2270  143.8090 C   0  0  0  0  0  0  0  0  0  0  0  0
  189.2850  176.4290  142.1330 C   0  0  0  0  0  3  0  0  0  0  0  0
  192.3140  177.6310  142.9790 C   0  0  0  0  0  2  0  0  0  0  0  0
  191.3030  177.0570  140.6690 C   0  0  0  0  0  3  0  0  0  0  0  0
  189.7810  176.8880  140.9560 C   0  0  0  0  0  0  0  0  0  0  0  0
  191.0970  177.6490  145.3340 C   0  0  2  0  0  3  0  0  0  0  0  0
  191.7900  176.5510  145.9830 O   0  0  0  0  0  0  0  0  0  0  0  0
  189.6510  177.7400  145.9120 C   0  0  0  0  0  2  0  0  0  0  0  0
  191.1740  176.4380  147.2180 C   0  0  2  0  0  3  0  0  0  0  0  0
  189.8650  177.2740  147.3310 C   0  0  0  0  0  2  0  0  0  0  0  0
  192.1690  176.6450  148.3330 C   0  0  0  0  0  2  0  0  0  0  0  0
  193.0350  177.9430  149.8420 C   0  0  0  0  0  1  0  0  0  0  0  0
  191.9470  177.8520  148.9740 O   0  0  0  0  0  0  0  0  0  0  0  0
  193.6590  177.1700  140.7870 C   0  0  0  0  0  2  0  0  0  0  0  0
  193.8940  176.3290  139.5890 C   0  0  1  0  0  3  0  0  0  0  0  0
  193.5400  177.0080  138.4420 O   0  0  0  0  0  1  0  0  0  0  0  0
  195.9100  175.5350  140.5410 O   0  0  0  0  0  0  0  0  0  0  0  0
  195.1600  175.5670  139.5250 C   0  0  0  0  0  0  0  0  0  0  0  0
  195.5900  174.9930  138.3640 O   0  0  0  0  0  0  0  0  0  0  0  0
  195.8390  173.6010  138.1970 C   0  0  0  0  0  1  0  0  0  0  0  0
  1 40  1  1  0  0  0
  1 21  1  0  0  0  0
  2  5  1  0  0  0  0
  2 10  2  0  0  0  0
  3  9  1  0  0  0  0
  4  3  1  0  0  0  0
  5  8  2  0  0  0  0
  7  3  2  0  0  0  0
  7  5  1  0  0  0  0
  8 11  1  0  0  0  0
  8  6  1  0  0  0  0
  9  6  2  0  0  0  0
  9  1  1  0  0  0  0
 10 12  1  0  0  0  0
 10 11  1  0  0  0  0
 12 13  2  0  0  0  0
 13 14  1  0  0  0  0
 16 18  1  0  0  0  0
 16 15  1  0  0  0  0
 16 14  1  0  0  0  0
 17 16  2  0  0  0  0
 20 19  2  0  0  0  0
 20 22  1  0  0  0  0
 21 20  1  0  0  0  0
 22 25  1  1  0  0  0
 23 22  1  0  0  0  0
 24 23  1  0  0  0  0
 25 26  1  0  0  0  0
 26 27  1  1  0  0  0
 28 26  1  0  0  0  0
 29 30  1  0  0  0  0
 29 28  1  0  0  0  0
 31 33  1  6  0  0  0
 31 30  1  0  0  0  0
 32 33  2  0  0  0  0
 33 34  1  0  0  0  0
 35 34  1  0  0  0  0
 37 36  1  6  0  0  0
 37 38  1  0  0  0  0
 37 31  1  0  0  0  0
 39 38  1  0  0  0  0
 40 41  1  0  0  0  0
 41 42  1  0  0  0  0
 42 43  1  0  0  0  0
 43 50  1  0  0  0  0
 44 48  1  0  0  0  0
 45 46  2  0  0  0  0
 47 45  1  0  0  0  0
 48 46  1  0  0  0  0
 49 50  1  0  0  0  0
 49 44  2  0  0  0  0
 50 47  2  0  0  0  0
 51 46  1  6  0  0  0
 51 53  1  0  0  0  0
 51 52  1  0  0  0  0
 52 54  1  0  0  0  0
 53 55  1  0  0  0  0
 54 55  1  0  0  0  0
 54 56  1  1  0  0  0
 56 58  1  0  0  0  0
 58 57  1  0  0  0  0
 59 44  1  0  0  0  0
 60 61  1  6  0  0  0
 60 59  1  0  0  0  0
 63 60  1  0  0  0  0
 63 62  2  0  0  0  0
 64 63  1  0  0  0  0
 65 64  1  0  0  0  0
M  END
>  <MODEL>
5

>  <REMARK>
 VINA RESULT:      -2.9      3.511      8.979
  Name = 
  29 active torsions:
  status: ('A' for Active; 'I' for Inactive)
    1  A    between atoms: O_2  and  C_61
    2  A    between atoms: O_3  and  C_28
    3  A    between atoms: C_4  and  C_14
    4  A    between atoms: C_4  and  C_46
    5  A    between atoms: C_5  and  N_38
    6  A    between atoms: C_5  and  C_57
    7  A    between atoms: C_7  and  CA_16
    8  A    between atoms: C_7  and  N_38
    9  A    between atoms: C_7  and  C_62
   10  A    between atoms: C_10  and  C_42
   11  A    between atoms: C_10  and  C_44
   12  A    between atoms: C_10  and  N_58
   13  A    between atoms: C_11  and  C_30
   14  A    between atoms: CA_16  and  C_17
   15  A    between atoms: P_19  and  C_50
   16  A    between atoms: O_22  and  C_59
   17  A    between atoms: C_25  and  C_33
   18  A    between atoms: C_25  and  C_49
   19  A    between atoms: C_28  and  C_40
   20  A    between atoms: C_28  and  C_43
   21  A    between atoms: C_33  and  C_50
   22  A    between atoms: C_34  and  C_59
   23  A    between atoms: C_39  and  C_62
   24  A    between atoms: C_40  and  C_52
   25  A    between atoms: C_41  and  C_44
   26  A    between atoms: C_41  and  N_51
   27  A    between atoms: C_46  and  C_61
   28  A    between atoms: C_52  and  C_57
   29  A    between atoms: C_63  and  C_65
                            x       y       z     vdW  Elec       q    Type
                         _______ _______ _______ _____ _____    ______ ____

>  <TORSDO>
F 29

$$$$
=
 OpenBabel11032419473D

 65 68  0  0  1  0  0  0  0  0999 V2000
  186.1340  177.8140  137.1030 C   0  0  1  0  0  3  0  0  0  0  0  0
  184.5890  172.8780  134.9160 N   0  0  0  0  0  0  0  0  0  0  0  0
  184.9120  176.5480  135.1900 C   0  0  0  0  0  0  0  0  0  0  0  0
  184.3590  177.8560  134.6180 C   0  0  0  0  0  1  0  0  0  0  0  0
  184.9010  174.1470  135.2200 C   0  0  0  0  0  0  0  0  0  0  0  0
  186.0710  175.2890  136.9240 C   0  0  0  0  0  3  0  0  0  0  0  0
  184.5110  175.3430  134.5940 C   0  0  0  0  0  3  0  0  0  0  0  0
  185.6510  174.1660  136.2890 C   0  0  0  0  0  0  0  0  0  0  0  0
  185.7630  176.5310  136.3600 C   0  0  0  0  0  0  0  0  0  0  0  0
  185.2000  172.1730  135.9060 C   0  0  0  0  0  0  0  0  0  0  0  0
  185.8240  172.9850  136.8520 N   0  0  0  0  0  2  0  0  0  0  0  0
  185.0030  170.7070  136.1390 C   0  0  0  0  0  2  0  0  0  0  0  0
  183.5630  170.1770  136.1280 C   0  0  0  0  0  2  0  0  0  0  0  0
  182.4230  170.8230  137.0610 C   0  0  0  0  0  2  0  0  0  0  0  0
  179.4790  171.3410  136.9630 O   0  0  0  0  0  1  0  0  0  0  0  0
  180.9160  171.4720  136.0110 P   0  0  0  0  0  0  0  0  0  0  0  0
  180.7550  170.5510  134.7880 O   0  0  0  0  0  0  0  0  0  0  0  0
  181.1520  173.1340  135.5280 O   0  0  0  0  0  1  0  0  0  0  0  0
  186.4620  178.8090  140.0080 O   0  0  0  0  0  0  0  0  0  0  0  0
  185.3150  178.7850  139.4750 C   0  0  0  0  0  0  0  0  0  0  0  0
  185.1090  178.3330  138.1250 N   0  0  0  0  0  2  0  0  0  0  0  0
  184.0450  179.2910  140.1910 C   0  0  2  0  0  3  0  0  0  0  0  0
  183.3040  180.2380  139.4950 O   0  0  0  0  0  0  0  0  0  0  0  0
  184.2530  181.0690  139.0850 O   0  0  0  0  0  1  0  0  0  0  0  0
  184.0480  179.2540  141.7610 C   0  0  0  0  0  2  0  0  0  0  0  0
  182.6460  178.9970  142.3540 C   0  0  2  0  0  3  0  0  0  0  0  0
  182.9340  178.8690  143.8400 C   0  0  0  0  0  1  0  0  0  0  0  0
  181.9190  177.7340  141.7600 C   0  0  0  0  0  2  0  0  0  0  0  0
  180.5090  178.0070  141.0990 C   0  0  0  0  0  2  0  0  0  0  0  0
  180.5590  177.6530  139.6360 N   0  0  0  0  0  2  0  0  0  0  0  0
  180.8950  176.3060  139.2160 C   0  0  1  0  0  3  0  0  0  0  0  0
  179.1790  174.9320  138.3230 O   0  0  0  0  0  0  0  0  0  0  0  0
  179.7120  175.4500  139.3100 C   0  0  0  0  0  0  0  0  0  0  0  0
  179.3520  175.0180  140.7000 C   0  0  0  0  0  2  0  0  0  0  0  0
  179.9150  173.7570  141.1270 N   0  0  0  0  0  1  0  0  0  0  0  0
  182.7710  176.7940  137.5990 N   0  0  0  0  0  1  0  0  0  0  0  0
  181.3910  176.3830  137.7480 C   0  0  2  0  0  3  0  0  0  0  0  0
  180.6350  177.4250  136.8950 C   0  0  0  0  0  2  0  0  0  0  0  0
  180.7050  177.1420  135.5300 O   0  0  0  0  0  1  0  0  0  0  0  0
  187.6380  178.0570  137.5770 C   0  0  0  0  0  2  0  0  0  0  0  0
  188.4450  176.7450  137.7000 C   0  0  0  0  0  2  0  0  0  0  0  0
  189.3120  176.9170  138.7880 N   0  0  0  0  0  2  0  0  0  0  0  0
  188.6870  176.7550  139.9930 C   0  0  0  0  0  2  0  0  0  0  0  0
  191.9100  177.1570  141.6610 C   0  0  0  0  0  0  0  0  0  0  0  0
  189.6290  176.3940  143.7250 C   0  0  0  0  0  3  0  0  0  0  0  0
  190.7260  177.0760  144.0460 C   0  0  0  0  0  0  0  0  0  0  0  0
  188.8580  176.4090  142.4120 C   0  0  0  0  0  3  0  0  0  0  0  0
  191.9620  177.4600  143.1840 C   0  0  0  0  0  2  0  0  0  0  0  0
  190.8450  177.0090  140.8960 C   0  0  0  0  0  3  0  0  0  0  0  0
  189.3280  176.8900  141.2340 C   0  0  0  0  0  0  0  0  0  0  0  0
  190.8320  177.4420  145.5830 C   0  0  2  0  0  3  0  0  0  0  0  0
  191.0500  176.1610  146.2300 O   0  0  0  0  0  0  0  0  0  0  0  0
  189.4870  178.0410  146.1000 C   0  0  0  0  0  2  0  0  0  0  0  0
  190.3730  176.2650  147.4340 C   0  0  2  0  0  3  0  0  0  0  0  0
  189.4480  177.5140  147.5130 C   0  0  0  0  0  2  0  0  0  0  0  0
  191.3190  176.0890  148.5960 C   0  0  0  0  0  2  0  0  0  0  0  0
  193.3070  175.2330  148.7630 C   0  0  0  0  0  1  0  0  0  0  0  0
  192.6270  176.3170  148.2060 O   0  0  0  0  0  0  0  0  0  0  0  0
  193.2060  177.0250  140.9290 C   0  0  0  0  0  2  0  0  0  0  0  0
  193.4080  177.5090  139.5420 C   0  0  1  0  0  3  0  0  0  0  0  0
  194.4210  178.4430  139.4970 O   0  0  0  0  0  1  0  0  0  0  0  0
  192.3690  176.3590  137.7530 O   0  0  0  0  0  0  0  0  0  0  0  0
  193.4080  176.5020  138.4590 C   0  0  0  0  0  0  0  0  0  0  0  0
  194.4570  175.6480  138.2760 O   0  0  0  0  0  0  0  0  0  0  0  0
  194.8590  175.1260  137.0140 C   0  0  0  0  0  1  0  0  0  0  0  0
  1 40  1  1  0  0  0
  1 21  1  0  0  0  0
  2  5  1  0  0  0  0
  2 10  2  0  0  0  0
  3  9  1  0  0  0  0
  4  3  1  0  0  0  0
  5  8  2  0  0  0  0
  7  3  2  0  0  0  0
  7  5  1  0  0  0  0
  8 11  1  0  0  0  0
  8  6  1  0  0  0  0
  9  6  2  0  0  0  0
  9  1  1  0  0  0  0
 10 12  1  0  0  0  0
 10 11  1  0  0  0  0
 13 12  1  0  0  0  0
 13 14  1  0  0  0  0
 16 15  1  0  0  0  0
 16 14  1  0  0  0  0
 17 16  2  0  0  0  0
 18 16  1  0  0  0  0
 20 19  2  0  0  0  0
 20 22  1  0  0  0  0
 21 20  1  0  0  0  0
 22 25  1  1  0  0  0
 23 22  1  0  0  0  0
 24 23  1  0  0  0  0
 25 26  1  0  0  0  0
 26 27  1  1  0  0  0
 28 26  1  0  0  0  0
 29 28  1  0  0  0  0
 30 29  1  0  0  0  0
 31 33  1  6  0  0  0
 31 30  1  0  0  0  0
 32 33  2  0  0  0  0
 33 34  1  0  0  0  0
 34 35  1  0  0  0  0
 37 36  1  1  0  0  0
 37 31  1  0  0  0  0
 38 37  1  0  0  0  0
 39 38  1  0  0  0  0
 40 41  1  0  0  0  0
 41 42  1  0  0  0  0
 42 43  1  0  0  0  0
 43 50  1  0  0  0  0
 44 48  1  0  0  0  0
 45 46  2  0  0  0  0
 47 45  1  0  0  0  0
 48 46  1  0  0  0  0
 49 50  1  0  0  0  0
 49 44  2  0  0  0  0
 50 47  2  0  0  0  0
 51 46  1  6  0  0  0
 51 53  1  0  0  0  0
 51 52  1  0  0  0  0
 52 54  1  0  0  0  0
 53 55  1  0  0  0  0
 54 55  1  0  0  0  0
 54 56  1  1  0  0  0
 58 56  1  0  0  0  0
 58 57  1  0  0  0  0
 59 44  1  0  0  0  0
 60 61  1  1  0  0  0
 60 59  1  0  0  0  0
 62 63  2  0  0  0  0
 63 60  1  0  0  0  0
 64 63  1  0  0  0  0
 65 64  1  0  0  0  0
M  END
>  <MODEL>
6

>  <REMARK>
 VINA RESULT:      -2.8      3.400      8.882
  Name = 
  29 active torsions:
  status: ('A' for Active; 'I' for Inactive)
    1  A    between atoms: O_2  and  C_61
    2  A    between atoms: O_3  and  C_28
    3  A    between atoms: C_4  and  C_14
    4  A    between atoms: C_4  and  C_46
    5  A    between atoms: C_5  and  N_38
    6  A    between atoms: C_5  and  C_57
    7  A    between atoms: C_7  and  CA_16
    8  A    between atoms: C_7  and  N_38
    9  A    between atoms: C_7  and  C_62
   10  A    between atoms: C_10  and  C_42
   11  A    between atoms: C_10  and  C_44
   12  A    between atoms: C_10  and  N_58
   13  A    between atoms: C_11  and  C_30
   14  A    between atoms: CA_16  and  C_17
   15  A    between atoms: P_19  and  C_50
   16  A    between atoms: O_22  and  C_59
   17  A    between atoms: C_25  and  C_33
   18  A    between atoms: C_25  and  C_49
   19  A    between atoms: C_28  and  C_40
   20  A    between atoms: C_28  and  C_43
   21  A    between atoms: C_33  and  C_50
   22  A    between atoms: C_34  and  C_59
   23  A    between atoms: C_39  and  C_62
   24  A    between atoms: C_40  and  C_52
   25  A    between atoms: C_41  and  C_44
   26  A    between atoms: C_41  and  N_51
   27  A    between atoms: C_46  and  C_61
   28  A    between atoms: C_52  and  C_57
   29  A    between atoms: C_63  and  C_65
                            x       y       z     vdW  Elec       q    Type
                         _______ _______ _______ _____ _____    ______ ____

>  <TORSDO>
F 29

$$$$
=
 OpenBabel11032419473D

 65 68  0  0  1  0  0  0  0  0999 V2000
  189.5170  176.6730  142.7130 C   0  0  1  0  0  3  0  0  0  0  0  0
  193.2380  177.1250  138.5320 N   0  0  0  0  0  0  0  0  0  0  0  0
  191.7410  177.7110  141.8590 C   0  0  0  0  0  0  0  0  0  0  0  0
  191.8360  178.6260  143.0820 C   0  0  0  0  0  1  0  0  0  0  0  0
  192.5240  177.1150  139.6680 C   0  0  0  0  0  0  0  0  0  0  0  0
  190.5390  176.1160  140.4640 C   0  0  0  0  0  3  0  0  0  0  0  0
  192.7090  177.8500  140.8520 C   0  0  0  0  0  3  0  0  0  0  0  0
  191.5140  176.2970  139.5390 C   0  0  0  0  0  0  0  0  0  0  0  0
  190.6480  176.7770  141.6920 C   0  0  0  0  0  0  0  0  0  0  0  0
  192.5470  176.2670  137.7350 C   0  0  0  0  0  0  0  0  0  0  0  0
  191.3840  175.7810  138.3320 N   0  0  0  0  0  2  0  0  0  0  0  0
  192.8220  176.0660  136.2770 C   0  0  0  0  0  2  0  0  0  0  0  0
  193.4170  174.7160  135.8510 C   0  0  0  0  0  2  0  0  0  0  0  0
  194.9980  174.4310  135.9360 C   0  0  0  0  0  2  0  0  0  0  0  0
  197.0110  172.4110  136.8370 O   0  0  0  0  0  1  0  0  0  0  0  0
  195.3980  172.9530  137.1410 P   0  0  0  0  0  0  0  0  0  0  0  0
  194.4420  171.7940  136.8070 O   0  0  0  0  0  0  0  0  0  0  0  0
  195.2460  173.4420  138.8110 O   0  0  0  0  0  1  0  0  0  0  0  0
  191.7210  175.1260  144.2250 O   0  0  0  0  0  0  0  0  0  0  0  0
  190.9700  175.9280  144.8520 C   0  0  0  0  0  0  0  0  0  0  0  0
  189.9310  176.6740  144.1950 N   0  0  0  0  0  2  0  0  0  0  0  0
  191.1320  176.2290  146.3580 C   0  0  2  0  0  3  0  0  0  0  0  0
  192.3160  175.7820  146.9320 O   0  0  0  0  0  0  0  0  0  0  0  0
  192.4900  176.6640  147.9060 O   0  0  0  0  0  1  0  0  0  0  0  0
  189.8170  176.3610  147.2040 C   0  0  0  0  0  2  0  0  0  0  0  0
  189.2800  177.8090  147.2510 C   0  0  2  0  0  3  0  0  0  0  0  0
  188.6670  177.8890  148.6380 C   0  0  0  0  0  1  0  0  0  0  0  0
  188.2560  178.1500  146.1070 C   0  0  0  0  0  2  0  0  0  0  0  0
  187.0150  177.1770  145.9890 C   0  0  0  0  0  2  0  0  0  0  0  0
  186.0250  177.7360  145.0030 N   0  0  0  0  0  2  0  0  0  0  0  0
  185.9180  179.1680  144.8000 C   0  0  1  0  0  3  0  0  0  0  0  0
  185.5350  180.4370  142.8320 O   0  0  0  0  0  0  0  0  0  0  0  0
  185.2790  179.4370  143.5120 C   0  0  0  0  0  0  0  0  0  0  0  0
  184.5010  178.2900  142.9400 C   0  0  0  0  0  2  0  0  0  0  0  0
  183.0630  178.4050  143.0260 N   0  0  0  0  0  1  0  0  0  0  0  0
  185.7290  179.7750  147.2440 N   0  0  0  0  0  1  0  0  0  0  0  0
  185.0630  179.7440  145.9590 C   0  0  2  0  0  3  0  0  0  0  0  0
  183.7930  178.9160  146.2580 C   0  0  0  0  0  2  0  0  0  0  0  0
  183.8230  177.6620  145.6450 O   0  0  0  0  0  1  0  0  0  0  0  0
  188.1430  177.4460  142.4680 C   0  0  0  0  0  2  0  0  0  0  0  0
  187.9890  177.9430  141.0130 C   0  0  0  0  0  2  0  0  0  0  0  0
  186.6210  178.1790  140.8210 N   0  0  0  0  0  2  0  0  0  0  0  0
  186.2850  178.3030  139.5010 C   0  0  0  0  0  2  0  0  0  0  0  0
  183.6430  177.1920  137.2390 C   0  0  0  0  0  0  0  0  0  0  0  0
  183.0480  180.0910  138.3750 C   0  0  0  0  0  3  0  0  0  0  0  0
  182.1060  179.2420  137.9710 C   0  0  0  0  0  0  0  0  0  0  0  0
  184.3850  179.7770  139.0320 C   0  0  0  0  0  3  0  0  0  0  0  0
  182.2300  177.8330  137.3250 C   0  0  0  0  0  3  0  0  0  0  0  0
  184.6990  177.4480  137.9870 C   0  0  0  0  0  2  0  0  0  0  0  0
  184.9830  178.5590  139.0440 C   0  0  0  0  0  0  0  0  0  0  0  0
  180.6350  179.8210  138.0560 C   0  0  2  0  0  3  0  0  0  0  0  0
  180.8340  181.2550  138.1640 O   0  0  0  0  0  0  0  0  0  0  0  0
  179.9180  179.3160  139.3460 C   0  0  0  0  0  2  0  0  0  0  0  0
  179.8150  181.6810  139.0000 C   0  0  2  0  0  3  0  0  0  0  0  0
  179.0660  180.5100  139.7020 C   0  0  0  0  0  2  0  0  0  0  0  0
  178.9310  182.6820  138.2990 C   0  0  0  0  0  2  0  0  0  0  0  0
  179.0120  184.2470  136.7980 C   0  0  0  0  0  1  0  0  0  0  0  0
  179.6430  183.8200  137.9660 O   0  0  0  0  0  0  0  0  0  0  0  0
  183.8720  176.1380  136.2060 C   0  0  0  0  0  2  0  0  0  0  0  0
  185.1590  175.4190  136.0520 C   0  0  1  0  0  3  0  0  0  0  0  0
  186.2180  176.2430  136.3730 O   0  0  0  0  0  1  0  0  0  0  0  0
  185.0200  173.8250  137.7960 O   0  0  0  0  0  0  0  0  0  0  0  0
  185.2380  174.0350  136.5690 C   0  0  0  0  0  0  0  0  0  0  0  0
  185.6490  173.0000  135.7810 O   0  0  0  0  0  0  0  0  0  0  0  0
  186.4250  173.1490  134.5960 C   0  0  0  0  0  1  0  0  0  0  0  0
  1 40  1  1  0  0  0
  1 21  1  0  0  0  0
  2  5  1  0  0  0  0
  3  4  1  0  0  0  0
  5  7  1  0  0  0  0
  6  9  2  0  0  0  0
  7  3  2  0  0  0  0
  8  5  2  0  0  0  0
  8  6  1  0  0  0  0
  9  3  1  0  0  0  0
  9  1  1  0  0  0  0
 10 11  1  0  0  0  0
 10  2  2  0  0  0  0
 11  8  1  0  0  0  0
 12 10  1  0  0  0  0
 13 14  1  0  0  0  0
 13 12  1  0  0  0  0
 14 16  1  0  0  0  0
 15 16  1  0  0  0  0
 16 18  1  0  0  0  0
 17 16  2  0  0  0  0
 19 20  2  0  0  0  0
 20 22  1  0  0  0  0
 21 20  1  0  0  0  0
 22 23  1  0  0  0  0
 22 25  1  1  0  0  0
 23 24  1  0  0  0  0
 25 26  1  0  0  0  0
 26 27  1  1  0  0  0
 28 26  1  0  0  0  0
 29 28  1  0  0  0  0
 30 29  1  0  0  0  0
 31 33  1  6  0  0  0
 31 30  1  0  0  0  0
 31 37  1  0  0  0  0
 32 33  2  0  0  0  0
 34 35  1  0  0  0  0
 34 33  1  0  0  0  0
 37 38  1  0  0  0  0
 37 36  1  1  0  0  0
 39 38  1  0  0  0  0
 41 40  1  0  0  0  0
 42 41  1  0  0  0  0
 43 42  1  0  0  0  0
 44 48  2  0  0  0  0
 44 49  1  0  0  0  0
 45 47  1  0  0  0  0
 46 45  2  0  0  0  0
 47 50  2  0  0  0  0
 48 46  1  0  0  0  0
 49 50  1  0  0  0  0
 50 43  1  0  0  0  0
 51 46  1  1  0  0  0
 51 52  1  0  0  0  0
 51 53  1  0  0  0  0
 52 54  1  0  0  0  0
 53 55  1  0  0  0  0
 54 56  1  6  0  0  0
 54 55  1  0  0  0  0
 57 58  1  0  0  0  0
 58 56  1  0  0  0  0
 59 44  1  0  0  0  0
 60 59  1  0  0  0  0
 60 61  1  1  0  0  0
 60 63  1  0  0  0  0
 63 62  2  0  0  0  0
 64 63  1  0  0  0  0
 65 64  1  0  0  0  0
M  END
>  <MODEL>
7

>  <REMARK>
 VINA RESULT:      -2.6      3.356      9.948
  Name = 
  29 active torsions:
  status: ('A' for Active; 'I' for Inactive)
    1  A    between atoms: O_2  and  C_61
    2  A    between atoms: O_3  and  C_28
    3  A    between atoms: C_4  and  C_14
    4  A    between atoms: C_4  and  C_46
    5  A    between atoms: C_5  and  N_38
    6  A    between atoms: C_5  and  C_57
    7  A    between atoms: C_7  and  CA_16
    8  A    between atoms: C_7  and  N_38
    9  A    between atoms: C_7  and  C_62
   10  A    between atoms: C_10  and  C_42
   11  A    between atoms: C_10  and  C_44
   12  A    between atoms: C_10  and  N_58
   13  A    between atoms: C_11  and  C_30
   14  A    between atoms: CA_16  and  C_17
   15  A    between atoms: P_19  and  C_50
   16  A    between atoms: O_22  and  C_59
   17  A    between atoms: C_25  and  C_33
   18  A    between atoms: C_25  and  C_49
   19  A    between atoms: C_28  and  C_40
   20  A    between atoms: C_28  and  C_43
   21  A    between atoms: C_33  and  C_50
   22  A    between atoms: C_34  and  C_59
   23  A    between atoms: C_39  and  C_62
   24  A    between atoms: C_40  and  C_52
   25  A    between atoms: C_41  and  C_44
   26  A    between atoms: C_41  and  N_51
   27  A    between atoms: C_46  and  C_61
   28  A    between atoms: C_52  and  C_57
   29  A    between atoms: C_63  and  C_65
                            x       y       z     vdW  Elec       q    Type
                         _______ _______ _______ _____ _____    ______ ____

>  <TORSDO>
F 29

$$$$
=
 OpenBabel11032419473D

 65 68  0  0  1  0  0  0  0  0999 V2000
  189.5060  176.8920  142.8090 C   0  0  1  0  0  3  0  0  0  0  0  0
  193.1680  177.1040  138.5570 N   0  0  0  0  0  0  0  0  0  0  0  0
  191.7480  177.8330  141.8890 C   0  0  0  0  0  0  0  0  0  0  0  0
  191.8930  178.7780  143.0840 C   0  0  0  0  0  1  0  0  0  0  0  0
  192.4740  177.1500  139.7040 C   0  0  0  0  0  0  0  0  0  0  0  0
  190.4710  176.2390  140.5600 C   0  0  0  0  0  3  0  0  0  0  0  0
  192.7020  177.9120  140.8630 C   0  0  0  0  0  3  0  0  0  0  0  0
  191.4360  176.3620  139.6150 C   0  0  0  0  0  0  0  0  0  0  0  0
  190.6230  176.9310  141.7660 C   0  0  0  0  0  0  0  0  0  0  0  0
  192.4370  176.2470  137.7960 C   0  0  0  0  0  0  0  0  0  0  0  0
  191.2690  175.8170  138.4250 N   0  0  0  0  0  2  0  0  0  0  0  0
  192.6810  175.9960  136.3410 C   0  0  0  0  0  2  0  0  0  0  0  0
  191.4610  175.6740  135.4660 C   0  0  0  0  0  2  0  0  0  0  0  0
  190.0590  175.2240  136.1120 C   0  0  0  0  0  2  0  0  0  0  0  0
  188.7610  177.4450  137.6370 O   0  0  0  0  0  1  0  0  0  0  0  0
  188.7580  176.6740  136.0900 P   0  0  0  0  0  0  0  0  0  0  0  0
  187.3630  176.0600  135.8740 O   0  0  0  0  0  1  0  0  0  0  0  0
  189.1370  177.8430  134.8490 O   0  0  0  0  0  0  0  0  0  0  0  0
  191.5480  175.3260  144.5170 O   0  0  0  0  0  0  0  0  0  0  0  0
  190.8960  176.2810  145.0300 C   0  0  0  0  0  0  0  0  0  0  0  0
  189.9370  177.0440  144.2780 N   0  0  0  0  0  2  0  0  0  0  0  0
  191.1090  176.7580  146.4830 C   0  0  2  0  0  3  0  0  0  0  0  0
  192.4050  176.6340  146.9680 O   0  0  0  0  0  0  0  0  0  0  0  0
  192.6170  175.3320  146.8330 O   0  0  0  0  0  1  0  0  0  0  0  0
  189.8700  176.6900  147.4450 C   0  0  0  0  0  2  0  0  0  0  0  0
  189.0330  177.9870  147.4320 C   0  0  2  0  0  3  0  0  0  0  0  0
  188.2140  177.8640  148.7050 C   0  0  0  0  0  1  0  0  0  0  0  0
  188.1440  178.1640  146.1460 C   0  0  0  0  0  2  0  0  0  0  0  0
  186.5820  178.1540  146.3900 C   0  0  0  0  0  2  0  0  0  0  0  0
  185.8630  178.1690  145.0670 N   0  0  0  0  0  2  0  0  0  0  0  0
  184.9860  179.2710  144.7180 C   0  0  1  0  0  3  0  0  0  0  0  0
  185.4690  180.1330  142.5620 O   0  0  0  0  0  0  0  0  0  0  0  0
  184.8340  179.3400  143.2650 C   0  0  0  0  0  0  0  0  0  0  0  0
  184.0690  178.2040  142.6540 C   0  0  0  0  0  2  0  0  0  0  0  0
  183.0340  178.5810  141.7190 N   0  0  0  0  0  1  0  0  0  0  0  0
  183.2900  177.6120  145.5810 N   0  0  0  0  0  1  0  0  0  0  0  0
  183.6140  179.0100  145.3940 C   0  0  2  0  0  3  0  0  0  0  0  0
  182.4130  179.5260  144.5700 C   0  0  0  0  0  2  0  0  0  0  0  0
  181.3580  178.6110  144.5440 O   0  0  0  0  0  1  0  0  0  0  0  0
  188.1090  177.6020  142.5110 C   0  0  0  0  0  2  0  0  0  0  0  0
  187.9380  177.9830  141.0230 C   0  0  0  0  0  2  0  0  0  0  0  0
  186.5890  178.3300  140.8590 N   0  0  0  0  0  2  0  0  0  0  0  0
  186.1760  178.2490  139.5580 C   0  0  0  0  0  2  0  0  0  0  0  0
  183.0500  176.8720  138.2690 C   0  0  0  0  0  0  0  0  0  0  0  0
  183.1390  180.0250  137.9560 C   0  0  0  0  0  3  0  0  0  0  0  0
  182.0160  179.3190  138.0630 C   0  0  0  0  0  0  0  0  0  0  0  0
  184.4960  179.7440  138.5880 C   0  0  0  0  0  3  0  0  0  0  0  0
  181.7970  177.7820  138.1430 C   0  0  0  0  0  3  0  0  0  0  0  0
  184.2430  177.1900  138.7340 C   0  0  0  0  0  2  0  0  0  0  0  0
  184.8780  178.5580  139.1270 C   0  0  0  0  0  0  0  0  0  0  0  0
  180.6960  180.1880  137.9700 C   0  0  2  0  0  3  0  0  0  0  0  0
  181.1640  181.4790  137.4990 O   0  0  0  0  0  0  0  0  0  0  0  0
  180.0580  180.3720  139.3810 C   0  0  0  0  0  2  0  0  0  0  0  0
  180.3470  182.3950  138.1390 C   0  0  2  0  0  3  0  0  0  0  0  0
  179.4860  181.7640  139.2720 C   0  0  0  0  0  2  0  0  0  0  0  0
  179.5830  183.2230  137.1350 C   0  0  0  0  0  2  0  0  0  0  0  0
  181.1560  184.7180  137.1820 C   0  0  0  0  0  1  0  0  0  0  0  0
  179.7800  184.5750  137.3600 O   0  0  0  0  0  0  0  0  0  0  0  0
  182.9280  175.4470  137.8350 C   0  0  0  0  0  2  0  0  0  0  0  0
  181.7690  174.9280  137.0710 C   0  0  1  0  0  3  0  0  0  0  0  0
  180.5930  175.1630  137.7520 O   0  0  0  0  0  1  0  0  0  0  0  0
  181.4580  176.3510  135.2050 O   0  0  0  0  0  0  0  0  0  0  0  0
  181.7360  175.1880  135.6150 C   0  0  0  0  0  0  0  0  0  0  0  0
  181.8860  174.1810  134.7060 O   0  0  0  0  0  0  0  0  0  0  0  0
  182.0930  172.8140  135.0460 C   0  0  0  0  0  1  0  0  0  0  0  0
  1 40  1  6  0  0  0
  1 21  1  0  0  0  0
  2  5  1  0  0  0  0
  3  4  1  0  0  0  0
  5  7  1  0  0  0  0
  6  9  2  0  0  0  0
  7  3  2  0  0  0  0
  8  5  2  0  0  0  0
  8  6  1  0  0  0  0
  9  3  1  0  0  0  0
  9  1  1  0  0  0  0
 10 11  1  0  0  0  0
 10  2  2  0  0  0  0
 11  8  1  0  0  0  0
 12 10  1  0  0  0  0
 13 14  1  0  0  0  0
 13 12  1  0  0  0  0
 16 14  1  0  0  0  0
 16 15  1  0  0  0  0
 17 16  1  0  0  0  0
 18 16  2  0  0  0  0
 19 20  2  0  0  0  0
 20 22  1  0  0  0  0
 21 20  1  0  0  0  0
 22 23  1  0  0  0  0
 22 25  1  1  0  0  0
 24 23  1  0  0  0  0
 26 25  1  0  0  0  0
 26 27  1  1  0  0  0
 28 29  1  0  0  0  0
 28 26  1  0  0  0  0
 30 29  1  0  0  0  0
 31 33  1  6  0  0  0
 31 30  1  0  0  0  0
 31 37  1  0  0  0  0
 32 33  2  0  0  0  0
 34 33  1  0  0  0  0
 35 34  1  0  0  0  0
 37 36  1  6  0  0  0
 38 37  1  0  0  0  0
 39 38  1  0  0  0  0
 41 40  1  0  0  0  0
 42 41  1  0  0  0  0
 43 42  1  0  0  0  0
 44 49  1  0  0  0  0
 45 46  2  0  0  0  0
 45 47  1  0  0  0  0
 46 48  1  0  0  0  0
 47 50  2  0  0  0  0
 48 44  2  0  0  0  0
 49 50  1  0  0  0  0
 50 43  1  0  0  0  0
 51 46  1  1  0  0  0
 51 53  1  0  0  0  0
 52 51  1  0  0  0  0
 52 54  1  0  0  0  0
 54 56  1  6  0  0  0
 54 55  1  0  0  0  0
 55 53  1  0  0  0  0
 56 58  1  0  0  0  0
 57 58  1  0  0  0  0
 59 44  1  0  0  0  0
 60 61  1  1  0  0  0
 60 59  1  0  0  0  0
 62 63  2  0  0  0  0
 63 60  1  0  0  0  0
 64 65  1  0  0  0  0
 64 63  1  0  0  0  0
M  END
>  <MODEL>
8

>  <REMARK>
 VINA RESULT:      -2.5      3.334      9.814
  Name = 
  29 active torsions:
  status: ('A' for Active; 'I' for Inactive)
    1  A    between atoms: O_2  and  C_61
    2  A    between atoms: O_3  and  C_28
    3  A    between atoms: C_4  and  C_14
    4  A    between atoms: C_4  and  C_46
    5  A    between atoms: C_5  and  N_38
    6  A    between atoms: C_5  and  C_57
    7  A    between atoms: C_7  and  CA_16
    8  A    between atoms: C_7  and  N_38
    9  A    between atoms: C_7  and  C_62
   10  A    between atoms: C_10  and  C_42
   11  A    between atoms: C_10  and  C_44
   12  A    between atoms: C_10  and  N_58
   13  A    between atoms: C_11  and  C_30
   14  A    between atoms: CA_16  and  C_17
   15  A    between atoms: P_19  and  C_50
   16  A    between atoms: O_22  and  C_59
   17  A    between atoms: C_25  and  C_33
   18  A    between atoms: C_25  and  C_49
   19  A    between atoms: C_28  and  C_40
   20  A    between atoms: C_28  and  C_43
   21  A    between atoms: C_33  and  C_50
   22  A    between atoms: C_34  and  C_59
   23  A    between atoms: C_39  and  C_62
   24  A    between atoms: C_40  and  C_52
   25  A    between atoms: C_41  and  C_44
   26  A    between atoms: C_41  and  N_51
   27  A    between atoms: C_46  and  C_61
   28  A    between atoms: C_52  and  C_57
   29  A    between atoms: C_63  and  C_65
                            x       y       z     vdW  Elec       q    Type
                         _______ _______ _______ _____ _____    ______ ____

>  <TORSDO>
F 29

$$$$
=
 OpenBabel11032419473D

 65 68  0  0  1  0  0  0  0  0999 V2000
  190.5460  177.7980  139.4870 C   0  0  1  0  0  3  0  0  0  0  0  0
  195.6830  175.5320  139.4680 N   0  0  0  0  0  0  0  0  0  0  0  0
  192.7530  177.3570  140.7860 C   0  0  0  0  0  0  0  0  0  0  0  0
  192.3150  178.2720  141.9310 C   0  0  0  0  0  1  0  0  0  0  0  0
  194.4860  176.0860  139.7130 C   0  0  0  0  0  0  0  0  0  0  0  0
  192.4580  176.4260  138.5540 C   0  0  0  0  0  3  0  0  0  0  0  0
  194.0400  176.7980  140.8400 C   0  0  0  0  0  3  0  0  0  0  0  0
  193.7070  175.9130  138.6800 C   0  0  0  0  0  0  0  0  0  0  0  0
  191.9090  177.1230  139.6340 C   0  0  0  0  0  0  0  0  0  0  0  0
  195.5380  175.0470  138.2060 C   0  0  0  0  0  0  0  0  0  0  0  0
  194.2990  175.3510  137.6420 N   0  0  0  0  0  2  0  0  0  0  0  0
  196.6590  174.4940  137.3830 C   0  0  0  0  0  3  0  0  0  0  0  0
  196.2910  173.8040  136.0620 C   0  0  0  0  0  3  0  0  0  0  0  0
  194.8110  173.9130  135.4410 C   0  0  0  0  0  2  0  0  0  0  0  0
  192.0670  172.8340  135.9410 O   0  0  0  0  0  1  0  0  0  0  0  0
  193.7270  172.3560  135.8860 P   0  0  0  0  0  0  0  0  0  0  0  0
  194.1280  171.8840  137.2950 O   0  0  0  0  0  1  0  0  0  0  0  0
  193.9350  171.0850  134.7060 O   0  0  0  0  0  0  0  0  0  0  0  0
  188.2670  179.2560  137.9980 O   0  0  0  0  0  0  0  0  0  0  0  0
  188.6570  178.1220  137.5970 C   0  0  0  0  0  0  0  0  0  0  0  0
  189.7160  177.4020  138.2530 N   0  0  0  0  0  2  0  0  0  0  0  0
  188.0850  177.4300  136.3410 C   0  0  2  0  0  3  0  0  0  0  0  0
  188.9230  177.4170  135.2330 O   0  0  0  0  0  0  0  0  0  0  0  0
  189.6270  176.3140  135.4440 O   0  0  0  0  0  1  0  0  0  0  0  0
  186.5230  177.4230  136.1800 C   0  0  0  0  0  2  0  0  0  0  0  0
  186.0460  176.5020  135.0370 C   0  0  2  0  0  3  0  0  0  0  0  0
  184.6650  177.0520  134.7240 C   0  0  0  0  0  1  0  0  0  0  0  0
  186.0260  174.9740  135.4100 C   0  0  0  0  0  2  0  0  0  0  0  0
  185.9560  174.6500  136.9560 C   0  0  0  0  0  2  0  0  0  0  0  0
  184.7330  173.8220  137.2450 N   0  0  0  0  0  2  0  0  0  0  0  0
  183.6940  173.6710  136.2440 C   0  0  1  0  0  3  0  0  0  0  0  0
  182.8450  171.8740  134.9470 O   0  0  0  0  0  0  0  0  0  0  0  0
  183.7090  172.3060  135.7190 C   0  0  0  0  0  0  0  0  0  0  0  0
  184.9830  171.5510  135.9540 C   0  0  0  0  0  2  0  0  0  0  0  0
  185.5740  170.9420  134.7840 N   0  0  0  0  0  1  0  0  0  0  0  0
  181.1800  173.4380  136.2410 N   0  0  0  0  0  1  0  0  0  0  0  0
  182.3350  173.9710  136.9300 C   0  0  2  0  0  3  0  0  0  0  0  0
  182.0090  175.4790  137.0170 C   0  0  0  0  0  2  0  0  0  0  0  0
  181.8120  176.0510  135.7580 O   0  0  0  0  0  1  0  0  0  0  0  0
  189.6350  178.0530  140.7720 C   0  0  0  0  0  2  0  0  0  0  0  0
  189.0910  176.7440  141.3870 C   0  0  0  0  0  2  0  0  0  0  0  0
  187.7050  176.9130  141.5060 N   0  0  0  0  0  2  0  0  0  0  0  0
  187.2030  177.8150  140.6090 C   0  0  0  0  0  2  0  0  0  0  0  0
  184.1990  178.5740  142.5410 C   0  0  0  0  0  0  0  0  0  0  0  0
  183.5170  178.1110  139.4800 C   0  0  0  0  0  3  0  0  0  0  0  0
  182.7890  178.8650  140.3000 C   0  0  0  0  0  0  0  0  0  0  0  0
  185.0230  177.8850  139.4930 C   0  0  0  0  0  3  0  0  0  0  0  0
  182.9380  179.1300  141.8240 C   0  0  0  0  0  3  0  0  0  0  0  0
  185.3690  178.2730  142.0110 C   0  0  0  0  0  2  0  0  0  0  0  0
  185.8490  178.1730  140.5310 C   0  0  0  0  0  0  0  0  0  0  0  0
  181.4970  179.4870  139.6270 C   0  0  2  0  0  3  0  0  0  0  0  0
  182.0310  180.3660  138.6020 O   0  0  0  0  0  0  0  0  0  0  0  0
  180.7000  180.3460  140.6570 C   0  0  0  0  0  2  0  0  0  0  0  0
  181.1530  181.4370  138.5770 C   0  0  2  0  0  3  0  0  0  0  0  0
  180.1590  181.4450  139.7750 C   0  0  0  0  0  2  0  0  0  0  0  0
  180.5210  181.5800  137.2150 C   0  0  0  0  0  2  0  0  0  0  0  0
  180.8910  182.5580  135.3130 C   0  0  0  0  0  1  0  0  0  0  0  0
  180.7840  182.8280  136.6780 O   0  0  0  0  0  0  0  0  0  0  0  0
  184.1270  178.3550  144.0170 C   0  0  0  0  0  2  0  0  0  0  0  0
  184.8810  179.1710  144.9970 C   0  0  1  0  0  3  0  0  0  0  0  0
  184.0650  180.1280  145.5630 O   0  0  0  0  0  1  0  0  0  0  0  0
  185.5170  178.4540  147.1620 O   0  0  0  0  0  0  0  0  0  0  0  0
  185.7870  178.4620  145.9270 C   0  0  0  0  0  0  0  0  0  0  0  0
  186.9620  177.9150  145.5020 O   0  0  0  0  0  0  0  0  0  0  0  0
  187.8470  177.1650  146.3280 C   0  0  0  0  0  1  0  0  0  0  0  0
  1  9  1  0  0  0  0
  1 40  1  1  0  0  0
  2  5  1  0  0  0  0
  3  7  1  0  0  0  0
  3  4  1  0  0  0  0
  5  7  2  0  0  0  0
  6  8  2  0  0  0  0
  6  9  1  0  0  0  0
  8  5  1  0  0  0  0
  9  3  2  0  0  0  0
 10  2  2  0  0  0  0
 11 10  1  0  0  0  0
 11  8  1  0  0  0  0
 12 10  1  0  0  0  0
 13 12  2  0  0  0  0
 14 16  1  0  0  0  0
 14 13  1  0  0  0  0
 16 15  1  0  0  0  0
 16 17  1  0  0  0  0
 18 16  2  0  0  0  0
 20 19  2  0  0  0  0
 20 21  1  0  0  0  0
 21  1  1  0  0  0  0
 22 25  1  6  0  0  0
 22 20  1  0  0  0  0
 23 24  1  0  0  0  0
 23 22  1  0  0  0  0
 26 27  1  1  0  0  0
 26 28  1  0  0  0  0
 26 25  1  0  0  0  0
 28 29  1  0  0  0  0
 29 30  1  0  0  0  0
 31 33  1  1  0  0  0
 31 37  1  0  0  0  0
 31 30  1  0  0  0  0
 32 33  2  0  0  0  0
 33 34  1  0  0  0  0
 35 34  1  0  0  0  0
 37 36  1  6  0  0  0
 37 38  1  0  0  0  0
 39 38  1  0  0  0  0
 40 41  1  0  0  0  0
 41 42  1  0  0  0  0
 43 42  1  0  0  0  0
 44 59  1  0  0  0  0
 45 47  1  0  0  0  0
 45 46  2  0  0  0  0
 46 48  1  0  0  0  0
 47 50  2  0  0  0  0
 48 44  2  0  0  0  0
 49 44  1  0  0  0  0
 50 43  1  0  0  0  0
 50 49  1  0  0  0  0
 51 46  1  1  0  0  0
 51 53  1  0  0  0  0
 52 51  1  0  0  0  0
 54 56  1  6  0  0  0
 54 52  1  0  0  0  0
 54 55  1  0  0  0  0
 55 53  1  0  0  0  0
 57 58  1  0  0  0  0
 58 56  1  0  0  0  0
 59 60  1  0  0  0  0
 60 61  1  1  0  0  0
 60 63  1  0  0  0  0
 63 62  2  0  0  0  0
 64 63  1  0  0  0  0
 64 65  1  0  0  0  0
M  END
>  <MODEL>
9

>  <REMARK>
 VINA RESULT:      -2.1      3.189      9.604
  Name = 
  29 active torsions:
  status: ('A' for Active; 'I' for Inactive)
    1  A    between atoms: O_2  and  C_61
    2  A    between atoms: O_3  and  C_28
    3  A    between atoms: C_4  and  C_14
    4  A    between atoms: C_4  and  C_46
    5  A    between atoms: C_5  and  N_38
    6  A    between atoms: C_5  and  C_57
    7  A    between atoms: C_7  and  CA_16
    8  A    between atoms: C_7  and  N_38
    9  A    between atoms: C_7  and  C_62
   10  A    between atoms: C_10  and  C_42
   11  A    between atoms: C_10  and  C_44
   12  A    between atoms: C_10  and  N_58
   13  A    between atoms: C_11  and  C_30
   14  A    between atoms: CA_16  and  C_17
   15  A    between atoms: P_19  and  C_50
   16  A    between atoms: O_22  and  C_59
   17  A    between atoms: C_25  and  C_33
   18  A    between atoms: C_25  and  C_49
   19  A    between atoms: C_28  and  C_40
   20  A    between atoms: C_28  and  C_43
   21  A    between atoms: C_33  and  C_50
   22  A    between atoms: C_34  and  C_59
   23  A    between atoms: C_39  and  C_62
   24  A    between atoms: C_40  and  C_52
   25  A    between atoms: C_41  and  C_44
   26  A    between atoms: C_41  and  N_51
   27  A    between atoms: C_46  and  C_61
   28  A    between atoms: C_52  and  C_57
   29  A    between atoms: C_63  and  C_65
                            x       y       z     vdW  Elec       q    Type
                         _______ _______ _______ _____ _____    ______ ____

>  <TORSDO>
F 29

$$$$
