=
 OpenBabel11032419563D

 52 60  0  0  1  0  0  0  0  0999 V2000
  186.3340  178.4080  142.1350 C   0  0  0  0  0  2  0  0  0  0  0  0
  187.4860  178.5640  138.5090 C   0  0  0  0  0  0  0  0  0  0  0  0
  186.6610  178.6570  139.6380 C   0  0  0  0  0  0  0  0  0  0  0  0
  185.3100  179.1220  139.5220 N   0  0  0  0  0  2  0  0  0  0  0  0
  186.9920  178.9130  137.2190 N   0  0  0  0  0  1  0  0  0  0  0  0
  188.7690  178.1310  138.6410 N   0  0  0  0  0  0  0  0  0  0  0  0
  185.1690  179.3830  141.9440 C   0  0  1  0  0  3  0  0  0  0  0  0
  189.2830  177.7720  139.8490 C   0  0  0  0  0  0  0  0  0  0  0  0
  184.3850  179.0760  140.6550 C   0  0  2  0  0  3  0  0  0  0  0  0
  188.4990  177.8640  141.0010 C   0  0  0  0  0  3  0  0  0  0  0  0
  187.1870  178.3250  140.9010 C   0  0  0  0  0  0  0  0  0  0  0  0
  184.2150  176.8200  139.6780 N   0  0  0  0  0  2  0  0  0  0  0  0
  183.6810  177.7110  140.7030 C   0  0  2  0  0  3  0  0  0  0  0  0
  182.9370  176.8850  138.9810 C   0  0  1  0  0  3  0  0  0  0  0  0
  181.8180  176.3720  139.8660 C   0  0  1  0  0  3  0  0  0  0  0  0
  182.3310  177.7830  140.0320 C   0  0  1  0  0  3  0  0  0  0  0  0
  179.2210  175.6040  137.4110 O   0  0  0  0  0  0  0  0  0  0  0  0
  181.2380  174.4640  137.7310 N   0  0  0  0  0  2  0  0  0  0  0  0
  180.2960  175.4920  138.0600 C   0  0  0  0  0  0  0  0  0  0  0  0
  180.5650  176.3990  139.1280 N   0  0  0  0  0  2  0  0  0  0  0  0
  181.1370  173.6280  136.5400 C   0  0  1  0  0  0  0  0  0  0  0  0
  178.9480  170.6900  136.5110 C   0  0  0  0  0  1  0  0  0  0  0  0
  180.9020  172.1720  136.8720 C   0  0  1  0  0  3  0  0  0  0  0  0
  179.7890  173.0020  136.2480 C   0  0  2  0  0  3  0  0  0  0  0  0
  179.9870  171.5570  135.8300 C   0  0  2  0  0  3  0  0  0  0  0  0
  184.4160  174.2500  134.6050 C   0  0  0  0  0  3  0  0  0  0  0  0
  185.5440  174.3780  135.3000 C   0  0  0  0  0  3  0  0  0  0  0  0
  185.2910  174.2480  136.7010 N   0  0  0  0  0  0  0  0  0  0  0  0
  183.4180  174.0270  135.6350 C   0  0  0  0  0  0  0  0  0  0  0  0
  184.0550  174.0430  136.9000 N   0  0  0  0  0  0  0  0  0  0  0  0
  182.1140  173.8550  135.4300 C   0  0  0  0  0  3  0  0  0  0  0  0
  181.8190  178.6020  143.8040 O   0  0  0  0  0  0  0  0  0  0  0  0
  184.3140  179.3860  143.1190 N   0  0  0  0  0  0  0  0  0  0  0  0
  182.9960  179.0470  143.8220 C   0  0  0  0  0  0  0  0  0  0  0  0
  184.1040  179.5560  144.4880 C   0  0  1  0  0  3  0  0  0  0  0  0
  184.8400  178.4640  145.2410 C   0  0  0  0  0  2  0  0  0  0  0  0
  185.4970  179.0200  146.4950 C   0  0  0  0  0  2  0  0  0  0  0  0
  189.3810  177.1590  147.4360 C   0  0  0  0  0  2  0  0  0  0  0  0
  188.4230  177.3510  145.0840 C   0  0  0  0  0  2  0  0  0  0  0  0
  187.0130  177.4170  145.6800 C   0  0  0  0  0  2  0  0  0  0  0  0
  187.0570  178.0370  147.9300 C   0  0  0  0  0  2  0  0  0  0  0  0
  186.8740  178.5580  146.5790 N   0  0  0  0  0  0  0  0  0  0  0  0
  189.5370  177.7770  146.0490 C   0  0  2  0  0  3  0  0  0  0  0  0
  188.5330  178.0670  148.3270 C   0  0  0  0  0  2  0  0  0  0  0  0
  190.8280  177.4160  145.4850 N   0  0  0  0  0  2  0  0  0  0  0  0
  190.6630  177.3470  144.0370 C   0  0  1  0  0  3  0  0  0  0  0  0
  191.1870  178.6180  143.3880 C   0  0  0  0  0  1  0  0  0  0  0  0
  191.9900  175.2410  144.5300 C   0  0  0  0  0  1  0  0  0  0  0  0
  190.4390  175.3550  142.7210 O   0  0  0  0  0  1  0  0  0  0  0  0
  191.3540  176.1120  143.4550 C   0  0  1  0  0  3  0  0  0  0  0  0
  190.6430  177.3220  139.9430 C   0  0  0  0  0  0  0  0  0  0  0  0
  191.7380  176.9550  140.0200 N   0  0  0  0  0  0  0  0  0  0  0  0
  2  6  2  0  0  0  0
  2  3  1  0  0  0  0
  3 11  2  0  0  0  0
  4  3  1  0  0  0  0
  5  2  1  0  0  0  0
  6  8  1  0  0  0  0
  7  1  1  1  0  0  0
  7 33  1  0  0  0  0
  8 51  1  0  0  0  0
  8 10  2  0  0  0  0
  9  4  1  6  0  0  0
  9 13  1  0  0  0  0
  9  7  1  0  0  0  0
 11 10  1  0  0  0  0
 11  1  1  0  0  0  0
 13 12  1  6  0  0  0
 14 12  1  1  0  0  0
 14 15  1  0  0  0  0
 14 16  1  0  0  0  0
 15 20  1  6  0  0  0
 15 16  1  0  0  0  0
 16 13  1  0  0  0  0
 17 19  2  0  0  0  0
 18 19  1  0  0  0  0
 19 20  1  0  0  0  0
 21 23  1  0  0  0  0
 21 18  1  0  0  0  0
 24 21  1  0  0  0  0
 24 23  1  0  0  0  0
 25 24  1  0  0  0  0
 25 22  1  0  0  0  0
 25 23  1  0  0  0  0
 26 27  2  0  0  0  0
 26 29  1  0  0  0  0
 27 28  1  0  0  0  0
 28 30  2  0  0  0  0
 29 30  1  0  0  0  0
 31 29  2  0  0  0  0
 31 21  1  0  0  0  0
 32 34  2  0  0  0  0
 33 34  1  0  0  0  0
 33 35  1  0  0  0  0
 34 35  1  0  0  0  0
 35 36  1  0  0  0  0
 36 37  1  0  0  0  0
 37 42  1  0  0  0  0
 38 44  1  0  0  0  0
 39 40  1  0  0  0  0
 39 43  1  0  0  0  0
 40 42  1  0  0  0  0
 41 44  1  0  0  0  0
 42 41  1  0  0  0  0
 43 38  1  0  0  0  0
 45 43  1  0  0  0  0
 46 45  1  0  0  0  0
 47 46  1  0  0  0  0
 49 50  1  0  0  0  0
 50 46  1  0  0  0  0
 50 48  1  0  0  0  0
 51 52  3  0  0  0  0
M  END
>  <MODEL>
1

>  <REMARK>
 VINA RESULT:      -8.4      0.000      0.000
  Name = 
  12 active torsions:
  status: ('A' for Active; 'I' for Inactive)
    1  A    between atoms: C_2  and  N_19
    2  A    between atoms: C_2  and  C_52
    3  A    between atoms: N_6  and  C_29
    4  A    between atoms: N_9  and  C_13
    5  A    between atoms: N_9  and  C_43
    6  A    between atoms: C_10  and  C_30
    7  A    between atoms: C_12  and  C_32
    8  A    between atoms: C_13  and  C_41
    9  A    between atoms: C_26  and  C_33
   10  A    between atoms: C_26  and  N_37
   11  A    between atoms: C_33  and  CA_44
   12  A    between atoms: C_42  and  N_47
                            x       y       z     vdW  Elec       q    Type
                         _______ _______ _______ _____ _____    ______ ____

>  <TORSDO>
F 12

$$$$
=
 OpenBabel11032419563D

 52 60  0  0  1  0  0  0  0  0999 V2000
  184.7880  176.9530  137.9240 C   0  0  0  0  0  2  0  0  0  0  0  0
  181.9440  177.9180  140.2650 C   0  0  0  0  0  0  0  0  0  0  0  0
  183.1960  177.9220  139.6370 C   0  0  0  0  0  0  0  0  0  0  0  0
  184.1910  178.8920  139.9900 N   0  0  0  0  0  2  0  0  0  0  0  0
  181.6400  178.8680  141.2830 N   0  0  0  0  0  1  0  0  0  0  0  0
  181.0090  176.9960  139.9090 N   0  0  0  0  0  0  0  0  0  0  0  0
  185.4950  178.3080  138.0130 C   0  0  1  0  0  3  0  0  0  0  0  0
  181.2560  176.0590  138.9530 C   0  0  0  0  0  0  0  0  0  0  0  0
  185.5540  178.8170  139.4640 C   0  0  2  0  0  3  0  0  0  0  0  0
  182.4870  176.0380  138.2920 C   0  0  0  0  0  3  0  0  0  0  0  0
  183.4570  176.9840  138.6200 C   0  0  0  0  0  0  0  0  0  0  0  0
  185.9310  177.9620  141.7440 N   0  0  0  0  0  2  0  0  0  0  0  0
  186.4180  177.9240  140.3690 C   0  0  2  0  0  3  0  0  0  0  0  0
  187.1470  178.6630  142.1360 C   0  0  1  0  0  3  0  0  0  0  0  0
  188.3720  177.8230  141.8300 C   0  0  1  0  0  3  0  0  0  0  0  0
  187.7050  178.6210  140.7350 C   0  0  1  0  0  3  0  0  0  0  0  0
  191.0590  179.0800  143.9650 O   0  0  0  0  0  0  0  0  0  0  0  0
  189.4270  177.5050  144.5360 N   0  0  0  0  0  2  0  0  0  0  0  0
  190.0600  178.3980  143.6120 C   0  0  0  0  0  0  0  0  0  0  0  0
  189.5640  178.5230  142.2790 N   0  0  0  0  0  2  0  0  0  0  0  0
  189.7410  177.4620  145.9600 C   0  0  1  0  0  0  0  0  0  0  0  0
  192.5280  175.4290  147.1920 C   0  0  0  0  0  1  0  0  0  0  0  0
  190.2850  176.1210  146.3940 C   0  0  1  0  0  3  0  0  0  0  0  0
  191.2010  177.3360  146.3430 C   0  0  2  0  0  3  0  0  0  0  0  0
  191.3390  176.3260  147.4660 C   0  0  2  0  0  3  0  0  0  0  0  0
  186.4550  178.6740  147.5790 C   0  0  0  0  0  3  0  0  0  0  0  0
  185.3170  178.4860  146.9140 C   0  0  0  0  0  2  0  0  0  0  0  0
  185.5640  177.8320  145.6670 N   0  0  0  0  0  0  0  0  0  0  0  0
  187.4530  178.1040  146.6920 C   0  0  0  0  0  0  0  0  0  0  0  0
  186.8060  177.6080  145.5350 N   0  0  0  0  0  0  0  0  0  0  0  0
  188.7640  178.0690  146.9190 C   0  0  0  0  0  2  0  0  0  0  0  0
  189.0430  179.7490  137.2170 O   0  0  0  0  0  0  0  0  0  0  0  0
  186.8130  178.2320  137.4040 N   0  0  0  0  0  0  0  0  0  0  0  0
  188.2010  178.8170  137.1300 C   0  0  0  0  0  0  0  0  0  0  0  0
  187.8320  177.5300  136.7590 C   0  0  1  0  0  3  0  0  0  0  0  0
  188.4040  176.4990  137.7140 C   0  0  0  0  0  2  0  0  0  0  0  0
  188.9980  175.3260  136.9490 C   0  0  0  0  0  2  0  0  0  0  0  0
  193.2850  176.1200  136.2910 C   0  0  0  0  0  2  0  0  0  0  0  0
  192.1610  176.1500  138.5770 C   0  0  0  0  0  2  0  0  0  0  0  0
  190.8230  176.4640  137.8990 C   0  0  0  0  0  2  0  0  0  0  0  0
  190.8480  175.8880  135.6370 C   0  0  0  0  0  2  0  0  0  0  0  0
  190.4500  175.4130  136.9590 N   0  0  0  0  0  0  0  0  0  0  0  0
  193.1860  175.4630  137.6660 C   0  0  2  0  0  3  0  0  0  0  0  0
  192.2880  175.4800  135.3250 C   0  0  0  0  0  2  0  0  0  0  0  0
  194.4870  175.4650  138.3140 N   0  0  0  0  0  2  0  0  0  0  0  0
  195.2850  174.4180  137.6840 C   0  0  1  0  0  3  0  0  0  0  0  0
  196.6910  174.4100  138.2640 C   0  0  0  0  0  1  0  0  0  0  0  0
  194.4750  172.3230  136.5040 C   0  0  0  0  0  1  0  0  0  0  0  0
  195.3630  172.2560  138.7170 O   0  0  0  0  0  1  0  0  0  0  0  0
  194.6250  173.0470  137.8350 C   0  0  1  0  0  3  0  0  0  0  0  0
  180.2420  175.1050  138.6070 C   0  0  0  0  0  0  0  0  0  0  0  0
  179.4240  174.3340  138.3300 N   0  0  0  0  0  0  0  0  0  0  0  0
  1  7  1  0  0  0  0
  1 11  1  0  0  0  0
  2  5  1  0  0  0  0
  3  4  1  0  0  0  0
  3  2  2  0  0  0  0
  6  2  1  0  0  0  0
  7 33  1  1  0  0  0
  7  9  1  0  0  0  0
  8  6  2  0  0  0  0
  9  4  1  1  0  0  0
  9 13  1  0  0  0  0
 10 11  2  0  0  0  0
 10  8  1  0  0  0  0
 11  3  1  0  0  0  0
 13 16  1  0  0  0  0
 13 12  1  1  0  0  0
 14 12  1  6  0  0  0
 15 14  1  0  0  0  0
 15 20  1  1  0  0  0
 16 15  1  0  0  0  0
 16 14  1  0  0  0  0
 18 21  1  0  0  0  0
 19 17  2  0  0  0  0
 19 18  1  0  0  0  0
 20 19  1  0  0  0  0
 21 24  1  0  0  0  0
 21 23  1  0  0  0  0
 21 31  1  0  0  0  0
 22 25  1  0  0  0  0
 23 25  1  0  0  0  0
 24 23  1  0  0  0  0
 24 25  1  0  0  0  0
 27 26  1  0  0  0  0
 28 27  1  0  0  0  0
 29 31  1  0  0  0  0
 29 26  2  0  0  0  0
 30 28  2  0  0  0  0
 30 29  1  0  0  0  0
 34 32  2  0  0  0  0
 34 33  1  0  0  0  0
 35 34  1  0  0  0  0
 35 33  1  0  0  0  0
 35 36  1  0  0  0  0
 37 42  1  0  0  0  0
 37 36  1  0  0  0  0
 38 43  1  0  0  0  0
 40 39  1  0  0  0  0
 41 42  1  0  0  0  0
 42 40  1  0  0  0  0
 43 45  1  0  0  0  0
 43 39  1  0  0  0  0
 44 41  1  0  0  0  0
 44 38  1  0  0  0  0
 46 50  1  0  0  0  0
 46 47  1  0  0  0  0
 46 45  1  0  0  0  0
 48 50  1  0  0  0  0
 50 49  1  0  0  0  0
 51  8  1  0  0  0  0
 52 51  3  0  0  0  0
M  END
>  <MODEL>
2

>  <REMARK>
 VINA RESULT:      -7.9      3.175      9.909
  Name = 
  12 active torsions:
  status: ('A' for Active; 'I' for Inactive)
    1  A    between atoms: C_2  and  N_19
    2  A    between atoms: C_2  and  C_52
    3  A    between atoms: N_6  and  C_29
    4  A    between atoms: N_9  and  C_13
    5  A    between atoms: N_9  and  C_43
    6  A    between atoms: C_10  and  C_30
    7  A    between atoms: C_12  and  C_32
    8  A    between atoms: C_13  and  C_41
    9  A    between atoms: C_26  and  C_33
   10  A    between atoms: C_26  and  N_37
   11  A    between atoms: C_33  and  CA_44
   12  A    between atoms: C_42  and  N_47
                            x       y       z     vdW  Elec       q    Type
                         _______ _______ _______ _____ _____    ______ ____

>  <TORSDO>
F 12

$$$$
=
 OpenBabel11032419563D

 52 60  0  0  1  0  0  0  0  0999 V2000
  182.8210  180.3510  139.1840 C   0  0  0  0  0  2  0  0  0  0  0  0
  179.7340  180.0030  136.9820 C   0  0  0  0  0  0  0  0  0  0  0  0
  180.8530  179.6580  137.7530 C   0  0  0  0  0  0  0  0  0  0  0  0
  181.2010  178.2840  137.9660 N   0  0  0  0  0  2  0  0  0  0  0  0
  178.9310  178.9930  136.3790 N   0  0  0  0  0  1  0  0  0  0  0  0
  179.4140  181.3120  136.8000 N   0  0  0  0  0  0  0  0  0  0  0  0
  182.7460  178.9270  139.7410 C   0  0  1  0  0  3  0  0  0  0  0  0
  180.1590  182.3140  137.3430 C   0  0  0  0  0  0  0  0  0  0  0  0
  182.4490  177.9050  138.6310 C   0  0  2  0  0  3  0  0  0  0  0  0
  181.2730  182.0130  138.1310 C   0  0  0  0  0  3  0  0  0  0  0  0
  181.6130  180.6790  138.3530 C   0  0  0  0  0  0  0  0  0  0  0  0
  183.0740  177.3270  136.3180 N   0  0  0  0  0  2  0  0  0  0  0  0
  183.5840  177.8050  137.5990 C   0  0  2  0  0  3  0  0  0  0  0  0
  183.8210  176.0890  136.5040 C   0  0  1  0  0  3  0  0  0  0  0  0
  185.3050  176.3730  136.6260 C   0  0  1  0  0  3  0  0  0  0  0  0
  184.3970  176.5530  137.8190 C   0  0  1  0  0  3  0  0  0  0  0  0
  188.0180  173.9630  137.0710 O   0  0  0  0  0  0  0  0  0  0  0  0
  188.1550  176.2900  137.2690 N   0  0  0  0  0  2  0  0  0  0  0  0
  187.4290  175.0770  137.0340 C   0  0  0  0  0  0  0  0  0  0  0  0
  186.0290  175.1190  136.7580 N   0  0  0  0  0  2  0  0  0  0  0  0
  189.6090  176.3550  137.3620 C   0  0  1  0  0  0  0  0  0  0  0  0
  191.2320  177.2980  140.5080 C   0  0  0  0  0  1  0  0  0  0  0  0
  190.0820  177.4280  138.3160 C   0  0  1  0  0  3  0  0  0  0  0  0
  190.2360  175.9580  138.6820 C   0  0  2  0  0  3  0  0  0  0  0  0
  191.3280  176.9490  139.0370 C   0  0  2  0  0  3  0  0  0  0  0  0
  191.9810  175.0750  134.6020 C   0  0  0  0  0  3  0  0  0  0  0  0
  192.5920  173.9060  134.7870 C   0  0  0  0  0  3  0  0  0  0  0  0
  192.2160  173.3330  136.0420 N   0  0  0  0  0  0  0  0  0  0  0  0
  191.1880  175.2260  135.8080 C   0  0  0  0  0  0  0  0  0  0  0  0
  191.3990  174.0990  136.6390 N   0  0  0  0  0  0  0  0  0  0  0  0
  190.4040  176.2620  136.0970 C   0  0  0  0  0  3  0  0  0  0  0  0
  186.6350  178.7580  140.1170 O   0  0  0  0  0  0  0  0  0  0  0  0
  183.9590  178.6050  140.4730 N   0  0  0  0  0  0  0  0  0  0  0  0
  185.4860  178.5730  140.5960 C   0  0  0  0  0  0  0  0  0  0  0  0
  184.6320  178.2350  141.6390 C   0  0  1  0  0  3  0  0  0  0  0  0
  184.5290  179.3620  142.6490 C   0  0  0  0  0  2  0  0  0  0  0  0
  184.1010  178.8300  144.0090 C   0  0  0  0  0  2  0  0  0  0  0  0
  187.0590  177.9680  147.1620 C   0  0  0  0  0  2  0  0  0  0  0  0
  187.3150  177.2550  144.7310 C   0  0  0  0  0  2  0  0  0  0  0  0
  185.7920  177.2960  144.5730 C   0  0  0  0  0  2  0  0  0  0  0  0
  184.7900  178.6000  146.2300 C   0  0  0  0  0  2  0  0  0  0  0  0
  185.2700  178.6300  144.8520 N   0  0  0  0  0  0  0  0  0  0  0  0
  187.8570  178.1270  145.8700 C   0  0  2  0  0  3  0  0  0  0  0  0
  185.9100  178.9750  147.2010 C   0  0  0  0  0  2  0  0  0  0  0  0
  189.2550  177.8020  146.1050 N   0  0  0  0  0  2  0  0  0  0  0  0
  189.8080  177.3320  144.8390 C   0  0  1  0  0  3  0  0  0  0  0  0
  189.9880  178.4990  143.8810 C   0  0  0  0  0  1  0  0  0  0  0  0
  191.6230  175.9110  143.7790 C   0  0  0  0  0  1  0  0  0  0  0  0
  192.1020  177.4700  145.5190 O   0  0  0  0  0  1  0  0  0  0  0  0
  191.1280  176.5890  145.0490 C   0  0  1  0  0  3  0  0  0  0  0  0
  179.7840  183.6820  137.1280 C   0  0  0  0  0  0  0  0  0  0  0  0
  179.4800  184.7860  136.9570 N   0  0  0  0  0  0  0  0  0  0  0  0
  2  3  1  0  0  0  0
  3  4  1  0  0  0  0
  3 11  2  0  0  0  0
  5  2  1  0  0  0  0
  6  2  2  0  0  0  0
  6  8  1  0  0  0  0
  7  1  1  6  0  0  0
  7 33  1  0  0  0  0
  8 10  2  0  0  0  0
  9  4  1  6  0  0  0
  9  7  1  0  0  0  0
 10 11  1  0  0  0  0
 11  1  1  0  0  0  0
 13 12  1  6  0  0  0
 13 16  1  0  0  0  0
 13  9  1  0  0  0  0
 14 12  1  6  0  0  0
 14 15  1  0  0  0  0
 14 16  1  0  0  0  0
 15 20  1  1  0  0  0
 15 16  1  0  0  0  0
 18 21  1  0  0  0  0
 19 17  2  0  0  0  0
 19 18  1  0  0  0  0
 20 19  1  0  0  0  0
 21 23  1  0  0  0  0
 21 24  1  0  0  0  0
 23 24  1  0  0  0  0
 23 25  1  0  0  0  0
 24 25  1  0  0  0  0
 25 22  1  0  0  0  0
 26 27  2  0  0  0  0
 26 29  1  0  0  0  0
 27 28  1  0  0  0  0
 28 30  2  0  0  0  0
 29 31  2  0  0  0  0
 29 30  1  0  0  0  0
 31 21  1  0  0  0  0
 32 34  2  0  0  0  0
 33 34  1  0  0  0  0
 33 35  1  0  0  0  0
 34 35  1  0  0  0  0
 35 36  1  0  0  0  0
 36 37  1  0  0  0  0
 37 42  1  0  0  0  0
 38 44  1  0  0  0  0
 39 43  1  0  0  0  0
 40 39  1  0  0  0  0
 40 42  1  0  0  0  0
 41 44  1  0  0  0  0
 42 41  1  0  0  0  0
 43 45  1  0  0  0  0
 43 38  1  0  0  0  0
 46 50  1  0  0  0  0
 46 45  1  0  0  0  0
 47 46  1  0  0  0  0
 48 50  1  0  0  0  0
 50 49  1  0  0  0  0
 51  8  1  0  0  0  0
 52 51  3  0  0  0  0
M  END
>  <MODEL>
3

>  <REMARK>
 VINA RESULT:      -7.9      3.462      6.835
  Name = 
  12 active torsions:
  status: ('A' for Active; 'I' for Inactive)
    1  A    between atoms: C_2  and  N_19
    2  A    between atoms: C_2  and  C_52
    3  A    between atoms: N_6  and  C_29
    4  A    between atoms: N_9  and  C_13
    5  A    between atoms: N_9  and  C_43
    6  A    between atoms: C_10  and  C_30
    7  A    between atoms: C_12  and  C_32
    8  A    between atoms: C_13  and  C_41
    9  A    between atoms: C_26  and  C_33
   10  A    between atoms: C_26  and  N_37
   11  A    between atoms: C_33  and  CA_44
   12  A    between atoms: C_42  and  N_47
                            x       y       z     vdW  Elec       q    Type
                         _______ _______ _______ _____ _____    ______ ____

>  <TORSDO>
F 12

$$$$
=
 OpenBabel11032419563D

 52 60  0  0  1  0  0  0  0  0999 V2000
  180.8560  180.8550  139.7980 C   0  0  0  0  0  2  0  0  0  0  0  0
  180.0050  180.6230  136.0940 C   0  0  0  0  0  0  0  0  0  0  0  0
  180.1990  180.2490  137.4310 C   0  0  0  0  0  0  0  0  0  0  0  0
  179.9240  178.9110  137.8650 N   0  0  0  0  0  2  0  0  0  0  0  0
  179.5460  179.6740  135.1350 N   0  0  0  0  0  1  0  0  0  0  0  0
  180.2620  181.9010  135.7030 N   0  0  0  0  0  0  0  0  0  0  0  0
  180.0430  179.6200  140.1970 C   0  0  1  0  0  3  0  0  0  0  0  0
  180.7150  182.8400  136.5780 C   0  0  0  0  0  0  0  0  0  0  0  0
  180.2690  178.4580  139.2130 C   0  0  2  0  0  3  0  0  0  0  0  0
  180.9070  182.5120  137.9220 C   0  0  0  0  0  3  0  0  0  0  0  0
  180.6320  181.2160  138.3570 C   0  0  0  0  0  0  0  0  0  0  0  0
  182.4530  178.4110  138.0720 N   0  0  0  0  0  2  0  0  0  0  0  0
  181.7140  177.9360  139.2370 C   0  0  2  0  0  3  0  0  0  0  0  0
  182.5050  177.0440  137.5700 C   0  0  1  0  0  3  0  0  0  0  0  0
  183.2210  176.1390  138.5540 C   0  0  1  0  0  3  0  0  0  0  0  0
  181.7710  176.5010  138.7710 C   0  0  1  0  0  3  0  0  0  0  0  0
  184.4500  173.1840  136.7890 O   0  0  0  0  0  0  0  0  0  0  0  0
  185.6140  175.1740  137.1830 N   0  0  0  0  0  2  0  0  0  0  0  0
  184.4580  174.3350  137.3020 C   0  0  0  0  0  0  0  0  0  0  0  0
  183.3040  174.7960  138.0050 N   0  0  0  0  0  2  0  0  0  0  0  0
  186.7500  174.8650  136.3220 C   0  0  1  0  0  0  0  0  0  0  0  0
  187.9000  171.4090  135.9270 C   0  0  0  0  0  1  0  0  0  0  0  0
  187.5590  173.6930  136.8280 C   0  0  1  0  0  3  0  0  0  0  0  0
  186.7110  173.5500  135.5720 C   0  0  2  0  0  3  0  0  0  0  0  0
  188.0740  172.8880  135.6490 C   0  0  2  0  0  3  0  0  0  0  0  0
  188.7500  178.1580  136.1140 C   0  0  0  0  0  3  0  0  0  0  0  0
  188.8420  178.9100  137.2090 C   0  0  0  0  0  2  0  0  0  0  0  0
  188.1430  178.3030  138.2990 N   0  0  0  0  0  0  0  0  0  0  0  0
  187.9520  177.0290  136.5570 C   0  0  0  0  0  0  0  0  0  0  0  0
  187.6240  177.2080  137.9230 N   0  0  0  0  0  0  0  0  0  0  0  0
  187.5730  176.0020  135.8000 C   0  0  0  0  0  2  0  0  0  0  0  0
  179.5710  177.3620  143.3550 O   0  0  0  0  0  0  0  0  0  0  0  0
  180.3360  179.2420  141.5690 N   0  0  0  0  0  0  0  0  0  0  0  0
  180.1430  178.3250  142.7800 C   0  0  0  0  0  0  0  0  0  0  0  0
  181.1010  179.3310  142.7330 C   0  0  1  0  0  3  0  0  0  0  0  0
  182.4800  178.7610  142.4650 C   0  0  0  0  0  2  0  0  0  0  0  0
  183.3700  178.8980  143.6910 C   0  0  0  0  0  2  0  0  0  0  0  0
  187.5510  178.2210  142.4680 C   0  0  0  0  0  2  0  0  0  0  0  0
  186.5780  177.4740  144.6990 C   0  0  0  0  0  2  0  0  0  0  0  0
  185.5190  178.5760  144.5900 C   0  0  0  0  0  2  0  0  0  0  0  0
  185.2660  179.3120  142.3900 C   0  0  0  0  0  2  0  0  0  0  0  0
  184.7060  178.4090  143.3900 N   0  0  0  0  0  0  0  0  0  0  0  0
  187.1770  177.0370  143.3560 C   0  0  2  0  0  3  0  0  0  0  0  0
  186.3660  178.6170  141.5870 C   0  0  0  0  0  2  0  0  0  0  0  0
  188.3450  176.2060  143.5960 N   0  0  0  0  0  2  0  0  0  0  0  0
  189.4790  177.1020  143.7990 C   0  0  1  0  0  3  0  0  0  0  0  0
  189.8200  177.1880  145.2780 C   0  0  0  0  0  1  0  0  0  0  0  0
  191.6470  175.7830  143.7870 C   0  0  0  0  0  1  0  0  0  0  0  0
  190.2770  175.9680  141.8430 O   0  0  0  0  0  1  0  0  0  0  0  0
  190.6940  176.6570  142.9830 C   0  0  1  0  0  3  0  0  0  0  0  0
  180.9720  184.1770  136.1240 C   0  0  0  0  0  0  0  0  0  0  0  0
  181.1790  185.2540  135.7540 N   0  0  0  0  0  0  0  0  0  0  0  0
  2  3  1  0  0  0  0
  3  4  1  0  0  0  0
  3 11  2  0  0  0  0
  5  2  1  0  0  0  0
  6  2  2  0  0  0  0
  6  8  1  0  0  0  0
  7  1  1  6  0  0  0
  7 33  1  0  0  0  0
  8 10  2  0  0  0  0
  9  4  1  6  0  0  0
  9 13  1  0  0  0  0
  9  7  1  0  0  0  0
 10 11  1  0  0  0  0
 11  1  1  0  0  0  0
 13 12  1  6  0  0  0
 14 12  1  1  0  0  0
 14 15  1  0  0  0  0
 14 16  1  0  0  0  0
 15 20  1  6  0  0  0
 15 16  1  0  0  0  0
 16 13  1  0  0  0  0
 17 19  2  0  0  0  0
 18 19  1  0  0  0  0
 19 20  1  0  0  0  0
 21 23  1  0  0  0  0
 21 18  1  0  0  0  0
 24 25  1  0  0  0  0
 24 21  1  0  0  0  0
 24 23  1  0  0  0  0
 25 22  1  0  0  0  0
 25 23  1  0  0  0  0
 26 29  2  0  0  0  0
 26 27  1  0  0  0  0
 27 28  1  0  0  0  0
 29 30  1  0  0  0  0
 30 28  2  0  0  0  0
 31 21  1  0  0  0  0
 31 29  1  0  0  0  0
 33 35  1  0  0  0  0
 33 34  1  0  0  0  0
 34 32  2  0  0  0  0
 35 34  1  0  0  0  0
 36 35  1  0  0  0  0
 36 37  1  0  0  0  0
 38 43  1  0  0  0  0
 40 39  1  0  0  0  0
 41 42  1  0  0  0  0
 42 37  1  0  0  0  0
 42 40  1  0  0  0  0
 43 45  1  0  0  0  0
 43 39  1  0  0  0  0
 44 41  1  0  0  0  0
 44 38  1  0  0  0  0
 45 46  1  0  0  0  0
 46 47  1  0  0  0  0
 49 50  1  0  0  0  0
 50 48  1  0  0  0  0
 50 46  1  0  0  0  0
 51  8  1  0  0  0  0
 52 51  3  0  0  0  0
M  END
>  <MODEL>
4

>  <REMARK>
 VINA RESULT:      -7.6      3.236      5.920
  Name = 
  12 active torsions:
  status: ('A' for Active; 'I' for Inactive)
    1  A    between atoms: C_2  and  N_19
    2  A    between atoms: C_2  and  C_52
    3  A    between atoms: N_6  and  C_29
    4  A    between atoms: N_9  and  C_13
    5  A    between atoms: N_9  and  C_43
    6  A    between atoms: C_10  and  C_30
    7  A    between atoms: C_12  and  C_32
    8  A    between atoms: C_13  and  C_41
    9  A    between atoms: C_26  and  C_33
   10  A    between atoms: C_26  and  N_37
   11  A    between atoms: C_33  and  CA_44
   12  A    between atoms: C_42  and  N_47
                            x       y       z     vdW  Elec       q    Type
                         _______ _______ _______ _____ _____    ______ ____

>  <TORSDO>
F 12

$$$$
=
 OpenBabel11032419563D

 52 60  0  0  1  0  0  0  0  0999 V2000
  187.9090  177.1650  144.6540 C   0  0  0  0  0  2  0  0  0  0  0  0
  191.5590  178.2460  144.5930 C   0  0  0  0  0  0  0  0  0  0  0  0
  190.2050  178.1470  144.2470 C   0  0  0  0  0  0  0  0  0  0  0  0
  189.6650  178.9250  143.1710 N   0  0  0  0  0  2  0  0  0  0  0  0
  192.4310  179.1090  143.8690 N   0  0  0  0  0  1  0  0  0  0  0  0
  192.0510  177.5060  145.6240 N   0  0  0  0  0  0  0  0  0  0  0  0
  187.3960  178.3900  143.8930 C   0  0  1  0  0  3  0  0  0  0  0  0
  191.2620  176.6570  146.3360 C   0  0  0  0  0  0  0  0  0  0  0  0
  188.2970  178.7210  142.6900 C   0  0  2  0  0  3  0  0  0  0  0  0
  189.9030  176.5400  146.0330 C   0  0  0  0  0  3  0  0  0  0  0  0
  189.3650  177.3010  144.9950 C   0  0  0  0  0  0  0  0  0  0  0  0
  189.5900  176.9980  141.4940 N   0  0  0  0  0  2  0  0  0  0  0  0
  188.2770  177.6220  141.6160 C   0  0  2  0  0  3  0  0  0  0  0  0
  189.7260  177.5840  140.1670 C   0  0  1  0  0  3  0  0  0  0  0  0
  188.6140  177.1050  139.2530 C   0  0  1  0  0  3  0  0  0  0  0  0
  188.3610  178.2250  140.2340 C   0  0  1  0  0  3  0  0  0  0  0  0
  189.2720  177.3810  135.6680 O   0  0  0  0  0  0  0  0  0  0  0  0
  189.0340  175.4120  136.9090 N   0  0  0  0  0  2  0  0  0  0  0  0
  189.0470  176.8400  136.7840 C   0  0  0  0  0  0  0  0  0  0  0  0
  188.8050  177.6640  137.9240 N   0  0  0  0  0  2  0  0  0  0  0  0
  189.4630  174.5060  135.8500 C   0  0  1  0  0  0  0  0  0  0  0  0
  187.3860  171.6430  134.8960 C   0  0  0  0  0  1  0  0  0  0  0  0
  189.0140  173.0820  136.0880 C   0  0  1  0  0  3  0  0  0  0  0  0
  188.3830  173.9060  134.9730 C   0  0  2  0  0  3  0  0  0  0  0  0
  188.6720  172.4320  134.7600 C   0  0  2  0  0  3  0  0  0  0  0  0
  193.3110  174.7290  135.6910 C   0  0  0  0  0  3  0  0  0  0  0  0
  193.9940  174.6780  136.8340 C   0  0  0  0  0  2  0  0  0  0  0  0
  193.1070  174.5390  137.9460 N   0  0  0  0  0  0  0  0  0  0  0  0
  191.9320  174.6140  136.1270 C   0  0  0  0  0  0  0  0  0  0  0  0
  191.9050  174.5010  137.5380 N   0  0  0  0  0  0  0  0  0  0  0  0
  190.8630  174.6320  135.3340 C   0  0  0  0  0  2  0  0  0  0  0  0
  183.5450  178.6900  144.5050 O   0  0  0  0  0  0  0  0  0  0  0  0
  186.0090  178.2020  143.5040 N   0  0  0  0  0  0  0  0  0  0  0  0
  184.5080  178.3540  143.7660 C   0  0  0  0  0  0  0  0  0  0  0  0
  185.0260  177.8890  142.5640 C   0  0  1  0  0  3  0  0  0  0  0  0
  184.9960  178.9700  141.5000 C   0  0  0  0  0  2  0  0  0  0  0  0
  183.6220  179.0540  140.8540 C   0  0  0  0  0  2  0  0  0  0  0  0
  183.1070  177.5660  136.7350 C   0  0  0  0  0  2  0  0  0  0  0  0
  185.3530  177.7230  137.9260 C   0  0  0  0  0  2  0  0  0  0  0  0
  184.7840  178.8290  138.8210 C   0  0  0  0  0  2  0  0  0  0  0  0
  182.4500  178.8020  138.8470 C   0  0  0  0  0  2  0  0  0  0  0  0
  183.6310  178.3530  139.5780 N   0  0  0  0  0  0  0  0  0  0  0  0
  184.2930  176.7980  137.3130 C   0  0  2  0  0  3  0  0  0  0  0  0
  182.0330  177.7650  137.8040 C   0  0  0  0  0  2  0  0  0  0  0  0
  184.9060  175.9780  136.2810 N   0  0  0  0  0  2  0  0  0  0  0  0
  184.2030  174.7000  136.2710 C   0  0  1  0  0  3  0  0  0  0  0  0
  184.3880  174.0110  134.9280 C   0  0  0  0  0  1  0  0  0  0  0  0
  184.3170  172.3360  137.1840 C   0  0  0  0  0  1  0  0  0  0  0  0
  186.0450  173.9280  137.5960 O   0  0  0  0  0  1  0  0  0  0  0  0
  184.6670  173.7990  137.4160 C   0  0  1  0  0  3  0  0  0  0  0  0
  191.8200  175.8970  147.4180 C   0  0  0  0  0  0  0  0  0  0  0  0
  192.2750  175.2840  148.2880 N   0  0  0  0  0  0  0  0  0  0  0  0
  1 11  1  0  0  0  0
  2  6  1  0  0  0  0
  3  2  2  0  0  0  0
  3 11  1  0  0  0  0
  4  3  1  0  0  0  0
  5  2  1  0  0  0  0
  6  8  2  0  0  0  0
  7 33  1  6  0  0  0
  7  1  1  0  0  0  0
  8 51  1  0  0  0  0
  9  4  1  1  0  0  0
  9  7  1  0  0  0  0
 10  8  1  0  0  0  0
 11 10  2  0  0  0  0
 13 12  1  1  0  0  0
 13  9  1  0  0  0  0
 14 16  1  0  0  0  0
 14 12  1  1  0  0  0
 15 20  1  6  0  0  0
 15 14  1  0  0  0  0
 15 16  1  0  0  0  0
 16 13  1  0  0  0  0
 17 19  2  0  0  0  0
 19 18  1  0  0  0  0
 19 20  1  0  0  0  0
 21 23  1  0  0  0  0
 21 18  1  0  0  0  0
 24 21  1  0  0  0  0
 24 23  1  0  0  0  0
 25 22  1  0  0  0  0
 25 24  1  0  0  0  0
 25 23  1  0  0  0  0
 26 29  2  0  0  0  0
 26 27  1  0  0  0  0
 27 28  1  0  0  0  0
 29 30  1  0  0  0  0
 30 28  2  0  0  0  0
 31 21  1  0  0  0  0
 31 29  1  0  0  0  0
 33 34  1  0  0  0  0
 34 32  2  0  0  0  0
 35 33  1  0  0  0  0
 35 34  1  0  0  0  0
 36 35  1  0  0  0  0
 37 36  1  0  0  0  0
 38 43  1  0  0  0  0
 38 44  1  0  0  0  0
 39 40  1  0  0  0  0
 40 42  1  0  0  0  0
 41 42  1  0  0  0  0
 42 37  1  0  0  0  0
 43 39  1  0  0  0  0
 44 41  1  0  0  0  0
 45 43  1  0  0  0  0
 46 45  1  0  0  0  0
 46 50  1  0  0  0  0
 47 46  1  0  0  0  0
 48 50  1  0  0  0  0
 50 49  1  0  0  0  0
 51 52  3  0  0  0  0
M  END
>  <MODEL>
5

>  <REMARK>
 VINA RESULT:      -7.3      2.927      7.855
  Name = 
  12 active torsions:
  status: ('A' for Active; 'I' for Inactive)
    1  A    between atoms: C_2  and  N_19
    2  A    between atoms: C_2  and  C_52
    3  A    between atoms: N_6  and  C_29
    4  A    between atoms: N_9  and  C_13
    5  A    between atoms: N_9  and  C_43
    6  A    between atoms: C_10  and  C_30
    7  A    between atoms: C_12  and  C_32
    8  A    between atoms: C_13  and  C_41
    9  A    between atoms: C_26  and  C_33
   10  A    between atoms: C_26  and  N_37
   11  A    between atoms: C_33  and  CA_44
   12  A    between atoms: C_42  and  N_47
                            x       y       z     vdW  Elec       q    Type
                         _______ _______ _______ _____ _____    ______ ____

>  <TORSDO>
F 12

$$$$
=
 OpenBabel11032419563D

 52 60  0  0  1  0  0  0  0  0999 V2000
  190.5590  176.1510  139.4750 C   0  0  0  0  0  2  0  0  0  0  0  0
  191.2850  176.3450  135.7420 C   0  0  0  0  0  0  0  0  0  0  0  0
  190.7290  176.6310  136.9960 C   0  0  0  0  0  0  0  0  0  0  0  0
  189.7880  177.7010  137.1540 N   0  0  0  0  0  2  0  0  0  0  0  0
  190.9120  177.1020  134.5940 N   0  0  0  0  0  1  0  0  0  0  0  0
  192.1840  175.3310  135.6140 N   0  0  0  0  0  0  0  0  0  0  0  0
  190.0270  177.5830  139.5790 C   0  0  1  0  0  3  0  0  0  0  0  0
  192.5610  174.5700  136.6780 C   0  0  0  0  0  0  0  0  0  0  0  0
  189.0770  177.9150  138.4150 C   0  0  2  0  0  3  0  0  0  0  0  0
  192.0410  174.8320  137.9480 C   0  0  0  0  0  3  0  0  0  0  0  0
  191.1340  175.8780  138.1140 C   0  0  0  0  0  0  0  0  0  0  0  0
  187.7650  176.1390  137.3220 N   0  0  0  0  0  2  0  0  0  0  0  0
  187.7910  177.0730  138.4420 C   0  0  2  0  0  3  0  0  0  0  0  0
  186.6560  176.8890  136.7460 C   0  0  1  0  0  3  0  0  0  0  0  0
  185.4730  176.9080  137.6940 C   0  0  1  0  0  3  0  0  0  0  0  0
  186.6250  177.8620  137.8990 C   0  0  1  0  0  3  0  0  0  0  0  0
  182.1490  178.3070  137.0960 O   0  0  0  0  0  0  0  0  0  0  0  0
  182.8940  177.2250  139.0320 N   0  0  0  0  0  2  0  0  0  0  0  0
  183.0930  177.7400  137.7090 C   0  0  0  0  0  0  0  0  0  0  0  0
  184.3650  177.6160  137.0730 N   0  0  0  0  0  2  0  0  0  0  0  0
  181.5880  177.1320  139.6730 C   0  0  1  0  0  0  0  0  0  0  0  0
  180.1040  180.0570  141.3060 C   0  0  0  0  0  1  0  0  0  0  0  0
  181.4690  178.0320  140.8820 C   0  0  1  0  0  3  0  0  0  0  0  0
  180.6980  178.3560  139.6100 C   0  0  2  0  0  3  0  0  0  0  0  0
  180.0570  178.5820  140.9660 C   0  0  2  0  0  3  0  0  0  0  0  0
  179.7940  173.7880  138.9760 C   0  0  0  0  0  3  0  0  0  0  0  0
  179.3350  173.5630  137.7470 C   0  0  0  0  0  3  0  0  0  0  0  0
  179.6220  174.6710  136.8900 N   0  0  0  0  0  0  0  0  0  0  0  0
  180.3960  175.1050  138.8660 C   0  0  0  0  0  0  0  0  0  0  0  0
  180.2400  175.5690  137.5380 N   0  0  0  0  0  0  0  0  0  0  0  0
  180.9830  175.7750  139.8550 C   0  0  0  0  0  3  0  0  0  0  0  0
  190.0510  178.8590  143.2760 O   0  0  0  0  0  0  0  0  0  0  0  0
  189.4040  177.7990  140.8750 N   0  0  0  0  0  0  0  0  0  0  0  0
  189.4410  178.3290  142.3110 C   0  0  0  0  0  0  0  0  0  0  0  0
  188.2910  177.8240  141.7160 C   0  0  1  0  0  3  0  0  0  0  0  0
  187.3650  178.9420  141.2780 C   0  0  0  0  0  2  0  0  0  0  0  0
  186.0130  178.8250  141.9670 C   0  0  0  0  0  2  0  0  0  0  0  0
  185.7190  178.1630  146.3160 C   0  0  0  0  0  2  0  0  0  0  0  0
  187.1300  176.7370  144.7480 C   0  0  0  0  0  2  0  0  0  0  0  0
  186.2110  177.1310  143.5860 C   0  0  0  0  0  2  0  0  0  0  0  0
  185.0070  179.0730  144.0610 C   0  0  0  0  0  2  0  0  0  0  0  0
  186.2030  178.5760  143.3880 N   0  0  0  0  0  0  0  0  0  0  0  0
  187.1270  177.7270  145.9200 C   0  0  2  0  0  3  0  0  0  0  0  0
  185.3070  179.4040  145.5240 C   0  0  0  0  0  2  0  0  0  0  0  0
  187.8020  177.1280  147.0590 N   0  0  0  0  0  2  0  0  0  0  0  0
  189.0840  177.8080  147.2090 C   0  0  1  0  0  3  0  0  0  0  0  0
  189.1460  178.5230  148.5490 C   0  0  0  0  0  1  0  0  0  0  0  0
  190.7610  176.7520  145.6230 C   0  0  0  0  0  1  0  0  0  0  0  0
  191.2990  177.2050  147.9020 O   0  0  0  0  0  1  0  0  0  0  0  0
  190.2540  176.8320  147.0560 C   0  0  1  0  0  3  0  0  0  0  0  0
  193.5130  173.5120  136.4990 C   0  0  0  0  0  0  0  0  0  0  0  0
  194.2810  172.6580  136.3520 N   0  0  0  0  0  0  0  0  0  0  0  0
  2  3  1  0  0  0  0
  3  4  1  0  0  0  0
  3 11  2  0  0  0  0
  5  2  1  0  0  0  0
  6  2  2  0  0  0  0
  6  8  1  0  0  0  0
  7  1  1  6  0  0  0
  7 33  1  0  0  0  0
  8 10  2  0  0  0  0
  9  4  1  6  0  0  0
  9 13  1  0  0  0  0
  9  7  1  0  0  0  0
 10 11  1  0  0  0  0
 11  1  1  0  0  0  0
 13 12  1  6  0  0  0
 14 12  1  1  0  0  0
 14 15  1  0  0  0  0
 14 16  1  0  0  0  0
 15 20  1  6  0  0  0
 15 16  1  0  0  0  0
 16 13  1  0  0  0  0
 17 19  2  0  0  0  0
 18 21  1  0  0  0  0
 19 18  1  0  0  0  0
 20 19  1  0  0  0  0
 21 31  1  0  0  0  0
 21 23  1  0  0  0  0
 23 25  1  0  0  0  0
 24 21  1  0  0  0  0
 24 23  1  0  0  0  0
 24 25  1  0  0  0  0
 25 22  1  0  0  0  0
 27 26  2  0  0  0  0
 28 30  2  0  0  0  0
 28 27  1  0  0  0  0
 29 26  1  0  0  0  0
 29 31  2  0  0  0  0
 30 29  1  0  0  0  0
 33 35  1  0  0  0  0
 33 34  1  0  0  0  0
 34 32  2  0  0  0  0
 35 34  1  0  0  0  0
 36 35  1  0  0  0  0
 36 37  1  0  0  0  0
 37 42  1  0  0  0  0
 39 43  1  0  0  0  0
 40 39  1  0  0  0  0
 41 44  1  0  0  0  0
 42 40  1  0  0  0  0
 42 41  1  0  0  0  0
 43 38  1  0  0  0  0
 43 45  1  0  0  0  0
 44 38  1  0  0  0  0
 45 46  1  0  0  0  0
 46 47  1  0  0  0  0
 48 50  1  0  0  0  0
 50 46  1  0  0  0  0
 50 49  1  0  0  0  0
 51  8  1  0  0  0  0
 52 51  3  0  0  0  0
M  END
>  <MODEL>
6

>  <REMARK>
 VINA RESULT:      -7.3      2.624      5.262
  Name = 
  12 active torsions:
  status: ('A' for Active; 'I' for Inactive)
    1  A    between atoms: C_2  and  N_19
    2  A    between atoms: C_2  and  C_52
    3  A    between atoms: N_6  and  C_29
    4  A    between atoms: N_9  and  C_13
    5  A    between atoms: N_9  and  C_43
    6  A    between atoms: C_10  and  C_30
    7  A    between atoms: C_12  and  C_32
    8  A    between atoms: C_13  and  C_41
    9  A    between atoms: C_26  and  C_33
   10  A    between atoms: C_26  and  N_37
   11  A    between atoms: C_33  and  CA_44
   12  A    between atoms: C_42  and  N_47
                            x       y       z     vdW  Elec       q    Type
                         _______ _______ _______ _____ _____    ______ ____

>  <TORSDO>
F 12

$$$$
=
 OpenBabel11032419563D

 52 60  0  0  1  0  0  0  0  0999 V2000
  186.6980  177.9180  142.7850 C   0  0  0  0  0  2  0  0  0  0  0  0
  190.1920  178.2290  144.2680 C   0  0  0  0  0  0  0  0  0  0  0  0
  189.1430  178.2680  143.3400 C   0  0  0  0  0  0  0  0  0  0  0  0
  189.3670  178.7170  141.9970 N   0  0  0  0  0  2  0  0  0  0  0  0
  191.5080  178.6210  143.8900 N   0  0  0  0  0  1  0  0  0  0  0  0
  189.9560  177.8080  145.5400 N   0  0  0  0  0  0  0  0  0  0  0  0
  186.9610  178.8840  141.6260 C   0  0  1  0  0  3  0  0  0  0  0  0
  188.7190  177.4110  145.9450 C   0  0  0  0  0  0  0  0  0  0  0  0
  188.3280  178.6160  140.9720 C   0  0  2  0  0  3  0  0  0  0  0  0
  187.6430  177.4480  145.0560 C   0  0  0  0  0  3  0  0  0  0  0  0
  187.8490  177.8950  143.7500 C   0  0  0  0  0  0  0  0  0  0  0  0
  189.7690  176.7420  140.2730 N   0  0  0  0  0  2  0  0  0  0  0  0
  188.3970  177.2400  140.2900 C   0  0  2  0  0  3  0  0  0  0  0  0
  189.7870  176.8960  138.8240 C   0  0  1  0  0  3  0  0  0  0  0  0
  188.7070  176.0480  138.1810 C   0  0  1  0  0  3  0  0  0  0  0  0
  188.3610  177.3860  138.7880 C   0  0  1  0  0  3  0  0  0  0  0  0
  188.0410  175.5890  134.6160 O   0  0  0  0  0  0  0  0  0  0  0  0
  186.8230  174.6970  136.4020 N   0  0  0  0  0  2  0  0  0  0  0  0
  187.8870  175.4900  135.8630 C   0  0  0  0  0  0  0  0  0  0  0  0
  188.7830  176.1800  136.7350 N   0  0  0  0  0  2  0  0  0  0  0  0
  185.9920  173.8090  135.5980 C   0  0  1  0  0  0  0  0  0  0  0  0
  187.0100  170.3410  135.0010 C   0  0  0  0  0  1  0  0  0  0  0  0
  186.8060  172.8040  134.8150 C   0  0  1  0  0  3  0  0  0  0  0  0
  185.9570  172.3470  135.9930 C   0  0  2  0  0  3  0  0  0  0  0  0
  186.0540  171.4880  134.7470 C   0  0  2  0  0  3  0  0  0  0  0  0
  182.4540  174.9820  134.6020 C   0  0  0  0  0  3  0  0  0  0  0  0
  181.4490  174.7380  135.4410 C   0  0  0  0  0  2  0  0  0  0  0  0
  181.9180  174.0550  136.6060 N   0  0  0  0  0  0  0  0  0  0  0  0
  183.6010  174.4200  135.2910 C   0  0  0  0  0  0  0  0  0  0  0  0
  183.1710  173.8680  136.5220 N   0  0  0  0  0  0  0  0  0  0  0  0
  184.8510  174.4060  134.8340 C   0  0  0  0  0  2  0  0  0  0  0  0
  185.4200  177.8780  138.1760 O   0  0  0  0  0  0  0  0  0  0  0  0
  185.8730  178.8300  140.6660 N   0  0  0  0  0  0  0  0  0  0  0  0
  185.2940  178.4020  139.3130 C   0  0  0  0  0  0  0  0  0  0  0  0
  184.5310  178.9870  140.3160 C   0  0  1  0  0  3  0  0  0  0  0  0
  183.7030  177.9490  141.0500 C   0  0  0  0  0  2  0  0  0  0  0  0
  182.4010  178.5540  141.5540 C   0  0  0  0  0  2  0  0  0  0  0  0
  179.1670  178.7200  138.5620 C   0  0  0  0  0  2  0  0  0  0  0  0
  180.3500  180.7710  139.5010 C   0  0  0  0  0  2  0  0  0  0  0  0
  180.7020  179.9730  140.7610 C   0  0  0  0  0  2  0  0  0  0  0  0
  180.5790  177.6730  140.3860 C   0  0  0  0  0  2  0  0  0  0  0  0
  181.5050  178.8000  140.4340 N   0  0  0  0  0  0  0  0  0  0  0  0
  180.0780  179.9080  138.2620 C   0  0  2  0  0  3  0  0  0  0  0  0
  179.9980  177.5080  138.9810 C   0  0  0  0  0  2  0  0  0  0  0  0
  179.4920  180.7340  137.2180 N   0  0  0  0  0  2  0  0  0  0  0  0
  180.5790  181.4870  136.6020 C   0  0  1  0  0  3  0  0  0  0  0  0
  180.8540  180.9600  135.2020 C   0  0  0  0  0  1  0  0  0  0  0  0
  178.9310  183.3180  137.2090 C   0  0  0  0  0  1  0  0  0  0  0  0
  181.2860  183.6930  137.2180 O   0  0  0  0  0  1  0  0  0  0  0  0
  180.2720  182.9850  136.5710 C   0  0  1  0  0  3  0  0  0  0  0  0
  188.5150  176.9760  147.2970 C   0  0  0  0  0  0  0  0  0  0  0  0
  188.3470  176.6230  148.3870 N   0  0  0  0  0  0  0  0  0  0  0  0
  1 11  1  0  0  0  0
  2  6  1  0  0  0  0
  3 11  1  0  0  0  0
  3  2  2  0  0  0  0
  4  3  1  0  0  0  0
  5  2  1  0  0  0  0
  6  8  2  0  0  0  0
  7 33  1  6  0  0  0
  7  1  1  0  0  0  0
  8 51  1  0  0  0  0
  9  7  1  0  0  0  0
  9  4  1  1  0  0  0
 10  8  1  0  0  0  0
 11 10  2  0  0  0  0
 13 12  1  6  0  0  0
 13  9  1  0  0  0  0
 14 12  1  1  0  0  0
 15 20  1  6  0  0  0
 15 16  1  0  0  0  0
 15 14  1  0  0  0  0
 16 14  1  0  0  0  0
 16 13  1  0  0  0  0
 17 19  2  0  0  0  0
 19 18  1  0  0  0  0
 19 20  1  0  0  0  0
 21 24  1  0  0  0  0
 21 18  1  0  0  0  0
 23 21  1  0  0  0  0
 23 24  1  0  0  0  0
 25 23  1  0  0  0  0
 25 22  1  0  0  0  0
 25 24  1  0  0  0  0
 26 29  2  0  0  0  0
 26 27  1  0  0  0  0
 27 28  1  0  0  0  0
 29 30  1  0  0  0  0
 30 28  2  0  0  0  0
 31 29  1  0  0  0  0
 31 21  1  0  0  0  0
 32 34  2  0  0  0  0
 34 35  1  0  0  0  0
 34 33  1  0  0  0  0
 35 33  1  0  0  0  0
 35 36  1  0  0  0  0
 36 37  1  0  0  0  0
 38 44  1  0  0  0  0
 39 40  1  0  0  0  0
 41 42  1  0  0  0  0
 42 40  1  0  0  0  0
 42 37  1  0  0  0  0
 43 38  1  0  0  0  0
 43 39  1  0  0  0  0
 44 41  1  0  0  0  0
 45 43  1  0  0  0  0
 46 45  1  0  0  0  0
 47 46  1  0  0  0  0
 50 46  1  0  0  0  0
 50 48  1  0  0  0  0
 50 49  1  0  0  0  0
 51 52  3  0  0  0  0
M  END
>  <MODEL>
7

>  <REMARK>
 VINA RESULT:      -7.1      3.251      8.042
  Name = 
  12 active torsions:
  status: ('A' for Active; 'I' for Inactive)
    1  A    between atoms: C_2  and  N_19
    2  A    between atoms: C_2  and  C_52
    3  A    between atoms: N_6  and  C_29
    4  A    between atoms: N_9  and  C_13
    5  A    between atoms: N_9  and  C_43
    6  A    between atoms: C_10  and  C_30
    7  A    between atoms: C_12  and  C_32
    8  A    between atoms: C_13  and  C_41
    9  A    between atoms: C_26  and  C_33
   10  A    between atoms: C_26  and  N_37
   11  A    between atoms: C_33  and  CA_44
   12  A    between atoms: C_42  and  N_47
                            x       y       z     vdW  Elec       q    Type
                         _______ _______ _______ _____ _____    ______ ____

>  <TORSDO>
F 12

$$$$
=
 OpenBabel11032419563D

 52 60  0  0  1  0  0  0  0  0999 V2000
  190.5510  176.1110  139.4610 C   0  0  0  0  0  2  0  0  0  0  0  0
  191.3510  176.4000  135.7490 C   0  0  0  0  0  0  0  0  0  0  0  0
  190.7660  176.6510  136.9980 C   0  0  0  0  0  0  0  0  0  0  0  0
  189.8110  177.7070  137.1610 N   0  0  0  0  0  2  0  0  0  0  0  0
  190.9930  177.1800  134.6120 N   0  0  0  0  0  1  0  0  0  0  0  0
  192.2630  175.3990  135.6160 N   0  0  0  0  0  0  0  0  0  0  0  0
  190.0020  177.5350  139.5870 C   0  0  1  0  0  3  0  0  0  0  0  0
  192.6260  174.6170  136.6690 C   0  0  0  0  0  0  0  0  0  0  0  0
  189.0720  177.8840  138.4120 C   0  0  2  0  0  3  0  0  0  0  0  0
  192.0790  174.8440  137.9340 C   0  0  0  0  0  3  0  0  0  0  0  0
  191.1570  175.8760  138.1060 C   0  0  0  0  0  0  0  0  0  0  0  0
  187.8670  176.0210  137.3400 N   0  0  0  0  0  2  0  0  0  0  0  0
  187.7950  177.0280  138.3930 C   0  0  2  0  0  3  0  0  0  0  0  0
  186.8020  176.7160  136.6280 C   0  0  1  0  0  3  0  0  0  0  0  0
  185.5460  176.7820  137.4750 C   0  0  1  0  0  3  0  0  0  0  0  0
  186.6700  177.7630  137.7050 C   0  0  1  0  0  3  0  0  0  0  0  0
  182.2690  178.0850  136.5150 O   0  0  0  0  0  0  0  0  0  0  0  0
  182.8600  177.1370  138.5690 N   0  0  0  0  0  2  0  0  0  0  0  0
  183.1640  177.5730  137.2390 C   0  0  0  0  0  0  0  0  0  0  0  0
  184.4870  177.4320  136.7210 N   0  0  0  0  0  2  0  0  0  0  0  0
  181.5050  177.0600  139.1030 C   0  0  1  0  0  0  0  0  0  0  0  0
  179.7470  173.8510  139.2660 C   0  0  0  0  0  1  0  0  0  0  0  0
  180.6760  175.9910  138.4300 C   0  0  1  0  0  3  0  0  0  0  0  0
  181.1340  175.8080  139.8700 C   0  0  2  0  0  3  0  0  0  0  0  0
  179.7490  175.3540  139.4490 C   0  0  2  0  0  3  0  0  0  0  0  0
  179.9140  180.0890  140.8860 C   0  0  0  0  0  3  0  0  0  0  0  0
  180.0100  180.1630  142.2130 C   0  0  0  0  0  2  0  0  0  0  0  0
  180.7280  179.0400  142.7290 N   0  0  0  0  0  0  0  0  0  0  0  0
  180.6120  178.8560  140.5730 C   0  0  0  0  0  0  0  0  0  0  0  0
  181.0800  178.2770  141.7780 N   0  0  0  0  0  0  0  0  0  0  0  0
  180.7710  178.3400  139.3570 C   0  0  0  0  0  2  0  0  0  0  0  0
  189.9150  178.7810  143.2930 O   0  0  0  0  0  0  0  0  0  0  0  0
  189.3510  177.7130  140.8740 N   0  0  0  0  0  0  0  0  0  0  0  0
  189.3430  178.2340  142.3150 C   0  0  0  0  0  0  0  0  0  0  0  0
  188.2250  177.6850  141.6980 C   0  0  1  0  0  3  0  0  0  0  0  0
  187.2580  178.7670  141.2540 C   0  0  0  0  0  2  0  0  0  0  0  0
  185.9170  178.6130  141.9540 C   0  0  0  0  0  2  0  0  0  0  0  0
  185.6670  178.4150  146.3520 C   0  0  0  0  0  2  0  0  0  0  0  0
  186.9810  176.7680  144.9210 C   0  0  0  0  0  2  0  0  0  0  0  0
  186.0610  177.0850  143.7370 C   0  0  0  0  0  2  0  0  0  0  0  0
  184.9600  179.1230  144.0250 C   0  0  0  0  0  2  0  0  0  0  0  0
  186.1190  178.5020  143.3910 N   0  0  0  0  0  0  0  0  0  0  0  0
  187.0460  177.8710  145.9850 C   0  0  2  0  0  3  0  0  0  0  0  0
  185.3010  179.5870  145.4410 C   0  0  0  0  0  2  0  0  0  0  0  0
  187.7110  177.3590  147.1720 N   0  0  0  0  0  2  0  0  0  0  0  0
  189.0870  177.8420  147.1380 C   0  0  1  0  0  3  0  0  0  0  0  0
  189.4650  178.4450  148.4810 C   0  0  0  0  0  1  0  0  0  0  0  0
  190.8790  177.0740  145.5130 C   0  0  0  0  0  1  0  0  0  0  0  0
  190.9160  176.4460  147.8130 O   0  0  0  0  0  1  0  0  0  0  0  0
  190.0600  176.7260  146.7470 C   0  0  1  0  0  3  0  0  0  0  0  0
  193.5940  173.5740  136.4860 C   0  0  0  0  0  0  0  0  0  0  0  0
  194.3740  172.7310  136.3410 N   0  0  0  0  0  0  0  0  0  0  0  0
  2  3  1  0  0  0  0
  3  4  1  0  0  0  0
  3 11  2  0  0  0  0
  5  2  1  0  0  0  0
  6  2  2  0  0  0  0
  6  8  1  0  0  0  0
  7  1  1  6  0  0  0
  7 33  1  0  0  0  0
  8 10  2  0  0  0  0
  9  4  1  6  0  0  0
  9  7  1  0  0  0  0
 10 11  1  0  0  0  0
 11  1  1  0  0  0  0
 13 12  1  6  0  0  0
 13  9  1  0  0  0  0
 14 12  1  1  0  0  0
 14 15  1  0  0  0  0
 14 16  1  0  0  0  0
 15 20  1  6  0  0  0
 15 16  1  0  0  0  0
 16 13  1  0  0  0  0
 17 19  2  0  0  0  0
 18 21  1  0  0  0  0
 19 18  1  0  0  0  0
 20 19  1  0  0  0  0
 21 31  1  0  0  0  0
 21 24  1  0  0  0  0
 22 25  1  0  0  0  0
 23 21  1  0  0  0  0
 23 25  1  0  0  0  0
 23 24  1  0  0  0  0
 25 24  1  0  0  0  0
 26 27  1  0  0  0  0
 27 28  1  0  0  0  0
 29 26  2  0  0  0  0
 29 30  1  0  0  0  0
 30 28  2  0  0  0  0
 31 29  1  0  0  0  0
 33 35  1  0  0  0  0
 33 34  1  0  0  0  0
 34 32  2  0  0  0  0
 35 34  1  0  0  0  0
 36 35  1  0  0  0  0
 36 37  1  0  0  0  0
 37 42  1  0  0  0  0
 39 43  1  0  0  0  0
 40 39  1  0  0  0  0
 41 44  1  0  0  0  0
 42 40  1  0  0  0  0
 42 41  1  0  0  0  0
 43 38  1  0  0  0  0
 43 45  1  0  0  0  0
 44 38  1  0  0  0  0
 46 45  1  0  0  0  0
 46 47  1  0  0  0  0
 48 50  1  0  0  0  0
 50 46  1  0  0  0  0
 50 49  1  0  0  0  0
 51  8  1  0  0  0  0
 52 51  3  0  0  0  0
M  END
>  <MODEL>
8

>  <REMARK>
 VINA RESULT:      -6.9      2.726      5.356
  Name = 
  12 active torsions:
  status: ('A' for Active; 'I' for Inactive)
    1  A    between atoms: C_2  and  N_19
    2  A    between atoms: C_2  and  C_52
    3  A    between atoms: N_6  and  C_29
    4  A    between atoms: N_9  and  C_13
    5  A    between atoms: N_9  and  C_43
    6  A    between atoms: C_10  and  C_30
    7  A    between atoms: C_12  and  C_32
    8  A    between atoms: C_13  and  C_41
    9  A    between atoms: C_26  and  C_33
   10  A    between atoms: C_26  and  N_37
   11  A    between atoms: C_33  and  CA_44
   12  A    between atoms: C_42  and  N_47
                            x       y       z     vdW  Elec       q    Type
                         _______ _______ _______ _____ _____    ______ ____

>  <TORSDO>
F 12

$$$$
=
 OpenBabel11032419563D

 52 60  0  0  1  0  0  0  0  0999 V2000
  183.8110  178.2000  140.3900 C   0  0  0  0  0  2  0  0  0  0  0  0
  183.7390  179.7460  143.8680 C   0  0  0  0  0  0  0  0  0  0  0  0
  184.2000  179.3690  142.6000 C   0  0  0  0  0  0  0  0  0  0  0  0
  185.5020  179.7610  142.1470 N   0  0  0  0  0  2  0  0  0  0  0  0
  184.5630  180.5150  144.7400 N   0  0  0  0  0  1  0  0  0  0  0  0
  182.4960  179.3720  144.2770 N   0  0  0  0  0  0  0  0  0  0  0  0
  184.9300  179.1050  139.8670 C   0  0  1  0  0  3  0  0  0  0  0  0
  181.6770  178.6260  143.4860 C   0  0  0  0  0  0  0  0  0  0  0  0
  186.0650  179.2470  140.8980 C   0  0  2  0  0  3  0  0  0  0  0  0
  182.0920  178.2420  142.2090 C   0  0  0  0  0  3  0  0  0  0  0  0
  183.3530  178.6280  141.7550 C   0  0  0  0  0  0  0  0  0  0  0  0
  186.6070  177.4920  142.5410 N   0  0  0  0  0  2  0  0  0  0  0  0
  186.7950  177.9200  141.1590 C   0  0  2  0  0  3  0  0  0  0  0  0
  188.0230  177.7340  142.7890 C   0  0  1  0  0  3  0  0  0  0  0  0
  188.8800  176.8740  141.8810 C   0  0  1  0  0  3  0  0  0  0  0  0
  188.2730  178.1550  141.3620 C   0  0  1  0  0  3  0  0  0  0  0  0
  191.9780  177.4460  143.7340 O   0  0  0  0  0  0  0  0  0  0  0  0
  189.8690  176.9790  144.6290 N   0  0  0  0  0  2  0  0  0  0  0  0
  190.7630  177.1860  143.5290 C   0  0  0  0  0  0  0  0  0  0  0  0
  190.2840  177.0960  142.1860 N   0  0  0  0  0  2  0  0  0  0  0  0
  190.2240  177.2440  146.0180 C   0  0  1  0  0  0  0  0  0  0  0  0
  192.8060  175.2540  147.6900 C   0  0  0  0  0  1  0  0  0  0  0  0
  190.6290  175.9920  146.7620 C   0  0  1  0  0  3  0  0  0  0  0  0
  191.6730  177.0430  146.4110 C   0  0  2  0  0  3  0  0  0  0  0  0
  191.7360  176.3240  147.7450 C   0  0  2  0  0  3  0  0  0  0  0  0
  187.1290  178.9940  147.5160 C   0  0  0  0  0  3  0  0  0  0  0  0
  185.9230  178.5710  147.1430 C   0  0  0  0  0  2  0  0  0  0  0  0
  186.0320  177.4890  146.2150 N   0  0  0  0  0  0  0  0  0  0  0  0
  188.0260  178.1250  146.7760 C   0  0  0  0  0  0  0  0  0  0  0  0
  187.2550  177.2270  145.9990 N   0  0  0  0  0  0  0  0  0  0  0  0
  189.3560  178.1740  146.8070 C   0  0  0  0  0  2  0  0  0  0  0  0
  187.7550  178.4350  137.2470 O   0  0  0  0  0  0  0  0  0  0  0  0
  185.4120  178.6250  138.5830 N   0  0  0  0  0  0  0  0  0  0  0  0
  186.5460  178.3570  137.5890 C   0  0  0  0  0  0  0  0  0  0  0  0
  185.2400  177.9300  137.3860 C   0  0  1  0  0  3  0  0  0  0  0  0
  185.0940  176.4510  137.6880 C   0  0  0  0  0  2  0  0  0  0  0  0
  185.4590  175.6120  136.4720 C   0  0  0  0  0  2  0  0  0  0  0  0
  188.8810  172.8440  136.7340 C   0  0  0  0  0  2  0  0  0  0  0  0
  189.0920  175.3310  136.2300 C   0  0  0  0  0  2  0  0  0  0  0  0
  187.6590  175.3290  135.6890 C   0  0  0  0  0  2  0  0  0  0  0  0
  186.4460  173.4940  136.4720 C   0  0  0  0  0  2  0  0  0  0  0  0
  186.7090  174.9090  136.7150 N   0  0  0  0  0  0  0  0  0  0  0  0
  189.3980  174.1970  137.2160 C   0  0  2  0  0  3  0  0  0  0  0  0
  187.4500  172.6190  137.2240 C   0  0  0  0  0  2  0  0  0  0  0  0
  190.8320  174.1290  137.4450 N   0  0  0  0  0  2  0  0  0  0  0  0
  191.3340  175.4990  137.4490 C   0  0  1  0  0  3  0  0  0  0  0  0
  191.1470  176.1220  138.8230 C   0  0  0  0  0  1  0  0  0  0  0  0
  192.9720  175.4180  135.5120 C   0  0  0  0  0  1  0  0  0  0  0  0
  193.3780  176.7520  137.4470 O   0  0  0  0  0  1  0  0  0  0  0  0
  192.8010  175.5560  137.0180 C   0  0  1  0  0  3  0  0  0  0  0  0
  180.3720  178.2550  143.9550 C   0  0  0  0  0  0  0  0  0  0  0  0
  179.3220  177.9540  144.3370 N   0  0  0  0  0  0  0  0  0  0  0  0
  1 11  1  0  0  0  0
  2  6  1  0  0  0  0
  2  5  1  0  0  0  0
  3  2  2  0  0  0  0
  4  3  1  0  0  0  0
  7 33  1  6  0  0  0
  7  1  1  0  0  0  0
  7  9  1  0  0  0  0
  8 51  1  0  0  0  0
  8  6  2  0  0  0  0
  9 13  1  0  0  0  0
  9  4  1  1  0  0  0
 10  8  1  0  0  0  0
 11 10  2  0  0  0  0
 11  3  1  0  0  0  0
 13 16  1  0  0  0  0
 13 12  1  1  0  0  0
 14 12  1  6  0  0  0
 15 20  1  1  0  0  0
 15 14  1  0  0  0  0
 16 15  1  0  0  0  0
 16 14  1  0  0  0  0
 18 21  1  0  0  0  0
 19 17  2  0  0  0  0
 19 18  1  0  0  0  0
 20 19  1  0  0  0  0
 21 24  1  0  0  0  0
 21 23  1  0  0  0  0
 21 31  1  0  0  0  0
 22 25  1  0  0  0  0
 23 25  1  0  0  0  0
 24 23  1  0  0  0  0
 24 25  1  0  0  0  0
 27 26  1  0  0  0  0
 28 27  1  0  0  0  0
 29 31  1  0  0  0  0
 29 26  2  0  0  0  0
 30 28  2  0  0  0  0
 30 29  1  0  0  0  0
 32 34  2  0  0  0  0
 34 33  1  0  0  0  0
 35 34  1  0  0  0  0
 35 36  1  0  0  0  0
 35 33  1  0  0  0  0
 37 42  1  0  0  0  0
 37 36  1  0  0  0  0
 38 43  1  0  0  0  0
 38 44  1  0  0  0  0
 39 43  1  0  0  0  0
 40 39  1  0  0  0  0
 40 42  1  0  0  0  0
 41 42  1  0  0  0  0
 41 44  1  0  0  0  0
 43 45  1  0  0  0  0
 45 46  1  0  0  0  0
 46 47  1  0  0  0  0
 48 50  1  0  0  0  0
 50 49  1  0  0  0  0
 50 46  1  0  0  0  0
 51 52  3  0  0  0  0
M  END
>  <MODEL>
9

>  <REMARK>
 VINA RESULT:      -6.4      3.377      9.927
  Name = 
  12 active torsions:
  status: ('A' for Active; 'I' for Inactive)
    1  A    between atoms: C_2  and  N_19
    2  A    between atoms: C_2  and  C_52
    3  A    between atoms: N_6  and  C_29
    4  A    between atoms: N_9  and  C_13
    5  A    between atoms: N_9  and  C_43
    6  A    between atoms: C_10  and  C_30
    7  A    between atoms: C_12  and  C_32
    8  A    between atoms: C_13  and  C_41
    9  A    between atoms: C_26  and  C_33
   10  A    between atoms: C_26  and  N_37
   11  A    between atoms: C_33  and  CA_44
   12  A    between atoms: C_42  and  N_47
                            x       y       z     vdW  Elec       q    Type
                         _______ _______ _______ _____ _____    ______ ____

>  <TORSDO>
F 12

$$$$
