=
 OpenBabel11032419183D

 25 27  0  0  0  0  0  0  0  0999 V2000
  190.8220  176.4590  147.3460 C   0  0  0  0  0  3  0  0  0  0  0  0
  189.5710  176.9760  147.0150 C   0  0  0  0  0  0  0  0  0  0  0  0
  189.4430  177.7750  145.8670 C   0  0  0  0  0  0  0  0  0  0  0  0
  191.7840  177.5000  145.4770 N   0  0  0  0  0  0  0  0  0  0  0  0
  190.5930  178.0300  145.0950 C   0  0  0  0  0  0  0  0  0  0  0  0
  191.8960  176.7350  146.5640 N   0  0  0  0  0  0  0  0  0  0  0  0
  188.4030  176.6680  147.8950 C   0  0  0  0  0  2  0  0  0  0  0  0
  188.2540  177.6700  148.8540 O   0  0  0  0  0  1  0  0  0  0  0  0
  188.1050  178.3440  145.4790 C   0  0  0  0  0  2  0  0  0  0  0  0
  187.2520  177.3260  144.7250 C   0  0  0  0  0  2  0  0  0  0  0  0
  185.0680  178.3450  145.4090 C   0  0  0  0  0  3  0  0  0  0  0  0
  183.3660  178.8710  143.7660 C   0  0  0  0  0  0  0  0  0  0  0  0
  183.8000  178.8450  145.0960 C   0  0  0  0  0  3  0  0  0  0  0  0
  185.9070  177.8770  144.3920 C   0  0  0  0  0  0  0  0  0  0  0  0
  185.4750  177.9090  143.0610 C   0  0  0  0  0  3  0  0  0  0  0  0
  184.2070  178.4090  142.7490 C   0  0  0  0  0  3  0  0  0  0  0  0
  181.0410  178.7150  144.1180 O   0  0  0  0  0  1  0  0  0  0  0  0
  182.0260  179.4230  143.4310 C   0  0  0  0  0  2  0  0  0  0  0  0
  190.5470  178.9050  143.8810 C   0  0  0  0  0  2  0  0  0  0  0  0
  189.4900  176.6560  140.4150 C   0  0  0  0  0  3  0  0  0  0  0  0
  190.9550  177.0520  142.2430 C   0  0  0  0  0  3  0  0  0  0  0  0
  188.6730  177.7170  140.8130 C   0  0  0  0  0  3  0  0  0  0  0  0
  189.0130  178.4510  141.9510 C   0  0  0  0  0  3  0  0  0  0  0  0
  190.6050  176.3480  141.1310 N   0  0  0  0  0  0  0  0  0  0  0  0
  190.1600  178.1160  142.6760 C   0  0  0  0  0  0  0  0  0  0  0  0
  2  1  1  0  0  0  0
  2  7  1  0  0  0  0
  3  2  2  0  0  0  0
  4  6  1  0  0  0  0
  5  4  2  0  0  0  0
  5  3  1  0  0  0  0
  6  1  2  0  0  0  0
  7  8  1  0  0  0  0
  9  3  1  0  0  0  0
 10  9  1  0  0  0  0
 12 13  2  0  0  0  0
 13 11  1  0  0  0  0
 14 10  1  0  0  0  0
 14 11  2  0  0  0  0
 15 14  1  0  0  0  0
 16 15  2  0  0  0  0
 16 12  1  0  0  0  0
 18 12  1  0  0  0  0
 18 17  1  0  0  0  0
 19  5  1  0  0  0  0
 20 22  2  0  0  0  0
 20 24  1  0  0  0  0
 21 25  1  0  0  0  0
 22 23  1  0  0  0  0
 23 25  2  0  0  0  0
 24 21  2  0  0  0  0
 25 19  1  0  0  0  0
M  END
>  <MODEL>
1

>  <REMARK>
 VINA RESULT:      -8.3      0.000      0.000
  Name = 
  7 active torsions:
  status: ('A' for Active; 'I' for Inactive)
    1  A    between atoms: C_6  and  C_22
    2  A    between atoms: C_8  and  C_18
    3  A    between atoms: C_9  and  C_13
    4  A    between atoms: C_9  and  C_17
    5  A    between atoms: C_11  and  C_16
    6  A    between atoms: C_11  and  C_21
    7  A    between atoms: C_15  and  C_17
                            x       y       z     vdW  Elec       q    Type
                         _______ _______ _______ _____ _____    ______ ____

>  <TORSDO>
F 7

$$$$
=
 OpenBabel11032419183D

 25 27  0  0  0  0  0  0  0  0999 V2000
  191.3220  177.6350  145.3060 C   0  0  0  0  0  3  0  0  0  0  0  0
  189.9890  177.2870  145.5210 C   0  0  0  0  0  0  0  0  0  0  0  0
  189.0620  177.4570  144.4800 C   0  0  0  0  0  0  0  0  0  0  0  0
  190.8270  178.3070  143.1130 N   0  0  0  0  0  0  0  0  0  0  0  0
  189.5150  177.9830  143.2550 C   0  0  0  0  0  0  0  0  0  0  0  0
  191.7040  178.1350  144.1040 N   0  0  0  0  0  0  0  0  0  0  0  0
  189.5880  176.7480  146.8550 C   0  0  0  0  0  2  0  0  0  0  0  0
  189.4340  177.7940  147.7640 O   0  0  0  0  0  1  0  0  0  0  0  0
  187.6160  177.0870  144.6790 C   0  0  0  0  0  2  0  0  0  0  0  0
  186.8330  178.2040  145.3630 C   0  0  0  0  0  2  0  0  0  0  0  0
  185.3500  178.2570  143.3440 C   0  0  0  0  0  3  0  0  0  0  0  0
  183.0040  178.8340  143.5340 C   0  0  0  0  0  0  0  0  0  0  0  0
  184.1020  178.4660  142.7480 C   0  0  0  0  0  3  0  0  0  0  0  0
  185.4990  178.4080  144.7280 C   0  0  0  0  0  0  0  0  0  0  0  0
  184.3990  178.7700  145.5130 C   0  0  0  0  0  3  0  0  0  0  0  0
  183.1520  178.9790  144.9170 C   0  0  0  0  0  3  0  0  0  0  0  0
  181.8020  179.0170  141.5150 O   0  0  0  0  0  1  0  0  0  0  0  0
  181.6720  179.0350  142.9030 C   0  0  0  0  0  2  0  0  0  0  0  0
  188.5820  178.2330  142.1120 C   0  0  0  0  0  2  0  0  0  0  0  0
  190.3220  176.8440  138.4750 C   0  0  0  0  0  3  0  0  0  0  0  0
  190.0430  176.6530  140.8260 C   0  0  0  0  0  3  0  0  0  0  0  0
  189.4610  177.9440  138.4410 C   0  0  0  0  0  3  0  0  0  0  0  0
  188.8850  178.3970  139.6290 C   0  0  0  0  0  3  0  0  0  0  0  0
  190.5930  176.2260  139.6570 N   0  0  0  0  0  0  0  0  0  0  0  0
  189.1720  177.7470  140.8330 C   0  0  0  0  0  0  0  0  0  0  0  0
  1  2  1  0  0  0  0
  2  7  1  0  0  0  0
  3  9  1  0  0  0  0
  3  2  2  0  0  0  0
  4  5  2  0  0  0  0
  4  6  1  0  0  0  0
  5  3  1  0  0  0  0
  6  1  2  0  0  0  0
  7  8  1  0  0  0  0
  9 10  1  0  0  0  0
 11 14  1  0  0  0  0
 12 16  2  0  0  0  0
 13 11  2  0  0  0  0
 13 12  1  0  0  0  0
 14 10  1  0  0  0  0
 14 15  2  0  0  0  0
 16 15  1  0  0  0  0
 17 18  1  0  0  0  0
 18 12  1  0  0  0  0
 19  5  1  0  0  0  0
 20 24  1  0  0  0  0
 21 25  1  0  0  0  0
 22 20  2  0  0  0  0
 22 23  1  0  0  0  0
 23 25  2  0  0  0  0
 24 21  2  0  0  0  0
 25 19  1  0  0  0  0
M  END
>  <MODEL>
2

>  <REMARK>
 VINA RESULT:      -8.1      1.313      2.053
  Name = 
  7 active torsions:
  status: ('A' for Active; 'I' for Inactive)
    1  A    between atoms: C_6  and  C_22
    2  A    between atoms: C_8  and  C_18
    3  A    between atoms: C_9  and  C_13
    4  A    between atoms: C_9  and  C_17
    5  A    between atoms: C_11  and  C_16
    6  A    between atoms: C_11  and  C_21
    7  A    between atoms: C_15  and  C_17
                            x       y       z     vdW  Elec       q    Type
                         _______ _______ _______ _____ _____    ______ ____

>  <TORSDO>
F 7

$$$$
=
 OpenBabel11032419183D

 25 27  0  0  0  0  0  0  0  0999 V2000
  190.4530  177.2930  146.6170 C   0  0  0  0  0  3  0  0  0  0  0  0
  189.0730  177.4110  146.7770 C   0  0  0  0  0  0  0  0  0  0  0  0
  188.2330  177.1370  145.6850 C   0  0  0  0  0  0  0  0  0  0  0  0
  190.1730  176.6700  144.3720 N   0  0  0  0  0  0  0  0  0  0  0  0
  188.8200  176.7600  144.4620 C   0  0  0  0  0  0  0  0  0  0  0  0
  190.9650  176.9240  145.4160 N   0  0  0  0  0  0  0  0  0  0  0  0
  188.5310  177.8290  148.1050 C   0  0  0  0  0  2  0  0  0  0  0  0
  189.5190  178.4890  148.8350 O   0  0  0  0  0  1  0  0  0  0  0  0
  186.7380  177.2490  145.8270 C   0  0  0  0  0  2  0  0  0  0  0  0
  186.2540  178.6810  145.6080 C   0  0  0  0  0  2  0  0  0  0  0  0
  185.1910  178.6370  143.3390 C   0  0  0  0  0  3  0  0  0  0  0  0
  182.7910  178.8490  143.0810 C   0  0  0  0  0  0  0  0  0  0  0  0
  184.0620  178.6950  142.5160 C   0  0  0  0  0  3  0  0  0  0  0  0
  185.0500  178.7240  144.7290 C   0  0  0  0  0  0  0  0  0  0  0  0
  183.7780  178.8710  145.2940 C   0  0  0  0  0  3  0  0  0  0  0  0
  182.6500  178.9300  144.4710 C   0  0  0  0  0  3  0  0  0  0  0  0
  180.7810  179.9670  142.5660 O   0  0  0  0  0  1  0  0  0  0  0  0
  181.5880  178.8890  142.2070 C   0  0  0  0  0  2  0  0  0  0  0  0
  187.9960  176.4920  143.2430 C   0  0  0  0  0  2  0  0  0  0  0  0
  190.0400  177.8790  139.7660 C   0  0  0  0  0  3  0  0  0  0  0  0
  189.8820  176.3720  141.5960 C   0  0  0  0  0  3  0  0  0  0  0  0
  188.8580  178.5120  140.1580 C   0  0  0  0  0  3  0  0  0  0  0  0
  188.1840  178.0560  141.2920 C   0  0  0  0  0  3  0  0  0  0  0  0
  190.5240  176.8300  140.4870 N   0  0  0  0  0  0  0  0  0  0  0  0
  188.6940  176.9760  142.0170 C   0  0  0  0  0  0  0  0  0  0  0  0
  1  2  1  0  0  0  0
  2  7  1  0  0  0  0
  3  9  1  0  0  0  0
  3  2  2  0  0  0  0
  4  5  2  0  0  0  0
  4  6  1  0  0  0  0
  5  3  1  0  0  0  0
  6  1  2  0  0  0  0
  7  8  1  0  0  0  0
 10  9  1  0  0  0  0
 11 14  1  0  0  0  0
 12 16  2  0  0  0  0
 13 12  1  0  0  0  0
 13 11  2  0  0  0  0
 14 15  2  0  0  0  0
 14 10  1  0  0  0  0
 16 15  1  0  0  0  0
 18 17  1  0  0  0  0
 18 12  1  0  0  0  0
 19  5  1  0  0  0  0
 20 22  2  0  0  0  0
 20 24  1  0  0  0  0
 21 25  1  0  0  0  0
 22 23  1  0  0  0  0
 23 25  2  0  0  0  0
 24 21  2  0  0  0  0
 25 19  1  0  0  0  0
M  END
>  <MODEL>
3

>  <REMARK>
 VINA RESULT:      -7.9      1.306      1.833
  Name = 
  7 active torsions:
  status: ('A' for Active; 'I' for Inactive)
    1  A    between atoms: C_6  and  C_22
    2  A    between atoms: C_8  and  C_18
    3  A    between atoms: C_9  and  C_13
    4  A    between atoms: C_9  and  C_17
    5  A    between atoms: C_11  and  C_16
    6  A    between atoms: C_11  and  C_21
    7  A    between atoms: C_15  and  C_17
                            x       y       z     vdW  Elec       q    Type
                         _______ _______ _______ _____ _____    ______ ____

>  <TORSDO>
F 7

$$$$
=
 OpenBabel11032419183D

 25 27  0  0  0  0  0  0  0  0999 V2000
  184.8300  179.0710  141.9700 C   0  0  0  0  0  3  0  0  0  0  0  0
  185.6540  178.4180  142.8840 C   0  0  0  0  0  0  0  0  0  0  0  0
  186.9360  178.0110  142.4790 C   0  0  0  0  0  0  0  0  0  0  0  0
  186.4820  178.9080  140.3120 N   0  0  0  0  0  0  0  0  0  0  0  0
  187.3380  178.2720  141.1550 C   0  0  0  0  0  0  0  0  0  0  0  0
  185.2690  179.2990  140.7070 N   0  0  0  0  0  0  0  0  0  0  0  0
  185.1480  178.1680  144.2670 C   0  0  0  0  0  2  0  0  0  0  0  0
  185.3330  179.3050  145.0540 O   0  0  0  0  0  1  0  0  0  0  0  0
  187.8540  177.3080  143.4440 C   0  0  0  0  0  2  0  0  0  0  0  0
  188.7170  178.2950  144.2270 C   0  0  0  0  0  2  0  0  0  0  0  0
  189.3400  177.3980  146.4820 C   0  0  0  0  0  3  0  0  0  0  0  0
  191.4730  176.3070  146.8460 C   0  0  0  0  0  0  0  0  0  0  0  0
  190.2400  176.7530  147.3360 C   0  0  0  0  0  3  0  0  0  0  0  0
  189.6680  177.5910  145.1360 C   0  0  0  0  0  0  0  0  0  0  0  0
  190.8980  177.1390  144.6450 C   0  0  0  0  0  3  0  0  0  0  0  0
  191.7980  176.4950  145.4990 C   0  0  0  0  0  3  0  0  0  0  0  0
  192.9280  176.4970  148.6910 O   0  0  0  0  0  1  0  0  0  0  0  0
  192.4210  175.6030  147.7490 C   0  0  0  0  0  2  0  0  0  0  0  0
  188.6710  177.8330  140.6350 C   0  0  0  0  0  2  0  0  0  0  0  0
  188.7100  177.7180  136.3720 C   0  0  0  0  0  3  0  0  0  0  0  0
  188.2690  176.6640  138.4550 C   0  0  0  0  0  3  0  0  0  0  0  0
  189.1290  178.8800  137.0250 C   0  0  0  0  0  3  0  0  0  0  0  0
  189.1110  178.9230  138.4200 C   0  0  0  0  0  3  0  0  0  0  0  0
  188.2920  176.6430  137.0940 N   0  0  0  0  0  0  0  0  0  0  0  0
  188.6740  177.8100  139.1450 C   0  0  0  0  0  0  0  0  0  0  0  0
  1  2  1  0  0  0  0
  2  7  1  0  0  0  0
  3  2  2  0  0  0  0
  3  9  1  0  0  0  0
  4  6  1  0  0  0  0
  4  5  2  0  0  0  0
  5  3  1  0  0  0  0
  6  1  2  0  0  0  0
  7  8  1  0  0  0  0
  9 10  1  0  0  0  0
 10 14  1  0  0  0  0
 11 13  1  0  0  0  0
 12 13  2  0  0  0  0
 12 18  1  0  0  0  0
 14 11  2  0  0  0  0
 15 14  1  0  0  0  0
 15 16  2  0  0  0  0
 16 12  1  0  0  0  0
 18 17  1  0  0  0  0
 19  5  1  0  0  0  0
 20 22  2  0  0  0  0
 20 24  1  0  0  0  0
 21 25  1  0  0  0  0
 22 23  1  0  0  0  0
 23 25  2  0  0  0  0
 24 21  2  0  0  0  0
 25 19  1  0  0  0  0
M  END
>  <MODEL>
4

>  <REMARK>
 VINA RESULT:      -7.6      3.122      6.479
  Name = 
  7 active torsions:
  status: ('A' for Active; 'I' for Inactive)
    1  A    between atoms: C_6  and  C_22
    2  A    between atoms: C_8  and  C_18
    3  A    between atoms: C_9  and  C_13
    4  A    between atoms: C_9  and  C_17
    5  A    between atoms: C_11  and  C_16
    6  A    between atoms: C_11  and  C_21
    7  A    between atoms: C_15  and  C_17
                            x       y       z     vdW  Elec       q    Type
                         _______ _______ _______ _____ _____    ______ ____

>  <TORSDO>
F 7

$$$$
=
 OpenBabel11032419183D

 25 27  0  0  0  0  0  0  0  0999 V2000
  188.5640  177.4510  138.3060 C   0  0  0  0  0  3  0  0  0  0  0  0
  189.1830  177.2960  139.5450 C   0  0  0  0  0  0  0  0  0  0  0  0
  188.5670  177.8290  140.6890 C   0  0  0  0  0  0  0  0  0  0  0  0
  186.7970  178.6320  139.3000 N   0  0  0  0  0  0  0  0  0  0  0  0
  187.3440  178.5110  140.5380 C   0  0  0  0  0  0  0  0  0  0  0  0
  187.3840  178.1150  138.2190 N   0  0  0  0  0  0  0  0  0  0  0  0
  190.4870  176.5700  139.6180 C   0  0  0  0  0  2  0  0  0  0  0  0
  190.5250  175.5640  138.6520 O   0  0  0  0  0  1  0  0  0  0  0  0
  189.2080  177.6750  142.0430 C   0  0  0  0  0  2  0  0  0  0  0  0
  188.5720  176.5420  142.8450 C   0  0  0  0  0  2  0  0  0  0  0  0
  187.0880  177.2220  144.7460 C   0  0  0  0  0  3  0  0  0  0  0  0
  188.0050  177.6870  146.9410 C   0  0  0  0  0  0  0  0  0  0  0  0
  186.9040  177.5980  146.0800 C   0  0  0  0  0  3  0  0  0  0  0  0
  188.3710  176.9260  144.2720 C   0  0  0  0  0  0  0  0  0  0  0  0
  189.4700  177.0090  145.1350 C   0  0  0  0  0  3  0  0  0  0  0  0
  189.2860  177.3860  146.4680 C   0  0  0  0  0  3  0  0  0  0  0  0
  189.0350  178.3830  148.9440 O   0  0  0  0  0  1  0  0  0  0  0  0
  187.8060  178.0670  148.3650 C   0  0  0  0  0  2  0  0  0  0  0  0
  186.6470  179.1440  141.7010 C   0  0  0  0  0  2  0  0  0  0  0  0
  182.4240  178.6350  141.3860 C   0  0  0  0  0  3  0  0  0  0  0  0
  184.5320  179.0230  140.3610 C   0  0  0  0  0  3  0  0  0  0  0  0
  183.0260  178.5600  142.6440 C   0  0  0  0  0  3  0  0  0  0  0  0
  184.4090  178.7200  142.7500 C   0  0  0  0  0  3  0  0  0  0  0  0
  183.1830  178.8630  140.2790 N   0  0  0  0  0  0  0  0  0  0  0  0
  185.1720  178.9490  141.6010 C   0  0  0  0  0  0  0  0  0  0  0  0
  1  2  1  0  0  0  0
  2  7  1  0  0  0  0
  2  3  2  0  0  0  0
  3  9  1  0  0  0  0
  4  5  2  0  0  0  0
  5  3  1  0  0  0  0
  5 19  1  0  0  0  0
  6  1  2  0  0  0  0
  6  4  1  0  0  0  0
  8  7  1  0  0  0  0
  9 10  1  0  0  0  0
 10 14  1  0  0  0  0
 11 13  1  0  0  0  0
 12 18  1  0  0  0  0
 13 12  2  0  0  0  0
 14 11  2  0  0  0  0
 14 15  1  0  0  0  0
 15 16  2  0  0  0  0
 16 12  1  0  0  0  0
 18 17  1  0  0  0  0
 20 22  1  0  0  0  0
 21 25  2  0  0  0  0
 22 23  2  0  0  0  0
 24 21  1  0  0  0  0
 24 20  2  0  0  0  0
 25 19  1  0  0  0  0
 25 23  1  0  0  0  0
M  END
>  <MODEL>
5

>  <REMARK>
 VINA RESULT:      -7.5      3.466      6.639
  Name = 
  7 active torsions:
  status: ('A' for Active; 'I' for Inactive)
    1  A    between atoms: C_6  and  C_22
    2  A    between atoms: C_8  and  C_18
    3  A    between atoms: C_9  and  C_13
    4  A    between atoms: C_9  and  C_17
    5  A    between atoms: C_11  and  C_16
    6  A    between atoms: C_11  and  C_21
    7  A    between atoms: C_15  and  C_17
                            x       y       z     vdW  Elec       q    Type
                         _______ _______ _______ _____ _____    ______ ____

>  <TORSDO>
F 7

$$$$
=
 OpenBabel11032419183D

 25 27  0  0  0  0  0  0  0  0999 V2000
  185.2790  178.8750  146.4390 C   0  0  0  0  0  3  0  0  0  0  0  0
  184.9660  178.7810  145.0840 C   0  0  0  0  0  0  0  0  0  0  0  0
  185.8180  178.0550  144.2350 C   0  0  0  0  0  0  0  0  0  0  0  0
  187.2150  177.5900  146.1160 N   0  0  0  0  0  0  0  0  0  0  0  0
  186.9660  177.4540  144.7870 C   0  0  0  0  0  0  0  0  0  0  0  0
  186.3970  178.2740  146.9180 N   0  0  0  0  0  0  0  0  0  0  0  0
  183.7360  179.4590  144.5750 C   0  0  0  0  0  2  0  0  0  0  0  0
  182.6640  178.5660  144.5840 O   0  0  0  0  0  1  0  0  0  0  0  0
  185.5060  177.9300  142.7670 C   0  0  0  0  0  2  0  0  0  0  0  0
  186.0780  179.0950  141.9650 C   0  0  0  0  0  2  0  0  0  0  0  0
  187.7810  178.3450  140.2870 C   0  0  0  0  0  3  0  0  0  0  0  0
  187.1640  177.9330  137.9800 C   0  0  0  0  0  0  0  0  0  0  0  0
  188.1350  177.9690  138.9870 C   0  0  0  0  0  3  0  0  0  0  0  0
  186.4550  178.6770  140.5830 C   0  0  0  0  0  0  0  0  0  0  0  0
  185.4830  178.6350  139.5770 C   0  0  0  0  0  3  0  0  0  0  0  0
  185.8380  178.2600  138.2770 C   0  0  0  0  0  3  0  0  0  0  0  0
  188.9220  177.5750  136.4500 O   0  0  0  0  0  1  0  0  0  0  0  0
  187.5370  177.5140  136.6030 C   0  0  0  0  0  2  0  0  0  0  0  0
  187.9430  176.7000  143.9420 C   0  0  0  0  0  2  0  0  0  0  0  0
  191.8550  178.3420  144.3830 C   0  0  0  0  0  3  0  0  0  0  0  0
  190.2800  176.6240  144.8460 C   0  0  0  0  0  3  0  0  0  0  0  0
  190.9120  179.0260  143.6110 C   0  0  0  0  0  3  0  0  0  0  0  0
  189.6330  178.4880  143.4600 C   0  0  0  0  0  3  0  0  0  0  0  0
  191.5220  177.1650  144.9800 N   0  0  0  0  0  0  0  0  0  0  0  0
  189.3120  177.2760  144.0770 C   0  0  0  0  0  0  0  0  0  0  0  0
  1  6  1  0  0  0  0
  2  1  2  0  0  0  0
  3  5  2  0  0  0  0
  3  2  1  0  0  0  0
  4  6  2  0  0  0  0
  5  4  1  0  0  0  0
  7  8  1  0  0  0  0
  7  2  1  0  0  0  0
  9  3  1  0  0  0  0
 10  9  1  0  0  0  0
 11 14  1  0  0  0  0
 12 16  2  0  0  0  0
 12 13  1  0  0  0  0
 13 11  2  0  0  0  0
 14 10  1  0  0  0  0
 15 14  2  0  0  0  0
 16 15  1  0  0  0  0
 17 18  1  0  0  0  0
 18 12  1  0  0  0  0
 19 25  1  0  0  0  0
 19  5  1  0  0  0  0
 20 24  1  0  0  0  0
 21 24  2  0  0  0  0
 22 20  2  0  0  0  0
 23 22  1  0  0  0  0
 23 25  2  0  0  0  0
 25 21  1  0  0  0  0
M  END
>  <MODEL>
6

>  <REMARK>
 VINA RESULT:      -7.4      3.233      5.438
  Name = 
  7 active torsions:
  status: ('A' for Active; 'I' for Inactive)
    1  A    between atoms: C_6  and  C_22
    2  A    between atoms: C_8  and  C_18
    3  A    between atoms: C_9  and  C_13
    4  A    between atoms: C_9  and  C_17
    5  A    between atoms: C_11  and  C_16
    6  A    between atoms: C_11  and  C_21
    7  A    between atoms: C_15  and  C_17
                            x       y       z     vdW  Elec       q    Type
                         _______ _______ _______ _____ _____    ______ ____

>  <TORSDO>
F 7

$$$$
=
 OpenBabel11032419183D

 25 27  0  0  0  0  0  0  0  0999 V2000
  189.4780  177.4440  147.6660 C   0  0  0  0  0  3  0  0  0  0  0  0
  190.1040  177.1290  146.4610 C   0  0  0  0  0  0  0  0  0  0  0  0
  189.3250  177.0070  145.2980 C   0  0  0  0  0  0  0  0  0  0  0  0
  187.3860  177.4980  146.6040 N   0  0  0  0  0  0  0  0  0  0  0  0
  187.9340  177.1990  145.3970 C   0  0  0  0  0  0  0  0  0  0  0  0
  188.1330  177.6210  147.7030 N   0  0  0  0  0  0  0  0  0  0  0  0
  191.5840  176.9290  146.4440 C   0  0  0  0  0  2  0  0  0  0  0  0
  192.0550  176.7540  147.7450 O   0  0  0  0  0  1  0  0  0  0  0  0
  189.9720  176.6740  143.9800 C   0  0  0  0  0  2  0  0  0  0  0  0
  190.3160  177.9300  143.1840 C   0  0  0  0  0  2  0  0  0  0  0  0
  188.5010  178.4730  141.5430 C   0  0  0  0  0  3  0  0  0  0  0  0
  188.6500  177.7530  139.2340 C   0  0  0  0  0  0  0  0  0  0  0  0
  187.9570  178.4120  140.2560 C   0  0  0  0  0  3  0  0  0  0  0  0
  189.7420  177.8820  141.8080 C   0  0  0  0  0  0  0  0  0  0  0  0
  190.4370  177.2290  140.7830 C   0  0  0  0  0  3  0  0  0  0  0  0
  189.8920  177.1670  139.4970 C   0  0  0  0  0  3  0  0  0  0  0  0
  187.8730  179.0030  137.3920 O   0  0  0  0  0  1  0  0  0  0  0  0
  188.0800  177.7060  137.8610 C   0  0  0  0  0  2  0  0  0  0  0  0
  187.0320  177.0450  144.2130 C   0  0  0  0  0  2  0  0  0  0  0  0
  183.5000  179.3830  144.7100 C   0  0  0  0  0  3  0  0  0  0  0  0
  185.3720  178.2590  145.6460 C   0  0  0  0  0  3  0  0  0  0  0  0
  183.8950  179.0130  143.4220 C   0  0  0  0  0  3  0  0  0  0  0  0
  185.0550  178.2540  143.2560 C   0  0  0  0  0  3  0  0  0  0  0  0
  184.2390  179.0010  145.7870 N   0  0  0  0  0  0  0  0  0  0  0  0
  185.8040  177.8750  144.3730 C   0  0  0  0  0  0  0  0  0  0  0  0
  1  6  1  0  0  0  0
  2  1  2  0  0  0  0
  3  5  2  0  0  0  0
  3  2  1  0  0  0  0
  4  6  2  0  0  0  0
  5  4  1  0  0  0  0
  7  2  1  0  0  0  0
  7  8  1  0  0  0  0
  9  3  1  0  0  0  0
 10  9  1  0  0  0  0
 11 14  1  0  0  0  0
 12 16  2  0  0  0  0
 12 13  1  0  0  0  0
 13 11  2  0  0  0  0
 14 10  1  0  0  0  0
 15 14  2  0  0  0  0
 16 15  1  0  0  0  0
 17 18  1  0  0  0  0
 18 12  1  0  0  0  0
 19 25  1  0  0  0  0
 19  5  1  0  0  0  0
 20 24  1  0  0  0  0
 21 24  2  0  0  0  0
 22 20  2  0  0  0  0
 23 22  1  0  0  0  0
 23 25  2  0  0  0  0
 25 21  1  0  0  0  0
M  END
>  <MODEL>
7

>  <REMARK>
 VINA RESULT:      -7.4      3.045      5.427
  Name = 
  7 active torsions:
  status: ('A' for Active; 'I' for Inactive)
    1  A    between atoms: C_6  and  C_22
    2  A    between atoms: C_8  and  C_18
    3  A    between atoms: C_9  and  C_13
    4  A    between atoms: C_9  and  C_17
    5  A    between atoms: C_11  and  C_16
    6  A    between atoms: C_11  and  C_21
    7  A    between atoms: C_15  and  C_17
                            x       y       z     vdW  Elec       q    Type
                         _______ _______ _______ _____ _____    ______ ____

>  <TORSDO>
F 7

$$$$
=
 OpenBabel11032419183D

 25 27  0  0  0  0  0  0  0  0999 V2000
  188.1420  178.1460  140.4910 C   0  0  0  0  0  3  0  0  0  0  0  0
  188.3600  177.4920  141.7030 C   0  0  0  0  0  0  0  0  0  0  0  0
  187.3930  177.5930  142.7170 C   0  0  0  0  0  0  0  0  0  0  0  0
  186.0920  178.9800  141.2700 N   0  0  0  0  0  0  0  0  0  0  0  0
  186.2400  178.3630  142.4720 C   0  0  0  0  0  0  0  0  0  0  0  0
  187.0110  178.8720  140.3090 N   0  0  0  0  0  0  0  0  0  0  0  0
  189.6170  176.7060  141.8870 C   0  0  0  0  0  2  0  0  0  0  0  0
  190.1100  176.3010  140.6470 O   0  0  0  0  0  1  0  0  0  0  0  0
  187.5950  176.8950  144.0350 C   0  0  0  0  0  2  0  0  0  0  0  0
  188.1330  177.8440  145.1030 C   0  0  0  0  0  2  0  0  0  0  0  0
  189.2620  176.9370  147.1480 C   0  0  0  0  0  3  0  0  0  0  0  0
  191.5850  176.2470  147.0890 C   0  0  0  0  0  0  0  0  0  0  0  0
  190.3890  176.4190  147.7950 C   0  0  0  0  0  3  0  0  0  0  0  0
  189.3280  177.2750  145.7910 C   0  0  0  0  0  0  0  0  0  0  0  0
  190.5220  177.0970  145.0840 C   0  0  0  0  0  3  0  0  0  0  0  0
  191.6480  176.5800  145.7320 C   0  0  0  0  0  3  0  0  0  0  0  0
  193.1340  176.4870  148.8490 O   0  0  0  0  0  1  0  0  0  0  0  0
  192.7760  175.6770  147.7720 C   0  0  0  0  0  2  0  0  0  0  0  0
  185.1850  178.5540  143.5160 C   0  0  0  0  0  2  0  0  0  0  0  0
  181.3290  178.6820  141.6980 C   0  0  0  0  0  3  0  0  0  0  0  0
  183.6420  178.1530  141.5810 C   0  0  0  0  0  3  0  0  0  0  0  0
  181.4770  179.1330  143.0130 C   0  0  0  0  0  3  0  0  0  0  0  0
  182.7360  179.0860  143.6120 C   0  0  0  0  0  3  0  0  0  0  0  0
  182.4050  178.2060  141.0150 N   0  0  0  0  0  0  0  0  0  0  0  0
  183.8290  178.5890  142.8960 C   0  0  0  0  0  0  0  0  0  0  0  0
  1  2  1  0  0  0  0
  2  7  1  0  0  0  0
  2  3  2  0  0  0  0
  3  9  1  0  0  0  0
  4  5  2  0  0  0  0
  5  3  1  0  0  0  0
  5 19  1  0  0  0  0
  6  1  2  0  0  0  0
  6  4  1  0  0  0  0
  8  7  1  0  0  0  0
  9 10  1  0  0  0  0
 10 14  1  0  0  0  0
 11 13  1  0  0  0  0
 12 18  1  0  0  0  0
 12 13  2  0  0  0  0
 14 11  2  0  0  0  0
 15 16  2  0  0  0  0
 15 14  1  0  0  0  0
 16 12  1  0  0  0  0
 18 17  1  0  0  0  0
 20 22  1  0  0  0  0
 21 25  2  0  0  0  0
 22 23  2  0  0  0  0
 24 21  1  0  0  0  0
 24 20  2  0  0  0  0
 25 19  1  0  0  0  0
 25 23  1  0  0  0  0
M  END
>  <MODEL>
8

>  <REMARK>
 VINA RESULT:      -7.4      3.418      7.294
  Name = 
  7 active torsions:
  status: ('A' for Active; 'I' for Inactive)
    1  A    between atoms: C_6  and  C_22
    2  A    between atoms: C_8  and  C_18
    3  A    between atoms: C_9  and  C_13
    4  A    between atoms: C_9  and  C_17
    5  A    between atoms: C_11  and  C_16
    6  A    between atoms: C_11  and  C_21
    7  A    between atoms: C_15  and  C_17
                            x       y       z     vdW  Elec       q    Type
                         _______ _______ _______ _____ _____    ______ ____

>  <TORSDO>
F 7

$$$$
=
 OpenBabel11032419183D

 25 27  0  0  0  0  0  0  0  0999 V2000
  189.7140  176.7730  141.2110 C   0  0  0  0  0  3  0  0  0  0  0  0
  188.7360  177.7600  141.1160 C   0  0  0  0  0  0  0  0  0  0  0  0
  187.8120  177.9110  142.1640 C   0  0  0  0  0  0  0  0  0  0  0  0
  188.8800  176.1000  143.2980 N   0  0  0  0  0  0  0  0  0  0  0  0
  187.9060  177.0460  143.2710 C   0  0  0  0  0  0  0  0  0  0  0  0
  189.7590  175.9690  142.3030 N   0  0  0  0  0  0  0  0  0  0  0  0
  188.6970  178.6280  139.9010 C   0  0  0  0  0  2  0  0  0  0  0  0
  188.0520  177.9600  138.8600 O   0  0  0  0  0  1  0  0  0  0  0  0
  186.7460  178.9720  142.0940 C   0  0  0  0  0  2  0  0  0  0  0  0
  185.5850  178.5510  141.1980 C   0  0  0  0  0  2  0  0  0  0  0  0
  183.0800  178.4890  141.2080 C   0  0  0  0  0  3  0  0  0  0  0  0
  181.8300  178.8550  143.2520 C   0  0  0  0  0  0  0  0  0  0  0  0
  181.8560  178.5920  141.8770 C   0  0  0  0  0  3  0  0  0  0  0  0
  184.2790  178.6420  141.9130 C   0  0  0  0  0  0  0  0  0  0  0  0
  184.2520  178.8980  143.2880 C   0  0  0  0  0  3  0  0  0  0  0  0
  183.0290  179.0020  143.9570 C   0  0  0  0  0  3  0  0  0  0  0  0
  179.7020  177.8920  143.5720 O   0  0  0  0  0  1  0  0  0  0  0  0
  180.5290  178.9430  143.9670 C   0  0  0  0  0  2  0  0  0  0  0  0
  186.9340  177.1150  144.4080 C   0  0  0  0  0  2  0  0  0  0  0  0
  188.9440  178.1400  148.0270 C   0  0  0  0  0  3  0  0  0  0  0  0
  189.0170  177.3780  145.7780 C   0  0  0  0  0  3  0  0  0  0  0  0
  187.5540  178.2600  147.9630 C   0  0  0  0  0  3  0  0  0  0  0  0
  186.8940  177.9320  146.7780 C   0  0  0  0  0  3  0  0  0  0  0  0
  189.6410  177.7050  146.9420 N   0  0  0  0  0  0  0  0  0  0  0  0
  187.6280  177.4910  145.6730 C   0  0  0  0  0  0  0  0  0  0  0  0
  1  6  1  0  0  0  0
  2  1  2  0  0  0  0
  2  3  1  0  0  0  0
  3  5  2  0  0  0  0
  5  4  1  0  0  0  0
  5 19  1  0  0  0  0
  6  4  2  0  0  0  0
  7  2  1  0  0  0  0
  8  7  1  0  0  0  0
  9  3  1  0  0  0  0
 10 14  1  0  0  0  0
 10  9  1  0  0  0  0
 11 13  2  0  0  0  0
 11 14  1  0  0  0  0
 12 16  2  0  0  0  0
 12 18  1  0  0  0  0
 13 12  1  0  0  0  0
 14 15  2  0  0  0  0
 15 16  1  0  0  0  0
 17 18  1  0  0  0  0
 19 25  1  0  0  0  0
 21 24  1  0  0  0  0
 22 20  1  0  0  0  0
 23 22  2  0  0  0  0
 24 20  2  0  0  0  0
 25 21  2  0  0  0  0
 25 23  1  0  0  0  0
M  END
>  <MODEL>
9

>  <REMARK>
 VINA RESULT:      -7.3      2.559      5.001
  Name = 
  7 active torsions:
  status: ('A' for Active; 'I' for Inactive)
    1  A    between atoms: C_6  and  C_22
    2  A    between atoms: C_8  and  C_18
    3  A    between atoms: C_9  and  C_13
    4  A    between atoms: C_9  and  C_17
    5  A    between atoms: C_11  and  C_16
    6  A    between atoms: C_11  and  C_21
    7  A    between atoms: C_15  and  C_17
                            x       y       z     vdW  Elec       q    Type
                         _______ _______ _______ _____ _____    ______ ____

>  <TORSDO>
F 7

$$$$
