=
 OpenBabel11042412173D

 34 36  0  0  1  0  0  0  0  0999 V2000
  187.7930  177.4610  142.8530 N   0  0  0  0  0  0  0  0  0  0  0  0
  188.5520  177.5040  140.4470 C   0  0  0  0  0  0  0  0  0  0  0  0
  189.9480  177.9590  138.7320 C   0  0  1  0  0  3  0  0  0  0  0  0
  190.3410  175.5330  142.9290 C   0  0  0  0  0  1  0  0  0  0  0  0
  190.3690  176.3000  140.5460 N   0  0  0  0  0  0  0  0  0  0  0  0
  188.6090  177.0370  141.7370 C   0  0  0  0  0  0  0  0  0  0  0  0
  188.9590  179.0390  138.8910 N   0  0  0  0  0  0  0  0  0  0  0  0
  189.5750  177.0140  139.7660 N   0  0  0  0  0  0  0  0  0  0  0  0
  188.1700  178.7830  139.8980 C   0  0  0  0  0  3  0  0  0  0  0  0
  189.7580  176.2400  141.7530 C   0  0  0  0  0  0  0  0  0  0  0  0
  189.7960  177.3190  137.3670 C   0  0  0  0  0  1  0  0  0  0  0  0
  187.7570  176.6960  143.9840 O   0  0  0  0  0  0  0  0  0  0  0  0
  187.3850  178.4450  147.7870 C   0  0  0  0  0  3  0  0  0  0  0  0
  186.3810  177.2660  145.8580 C   0  0  0  0  0  2  0  0  0  0  0  0
  188.8430  177.4110  145.9820 C   0  0  1  0  0  3  0  0  0  0  0  0
  186.2980  178.0180  147.1510 C   0  0  0  0  0  3  0  0  0  0  0  0
  188.7710  178.3110  147.2190 C   0  0  0  0  0  2  0  0  0  0  0  0
  187.6420  177.5910  145.0630 C   0  0  1  0  0  3  0  0  0  0  0  0
  190.1730  177.5030  145.2150 C   0  0  1  0  0  3  0  0  0  0  0  0
  190.4610  178.8510  144.5480 C   0  0  0  0  0  2  0  0  0  0  0  0
  191.7580  178.8060  143.7610 C   0  0  0  0  0  1  0  0  0  0  0  0
  191.3180  177.1050  146.1320 C   0  0  0  0  0  2  0  0  0  0  0  0
  191.9490  175.9610  145.6360 O   0  0  0  0  0  0  0  0  0  0  0  0
  192.4130  175.3110  146.7750 C   0  0  0  0  0  2  0  0  0  0  0  0
  193.2000  175.8880  149.0350 C   0  0  0  0  0  1  0  0  0  0  0  0
  192.1620  176.1860  147.9830 C   0  0  0  0  0  2  0  0  0  0  0  0
  186.8550  178.5760  142.6610 C   0  0  0  0  0  2  0  0  0  0  0  0
  185.4540  178.1370  142.2330 C   0  0  1  0  0  3  0  0  0  0  0  0
  184.6420  178.0580  143.3640 O   0  0  0  0  0  1  0  0  0  0  0  0
  184.8420  179.1200  141.2370 C   0  0  0  0  0  2  0  0  0  0  0  0
  184.3160  178.3880  140.0030 C   0  0  0  0  0  2  0  0  0  0  0  0
  183.7600  179.3380  138.9940 C   0  0  0  0  0  0  0  0  0  0  0  0
  184.1900  180.5200  138.9390 O   0  0  0  0  0  1  0  0  0  0  0  0
  182.7490  178.9300  138.1390 O   0  0  0  0  0  0  0  0  0  0  0  0
  1 12  1  0  0  0  0
  2  6  2  0  0  0  0
  3 11  1  6  0  0  0
  3  7  1  0  0  0  0
  3  8  1  0  0  0  0
  5 10  2  0  0  0  0
  6 10  1  0  0  0  0
  6  1  1  0  0  0  0
  7  9  2  0  0  0  0
  8  2  1  0  0  0  0
  8  5  1  0  0  0  0
  9  2  1  0  0  0  0
 10  4  1  0  0  0  0
 14 16  1  0  0  0  0
 15 19  1  6  0  0  0
 15 17  1  0  0  0  0
 16 13  2  0  0  0  0
 17 13  1  0  0  0  0
 18 12  1  6  0  0  0
 18 14  1  0  0  0  0
 18 15  1  0  0  0  0
 19 20  1  1  0  0  0
 19 22  1  0  0  0  0
 21 20  1  0  0  0  0
 23 22  1  0  0  0  0
 23 24  1  0  0  0  0
 24 26  1  0  0  0  0
 26 25  1  0  0  0  0
 27  1  1  0  0  0  0
 28 27  1  0  0  0  0
 28 29  1  1  0  0  0
 30 28  1  0  0  0  0
 31 30  1  0  0  0  0
 32 31  1  0  0  0  0
 33 32  1  0  0  0  0
 34 32  2  0  0  0  0
M  END
>  <MODEL>
1

>  <REMARK>
 VINA RESULT:      -7.2      0.000      0.000
  Name = 
  14 active torsions:
  status: ('A' for Active; 'I' for Inactive)
    1  A    between atoms: C_3  and  C_14
    2  A    between atoms: C_3  and  C_31
    3  A    between atoms: C_5  and  C_9
    4  A    between atoms: C_5  and  C_19
    5  A    between atoms: C_5  and  C_34
    6  A    between atoms: N_7  and  O_13
    7  A    between atoms: N_7  and  C_14
    8  A    between atoms: N_7  and  C_21
    9  A    between atoms: O_10  and  C_16
   10  A    between atoms: O_10  and  C_34
   11  A    between atoms: O_13  and  C_29
   12  A    between atoms: C_15  and  C_18
   13  A    between atoms: C_16  and  C_24
   14  A    between atoms: C_18  and  C_31
                            x       y       z     vdW  Elec       q    Type
                         _______ _______ _______ _____ _____    ______ ____

>  <TORSDO>
F 14

$$$$
=
 OpenBabel11042412173D

 34 36  0  0  1  0  0  0  0  0999 V2000
  186.1000  178.5850  142.8010 N   0  0  0  0  0  0  0  0  0  0  0  0
  187.5890  178.4450  140.7680 C   0  0  0  0  0  0  0  0  0  0  0  0
  188.3950  177.5490  138.8600 C   0  0  1  0  0  3  0  0  0  0  0  0
  184.0000  178.9310  140.4170 C   0  0  0  0  0  1  0  0  0  0  0  0
  186.1250  178.5410  139.1540 N   0  0  0  0  0  0  0  0  0  0  0  0
  186.3820  178.6650  141.3840 C   0  0  0  0  0  0  0  0  0  0  0  0
  189.1980  177.1100  140.0130 N   0  0  0  0  0  0  0  0  0  0  0  0
  187.4070  178.4240  139.4580 N   0  0  0  0  0  0  0  0  0  0  0  0
  188.7140  177.6110  141.1170 C   0  0  0  0  0  3  0  0  0  0  0  0
  185.4780  178.7600  140.3220 C   0  0  0  0  0  0  0  0  0  0  0  0
  189.2640  178.3330  137.8960 C   0  0  0  0  0  1  0  0  0  0  0  0
  186.6200  177.5530  143.5290 O   0  0  0  0  0  0  0  0  0  0  0  0
  187.6550  178.1060  147.5640 C   0  0  0  0  0  3  0  0  0  0  0  0
  185.9570  177.6370  145.8280 C   0  0  0  0  0  2  0  0  0  0  0  0
  188.3390  177.5530  145.1800 C   0  0  1  0  0  3  0  0  0  0  0  0
  186.3750  177.9710  147.2260 C   0  0  0  0  0  3  0  0  0  0  0  0
  188.7770  178.0440  146.5630 C   0  0  0  0  0  2  0  0  0  0  0  0
  186.9710  178.0890  144.7810 C   0  0  1  0  0  3  0  0  0  0  0  0
  189.3870  177.7710  144.0760 C   0  0  1  0  0  3  0  0  0  0  0  0
  190.1710  179.0830  144.1560 C   0  0  0  0  0  2  0  0  0  0  0  0
  191.6360  178.8660  143.8200 C   0  0  0  0  0  1  0  0  0  0  0  0
  190.3340  176.5820  144.0320 C   0  0  0  0  0  2  0  0  0  0  0  0
  190.5360  176.0870  145.3230 O   0  0  0  0  0  0  0  0  0  0  0  0
  191.8700  175.6910  145.3280 C   0  0  0  0  0  2  0  0  0  0  0  0
  191.7080  176.6140  147.6040 C   0  0  0  0  0  1  0  0  0  0  0  0
  192.3370  175.5350  146.7580 C   0  0  0  0  0  2  0  0  0  0  0  0
  185.0850  179.4820  143.3720 C   0  0  0  0  0  2  0  0  0  0  0  0
  183.8890  178.7500  143.9830 C   0  0  1  0  0  3  0  0  0  0  0  0
  183.6200  179.2970  145.2380 O   0  0  0  0  0  1  0  0  0  0  0  0
  182.6490  178.8740  143.1000 C   0  0  0  0  0  2  0  0  0  0  0  0
  181.3740  178.7120  143.9270 C   0  0  0  0  0  2  0  0  0  0  0  0
  180.1810  179.2520  143.2100 C   0  0  0  0  0  0  0  0  0  0  0  0
  179.2650  178.4740  142.8360 O   0  0  0  0  0  0  0  0  0  0  0  0
  180.0950  180.6060  142.9270 O   0  0  0  0  0  1  0  0  0  0  0  0
  1 27  1  0  0  0  0
  1 12  1  0  0  0  0
  2  9  1  0  0  0  0
  2  6  2  0  0  0  0
  3 11  1  6  0  0  0
  3  8  1  0  0  0  0
  3  7  1  0  0  0  0
  5  8  1  0  0  0  0
  5 10  2  0  0  0  0
  6  1  1  0  0  0  0
  7  9  2  0  0  0  0
  8  2  1  0  0  0  0
 10  4  1  0  0  0  0
 10  6  1  0  0  0  0
 14 16  1  0  0  0  0
 15 19  1  6  0  0  0
 15 17  1  0  0  0  0
 16 13  2  0  0  0  0
 17 13  1  0  0  0  0
 18 12  1  6  0  0  0
 18 15  1  0  0  0  0
 18 14  1  0  0  0  0
 19 22  1  1  0  0  0
 19 20  1  0  0  0  0
 21 20  1  0  0  0  0
 22 23  1  0  0  0  0
 23 24  1  0  0  0  0
 24 26  1  0  0  0  0
 26 25  1  0  0  0  0
 27 28  1  0  0  0  0
 28 29  1  1  0  0  0
 30 31  1  0  0  0  0
 30 28  1  0  0  0  0
 32 31  1  0  0  0  0
 33 32  2  0  0  0  0
 34 32  1  0  0  0  0
M  END
>  <MODEL>
2

>  <REMARK>
 VINA RESULT:      -6.6      2.202      3.082
  Name = 
  14 active torsions:
  status: ('A' for Active; 'I' for Inactive)
    1  A    between atoms: C_3  and  C_14
    2  A    between atoms: C_3  and  C_31
    3  A    between atoms: C_5  and  C_9
    4  A    between atoms: C_5  and  C_19
    5  A    between atoms: C_5  and  C_34
    6  A    between atoms: N_7  and  O_13
    7  A    between atoms: N_7  and  C_14
    8  A    between atoms: N_7  and  C_21
    9  A    between atoms: O_10  and  C_16
   10  A    between atoms: O_10  and  C_34
   11  A    between atoms: O_13  and  C_29
   12  A    between atoms: C_15  and  C_18
   13  A    between atoms: C_16  and  C_24
   14  A    between atoms: C_18  and  C_31
                            x       y       z     vdW  Elec       q    Type
                         _______ _______ _______ _____ _____    ______ ____

>  <TORSDO>
F 14

$$$$
=
 OpenBabel11042412173D

 34 36  0  0  1  0  0  0  0  0999 V2000
  190.1930  176.7900  139.0090 N   0  0  0  0  0  0  0  0  0  0  0  0
  189.9390  177.3560  141.4550 C   0  0  0  0  0  0  0  0  0  0  0  0
  190.1920  177.0570  143.6780 C   0  0  1  0  0  3  0  0  0  0  0  0
  193.2200  177.3250  139.8820 C   0  0  0  0  0  1  0  0  0  0  0  0
  192.0210  177.5790  142.0650 N   0  0  0  0  0  0  0  0  0  0  0  0
  190.6710  177.2330  140.3000 C   0  0  0  0  0  0  0  0  0  0  0  0
  188.9040  176.5030  143.2280 N   0  0  0  0  0  0  0  0  0  0  0  0
  190.7600  177.6040  142.4620 N   0  0  0  0  0  0  0  0  0  0  0  0
  188.7730  176.6560  141.9390 C   0  0  0  0  0  3  0  0  0  0  0  0
  191.9910  177.4200  140.7210 C   0  0  0  0  0  0  0  0  0  0  0  0
  189.9520  178.1690  144.6810 C   0  0  0  0  0  1  0  0  0  0  0  0
  190.2250  175.4590  138.7050 O   0  0  0  0  0  0  0  0  0  0  0  0
  192.4330  174.0900  135.4020 C   0  0  0  0  0  3  0  0  0  0  0  0
  192.3300  174.8140  137.7650 C   0  0  0  0  0  2  0  0  0  0  0  0
  190.2050  174.3500  136.5950 C   0  0  1  0  0  3  0  0  0  0  0  0
  193.0690  174.4490  136.5140 C   0  0  0  0  0  3  0  0  0  0  0  0
  190.9350  174.1240  135.2680 C   0  0  0  0  0  2  0  0  0  0  0  0
  190.9270  175.3470  137.4920 C   0  0  1  0  0  3  0  0  0  0  0  0
  188.7130  174.6900  136.4410 C   0  0  1  0  0  3  0  0  0  0  0  0
  188.2760  175.1340  135.0430 C   0  0  0  0  0  2  0  0  0  0  0  0
  188.1750  176.6470  134.9570 C   0  0  0  0  0  1  0  0  0  0  0  0
  187.8720  173.5160  136.9170 C   0  0  0  0  0  2  0  0  0  0  0  0
  186.6840  173.4540  136.1840 O   0  0  0  0  0  0  0  0  0  0  0  0
  185.8620  172.6270  136.9430 C   0  0  0  0  0  2  0  0  0  0  0  0
  184.5650  174.7180  136.8950 C   0  0  0  0  0  1  0  0  0  0  0  0
  184.8630  173.4770  137.6970 C   0  0  0  0  0  2  0  0  0  0  0  0
  189.8980  177.7970  137.9790 C   0  0  0  0  0  2  0  0  0  0  0  0
  188.6200  178.5930  138.2430 C   0  0  1  0  0  3  0  0  0  0  0  0
  188.3730  179.4230  137.1490 O   0  0  0  0  0  1  0  0  0  0  0  0
  187.4220  177.6700  138.4590 C   0  0  0  0  0  2  0  0  0  0  0  0
  186.1920  178.1920  137.7170 C   0  0  0  0  0  2  0  0  0  0  0  0
  185.0670  178.4830  138.6540 C   0  0  0  0  0  0  0  0  0  0  0  0
  184.1420  177.6430  138.8070 O   0  0  0  0  0  0  0  0  0  0  0  0
  185.0230  179.6900  139.3320 O   0  0  0  0  0  1  0  0  0  0  0  0
  1  6  1  0  0  0  0
  2  9  1  0  0  0  0
  2  8  1  0  0  0  0
  3 11  1  1  0  0  0
  4 10  1  0  0  0  0
  5  8  1  0  0  0  0
  6 10  1  0  0  0  0
  6  2  2  0  0  0  0
  7  3  1  0  0  0  0
  8  3  1  0  0  0  0
  9  7  2  0  0  0  0
 10  5  2  0  0  0  0
 12  1  1  0  0  0  0
 13 16  2  0  0  0  0
 15 19  1  6  0  0  0
 15 18  1  0  0  0  0
 16 14  1  0  0  0  0
 17 13  1  0  0  0  0
 17 15  1  0  0  0  0
 18 14  1  0  0  0  0
 18 12  1  1  0  0  0
 19 20  1  6  0  0  0
 19 22  1  0  0  0  0
 21 20  1  0  0  0  0
 23 22  1  0  0  0  0
 23 24  1  0  0  0  0
 24 26  1  0  0  0  0
 25 26  1  0  0  0  0
 27 28  1  0  0  0  0
 27  1  1  0  0  0  0
 28 29  1  6  0  0  0
 28 30  1  0  0  0  0
 31 30  1  0  0  0  0
 31 32  1  0  0  0  0
 32 33  2  0  0  0  0
 32 34  1  0  0  0  0
M  END
>  <MODEL>
3

>  <REMARK>
 VINA RESULT:      -6.6      3.420      8.142
  Name = 
  14 active torsions:
  status: ('A' for Active; 'I' for Inactive)
    1  A    between atoms: C_3  and  C_14
    2  A    between atoms: C_3  and  C_31
    3  A    between atoms: C_5  and  C_9
    4  A    between atoms: C_5  and  C_19
    5  A    between atoms: C_5  and  C_34
    6  A    between atoms: N_7  and  O_13
    7  A    between atoms: N_7  and  C_14
    8  A    between atoms: N_7  and  C_21
    9  A    between atoms: O_10  and  C_16
   10  A    between atoms: O_10  and  C_34
   11  A    between atoms: O_13  and  C_29
   12  A    between atoms: C_15  and  C_18
   13  A    between atoms: C_16  and  C_24
   14  A    between atoms: C_18  and  C_31
                            x       y       z     vdW  Elec       q    Type
                         _______ _______ _______ _____ _____    ______ ____

>  <TORSDO>
F 14

$$$$
=
 OpenBabel11042412173D

 34 36  0  0  1  0  0  0  0  0999 V2000
  185.9320  178.3510  143.4490 N   0  0  0  0  0  0  0  0  0  0  0  0
  184.8410  178.0540  141.1920 C   0  0  0  0  0  0  0  0  0  0  0  0
  183.9660  178.7210  139.2210 C   0  0  1  0  0  3  0  0  0  0  0  0
  188.2370  179.3350  141.4650 C   0  0  0  0  0  1  0  0  0  0  0  0
  186.3720  178.8610  139.8640 N   0  0  0  0  0  0  0  0  0  0  0  0
  185.9120  178.3390  142.0020 C   0  0  0  0  0  0  0  0  0  0  0  0
  182.9060  178.5810  140.2330 N   0  0  0  0  0  0  0  0  0  0  0  0
  185.1630  178.3300  139.9390 N   0  0  0  0  0  0  0  0  0  0  0  0
  183.4190  178.2200  141.3770 C   0  0  0  0  0  3  0  0  0  0  0  0
  186.8840  178.8140  141.1150 C   0  0  0  0  0  0  0  0  0  0  0  0
  183.7130  177.7590  138.0760 C   0  0  0  0  0  1  0  0  0  0  0  0
  186.5250  177.3200  144.1180 O   0  0  0  0  0  0  0  0  0  0  0  0
  188.4430  177.9860  147.7980 C   0  0  0  0  0  3  0  0  0  0  0  0
  186.3870  177.5340  146.4990 C   0  0  0  0  0  2  0  0  0  0  0  0
  188.5630  177.2990  145.3550 C   0  0  1  0  0  3  0  0  0  0  0  0
  187.1160  177.9050  147.7530 C   0  0  0  0  0  3  0  0  0  0  0  0
  189.3140  177.8240  146.5820 C   0  0  0  0  0  2  0  0  0  0  0  0
  187.1650  177.8890  145.2340 C   0  0  1  0  0  3  0  0  0  0  0  0
  189.3520  177.4150  144.0390 C   0  0  1  0  0  3  0  0  0  0  0  0
  190.8190  177.8290  144.1810 C   0  0  0  0  0  2  0  0  0  0  0  0
  190.9990  179.3100  143.8990 C   0  0  0  0  0  1  0  0  0  0  0  0
  189.2350  176.1150  143.2600 C   0  0  0  0  0  2  0  0  0  0  0  0
  189.2540  176.3790  141.8880 O   0  0  0  0  0  0  0  0  0  0  0  0
  190.6040  176.3310  141.5540 C   0  0  0  0  0  2  0  0  0  0  0  0
  189.7050  176.8080  139.3120 C   0  0  0  0  0  1  0  0  0  0  0  0
  190.8270  177.1070  140.2740 C   0  0  0  0  0  2  0  0  0  0  0  0
  185.1200  179.3500  144.1580 C   0  0  0  0  0  2  0  0  0  0  0  0
  183.7820  178.8100  144.6660 C   0  0  1  0  0  3  0  0  0  0  0  0
  183.7310  178.9660  146.0510 O   0  0  0  0  0  1  0  0  0  0  0  0
  182.6060  179.5470  144.0290 C   0  0  0  0  0  2  0  0  0  0  0  0
  181.3090  178.7570  144.2060 C   0  0  0  0  0  2  0  0  0  0  0  0
  180.2860  179.1440  143.1900 C   0  0  0  0  0  0  0  0  0  0  0  0
  180.3020  180.2990  142.6880 O   0  0  0  0  0  0  0  0  0  0  0  0
  179.3000  178.2440  142.8190 O   0  0  0  0  0  1  0  0  0  0  0  0
  1 12  1  0  0  0  0
  1 27  1  0  0  0  0
  2  9  1  0  0  0  0
  2  6  2  0  0  0  0
  3 11  1  6  0  0  0
  3  8  1  0  0  0  0
  3  7  1  0  0  0  0
  5  8  1  0  0  0  0
  5 10  2  0  0  0  0
  6  1  1  0  0  0  0
  7  9  2  0  0  0  0
  8  2  1  0  0  0  0
 10  4  1  0  0  0  0
 10  6  1  0  0  0  0
 14 16  1  0  0  0  0
 15 19  1  6  0  0  0
 15 17  1  0  0  0  0
 16 13  2  0  0  0  0
 17 13  1  0  0  0  0
 18 12  1  6  0  0  0
 18 15  1  0  0  0  0
 18 14  1  0  0  0  0
 19 22  1  1  0  0  0
 19 20  1  0  0  0  0
 21 20  1  0  0  0  0
 23 22  1  0  0  0  0
 24 23  1  0  0  0  0
 25 26  1  0  0  0  0
 26 24  1  0  0  0  0
 27 28  1  0  0  0  0
 28 29  1  1  0  0  0
 30 31  1  0  0  0  0
 30 28  1  0  0  0  0
 32 31  1  0  0  0  0
 33 32  2  0  0  0  0
 34 32  1  0  0  0  0
M  END
>  <MODEL>
4

>  <REMARK>
 VINA RESULT:      -6.6      2.617      4.375
  Name = 
  14 active torsions:
  status: ('A' for Active; 'I' for Inactive)
    1  A    between atoms: C_3  and  C_14
    2  A    between atoms: C_3  and  C_31
    3  A    between atoms: C_5  and  C_9
    4  A    between atoms: C_5  and  C_19
    5  A    between atoms: C_5  and  C_34
    6  A    between atoms: N_7  and  O_13
    7  A    between atoms: N_7  and  C_14
    8  A    between atoms: N_7  and  C_21
    9  A    between atoms: O_10  and  C_16
   10  A    between atoms: O_10  and  C_34
   11  A    between atoms: O_13  and  C_29
   12  A    between atoms: C_15  and  C_18
   13  A    between atoms: C_16  and  C_24
   14  A    between atoms: C_18  and  C_31
                            x       y       z     vdW  Elec       q    Type
                         _______ _______ _______ _____ _____    ______ ____

>  <TORSDO>
F 14

$$$$
=
 OpenBabel11042412173D

 34 36  0  0  1  0  0  0  0  0999 V2000
  187.5430  178.2420  140.9490 N   0  0  0  0  0  0  0  0  0  0  0  0
  187.8830  177.5640  138.5420 C   0  0  0  0  0  0  0  0  0  0  0  0
  188.6600  177.7680  136.4320 C   0  0  1  0  0  3  0  0  0  0  0  0
  190.6940  177.7120  140.8490 C   0  0  0  0  0  1  0  0  0  0  0  0
  190.0520  177.3450  138.4580 N   0  0  0  0  0  0  0  0  0  0  0  0
  188.3180  177.7490  139.8310 C   0  0  0  0  0  0  0  0  0  0  0  0
  187.3000  178.3230  136.5360 N   0  0  0  0  0  0  0  0  0  0  0  0
  188.9230  177.2850  137.7730 N   0  0  0  0  0  0  0  0  0  0  0  0
  186.8640  178.2250  137.7620 C   0  0  0  0  0  3  0  0  0  0  0  0
  189.7010  177.5630  139.7460 C   0  0  0  0  0  0  0  0  0  0  0  0
  188.6700  176.6100  135.4530 C   0  0  0  0  0  1  0  0  0  0  0  0
  186.4510  179.0250  140.7110 O   0  0  0  0  0  0  0  0  0  0  0  0
  183.3120  179.0630  143.5050 C   0  0  0  0  0  3  0  0  0  0  0  0
  185.6250  179.6630  142.8660 C   0  0  0  0  0  2  0  0  0  0  0  0
  184.1070  178.8330  141.1030 C   0  0  1  0  0  3  0  0  0  0  0  0
  184.5090  179.5250  143.8550 C   0  0  0  0  0  3  0  0  0  0  0  0
  183.0070  178.5410  142.1270 C   0  0  0  0  0  2  0  0  0  0  0  0
  185.5030  178.6920  141.6950 C   0  0  1  0  0  3  0  0  0  0  0  0
  183.9610  178.0540  139.7850 C   0  0  1  0  0  3  0  0  0  0  0  0
  183.1380  176.7650  139.8650 C   0  0  0  0  0  2  0  0  0  0  0  0
  182.7180  176.2980  138.4830 C   0  0  0  0  0  1  0  0  0  0  0  0
  183.4090  178.9750  138.7080 C   0  0  0  0  0  2  0  0  0  0  0  0
  183.5950  180.3090  139.0820 O   0  0  0  0  0  0  0  0  0  0  0  0
  182.4240  180.9400  138.6760 C   0  0  0  0  0  2  0  0  0  0  0  0
  180.3110  180.5910  139.8910 C   0  0  0  0  0  1  0  0  0  0  0  0
  181.2570  179.9980  138.8770 C   0  0  0  0  0  2  0  0  0  0  0  0
  188.0780  178.0760  142.3080 C   0  0  0  0  0  2  0  0  0  0  0  0
  187.7930  176.7050  142.9210 C   0  0  1  0  0  3  0  0  0  0  0  0
  188.9670  175.9500  142.9010 O   0  0  0  0  0  1  0  0  0  0  0  0
  187.2950  176.8290  144.3590 C   0  0  0  0  0  2  0  0  0  0  0  0
  188.1000  177.8780  145.1250 C   0  0  0  0  0  2  0  0  0  0  0  0
  188.9640  177.2530  146.1710 C   0  0  0  0  0  0  0  0  0  0  0  0
  190.1460  176.9210  145.8950 O   0  0  0  0  0  0  0  0  0  0  0  0
  188.4560  177.0100  147.4370 O   0  0  0  0  0  1  0  0  0  0  0  0
  1 27  1  0  0  0  0
  2  6  2  0  0  0  0
  3 11  1  6  0  0  0
  3  7  1  0  0  0  0
  3  8  1  0  0  0  0
  5 10  2  0  0  0  0
  6  1  1  0  0  0  0
  7  9  2  0  0  0  0
  8  5  1  0  0  0  0
  8  2  1  0  0  0  0
  9  2  1  0  0  0  0
 10  6  1  0  0  0  0
 10  4  1  0  0  0  0
 12  1  1  0  0  0  0
 13 16  2  0  0  0  0
 14 16  1  0  0  0  0
 15 19  1  6  0  0  0
 15 18  1  0  0  0  0
 15 17  1  0  0  0  0
 17 13  1  0  0  0  0
 18 12  1  6  0  0  0
 18 14  1  0  0  0  0
 19 22  1  6  0  0  0
 19 20  1  0  0  0  0
 21 20  1  0  0  0  0
 22 23  1  0  0  0  0
 24 26  1  0  0  0  0
 24 23  1  0  0  0  0
 26 25  1  0  0  0  0
 27 28  1  0  0  0  0
 28 29  1  1  0  0  0
 28 30  1  0  0  0  0
 30 31  1  0  0  0  0
 31 32  1  0  0  0  0
 32 34  1  0  0  0  0
 33 32  2  0  0  0  0
M  END
>  <MODEL>
5

>  <REMARK>
 VINA RESULT:      -6.5      2.205      7.425
  Name = 
  14 active torsions:
  status: ('A' for Active; 'I' for Inactive)
    1  A    between atoms: C_3  and  C_14
    2  A    between atoms: C_3  and  C_31
    3  A    between atoms: C_5  and  C_9
    4  A    between atoms: C_5  and  C_19
    5  A    between atoms: C_5  and  C_34
    6  A    between atoms: N_7  and  O_13
    7  A    between atoms: N_7  and  C_14
    8  A    between atoms: N_7  and  C_21
    9  A    between atoms: O_10  and  C_16
   10  A    between atoms: O_10  and  C_34
   11  A    between atoms: O_13  and  C_29
   12  A    between atoms: C_15  and  C_18
   13  A    between atoms: C_16  and  C_24
   14  A    between atoms: C_18  and  C_31
                            x       y       z     vdW  Elec       q    Type
                         _______ _______ _______ _____ _____    ______ ____

>  <TORSDO>
F 14

$$$$
=
 OpenBabel11042412173D

 34 36  0  0  1  0  0  0  0  0999 V2000
  183.5070  178.0180  139.8700 N   0  0  0  0  0  0  0  0  0  0  0  0
  181.7850  179.8140  139.4500 C   0  0  0  0  0  0  0  0  0  0  0  0
  180.2000  180.9200  138.2830 C   0  0  1  0  0  3  0  0  0  0  0  0
  180.7980  176.3250  139.7610 C   0  0  0  0  0  1  0  0  0  0  0  0
  179.9660  178.6280  139.2380 N   0  0  0  0  0  0  0  0  0  0  0  0
  182.1580  178.5230  139.7290 C   0  0  0  0  0  0  0  0  0  0  0  0
  181.5210  181.5300  138.0610 N   0  0  0  0  0  0  0  0  0  0  0  0
  180.4840  179.8440  139.2120 N   0  0  0  0  0  0  0  0  0  0  0  0
  182.4380  180.8730  138.7180 C   0  0  0  0  0  3  0  0  0  0  0  0
  180.9660  177.8000  139.6230 C   0  0  0  0  0  0  0  0  0  0  0  0
  179.2690  181.9280  138.9270 C   0  0  0  0  0  1  0  0  0  0  0  0
  183.8810  177.4320  141.0450 O   0  0  0  0  0  0  0  0  0  0  0  0
  183.5980  179.6500  144.6030 C   0  0  0  0  0  3  0  0  0  0  0  0
  182.5170  178.4790  142.7120 C   0  0  0  0  0  2  0  0  0  0  0  0
  184.9390  178.1430  143.0590 C   0  0  1  0  0  3  0  0  0  0  0  0
  182.4960  179.3770  143.9100 C   0  0  0  0  0  3  0  0  0  0  0  0
  184.9650  179.1770  144.1890 C   0  0  0  0  0  2  0  0  0  0  0  0
  183.8750  178.4500  142.0150 C   0  0  1  0  0  3  0  0  0  0  0  0
  186.3130  177.8780  142.4200 C   0  0  1  0  0  3  0  0  0  0  0  0
  186.8450  178.9890  141.5100 C   0  0  0  0  0  2  0  0  0  0  0  0
  188.0950  178.5410  140.7750 C   0  0  0  0  0  1  0  0  0  0  0  0
  187.3240  177.5450  143.5050 C   0  0  0  0  0  2  0  0  0  0  0  0
  187.8360  176.2610  143.3000 O   0  0  0  0  0  0  0  0  0  0  0  0
  189.1920  176.3890  143.5860 C   0  0  0  0  0  2  0  0  0  0  0  0
  190.0800  177.1280  145.7600 C   0  0  0  0  0  1  0  0  0  0  0  0
  189.3960  177.5810  144.4950 C   0  0  0  0  0  2  0  0  0  0  0  0
  184.4980  178.3490  138.8370 C   0  0  0  0  0  2  0  0  0  0  0  0
  184.6030  177.3050  137.7250 C   0  0  1  0  0  3  0  0  0  0  0  0
  183.5590  177.5030  136.8220 O   0  0  0  0  0  1  0  0  0  0  0  0
  185.9370  177.4080  136.9880 C   0  0  0  0  0  2  0  0  0  0  0  0
  186.7280  178.6280  137.4610 C   0  0  0  0  0  2  0  0  0  0  0  0
  188.1420  178.5850  136.9850 C   0  0  0  0  0  0  0  0  0  0  0  0
  188.5140  177.6780  136.1960 O   0  0  0  0  0  0  0  0  0  0  0  0
  189.0550  179.5250  137.4370 O   0  0  0  0  0  1  0  0  0  0  0  0
  1 12  1  0  0  0  0
  2  6  2  0  0  0  0
  3 11  1  1  0  0  0
  3  8  1  0  0  0  0
  5 10  2  0  0  0  0
  6  1  1  0  0  0  0
  7  3  1  0  0  0  0
  7  9  2  0  0  0  0
  8  5  1  0  0  0  0
  8  2  1  0  0  0  0
  9  2  1  0  0  0  0
 10  6  1  0  0  0  0
 10  4  1  0  0  0  0
 14 16  1  0  0  0  0
 15 19  1  6  0  0  0
 15 17  1  0  0  0  0
 16 13  2  0  0  0  0
 17 13  1  0  0  0  0
 18 12  1  6  0  0  0
 18 14  1  0  0  0  0
 18 15  1  0  0  0  0
 19 20  1  1  0  0  0
 19 22  1  0  0  0  0
 21 20  1  0  0  0  0
 23 22  1  0  0  0  0
 23 24  1  0  0  0  0
 24 26  1  0  0  0  0
 26 25  1  0  0  0  0
 27  1  1  0  0  0  0
 28 29  1  6  0  0  0
 28 27  1  0  0  0  0
 30 31  1  0  0  0  0
 30 28  1  0  0  0  0
 32 34  1  0  0  0  0
 32 31  1  0  0  0  0
 33 32  2  0  0  0  0
M  END
>  <MODEL>
6

>  <REMARK>
 VINA RESULT:      -6.2      3.737      6.493
  Name = 
  14 active torsions:
  status: ('A' for Active; 'I' for Inactive)
    1  A    between atoms: C_3  and  C_14
    2  A    between atoms: C_3  and  C_31
    3  A    between atoms: C_5  and  C_9
    4  A    between atoms: C_5  and  C_19
    5  A    between atoms: C_5  and  C_34
    6  A    between atoms: N_7  and  O_13
    7  A    between atoms: N_7  and  C_14
    8  A    between atoms: N_7  and  C_21
    9  A    between atoms: O_10  and  C_16
   10  A    between atoms: O_10  and  C_34
   11  A    between atoms: O_13  and  C_29
   12  A    between atoms: C_15  and  C_18
   13  A    between atoms: C_16  and  C_24
   14  A    between atoms: C_18  and  C_31
                            x       y       z     vdW  Elec       q    Type
                         _______ _______ _______ _____ _____    ______ ____

>  <TORSDO>
F 14

$$$$
=
 OpenBabel11042412173D

 34 36  0  0  1  0  0  0  0  0999 V2000
  183.0550  178.2960  138.6400 N   0  0  0  0  0  0  0  0  0  0  0  0
  185.5570  178.3470  138.3150 C   0  0  0  0  0  0  0  0  0  0  0  0
  187.6580  177.5210  138.3460 C   0  0  1  0  0  3  0  0  0  0  0  0
  183.4620  176.1560  136.3010 C   0  0  0  0  0  1  0  0  0  0  0  0
  185.8290  176.7820  136.8190 N   0  0  0  0  0  0  0  0  0  0  0  0
  184.2890  177.9480  137.9710 C   0  0  0  0  0  0  0  0  0  0  0  0
  187.3710  178.2450  139.5960 N   0  0  0  0  0  0  0  0  0  0  0  0
  186.4320  177.6740  137.5870 N   0  0  0  0  0  0  0  0  0  0  0  0
  186.1480  178.7000  139.5840 C   0  0  0  0  0  3  0  0  0  0  0  0
  184.5000  176.9780  136.9860 C   0  0  0  0  0  0  0  0  0  0  0  0
  188.8060  178.1900  137.6160 C   0  0  0  0  0  1  0  0  0  0  0  0
  182.7630  177.7240  139.8450 O   0  0  0  0  0  0  0  0  0  0  0  0
  179.2840  175.4090  140.2920 C   0  0  0  0  0  3  0  0  0  0  0  0
  181.6250  175.6420  139.5270 C   0  0  0  0  0  2  0  0  0  0  0  0
  180.6970  177.4020  140.9900 C   0  0  1  0  0  3  0  0  0  0  0  0
  180.3140  174.9220  139.6040 C   0  0  0  0  0  3  0  0  0  0  0  0
  179.3070  176.7600  140.9540 C   0  0  0  0  0  2  0  0  0  0  0  0
  181.4860  177.1500  139.7120 C   0  0  1  0  0  3  0  0  0  0  0  0
  180.6920  178.8900  141.3780 C   0  0  1  0  0  3  0  0  0  0  0  0
  179.3830  179.6390  141.1120 C   0  0  0  0  0  2  0  0  0  0  0  0
  179.2870  180.8910  141.9650 C   0  0  0  0  0  1  0  0  0  0  0  0
  181.1060  179.0380  142.8340 C   0  0  0  0  0  2  0  0  0  0  0  0
  182.4980  178.9820  142.9400 O   0  0  0  0  0  0  0  0  0  0  0  0
  182.7320  178.9730  144.3110 C   0  0  0  0  0  2  0  0  0  0  0  0
  184.9390  178.5580  143.3030 C   0  0  0  0  0  1  0  0  0  0  0  0
  184.2240  178.9820  144.5610 C   0  0  0  0  0  2  0  0  0  0  0  0
  182.0480  179.0760  137.9070 C   0  0  0  0  0  2  0  0  0  0  0  0
  181.8610  180.4980  138.4390 C   0  0  1  0  0  3  0  0  0  0  0  0
  183.1140  181.0420  138.7190 O   0  0  0  0  0  1  0  0  0  0  0  0
  181.1390  181.3820  137.4240 C   0  0  0  0  0  2  0  0  0  0  0  0
  180.9230  182.7880  137.9850 C   0  0  0  0  0  2  0  0  0  0  0  0
  181.2340  183.8390  136.9700 C   0  0  0  0  0  0  0  0  0  0  0  0
  180.8920  183.6750  135.7700 O   0  0  0  0  0  0  0  0  0  0  0  0
  181.9250  184.9800  137.3430 O   0  0  0  0  0  1  0  0  0  0  0  0
  1 12  1  0  0  0  0
  2  9  1  0  0  0  0
  3 11  1  6  0  0  0
  3  7  1  0  0  0  0
  4 10  1  0  0  0  0
  5 10  2  0  0  0  0
  5  8  1  0  0  0  0
  6  2  2  0  0  0  0
  6  1  1  0  0  0  0
  8  2  1  0  0  0  0
  8  3  1  0  0  0  0
  9  7  2  0  0  0  0
 10  6  1  0  0  0  0
 13 17  1  0  0  0  0
 14 16  1  0  0  0  0
 14 18  1  0  0  0  0
 15 19  1  6  0  0  0
 16 13  2  0  0  0  0
 17 15  1  0  0  0  0
 18 12  1  1  0  0  0
 18 15  1  0  0  0  0
 19 20  1  1  0  0  0
 19 22  1  0  0  0  0
 20 21  1  0  0  0  0
 22 23  1  0  0  0  0
 23 24  1  0  0  0  0
 24 26  1  0  0  0  0
 25 26  1  0  0  0  0
 27 28  1  0  0  0  0
 27  1  1  0  0  0  0
 28 29  1  6  0  0  0
 30 31  1  0  0  0  0
 30 28  1  0  0  0  0
 32 34  1  0  0  0  0
 32 31  1  0  0  0  0
 33 32  2  0  0  0  0
M  END
>  <MODEL>
7

>  <REMARK>
 VINA RESULT:      -6.2      4.890      7.934
  Name = 
  14 active torsions:
  status: ('A' for Active; 'I' for Inactive)
    1  A    between atoms: C_3  and  C_14
    2  A    between atoms: C_3  and  C_31
    3  A    between atoms: C_5  and  C_9
    4  A    between atoms: C_5  and  C_19
    5  A    between atoms: C_5  and  C_34
    6  A    between atoms: N_7  and  O_13
    7  A    between atoms: N_7  and  C_14
    8  A    between atoms: N_7  and  C_21
    9  A    between atoms: O_10  and  C_16
   10  A    between atoms: O_10  and  C_34
   11  A    between atoms: O_13  and  C_29
   12  A    between atoms: C_15  and  C_18
   13  A    between atoms: C_16  and  C_24
   14  A    between atoms: C_18  and  C_31
                            x       y       z     vdW  Elec       q    Type
                         _______ _______ _______ _____ _____    ______ ____

>  <TORSDO>
F 14

$$$$
=
 OpenBabel11042412173D

 34 36  0  0  1  0  0  0  0  0999 V2000
  186.0530  178.3900  143.3450 N   0  0  0  0  0  0  0  0  0  0  0  0
  184.9310  178.2560  141.0880 C   0  0  0  0  0  0  0  0  0  0  0  0
  184.2330  179.0230  139.0830 C   0  0  1  0  0  3  0  0  0  0  0  0
  188.5260  178.7600  141.3540 C   0  0  0  0  0  1  0  0  0  0  0  0
  186.6080  178.6500  139.7500 N   0  0  0  0  0  0  0  0  0  0  0  0
  186.0360  178.3260  141.9000 C   0  0  0  0  0  0  0  0  0  0  0  0
  183.1650  179.1620  140.0870 N   0  0  0  0  0  0  0  0  0  0  0  0
  185.3110  178.4050  139.8300 N   0  0  0  0  0  0  0  0  0  0  0  0
  183.5810  178.7400  141.2500 C   0  0  0  0  0  3  0  0  0  0  0  0
  187.0920  178.5390  141.0080 C   0  0  0  0  0  0  0  0  0  0  0  0
  183.7780  178.0980  137.9720 C   0  0  0  0  0  1  0  0  0  0  0  0
  186.6870  177.4080  144.0500 O   0  0  0  0  0  0  0  0  0  0  0  0
  187.9150  178.1030  148.0090 C   0  0  0  0  0  3  0  0  0  0  0  0
  186.1450  177.5290  146.3790 C   0  0  0  0  0  2  0  0  0  0  0  0
  188.4900  177.5120  145.6050 C   0  0  1  0  0  3  0  0  0  0  0  0
  186.6250  177.9150  147.7440 C   0  0  0  0  0  3  0  0  0  0  0  0
  188.9830  178.0550  146.9500 C   0  0  0  0  0  2  0  0  0  0  0  0
  187.0840  177.9890  145.2680 C   0  0  1  0  0  3  0  0  0  0  0  0
  189.4690  177.7370  144.4410 C   0  0  1  0  0  3  0  0  0  0  0  0
  190.6060  178.7250  144.7130 C   0  0  0  0  0  2  0  0  0  0  0  0
  190.9130  179.5590  143.4820 C   0  0  0  0  0  1  0  0  0  0  0  0
  190.0220  176.4000  143.9750 C   0  0  0  0  0  2  0  0  0  0  0  0
  191.4180  176.4180  144.0270 O   0  0  0  0  0  0  0  0  0  0  0  0
  191.7340  175.4330  144.9580 C   0  0  0  0  0  2  0  0  0  0  0  0
  191.3970  175.4370  147.3960 C   0  0  0  0  0  1  0  0  0  0  0  0
  192.1390  176.0910  146.2590 C   0  0  0  0  0  2  0  0  0  0  0  0
  185.2000  179.3790  144.0190 C   0  0  0  0  0  2  0  0  0  0  0  0
  183.8870  178.8030  144.5500 C   0  0  1  0  0  3  0  0  0  0  0  0
  183.8260  179.0150  145.9270 O   0  0  0  0  0  1  0  0  0  0  0  0
  182.6800  179.4580  143.8820 C   0  0  0  0  0  2  0  0  0  0  0  0
  181.4100  178.6470  144.1370 C   0  0  0  0  0  2  0  0  0  0  0  0
  180.3160  179.0240  143.1930 C   0  0  0  0  0  0  0  0  0  0  0  0
  179.4040  178.1990  142.9230 O   0  0  0  0  0  1  0  0  0  0  0  0
  180.3200  180.2710  142.5890 O   0  0  0  0  0  0  0  0  0  0  0  0
  1 27  1  0  0  0  0
  1 12  1  0  0  0  0
  2  9  1  0  0  0  0
  2  6  2  0  0  0  0
  3 11  1  6  0  0  0
  3  8  1  0  0  0  0
  3  7  1  0  0  0  0
  5  8  1  0  0  0  0
  5 10  2  0  0  0  0
  6  1  1  0  0  0  0
  7  9  2  0  0  0  0
  8  2  1  0  0  0  0
 10  4  1  0  0  0  0
 10  6  1  0  0  0  0
 14 16  1  0  0  0  0
 15 19  1  6  0  0  0
 15 17  1  0  0  0  0
 16 13  2  0  0  0  0
 17 13  1  0  0  0  0
 18 12  1  6  0  0  0
 18 15  1  0  0  0  0
 18 14  1  0  0  0  0
 19 22  1  1  0  0  0
 19 20  1  0  0  0  0
 21 20  1  0  0  0  0
 22 23  1  0  0  0  0
 23 24  1  0  0  0  0
 24 26  1  0  0  0  0
 26 25  1  0  0  0  0
 27 28  1  0  0  0  0
 28 29  1  1  0  0  0
 30 31  1  0  0  0  0
 30 28  1  0  0  0  0
 32 31  1  0  0  0  0
 33 32  1  0  0  0  0
 34 32  2  0  0  0  0
M  END
>  <MODEL>
8

>  <REMARK>
 VINA RESULT:      -6.1      2.514      3.493
  Name = 
  14 active torsions:
  status: ('A' for Active; 'I' for Inactive)
    1  A    between atoms: C_3  and  C_14
    2  A    between atoms: C_3  and  C_31
    3  A    between atoms: C_5  and  C_9
    4  A    between atoms: C_5  and  C_19
    5  A    between atoms: C_5  and  C_34
    6  A    between atoms: N_7  and  O_13
    7  A    between atoms: N_7  and  C_14
    8  A    between atoms: N_7  and  C_21
    9  A    between atoms: O_10  and  C_16
   10  A    between atoms: O_10  and  C_34
   11  A    between atoms: O_13  and  C_29
   12  A    between atoms: C_15  and  C_18
   13  A    between atoms: C_16  and  C_24
   14  A    between atoms: C_18  and  C_31
                            x       y       z     vdW  Elec       q    Type
                         _______ _______ _______ _____ _____    ______ ____

>  <TORSDO>
F 14

$$$$
=
 OpenBabel11042412173D

 34 36  0  0  1  0  0  0  0  0999 V2000
  187.7990  177.7010  143.2670 N   0  0  0  0  0  0  0  0  0  0  0  0
  189.3680  177.1030  141.3830 C   0  0  0  0  0  0  0  0  0  0  0  0
  190.7360  177.5030  139.6330 C   0  0  1  0  0  3  0  0  0  0  0  0
  190.5450  179.0040  144.2550 C   0  0  0  0  0  1  0  0  0  0  0  0
  191.1960  178.1180  142.0060 N   0  0  0  0  0  0  0  0  0  0  0  0
  189.0930  177.6180  142.6260 C   0  0  0  0  0  0  0  0  0  0  0  0
  189.3710  177.2160  139.1630 N   0  0  0  0  0  0  0  0  0  0  0  0
  190.6250  177.3760  141.0730 N   0  0  0  0  0  0  0  0  0  0  0  0
  188.5780  177.0090  140.1790 C   0  0  0  0  0  3  0  0  0  0  0  0
  190.2930  178.2240  143.0090 C   0  0  0  0  0  0  0  0  0  0  0  0
  191.6960  176.4600  139.0940 C   0  0  0  0  0  1  0  0  0  0  0  0
  186.9000  178.6360  142.8400 O   0  0  0  0  0  0  0  0  0  0  0  0
  183.2060  178.9200  144.8230 C   0  0  0  0  0  3  0  0  0  0  0  0
  185.6680  179.1570  144.8260 C   0  0  0  0  0  2  0  0  0  0  0  0
  184.5310  178.8320  142.6570 C   0  0  1  0  0  3  0  0  0  0  0  0
  184.3330  179.1100  145.5030 C   0  0  0  0  0  3  0  0  0  0  0  0
  183.1790  178.6280  143.3480 C   0  0  0  0  0  2  0  0  0  0  0  0
  185.6980  178.3680  143.5190 C   0  0  1  0  0  3  0  0  0  0  0  0
  184.6030  178.2530  141.2340 C   0  0  1  0  0  3  0  0  0  0  0  0
  183.3700  177.4700  140.7750 C   0  0  0  0  0  2  0  0  0  0  0  0
  182.4380  178.3470  139.9580 C   0  0  0  0  0  1  0  0  0  0  0  0
  184.9280  179.3650  140.2490 C   0  0  0  0  0  2  0  0  0  0  0  0
  186.0310  179.0030  139.4710 O   0  0  0  0  0  0  0  0  0  0  0  0
  185.4740  178.6200  138.2540 C   0  0  0  0  0  2  0  0  0  0  0  0
  186.0430  177.3180  136.2440 C   0  0  0  0  0  1  0  0  0  0  0  0
  186.5850  178.2570  137.2930 C   0  0  0  0  0  2  0  0  0  0  0  0
  187.5700  176.9360  144.5010 C   0  0  0  0  0  2  0  0  0  0  0  0
  188.3420  177.4670  145.7090 C   0  0  1  0  0  3  0  0  0  0  0  0
  187.4310  177.8440  146.6950 O   0  0  0  0  0  1  0  0  0  0  0  0
  189.2910  176.4110  146.2720 C   0  0  0  0  0  2  0  0  0  0  0  0
  190.3480  177.0530  147.1700 C   0  0  0  0  0  2  0  0  0  0  0  0
  191.6840  176.4110  146.9940 C   0  0  0  0  0  0  0  0  0  0  0  0
  192.0550  176.0320  145.8520 O   0  0  0  0  0  0  0  0  0  0  0  0
  192.5050  176.2020  148.0910 O   0  0  0  0  0  1  0  0  0  0  0  0
  1 27  1  0  0  0  0
  2  6  2  0  0  0  0
  3 11  1  6  0  0  0
  3  8  1  0  0  0  0
  5 10  2  0  0  0  0
  6 10  1  0  0  0  0
  6  1  1  0  0  0  0
  7  3  1  0  0  0  0
  7  9  2  0  0  0  0
  8  2  1  0  0  0  0
  8  5  1  0  0  0  0
  9  2  1  0  0  0  0
 10  4  1  0  0  0  0
 12  1  1  0  0  0  0
 13 16  2  0  0  0  0
 14 16  1  0  0  0  0
 15 19  1  6  0  0  0
 15 17  1  0  0  0  0
 15 18  1  0  0  0  0
 17 13  1  0  0  0  0
 18 12  1  6  0  0  0
 18 14  1  0  0  0  0
 19 22  1  6  0  0  0
 20 19  1  0  0  0  0
 21 20  1  0  0  0  0
 23 22  1  0  0  0  0
 24 23  1  0  0  0  0
 25 26  1  0  0  0  0
 26 24  1  0  0  0  0
 27 28  1  0  0  0  0
 28 30  1  0  0  0  0
 28 29  1  1  0  0  0
 30 31  1  0  0  0  0
 32 31  1  0  0  0  0
 32 34  1  0  0  0  0
 33 32  2  0  0  0  0
M  END
>  <MODEL>
9

>  <REMARK>
 VINA RESULT:      -6.1      1.918      7.091
  Name = 
  14 active torsions:
  status: ('A' for Active; 'I' for Inactive)
    1  A    between atoms: C_3  and  C_14
    2  A    between atoms: C_3  and  C_31
    3  A    between atoms: C_5  and  C_9
    4  A    between atoms: C_5  and  C_19
    5  A    between atoms: C_5  and  C_34
    6  A    between atoms: N_7  and  O_13
    7  A    between atoms: N_7  and  C_14
    8  A    between atoms: N_7  and  C_21
    9  A    between atoms: O_10  and  C_16
   10  A    between atoms: O_10  and  C_34
   11  A    between atoms: O_13  and  C_29
   12  A    between atoms: C_15  and  C_18
   13  A    between atoms: C_16  and  C_24
   14  A    between atoms: C_18  and  C_31
                            x       y       z     vdW  Elec       q    Type
                         _______ _______ _______ _____ _____    ______ ____

>  <TORSDO>
F 14

$$$$
