=
 OpenBabel11042412303D

 31 34  0  0  1  0  0  0  0  0999 V2000
  187.3080  178.3940  140.9820 C   0  0  0  0  0  0  0  0  0  0  0  0
  191.0800  176.9710  137.4020 O   0  0  0  0  0  0  0  0  0  0  0  0
  188.2280  178.1370  139.9050 C   0  0  0  0  0  0  0  0  0  0  0  0
  187.5570  177.6300  142.0020 N   0  0  0  0  0  0  0  0  0  0  0  0
  188.7090  176.7570  141.7050 C   0  0  1  0  0  3  0  0  0  0  0  0
  190.0890  176.7120  139.4670 C   0  0  0  0  0  3  0  0  0  0  0  0
  189.2970  178.3080  137.8560 N   0  0  0  0  0  2  0  0  0  0  0  0
  188.3290  178.7150  138.6880 N   0  0  0  0  0  0  0  0  0  0  0  0
  189.0780  177.1580  140.3110 C   0  0  0  0  0  0  0  0  0  0  0  0
  186.2840  179.3880  140.9630 N   0  0  0  0  0  2  0  0  0  0  0  0
  190.1820  177.3230  138.2060 C   0  0  0  0  0  0  0  0  0  0  0  0
  189.8340  177.0280  142.6610 C   0  0  0  0  0  0  0  0  0  0  0  0
  191.3750  179.9600  144.3700 N   0  0  0  0  0  1  0  0  0  0  0  0
  191.6170  176.2540  144.1180 C   0  0  0  0  0  3  0  0  0  0  0  0
  190.0950  178.3460  143.0540 C   0  0  0  0  0  3  0  0  0  0  0  0
  191.8750  177.5730  144.5030 C   0  0  0  0  0  3  0  0  0  0  0  0
  191.1150  178.6190  143.9730 C   0  0  0  0  0  0  0  0  0  0  0  0
  190.5970  175.9810  143.2040 C   0  0  0  0  0  3  0  0  0  0  0  0
  185.4180  179.6530  142.1050 C   0  0  0  0  0  2  0  0  0  0  0  0
  184.3030  178.6180  142.1950 C   0  0  0  0  0  2  0  0  0  0  0  0
  183.5190  178.7510  143.4940 C   0  0  0  0  0  2  0  0  0  0  0  0
  184.2590  179.4690  144.4340 O   0  0  0  0  0  0  0  0  0  0  0  0
  184.2060  178.6940  145.5940 C   0  0  0  0  0  2  0  0  0  0  0  0
  185.5790  178.2700  145.9890 C   0  0  0  0  0  0  0  0  0  0  0  0
  187.6460  177.1230  145.4600 C   0  0  0  0  0  3  0  0  0  0  0  0
  187.8320  178.4570  148.9070 O   0  0  0  0  0  1  0  0  0  0  0  0
  188.1450  177.4230  146.7300 C   0  0  0  0  0  0  0  0  0  0  0  0
  187.3540  178.1470  147.6390 C   0  0  0  0  0  0  0  0  0  0  0  0
  186.0720  178.5630  147.2670 C   0  0  0  0  0  3  0  0  0  0  0  0
  189.5140  176.9690  147.1010 C   0  0  0  0  0  1  0  0  0  0  0  0
  186.3660  177.5430  145.0890 C   0  0  0  0  0  3  0  0  0  0  0  0
  1  4  2  0  0  0  0
  2 11  2  0  0  0  0
  3  9  1  0  0  0  0
  3  1  1  0  0  0  0
  5  4  1  0  0  0  0
  5 12  1  1  0  0  0
  6  9  2  0  0  0  0
  7 11  1  0  0  0  0
  7  8  1  0  0  0  0
  8  3  2  0  0  0  0
  9  5  1  0  0  0  0
 10  1  1  0  0  0  0
 10 19  1  0  0  0  0
 11  6  1  0  0  0  0
 12 15  2  0  0  0  0
 12 18  1  0  0  0  0
 14 16  1  0  0  0  0
 15 17  1  0  0  0  0
 17 13  1  0  0  0  0
 17 16  2  0  0  0  0
 18 14  2  0  0  0  0
 19 20  1  0  0  0  0
 20 21  1  0  0  0  0
 21 22  1  0  0  0  0
 22 23  1  0  0  0  0
 23 24  1  0  0  0  0
 24 29  1  0  0  0  0
 25 27  2  0  0  0  0
 27 30  1  0  0  0  0
 27 28  1  0  0  0  0
 28 26  1  0  0  0  0
 29 28  2  0  0  0  0
 31 25  1  0  0  0  0
 31 24  2  0  0  0  0
M  END
>  <MODEL>
1

>  <REMARK>
 VINA RESULT:      -9.1      0.000      0.000
  Name = 
  7 active torsions:
  status: ('A' for Active; 'I' for Inactive)
    1  A    between atoms: C_1  and  C_24
    2  A    between atoms: C_3  and  C_17
    3  A    between atoms: C_13  and  C_15
    4  A    between atoms: C_13  and  N_29
    5  A    between atoms: C_15  and  C_20
    6  A    between atoms: C_20  and  O_23
    7  A    between atoms: O_23  and  C_24
                            x       y       z     vdW  Elec       q    Type
                         _______ _______ _______ _____ _____    ______ ____

>  <TORSDO>
F 7

$$$$
=
 OpenBabel11042412303D

 31 34  0  0  1  0  0  0  0  0999 V2000
  185.6620  178.5550  139.8090 C   0  0  0  0  0  0  0  0  0  0  0  0
  180.5880  177.9420  141.5270 O   0  0  0  0  0  0  0  0  0  0  0  0
  184.2710  178.3160  140.0930 C   0  0  0  0  0  0  0  0  0  0  0  0
  186.2430  179.1660  140.7960 N   0  0  0  0  0  0  0  0  0  0  0  0
  185.2710  179.4040  141.8800 C   0  0  1  0  0  3  0  0  0  0  0  0
  182.7330  178.7150  141.8710 C   0  0  0  0  0  3  0  0  0  0  0  0
  182.0850  177.5860  139.8520 N   0  0  0  0  0  2  0  0  0  0  0  0
  183.3220  177.7010  139.3520 N   0  0  0  0  0  0  0  0  0  0  0  0
  184.0090  178.8170  141.3280 C   0  0  0  0  0  0  0  0  0  0  0  0
  186.3380  178.1360  138.6230 N   0  0  0  0  0  2  0  0  0  0  0  0
  181.7590  178.0730  141.0890 C   0  0  0  0  0  0  0  0  0  0  0  0
  185.6940  178.6930  143.1320 C   0  0  0  0  0  0  0  0  0  0  0  0
  184.8660  178.7500  146.7660 N   0  0  0  0  0  1  0  0  0  0  0  0
  186.9780  176.9720  144.2690 C   0  0  0  0  0  3  0  0  0  0  0  0
  185.1110  179.0540  144.3530 C   0  0  0  0  0  3  0  0  0  0  0  0
  186.3960  177.3400  145.4850 C   0  0  0  0  0  3  0  0  0  0  0  0
  185.4620  178.3800  145.5280 C   0  0  0  0  0  0  0  0  0  0  0  0
  186.6250  177.6420  143.0950 C   0  0  0  0  0  3  0  0  0  0  0  0
  187.7650  178.3460  138.4100 C   0  0  0  0  0  2  0  0  0  0  0  0
  188.5340  177.0390  138.5520 C   0  0  0  0  0  2  0  0  0  0  0  0
  189.9490  177.2760  139.0660 C   0  0  0  0  0  2  0  0  0  0  0  0
  190.0970  176.7330  140.3430 O   0  0  0  0  0  0  0  0  0  0  0  0
  189.8690  177.8010  141.2120 C   0  0  0  0  0  2  0  0  0  0  0  0
  190.3460  177.4590  142.5810 C   0  0  0  0  0  0  0  0  0  0  0  0
  190.5940  178.0490  144.9180 C   0  0  0  0  0  3  0  0  0  0  0  0
  192.1810  174.7620  144.3080 O   0  0  0  0  0  1  0  0  0  0  0  0
  191.2780  176.8530  145.1530 C   0  0  0  0  0  0  0  0  0  0  0  0
  191.5030  175.9560  144.0950 C   0  0  0  0  0  0  0  0  0  0  0  0
  191.0410  176.2650  142.8120 C   0  0  0  0  0  3  0  0  0  0  0  0
  191.7590  176.5490  146.5290 C   0  0  0  0  0  1  0  0  0  0  0  0
  190.1300  178.3530  143.6350 C   0  0  0  0  0  3  0  0  0  0  0  0
  1  3  1  0  0  0  0
  1  4  2  0  0  0  0
  3  9  1  0  0  0  0
  4  5  1  0  0  0  0
  5 12  1  1  0  0  0
  7 11  1  0  0  0  0
  8  7  1  0  0  0  0
  8  3  2  0  0  0  0
  9  6  2  0  0  0  0
  9  5  1  0  0  0  0
 10  1  1  0  0  0  0
 11  2  2  0  0  0  0
 11  6  1  0  0  0  0
 12 15  1  0  0  0  0
 14 16  2  0  0  0  0
 15 17  2  0  0  0  0
 16 17  1  0  0  0  0
 17 13  1  0  0  0  0
 18 12  2  0  0  0  0
 18 14  1  0  0  0  0
 19 20  1  0  0  0  0
 19 10  1  0  0  0  0
 20 21  1  0  0  0  0
 21 22  1  0  0  0  0
 22 23  1  0  0  0  0
 23 24  1  0  0  0  0
 24 29  2  0  0  0  0
 24 31  1  0  0  0  0
 25 27  1  0  0  0  0
 27 30  1  0  0  0  0
 28 26  1  0  0  0  0
 28 27  2  0  0  0  0
 29 28  1  0  0  0  0
 31 25  2  0  0  0  0
M  END
>  <MODEL>
2

>  <REMARK>
 VINA RESULT:      -8.3      2.585      5.915
  Name = 
  7 active torsions:
  status: ('A' for Active; 'I' for Inactive)
    1  A    between atoms: C_1  and  C_24
    2  A    between atoms: C_3  and  C_17
    3  A    between atoms: C_13  and  C_15
    4  A    between atoms: C_13  and  N_29
    5  A    between atoms: C_15  and  C_20
    6  A    between atoms: C_20  and  O_23
    7  A    between atoms: O_23  and  C_24
                            x       y       z     vdW  Elec       q    Type
                         _______ _______ _______ _____ _____    ______ ____

>  <TORSDO>
F 7

$$$$
=
 OpenBabel11042412303D

 31 34  0  0  1  0  0  0  0  0999 V2000
  188.8450  177.6110  142.1110 C   0  0  0  0  0  0  0  0  0  0  0  0
  191.8000  177.1750  146.6000 O   0  0  0  0  0  0  0  0  0  0  0  0
  189.7820  177.5600  143.2020 C   0  0  0  0  0  0  0  0  0  0  0  0
  187.6890  177.1380  142.4630 N   0  0  0  0  0  0  0  0  0  0  0  0
  187.7320  176.7100  143.8740 C   0  0  1  0  0  3  0  0  0  0  0  0
  189.8070  176.8620  145.4820 C   0  0  0  0  0  3  0  0  0  0  0  0
  191.7350  177.8230  144.4190 N   0  0  0  0  0  2  0  0  0  0  0  0
  191.0700  177.9620  143.2660 N   0  0  0  0  0  0  0  0  0  0  0  0
  189.1410  177.0220  144.2720 C   0  0  0  0  0  0  0  0  0  0  0  0
  189.1230  178.1540  140.8190 N   0  0  0  0  0  2  0  0  0  0  0  0
  191.1450  177.2850  145.5320 C   0  0  0  0  0  0  0  0  0  0  0  0
  186.7520  177.5000  144.6940 C   0  0  0  0  0  0  0  0  0  0  0  0
  183.7120  179.5820  144.1320 N   0  0  0  0  0  1  0  0  0  0  0  0
  185.8860  178.2400  146.8390 C   0  0  0  0  0  3  0  0  0  0  0  0
  185.7130  178.1810  144.0470 C   0  0  0  0  0  3  0  0  0  0  0  0
  184.8540  178.9220  146.1880 C   0  0  0  0  0  3  0  0  0  0  0  0
  184.7670  178.8920  144.7930 C   0  0  0  0  0  0  0  0  0  0  0  0
  186.8300  177.5270  146.0960 C   0  0  0  0  0  3  0  0  0  0  0  0
  188.1200  178.2410  139.7650 C   0  0  0  0  0  2  0  0  0  0  0  0
  188.5660  177.4770  138.5250 C   0  0  0  0  0  2  0  0  0  0  0  0
  187.7660  177.8910  137.2950 C   0  0  0  0  0  2  0  0  0  0  0  0
  186.6320  178.6110  137.6760 O   0  0  0  0  0  0  0  0  0  0  0  0
  185.5620  177.7620  137.3900 C   0  0  0  0  0  2  0  0  0  0  0  0
  184.5020  177.9100  138.4270 C   0  0  0  0  0  0  0  0  0  0  0  0
  183.5240  179.1660  140.2530 C   0  0  0  0  0  3  0  0  0  0  0  0
  181.5810  176.0610  139.7220 O   0  0  0  0  0  1  0  0  0  0  0  0
  182.5450  178.1810  140.4140 C   0  0  0  0  0  0  0  0  0  0  0  0
  182.5460  177.0510  139.5790 C   0  0  0  0  0  0  0  0  0  0  0  0
  183.5280  176.9160  138.5930 C   0  0  0  0  0  3  0  0  0  0  0  0
  181.5100  178.3500  141.4720 C   0  0  0  0  0  1  0  0  0  0  0  0
  184.5010  179.0310  139.2640 C   0  0  0  0  0  3  0  0  0  0  0  0
  1  4  2  0  0  0  0
  1  3  1  0  0  0  0
  3  8  2  0  0  0  0
  3  9  1  0  0  0  0
  4  5  1  0  0  0  0
  5  9  1  0  0  0  0
  5 12  1  1  0  0  0
  6 11  1  0  0  0  0
  7 11  1  0  0  0  0
  8  7  1  0  0  0  0
  9  6  2  0  0  0  0
 10  1  1  0  0  0  0
 11  2  2  0  0  0  0
 12 18  1  0  0  0  0
 13 17  1  0  0  0  0
 15 12  2  0  0  0  0
 15 17  1  0  0  0  0
 16 14  1  0  0  0  0
 17 16  2  0  0  0  0
 18 14  2  0  0  0  0
 19 10  1  0  0  0  0
 20 19  1  0  0  0  0
 21 22  1  0  0  0  0
 21 20  1  0  0  0  0
 23 22  1  0  0  0  0
 23 24  1  0  0  0  0
 24 29  2  0  0  0  0
 24 31  1  0  0  0  0
 25 27  1  0  0  0  0
 27 30  1  0  0  0  0
 28 26  1  0  0  0  0
 28 27  2  0  0  0  0
 29 28  1  0  0  0  0
 31 25  2  0  0  0  0
M  END
>  <MODEL>
3

>  <REMARK>
 VINA RESULT:      -8.2      2.721      6.736
  Name = 
  7 active torsions:
  status: ('A' for Active; 'I' for Inactive)
    1  A    between atoms: C_1  and  C_24
    2  A    between atoms: C_3  and  C_17
    3  A    between atoms: C_13  and  C_15
    4  A    between atoms: C_13  and  N_29
    5  A    between atoms: C_15  and  C_20
    6  A    between atoms: C_20  and  O_23
    7  A    between atoms: O_23  and  C_24
                            x       y       z     vdW  Elec       q    Type
                         _______ _______ _______ _____ _____    ______ ____

>  <TORSDO>
F 7

$$$$
=
 OpenBabel11042412303D

 31 34  0  0  1  0  0  0  0  0999 V2000
  189.6530  177.1510  142.3620 C   0  0  0  0  0  0  0  0  0  0  0  0
  190.9000  177.0930  147.6080 O   0  0  0  0  0  0  0  0  0  0  0  0
  190.1670  177.1750  143.7070 C   0  0  0  0  0  0  0  0  0  0  0  0
  188.4000  176.8100  142.3460 N   0  0  0  0  0  0  0  0  0  0  0  0
  187.9290  176.5670  143.7230 C   0  0  1  0  0  3  0  0  0  0  0  0
  189.3640  176.7790  145.9170 C   0  0  0  0  0  3  0  0  0  0  0  0
  191.6280  177.4560  145.4830 N   0  0  0  0  0  2  0  0  0  0  0  0
  191.3990  177.4900  144.1640 N   0  0  0  0  0  0  0  0  0  0  0  0
  189.1550  176.8270  144.5430 C   0  0  0  0  0  0  0  0  0  0  0  0
  190.3980  177.5010  141.1950 N   0  0  0  0  0  2  0  0  0  0  0  0
  190.6490  177.1090  146.3760 C   0  0  0  0  0  0  0  0  0  0  0  0
  186.8280  177.5230  144.0790 C   0  0  0  0  0  0  0  0  0  0  0  0
  185.4130  179.1040  147.1440 N   0  0  0  0  0  1  0  0  0  0  0  0
  185.0430  179.0430  143.4400 C   0  0  0  0  0  3  0  0  0  0  0  0
  186.6180  177.8530  145.4230 C   0  0  0  0  0  3  0  0  0  0  0  0
  184.8350  179.3640  144.7850 C   0  0  0  0  0  3  0  0  0  0  0  0
  185.6230  178.7710  145.7760 C   0  0  0  0  0  0  0  0  0  0  0  0
  186.0390  178.1290  143.0870 C   0  0  0  0  0  3  0  0  0  0  0  0
  189.8130  177.5210  139.8600 C   0  0  0  0  0  2  0  0  0  0  0  0
  190.5620  176.5810  138.9240 C   0  0  0  0  0  2  0  0  0  0  0  0
  189.8750  176.4780  137.5670 C   0  0  0  0  0  2  0  0  0  0  0  0
  188.8320  177.4020  137.4830 O   0  0  0  0  0  0  0  0  0  0  0  0
  187.7970  176.7110  136.8510 C   0  0  0  0  0  2  0  0  0  0  0  0
  186.4800  177.1650  137.3810 C   0  0  0  0  0  0  0  0  0  0  0  0
  184.0600  177.0840  137.3170 C   0  0  0  0  0  3  0  0  0  0  0  0
  185.1380  179.5230  139.8830 O   0  0  0  0  0  1  0  0  0  0  0  0
  183.9950  178.0430  138.3320 C   0  0  0  0  0  0  0  0  0  0  0  0
  185.1800  178.5700  138.8730 C   0  0  0  0  0  0  0  0  0  0  0  0
  186.4180  178.1340  138.3910 C   0  0  0  0  0  3  0  0  0  0  0  0
  182.6630  178.4900  138.8270 C   0  0  0  0  0  1  0  0  0  0  0  0
  185.2980  176.6470  136.8410 C   0  0  0  0  0  3  0  0  0  0  0  0
  1  3  1  0  0  0  0
  3  8  2  0  0  0  0
  3  9  1  0  0  0  0
  4  1  2  0  0  0  0
  4  5  1  0  0  0  0
  5 12  1  1  0  0  0
  5  9  1  0  0  0  0
  6 11  1  0  0  0  0
  7 11  1  0  0  0  0
  8  7  1  0  0  0  0
  9  6  2  0  0  0  0
 10  1  1  0  0  0  0
 11  2  2  0  0  0  0
 12 15  1  0  0  0  0
 14 16  2  0  0  0  0
 15 17  2  0  0  0  0
 16 17  1  0  0  0  0
 17 13  1  0  0  0  0
 18 14  1  0  0  0  0
 18 12  2  0  0  0  0
 19 10  1  0  0  0  0
 20 19  1  0  0  0  0
 21 20  1  0  0  0  0
 22 21  1  0  0  0  0
 23 24  1  0  0  0  0
 23 22  1  0  0  0  0
 24 29  1  0  0  0  0
 25 27  2  0  0  0  0
 27 30  1  0  0  0  0
 27 28  1  0  0  0  0
 28 26  1  0  0  0  0
 29 28  2  0  0  0  0
 31 25  1  0  0  0  0
 31 24  2  0  0  0  0
M  END
>  <MODEL>
4

>  <REMARK>
 VINA RESULT:      -8.1      2.710      7.273
  Name = 
  7 active torsions:
  status: ('A' for Active; 'I' for Inactive)
    1  A    between atoms: C_1  and  C_24
    2  A    between atoms: C_3  and  C_17
    3  A    between atoms: C_13  and  C_15
    4  A    between atoms: C_13  and  N_29
    5  A    between atoms: C_15  and  C_20
    6  A    between atoms: C_20  and  O_23
    7  A    between atoms: O_23  and  C_24
                            x       y       z     vdW  Elec       q    Type
                         _______ _______ _______ _____ _____    ______ ____

>  <TORSDO>
F 7

$$$$
=
 OpenBabel11042412303D

 31 34  0  0  1  0  0  0  0  0999 V2000
  189.6690  177.0370  142.3380 C   0  0  0  0  0  0  0  0  0  0  0  0
  190.8050  177.1620  147.6080 O   0  0  0  0  0  0  0  0  0  0  0  0
  190.1530  177.1160  143.6920 C   0  0  0  0  0  0  0  0  0  0  0  0
  188.4310  176.6500  142.3050 N   0  0  0  0  0  0  0  0  0  0  0  0
  187.9400  176.4270  143.6780 C   0  0  1  0  0  3  0  0  0  0  0  0
  189.3180  176.7480  145.8950 C   0  0  0  0  0  3  0  0  0  0  0  0
  191.5650  177.4960  145.4890 N   0  0  0  0  0  2  0  0  0  0  0  0
  191.3630  177.4880  144.1660 N   0  0  0  0  0  0  0  0  0  0  0  0
  189.1370  176.7530  144.5160 C   0  0  0  0  0  0  0  0  0  0  0  0
  190.4260  177.3840  141.1770 N   0  0  0  0  0  2  0  0  0  0  0  0
  190.5810  177.1370  146.3710 C   0  0  0  0  0  0  0  0  0  0  0  0
  186.7970  177.3500  143.9860 C   0  0  0  0  0  0  0  0  0  0  0  0
  185.3010  179.0090  146.9700 N   0  0  0  0  0  1  0  0  0  0  0  0
  184.9530  178.7610  143.2720 C   0  0  0  0  0  3  0  0  0  0  0  0
  186.5660  177.7330  145.3130 C   0  0  0  0  0  3  0  0  0  0  0  0
  184.7240  179.1350  144.5990 C   0  0  0  0  0  3  0  0  0  0  0  0
  185.5310  178.6230  145.6190 C   0  0  0  0  0  0  0  0  0  0  0  0
  185.9880  177.8750  142.9640 C   0  0  0  0  0  3  0  0  0  0  0  0
  189.8700  177.3470  139.8310 C   0  0  0  0  0  2  0  0  0  0  0  0
  189.0300  178.5890  139.5560 C   0  0  0  0  0  2  0  0  0  0  0  0
  187.8450  178.2730  138.6520 C   0  0  0  0  0  2  0  0  0  0  0  0
  186.6500  178.6300  139.2780 O   0  0  0  0  0  0  0  0  0  0  0  0
  185.6550  178.3050  138.3560 C   0  0  0  0  0  2  0  0  0  0  0  0
  184.3380  178.1900  139.0430 C   0  0  0  0  0  0  0  0  0  0  0  0
  182.5860  179.1890  140.3860 C   0  0  0  0  0  3  0  0  0  0  0  0
  181.7350  175.6550  139.6910 O   0  0  0  0  0  1  0  0  0  0  0  0
  181.8860  177.9800  140.3820 C   0  0  0  0  0  0  0  0  0  0  0  0
  182.4160  176.8660  139.7080 C   0  0  0  0  0  0  0  0  0  0  0  0
  183.6430  176.9740  139.0460 C   0  0  0  0  0  3  0  0  0  0  0  0
  180.5810  177.8920  141.0940 C   0  0  0  0  0  1  0  0  0  0  0  0
  183.8100  179.2950  139.7200 C   0  0  0  0  0  3  0  0  0  0  0  0
  1  3  1  0  0  0  0
  3  8  2  0  0  0  0
  3  9  1  0  0  0  0
  4  1  2  0  0  0  0
  4  5  1  0  0  0  0
  5 12  1  1  0  0  0
  5  9  1  0  0  0  0
  6 11  1  0  0  0  0
  7 11  1  0  0  0  0
  8  7  1  0  0  0  0
  9  6  2  0  0  0  0
 10  1  1  0  0  0  0
 11  2  2  0  0  0  0
 12 15  1  0  0  0  0
 14 16  2  0  0  0  0
 15 17  2  0  0  0  0
 16 17  1  0  0  0  0
 17 13  1  0  0  0  0
 18 14  1  0  0  0  0
 18 12  2  0  0  0  0
 19 10  1  0  0  0  0
 20 19  1  0  0  0  0
 21 22  1  0  0  0  0
 21 20  1  0  0  0  0
 23 24  1  0  0  0  0
 23 22  1  0  0  0  0
 24 29  2  0  0  0  0
 24 31  1  0  0  0  0
 26 28  1  0  0  0  0
 27 25  1  0  0  0  0
 27 30  1  0  0  0  0
 28 27  2  0  0  0  0
 29 28  1  0  0  0  0
 31 25  2  0  0  0  0
M  END
>  <MODEL>
5

>  <REMARK>
 VINA RESULT:      -8.0      2.807      6.848
  Name = 
  7 active torsions:
  status: ('A' for Active; 'I' for Inactive)
    1  A    between atoms: C_1  and  C_24
    2  A    between atoms: C_3  and  C_17
    3  A    between atoms: C_13  and  C_15
    4  A    between atoms: C_13  and  N_29
    5  A    between atoms: C_15  and  C_20
    6  A    between atoms: C_20  and  O_23
    7  A    between atoms: O_23  and  C_24
                            x       y       z     vdW  Elec       q    Type
                         _______ _______ _______ _____ _____    ______ ____

>  <TORSDO>
F 7

$$$$
=
 OpenBabel11042412303D

 31 34  0  0  1  0  0  0  0  0999 V2000
  190.4180  177.1990  139.7520 C   0  0  0  0  0  0  0  0  0  0  0  0
  187.4070  178.5000  135.4720 O   0  0  0  0  0  0  0  0  0  0  0  0
  189.5720  177.7100  138.7050 C   0  0  0  0  0  0  0  0  0  0  0  0
  190.8390  176.0040  139.4730 N   0  0  0  0  0  0  0  0  0  0  0  0
  190.3060  175.5780  138.1650 C   0  0  1  0  0  3  0  0  0  0  0  0
  188.7350  176.9850  136.5930 C   0  0  0  0  0  3  0  0  0  0  0  0
  188.2210  179.1520  137.4950 N   0  0  0  0  0  2  0  0  0  0  0  0
  188.9480  178.9030  138.5910 N   0  0  0  0  0  0  0  0  0  0  0  0
  189.4860  176.7570  137.7410 C   0  0  0  0  0  0  0  0  0  0  0  0
  190.7920  177.9210  140.9270 N   0  0  0  0  0  2  0  0  0  0  0  0
  188.0940  178.2300  136.4900 C   0  0  0  0  0  0  0  0  0  0  0  0
  191.4250  175.3230  137.1970 C   0  0  0  0  0  0  0  0  0  0  0  0
  194.6390  176.9200  136.1930 N   0  0  0  0  0  1  0  0  0  0  0  0
  192.5180  173.9340  135.5310 C   0  0  0  0  0  3  0  0  0  0  0  0
  192.4880  176.2310  137.1270 C   0  0  0  0  0  3  0  0  0  0  0  0
  193.5740  174.8460  135.4620 C   0  0  0  0  0  3  0  0  0  0  0  0
  193.5600  175.9940  136.2600 C   0  0  0  0  0  0  0  0  0  0  0  0
  191.4480  174.1670  136.3980 C   0  0  0  0  0  3  0  0  0  0  0  0
  191.7030  177.3830  141.9290 C   0  0  0  0  0  2  0  0  0  0  0  0
  191.3920  177.9510  143.3080 C   0  0  0  0  0  2  0  0  0  0  0  0
  191.2380  176.8460  144.3460 C   0  0  0  0  0  2  0  0  0  0  0  0
  189.9030  176.4480  144.4330 O   0  0  0  0  0  0  0  0  0  0  0  0
  189.3900  177.1650  145.5150 C   0  0  0  0  0  2  0  0  0  0  0  0
  187.9850  177.5760  145.2360 C   0  0  0  0  0  0  0  0  0  0  0  0
  186.2030  177.9860  143.6470 C   0  0  0  0  0  3  0  0  0  0  0  0
  185.0140  178.7900  147.0590 O   0  0  0  0  0  1  0  0  0  0  0  0
  185.3610  178.3900  144.6870 C   0  0  0  0  0  0  0  0  0  0  0  0
  185.8350  178.3930  146.0100 C   0  0  0  0  0  0  0  0  0  0  0  0
  187.1470  177.9910  146.2790 C   0  0  0  0  0  3  0  0  0  0  0  0
  183.9680  178.8130  144.3730 C   0  0  0  0  0  1  0  0  0  0  0  0
  187.5120  177.5810  143.9200 C   0  0  0  0  0  3  0  0  0  0  0  0
  1 10  1  0  0  0  0
  2 11  2  0  0  0  0
  3  1  1  0  0  0  0
  4  1  2  0  0  0  0
  5 12  1  6  0  0  0
  5  4  1  0  0  0  0
  6  9  2  0  0  0  0
  7  8  1  0  0  0  0
  8  3  2  0  0  0  0
  9  5  1  0  0  0  0
  9  3  1  0  0  0  0
 10 19  1  0  0  0  0
 11  6  1  0  0  0  0
 11  7  1  0  0  0  0
 13 17  1  0  0  0  0
 14 18  1  0  0  0  0
 15 12  1  0  0  0  0
 16 14  2  0  0  0  0
 16 17  1  0  0  0  0
 17 15  2  0  0  0  0
 18 12  2  0  0  0  0
 19 20  1  0  0  0  0
 20 21  1  0  0  0  0
 21 22  1  0  0  0  0
 22 23  1  0  0  0  0
 24 23  1  0  0  0  0
 24 29  1  0  0  0  0
 25 31  1  0  0  0  0
 25 27  2  0  0  0  0
 27 28  1  0  0  0  0
 28 29  2  0  0  0  0
 28 26  1  0  0  0  0
 30 27  1  0  0  0  0
 31 24  2  0  0  0  0
M  END
>  <MODEL>
6

>  <REMARK>
 VINA RESULT:      -8.0      2.808      5.400
  Name = 
  7 active torsions:
  status: ('A' for Active; 'I' for Inactive)
    1  A    between atoms: C_1  and  C_24
    2  A    between atoms: C_3  and  C_17
    3  A    between atoms: C_13  and  C_15
    4  A    between atoms: C_13  and  N_29
    5  A    between atoms: C_15  and  C_20
    6  A    between atoms: C_20  and  O_23
    7  A    between atoms: O_23  and  C_24
                            x       y       z     vdW  Elec       q    Type
                         _______ _______ _______ _____ _____    ______ ____

>  <TORSDO>
F 7

$$$$
=
 OpenBabel11042412303D

 31 34  0  0  1  0  0  0  0  0999 V2000
  187.3880  178.4060  140.6960 C   0  0  0  0  0  0  0  0  0  0  0  0
  192.2620  176.7150  139.1290 O   0  0  0  0  0  0  0  0  0  0  0  0
  188.7340  177.9510  140.4660 C   0  0  0  0  0  0  0  0  0  0  0  0
  186.7710  178.6290  139.5770 N   0  0  0  0  0  0  0  0  0  0  0  0
  187.6680  178.3330  138.4430 C   0  0  1  0  0  3  0  0  0  0  0  0
  190.1500  177.4790  138.6070 C   0  0  0  0  0  3  0  0  0  0  0  0
  190.8810  177.1820  140.8760 N   0  0  0  0  0  2  0  0  0  0  0  0
  189.6970  177.5950  141.3450 N   0  0  0  0  0  0  0  0  0  0  0  0
  188.9300  177.9000  139.1240 C   0  0  0  0  0  0  0  0  0  0  0  0
  186.7820  178.5500  141.9820 N   0  0  0  0  0  2  0  0  0  0  0  0
  191.1400  177.1130  139.5330 C   0  0  0  0  0  0  0  0  0  0  0  0
  187.1030  177.2280  137.5990 C   0  0  0  0  0  0  0  0  0  0  0  0
  184.3010  176.7340  135.1910 N   0  0  0  0  0  1  0  0  0  0  0  0
  187.1930  174.9620  136.7260 C   0  0  0  0  0  3  0  0  0  0  0  0
  185.9720  177.4780  136.8130 C   0  0  0  0  0  3  0  0  0  0  0  0
  186.0610  175.2170  135.9470 C   0  0  0  0  0  3  0  0  0  0  0  0
  185.4510  176.4740  135.9890 C   0  0  0  0  0  0  0  0  0  0  0  0
  187.7170  175.9650  137.5460 C   0  0  0  0  0  3  0  0  0  0  0  0
  185.3920  178.9540  142.1600 C   0  0  0  0  0  2  0  0  0  0  0  0
  184.7680  178.2430  143.3540 C   0  0  0  0  0  2  0  0  0  0  0  0
  184.3980  179.2250  144.4590 C   0  0  0  0  0  2  0  0  0  0  0  0
  185.4870  179.4340  145.3050 O   0  0  0  0  0  0  0  0  0  0  0  0
  185.4860  178.3320  146.1630 C   0  0  0  0  0  2  0  0  0  0  0  0
  186.8840  177.8940  146.4350 C   0  0  0  0  0  0  0  0  0  0  0  0
  188.6840  177.5040  148.0090 C   0  0  0  0  0  3  0  0  0  0  0  0
  189.8640  176.7460  144.5840 O   0  0  0  0  0  1  0  0  0  0  0  0
  189.5250  177.1190  146.9610 C   0  0  0  0  0  0  0  0  0  0  0  0
  189.0440  177.1260  145.6400 C   0  0  0  0  0  0  0  0  0  0  0  0
  187.7270  177.5190  145.3810 C   0  0  0  0  0  3  0  0  0  0  0  0
  190.9230  176.7040  147.2640 C   0  0  0  0  0  1  0  0  0  0  0  0
  187.3670  177.8920  147.7480 C   0  0  0  0  0  3  0  0  0  0  0  0
  1 10  1  0  0  0  0
  2 11  2  0  0  0  0
  3  1  1  0  0  0  0
  3  8  2  0  0  0  0
  4  1  2  0  0  0  0
  5 12  1  6  0  0  0
  5  9  1  0  0  0  0
  5  4  1  0  0  0  0
  6  9  2  0  0  0  0
  6 11  1  0  0  0  0
  7  8  1  0  0  0  0
  9  3  1  0  0  0  0
 10 19  1  0  0  0  0
 11  7  1  0  0  0  0
 13 17  1  0  0  0  0
 14 18  2  0  0  0  0
 15 12  2  0  0  0  0
 16 17  2  0  0  0  0
 16 14  1  0  0  0  0
 17 15  1  0  0  0  0
 18 12  1  0  0  0  0
 19 20  1  0  0  0  0
 20 21  1  0  0  0  0
 21 22  1  0  0  0  0
 22 23  1  0  0  0  0
 23 24  1  0  0  0  0
 24 31  1  0  0  0  0
 26 28  1  0  0  0  0
 27 30  1  0  0  0  0
 27 25  1  0  0  0  0
 28 27  2  0  0  0  0
 29 28  1  0  0  0  0
 29 24  2  0  0  0  0
 31 25  2  0  0  0  0
M  END
>  <MODEL>
7

>  <REMARK>
 VINA RESULT:      -7.9      2.565      4.729
  Name = 
  7 active torsions:
  status: ('A' for Active; 'I' for Inactive)
    1  A    between atoms: C_1  and  C_24
    2  A    between atoms: C_3  and  C_17
    3  A    between atoms: C_13  and  C_15
    4  A    between atoms: C_13  and  N_29
    5  A    between atoms: C_15  and  C_20
    6  A    between atoms: C_20  and  O_23
    7  A    between atoms: O_23  and  C_24
                            x       y       z     vdW  Elec       q    Type
                         _______ _______ _______ _____ _____    ______ ____

>  <TORSDO>
F 7

$$$$
=
 OpenBabel11042412303D

 31 34  0  0  1  0  0  0  0  0999 V2000
  188.6950  177.6070  142.0120 C   0  0  0  0  0  0  0  0  0  0  0  0
  191.9250  177.0950  146.2980 O   0  0  0  0  0  0  0  0  0  0  0  0
  189.6990  177.5340  143.0400 C   0  0  0  0  0  0  0  0  0  0  0  0
  187.5560  177.1520  142.4350 N   0  0  0  0  0  0  0  0  0  0  0  0
  187.6820  176.7160  143.8390 C   0  0  1  0  0  3  0  0  0  0  0  0
  189.8600  176.8220  145.3100 C   0  0  0  0  0  3  0  0  0  0  0  0
  191.7320  177.7570  144.1290 N   0  0  0  0  0  2  0  0  0  0  0  0
  190.9960  177.9140  143.0220 N   0  0  0  0  0  0  0  0  0  0  0  0
  189.1200  177.0010  144.1460 C   0  0  0  0  0  0  0  0  0  0  0  0
  188.8980  178.1530  140.7070 N   0  0  0  0  0  2  0  0  0  0  0  0
  191.2050  177.2220  145.2750 C   0  0  0  0  0  0  0  0  0  0  0  0
  186.7720  177.5170  144.7240 C   0  0  0  0  0  0  0  0  0  0  0  0
  183.6480  179.5240  144.3950 N   0  0  0  0  0  1  0  0  0  0  0  0
  186.1050  178.3180  146.9180 C   0  0  0  0  0  3  0  0  0  0  0  0
  185.6600  178.1560  144.1610 C   0  0  0  0  0  3  0  0  0  0  0  0
  185.0000  178.9580  146.3490 C   0  0  0  0  0  3  0  0  0  0  0  0
  184.7770  178.8760  144.9720 C   0  0  0  0  0  0  0  0  0  0  0  0
  186.9860  177.5960  146.1100 C   0  0  0  0  0  3  0  0  0  0  0  0
  187.8300  178.2630  139.7210 C   0  0  0  0  0  2  0  0  0  0  0  0
  188.3710  178.0690  138.3100 C   0  0  0  0  0  2  0  0  0  0  0  0
  187.6960  176.8960  137.6090 C   0  0  0  0  0  2  0  0  0  0  0  0
  188.6140  175.8660  137.3970 O   0  0  0  0  0  0  0  0  0  0  0  0
  189.6260  176.4460  136.6310 C   0  0  0  0  0  2  0  0  0  0  0  0
  190.9420  175.8390  136.9790 C   0  0  0  0  0  0  0  0  0  0  0  0
  192.4930  173.9840  136.8310 C   0  0  0  0  0  3  0  0  0  0  0  0
  193.9390  176.6230  138.9850 O   0  0  0  0  0  1  0  0  0  0  0  0
  193.3910  174.6610  137.6610 C   0  0  0  0  0  0  0  0  0  0  0  0
  193.0600  175.9330  138.1590 C   0  0  0  0  0  0  0  0  0  0  0  0
  191.8350  176.5150  137.8200 C   0  0  0  0  0  3  0  0  0  0  0  0
  194.6900  174.0190  138.0050 C   0  0  0  0  0  1  0  0  0  0  0  0
  191.2710  174.5700  136.4910 C   0  0  0  0  0  3  0  0  0  0  0  0
  1  4  2  0  0  0  0
  1  3  1  0  0  0  0
  3  9  1  0  0  0  0
  4  5  1  0  0  0  0
  5  9  1  0  0  0  0
  5 12  1  1  0  0  0
  7 11  1  0  0  0  0
  8  3  2  0  0  0  0
  8  7  1  0  0  0  0
  9  6  2  0  0  0  0
 10  1  1  0  0  0  0
 11  6  1  0  0  0  0
 11  2  2  0  0  0  0
 12 18  1  0  0  0  0
 13 17  1  0  0  0  0
 15 12  2  0  0  0  0
 15 17  1  0  0  0  0
 16 14  1  0  0  0  0
 17 16  2  0  0  0  0
 18 14  2  0  0  0  0
 19 10  1  0  0  0  0
 20 19  1  0  0  0  0
 21 20  1  0  0  0  0
 22 21  1  0  0  0  0
 23 24  1  0  0  0  0
 23 22  1  0  0  0  0
 24 29  1  0  0  0  0
 25 27  2  0  0  0  0
 27 30  1  0  0  0  0
 27 28  1  0  0  0  0
 28 26  1  0  0  0  0
 29 28  2  0  0  0  0
 31 25  1  0  0  0  0
 31 24  2  0  0  0  0
M  END
>  <MODEL>
8

>  <REMARK>
 VINA RESULT:      -7.9      2.561      7.607
  Name = 
  7 active torsions:
  status: ('A' for Active; 'I' for Inactive)
    1  A    between atoms: C_1  and  C_24
    2  A    between atoms: C_3  and  C_17
    3  A    between atoms: C_13  and  C_15
    4  A    between atoms: C_13  and  N_29
    5  A    between atoms: C_15  and  C_20
    6  A    between atoms: C_20  and  O_23
    7  A    between atoms: O_23  and  C_24
                            x       y       z     vdW  Elec       q    Type
                         _______ _______ _______ _____ _____    ______ ____

>  <TORSDO>
F 7

$$$$
=
 OpenBabel11042412303D

 31 34  0  0  1  0  0  0  0  0999 V2000
  187.5370  178.3690  140.1680 C   0  0  0  0  0  0  0  0  0  0  0  0
  192.5330  176.6320  139.1230 O   0  0  0  0  0  0  0  0  0  0  0  0
  188.8940  177.8970  140.0810 C   0  0  0  0  0  0  0  0  0  0  0  0
  187.0550  178.6270  138.9910 N   0  0  0  0  0  0  0  0  0  0  0  0
  188.0710  178.3420  137.9600 C   0  0  1  0  0  3  0  0  0  0  0  0
  190.5060  177.4430  138.3840 C   0  0  0  0  0  3  0  0  0  0  0  0
  190.9690  177.0830  140.7130 N   0  0  0  0  0  2  0  0  0  0  0  0
  189.7460  177.5050  141.0550 N   0  0  0  0  0  0  0  0  0  0  0  0
  189.2400  177.8730  138.7690 C   0  0  0  0  0  0  0  0  0  0  0  0
  186.7900  178.4950  141.3800 N   0  0  0  0  0  2  0  0  0  0  0  0
  191.3790  177.0400  139.4070 C   0  0  0  0  0  0  0  0  0  0  0  0
  187.5900  177.2660  137.0310 C   0  0  0  0  0  0  0  0  0  0  0  0
  186.4250  173.7320  137.2490 N   0  0  0  0  0  1  0  0  0  0  0  0
  186.9440  176.5020  134.8170 C   0  0  0  0  0  3  0  0  0  0  0  0
  187.2530  176.0120  137.5540 C   0  0  0  0  0  3  0  0  0  0  0  0
  186.6140  175.2500  135.3450 C   0  0  0  0  0  3  0  0  0  0  0  0
  186.7670  175.0050  136.7120 C   0  0  0  0  0  0  0  0  0  0  0  0
  187.4260  177.5080  135.6570 C   0  0  0  0  0  3  0  0  0  0  0  0
  185.3960  178.9170  141.4090 C   0  0  0  0  0  2  0  0  0  0  0  0
  184.5610  177.9800  142.2720 C   0  0  0  0  0  2  0  0  0  0  0  0
  184.0070  178.6940  143.4990 C   0  0  0  0  0  2  0  0  0  0  0  0
  185.0430  179.2820  144.2250 O   0  0  0  0  0  0  0  0  0  0  0  0
  185.0070  178.6490  145.4690 C   0  0  0  0  0  2  0  0  0  0  0  0
  186.3710  178.1800  145.8430 C   0  0  0  0  0  0  0  0  0  0  0  0
  188.4800  177.1680  145.2140 C   0  0  0  0  0  3  0  0  0  0  0  0
  188.4990  177.8850  148.8450 O   0  0  0  0  0  1  0  0  0  0  0  0
  188.9210  177.2490  146.5380 C   0  0  0  0  0  0  0  0  0  0  0  0
  188.0800  177.7940  147.5230 C   0  0  0  0  0  0  0  0  0  0  0  0
  186.8060  178.2530  147.1730 C   0  0  0  0  0  3  0  0  0  0  0  0
  190.2820  176.7540  146.8830 C   0  0  0  0  0  1  0  0  0  0  0  0
  187.2090  177.6310  144.8670 C   0  0  0  0  0  3  0  0  0  0  0  0
  1 10  1  0  0  0  0
  2 11  2  0  0  0  0
  3  1  1  0  0  0  0
  3  8  2  0  0  0  0
  4  1  2  0  0  0  0
  5 12  1  6  0  0  0
  5  9  1  0  0  0  0
  5  4  1  0  0  0  0
  6  9  2  0  0  0  0
  6 11  1  0  0  0  0
  7  8  1  0  0  0  0
  9  3  1  0  0  0  0
 10 19  1  0  0  0  0
 11  7  1  0  0  0  0
 12 15  1  0  0  0  0
 14 16  2  0  0  0  0
 14 18  1  0  0  0  0
 16 17  1  0  0  0  0
 17 13  1  0  0  0  0
 17 15  2  0  0  0  0
 18 12  2  0  0  0  0
 19 20  1  0  0  0  0
 20 21  1  0  0  0  0
 21 22  1  0  0  0  0
 22 23  1  0  0  0  0
 23 24  1  0  0  0  0
 24 29  1  0  0  0  0
 25 27  2  0  0  0  0
 27 30  1  0  0  0  0
 27 28  1  0  0  0  0
 28 26  1  0  0  0  0
 29 28  2  0  0  0  0
 31 25  1  0  0  0  0
 31 24  2  0  0  0  0
M  END
>  <MODEL>
9

>  <REMARK>
 VINA RESULT:      -7.9      2.362      4.568
  Name = 
  7 active torsions:
  status: ('A' for Active; 'I' for Inactive)
    1  A    between atoms: C_1  and  C_24
    2  A    between atoms: C_3  and  C_17
    3  A    between atoms: C_13  and  C_15
    4  A    between atoms: C_13  and  N_29
    5  A    between atoms: C_15  and  C_20
    6  A    between atoms: C_20  and  O_23
    7  A    between atoms: O_23  and  C_24
                            x       y       z     vdW  Elec       q    Type
                         _______ _______ _______ _____ _____    ______ ____

>  <TORSDO>
F 7

$$$$
