=
 OpenBabel11032419393D

 49 53  0  0  1  0  0  0  0  0999 V2000
  187.4300  174.2560  136.3210 C   0  0  0  0  0  0  0  0  0  0  0  0
  185.1280  174.9230  136.9600 C   0  0  0  0  0  0  0  0  0  0  0  0
  184.1840  175.8490  137.4050 C   0  0  0  0  0  3  0  0  0  0  0  0
  187.0610  173.0080  136.2860 N   0  0  0  0  0  0  0  0  0  0  0  0
  185.7780  172.5430  136.8250 C   0  0  0  0  0  2  0  0  0  0  0  0
  185.9240  177.5020  137.6770 C   0  0  0  0  0  3  0  0  0  0  0  0
  186.4850  175.2870  136.8360 C   0  0  0  0  0  0  0  0  0  0  0  0
  186.8810  176.5940  137.2110 C   0  0  0  0  0  0  0  0  0  0  0  0
  184.5820  177.1380  137.7800 C   0  0  0  0  0  0  0  0  0  0  0  0
  184.6750  173.5600  136.5370 C   0  0  0  0  0  2  0  0  0  0  0  0
  183.5920  178.1700  138.2220 C   0  0  0  0  0  2  0  0  0  0  0  0
  184.0770  178.9360  140.5890 C   0  0  0  0  0  0  0  0  0  0  0  0
  184.9740  179.7230  140.1780 O   0  0  0  0  0  0  0  0  0  0  0  0
  183.3580  178.1130  139.6600 N   0  0  0  0  0  2  0  0  0  0  0  0
  182.5780  178.9350  142.5270 O   0  0  0  0  0  0  0  0  0  0  0  0
  184.7190  178.6880  143.0260 C   0  0  0  0  0  3  0  0  0  0  0  0
  183.9820  178.6680  144.1970 C   0  0  0  0  0  3  0  0  0  0  0  0
  182.6540  178.8270  143.8320 C   0  0  0  0  0  3  0  0  0  0  0  0
  183.7860  178.8550  142.0230 C   0  0  0  0  0  0  0  0  0  0  0  0
  188.3090  177.0420  137.1780 C   0  0  0  0  0  2  0  0  0  0  0  0
  188.6120  179.3960  137.2640 O   0  0  0  0  0  1  0  0  0  0  0  0
  188.5240  178.2580  138.0660 C   0  0  2  0  0  3  0  0  0  0  0  0
  189.8040  178.1090  138.8750 C   0  0  0  0  0  2  0  0  0  0  0  0
  189.6210  177.0890  139.9870 C   0  0  0  0  0  2  0  0  0  0  0  0
  188.5530  177.5430  140.9710 C   0  0  0  0  0  2  0  0  0  0  0  0
  187.5400  178.1150  148.1280 O   0  0  0  0  0  0  0  0  0  0  0  0
  188.8470  176.9750  142.3500 C   0  0  1  0  0  3  0  0  0  0  0  0
  190.9150  177.3730  143.8790 C   0  0  1  0  0  3  0  0  0  0  0  0
  187.8120  177.8740  145.8480 O   0  0  0  0  0  0  0  0  0  0  0  0
  191.1630  178.7360  143.7190 O   0  0  0  0  0  1  0  0  0  0  0  0
  190.4090  176.9630  146.3160 C   0  0  0  0  0  0  0  0  0  0  0  0
  189.9780  177.1620  145.0450 C   0  0  0  0  0  0  0  0  0  0  0  0
  190.3630  176.7940  142.5660 C   0  0  0  0  0  2  0  0  0  0  0  0
  188.4850  177.1920  144.7890 C   0  0  2  0  0  3  0  0  0  0  0  0
  188.1940  177.6260  147.1680 C   0  0  0  0  0  0  0  0  0  0  0  0
  188.1630  177.8050  143.4330 C   0  0  0  0  0  2  0  0  0  0  0  0
  189.4000  176.7710  147.4260 C   0  0  0  0  0  2  0  0  0  0  0  0
  192.3550  175.7960  147.3670 C   0  0  0  0  0  1  0  0  0  0  0  0
  191.7610  176.8960  146.6850 O   0  0  0  0  0  0  0  0  0  0  0  0
  188.6760  174.6350  135.8100 O   0  0  0  0  0  0  0  0  0  0  0  0
  189.8610  173.8710  136.0050 C   0  0  0  0  0  2  0  0  0  0  0  0
  191.0810  174.7300  135.7270 C   0  0  0  0  0  2  0  0  0  0  0  0
  191.3710  174.5560  138.0870 O   0  0  0  0  0  1  0  0  0  0  0  0
  191.5650  175.4080  137.0010 C   0  0  1  0  0  3  0  0  0  0  0  0
  193.0330  175.8200  136.9060 C   0  0  0  0  0  2  0  0  0  0  0  0
  194.4840  173.9780  137.8260 C   0  0  0  0  0  0  0  0  0  0  0  0
  195.1680  173.5060  138.7710 O   0  0  0  0  0  1  0  0  0  0  0  0
  193.8170  175.2310  137.9850 N   0  0  0  0  0  2  0  0  0  0  0  0
  194.3960  173.2750  136.6300 O   0  0  0  0  0  0  0  0  0  0  0  0
  1  7  1  0  0  0  0
  2  3  1  0  0  0  0
  3  9  2  0  0  0  0
  4  1  2  0  0  0  0
  4  5  1  0  0  0  0
  6  9  1  0  0  0  0
  7  2  2  0  0  0  0
  7  8  1  0  0  0  0
  8  6  2  0  0  0  0
  9 11  1  0  0  0  0
 10  5  1  0  0  0  0
 10  2  1  0  0  0  0
 11 14  1  0  0  0  0
 12 19  1  0  0  0  0
 13 12  2  0  0  0  0
 14 12  1  0  0  0  0
 15 18  1  0  0  0  0
 16 17  1  0  0  0  0
 18 17  2  0  0  0  0
 19 15  1  0  0  0  0
 19 16  2  0  0  0  0
 20  8  1  0  0  0  0
 20 22  1  0  0  0  0
 22 21  1  6  0  0  0
 22 23  1  0  0  0  0
 23 24  1  0  0  0  0
 24 25  1  0  0  0  0
 27 25  1  6  0  0  0
 27 33  1  0  0  0  0
 27 36  1  0  0  0  0
 28 30  1  6  0  0  0
 28 32  1  0  0  0  0
 29 35  1  0  0  0  0
 31 39  1  0  0  0  0
 31 37  1  0  0  0  0
 32 31  2  0  0  0  0
 33 28  1  0  0  0  0
 34 36  1  6  0  0  0
 34 32  1  0  0  0  0
 34 29  1  0  0  0  0
 35 37  1  0  0  0  0
 35 26  2  0  0  0  0
 39 38  1  0  0  0  0
 40 41  1  0  0  0  0
 40  1  1  0  0  0  0
 42 41  1  0  0  0  0
 42 44  1  0  0  0  0
 44 43  1  1  0  0  0
 45 44  1  0  0  0  0
 45 48  1  0  0  0  0
 46 48  1  0  0  0  0
 46 47  1  0  0  0  0
 49 46  2  0  0  0  0
M  END
>  <MODEL>
1

>  <REMARK>
 VINA RESULT:      -8.7      0.000      0.000
  Name = 
  16 active torsions:
  status: ('A' for Active; 'I' for Inactive)
    1  A    between atoms: C_1  and  O_14
    2  A    between atoms: C_3  and  C_43
    3  A    between atoms: C_4  and  C_19
    4  A    between atoms: C_4  and  C_45
    5  A    between atoms: C_11  and  C_29
    6  A    between atoms: O_14  and  C_19
    7  A    between atoms: C_17  and  O_27
    8  A    between atoms: C_21  and  C_32
    9  A    between atoms: C_21  and  C_40
   10  A    between atoms: C_29  and  C_32
   11  A    between atoms: C_30  and  C_39
   12  A    between atoms: C_30  and  C_40
   13  A    between atoms: C_35  and  N_41
   14  A    between atoms: C_35  and  C_45
   15  A    between atoms: C_36  and  N_42
   16  A    between atoms: C_36  and  C_47
                            x       y       z     vdW  Elec       q    Type
                         _______ _______ _______ _____ _____    ______ ____

>  <TORSDO>
F 16

$$$$
=
 OpenBabel11032419393D

 49 53  0  0  1  0  0  0  0  0999 V2000
  188.3460  174.7330  136.1510 C   0  0  0  0  0  0  0  0  0  0  0  0
  185.9470  174.8510  136.7680 C   0  0  0  0  0  0  0  0  0  0  0  0
  184.8150  175.5300  137.2200 C   0  0  0  0  0  3  0  0  0  0  0  0
  188.2660  173.4350  136.0800 N   0  0  0  0  0  0  0  0  0  0  0  0
  187.1140  172.6810  136.5860 C   0  0  0  0  0  2  0  0  0  0  0  0
  186.1370  177.5230  137.5590 C   0  0  0  0  0  3  0  0  0  0  0  0
  187.1890  175.5120  136.6750 C   0  0  0  0  0  0  0  0  0  0  0  0
  187.2790  176.8650  137.0870 C   0  0  0  0  0  0  0  0  0  0  0  0
  184.9100  176.8650  137.6320 C   0  0  0  0  0  0  0  0  0  0  0  0
  185.8140  173.4330  136.3050 C   0  0  0  0  0  2  0  0  0  0  0  0
  183.7100  177.6380  138.0820 C   0  0  0  0  0  2  0  0  0  0  0  0
  184.0820  178.7780  140.3150 C   0  0  0  0  0  0  0  0  0  0  0  0
  184.6480  179.7560  139.7500 O   0  0  0  0  0  0  0  0  0  0  0  0
  183.6050  177.6730  139.5360 N   0  0  0  0  0  2  0  0  0  0  0  0
  182.7830  178.6060  142.3850 O   0  0  0  0  0  0  0  0  0  0  0  0
  184.9480  178.9390  142.6890 C   0  0  0  0  0  3  0  0  0  0  0  0
  184.3310  178.8560  143.9240 C   0  0  0  0  0  3  0  0  0  0  0  0
  182.9820  178.6510  143.6800 C   0  0  0  0  0  3  0  0  0  0  0  0
  183.9300  178.7730  141.7720 C   0  0  0  0  0  0  0  0  0  0  0  0
  188.5700  177.6210  137.0870 C   0  0  0  0  0  2  0  0  0  0  0  0
  189.0510  179.5790  138.3420 O   0  0  0  0  0  1  0  0  0  0  0  0
  188.8670  178.2010  138.4610 C   0  0  2  0  0  3  0  0  0  0  0  0
  190.1210  177.5720  139.0480 C   0  0  0  0  0  2  0  0  0  0  0  0
  189.9900  177.4150  140.5540 C   0  0  0  0  0  2  0  0  0  0  0  0
  191.3520  177.4590  141.2280 C   0  0  0  0  0  2  0  0  0  0  0  0
  192.2260  175.3070  148.0970 O   0  0  0  0  0  0  0  0  0  0  0  0
  191.1890  177.7970  142.7010 C   0  0  1  0  0  3  0  0  0  0  0  0
  189.0860  177.5560  144.2140 C   0  0  1  0  0  3  0  0  0  0  0  0
  192.0100  176.0380  145.9170 O   0  0  0  0  0  0  0  0  0  0  0  0
  188.5500  176.3340  143.8100 O   0  0  0  0  0  1  0  0  0  0  0  0
  189.6710  177.3690  146.6610 C   0  0  0  0  0  0  0  0  0  0  0  0
  190.0480  177.3340  145.3580 C   0  0  0  0  0  0  0  0  0  0  0  0
  189.7490  178.2490  143.0130 C   0  0  0  0  0  2  0  0  0  0  0  0
  191.4990  177.0390  145.0370 C   0  0  2  0  0  3  0  0  0  0  0  0
  191.6920  176.1000  147.2760 C   0  0  0  0  0  0  0  0  0  0  0  0
  191.6800  176.6470  143.5770 C   0  0  0  0  0  2  0  0  0  0  0  0
  190.6990  177.1230  147.7430 C   0  0  0  0  0  2  0  0  0  0  0  0
  188.0260  178.0510  148.4170 C   0  0  0  0  0  1  0  0  0  0  0  0
  188.3660  177.6460  147.0940 O   0  0  0  0  0  0  0  0  0  0  0  0
  189.4810  175.3940  135.6690 O   0  0  0  0  0  0  0  0  0  0  0  0
  190.7530  174.7670  135.5490 C   0  0  0  0  0  2  0  0  0  0  0  0
  191.8550  175.7910  135.7500 C   0  0  0  0  0  2  0  0  0  0  0  0
  191.7260  174.7360  137.8840 O   0  0  0  0  0  1  0  0  0  0  0  0
  192.4020  175.7240  137.1680 C   0  0  1  0  0  3  0  0  0  0  0  0
  193.9060  175.4560  137.1880 C   0  0  0  0  0  2  0  0  0  0  0  0
  195.4680  173.8020  138.2700 C   0  0  0  0  0  0  0  0  0  0  0  0
  195.6810  172.6470  138.7210 O   0  0  0  0  0  1  0  0  0  0  0  0
  194.1970  174.1220  137.7010 N   0  0  0  0  0  2  0  0  0  0  0  0
  196.4730  174.7590  138.3430 O   0  0  0  0  0  0  0  0  0  0  0  0
  1  7  1  0  0  0  0
  2  3  1  0  0  0  0
  3  9  2  0  0  0  0
  4  1  2  0  0  0  0
  4  5  1  0  0  0  0
  6  9  1  0  0  0  0
  7  2  2  0  0  0  0
  7  8  1  0  0  0  0
  8 20  1  0  0  0  0
  8  6  2  0  0  0  0
  9 11  1  0  0  0  0
 10  5  1  0  0  0  0
 10  2  1  0  0  0  0
 11 14  1  0  0  0  0
 12 19  1  0  0  0  0
 13 12  2  0  0  0  0
 14 12  1  0  0  0  0
 15 18  1  0  0  0  0
 16 17  1  0  0  0  0
 18 17  2  0  0  0  0
 19 15  1  0  0  0  0
 19 16  2  0  0  0  0
 20 22  1  0  0  0  0
 22 21  1  6  0  0  0
 22 23  1  0  0  0  0
 23 24  1  0  0  0  0
 24 25  1  0  0  0  0
 27 25  1  6  0  0  0
 27 33  1  0  0  0  0
 27 36  1  0  0  0  0
 28 30  1  6  0  0  0
 28 32  1  0  0  0  0
 29 35  1  0  0  0  0
 31 39  1  0  0  0  0
 31 37  1  0  0  0  0
 32 31  2  0  0  0  0
 33 28  1  0  0  0  0
 34 36  1  6  0  0  0
 34 32  1  0  0  0  0
 34 29  1  0  0  0  0
 35 37  1  0  0  0  0
 35 26  2  0  0  0  0
 39 38  1  0  0  0  0
 40  1  1  0  0  0  0
 41 40  1  0  0  0  0
 41 42  1  0  0  0  0
 42 44  1  0  0  0  0
 44 45  1  0  0  0  0
 44 43  1  1  0  0  0
 45 48  1  0  0  0  0
 46 49  2  0  0  0  0
 46 47  1  0  0  0  0
 48 46  1  0  0  0  0
M  END
>  <MODEL>
2

>  <REMARK>
 VINA RESULT:      -8.5      1.102      1.992
  Name = 
  16 active torsions:
  status: ('A' for Active; 'I' for Inactive)
    1  A    between atoms: C_1  and  O_14
    2  A    between atoms: C_3  and  C_43
    3  A    between atoms: C_4  and  C_19
    4  A    between atoms: C_4  and  C_45
    5  A    between atoms: C_11  and  C_29
    6  A    between atoms: O_14  and  C_19
    7  A    between atoms: C_17  and  O_27
    8  A    between atoms: C_21  and  C_32
    9  A    between atoms: C_21  and  C_40
   10  A    between atoms: C_29  and  C_32
   11  A    between atoms: C_30  and  C_39
   12  A    between atoms: C_30  and  C_40
   13  A    between atoms: C_35  and  N_41
   14  A    between atoms: C_35  and  C_45
   15  A    between atoms: C_36  and  N_42
   16  A    between atoms: C_36  and  C_47
                            x       y       z     vdW  Elec       q    Type
                         _______ _______ _______ _____ _____    ______ ____

>  <TORSDO>
F 16

$$$$
=
 OpenBabel11032419393D

 49 53  0  0  1  0  0  0  0  0999 V2000
  186.0910  174.7420  136.2300 C   0  0  0  0  0  0  0  0  0  0  0  0
  184.2160  176.0640  137.1720 C   0  0  0  0  0  0  0  0  0  0  0  0
  183.6950  177.1630  137.8550 C   0  0  0  0  0  3  0  0  0  0  0  0
  185.2790  173.7500  136.0020 N   0  0  0  0  0  0  0  0  0  0  0  0
  183.9220  173.6900  136.5550 C   0  0  0  0  0  2  0  0  0  0  0  0
  185.9320  177.9740  138.2720 C   0  0  0  0  0  3  0  0  0  0  0  0
  185.6090  175.9220  137.0010 C   0  0  0  0  0  0  0  0  0  0  0  0
  186.4720  176.8910  137.5700 C   0  0  0  0  0  0  0  0  0  0  0  0
  184.5520  178.1140  138.4210 C   0  0  0  0  0  0  0  0  0  0  0  0
  183.2790  175.0760  136.5490 C   0  0  0  0  0  2  0  0  0  0  0  0
  184.0280  179.3280  139.1240 C   0  0  0  0  0  2  0  0  0  0  0  0
  183.4640  178.7800  141.5340 C   0  0  0  0  0  0  0  0  0  0  0  0
  182.3330  178.3320  141.1940 O   0  0  0  0  0  0  0  0  0  0  0  0
  184.3560  179.3120  140.5450 N   0  0  0  0  0  2  0  0  0  0  0  0
  185.0720  178.5290  143.3650 O   0  0  0  0  0  0  0  0  0  0  0  0
  183.0120  179.0000  144.0160 C   0  0  0  0  0  3  0  0  0  0  0  0
  183.8190  178.8880  145.1330 C   0  0  0  0  0  3  0  0  0  0  0  0
  185.0920  178.5900  144.6740 C   0  0  0  0  0  3  0  0  0  0  0  0
  183.8530  178.7670  142.9460 C   0  0  0  0  0  0  0  0  0  0  0  0
  187.9630  176.7810  137.4970 C   0  0  0  0  0  2  0  0  0  0  0  0
  189.1130  178.3570  136.1430 O   0  0  0  0  0  1  0  0  0  0  0  0
  188.6120  178.1550  137.4290 C   0  0  2  0  0  3  0  0  0  0  0  0
  189.7480  178.2590  138.4360 C   0  0  0  0  0  2  0  0  0  0  0  0
  189.2970  177.7790  139.8060 C   0  0  0  0  0  2  0  0  0  0  0  0
  190.4600  177.1820  140.5850 C   0  0  0  0  0  2  0  0  0  0  0  0
  192.2940  175.7110  147.4440 O   0  0  0  0  0  0  0  0  0  0  0  0
  190.3680  177.5920  142.0450 C   0  0  1  0  0  3  0  0  0  0  0  0
  188.4800  177.1050  143.7690 C   0  0  1  0  0  3  0  0  0  0  0  0
  191.7630  176.2350  145.2580 O   0  0  0  0  0  0  0  0  0  0  0  0
  188.1350  175.7830  143.4880 O   0  0  0  0  0  1  0  0  0  0  0  0
  189.3000  177.1970  146.1520 C   0  0  0  0  0  0  0  0  0  0  0  0
  189.5620  177.1330  144.8230 C   0  0  0  0  0  0  0  0  0  0  0  0
  188.9030  177.8130  142.4710 C   0  0  0  0  0  2  0  0  0  0  0  0
  191.0090  177.0690  144.3780 C   0  0  2  0  0  3  0  0  0  0  0  0
  191.5590  176.3400  146.6370 C   0  0  0  0  0  0  0  0  0  0  0  0
  191.1290  176.6090  142.9320 C   0  0  0  0  0  2  0  0  0  0  0  0
  190.4450  177.2090  147.1400 C   0  0  0  0  0  2  0  0  0  0  0  0
  187.6520  178.0990  147.8040 C   0  0  0  0  0  1  0  0  0  0  0  0
  188.0090  177.2780  146.6950 O   0  0  0  0  0  0  0  0  0  0  0  0
  187.3830  174.7310  135.6910 O   0  0  0  0  0  0  0  0  0  0  0  0
  188.1480  173.5420  135.5330 C   0  0  0  0  0  2  0  0  0  0  0  0
  188.9950  173.3040  136.7700 C   0  0  0  0  0  2  0  0  0  0  0  0
  190.5850  172.5970  135.1400 O   0  0  0  0  0  1  0  0  0  0  0  0
  190.4660  173.1800  136.4020 C   0  0  1  0  0  3  0  0  0  0  0  0
  191.1770  174.5320  136.4280 C   0  0  0  0  0  2  0  0  0  0  0  0
  193.1120  175.5600  137.6700 C   0  0  0  0  0  0  0  0  0  0  0  0
  194.2320  175.4330  138.2300 O   0  0  0  0  0  1  0  0  0  0  0  0
  192.4840  174.4280  137.0660 N   0  0  0  0  0  2  0  0  0  0  0  0
  192.4930  176.8050  137.6590 O   0  0  0  0  0  0  0  0  0  0  0  0
  1  7  1  0  0  0  0
  2  3  1  0  0  0  0
  3  9  2  0  0  0  0
  4  1  2  0  0  0  0
  4  5  1  0  0  0  0
  6  9  1  0  0  0  0
  7  2  2  0  0  0  0
  7  8  1  0  0  0  0
  8  6  2  0  0  0  0
  9 11  1  0  0  0  0
 10  5  1  0  0  0  0
 10  2  1  0  0  0  0
 11 14  1  0  0  0  0
 12 19  1  0  0  0  0
 13 12  2  0  0  0  0
 14 12  1  0  0  0  0
 15 18  1  0  0  0  0
 16 17  1  0  0  0  0
 18 17  2  0  0  0  0
 19 15  1  0  0  0  0
 19 16  2  0  0  0  0
 20  8  1  0  0  0  0
 22 21  1  6  0  0  0
 22 20  1  0  0  0  0
 22 23  1  0  0  0  0
 23 24  1  0  0  0  0
 24 25  1  0  0  0  0
 27 25  1  6  0  0  0
 27 33  1  0  0  0  0
 27 36  1  0  0  0  0
 28 30  1  6  0  0  0
 28 32  1  0  0  0  0
 29 35  1  0  0  0  0
 31 39  1  0  0  0  0
 31 37  1  0  0  0  0
 32 31  2  0  0  0  0
 33 28  1  0  0  0  0
 34 36  1  6  0  0  0
 34 32  1  0  0  0  0
 34 29  1  0  0  0  0
 35 37  1  0  0  0  0
 35 26  2  0  0  0  0
 39 38  1  0  0  0  0
 40  1  1  0  0  0  0
 41 40  1  0  0  0  0
 41 42  1  0  0  0  0
 44 43  1  6  0  0  0
 44 45  1  0  0  0  0
 44 42  1  0  0  0  0
 45 48  1  0  0  0  0
 46 47  1  0  0  0  0
 48 46  1  0  0  0  0
 49 46  2  0  0  0  0
M  END
>  <MODEL>
3

>  <REMARK>
 VINA RESULT:      -8.2      1.398      2.419
  Name = 
  16 active torsions:
  status: ('A' for Active; 'I' for Inactive)
    1  A    between atoms: C_1  and  O_14
    2  A    between atoms: C_3  and  C_43
    3  A    between atoms: C_4  and  C_19
    4  A    between atoms: C_4  and  C_45
    5  A    between atoms: C_11  and  C_29
    6  A    between atoms: O_14  and  C_19
    7  A    between atoms: C_17  and  O_27
    8  A    between atoms: C_21  and  C_32
    9  A    between atoms: C_21  and  C_40
   10  A    between atoms: C_29  and  C_32
   11  A    between atoms: C_30  and  C_39
   12  A    between atoms: C_30  and  C_40
   13  A    between atoms: C_35  and  N_41
   14  A    between atoms: C_35  and  C_45
   15  A    between atoms: C_36  and  N_42
   16  A    between atoms: C_36  and  C_47
                            x       y       z     vdW  Elec       q    Type
                         _______ _______ _______ _____ _____    ______ ____

>  <TORSDO>
F 16

$$$$
=
 OpenBabel11032419393D

 49 53  0  0  1  0  0  0  0  0999 V2000
  181.6850  178.8220  141.4400 C   0  0  0  0  0  0  0  0  0  0  0  0
  182.1390  178.9160  143.8760 C   0  0  0  0  0  0  0  0  0  0  0  0
  182.9880  178.8590  144.9810 C   0  0  0  0  0  3  0  0  0  0  0  0
  180.4050  178.8040  141.6760 N   0  0  0  0  0  0  0  0  0  0  0  0
  179.8480  178.5820  143.0150 C   0  0  0  0  0  2  0  0  0  0  0  0
  184.8490  178.3280  143.5350 C   0  0  0  0  0  3  0  0  0  0  0  0
  182.6440  178.7110  142.5750 C   0  0  0  0  0  0  0  0  0  0  0  0
  184.0170  178.4040  142.4120 C   0  0  0  0  0  0  0  0  0  0  0  0
  184.3430  178.5500  144.8160 C   0  0  0  0  0  0  0  0  0  0  0  0
  180.7000  179.2790  144.0740 C   0  0  0  0  0  2  0  0  0  0  0  0
  185.2920  178.5210  145.9740 C   0  0  0  0  0  2  0  0  0  0  0  0
  187.7000  177.9090  146.4750 C   0  0  0  0  0  0  0  0  0  0  0  0
  187.4650  177.8920  147.7150 O   0  0  0  0  0  0  0  0  0  0  0  0
  186.6560  178.2360  145.5470 N   0  0  0  0  0  2  0  0  0  0  0  0
  189.9540  176.9750  146.6960 O   0  0  0  0  0  0  0  0  0  0  0  0
  189.5510  177.9390  144.7470 C   0  0  0  0  0  3  0  0  0  0  0  0
  190.8460  177.4520  144.7450 C   0  0  0  0  0  3  0  0  0  0  0  0
  191.0490  176.8620  145.9830 C   0  0  0  0  0  3  0  0  0  0  0  0
  189.0500  177.6070  145.9890 C   0  0  0  0  0  0  0  0  0  0  0  0
  184.6210  178.1030  141.0760 C   0  0  0  0  0  2  0  0  0  0  0  0
  186.0860  178.9780  139.4240 O   0  0  0  0  0  1  0  0  0  0  0  0
  185.8050  179.0130  140.7910 C   0  0  2  0  0  3  0  0  0  0  0  0
  187.0300  178.5570  141.5700 C   0  0  0  0  0  2  0  0  0  0  0  0
  188.2680  178.5790  140.6880 C   0  0  0  0  0  2  0  0  0  0  0  0
  189.2800  177.5390  141.1420 C   0  0  0  0  0  2  0  0  0  0  0  0
  194.7530  176.3680  136.5330 O   0  0  0  0  0  0  0  0  0  0  0  0
  189.7920  176.7590  139.9440 C   0  0  1  0  0  3  0  0  0  0  0  0
  189.4140  177.2120  137.4100 C   0  0  1  0  0  3  0  0  0  0  0  0
  193.0290  176.6750  138.0380 O   0  0  0  0  0  0  0  0  0  0  0  0
  189.5240  178.5990  137.3210 O   0  0  0  0  0  1  0  0  0  0  0  0
  191.2190  176.2020  135.9660 C   0  0  0  0  0  0  0  0  0  0  0  0
  190.7680  176.5810  137.1880 C   0  0  0  0  0  0  0  0  0  0  0  0
  188.8000  176.8300  138.7660 C   0  0  0  0  0  2  0  0  0  0  0  0
  191.6760  176.3770  138.3830 C   0  0  2  0  0  3  0  0  0  0  0  0
  193.5320  176.2290  136.8130 C   0  0  0  0  0  0  0  0  0  0  0  0
  191.2120  177.1910  139.5830 C   0  0  0  0  0  2  0  0  0  0  0  0
  192.5950  175.5880  135.8340 C   0  0  0  0  0  2  0  0  0  0  0  0
  189.1700  175.7770  134.5960 C   0  0  0  0  0  1  0  0  0  0  0  0
  190.4740  176.3200  134.7830 O   0  0  0  0  0  0  0  0  0  0  0  0
  182.1550  179.0180  140.1360 O   0  0  0  0  0  0  0  0  0  0  0  0
  181.3200  178.9350  138.9880 C   0  0  0  0  0  2  0  0  0  0  0  0
  181.5480  180.1400  138.0930 C   0  0  0  0  0  2  0  0  0  0  0  0
  179.1710  180.1150  137.9100 O   0  0  0  0  0  1  0  0  0  0  0  0
  180.3400  180.3850  137.2000 C   0  0  1  0  0  3  0  0  0  0  0  0
  180.3110  181.8130  136.6590 C   0  0  0  0  0  2  0  0  0  0  0  0
  181.5380  183.9910  136.9720 C   0  0  0  0  0  0  0  0  0  0  0  0
  182.2670  184.7330  137.6820 O   0  0  0  0  0  1  0  0  0  0  0  0
  181.1720  182.6920  137.4420 N   0  0  0  0  0  2  0  0  0  0  0  0
  181.0880  184.4530  135.7420 O   0  0  0  0  0  0  0  0  0  0  0  0
  1  4  2  0  0  0  0
  1  7  1  0  0  0  0
  2 10  1  0  0  0  0
  2  3  1  0  0  0  0
  4  5  1  0  0  0  0
  5 10  1  0  0  0  0
  6  9  1  0  0  0  0
  7  2  2  0  0  0  0
  8  7  1  0  0  0  0
  8  6  2  0  0  0  0
  9  3  2  0  0  0  0
  9 11  1  0  0  0  0
 12 13  2  0  0  0  0
 14 11  1  0  0  0  0
 14 12  1  0  0  0  0
 16 19  2  0  0  0  0
 17 16  1  0  0  0  0
 17 18  2  0  0  0  0
 18 15  1  0  0  0  0
 19 12  1  0  0  0  0
 19 15  1  0  0  0  0
 20  8  1  0  0  0  0
 22 21  1  6  0  0  0
 22 20  1  0  0  0  0
 22 23  1  0  0  0  0
 24 25  1  0  0  0  0
 24 23  1  0  0  0  0
 26 35  2  0  0  0  0
 27 25  1  1  0  0  0
 28 30  1  1  0  0  0
 28 33  1  0  0  0  0
 29 34  1  0  0  0  0
 31 32  2  0  0  0  0
 32 28  1  0  0  0  0
 32 34  1  0  0  0  0
 33 27  1  0  0  0  0
 34 36  1  1  0  0  0
 35 29  1  0  0  0  0
 36 27  1  0  0  0  0
 37 31  1  0  0  0  0
 37 35  1  0  0  0  0
 38 39  1  0  0  0  0
 39 31  1  0  0  0  0
 40  1  1  0  0  0  0
 41 40  1  0  0  0  0
 42 41  1  0  0  0  0
 44 43  1  1  0  0  0
 44 42  1  0  0  0  0
 45 44  1  0  0  0  0
 45 48  1  0  0  0  0
 46 48  1  0  0  0  0
 46 47  1  0  0  0  0
 49 46  2  0  0  0  0
M  END
>  <MODEL>
4

>  <REMARK>
 VINA RESULT:      -8.1      3.205      9.547
  Name = 
  16 active torsions:
  status: ('A' for Active; 'I' for Inactive)
    1  A    between atoms: C_1  and  O_14
    2  A    between atoms: C_3  and  C_43
    3  A    between atoms: C_4  and  C_19
    4  A    between atoms: C_4  and  C_45
    5  A    between atoms: C_11  and  C_29
    6  A    between atoms: O_14  and  C_19
    7  A    between atoms: C_17  and  O_27
    8  A    between atoms: C_21  and  C_32
    9  A    between atoms: C_21  and  C_40
   10  A    between atoms: C_29  and  C_32
   11  A    between atoms: C_30  and  C_39
   12  A    between atoms: C_30  and  C_40
   13  A    between atoms: C_35  and  N_41
   14  A    between atoms: C_35  and  C_45
   15  A    between atoms: C_36  and  N_42
   16  A    between atoms: C_36  and  C_47
                            x       y       z     vdW  Elec       q    Type
                         _______ _______ _______ _____ _____    ______ ____

>  <TORSDO>
F 16

$$$$
=
 OpenBabel11032419393D

 49 53  0  0  1  0  0  0  0  0999 V2000
  184.4740  178.7570  145.0920 C   0  0  0  0  0  0  0  0  0  0  0  0
  186.8470  178.1250  145.4360 C   0  0  0  0  0  0  0  0  0  0  0  0
  188.0910  177.6850  144.9820 C   0  0  0  0  0  3  0  0  0  0  0  0
  184.2930  178.7900  146.3810 N   0  0  0  0  0  0  0  0  0  0  0  0
  185.2710  178.2530  147.3340 C   0  0  0  0  0  2  0  0  0  0  0  0
  187.1910  177.4120  142.7570 C   0  0  0  0  0  3  0  0  0  0  0  0
  185.7620  178.2460  144.5440 C   0  0  0  0  0  0  0  0  0  0  0  0
  185.9420  177.8740  143.1890 C   0  0  0  0  0  0  0  0  0  0  0  0
  188.2630  177.3120  143.6440 C   0  0  0  0  0  0  0  0  0  0  0  0
  186.6950  178.5460  146.8650 C   0  0  0  0  0  2  0  0  0  0  0  0
  189.5920  176.8750  143.1120 C   0  0  0  0  0  2  0  0  0  0  0  0
  190.6110  176.9880  140.7940 C   0  0  0  0  0  0  0  0  0  0  0  0
  191.6290  177.5850  141.2420 O   0  0  0  0  0  0  0  0  0  0  0  0
  189.5430  176.6200  141.6780 N   0  0  0  0  0  2  0  0  0  0  0  0
  190.8710  175.5400  138.8350 O   0  0  0  0  0  0  0  0  0  0  0  0
  190.0610  177.5490  138.3860 C   0  0  0  0  0  3  0  0  0  0  0  0
  190.1570  176.8320  137.2070 C   0  0  0  0  0  3  0  0  0  0  0  0
  190.6690  175.5880  137.5400 C   0  0  0  0  0  3  0  0  0  0  0  0
  190.5200  176.6870  139.3630 C   0  0  0  0  0  0  0  0  0  0  0  0
  184.8280  177.9050  142.1910 C   0  0  0  0  0  2  0  0  0  0  0  0
  185.7860  179.9720  141.5190 O   0  0  0  0  0  1  0  0  0  0  0  0
  185.1570  178.8280  141.0270 C   0  0  2  0  0  3  0  0  0  0  0  0
  183.8890  179.2270  140.2870 C   0  0  0  0  0  2  0  0  0  0  0  0
  184.1230  179.2340  138.7850 C   0  0  0  0  0  2  0  0  0  0  0  0
  183.3000  178.1540  138.1000 C   0  0  0  0  0  2  0  0  0  0  0  0
  188.4120  173.8310  135.3150 O   0  0  0  0  0  0  0  0  0  0  0  0
  184.0260  176.8220  138.1810 C   0  0  1  0  0  3  0  0  0  0  0  0
  183.3210  174.5100  137.2180 C   0  0  1  0  0  3  0  0  0  0  0  0
  186.8320  175.2250  136.2600 O   0  0  0  0  0  0  0  0  0  0  0  0
  182.7990  174.8390  135.9670 O   0  0  0  0  0  1  0  0  0  0  0  0
  185.2890  172.9750  136.8500 C   0  0  0  0  0  0  0  0  0  0  0  0
  184.7980  174.2170  137.0890 C   0  0  0  0  0  0  0  0  0  0  0  0
  183.0310  175.6450  138.2120 C   0  0  0  0  0  2  0  0  0  0  0  0
  185.7780  175.3650  137.2130 C   0  0  2  0  0  3  0  0  0  0  0  0
  187.4000  173.9650  136.0550 C   0  0  0  0  0  0  0  0  0  0  0  0
  185.0800  176.7120  137.0820 C   0  0  0  0  0  2  0  0  0  0  0  0
  186.7830  172.7730  136.7230 C   0  0  0  0  0  2  0  0  0  0  0  0
  183.6910  171.5160  135.5940 C   0  0  0  0  0  1  0  0  0  0  0  0
  184.4940  171.8250  136.7300 O   0  0  0  0  0  0  0  0  0  0  0  0
  183.4940  179.2660  144.2320 O   0  0  0  0  0  0  0  0  0  0  0  0
  182.1270  178.8770  144.2960 C   0  0  0  0  0  2  0  0  0  0  0  0
  181.4980  178.9690  142.9170 C   0  0  0  0  0  2  0  0  0  0  0  0
  180.0450  180.8530  142.7660 O   0  0  0  0  0  1  0  0  0  0  0  0
  180.0680  179.4800  143.0090 C   0  0  1  0  0  3  0  0  0  0  0  0
  179.1390  178.7550  142.0370 C   0  0  0  0  0  2  0  0  0  0  0  0
  179.3380  176.5310  140.8730 C   0  0  0  0  0  0  0  0  0  0  0  0
  179.5560  175.2930  140.9300 O   0  0  0  0  0  1  0  0  0  0  0  0
  179.3640  177.3150  142.0670 N   0  0  0  0  0  2  0  0  0  0  0  0
  179.0860  177.1230  139.6410 O   0  0  0  0  0  0  0  0  0  0  0  0
  1  4  2  0  0  0  0
  2 10  1  0  0  0  0
  3  2  1  0  0  0  0
  4  5  1  0  0  0  0
  6  8  2  0  0  0  0
  6  9  1  0  0  0  0
  7  1  1  0  0  0  0
  7  2  2  0  0  0  0
  8  7  1  0  0  0  0
  9  3  2  0  0  0  0
 10  5  1  0  0  0  0
 11  9  1  0  0  0  0
 12 13  2  0  0  0  0
 12 14  1  0  0  0  0
 14 11  1  0  0  0  0
 15 19  1  0  0  0  0
 16 19  2  0  0  0  0
 17 18  2  0  0  0  0
 17 16  1  0  0  0  0
 18 15  1  0  0  0  0
 19 12  1  0  0  0  0
 20  8  1  0  0  0  0
 22 21  1  1  0  0  0
 22 20  1  0  0  0  0
 23 22  1  0  0  0  0
 24 23  1  0  0  0  0
 25 24  1  0  0  0  0
 26 35  2  0  0  0  0
 27 25  1  6  0  0  0
 27 33  1  0  0  0  0
 28 30  1  6  0  0  0
 28 33  1  0  0  0  0
 29 34  1  0  0  0  0
 31 32  2  0  0  0  0
 32 34  1  0  0  0  0
 32 28  1  0  0  0  0
 34 36  1  6  0  0  0
 35 29  1  0  0  0  0
 35 37  1  0  0  0  0
 36 27  1  0  0  0  0
 37 31  1  0  0  0  0
 38 39  1  0  0  0  0
 39 31  1  0  0  0  0
 40 41  1  0  0  0  0
 40  1  1  0  0  0  0
 42 44  1  0  0  0  0
 42 41  1  0  0  0  0
 44 43  1  6  0  0  0
 45 48  1  0  0  0  0
 45 44  1  0  0  0  0
 46 47  1  0  0  0  0
 46 48  1  0  0  0  0
 49 46  2  0  0  0  0
M  END
>  <MODEL>
5

>  <REMARK>
 VINA RESULT:      -7.9      2.826     10.484
  Name = 
  16 active torsions:
  status: ('A' for Active; 'I' for Inactive)
    1  A    between atoms: C_1  and  O_14
    2  A    between atoms: C_3  and  C_43
    3  A    between atoms: C_4  and  C_19
    4  A    between atoms: C_4  and  C_45
    5  A    between atoms: C_11  and  C_29
    6  A    between atoms: O_14  and  C_19
    7  A    between atoms: C_17  and  O_27
    8  A    between atoms: C_21  and  C_32
    9  A    between atoms: C_21  and  C_40
   10  A    between atoms: C_29  and  C_32
   11  A    between atoms: C_30  and  C_39
   12  A    between atoms: C_30  and  C_40
   13  A    between atoms: C_35  and  N_41
   14  A    between atoms: C_35  and  C_45
   15  A    between atoms: C_36  and  N_42
   16  A    between atoms: C_36  and  C_47
                            x       y       z     vdW  Elec       q    Type
                         _______ _______ _______ _____ _____    ______ ____

>  <TORSDO>
F 16

$$$$
=
 OpenBabel11032419393D

 49 53  0  0  1  0  0  0  0  0999 V2000
  185.1820  175.2520  137.2740 C   0  0  0  0  0  0  0  0  0  0  0  0
  182.7590  174.7410  137.4230 C   0  0  0  0  0  0  0  0  0  0  0  0
  181.4420  175.0660  137.7480 C   0  0  0  0  0  3  0  0  0  0  0  0
  185.4280  174.0070  136.9830 N   0  0  0  0  0  0  0  0  0  0  0  0
  184.4280  172.9430  137.1290 C   0  0  0  0  0  2  0  0  0  0  0  0
  182.1780  177.1810  138.6520 C   0  0  0  0  0  3  0  0  0  0  0  0
  183.8050  175.6520  137.6800 C   0  0  0  0  0  0  0  0  0  0  0  0
  183.5030  176.8830  138.3120 C   0  0  0  0  0  0  0  0  0  0  0  0
  181.1490  176.2810  138.3780 C   0  0  0  0  0  0  0  0  0  0  0  0
  183.0450  173.4490  136.7230 C   0  0  0  0  0  2  0  0  0  0  0  0
  179.7440  176.6810  138.7040 C   0  0  0  0  0  2  0  0  0  0  0  0
  179.4850  177.2290  141.1650 C   0  0  0  0  0  0  0  0  0  0  0  0
  179.2990  176.0120  141.4430 O   0  0  0  0  0  0  0  0  0  0  0  0
  179.6950  177.6350  139.8060 N   0  0  0  0  0  2  0  0  0  0  0  0
  179.3820  177.9290  143.5110 O   0  0  0  0  0  0  0  0  0  0  0  0
  179.5400  179.5960  142.0660 C   0  0  0  0  0  3  0  0  0  0  0  0
  179.4940  180.1180  143.3450 C   0  0  0  0  0  3  0  0  0  0  0  0
  179.3930  179.0390  144.2100 C   0  0  0  0  0  3  0  0  0  0  0  0
  179.4680  178.2280  142.2380 C   0  0  0  0  0  0  0  0  0  0  0  0
  184.5580  177.8760  138.6850 C   0  0  0  0  0  2  0  0  0  0  0  0
  184.6160  180.0450  139.6520 O   0  0  0  0  0  1  0  0  0  0  0  0
  184.1000  178.7610  139.8340 C   0  0  2  0  0  3  0  0  0  0  0  0
  184.5860  178.2040  141.1640 C   0  0  0  0  0  2  0  0  0  0  0  0
  185.7430  179.0310  141.7020 C   0  0  0  0  0  2  0  0  0  0  0  0
  187.0780  178.3850  141.3650 C   0  0  0  0  0  2  0  0  0  0  0  0
  187.6380  178.0990  148.5880 O   0  0  0  0  0  0  0  0  0  0  0  0
  187.6060  177.6310  142.5730 C   0  0  1  0  0  3  0  0  0  0  0  0
  189.9740  177.7140  143.6490 C   0  0  1  0  0  3  0  0  0  0  0  0
  187.4050  178.1350  146.2910 O   0  0  0  0  0  0  0  0  0  0  0  0
  190.2950  179.0700  143.5930 O   0  0  0  0  0  1  0  0  0  0  0  0
  189.9580  177.0260  146.0760 C   0  0  0  0  0  0  0  0  0  0  0  0
  189.2880  177.4090  144.9600 C   0  0  0  0  0  0  0  0  0  0  0  0
  189.1130  177.3380  142.4330 C   0  0  0  0  0  2  0  0  0  0  0  0
  187.7830  177.5560  145.0420 C   0  0  2  0  0  3  0  0  0  0  0  0
  188.0340  177.7000  147.4600 C   0  0  0  0  0  0  0  0  0  0  0  0
  187.2350  178.3540  143.8660 C   0  0  0  0  0  2  0  0  0  0  0  0
  189.1920  176.7520  147.3510 C   0  0  0  0  0  2  0  0  0  0  0  0
  192.0030  175.9570  147.0410 C   0  0  0  0  0  1  0  0  0  0  0  0
  191.3470  176.8370  146.1320 O   0  0  0  0  0  0  0  0  0  0  0  0
  186.1850  176.2180  137.1340 O   0  0  0  0  0  0  0  0  0  0  0  0
  186.9710  176.3560  135.9560 C   0  0  0  0  0  2  0  0  0  0  0  0
  187.2040  177.8270  135.6600 C   0  0  0  0  0  2  0  0  0  0  0  0
  187.9920  178.8880  137.6450 O   0  0  0  0  0  1  0  0  0  0  0  0
  188.4100  178.3480  136.4290 C   0  0  1  0  0  3  0  0  0  0  0  0
  189.4510  177.2550  136.6660 C   0  0  0  0  0  2  0  0  0  0  0  0
  190.4820  176.0890  138.6470 C   0  0  0  0  0  0  0  0  0  0  0  0
  190.8860  176.1280  139.8380 O   0  0  0  0  0  1  0  0  0  0  0  0
  189.9090  177.2540  138.0510 N   0  0  0  0  0  2  0  0  0  0  0  0
  190.6120  174.9120  137.9200 O   0  0  0  0  0  0  0  0  0  0  0  0
  1  7  1  0  0  0  0
  2  7  2  0  0  0  0
  2  3  1  0  0  0  0
  3  9  2  0  0  0  0
  4  5  1  0  0  0  0
  4  1  2  0  0  0  0
  7  8  1  0  0  0  0
  8  6  2  0  0  0  0
  8 20  1  0  0  0  0
  9  6  1  0  0  0  0
  9 11  1  0  0  0  0
 10  5  1  0  0  0  0
 10  2  1  0  0  0  0
 11 14  1  0  0  0  0
 12 13  2  0  0  0  0
 12 19  1  0  0  0  0
 14 12  1  0  0  0  0
 15 18  1  0  0  0  0
 16 19  2  0  0  0  0
 16 17  1  0  0  0  0
 17 18  2  0  0  0  0
 19 15  1  0  0  0  0
 20 22  1  0  0  0  0
 22 21  1  6  0  0  0
 22 23  1  0  0  0  0
 23 24  1  0  0  0  0
 25 24  1  0  0  0  0
 27 25  1  6  0  0  0
 27 36  1  0  0  0  0
 28 30  1  1  0  0  0
 28 32  1  0  0  0  0
 29 35  1  0  0  0  0
 31 39  1  0  0  0  0
 31 37  1  0  0  0  0
 32 34  1  0  0  0  0
 32 31  2  0  0  0  0
 33 27  1  0  0  0  0
 33 28  1  0  0  0  0
 34 36  1  6  0  0  0
 34 29  1  0  0  0  0
 35 26  2  0  0  0  0
 37 35  1  0  0  0  0
 39 38  1  0  0  0  0
 40  1  1  0  0  0  0
 41 40  1  0  0  0  0
 42 41  1  0  0  0  0
 42 44  1  0  0  0  0
 44 45  1  0  0  0  0
 44 43  1  1  0  0  0
 45 48  1  0  0  0  0
 46 47  1  0  0  0  0
 48 46  1  0  0  0  0
 49 46  2  0  0  0  0
M  END
>  <MODEL>
6

>  <REMARK>
 VINA RESULT:      -7.9      2.183      3.511
  Name = 
  16 active torsions:
  status: ('A' for Active; 'I' for Inactive)
    1  A    between atoms: C_1  and  O_14
    2  A    between atoms: C_3  and  C_43
    3  A    between atoms: C_4  and  C_19
    4  A    between atoms: C_4  and  C_45
    5  A    between atoms: C_11  and  C_29
    6  A    between atoms: O_14  and  C_19
    7  A    between atoms: C_17  and  O_27
    8  A    between atoms: C_21  and  C_32
    9  A    between atoms: C_21  and  C_40
   10  A    between atoms: C_29  and  C_32
   11  A    between atoms: C_30  and  C_39
   12  A    between atoms: C_30  and  C_40
   13  A    between atoms: C_35  and  N_41
   14  A    between atoms: C_35  and  C_45
   15  A    between atoms: C_36  and  N_42
   16  A    between atoms: C_36  and  C_47
                            x       y       z     vdW  Elec       q    Type
                         _______ _______ _______ _____ _____    ______ ____

>  <TORSDO>
F 16

$$$$
=
 OpenBabel11032419393D

 49 53  0  0  1  0  0  0  0  0999 V2000
  184.4420  177.0010  136.8460 C   0  0  0  0  0  0  0  0  0  0  0  0
  182.2440  177.9480  136.1970 C   0  0  0  0  0  0  0  0  0  0  0  0
  181.0400  178.5930  136.4800 C   0  0  0  0  0  3  0  0  0  0  0  0
  184.5570  176.4540  135.6700 N   0  0  0  0  0  0  0  0  0  0  0  0
  183.4410  176.3680  134.7210 C   0  0  0  0  0  2  0  0  0  0  0  0
  181.5990  178.6200  138.8300 C   0  0  0  0  0  3  0  0  0  0  0  0
  183.1610  177.6590  137.2280 C   0  0  0  0  0  0  0  0  0  0  0  0
  182.8220  177.9940  138.5620 C   0  0  0  0  0  0  0  0  0  0  0  0
  180.7060  178.9170  137.8000 C   0  0  0  0  0  0  0  0  0  0  0  0
  182.5930  177.6380  134.7740 C   0  0  0  0  0  2  0  0  0  0  0  0
  179.4430  179.6460  138.1370 C   0  0  0  0  0  2  0  0  0  0  0  0
  180.2580  182.0400  137.9700 C   0  0  0  0  0  0  0  0  0  0  0  0
  181.0540  181.8640  138.9340 O   0  0  0  0  0  0  0  0  0  0  0  0
  179.4070  180.9720  137.5320 N   0  0  0  0  0  2  0  0  0  0  0  0
  181.2530  184.0070  136.9000 O   0  0  0  0  0  0  0  0  0  0  0  0
  179.0460  184.0580  137.0340 C   0  0  0  0  0  3  0  0  0  0  0  0
  179.4820  185.2130  136.4120 C   0  0  0  0  0  3  0  0  0  0  0  0
  180.8640  185.1340  136.3550 C   0  0  0  0  0  3  0  0  0  0  0  0
  180.1970  183.3480  137.3110 C   0  0  0  0  0  0  0  0  0  0  0  0
  183.7030  177.6620  139.7250 C   0  0  0  0  0  2  0  0  0  0  0  0
  184.8160  179.7450  139.9780 O   0  0  0  0  0  1  0  0  0  0  0  0
  183.9260  178.8760  140.6120 C   0  0  2  0  0  3  0  0  0  0  0  0
  184.4990  178.4580  141.9580 C   0  0  0  0  0  2  0  0  0  0  0  0
  185.8820  179.0550  142.1620 C   0  0  0  0  0  2  0  0  0  0  0  0
  186.9670  178.0770  141.7390 C   0  0  0  0  0  2  0  0  0  0  0  0
  187.9380  178.2420  148.9230 O   0  0  0  0  0  0  0  0  0  0  0  0
  187.5470  177.3890  142.9630 C   0  0  1  0  0  3  0  0  0  0  0  0
  189.9740  177.4780  143.8970 C   0  0  1  0  0  3  0  0  0  0  0  0
  187.5730  178.1360  146.6450 O   0  0  0  0  0  0  0  0  0  0  0  0
  190.3220  178.8180  143.7330 O   0  0  0  0  0  1  0  0  0  0  0  0
  190.0830  176.9490  146.3610 C   0  0  0  0  0  0  0  0  0  0  0  0
  189.3590  177.2770  145.2610 C   0  0  0  0  0  0  0  0  0  0  0  0
  189.0360  177.0470  142.7580 C   0  0  0  0  0  2  0  0  0  0  0  0
  187.8640  177.4680  145.4170 C   0  0  2  0  0  3  0  0  0  0  0  0
  188.2580  177.7600  147.8030 C   0  0  0  0  0  0  0  0  0  0  0  0
  187.2680  178.2030  144.2250 C   0  0  0  0  0  2  0  0  0  0  0  0
  189.3860  176.7780  147.6920 C   0  0  0  0  0  2  0  0  0  0  0  0
  192.1400  175.7970  147.1960 C   0  0  0  0  0  1  0  0  0  0  0  0
  191.4680  176.7270  146.3510 O   0  0  0  0  0  0  0  0  0  0  0  0
  185.5390  177.0340  137.7150 O   0  0  0  0  0  0  0  0  0  0  0  0
  186.7590  177.6940  137.4020 C   0  0  0  0  0  2  0  0  0  0  0  0
  187.9080  177.0420  138.1500 C   0  0  0  0  0  2  0  0  0  0  0  0
  188.7920  179.2250  138.5240 O   0  0  0  0  0  1  0  0  0  0  0  0
  189.1410  177.9340  138.1290 C   0  0  1  0  0  3  0  0  0  0  0  0
  190.2540  177.3900  139.0220 C   0  0  0  0  0  2  0  0  0  0  0  0
  191.3310  175.4780  137.7850 C   0  0  0  0  0  0  0  0  0  0  0  0
  191.4980  174.2400  137.6370 O   0  0  0  0  0  1  0  0  0  0  0  0
  190.4560  175.9620  138.8050 N   0  0  0  0  0  2  0  0  0  0  0  0
  192.0150  176.3630  136.9590 O   0  0  0  0  0  0  0  0  0  0  0  0
  1  7  1  0  0  0  0
  1 40  1  0  0  0  0
  2  3  2  0  0  0  0
  2  7  1  0  0  0  0
  3  9  1  0  0  0  0
  4  1  2  0  0  0  0
  5 10  1  0  0  0  0
  5  4  1  0  0  0  0
  7  8  2  0  0  0  0
  8  6  1  0  0  0  0
  8 20  1  0  0  0  0
  9 11  1  0  0  0  0
  9  6  2  0  0  0  0
 10  2  1  0  0  0  0
 12 13  2  0  0  0  0
 14 12  1  0  0  0  0
 14 11  1  0  0  0  0
 15 19  1  0  0  0  0
 16 19  2  0  0  0  0
 17 16  1  0  0  0  0
 18 17  2  0  0  0  0
 18 15  1  0  0  0  0
 19 12  1  0  0  0  0
 20 22  1  0  0  0  0
 22 21  1  6  0  0  0
 22 23  1  0  0  0  0
 23 24  1  0  0  0  0
 25 24  1  0  0  0  0
 27 25  1  6  0  0  0
 27 36  1  0  0  0  0
 28 30  1  6  0  0  0
 28 32  1  0  0  0  0
 29 35  1  0  0  0  0
 31 37  1  0  0  0  0
 32 34  1  0  0  0  0
 32 31  2  0  0  0  0
 33 27  1  0  0  0  0
 33 28  1  0  0  0  0
 34 36  1  6  0  0  0
 34 29  1  0  0  0  0
 35 26  2  0  0  0  0
 37 35  1  0  0  0  0
 39 31  1  0  0  0  0
 39 38  1  0  0  0  0
 41 40  1  0  0  0  0
 41 42  1  0  0  0  0
 44 42  1  0  0  0  0
 44 43  1  1  0  0  0
 44 45  1  0  0  0  0
 46 48  1  0  0  0  0
 47 46  1  0  0  0  0
 48 45  1  0  0  0  0
 49 46  2  0  0  0  0
M  END
>  <MODEL>
7

>  <REMARK>
 VINA RESULT:      -7.8      3.158      4.657
  Name = 
  16 active torsions:
  status: ('A' for Active; 'I' for Inactive)
    1  A    between atoms: C_1  and  O_14
    2  A    between atoms: C_3  and  C_43
    3  A    between atoms: C_4  and  C_19
    4  A    between atoms: C_4  and  C_45
    5  A    between atoms: C_11  and  C_29
    6  A    between atoms: O_14  and  C_19
    7  A    between atoms: C_17  and  O_27
    8  A    between atoms: C_21  and  C_32
    9  A    between atoms: C_21  and  C_40
   10  A    between atoms: C_29  and  C_32
   11  A    between atoms: C_30  and  C_39
   12  A    between atoms: C_30  and  C_40
   13  A    between atoms: C_35  and  N_41
   14  A    between atoms: C_35  and  C_45
   15  A    between atoms: C_36  and  N_42
   16  A    between atoms: C_36  and  C_47
                            x       y       z     vdW  Elec       q    Type
                         _______ _______ _______ _____ _____    ______ ____

>  <TORSDO>
F 16

$$$$
=
 OpenBabel11032419393D

 49 53  0  0  1  0  0  0  0  0999 V2000
  185.5900  178.1070  144.6830 C   0  0  0  0  0  0  0  0  0  0  0  0
  184.0550  178.6770  142.8220 C   0  0  0  0  0  0  0  0  0  0  0  0
  183.7740  178.9250  141.4780 C   0  0  0  0  0  3  0  0  0  0  0  0
  184.6600  178.4020  145.5440 N   0  0  0  0  0  0  0  0  0  0  0  0
  183.4270  179.1050  145.1720 C   0  0  0  0  0  2  0  0  0  0  0  0
  186.1170  178.6880  140.9370 C   0  0  0  0  0  3  0  0  0  0  0  0
  185.3730  178.3970  143.2380 C   0  0  0  0  0  0  0  0  0  0  0  0
  186.4140  178.4140  142.2770 C   0  0  0  0  0  0  0  0  0  0  0  0
  184.8070  178.9470  140.5330 C   0  0  0  0  0  0  0  0  0  0  0  0
  182.9290  178.6300  143.8080 C   0  0  0  0  0  2  0  0  0  0  0  0
  184.5390  179.1680  139.0770 C   0  0  0  0  0  2  0  0  0  0  0  0
  185.6740  177.5860  137.4540 C   0  0  0  0  0  0  0  0  0  0  0  0
  184.6770  176.8130  137.4710 O   0  0  0  0  0  0  0  0  0  0  0  0
  185.6770  178.7780  138.2530 N   0  0  0  0  0  2  0  0  0  0  0  0
  187.7760  178.1100  136.3090 O   0  0  0  0  0  0  0  0  0  0  0  0
  187.1020  176.0170  136.0710 C   0  0  0  0  0  3  0  0  0  0  0  0
  188.2920  176.1830  135.3870 C   0  0  0  0  0  3  0  0  0  0  0  0
  188.6690  177.5050  135.5640 C   0  0  0  0  0  3  0  0  0  0  0  0
  186.8360  177.2530  136.6250 C   0  0  0  0  0  0  0  0  0  0  0  0
  187.8490  178.1970  142.6430 C   0  0  0  0  0  2  0  0  0  0  0  0
  189.3200  176.3400  142.4830 O   0  0  0  0  0  1  0  0  0  0  0  0
  188.5020  177.1770  141.7230 C   0  0  2  0  0  3  0  0  0  0  0  0
  189.3390  177.8750  140.6610 C   0  0  0  0  0  2  0  0  0  0  0  0
  190.5070  176.9990  140.2370 C   0  0  0  0  0  2  0  0  0  0  0  0
  190.4950  176.7630  138.7350 C   0  0  0  0  0  2  0  0  0  0  0  0
  197.2050  175.1290  136.5280 O   0  0  0  0  0  0  0  0  0  0  0  0
  191.4880  175.6710  138.3760 C   0  0  1  0  0  3  0  0  0  0  0  0
  191.7920  174.4090  136.1200 C   0  0  1  0  0  3  0  0  0  0  0  0
  195.0880  175.6290  137.3030 O   0  0  0  0  0  0  0  0  0  0  0  0
  191.6350  175.4210  135.1730 O   0  0  0  0  0  1  0  0  0  0  0  0
  194.1110  173.4540  135.8510 C   0  0  0  0  0  0  0  0  0  0  0  0
  193.2500  174.2840  136.4920 C   0  0  0  0  0  0  0  0  0  0  0  0
  190.8960  174.6990  137.3350 C   0  0  0  0  0  2  0  0  0  0  0  0
  193.7860  175.1390  137.6220 C   0  0  2  0  0  3  0  0  0  0  0  0
  196.0120  174.7660  136.7080 C   0  0  0  0  0  0  0  0  0  0  0  0
  192.8300  176.2740  137.9660 C   0  0  0  0  0  2  0  0  0  0  0  0
  195.5600  173.4010  136.2820 C   0  0  0  0  0  2  0  0  0  0  0  0
  193.0300  171.3770  134.9720 C   0  0  0  0  0  1  0  0  0  0  0  0
  193.7420  172.5990  134.8010 O   0  0  0  0  0  0  0  0  0  0  0  0
  186.7550  177.4540  145.1030 O   0  0  0  0  0  0  0  0  0  0  0  0
  187.2480  177.5250  146.4360 C   0  0  0  0  0  2  0  0  0  0  0  0
  188.7420  177.7910  146.4220 C   0  0  0  0  0  2  0  0  0  0  0  0
  188.1950  178.0900  148.7230 O   0  0  0  0  0  1  0  0  0  0  0  0
  189.2230  178.2420  147.7930 C   0  0  1  0  0  3  0  0  0  0  0  0
  190.4630  177.4720  148.2450 C   0  0  0  0  0  2  0  0  0  0  0  0
  192.1290  175.8130  147.3410 C   0  0  0  0  0  0  0  0  0  0  0  0
  192.4600  174.9820  146.4560 O   0  0  0  0  0  0  0  0  0  0  0  0
  190.8920  176.5190  147.2290 N   0  0  0  0  0  2  0  0  0  0  0  0
  192.9690  176.0240  148.4280 O   0  0  0  0  0  1  0  0  0  0  0  0
  1 40  1  0  0  0  0
  1  4  2  0  0  0  0
  2  7  1  0  0  0  0
  2 10  1  0  0  0  0
  3  2  2  0  0  0  0
  5  4  1  0  0  0  0
  6  8  1  0  0  0  0
  7  1  1  0  0  0  0
  8 20  1  0  0  0  0
  8  7  2  0  0  0  0
  9  6  2  0  0  0  0
  9  3  1  0  0  0  0
 10  5  1  0  0  0  0
 11  9  1  0  0  0  0
 12 13  2  0  0  0  0
 12 14  1  0  0  0  0
 14 11  1  0  0  0  0
 15 19  1  0  0  0  0
 16 19  2  0  0  0  0
 17 18  2  0  0  0  0
 17 16  1  0  0  0  0
 18 15  1  0  0  0  0
 19 12  1  0  0  0  0
 22 21  1  1  0  0  0
 22 20  1  0  0  0  0
 23 22  1  0  0  0  0
 24 23  1  0  0  0  0
 25 24  1  0  0  0  0
 26 35  2  0  0  0  0
 27 25  1  6  0  0  0
 28 30  1  6  0  0  0
 28 32  1  0  0  0  0
 28 33  1  0  0  0  0
 29 34  1  0  0  0  0
 31 37  1  0  0  0  0
 31 32  2  0  0  0  0
 32 34  1  0  0  0  0
 33 27  1  0  0  0  0
 34 36  1  6  0  0  0
 35 29  1  0  0  0  0
 36 27  1  0  0  0  0
 37 35  1  0  0  0  0
 39 38  1  0  0  0  0
 39 31  1  0  0  0  0
 40 41  1  0  0  0  0
 42 41  1  0  0  0  0
 42 44  1  0  0  0  0
 44 45  1  0  0  0  0
 44 43  1  1  0  0  0
 46 49  1  0  0  0  0
 47 46  2  0  0  0  0
 48 46  1  0  0  0  0
 48 45  1  0  0  0  0
M  END
>  <MODEL>
8

>  <REMARK>
 VINA RESULT:      -7.7      2.554      8.931
  Name = 
  16 active torsions:
  status: ('A' for Active; 'I' for Inactive)
    1  A    between atoms: C_1  and  O_14
    2  A    between atoms: C_3  and  C_43
    3  A    between atoms: C_4  and  C_19
    4  A    between atoms: C_4  and  C_45
    5  A    between atoms: C_11  and  C_29
    6  A    between atoms: O_14  and  C_19
    7  A    between atoms: C_17  and  O_27
    8  A    between atoms: C_21  and  C_32
    9  A    between atoms: C_21  and  C_40
   10  A    between atoms: C_29  and  C_32
   11  A    between atoms: C_30  and  C_39
   12  A    between atoms: C_30  and  C_40
   13  A    between atoms: C_35  and  N_41
   14  A    between atoms: C_35  and  C_45
   15  A    between atoms: C_36  and  N_42
   16  A    between atoms: C_36  and  C_47
                            x       y       z     vdW  Elec       q    Type
                         _______ _______ _______ _____ _____    ______ ____

>  <TORSDO>
F 16

$$$$
=
 OpenBabel11032419393D

 49 53  0  0  1  0  0  0  0  0999 V2000
  185.3300  178.4360  144.4580 C   0  0  0  0  0  0  0  0  0  0  0  0
  183.9460  178.6530  142.4120 C   0  0  0  0  0  0  0  0  0  0  0  0
  183.7800  178.6970  141.0280 C   0  0  0  0  0  3  0  0  0  0  0  0
  184.3120  178.7920  145.1870 N   0  0  0  0  0  0  0  0  0  0  0  0
  183.0860  179.3630  144.6160 C   0  0  0  0  0  2  0  0  0  0  0  0
  186.1700  178.5250  140.7260 C   0  0  0  0  0  3  0  0  0  0  0  0
  185.2320  178.5110  142.9740 C   0  0  0  0  0  0  0  0  0  0  0  0
  186.3560  178.4560  142.1120 C   0  0  0  0  0  0  0  0  0  0  0  0
  184.8930  178.6490  140.1800 C   0  0  0  0  0  0  0  0  0  0  0  0
  182.7390  178.6760  143.2970 C   0  0  0  0  0  2  0  0  0  0  0  0
  184.7500  178.6510  138.6900 C   0  0  0  0  0  2  0  0  0  0  0  0
  183.8530  177.0840  136.9110 C   0  0  0  0  0  0  0  0  0  0  0  0
  184.7000  177.5050  136.0760 O   0  0  0  0  0  0  0  0  0  0  0  0
  183.8120  177.6310  138.2360 N   0  0  0  0  0  2  0  0  0  0  0  0
  182.9370  175.4220  135.3600 O   0  0  0  0  0  0  0  0  0  0  0  0
  181.8530  175.5750  137.2810 C   0  0  0  0  0  3  0  0  0  0  0  0
  181.2450  174.6080  136.5010 C   0  0  0  0  0  3  0  0  0  0  0  0
  181.9570  174.5530  135.3130 C   0  0  0  0  0  3  0  0  0  0  0  0
  182.9010  176.0420  136.5140 C   0  0  0  0  0  0  0  0  0  0  0  0
  187.7590  178.3770  142.6240 C   0  0  0  0  0  2  0  0  0  0  0  0
  188.4370  176.1320  143.0040 O   0  0  0  0  0  1  0  0  0  0  0  0
  188.4810  177.1620  142.0630 C   0  0  2  0  0  3  0  0  0  0  0  0
  189.9310  177.5000  141.7500 C   0  0  0  0  0  2  0  0  0  0  0  0
  190.2530  177.1920  140.2960 C   0  0  0  0  0  2  0  0  0  0  0  0
  189.6030  178.2070  139.3680 C   0  0  0  0  0  2  0  0  0  0  0  0
  185.3270  173.3650  136.0720 O   0  0  0  0  0  0  0  0  0  0  0  0
  189.2070  177.5340  138.0640 C   0  0  1  0  0  3  0  0  0  0  0  0
  190.3070  175.5000  136.8700 C   0  0  1  0  0  3  0  0  0  0  0  0
  186.6450  174.9640  137.0930 O   0  0  0  0  0  0  0  0  0  0  0  0
  190.6070  174.6420  137.9280 O   0  0  0  0  0  1  0  0  0  0  0  0
  188.7080  174.2990  135.3340 C   0  0  0  0  0  0  0  0  0  0  0  0
  188.9300  175.1850  136.3370 C   0  0  0  0  0  0  0  0  0  0  0  0
  190.4390  176.9590  137.3370 C   0  0  0  0  0  2  0  0  0  0  0  0
  187.7350  175.8760  136.9620 C   0  0  2  0  0  3  0  0  0  0  0  0
  186.3560  174.0940  136.0390 C   0  0  0  0  0  0  0  0  0  0  0  0
  188.0950  176.5140  138.2970 C   0  0  0  0  0  2  0  0  0  0  0  0
  187.2920  174.0350  134.8690 C   0  0  0  0  0  2  0  0  0  0  0  0
  190.0750  172.2480  134.9110 C   0  0  0  0  0  1  0  0  0  0  0  0
  189.7230  173.6060  134.6590 O   0  0  0  0  0  0  0  0  0  0  0  0
  186.4800  177.9170  145.0650 O   0  0  0  0  0  0  0  0  0  0  0  0
  186.5090  177.4590  146.4110 C   0  0  0  0  0  2  0  0  0  0  0  0
  187.1190  178.5230  147.3060 C   0  0  0  0  0  2  0  0  0  0  0  0
  188.0380  176.7240  148.5730 O   0  0  0  0  0  1  0  0  0  0  0  0
  188.3350  177.9780  148.0400 C   0  0  1  0  0  3  0  0  0  0  0  0
  189.5590  177.8880  147.1290 C   0  0  0  0  0  2  0  0  0  0  0  0
  191.5790  176.4060  146.8730 C   0  0  0  0  0  0  0  0  0  0  0  0
  192.4510  175.6620  147.3930 O   0  0  0  0  0  1  0  0  0  0  0  0
  190.5710  177.0030  147.6910 N   0  0  0  0  0  2  0  0  0  0  0  0
  191.6170  176.6480  145.5050 O   0  0  0  0  0  0  0  0  0  0  0  0
  1 40  1  0  0  0  0
  1  4  2  0  0  0  0
  2  7  1  0  0  0  0
  2 10  1  0  0  0  0
  3  2  2  0  0  0  0
  5  4  1  0  0  0  0
  6  8  1  0  0  0  0
  7  1  1  0  0  0  0
  8 20  1  0  0  0  0
  8  7  2  0  0  0  0
  9  6  2  0  0  0  0
  9  3  1  0  0  0  0
 10  5  1  0  0  0  0
 11  9  1  0  0  0  0
 12 14  1  0  0  0  0
 13 12  2  0  0  0  0
 14 11  1  0  0  0  0
 15 19  1  0  0  0  0
 17 16  1  0  0  0  0
 18 15  1  0  0  0  0
 18 17  2  0  0  0  0
 19 12  1  0  0  0  0
 19 16  2  0  0  0  0
 22 20  1  0  0  0  0
 22 21  1  1  0  0  0
 23 22  1  0  0  0  0
 24 23  1  0  0  0  0
 25 24  1  0  0  0  0
 27 36  1  0  0  0  0
 27 25  1  1  0  0  0
 28 33  1  0  0  0  0
 28 30  1  1  0  0  0
 31 32  2  0  0  0  0
 32 28  1  0  0  0  0
 32 34  1  0  0  0  0
 33 27  1  0  0  0  0
 34 29  1  0  0  0  0
 34 36  1  1  0  0  0
 35 26  2  0  0  0  0
 35 29  1  0  0  0  0
 37 31  1  0  0  0  0
 37 35  1  0  0  0  0
 39 38  1  0  0  0  0
 39 31  1  0  0  0  0
 40 41  1  0  0  0  0
 41 42  1  0  0  0  0
 42 44  1  0  0  0  0
 44 43  1  6  0  0  0
 45 48  1  0  0  0  0
 45 44  1  0  0  0  0
 46 47  1  0  0  0  0
 46 48  1  0  0  0  0
 49 46  2  0  0  0  0
M  END
>  <MODEL>
9

>  <REMARK>
 VINA RESULT:      -7.6      2.702      8.528
  Name = 
  16 active torsions:
  status: ('A' for Active; 'I' for Inactive)
    1  A    between atoms: C_1  and  O_14
    2  A    between atoms: C_3  and  C_43
    3  A    between atoms: C_4  and  C_19
    4  A    between atoms: C_4  and  C_45
    5  A    between atoms: C_11  and  C_29
    6  A    between atoms: O_14  and  C_19
    7  A    between atoms: C_17  and  O_27
    8  A    between atoms: C_21  and  C_32
    9  A    between atoms: C_21  and  C_40
   10  A    between atoms: C_29  and  C_32
   11  A    between atoms: C_30  and  C_39
   12  A    between atoms: C_30  and  C_40
   13  A    between atoms: C_35  and  N_41
   14  A    between atoms: C_35  and  C_45
   15  A    between atoms: C_36  and  N_42
   16  A    between atoms: C_36  and  C_47
                            x       y       z     vdW  Elec       q    Type
                         _______ _______ _______ _____ _____    ______ ____

>  <TORSDO>
F 16

$$$$
