=
 OpenBabel11042412193D

 44 48  0  0  1  0  0  0  0  0999 V2000
  183.3590  179.0200  143.7040 C   0  0  0  0  0  0  0  0  0  0  0  0
  185.1660  178.5320  145.2530 C   0  0  0  0  0  3  0  0  0  0  0  0
  186.0230  178.2490  144.1810 C   0  0  0  0  0  0  0  0  0  0  0  0
  183.8430  178.9130  145.0170 C   0  0  0  0  0  3  0  0  0  0  0  0
  185.5410  178.3610  142.8720 C   0  0  0  0  0  3  0  0  0  0  0  0
  184.2150  178.7390  142.6340 C   0  0  0  0  0  3  0  0  0  0  0  0
  188.3040  177.2870  143.4390 C   0  0  0  0  0  0  0  0  0  0  0  0
  189.4840  176.8770  143.8070 N   0  0  0  0  0  0  0  0  0  0  0  0
  187.3970  177.8860  144.3800 N   0  0  0  0  0  2  0  0  0  0  0  0
  191.3170  176.2980  145.3070 C   0  0  0  0  0  3  0  0  0  0  0  0
  191.9130  176.2700  146.5710 C   0  0  0  0  0  3  0  0  0  0  0  0
  190.0590  176.8820  145.1270 C   0  0  0  0  0  0  0  0  0  0  0  0
  191.2520  176.8290  147.6680 C   0  0  0  0  0  3  0  0  0  0  0  0
  189.9920  177.4140  147.5100 C   0  0  0  0  0  0  0  0  0  0  0  0
  189.4000  177.4350  146.2380 C   0  0  0  0  0  3  0  0  0  0  0  0
  189.3520  177.9650  148.6220 O   0  0  0  0  0  0  0  0  0  0  0  0
  187.9380  178.0510  148.7250 C   0  0  0  0  0  1  0  0  0  0  0  0
  187.9480  177.1670  141.9920 C   0  0  0  0  0  2  0  0  0  0  0  0
  188.8280  178.0700  141.1400 C   0  0  1  0  0  3  0  0  0  0  0  0
  187.9440  177.3740  137.5550 C   0  0  0  0  0  3  0  0  0  0  0  0
  188.4850  176.4640  136.6370 C   0  0  0  0  0  3  0  0  0  0  0  0
  190.3730  177.1700  140.7210 S   0  0  0  0  0  0  0  0  0  0  0  0
  190.2610  175.9190  138.2090 C   0  0  0  0  0  3  0  0  0  0  0  0
  189.7140  176.8380  139.1080 C   0  0  0  0  0  0  0  0  0  0  0  0
  189.6410  175.7360  136.9650 C   0  0  0  0  0  3  0  0  0  0  0  0
  188.5710  177.5440  138.7920 C   0  0  0  0  0  0  0  0  0  0  0  0
  188.0920  178.4600  139.8510 C   0  0  0  0  0  2  0  0  0  0  0  0
  182.0090  179.4120  143.4260 N   0  0  0  0  0  2  0  0  0  0  0  0
  180.8230  178.6520  143.7150 C   0  0  0  0  0  0  0  0  0  0  0  0
  180.8830  177.5460  144.3220 O   0  0  0  0  0  0  0  0  0  0  0  0
  179.4900  179.1890  143.3180 C   0  0  0  0  0  2  0  0  0  0  0  0
  179.5630  179.9660  142.0420 C   0  0  0  0  0  0  0  0  0  0  0  0
  179.4610  181.2220  142.0820 O   0  0  0  0  0  0  0  0  0  0  0  0
  179.7960  179.3000  140.7970 N   0  0  0  0  0  2  0  0  0  0  0  0
  179.9070  180.0180  139.5360 C   0  0  1  0  0  3  0  0  0  0  0  0
  180.3890  181.3090  139.7680 O   0  0  0  0  0  1  0  0  0  0  0  0
  182.3920  176.1080  139.6610 C   0  0  0  0  0  1  0  0  0  0  0  0
  180.8450  177.8310  138.8880 N   0  0  0  0  0  0  0  0  0  0  0  0
  180.8250  179.2640  138.5760 C   0  0  2  0  0  3  0  0  0  0  0  0
  182.4990  179.9840  138.6290 S   0  0  0  0  0  0  0  0  0  0  0  0
  182.2180  177.3440  138.7920 C   0  0  1  0  0  3  0  0  0  0  0  0
  184.5480  178.2020  138.6740 C   0  0  0  0  0  1  0  0  0  0  0  0
  180.0790  177.1620  137.8480 C   0  0  0  0  0  1  0  0  0  0  0  0
  183.1620  178.4290  139.2470 C   0  0  1  0  0  3  0  0  0  0  0  0
  1  4  1  0  0  0  0
  3  9  1  0  0  0  0
  3  2  1  0  0  0  0
  4  2  2  0  0  0  0
  5  3  2  0  0  0  0
  6  5  1  0  0  0  0
  6  1  2  0  0  0  0
  7  8  2  0  0  0  0
  7  9  1  0  0  0  0
  8 12  1  0  0  0  0
 10 11  1  0  0  0  0
 11 13  2  0  0  0  0
 12 10  2  0  0  0  0
 12 15  1  0  0  0  0
 14 13  1  0  0  0  0
 14 16  1  0  0  0  0
 15 14  2  0  0  0  0
 16 17  1  0  0  0  0
 18  7  1  0  0  0  0
 19 18  1  1  0  0  0
 20 26  1  0  0  0  0
 21 25  1  0  0  0  0
 21 20  2  0  0  0  0
 22 19  1  0  0  0  0
 23 24  1  0  0  0  0
 24 22  1  0  0  0  0
 25 23  2  0  0  0  0
 26 24  2  0  0  0  0
 26 27  1  0  0  0  0
 27 19  1  0  0  0  0
 28  1  1  0  0  0  0
 28 29  1  0  0  0  0
 29 30  2  0  0  0  0
 31 29  1  0  0  0  0
 32 33  2  0  0  0  0
 32 31  1  0  0  0  0
 34 32  1  0  0  0  0
 35 36  1  1  0  0  0
 35 34  1  0  0  0  0
 39 40  1  0  0  0  0
 39 38  1  0  0  0  0
 39 35  1  1  0  0  0
 40 44  1  0  0  0  0
 41 38  1  0  0  0  0
 41 44  1  0  0  0  0
 41 37  1  1  0  0  0
 43 38  1  0  0  0  0
 44 42  1  6  0  0  0
M  END
>  <MODEL>
1

>  <REMARK>
 VINA RESULT:      -9.1      0.000      0.000
  Name = 
  10 active torsions:
  status: ('A' for Active; 'I' for Inactive)
    1  A    between atoms: C_2  and  C_13
    2  A    between atoms: C_2  and  N_26
    3  A    between atoms: C_3  and  N_32
    4  A    between atoms: C_4  and  C_36
    5  A    between atoms: C_11  and  C_12
    6  A    between atoms: C_11  and  C_41
    7  A    between atoms: C_17  and  C_36
    8  A    between atoms: C_18  and  N_29
    9  A    between atoms: N_20  and  C_23
   10  A    between atoms: C_37  and  O_40
                            x       y       z     vdW  Elec       q    Type
                         _______ _______ _______ _____ _____    ______ ____

>  <TORSDO>
F 10

$$$$
=
 OpenBabel11042412193D

 44 48  0  0  1  0  0  0  0  0999 V2000
  189.5880  177.3950  139.3560 C   0  0  0  0  0  0  0  0  0  0  0  0
  189.9180  176.7110  141.6640 C   0  0  0  0  0  3  0  0  0  0  0  0
  188.7530  177.3900  142.0440 C   0  0  0  0  0  0  0  0  0  0  0  0
  190.3340  176.7150  140.3310 C   0  0  0  0  0  3  0  0  0  0  0  0
  188.0070  178.0640  141.0700 C   0  0  0  0  0  3  0  0  0  0  0  0
  188.4240  178.0710  139.7350 C   0  0  0  0  0  3  0  0  0  0  0  0
  186.9210  177.5360  143.8620 C   0  0  0  0  0  0  0  0  0  0  0  0
  186.6550  177.6580  145.1300 N   0  0  0  0  0  0  0  0  0  0  0  0
  188.2730  177.3850  143.3950 N   0  0  0  0  0  2  0  0  0  0  0  0
  187.2130  178.4540  147.3670 C   0  0  0  0  0  3  0  0  0  0  0  0
  188.0780  178.5500  148.4610 C   0  0  0  0  0  3  0  0  0  0  0  0
  187.5780  177.7190  146.2340 C   0  0  0  0  0  0  0  0  0  0  0  0
  189.3200  177.9110  148.4280 C   0  0  0  0  0  3  0  0  0  0  0  0
  189.7070  177.1760  147.3030 C   0  0  0  0  0  0  0  0  0  0  0  0
  188.8320  177.0860  146.2090 C   0  0  0  0  0  3  0  0  0  0  0  0
  190.9520  176.5460  147.2950 O   0  0  0  0  0  0  0  0  0  0  0  0
  191.7890  176.5220  146.1480 C   0  0  0  0  0  1  0  0  0  0  0  0
  185.7690  177.4990  142.9110 C   0  0  0  0  0  2  0  0  0  0  0  0
  185.1960  178.8930  142.6980 C   0  0  1  0  0  3  0  0  0  0  0  0
  181.6650  178.8220  143.9800 C   0  0  0  0  0  3  0  0  0  0  0  0
  180.4580  178.5410  143.3270 C   0  0  0  0  0  3  0  0  0  0  0  0
  184.3820  178.9560  141.0530 S   0  0  0  0  0  0  0  0  0  0  0  0
  181.6150  178.4950  141.1870 C   0  0  0  0  0  3  0  0  0  0  0  0
  182.8080  178.7870  141.8530 C   0  0  0  0  0  0  0  0  0  0  0  0
  180.4340  178.3750  141.9320 C   0  0  0  0  0  3  0  0  0  0  0  0
  182.8360  178.9370  143.2240 C   0  0  0  0  0  0  0  0  0  0  0  0
  184.1720  179.2160  143.7930 C   0  0  0  0  0  2  0  0  0  0  0  0
  189.9850  177.4150  137.9790 N   0  0  0  0  0  2  0  0  0  0  0  0
  189.8840  176.3260  137.0460 C   0  0  0  0  0  0  0  0  0  0  0  0
  189.3560  175.2260  137.3740 O   0  0  0  0  0  0  0  0  0  0  0  0
  190.3880  176.5020  135.6530 C   0  0  0  0  0  2  0  0  0  0  0  0
  191.8490  176.2010  135.5490 C   0  0  0  0  0  0  0  0  0  0  0  0
  192.5120  176.6960  134.5980 O   0  0  0  0  0  0  0  0  0  0  0  0
  192.4990  175.4020  136.5430 N   0  0  0  0  0  2  0  0  0  0  0  0
  193.9240  175.1100  136.5010 C   0  0  1  0  0  3  0  0  0  0  0  0
  194.6460  176.2120  136.9660 O   0  0  0  0  0  1  0  0  0  0  0  0
  197.6430  172.4600  137.2930 C   0  0  0  0  0  1  0  0  0  0  0  0
  195.6580  173.8240  137.6940 N   0  0  0  0  0  0  0  0  0  0  0  0
  194.2360  173.8700  137.3350 C   0  0  2  0  0  3  0  0  0  0  0  0
  193.7250  172.3720  136.4290 S   0  0  0  0  0  0  0  0  0  0  0  0
  196.1420  172.4550  137.5380 C   0  0  1  0  0  3  0  0  0  0  0  0
  195.4750  170.2960  136.5000 C   0  0  0  0  0  1  0  0  0  0  0  0
  195.7470  174.1520  139.1080 C   0  0  0  0  0  1  0  0  0  0  0  0
  195.4340  171.8080  136.3740 C   0  0  1  0  0  3  0  0  0  0  0  0
  1  6  2  0  0  0  0
  1  4  1  0  0  0  0
  2  3  1  0  0  0  0
  3  9  1  0  0  0  0
  4  2  2  0  0  0  0
  5  3  2  0  0  0  0
  6  5  1  0  0  0  0
  7  8  2  0  0  0  0
  8 12  1  0  0  0  0
  9  7  1  0  0  0  0
 10 11  1  0  0  0  0
 12 10  2  0  0  0  0
 13 11  2  0  0  0  0
 14 13  1  0  0  0  0
 15 12  1  0  0  0  0
 15 14  2  0  0  0  0
 16 14  1  0  0  0  0
 17 16  1  0  0  0  0
 18  7  1  0  0  0  0
 19 18  1  1  0  0  0
 19 27  1  0  0  0  0
 21 20  1  0  0  0  0
 22 24  1  0  0  0  0
 22 19  1  0  0  0  0
 23 24  2  0  0  0  0
 23 25  1  0  0  0  0
 24 26  1  0  0  0  0
 25 21  2  0  0  0  0
 26 27  1  0  0  0  0
 26 20  2  0  0  0  0
 28  1  1  0  0  0  0
 29 30  2  0  0  0  0
 29 28  1  0  0  0  0
 31 29  1  0  0  0  0
 32 31  1  0  0  0  0
 32 34  1  0  0  0  0
 33 32  2  0  0  0  0
 35 34  1  0  0  0  0
 35 36  1  1  0  0  0
 38 43  1  0  0  0  0
 39 35  1  6  0  0  0
 39 38  1  0  0  0  0
 40 39  1  0  0  0  0
 41 37  1  6  0  0  0
 41 38  1  0  0  0  0
 44 40  1  0  0  0  0
 44 42  1  1  0  0  0
 44 41  1  0  0  0  0
M  END
>  <MODEL>
2

>  <REMARK>
 VINA RESULT:      -9.1      4.952      9.933
  Name = 
  10 active torsions:
  status: ('A' for Active; 'I' for Inactive)
    1  A    between atoms: C_2  and  C_13
    2  A    between atoms: C_2  and  N_26
    3  A    between atoms: C_3  and  N_32
    4  A    between atoms: C_4  and  C_36
    5  A    between atoms: C_11  and  C_12
    6  A    between atoms: C_11  and  C_41
    7  A    between atoms: C_17  and  C_36
    8  A    between atoms: C_18  and  N_29
    9  A    between atoms: N_20  and  C_23
   10  A    between atoms: C_37  and  O_40
                            x       y       z     vdW  Elec       q    Type
                         _______ _______ _______ _____ _____    ______ ____

>  <TORSDO>
F 10

$$$$
=
 OpenBabel11042412193D

 44 48  0  0  1  0  0  0  0  0999 V2000
  190.0030  177.4420  141.4160 C   0  0  0  0  0  0  0  0  0  0  0  0
  190.0120  176.7900  139.0750 C   0  0  0  0  0  3  0  0  0  0  0  0
  191.4130  176.7880  139.0700 C   0  0  0  0  0  0  0  0  0  0  0  0
  189.3110  177.1160  140.2390 C   0  0  0  0  0  3  0  0  0  0  0  0
  192.1010  177.1070  140.2460 C   0  0  0  0  0  3  0  0  0  0  0  0
  191.4010  177.4370  141.4110 C   0  0  0  0  0  3  0  0  0  0  0  0
  191.9280  175.3500  136.9840 C   0  0  0  0  0  0  0  0  0  0  0  0
  192.7880  175.0540  136.0530 N   0  0  0  0  0  0  0  0  0  0  0  0
  192.1700  176.4280  137.9060 N   0  0  0  0  0  2  0  0  0  0  0  0
  194.1540  176.6970  134.8770 C   0  0  0  0  0  3  0  0  0  0  0  0
  195.3820  177.3030  134.5940 C   0  0  0  0  0  3  0  0  0  0  0  0
  194.0740  175.6510  135.8030 C   0  0  0  0  0  0  0  0  0  0  0  0
  196.5420  176.8640  135.2350 C   0  0  0  0  0  3  0  0  0  0  0  0
  196.4860  175.8160  136.1590 C   0  0  0  0  0  0  0  0  0  0  0  0
  195.2490  175.2130  136.4370 C   0  0  0  0  0  3  0  0  0  0  0  0
  197.6590  175.3960  136.7870 O   0  0  0  0  0  0  0  0  0  0  0  0
  198.6550  174.6360  136.1160 C   0  0  0  0  0  1  0  0  0  0  0  0
  190.6550  174.5700  137.0270 C   0  0  0  0  0  2  0  0  0  0  0  0
  189.8320  174.8040  135.7680 C   0  0  1  0  0  3  0  0  0  0  0  0
  187.7970  177.9060  136.3620 C   0  0  0  0  0  3  0  0  0  0  0  0
  186.5090  178.0710  136.8870 C   0  0  0  0  0  3  0  0  0  0  0  0
  188.2140  173.9540  135.9490 S   0  0  0  0  0  0  0  0  0  0  0  0
  186.1820  175.6610  136.8680 C   0  0  0  0  0  3  0  0  0  0  0  0
  187.4650  175.5140  136.3350 C   0  0  0  0  0  0  0  0  0  0  0  0
  185.7030  176.9490  137.1410 C   0  0  0  0  0  3  0  0  0  0  0  0
  188.2620  176.6150  136.0970 C   0  0  0  0  0  0  0  0  0  0  0  0
  189.6050  176.3060  135.5580 C   0  0  0  0  0  2  0  0  0  0  0  0
  189.3150  177.7770  142.6280 N   0  0  0  0  0  2  0  0  0  0  0  0
  188.5150  176.8900  143.4290 C   0  0  0  0  0  0  0  0  0  0  0  0
  188.4000  175.6660  143.1380 O   0  0  0  0  0  0  0  0  0  0  0  0
  187.8280  177.4150  144.6440 C   0  0  0  0  0  2  0  0  0  0  0  0
  186.6330  178.2420  144.2910 C   0  0  0  0  0  0  0  0  0  0  0  0
  186.0460  178.8910  145.1990 O   0  0  0  0  0  0  0  0  0  0  0  0
  186.1900  178.3390  142.9340 N   0  0  0  0  0  2  0  0  0  0  0  0
  185.0530  179.1570  142.5390 C   0  0  1  0  0  3  0  0  0  0  0  0
  185.2790  179.7020  141.2730 O   0  0  0  0  0  1  0  0  0  0  0  0
  180.8450  179.4730  140.6230 C   0  0  0  0  0  1  0  0  0  0  0  0
  182.9930  178.5500  141.3260 N   0  0  0  0  0  0  0  0  0  0  0  0
  183.7730  178.3250  142.5480 C   0  0  2  0  0  3  0  0  0  0  0  0
  182.8000  178.7050  144.0420 S   0  0  0  0  0  0  0  0  0  0  0  0
  181.5810  178.6610  141.6780 C   0  0  1  0  0  3  0  0  0  0  0  0
  180.1250  178.9940  143.6670 C   0  0  0  0  0  1  0  0  0  0  0  0
  183.1390  177.3570  140.5070 C   0  0  0  0  0  1  0  0  0  0  0  0
  181.4560  179.3340  143.0230 C   0  0  1  0  0  3  0  0  0  0  0  0
  1 28  1  0  0  0  0
  2  4  1  0  0  0  0
  3  2  2  0  0  0  0
  3  5  1  0  0  0  0
  4  1  2  0  0  0  0
  5  6  2  0  0  0  0
  6  1  1  0  0  0  0
  7 18  1  0  0  0  0
  7  9  1  0  0  0  0
  8  7  2  0  0  0  0
  9  3  1  0  0  0  0
 10 12  1  0  0  0  0
 11 10  2  0  0  0  0
 11 13  1  0  0  0  0
 12  8  1  0  0  0  0
 12 15  2  0  0  0  0
 13 14  2  0  0  0  0
 14 15  1  0  0  0  0
 14 16  1  0  0  0  0
 17 16  1  0  0  0  0
 19 22  1  0  0  0  0
 19 18  1  1  0  0  0
 20 21  1  0  0  0  0
 21 25  2  0  0  0  0
 22 24  1  0  0  0  0
 23 25  1  0  0  0  0
 24 23  2  0  0  0  0
 26 24  1  0  0  0  0
 26 20  2  0  0  0  0
 27 19  1  0  0  0  0
 27 26  1  0  0  0  0
 28 29  1  0  0  0  0
 29 31  1  0  0  0  0
 30 29  2  0  0  0  0
 32 31  1  0  0  0  0
 32 33  2  0  0  0  0
 34 32  1  0  0  0  0
 35 36  1  6  0  0  0
 35 34  1  0  0  0  0
 38 41  1  0  0  0  0
 38 39  1  0  0  0  0
 39 35  1  6  0  0  0
 39 40  1  0  0  0  0
 41 37  1  6  0  0  0
 41 44  1  0  0  0  0
 43 38  1  0  0  0  0
 44 42  1  1  0  0  0
 44 40  1  0  0  0  0
M  END
>  <MODEL>
3

>  <REMARK>
 VINA RESULT:      -8.8      4.400      7.935
  Name = 
  10 active torsions:
  status: ('A' for Active; 'I' for Inactive)
    1  A    between atoms: C_2  and  C_13
    2  A    between atoms: C_2  and  N_26
    3  A    between atoms: C_3  and  N_32
    4  A    between atoms: C_4  and  C_36
    5  A    between atoms: C_11  and  C_12
    6  A    between atoms: C_11  and  C_41
    7  A    between atoms: C_17  and  C_36
    8  A    between atoms: C_18  and  N_29
    9  A    between atoms: N_20  and  C_23
   10  A    between atoms: C_37  and  O_40
                            x       y       z     vdW  Elec       q    Type
                         _______ _______ _______ _____ _____    ______ ____

>  <TORSDO>
F 10

$$$$
=
 OpenBabel11042412193D

 44 48  0  0  1  0  0  0  0  0999 V2000
  184.7930  178.4770  144.3970 C   0  0  0  0  0  0  0  0  0  0  0  0
  184.6390  178.7870  141.9920 C   0  0  0  0  0  3  0  0  0  0  0  0
  183.2560  178.9820  142.0940 C   0  0  0  0  0  0  0  0  0  0  0  0
  185.4030  178.5350  143.1350 C   0  0  0  0  0  3  0  0  0  0  0  0
  182.6490  178.9290  143.3550 C   0  0  0  0  0  3  0  0  0  0  0  0
  183.4110  178.6740  144.4990 C   0  0  0  0  0  3  0  0  0  0  0  0
  182.3690  178.5640  139.7030 C   0  0  0  0  0  0  0  0  0  0  0  0
  181.6900  179.0350  138.6970 N   0  0  0  0  0  0  0  0  0  0  0  0
  182.4410  179.2750  140.9510 N   0  0  0  0  0  2  0  0  0  0  0  0
  179.6910  180.3540  139.1560 C   0  0  0  0  0  3  0  0  0  0  0  0
  178.9530  181.5390  139.0870 C   0  0  0  0  0  3  0  0  0  0  0  0
  180.9750  180.2820  138.6070 C   0  0  0  0  0  0  0  0  0  0  0  0
  179.4970  182.6650  138.4630 C   0  0  0  0  0  3  0  0  0  0  0  0
  180.7770  182.6120  137.9030 C   0  0  0  0  0  0  0  0  0  0  0  0
  181.5100  181.4170  137.9770 C   0  0  0  0  0  3  0  0  0  0  0  0
  181.2990  183.7510  137.2860 O   0  0  0  0  0  0  0  0  0  0  0  0
  180.8570  184.2000  136.0130 C   0  0  0  0  0  1  0  0  0  0  0  0
  183.0250  177.2320  139.5350 C   0  0  0  0  0  2  0  0  0  0  0  0
  182.7940  176.6850  138.1340 C   0  0  1  0  0  3  0  0  0  0  0  0
  184.5430  173.3630  137.9640 C   0  0  0  0  0  3  0  0  0  0  0  0
  185.8440  173.0320  137.5660 C   0  0  0  0  0  3  0  0  0  0  0  0
  184.1680  177.2340  137.0480 S   0  0  0  0  0  0  0  0  0  0  0  0
  186.2050  175.3160  136.8080 C   0  0  0  0  0  3  0  0  0  0  0  0
  184.9010  175.6270  137.2000 C   0  0  0  0  0  0  0  0  0  0  0  0
  186.6750  174.0080  136.9910 C   0  0  0  0  0  3  0  0  0  0  0  0
  184.0880  174.6720  137.7780 C   0  0  0  0  0  0  0  0  0  0  0  0
  182.7440  175.1520  138.1670 C   0  0  0  0  0  2  0  0  0  0  0  0
  185.5460  178.2250  145.5900 N   0  0  0  0  0  2  0  0  0  0  0  0
  186.7060  177.3820  145.7040 C   0  0  0  0  0  0  0  0  0  0  0  0
  187.2100  176.8170  144.6920 O   0  0  0  0  0  0  0  0  0  0  0  0
  187.3490  177.1910  147.0360 C   0  0  0  0  0  2  0  0  0  0  0  0
  188.8100  177.5080  146.9970 C   0  0  0  0  0  0  0  0  0  0  0  0
  189.2630  178.4110  147.7510 O   0  0  0  0  0  0  0  0  0  0  0  0
  189.6940  176.7620  146.1540 N   0  0  0  0  0  2  0  0  0  0  0  0
  191.1270  177.0120  146.1080 C   0  0  1  0  0  3  0  0  0  0  0  0
  191.8210  175.8600  146.4840 O   0  0  0  0  0  1  0  0  0  0  0  0
  189.0010  178.8110  142.4030 C   0  0  0  0  0  1  0  0  0  0  0  0
  190.6290  178.4860  144.1930 N   0  0  0  0  0  0  0  0  0  0  0  0
  191.5420  177.4590  144.7080 C   0  0  2  0  0  3  0  0  0  0  0  0
  191.6200  176.0150  143.5970 S   0  0  0  0  0  0  0  0  0  0  0  0
  190.3400  178.2040  142.7900 C   0  0  1  0  0  3  0  0  0  0  0  0
  190.5550  176.3710  141.1240 C   0  0  0  0  0  1  0  0  0  0  0  0
  191.3470  179.7490  144.2380 C   0  0  0  0  0  1  0  0  0  0  0  0
  190.3060  176.7100  142.5810 C   0  0  1  0  0  3  0  0  0  0  0  0
  1  6  1  0  0  0  0
  1 28  1  0  0  0  0
  2  3  2  0  0  0  0
  2  4  1  0  0  0  0
  3  5  1  0  0  0  0
  4  1  2  0  0  0  0
  5  6  2  0  0  0  0
  7  9  1  0  0  0  0
  8  7  2  0  0  0  0
  9  3  1  0  0  0  0
 11 10  1  0  0  0  0
 12  8  1  0  0  0  0
 12 10  2  0  0  0  0
 13 11  2  0  0  0  0
 14 15  2  0  0  0  0
 14 13  1  0  0  0  0
 15 12  1  0  0  0  0
 16 14  1  0  0  0  0
 17 16  1  0  0  0  0
 18  7  1  0  0  0  0
 19 27  1  0  0  0  0
 19 18  1  1  0  0  0
 21 20  2  0  0  0  0
 22 24  1  0  0  0  0
 22 19  1  0  0  0  0
 23 25  2  0  0  0  0
 23 24  1  0  0  0  0
 24 26  2  0  0  0  0
 25 21  1  0  0  0  0
 26 20  1  0  0  0  0
 26 27  1  0  0  0  0
 28 29  1  0  0  0  0
 29 31  1  0  0  0  0
 30 29  2  0  0  0  0
 32 31  1  0  0  0  0
 32 33  2  0  0  0  0
 34 32  1  0  0  0  0
 35 34  1  0  0  0  0
 35 36  1  6  0  0  0
 38 43  1  0  0  0  0
 38 39  1  0  0  0  0
 39 35  1  1  0  0  0
 40 39  1  0  0  0  0
 41 37  1  1  0  0  0
 41 38  1  0  0  0  0
 44 42  1  6  0  0  0
 44 41  1  0  0  0  0
 44 40  1  0  0  0  0
M  END
>  <MODEL>
4

>  <REMARK>
 VINA RESULT:      -8.8      2.500      9.503
  Name = 
  10 active torsions:
  status: ('A' for Active; 'I' for Inactive)
    1  A    between atoms: C_2  and  C_13
    2  A    between atoms: C_2  and  N_26
    3  A    between atoms: C_3  and  N_32
    4  A    between atoms: C_4  and  C_36
    5  A    between atoms: C_11  and  C_12
    6  A    between atoms: C_11  and  C_41
    7  A    between atoms: C_17  and  C_36
    8  A    between atoms: C_18  and  N_29
    9  A    between atoms: N_20  and  C_23
   10  A    between atoms: C_37  and  O_40
                            x       y       z     vdW  Elec       q    Type
                         _______ _______ _______ _____ _____    ______ ____

>  <TORSDO>
F 10

$$$$
=
 OpenBabel11042412193D

 44 48  0  0  1  0  0  0  0  0999 V2000
  182.9070  178.8400  142.9300 C   0  0  0  0  0  0  0  0  0  0  0  0
  184.4510  178.7450  144.8030 C   0  0  0  0  0  3  0  0  0  0  0  0
  185.4760  178.3120  143.9510 C   0  0  0  0  0  0  0  0  0  0  0  0
  183.1750  179.0050  144.2970 C   0  0  0  0  0  3  0  0  0  0  0  0
  185.2080  178.1530  142.5870 C   0  0  0  0  0  3  0  0  0  0  0  0
  183.9300  178.4100  142.0790 C   0  0  0  0  0  3  0  0  0  0  0  0
  187.9060  177.4640  143.7190 C   0  0  0  0  0  0  0  0  0  0  0  0
  189.0180  177.1690  144.3270 N   0  0  0  0  0  0  0  0  0  0  0  0
  186.8070  178.0650  144.4240 N   0  0  0  0  0  2  0  0  0  0  0  0
  188.3430  177.7830  146.5890 C   0  0  0  0  0  3  0  0  0  0  0  0
  188.6070  177.9520  147.9510 C   0  0  0  0  0  3  0  0  0  0  0  0
  189.3380  177.3170  145.7240 C   0  0  0  0  0  0  0  0  0  0  0  0
  189.8740  177.6550  148.4590 C   0  0  0  0  0  3  0  0  0  0  0  0
  190.8850  177.1930  147.6110 C   0  0  0  0  0  0  0  0  0  0  0  0
  190.6100  177.0280  146.2440 C   0  0  0  0  0  3  0  0  0  0  0  0
  192.1420  176.9030  148.1430 O   0  0  0  0  0  0  0  0  0  0  0  0
  192.7300  175.6130  148.0540 C   0  0  0  0  0  1  0  0  0  0  0  0
  187.8310  177.2100  142.2480 C   0  0  0  0  0  2  0  0  0  0  0  0
  188.7800  178.1270  141.4890 C   0  0  1  0  0  3  0  0  0  0  0  0
  188.1170  177.5860  137.8300 C   0  0  0  0  0  3  0  0  0  0  0  0
  188.7000  176.7020  136.9140 C   0  0  0  0  0  3  0  0  0  0  0  0
  190.3330  177.2130  141.1340 S   0  0  0  0  0  0  0  0  0  0  0  0
  190.3610  176.0630  138.5730 C   0  0  0  0  0  3  0  0  0  0  0  0
  189.7740  176.9570  139.4710 C   0  0  0  0  0  0  0  0  0  0  0  0
  189.8200  175.9390  137.2860 C   0  0  0  0  0  3  0  0  0  0  0  0
  188.6660  177.6960  139.1110 C   0  0  0  0  0  0  0  0  0  0  0  0
  188.1350  178.5800  140.1730 C   0  0  0  0  0  2  0  0  0  0  0  0
  181.6110  179.1010  142.3770 N   0  0  0  0  0  2  0  0  0  0  0  0
  180.3500  178.6670  142.9160 C   0  0  0  0  0  0  0  0  0  0  0  0
  180.2840  178.0370  144.0090 O   0  0  0  0  0  0  0  0  0  0  0  0
  179.0890  178.9890  142.1880 C   0  0  0  0  0  2  0  0  0  0  0  0
  179.3360  179.2430  140.7350 C   0  0  0  0  0  0  0  0  0  0  0  0
  179.1030  180.3880  140.2630 O   0  0  0  0  0  0  0  0  0  0  0  0
  179.8800  178.2150  139.9000 N   0  0  0  0  0  2  0  0  0  0  0  0
  180.1670  178.4260  138.4890 C   0  0  1  0  0  3  0  0  0  0  0  0
  180.9450  179.5760  138.3320 O   0  0  0  0  0  1  0  0  0  0  0  0
  184.5530  177.2430  137.5690 C   0  0  0  0  0  1  0  0  0  0  0  0
  182.2600  177.1240  138.4000 N   0  0  0  0  0  0  0  0  0  0  0  0
  180.8810  177.2080  137.9060 C   0  0  2  0  0  3  0  0  0  0  0  0
  180.8250  177.2740  136.0850 S   0  0  0  0  0  0  0  0  0  0  0  0
  183.1380  176.7570  137.2920 C   0  0  1  0  0  3  0  0  0  0  0  0
  183.1340  176.6270  134.8090 C   0  0  0  0  0  1  0  0  0  0  0  0
  182.2990  176.0300  139.3580 C   0  0  0  0  0  1  0  0  0  0  0  0
  182.6210  177.3820  136.0210 C   0  0  1  0  0  3  0  0  0  0  0  0
  1  4  1  0  0  0  0
  3  9  1  0  0  0  0
  3  2  1  0  0  0  0
  4  2  2  0  0  0  0
  5  3  2  0  0  0  0
  6  5  1  0  0  0  0
  6  1  2  0  0  0  0
  7  8  2  0  0  0  0
  7  9  1  0  0  0  0
  8 12  1  0  0  0  0
 10 11  1  0  0  0  0
 11 13  2  0  0  0  0
 12 15  1  0  0  0  0
 12 10  2  0  0  0  0
 14 16  1  0  0  0  0
 14 13  1  0  0  0  0
 15 14  2  0  0  0  0
 17 16  1  0  0  0  0
 18  7  1  0  0  0  0
 19 18  1  6  0  0  0
 20 26  1  0  0  0  0
 21 25  1  0  0  0  0
 21 20  2  0  0  0  0
 22 19  1  0  0  0  0
 23 24  1  0  0  0  0
 24 22  1  0  0  0  0
 25 23  2  0  0  0  0
 26 24  2  0  0  0  0
 26 27  1  0  0  0  0
 27 19  1  0  0  0  0
 28 29  1  0  0  0  0
 28  1  1  0  0  0  0
 29 30  2  0  0  0  0
 31 29  1  0  0  0  0
 32 31  1  0  0  0  0
 33 32  2  0  0  0  0
 34 32  1  0  0  0  0
 35 36  1  1  0  0  0
 35 34  1  0  0  0  0
 38 43  1  0  0  0  0
 39 38  1  0  0  0  0
 39 35  1  1  0  0  0
 40 39  1  0  0  0  0
 41 37  1  1  0  0  0
 41 38  1  0  0  0  0
 44 42  1  6  0  0  0
 44 40  1  0  0  0  0
 44 41  1  0  0  0  0
M  END
>  <MODEL>
5

>  <REMARK>
 VINA RESULT:      -8.7      1.444      2.019
  Name = 
  10 active torsions:
  status: ('A' for Active; 'I' for Inactive)
    1  A    between atoms: C_2  and  C_13
    2  A    between atoms: C_2  and  N_26
    3  A    between atoms: C_3  and  N_32
    4  A    between atoms: C_4  and  C_36
    5  A    between atoms: C_11  and  C_12
    6  A    between atoms: C_11  and  C_41
    7  A    between atoms: C_17  and  C_36
    8  A    between atoms: C_18  and  N_29
    9  A    between atoms: N_20  and  C_23
   10  A    between atoms: C_37  and  O_40
                            x       y       z     vdW  Elec       q    Type
                         _______ _______ _______ _____ _____    ______ ____

>  <TORSDO>
F 10

$$$$
=
 OpenBabel11042412193D

 44 48  0  0  1  0  0  0  0  0999 V2000
  190.3670  177.8230  143.0110 C   0  0  0  0  0  0  0  0  0  0  0  0
  189.6060  177.1390  140.8070 C   0  0  0  0  0  3  0  0  0  0  0  0
  190.9250  177.1410  140.3380 C   0  0  0  0  0  0  0  0  0  0  0  0
  189.3280  177.4790  142.1330 C   0  0  0  0  0  3  0  0  0  0  0  0
  191.9620  177.4790  141.2150 C   0  0  0  0  0  3  0  0  0  0  0  0
  191.6860  177.8240  142.5420 C   0  0  0  0  0  3  0  0  0  0  0  0
  190.3880  176.2410  137.9750 C   0  0  0  0  0  0  0  0  0  0  0  0
  190.8610  175.8070  136.8430 N   0  0  0  0  0  0  0  0  0  0  0  0
  191.2570  176.7670  138.9930 N   0  0  0  0  0  2  0  0  0  0  0  0
  192.5490  176.0070  135.0930 C   0  0  0  0  0  3  0  0  0  0  0  0
  193.8680  175.9250  134.6380 C   0  0  0  0  0  3  0  0  0  0  0  0
  192.2360  175.7170  136.4260 C   0  0  0  0  0  0  0  0  0  0  0  0
  194.8870  175.5490  135.5160 C   0  0  0  0  0  3  0  0  0  0  0  0
  194.5960  175.2490  136.8510 C   0  0  0  0  0  0  0  0  0  0  0  0
  193.2680  175.3330  137.2980 C   0  0  0  0  0  3  0  0  0  0  0  0
  195.6330  174.8770  137.7080 O   0  0  0  0  0  0  0  0  0  0  0  0
  195.4760  173.8820  138.7090 C   0  0  0  0  0  1  0  0  0  0  0  0
  188.9050  176.2280  138.1590 C   0  0  0  0  0  2  0  0  0  0  0  0
  188.2180  177.0680  137.0910 C   0  0  1  0  0  3  0  0  0  0  0  0
  185.2060  178.6280  138.7090 C   0  0  0  0  0  3  0  0  0  0  0  0
  183.8810  178.1830  138.8010 C   0  0  0  0  0  3  0  0  0  0  0  0
  186.9670  176.0330  136.2330 S   0  0  0  0  0  0  0  0  0  0  0  0
  184.3830  176.3460  137.2860 C   0  0  0  0  0  3  0  0  0  0  0  0
  185.6980  176.8100  137.1970 C   0  0  0  0  0  0  0  0  0  0  0  0
  183.4710  177.0410  138.0910 C   0  0  0  0  0  3  0  0  0  0  0  0
  186.1050  177.9220  137.9040 C   0  0  0  0  0  0  0  0  0  0  0  0
  187.5310  178.2800  137.7340 C   0  0  0  0  0  2  0  0  0  0  0  0
  190.1180  178.1740  144.3780 N   0  0  0  0  0  2  0  0  0  0  0  0
  190.4150  177.3700  145.5320 C   0  0  0  0  0  0  0  0  0  0  0  0
  191.0030  176.2570  145.4250 O   0  0  0  0  0  0  0  0  0  0  0  0
  190.0470  177.8680  146.8900 C   0  0  0  0  0  2  0  0  0  0  0  0
  188.5850  177.7080  147.1620 C   0  0  0  0  0  0  0  0  0  0  0  0
  188.2030  176.8000  147.9490 O   0  0  0  0  0  0  0  0  0  0  0  0
  187.6340  178.6040  146.5780 N   0  0  0  0  0  2  0  0  0  0  0  0
  186.2060  178.5070  146.8400 C   0  0  1  0  0  3  0  0  0  0  0  0
  185.6800  179.7810  147.0680 O   0  0  0  0  0  1  0  0  0  0  0  0
  186.1180  179.0270  142.2350 C   0  0  0  0  0  1  0  0  0  0  0  0
  186.2750  177.9740  144.4330 N   0  0  0  0  0  0  0  0  0  0  0  0
  185.4970  177.8320  145.6680 C   0  0  2  0  0  3  0  0  0  0  0  0
  183.8180  178.5200  145.4840 S   0  0  0  0  0  0  0  0  0  0  0  0
  185.3670  178.2890  143.3340 C   0  0  1  0  0  3  0  0  0  0  0  0
  183.0340  179.0520  142.9390 C   0  0  0  0  0  1  0  0  0  0  0  0
  186.8560  176.6720  144.1490 C   0  0  0  0  0  1  0  0  0  0  0  0
  184.2410  179.1490  143.8520 C   0  0  1  0  0  3  0  0  0  0  0  0
  1 28  1  0  0  0  0
  2  4  1  0  0  0  0
  3  2  2  0  0  0  0
  3  5  1  0  0  0  0
  4  1  2  0  0  0  0
  5  6  2  0  0  0  0
  6  1  1  0  0  0  0
  7 18  1  0  0  0  0
  7  9  1  0  0  0  0
  8  7  2  0  0  0  0
  9  3  1  0  0  0  0
 10 12  1  0  0  0  0
 11 10  2  0  0  0  0
 11 13  1  0  0  0  0
 12  8  1  0  0  0  0
 12 15  2  0  0  0  0
 13 14  2  0  0  0  0
 14 15  1  0  0  0  0
 14 16  1  0  0  0  0
 16 17  1  0  0  0  0
 19 27  1  0  0  0  0
 19 18  1  1  0  0  0
 20 21  1  0  0  0  0
 22 19  1  0  0  0  0
 22 24  1  0  0  0  0
 23 25  1  0  0  0  0
 24 23  2  0  0  0  0
 24 26  1  0  0  0  0
 25 21  2  0  0  0  0
 26 20  2  0  0  0  0
 27 26  1  0  0  0  0
 28 29  1  0  0  0  0
 29 31  1  0  0  0  0
 30 29  2  0  0  0  0
 31 32  1  0  0  0  0
 32 33  2  0  0  0  0
 34 35  1  0  0  0  0
 34 32  1  0  0  0  0
 35 36  1  6  0  0  0
 38 39  1  0  0  0  0
 39 35  1  1  0  0  0
 40 39  1  0  0  0  0
 41 37  1  6  0  0  0
 41 44  1  0  0  0  0
 41 38  1  0  0  0  0
 43 38  1  0  0  0  0
 44 42  1  6  0  0  0
 44 40  1  0  0  0  0
M  END
>  <MODEL>
6

>  <REMARK>
 VINA RESULT:      -8.6      3.618      8.241
  Name = 
  10 active torsions:
  status: ('A' for Active; 'I' for Inactive)
    1  A    between atoms: C_2  and  C_13
    2  A    between atoms: C_2  and  N_26
    3  A    between atoms: C_3  and  N_32
    4  A    between atoms: C_4  and  C_36
    5  A    between atoms: C_11  and  C_12
    6  A    between atoms: C_11  and  C_41
    7  A    between atoms: C_17  and  C_36
    8  A    between atoms: C_18  and  N_29
    9  A    between atoms: N_20  and  C_23
   10  A    between atoms: C_37  and  O_40
                            x       y       z     vdW  Elec       q    Type
                         _______ _______ _______ _____ _____    ______ ____

>  <TORSDO>
F 10

$$$$
=
 OpenBabel11042412193D

 44 48  0  0  1  0  0  0  0  0999 V2000
  187.2680  176.0400  136.9400 C   0  0  0  0  0  0  0  0  0  0  0  0
  184.9110  176.3710  137.4310 C   0  0  0  0  0  3  0  0  0  0  0  0
  185.1490  177.7210  137.7180 C   0  0  0  0  0  0  0  0  0  0  0  0
  185.9630  175.5350  137.0460 C   0  0  0  0  0  3  0  0  0  0  0  0
  186.4500  178.2240  137.6070 C   0  0  0  0  0  3  0  0  0  0  0  0
  187.5050  177.3880  137.2250 C   0  0  0  0  0  3  0  0  0  0  0  0
  183.4990  178.8140  139.3810 C   0  0  0  0  0  0  0  0  0  0  0  0
  182.4440  179.5610  139.5340 N   0  0  0  0  0  0  0  0  0  0  0  0
  184.0930  178.6190  138.0860 N   0  0  0  0  0  2  0  0  0  0  0  0
  181.1200  179.4920  137.4870 C   0  0  0  0  0  3  0  0  0  0  0  0
  180.3780  180.1130  136.4770 C   0  0  0  0  0  3  0  0  0  0  0  0
  181.6820  180.2460  138.5220 C   0  0  0  0  0  0  0  0  0  0  0  0
  180.1950  181.4980  136.4950 C   0  0  0  0  0  3  0  0  0  0  0  0
  180.7530  182.2710  137.5180 C   0  0  0  0  0  0  0  0  0  0  0  0
  181.4970  181.6390  138.5270 C   0  0  0  0  0  3  0  0  0  0  0  0
  180.5550  183.6520  137.5140 O   0  0  0  0  0  0  0  0  0  0  0  0
  181.5000  184.5580  136.9630 C   0  0  0  0  0  1  0  0  0  0  0  0
  184.1070  178.2110  140.6060 C   0  0  0  0  0  2  0  0  0  0  0  0
  184.9630  179.2300  141.3450 C   0  0  1  0  0  3  0  0  0  0  0  0
  188.1410  177.4760  142.3140 C   0  0  0  0  0  3  0  0  0  0  0  0
  188.4830  176.7750  143.4770 C   0  0  0  0  0  3  0  0  0  0  0  0
  184.5960  179.1230  143.1410 S   0  0  0  0  0  0  0  0  0  0  0  0
  186.4100  177.4900  144.5300 C   0  0  0  0  0  3  0  0  0  0  0  0
  186.0890  178.1920  143.3660 C   0  0  0  0  0  0  0  0  0  0  0  0
  187.6170  176.7800  144.5830 C   0  0  0  0  0  3  0  0  0  0  0  0
  186.9320  178.1770  142.2750 C   0  0  0  0  0  0  0  0  0  0  0  0
  186.4500  178.9430  141.1040 C   0  0  0  0  0  2  0  0  0  0  0  0
  188.3680  175.2110  136.5440 N   0  0  0  0  0  2  0  0  0  0  0  0
  189.5970  175.0230  137.2670 C   0  0  0  0  0  0  0  0  0  0  0  0
  189.7850  175.5580  138.3950 O   0  0  0  0  0  0  0  0  0  0  0  0
  190.6650  174.1560  136.6890 C   0  0  0  0  0  2  0  0  0  0  0  0
  191.9730  174.8750  136.5950 C   0  0  0  0  0  0  0  0  0  0  0  0
  192.0620  175.8930  135.8560 O   0  0  0  0  0  0  0  0  0  0  0  0
  193.0960  174.4470  137.3710 N   0  0  0  0  0  2  0  0  0  0  0  0
  194.3780  175.1350  137.3370 C   0  0  1  0  0  3  0  0  0  0  0  0
  194.8320  175.3540  138.6390 O   0  0  0  0  0  1  0  0  0  0  0  0
  198.8870  174.1320  137.7080 C   0  0  0  0  0  1  0  0  0  0  0  0
  196.4810  173.8490  137.4060 N   0  0  0  0  0  0  0  0  0  0  0  0
  195.3950  174.3200  136.5400 C   0  0  2  0  0  3  0  0  0  0  0  0
  196.0300  175.3170  135.1510 S   0  0  0  0  0  0  0  0  0  0  0  0
  197.7510  174.0110  136.7040 C   0  0  1  0  0  3  0  0  0  0  0  0
  198.7090  175.1740  134.7260 C   0  0  0  0  0  1  0  0  0  0  0  0
  196.2770  172.4220  137.5990 C   0  0  0  0  0  1  0  0  0  0  0  0
  197.6890  175.2510  135.8470 C   0  0  1  0  0  3  0  0  0  0  0  0
  1  4  2  0  0  0  0
  1  6  1  0  0  0  0
  2  3  2  0  0  0  0
  3  9  1  0  0  0  0
  4  2  1  0  0  0  0
  5  3  1  0  0  0  0
  6  5  2  0  0  0  0
  7  8  2  0  0  0  0
  7 18  1  0  0  0  0
  9  7  1  0  0  0  0
 10 12  1  0  0  0  0
 11 13  1  0  0  0  0
 11 10  2  0  0  0  0
 12 15  2  0  0  0  0
 12  8  1  0  0  0  0
 13 14  2  0  0  0  0
 14 15  1  0  0  0  0
 16 14  1  0  0  0  0
 17 16  1  0  0  0  0
 19 18  1  6  0  0  0
 19 22  1  0  0  0  0
 20 21  1  0  0  0  0
 21 25  2  0  0  0  0
 22 24  1  0  0  0  0
 23 25  1  0  0  0  0
 24 23  2  0  0  0  0
 26 20  2  0  0  0  0
 26 24  1  0  0  0  0
 27 19  1  0  0  0  0
 27 26  1  0  0  0  0
 28  1  1  0  0  0  0
 28 29  1  0  0  0  0
 29 30  2  0  0  0  0
 31 29  1  0  0  0  0
 32 31  1  0  0  0  0
 32 34  1  0  0  0  0
 33 32  2  0  0  0  0
 35 34  1  0  0  0  0
 35 36  1  1  0  0  0
 38 43  1  0  0  0  0
 39 35  1  1  0  0  0
 39 38  1  0  0  0  0
 40 44  1  0  0  0  0
 40 39  1  0  0  0  0
 41 38  1  0  0  0  0
 41 37  1  1  0  0  0
 44 42  1  6  0  0  0
 44 41  1  0  0  0  0
M  END
>  <MODEL>
7

>  <REMARK>
 VINA RESULT:      -8.6      5.333     11.794
  Name = 
  10 active torsions:
  status: ('A' for Active; 'I' for Inactive)
    1  A    between atoms: C_2  and  C_13
    2  A    between atoms: C_2  and  N_26
    3  A    between atoms: C_3  and  N_32
    4  A    between atoms: C_4  and  C_36
    5  A    between atoms: C_11  and  C_12
    6  A    between atoms: C_11  and  C_41
    7  A    between atoms: C_17  and  C_36
    8  A    between atoms: C_18  and  N_29
    9  A    between atoms: N_20  and  C_23
   10  A    between atoms: C_37  and  O_40
                            x       y       z     vdW  Elec       q    Type
                         _______ _______ _______ _____ _____    ______ ____

>  <TORSDO>
F 10

$$$$
=
 OpenBabel11042412193D

 44 48  0  0  1  0  0  0  0  0999 V2000
  188.5950  178.1390  139.2330 C   0  0  0  0  0  0  0  0  0  0  0  0
  187.5490  178.6780  141.3580 C   0  0  0  0  0  3  0  0  0  0  0  0
  186.2830  178.6270  140.7610 C   0  0  0  0  0  0  0  0  0  0  0  0
  188.6970  178.4380  140.6000 C   0  0  0  0  0  3  0  0  0  0  0  0
  186.1820  178.3240  139.3990 C   0  0  0  0  0  3  0  0  0  0  0  0
  187.3300  178.0870  138.6370 C   0  0  0  0  0  3  0  0  0  0  0  0
  184.9040  178.8270  142.9380 C   0  0  0  0  0  0  0  0  0  0  0  0
  183.7190  178.8860  143.4730 N   0  0  0  0  0  0  0  0  0  0  0  0
  185.0780  178.8360  141.5110 N   0  0  0  0  0  2  0  0  0  0  0  0
  181.3040  179.2180  143.5690 C   0  0  0  0  0  3  0  0  0  0  0  0
  180.0400  179.2480  142.9730 C   0  0  0  0  0  3  0  0  0  0  0  0
  182.4400  178.9130  142.8110 C   0  0  0  0  0  0  0  0  0  0  0  0
  179.9030  178.9710  141.6110 C   0  0  0  0  0  3  0  0  0  0  0  0
  181.0240  178.6580  140.8370 C   0  0  0  0  0  0  0  0  0  0  0  0
  182.2890  178.6290  141.4440 C   0  0  0  0  0  3  0  0  0  0  0  0
  180.8600  178.3850  139.4780 O   0  0  0  0  0  0  0  0  0  0  0  0
  181.8430  178.7180  138.5080 C   0  0  0  0  0  1  0  0  0  0  0  0
  186.0810  178.8090  143.8580 C   0  0  0  0  0  2  0  0  0  0  0  0
  186.1730  177.4810  144.5960 C   0  0  1  0  0  3  0  0  0  0  0  0
  187.5590  178.2300  148.0080 C   0  0  0  0  0  3  0  0  0  0  0  0
  188.8780  178.2530  148.4770 C   0  0  0  0  0  3  0  0  0  0  0  0
  187.8340  176.7540  144.3050 S   0  0  0  0  0  0  0  0  0  0  0  0
  189.6560  177.3350  146.3620 C   0  0  0  0  0  3  0  0  0  0  0  0
  188.3330  177.3090  145.9140 C   0  0  0  0  0  0  0  0  0  0  0  0
  189.9260  177.8070  147.6530 C   0  0  0  0  0  3  0  0  0  0  0  0
  187.3050  177.7590  146.7170 C   0  0  0  0  0  0  0  0  0  0  0  0
  185.9610  177.6970  146.1000 C   0  0  0  0  0  2  0  0  0  0  0  0
  189.7520  177.8840  138.4260 N   0  0  0  0  0  2  0  0  0  0  0  0
  190.7060  176.8250  138.6140 C   0  0  0  0  0  0  0  0  0  0  0  0
  190.5550  175.9570  139.5200 O   0  0  0  0  0  0  0  0  0  0  0  0
  191.8850  176.7270  137.7060 C   0  0  0  0  0  2  0  0  0  0  0  0
  192.2060  175.3070  137.3640 C   0  0  0  0  0  0  0  0  0  0  0  0
  191.3120  174.5830  136.8480 O   0  0  0  0  0  0  0  0  0  0  0  0
  193.5240  174.7890  137.5710 N   0  0  0  0  0  2  0  0  0  0  0  0
  193.8900  173.4240  137.2220 C   0  0  1  0  0  3  0  0  0  0  0  0
  194.1800  173.3460  135.8580 O   0  0  0  0  0  1  0  0  0  0  0  0
  198.4110  174.4250  137.4160 C   0  0  0  0  0  1  0  0  0  0  0  0
  196.1100  174.0150  138.1210 N   0  0  0  0  0  0  0  0  0  0  0  0
  195.0850  172.9670  138.0560 C   0  0  2  0  0  3  0  0  0  0  0  0
  195.7570  171.4160  137.3710 S   0  0  0  0  0  0  0  0  0  0  0  0
  197.4260  173.4020  137.9600 C   0  0  1  0  0  3  0  0  0  0  0  0
  198.4640  171.2670  137.2220 C   0  0  0  0  0  1  0  0  0  0  0  0
  196.0570  174.5730  139.4630 C   0  0  0  0  0  1  0  0  0  0  0  0
  197.3170  172.2370  137.0090 C   0  0  1  0  0  3  0  0  0  0  0  0
  1  4  1  0  0  0  0
  3  2  1  0  0  0  0
  3  9  1  0  0  0  0
  4  2  2  0  0  0  0
  5  3  2  0  0  0  0
  6  1  2  0  0  0  0
  6  5  1  0  0  0  0
  7  8  2  0  0  0  0
  7 18  1  0  0  0  0
  9  7  1  0  0  0  0
 11 10  1  0  0  0  0
 12  8  1  0  0  0  0
 12 10  2  0  0  0  0
 13 11  2  0  0  0  0
 14 15  2  0  0  0  0
 14 13  1  0  0  0  0
 15 12  1  0  0  0  0
 16 14  1  0  0  0  0
 17 16  1  0  0  0  0
 19 18  1  6  0  0  0
 19 27  1  0  0  0  0
 20 21  1  0  0  0  0
 22 19  1  0  0  0  0
 22 24  1  0  0  0  0
 23 25  1  0  0  0  0
 24 23  2  0  0  0  0
 24 26  1  0  0  0  0
 25 21  2  0  0  0  0
 26 20  2  0  0  0  0
 27 26  1  0  0  0  0
 28 29  1  0  0  0  0
 28  1  1  0  0  0  0
 29 30  2  0  0  0  0
 31 29  1  0  0  0  0
 32 34  1  0  0  0  0
 32 31  1  0  0  0  0
 33 32  2  0  0  0  0
 35 36  1  6  0  0  0
 35 34  1  0  0  0  0
 38 43  1  0  0  0  0
 39 35  1  6  0  0  0
 39 38  1  0  0  0  0
 40 39  1  0  0  0  0
 41 37  1  6  0  0  0
 41 38  1  0  0  0  0
 44 42  1  1  0  0  0
 44 40  1  0  0  0  0
 44 41  1  0  0  0  0
M  END
>  <MODEL>
8

>  <REMARK>
 VINA RESULT:      -8.5      5.139     11.247
  Name = 
  10 active torsions:
  status: ('A' for Active; 'I' for Inactive)
    1  A    between atoms: C_2  and  C_13
    2  A    between atoms: C_2  and  N_26
    3  A    between atoms: C_3  and  N_32
    4  A    between atoms: C_4  and  C_36
    5  A    between atoms: C_11  and  C_12
    6  A    between atoms: C_11  and  C_41
    7  A    between atoms: C_17  and  C_36
    8  A    between atoms: C_18  and  N_29
    9  A    between atoms: N_20  and  C_23
   10  A    between atoms: C_37  and  O_40
                            x       y       z     vdW  Elec       q    Type
                         _______ _______ _______ _____ _____    ______ ____

>  <TORSDO>
F 10

$$$$
=
 OpenBabel11042412193D

 44 48  0  0  1  0  0  0  0  0999 V2000
  184.5510  179.1580  143.1690 C   0  0  0  0  0  0  0  0  0  0  0  0
  182.7750  178.6130  141.6030 C   0  0  0  0  0  3  0  0  0  0  0  0
  183.7120  178.4670  140.5730 C   0  0  0  0  0  0  0  0  0  0  0  0
  183.1900  178.9580  142.8920 C   0  0  0  0  0  3  0  0  0  0  0  0
  185.0700  178.6620  140.8510 C   0  0  0  0  0  3  0  0  0  0  0  0
  185.4870  179.0100  142.1400 C   0  0  0  0  0  3  0  0  0  0  0  0
  182.5010  178.7990  138.3130 C   0  0  0  0  0  0  0  0  0  0  0  0
  182.1200  178.2560  137.1940 N   0  0  0  0  0  0  0  0  0  0  0  0
  183.3300  178.0830  139.2440 N   0  0  0  0  0  2  0  0  0  0  0  0
  183.5410  176.6930  135.9750 C   0  0  0  0  0  3  0  0  0  0  0  0
  183.8290  175.4170  135.4820 C   0  0  0  0  0  3  0  0  0  0  0  0
  182.3760  176.9220  136.7150 C   0  0  0  0  0  0  0  0  0  0  0  0
  182.9510  174.3590  135.7240 C   0  0  0  0  0  3  0  0  0  0  0  0
  181.7780  174.5680  136.4570 C   0  0  0  0  0  0  0  0  0  0  0  0
  181.4960  175.8520  136.9480 C   0  0  0  0  0  3  0  0  0  0  0  0
  180.9170  173.4930  136.6870 O   0  0  0  0  0  0  0  0  0  0  0  0
  180.3640  173.2170  137.9660 C   0  0  0  0  0  1  0  0  0  0  0  0
  182.0960  180.2140  138.5720 C   0  0  0  0  0  2  0  0  0  0  0  0
  180.6730  180.4680  138.0950 C   0  0  1  0  0  3  0  0  0  0  0  0
  180.8840  183.0710  135.3930 C   0  0  0  0  0  3  0  0  0  0  0  0
  180.8040  184.4680  135.4580 C   0  0  0  0  0  3  0  0  0  0  0  0
  179.9530  181.8410  139.0790 S   0  0  0  0  0  0  0  0  0  0  0  0
  180.1820  184.3340  137.8060 C   0  0  0  0  0  3  0  0  0  0  0  0
  180.2560  182.9410  137.7220 C   0  0  0  0  0  0  0  0  0  0  0  0
  180.4550  185.0980  136.6640 C   0  0  0  0  0  3  0  0  0  0  0  0
  180.6110  182.3220  136.5410 C   0  0  0  0  0  0  0  0  0  0  0  0
  180.6750  180.8450  136.6080 C   0  0  0  0  0  2  0  0  0  0  0  0
  185.0120  179.5090  144.4790 N   0  0  0  0  0  2  0  0  0  0  0  0
  184.8820  178.7140  145.6710 C   0  0  0  0  0  0  0  0  0  0  0  0
  184.3750  177.5570  145.6370 O   0  0  0  0  0  0  0  0  0  0  0  0
  185.3790  179.2500  146.9710 C   0  0  0  0  0  2  0  0  0  0  0  0
  186.7530  178.7500  147.2870 C   0  0  0  0  0  0  0  0  0  0  0  0
  187.2740  179.0480  148.3960 O   0  0  0  0  0  0  0  0  0  0  0  0
  187.4490  177.9030  146.3670 N   0  0  0  0  0  2  0  0  0  0  0  0
  188.7720  177.3670  146.6460 C   0  0  1  0  0  3  0  0  0  0  0  0
  188.6950  176.4320  147.6820 O   0  0  0  0  0  1  0  0  0  0  0  0
  191.6800  178.6840  143.2870 C   0  0  0  0  0  1  0  0  0  0  0  0
  190.6530  177.3450  145.0510 N   0  0  0  0  0  0  0  0  0  0  0  0
  189.3640  176.7330  145.3890 C   0  0  2  0  0  3  0  0  0  0  0  0
  188.1760  176.8690  144.0130 S   0  0  0  0  0  0  0  0  0  0  0  0
  190.7140  177.5530  143.6070 C   0  0  1  0  0  3  0  0  0  0  0  0
  189.2280  177.5890  141.6140 C   0  0  0  0  0  1  0  0  0  0  0  0
  191.6820  176.3740  145.3880 C   0  0  0  0  0  1  0  0  0  0  0  0
  189.3370  177.8950  143.0960 C   0  0  1  0  0  3  0  0  0  0  0  0
  1 28  1  0  0  0  0
  2  4  2  0  0  0  0
  3  5  2  0  0  0  0
  3  2  1  0  0  0  0
  4  1  1  0  0  0  0
  5  6  1  0  0  0  0
  6  1  2  0  0  0  0
  7 18  1  0  0  0  0
  7  9  1  0  0  0  0
  8  7  2  0  0  0  0
  9  3  1  0  0  0  0
 10 12  1  0  0  0  0
 11 13  1  0  0  0  0
 11 10  2  0  0  0  0
 12 15  2  0  0  0  0
 12  8  1  0  0  0  0
 13 14  2  0  0  0  0
 14 16  1  0  0  0  0
 14 15  1  0  0  0  0
 16 17  1  0  0  0  0
 19 18  1  1  0  0  0
 19 22  1  0  0  0  0
 20 21  2  0  0  0  0
 20 26  1  0  0  0  0
 21 25  1  0  0  0  0
 24 23  1  0  0  0  0
 24 22  1  0  0  0  0
 25 23  2  0  0  0  0
 26 27  1  0  0  0  0
 26 24  2  0  0  0  0
 27 19  1  0  0  0  0
 28 29  1  0  0  0  0
 29 31  1  0  0  0  0
 30 29  2  0  0  0  0
 31 32  1  0  0  0  0
 32 33  2  0  0  0  0
 34 35  1  0  0  0  0
 34 32  1  0  0  0  0
 35 36  1  1  0  0  0
 38 43  1  0  0  0  0
 38 39  1  0  0  0  0
 39 35  1  1  0  0  0
 40 39  1  0  0  0  0
 41 37  1  1  0  0  0
 41 38  1  0  0  0  0
 44 42  1  6  0  0  0
 44 41  1  0  0  0  0
 44 40  1  0  0  0  0
M  END
>  <MODEL>
9

>  <REMARK>
 VINA RESULT:      -8.4      3.084      9.893
  Name = 
  10 active torsions:
  status: ('A' for Active; 'I' for Inactive)
    1  A    between atoms: C_2  and  C_13
    2  A    between atoms: C_2  and  N_26
    3  A    between atoms: C_3  and  N_32
    4  A    between atoms: C_4  and  C_36
    5  A    between atoms: C_11  and  C_12
    6  A    between atoms: C_11  and  C_41
    7  A    between atoms: C_17  and  C_36
    8  A    between atoms: C_18  and  N_29
    9  A    between atoms: N_20  and  C_23
   10  A    between atoms: C_37  and  O_40
                            x       y       z     vdW  Elec       q    Type
                         _______ _______ _______ _____ _____    ______ ____

>  <TORSDO>
F 10

$$$$
