=
 OpenBabel11032419363D

 49 52  0  0  1  0  0  0  0  0999 V2000
  188.4270  177.8690  138.1980 C   0  0  1  0  0  3  0  0  0  0  0  0
  186.0760  177.2120  137.7780 O   0  0  0  0  0  0  0  0  0  0  0  0
  187.3400  177.1640  137.4480 C   0  0  0  0  0  0  0  0  0  0  0  0
  187.4730  176.3780  136.3150 C   0  0  0  0  0  3  0  0  0  0  0  0
  186.2620  175.9630  136.0060 O   0  0  0  0  0  0  0  0  0  0  0  0
  185.4470  176.4740  136.8940 C   0  0  0  0  0  0  0  0  0  0  0  0
  184.1650  176.2570  136.8870 N   0  0  0  0  0  0  0  0  0  0  0  0
  182.9140  176.2160  139.0420 C   0  0  0  0  0  3  0  0  0  0  0  0
  182.5620  178.0040  137.4490 C   0  0  0  0  0  3  0  0  0  0  0  0
  181.3320  177.9810  139.5470 C   0  0  0  0  0  0  0  0  0  0  0  0
  183.2060  176.8130  137.8020 C   0  0  0  0  0  0  0  0  0  0  0  0
  181.9800  176.7950  139.9070 C   0  0  0  0  0  3  0  0  0  0  0  0
  181.6160  178.5940  138.3070 C   0  0  0  0  0  0  0  0  0  0  0  0
  182.7180  181.4180  138.7130 N   0  0  0  0  0  1  0  0  0  0  0  0
  180.6800  182.1290  137.8670 O   0  0  0  0  0  0  0  0  0  0  0  0
  180.9530  179.8200  137.9570 N   0  0  0  0  0  2  0  0  0  0  0  0
  181.4250  181.1620  138.1580 C   0  0  0  0  0  0  0  0  0  0  0  0
  180.3140  178.5600  140.4780 C   0  0  0  0  0  2  0  0  0  0  0  0
  179.8220  179.8050  142.8510 S   0  0  0  0  0  1  0  0  0  0  0  0
  180.9830  179.4510  141.5060 C   0  0  0  0  0  2  0  0  0  0  0  0
  187.8220  178.7160  139.2200 N   0  0  0  0  0  2  0  0  0  0  0  0
  188.3330  178.3040  140.5290 C   0  0  0  0  0  2  0  0  0  0  0  0
  187.2750  177.7890  141.4170 N   0  0  0  0  0  0  0  0  0  0  0  0
  184.9850  178.6650  141.2690 C   0  0  0  0  0  2  0  0  0  0  0  0
  185.2560  178.2090  142.6910 C   0  0  1  0  0  3  0  0  0  0  0  0
  186.3700  178.8410  141.8730 C   0  0  1  0  0  3  0  0  0  0  0  0
  184.7800  179.1720  143.6230 O   0  0  0  0  0  0  0  0  0  0  0  0
  182.6990  178.5320  144.3980 O   0  0  0  0  0  0  0  0  0  0  0  0
  183.8990  178.8450  144.6540 C   0  0  0  0  0  0  0  0  0  0  0  0
  184.3580  178.9940  146.0370 C   0  0  0  0  0  3  0  0  0  0  0  0
  185.4290  178.4200  146.6050 C   0  0  0  0  0  3  0  0  0  0  0  0
  186.4440  177.6550  145.9400 N   0  0  0  0  0  2  0  0  0  0  0  0
  187.8600  177.6930  146.2470 C   0  0  0  0  0  2  0  0  0  0  0  0
  188.0490  178.1910  147.5440 O   0  0  0  0  0  0  0  0  0  0  0  0
  189.0810  177.4780  148.0380 N   0  0  0  0  0  2  0  0  0  0  0  0
  189.9600  177.1720  146.9250 C   0  0  0  0  0  2  0  0  0  0  0  0
  191.2080  176.5290  147.4260 C   0  0  0  0  0  3  0  0  0  0  0  0
  192.0050  175.8570  146.5940 C   0  0  0  0  0  2  0  0  0  0  0  0
  187.9210  177.2310  142.5920 C   0  0  0  0  0  2  0  0  0  0  0  0
  189.2710  176.6620  142.2030 C   0  0  0  0  0  2  0  0  0  0  0  0
  190.2120  176.7560  143.3850 C   0  0  0  0  0  2  0  0  0  0  0  0
  191.8390  178.4310  144.0130 N   0  0  0  0  0  1  0  0  0  0  0  0
  191.9860  177.5950  141.8170 N   0  0  0  0  0  2  0  0  0  0  0  0
  191.3340  177.6900  143.0750 C   0  0  0  0  0  0  0  0  0  0  0  0
  189.2910  176.9520  138.8020 O   0  0  0  0  0  0  0  0  0  0  0  0
  190.7450  175.4110  137.7480 C   0  0  0  0  0  2  0  0  0  0  0  0
  190.3930  176.8680  137.9420 C   0  0  2  0  0  3  0  0  0  0  0  0
  192.8490  176.6670  137.9860 C   0  0  0  0  0  1  0  0  0  0  0  0
  191.5690  176.2640  138.6860 C   0  0  2  0  0  3  0  0  0  0  0  0
  1 45  1  1  0  0  0
  1 21  1  0  0  0  0
  3  2  1  0  0  0  0
  3  1  1  0  0  0  0
  4  3  2  0  0  0  0
  5  4  1  0  0  0  0
  5  6  1  0  0  0  0
  6  2  1  0  0  0  0
  7  6  2  0  0  0  0
  7 11  1  0  0  0  0
  8 12  1  0  0  0  0
  9 11  1  0  0  0  0
  9 13  2  0  0  0  0
 10 12  2  0  0  0  0
 10 18  1  0  0  0  0
 11  8  2  0  0  0  0
 13 10  1  0  0  0  0
 15 17  2  0  0  0  0
 16 17  1  0  0  0  0
 16 13  1  0  0  0  0
 17 14  1  0  0  0  0
 18 20  1  0  0  0  0
 20 19  1  0  0  0  0
 21 22  1  0  0  0  0
 22 23  1  0  0  0  0
 23 39  1  0  0  0  0
 24 26  1  0  0  0  0
 24 25  1  0  0  0  0
 25 27  1  1  0  0  0
 26 23  1  6  0  0  0
 26 25  1  0  0  0  0
 27 29  1  0  0  0  0
 28 29  2  0  0  0  0
 29 30  1  0  0  0  0
 30 31  2  0  0  0  0
 32 33  1  0  0  0  0
 32 31  1  0  0  0  0
 33 34  1  0  0  0  0
 34 35  1  0  0  0  0
 36 37  1  0  0  0  0
 36 35  1  0  0  0  0
 38 37  2  0  0  0  0
 40 39  1  0  0  0  0
 40 41  1  0  0  0  0
 43 44  2  0  0  0  0
 44 41  1  0  0  0  0
 44 42  1  0  0  0  0
 46 47  1  0  0  0  0
 46 49  1  0  0  0  0
 47 49  1  0  0  0  0
 47 45  1  1  0  0  0
 49 48  1  6  0  0  0
M  END
>  <MODEL>
1

>  <REMARK>
 VINA RESULT:      -6.6      0.000      0.000
  Name = 
  24 active torsions:
  status: ('A' for Active; 'I' for Inactive)
    1  A    between atoms: O_1  and  C_22
    2  A    between atoms: O_1  and  C_24
    3  A    between atoms: C_5  and  N_17
    4  A    between atoms: C_5  and  N_42
    5  A    between atoms: N_6  and  C_33
    6  A    between atoms: N_6  and  C_43
    7  A    between atoms: O_10  and  C_12
    8  A    between atoms: O_10  and  C_34
    9  A    between atoms: C_12  and  C_37
   10  A    between atoms: C_13  and  C_19
   11  A    between atoms: C_13  and  C_25
   12  A    between atoms: C_15  and  C_22
   13  A    between atoms: C_16  and  C_35
   14  A    between atoms: N_17  and  C_29
   15  A    between atoms: N_17  and  C_44
   16  A    between atoms: C_19  and  C_29
   17  A    between atoms: C_22  and  N_42
   18  A    between atoms: C_23  and  C_39
   19  A    between atoms: C_23  and  N_49
   20  A    between atoms: C_27  and  N_45
   21  A    between atoms: N_31  and  C_32
   22  A    between atoms: C_33  and  O_46
   23  A    between atoms: C_35  and  C_38
   24  A    between atoms: O_46  and  N_49
                            x       y       z     vdW  Elec       q    Type
                         _______ _______ _______ _____ _____    ______ ____

>  <TORSDO>
F 24

$$$$
=
 OpenBabel11032419363D

 49 52  0  0  1  0  0  0  0  0999 V2000
  190.2010  177.1300  142.6820 C   0  0  1  0  0  3  0  0  0  0  0  0
  190.0020  176.9950  140.2170 O   0  0  0  0  0  0  0  0  0  0  0  0
  190.7400  177.1480  141.2850 C   0  0  0  0  0  0  0  0  0  0  0  0
  192.0560  177.3310  140.8930 C   0  0  0  0  0  3  0  0  0  0  0  0
  192.0640  177.2670  139.5780 O   0  0  0  0  0  0  0  0  0  0  0  0
  190.8260  177.0670  139.1990 C   0  0  0  0  0  0  0  0  0  0  0  0
  190.4780  176.9470  137.9520 N   0  0  0  0  0  0  0  0  0  0  0  0
  188.1740  177.7860  137.5040 C   0  0  0  0  0  3  0  0  0  0  0  0
  188.8020  175.5300  136.8940 C   0  0  0  0  0  3  0  0  0  0  0  0
  186.5490  176.3310  136.4490 C   0  0  0  0  0  0  0  0  0  0  0  0
  189.1400  176.7640  137.4590 C   0  0  0  0  0  0  0  0  0  0  0  0
  186.8860  177.5690  137.0050 C   0  0  0  0  0  3  0  0  0  0  0  0
  187.5080  175.2950  136.3940 C   0  0  0  0  0  0  0  0  0  0  0  0
  186.2170  172.9340  137.8460 N   0  0  0  0  0  1  0  0  0  0  0  0
  186.3990  171.8310  135.8150 O   0  0  0  0  0  0  0  0  0  0  0  0
  187.1520  174.0330  135.8070 N   0  0  0  0  0  2  0  0  0  0  0  0
  186.5730  172.8930  136.4620 C   0  0  0  0  0  0  0  0  0  0  0  0
  185.1540  176.1160  135.9530 C   0  0  0  0  0  2  0  0  0  0  0  0
  182.5230  176.8180  136.0350 S   0  0  0  0  0  1  0  0  0  0  0  0
  184.2400  177.2200  136.4480 C   0  0  0  0  0  2  0  0  0  0  0  0
  188.8130  176.6830  142.6470 N   0  0  0  0  0  2  0  0  0  0  0  0
  187.9480  177.8590  142.5240 C   0  0  0  0  0  2  0  0  0  0  0  0
  186.5300  177.5510  142.7830 N   0  0  0  0  0  0  0  0  0  0  0  0
  185.1790  178.9840  141.3140 C   0  0  0  0  0  2  0  0  0  0  0  0
  184.2750  178.3230  142.3390 C   0  0  1  0  0  3  0  0  0  0  0  0
  185.6830  178.7410  142.7280 C   0  0  1  0  0  3  0  0  0  0  0  0
  183.3600  179.2670  142.8790 O   0  0  0  0  0  0  0  0  0  0  0  0
  183.1980  179.1350  145.1810 O   0  0  0  0  0  0  0  0  0  0  0  0
  182.6400  179.0260  144.0500 C   0  0  0  0  0  0  0  0  0  0  0  0
  181.2690  178.5240  143.9340 C   0  0  0  0  0  3  0  0  0  0  0  0
  180.1910  179.1940  143.4980 C   0  0  0  0  0  3  0  0  0  0  0  0
  180.1770  180.5020  142.9090 N   0  0  0  0  0  2  0  0  0  0  0  0
  179.3500  180.9090  141.7890 C   0  0  0  0  0  2  0  0  0  0  0  0
  180.1320  180.9850  140.6280 O   0  0  0  0  0  0  0  0  0  0  0  0
  179.6430  180.0210  139.8220 N   0  0  0  0  0  2  0  0  0  0  0  0
  180.7260  179.0910  139.5650 C   0  0  0  0  0  2  0  0  0  0  0  0
  181.6100  179.6250  138.4900 C   0  0  0  0  0  3  0  0  0  0  0  0
  182.8230  180.0980  138.7830 C   0  0  0  0  0  2  0  0  0  0  0  0
  186.4360  177.0110  144.1270 C   0  0  0  0  0  2  0  0  0  0  0  0
  186.6070  178.1310  145.1340 C   0  0  0  0  0  2  0  0  0  0  0  0
  187.4430  177.6360  146.2950 C   0  0  0  0  0  2  0  0  0  0  0  0
  186.0110  179.0670  147.6190 N   0  0  0  0  0  2  0  0  0  0  0  0
  187.9840  178.3050  148.6550 N   0  0  0  0  0  1  0  0  0  0  0  0
  187.1400  178.4320  147.5200 C   0  0  0  0  0  0  0  0  0  0  0  0
  190.9480  176.2710  143.4930 O   0  0  0  0  0  0  0  0  0  0  0  0
  191.3340  177.8820  145.1830 C   0  0  0  0  0  2  0  0  0  0  0  0
  190.6010  176.6150  144.8050 C   0  0  2  0  0  3  0  0  0  0  0  0
  191.3960  176.3710  147.1250 C   0  0  0  0  0  1  0  0  0  0  0  0
  191.8330  176.5470  145.6880 C   0  0  2  0  0  3  0  0  0  0  0  0
  1 21  1  6  0  0  0
  1 45  1  0  0  0  0
  2  3  1  0  0  0  0
  3  1  1  0  0  0  0
  4  3  2  0  0  0  0
  5  4  1  0  0  0  0
  6  5  1  0  0  0  0
  6  2  1  0  0  0  0
  7  6  2  0  0  0  0
  9 11  2  0  0  0  0
 10 12  1  0  0  0  0
 11  8  1  0  0  0  0
 11  7  1  0  0  0  0
 12  8  2  0  0  0  0
 13 10  2  0  0  0  0
 13  9  1  0  0  0  0
 15 17  2  0  0  0  0
 16 13  1  0  0  0  0
 16 17  1  0  0  0  0
 17 14  1  0  0  0  0
 18 20  1  0  0  0  0
 18 10  1  0  0  0  0
 19 20  1  0  0  0  0
 22 21  1  0  0  0  0
 22 23  1  0  0  0  0
 23 39  1  0  0  0  0
 24 25  1  0  0  0  0
 24 26  1  0  0  0  0
 25 26  1  0  0  0  0
 25 27  1  1  0  0  0
 26 23  1  6  0  0  0
 27 29  1  0  0  0  0
 29 28  2  0  0  0  0
 30 29  1  0  0  0  0
 31 30  2  0  0  0  0
 32 31  1  0  0  0  0
 33 32  1  0  0  0  0
 34 33  1  0  0  0  0
 35 34  1  0  0  0  0
 36 35  1  0  0  0  0
 37 38  2  0  0  0  0
 37 36  1  0  0  0  0
 39 40  1  0  0  0  0
 40 41  1  0  0  0  0
 41 44  1  0  0  0  0
 44 42  2  0  0  0  0
 44 43  1  0  0  0  0
 46 49  1  0  0  0  0
 47 45  1  6  0  0  0
 47 46  1  0  0  0  0
 47 49  1  0  0  0  0
 49 48  1  1  0  0  0
M  END
>  <MODEL>
2

>  <REMARK>
 VINA RESULT:      -6.2      2.486      7.141
  Name = 
  24 active torsions:
  status: ('A' for Active; 'I' for Inactive)
    1  A    between atoms: O_1  and  C_22
    2  A    between atoms: O_1  and  C_24
    3  A    between atoms: C_5  and  N_17
    4  A    between atoms: C_5  and  N_42
    5  A    between atoms: N_6  and  C_33
    6  A    between atoms: N_6  and  C_43
    7  A    between atoms: O_10  and  C_12
    8  A    between atoms: O_10  and  C_34
    9  A    between atoms: C_12  and  C_37
   10  A    between atoms: C_13  and  C_19
   11  A    between atoms: C_13  and  C_25
   12  A    between atoms: C_15  and  C_22
   13  A    between atoms: C_16  and  C_35
   14  A    between atoms: N_17  and  C_29
   15  A    between atoms: N_17  and  C_44
   16  A    between atoms: C_19  and  C_29
   17  A    between atoms: C_22  and  N_42
   18  A    between atoms: C_23  and  C_39
   19  A    between atoms: C_23  and  N_49
   20  A    between atoms: C_27  and  N_45
   21  A    between atoms: N_31  and  C_32
   22  A    between atoms: C_33  and  O_46
   23  A    between atoms: C_35  and  C_38
   24  A    between atoms: O_46  and  N_49
                            x       y       z     vdW  Elec       q    Type
                         _______ _______ _______ _____ _____    ______ ____

>  <TORSDO>
F 24

$$$$
=
 OpenBabel11032419363D

 49 52  0  0  1  0  0  0  0  0999 V2000
  188.6760  177.3350  144.3680 C   0  0  1  0  0  3  0  0  0  0  0  0
  189.9190  177.3470  142.2250 O   0  0  0  0  0  0  0  0  0  0  0  0
  189.9170  177.3800  143.5320 C   0  0  0  0  0  0  0  0  0  0  0  0
  191.2270  177.4710  143.9750 C   0  0  0  0  0  3  0  0  0  0  0  0
  191.9840  177.4760  142.8980 O   0  0  0  0  0  0  0  0  0  0  0  0
  191.1790  177.4020  141.8670 C   0  0  0  0  0  0  0  0  0  0  0  0
  191.6030  177.3780  140.6380 N   0  0  0  0  0  0  0  0  0  0  0  0
  189.6790  178.1900  139.2770 C   0  0  0  0  0  3  0  0  0  0  0  0
  191.1140  176.4260  138.4490 C   0  0  0  0  0  3  0  0  0  0  0  0
  189.2410  177.2050  137.1070 C   0  0  0  0  0  0  0  0  0  0  0  0
  190.7820  177.3360  139.4590 C   0  0  0  0  0  0  0  0  0  0  0  0
  188.9120  178.1220  138.1100 C   0  0  0  0  0  3  0  0  0  0  0  0
  190.3480  176.3430  137.2720 C   0  0  0  0  0  0  0  0  0  0  0  0
  189.6900  173.3570  137.2360 N   0  0  0  0  0  1  0  0  0  0  0  0
  190.8530  173.3190  135.2310 O   0  0  0  0  0  0  0  0  0  0  0  0
  190.6830  175.4150  136.2270 N   0  0  0  0  0  2  0  0  0  0  0  0
  190.4170  174.0040  136.1880 C   0  0  0  0  0  0  0  0  0  0  0  0
  188.3840  177.1320  135.8840 C   0  0  0  0  0  2  0  0  0  0  0  0
  186.5520  175.3520  136.8340 S   0  0  0  0  0  1  0  0  0  0  0  0
  186.9200  177.0330  136.2680 C   0  0  0  0  0  2  0  0  0  0  0  0
  187.6450  176.6030  143.6420 N   0  0  0  0  0  2  0  0  0  0  0  0
  186.9640  177.5310  142.7360 C   0  0  0  0  0  2  0  0  0  0  0  0
  186.2230  178.5850  143.4530 N   0  0  0  0  0  0  0  0  0  0  0  0
  185.1750  178.5020  145.6730 C   0  0  0  0  0  2  0  0  0  0  0  0
  184.2440  179.2100  144.7060 C   0  0  1  0  0  3  0  0  0  0  0  0
  185.1010  178.0520  144.2230 C   0  0  1  0  0  3  0  0  0  0  0  0
  182.9100  178.7460  144.8680 O   0  0  0  0  0  0  0  0  0  0  0  0
  182.1140  179.8090  142.9760 O   0  0  0  0  0  0  0  0  0  0  0  0
  181.9110  179.0000  143.9280 C   0  0  0  0  0  0  0  0  0  0  0  0
  180.5880  178.4080  144.1410 C   0  0  0  0  0  3  0  0  0  0  0  0
  179.6070  178.2610  143.2380 C   0  0  0  0  0  3  0  0  0  0  0  0
  179.6950  178.5160  141.8290 N   0  0  0  0  0  2  0  0  0  0  0  0
  180.1320  177.5600  140.8300 C   0  0  0  0  0  2  0  0  0  0  0  0
  179.0680  177.2600  139.9670 O   0  0  0  0  0  0  0  0  0  0  0  0
  179.5160  176.2360  139.2140 N   0  0  0  0  0  2  0  0  0  0  0  0
  179.6810  175.0970  140.0970 C   0  0  0  0  0  2  0  0  0  0  0  0
  179.6460  173.8330  139.3070 C   0  0  0  0  0  3  0  0  0  0  0  0
  180.2410  173.7600  138.1160 C   0  0  0  0  0  2  0  0  0  0  0  0
  185.6780  179.4920  142.4590 C   0  0  0  0  0  2  0  0  0  0  0  0
  185.7110  178.8270  141.0980 C   0  0  0  0  0  2  0  0  0  0  0  0
  184.2930  178.5780  140.6280 C   0  0  0  0  0  2  0  0  0  0  0  0
  184.2500  180.3520  138.9850 N   0  0  0  0  0  1  0  0  0  0  0  0
  184.0350  178.1560  138.1660 N   0  0  0  0  0  2  0  0  0  0  0  0
  184.1180  179.0850  139.2350 C   0  0  0  0  0  0  0  0  0  0  0  0
  188.9220  176.7060  145.5910 O   0  0  0  0  0  0  0  0  0  0  0  0
  189.8810  177.4820  147.6110 C   0  0  0  0  0  2  0  0  0  0  0  0
  188.8330  177.7230  146.5490 C   0  0  2  0  0  3  0  0  0  0  0  0
  187.8200  178.2090  148.7430 C   0  0  0  0  0  1  0  0  0  0  0  0
  188.4380  177.1250  147.8860 C   0  0  2  0  0  3  0  0  0  0  0  0
  1 21  1  6  0  0  0
  1 45  1  0  0  0  0
  2  3  1  0  0  0  0
  3  4  2  0  0  0  0
  3  1  1  0  0  0  0
  5  4  1  0  0  0  0
  6  2  1  0  0  0  0
  6  5  1  0  0  0  0
  7  6  2  0  0  0  0
  8 11  1  0  0  0  0
  9 11  2  0  0  0  0
 10 13  2  0  0  0  0
 10 12  1  0  0  0  0
 11  7  1  0  0  0  0
 12  8  2  0  0  0  0
 13  9  1  0  0  0  0
 15 17  2  0  0  0  0
 16 13  1  0  0  0  0
 17 16  1  0  0  0  0
 17 14  1  0  0  0  0
 18 20  1  0  0  0  0
 18 10  1  0  0  0  0
 20 19  1  0  0  0  0
 22 23  1  0  0  0  0
 22 21  1  0  0  0  0
 25 27  1  1  0  0  0
 25 24  1  0  0  0  0
 26 23  1  6  0  0  0
 26 25  1  0  0  0  0
 26 24  1  0  0  0  0
 28 29  2  0  0  0  0
 29 30  1  0  0  0  0
 29 27  1  0  0  0  0
 31 30  2  0  0  0  0
 32 31  1  0  0  0  0
 33 32  1  0  0  0  0
 34 33  1  0  0  0  0
 35 34  1  0  0  0  0
 35 36  1  0  0  0  0
 37 36  1  0  0  0  0
 38 37  2  0  0  0  0
 39 23  1  0  0  0  0
 40 39  1  0  0  0  0
 41 40  1  0  0  0  0
 42 44  1  0  0  0  0
 43 44  2  0  0  0  0
 44 41  1  0  0  0  0
 46 49  1  0  0  0  0
 47 45  1  6  0  0  0
 47 46  1  0  0  0  0
 47 49  1  0  0  0  0
 49 48  1  1  0  0  0
M  END
>  <MODEL>
3

>  <REMARK>
 VINA RESULT:      -6.1      2.971      8.533
  Name = 
  24 active torsions:
  status: ('A' for Active; 'I' for Inactive)
    1  A    between atoms: O_1  and  C_22
    2  A    between atoms: O_1  and  C_24
    3  A    between atoms: C_5  and  N_17
    4  A    between atoms: C_5  and  N_42
    5  A    between atoms: N_6  and  C_33
    6  A    between atoms: N_6  and  C_43
    7  A    between atoms: O_10  and  C_12
    8  A    between atoms: O_10  and  C_34
    9  A    between atoms: C_12  and  C_37
   10  A    between atoms: C_13  and  C_19
   11  A    between atoms: C_13  and  C_25
   12  A    between atoms: C_15  and  C_22
   13  A    between atoms: C_16  and  C_35
   14  A    between atoms: N_17  and  C_29
   15  A    between atoms: N_17  and  C_44
   16  A    between atoms: C_19  and  C_29
   17  A    between atoms: C_22  and  N_42
   18  A    between atoms: C_23  and  C_39
   19  A    between atoms: C_23  and  N_49
   20  A    between atoms: C_27  and  N_45
   21  A    between atoms: N_31  and  C_32
   22  A    between atoms: C_33  and  O_46
   23  A    between atoms: C_35  and  C_38
   24  A    between atoms: O_46  and  N_49
                            x       y       z     vdW  Elec       q    Type
                         _______ _______ _______ _____ _____    ______ ____

>  <TORSDO>
F 24

$$$$
=
 OpenBabel11032419363D

 49 52  0  0  1  0  0  0  0  0999 V2000
  188.7250  177.3540  144.2830 C   0  0  1  0  0  3  0  0  0  0  0  0
  190.0020  177.2560  142.1630 O   0  0  0  0  0  0  0  0  0  0  0  0
  189.9570  177.5060  143.4450 C   0  0  0  0  0  0  0  0  0  0  0  0
  191.2090  177.9270  143.8610 C   0  0  0  0  0  3  0  0  0  0  0  0
  191.9810  177.9030  142.7940 O   0  0  0  0  0  0  0  0  0  0  0  0
  191.2380  177.5000  141.7950 C   0  0  0  0  0  0  0  0  0  0  0  0
  191.6930  177.3570  140.5850 N   0  0  0  0  0  0  0  0  0  0  0  0
  189.7260  177.5860  139.0710 C   0  0  0  0  0  3  0  0  0  0  0  0
  191.4250  175.9180  138.6370 C   0  0  0  0  0  3  0  0  0  0  0  0
  189.5130  176.1270  137.1490 C   0  0  0  0  0  0  0  0  0  0  0  0
  190.9310  176.9570  139.4340 C   0  0  0  0  0  0  0  0  0  0  0  0
  189.0210  177.1710  137.9380 C   0  0  0  0  0  3  0  0  0  0  0  0
  190.7230  175.4870  137.4970 C   0  0  0  0  0  0  0  0  0  0  0  0
  192.9850  175.7110  135.4520 N   0  0  0  0  0  1  0  0  0  0  0  0
  192.5230  173.4890  134.9810 O   0  0  0  0  0  0  0  0  0  0  0  0
  191.2240  174.4250  136.6690 N   0  0  0  0  0  2  0  0  0  0  0  0
  192.2620  174.4990  135.6800 C   0  0  0  0  0  0  0  0  0  0  0  0
  188.7200  175.6830  135.9610 C   0  0  0  0  0  2  0  0  0  0  0  0
  186.1800  175.0910  136.7510 S   0  0  0  0  0  1  0  0  0  0  0  0
  187.3260  176.2770  136.0010 C   0  0  0  0  0  2  0  0  0  0  0  0
  187.7390  176.5810  143.5360 N   0  0  0  0  0  2  0  0  0  0  0  0
  187.0380  177.4820  142.6190 C   0  0  0  0  0  2  0  0  0  0  0  0
  186.3110  178.5560  143.3200 N   0  0  0  0  0  0  0  0  0  0  0  0
  185.2150  178.6260  145.5170 C   0  0  0  0  0  2  0  0  0  0  0  0
  184.2800  179.2080  144.4730 C   0  0  1  0  0  3  0  0  0  0  0  0
  185.1920  178.0480  144.1110 C   0  0  1  0  0  3  0  0  0  0  0  0
  182.9620  178.7060  144.6470 O   0  0  0  0  0  0  0  0  0  0  0  0
  182.2920  178.9970  142.4550 O   0  0  0  0  0  0  0  0  0  0  0  0
  181.9750  178.8380  143.6690 C   0  0  0  0  0  0  0  0  0  0  0  0
  180.5760  178.9150  144.0980 C   0  0  0  0  0  3  0  0  0  0  0  0
  179.5060  178.3950  143.4790 C   0  0  0  0  0  3  0  0  0  0  0  0
  179.5150  177.5210  142.3420 N   0  0  0  0  0  2  0  0  0  0  0  0
  179.4590  177.9450  140.9570 C   0  0  0  0  0  2  0  0  0  0  0  0
  179.2730  179.3340  140.8950 O   0  0  0  0  0  0  0  0  0  0  0  0
  179.4670  179.6490  139.5990 N   0  0  0  0  0  2  0  0  0  0  0  0
  180.7460  180.3280  139.5120 C   0  0  0  0  0  2  0  0  0  0  0  0
  181.3230  180.1510  138.1480 C   0  0  0  0  0  3  0  0  0  0  0  0
  180.9640  180.9600  137.1500 C   0  0  0  0  0  2  0  0  0  0  0  0
  185.7630  179.4460  142.3110 C   0  0  0  0  0  2  0  0  0  0  0  0
  185.9670  178.8380  140.9380 C   0  0  0  0  0  2  0  0  0  0  0  0
  184.7030  179.0070  140.1230 C   0  0  0  0  0  2  0  0  0  0  0  0
  183.9580  177.7200  138.2160 N   0  0  0  0  0  1  0  0  0  0  0  0
  185.9940  178.8780  137.9730 N   0  0  0  0  0  2  0  0  0  0  0  0
  184.8940  178.4400  138.7570 C   0  0  0  0  0  0  0  0  0  0  0  0
  189.0160  176.7040  145.4850 O   0  0  0  0  0  0  0  0  0  0  0  0
  189.8760  177.3840  147.5830 C   0  0  0  0  0  2  0  0  0  0  0  0
  188.8980  177.6910  146.4720 C   0  0  2  0  0  3  0  0  0  0  0  0
  187.7710  178.1290  148.6190 C   0  0  0  0  0  1  0  0  0  0  0  0
  188.4100  177.0590  147.7620 C   0  0  2  0  0  3  0  0  0  0  0  0
  1 21  1  6  0  0  0
  1 45  1  0  0  0  0
  2  3  1  0  0  0  0
  3  4  2  0  0  0  0
  3  1  1  0  0  0  0
  5  4  1  0  0  0  0
  6  2  1  0  0  0  0
  6  5  1  0  0  0  0
  7  6  2  0  0  0  0
  8 11  1  0  0  0  0
  9 11  2  0  0  0  0
 10 13  2  0  0  0  0
 10 12  1  0  0  0  0
 11  7  1  0  0  0  0
 12  8  2  0  0  0  0
 13  9  1  0  0  0  0
 14 17  1  0  0  0  0
 15 17  2  0  0  0  0
 16 13  1  0  0  0  0
 17 16  1  0  0  0  0
 18 20  1  0  0  0  0
 18 10  1  0  0  0  0
 20 19  1  0  0  0  0
 22 23  1  0  0  0  0
 22 21  1  0  0  0  0
 25 27  1  1  0  0  0
 25 24  1  0  0  0  0
 26 23  1  6  0  0  0
 26 25  1  0  0  0  0
 26 24  1  0  0  0  0
 28 29  2  0  0  0  0
 29 30  1  0  0  0  0
 29 27  1  0  0  0  0
 31 30  2  0  0  0  0
 32 31  1  0  0  0  0
 33 32  1  0  0  0  0
 34 33  1  0  0  0  0
 35 34  1  0  0  0  0
 36 35  1  0  0  0  0
 37 36  1  0  0  0  0
 38 37  2  0  0  0  0
 39 23  1  0  0  0  0
 40 39  1  0  0  0  0
 41 40  1  0  0  0  0
 42 44  1  0  0  0  0
 43 44  2  0  0  0  0
 44 41  1  0  0  0  0
 46 49  1  0  0  0  0
 47 45  1  6  0  0  0
 47 46  1  0  0  0  0
 47 49  1  0  0  0  0
 49 48  1  1  0  0  0
M  END
>  <MODEL>
4

>  <REMARK>
 VINA RESULT:      -6.1      2.898      8.676
  Name = 
  24 active torsions:
  status: ('A' for Active; 'I' for Inactive)
    1  A    between atoms: O_1  and  C_22
    2  A    between atoms: O_1  and  C_24
    3  A    between atoms: C_5  and  N_17
    4  A    between atoms: C_5  and  N_42
    5  A    between atoms: N_6  and  C_33
    6  A    between atoms: N_6  and  C_43
    7  A    between atoms: O_10  and  C_12
    8  A    between atoms: O_10  and  C_34
    9  A    between atoms: C_12  and  C_37
   10  A    between atoms: C_13  and  C_19
   11  A    between atoms: C_13  and  C_25
   12  A    between atoms: C_15  and  C_22
   13  A    between atoms: C_16  and  C_35
   14  A    between atoms: N_17  and  C_29
   15  A    between atoms: N_17  and  C_44
   16  A    between atoms: C_19  and  C_29
   17  A    between atoms: C_22  and  N_42
   18  A    between atoms: C_23  and  C_39
   19  A    between atoms: C_23  and  N_49
   20  A    between atoms: C_27  and  N_45
   21  A    between atoms: N_31  and  C_32
   22  A    between atoms: C_33  and  O_46
   23  A    between atoms: C_35  and  C_38
   24  A    between atoms: O_46  and  N_49
                            x       y       z     vdW  Elec       q    Type
                         _______ _______ _______ _____ _____    ______ ____

>  <TORSDO>
F 24

$$$$
=
 OpenBabel11032419363D

 49 52  0  0  1  0  0  0  0  0999 V2000
  188.3200  177.6040  137.4500 C   0  0  1  0  0  3  0  0  0  0  0  0
  185.8650  177.2750  137.4620 O   0  0  0  0  0  0  0  0  0  0  0  0
  187.0310  177.0740  136.9050 C   0  0  0  0  0  0  0  0  0  0  0  0
  186.8500  176.3170  135.7590 C   0  0  0  0  0  3  0  0  0  0  0  0
  185.5580  176.0750  135.6730 O   0  0  0  0  0  0  0  0  0  0  0  0
  184.9930  176.6580  136.7010 C   0  0  0  0  0  0  0  0  0  0  0  0
  183.7130  176.6110  136.9270 N   0  0  0  0  0  0  0  0  0  0  0  0
  182.8090  176.6290  139.2490 C   0  0  0  0  0  3  0  0  0  0  0  0
  182.5610  178.5640  137.8170 C   0  0  0  0  0  3  0  0  0  0  0  0
  181.6720  178.6000  140.0810 C   0  0  0  0  0  0  0  0  0  0  0  0
  183.0190  177.2550  138.0080 C   0  0  0  0  0  0  0  0  0  0  0  0
  182.1360  177.2960  140.2770 C   0  0  0  0  0  3  0  0  0  0  0  0
  181.8780  179.2450  138.8410 C   0  0  0  0  0  0  0  0  0  0  0  0
  179.4300  180.0930  137.2170 N   0  0  0  0  0  1  0  0  0  0  0  0
  180.0570  182.2570  137.7580 O   0  0  0  0  0  0  0  0  0  0  0  0
  181.4080  180.5910  138.6580 N   0  0  0  0  0  2  0  0  0  0  0  0
  180.2830  181.0290  137.8810 C   0  0  0  0  0  0  0  0  0  0  0  0
  180.9270  179.2770  141.1870 C   0  0  0  0  0  2  0  0  0  0  0  0
  180.2880  178.5980  143.7480 S   0  0  0  0  0  1  0  0  0  0  0  0
  181.5720  178.9710  142.5250 C   0  0  0  0  0  2  0  0  0  0  0  0
  188.0340  178.4410  138.6100 N   0  0  0  0  0  2  0  0  0  0  0  0
  188.0260  177.5950  139.8050 C   0  0  0  0  0  2  0  0  0  0  0  0
  188.7520  178.2000  140.9360 N   0  0  0  0  0  0  0  0  0  0  0  0
  190.9380  177.1770  141.3930 C   0  0  0  0  0  2  0  0  0  0  0  0
  190.4640  177.9180  142.6290 C   0  0  1  0  0  3  0  0  0  0  0  0
  189.4580  177.2050  141.7410 C   0  0  1  0  0  3  0  0  0  0  0  0
  190.6730  177.1290  143.7940 O   0  0  0  0  0  0  0  0  0  0  0  0
  192.2220  178.5690  144.7250 O   0  0  0  0  0  0  0  0  0  0  0  0
  191.4740  177.5560  144.8530 C   0  0  0  0  0  0  0  0  0  0  0  0
  191.5240  176.7340  146.0640 C   0  0  0  0  0  3  0  0  0  0  0  0
  190.6560  176.7390  147.0880 C   0  0  0  0  0  3  0  0  0  0  0  0
  189.4090  177.4440  147.1490 N   0  0  0  0  0  2  0  0  0  0  0  0
  188.7250  177.8350  148.3660 C   0  0  0  0  0  2  0  0  0  0  0  0
  187.4700  178.3740  148.0500 O   0  0  0  0  0  0  0  0  0  0  0  0
  187.1850  177.8850  146.8270 N   0  0  0  0  0  2  0  0  0  0  0  0
  186.2520  178.8070  146.2060 C   0  0  0  0  0  2  0  0  0  0  0  0
  184.8680  178.2570  146.2830 C   0  0  0  0  0  3  0  0  0  0  0  0
  183.8770  178.8180  145.5880 C   0  0  0  0  0  2  0  0  0  0  0  0
  187.7720  178.8390  141.7950 C   0  0  0  0  0  2  0  0  0  0  0  0
  187.0790  177.7880  142.6390 C   0  0  0  0  0  2  0  0  0  0  0  0
  185.5900  177.8290  142.3660 C   0  0  0  0  0  2  0  0  0  0  0  0
  185.1710  180.1700  142.8060 N   0  0  0  0  0  1  0  0  0  0  0  0
  185.0360  179.4830  140.5580 N   0  0  0  0  0  2  0  0  0  0  0  0
  185.1840  179.2010  141.9420 C   0  0  0  0  0  0  0  0  0  0  0  0
  189.1700  176.5600  137.8260 O   0  0  0  0  0  0  0  0  0  0  0  0
  190.9270  176.1330  136.2990 C   0  0  0  0  0  2  0  0  0  0  0  0
  190.4530  176.9820  137.4560 C   0  0  2  0  0  3  0  0  0  0  0  0
  192.8290  176.4470  137.8300 C   0  0  0  0  0  1  0  0  0  0  0  0
  191.4420  175.8570  137.6930 C   0  0  2  0  0  3  0  0  0  0  0  0
  1 45  1  1  0  0  0
  1 21  1  0  0  0  0
  3  1  1  0  0  0  0
  3  2  1  0  0  0  0
  4  3  2  0  0  0  0
  5  4  1  0  0  0  0
  5  6  1  0  0  0  0
  6  7  2  0  0  0  0
  6  2  1  0  0  0  0
  7 11  1  0  0  0  0
  8 12  1  0  0  0  0
  9 11  1  0  0  0  0
  9 13  2  0  0  0  0
 10 12  2  0  0  0  0
 10 18  1  0  0  0  0
 11  8  2  0  0  0  0
 13 10  1  0  0  0  0
 14 17  1  0  0  0  0
 15 17  2  0  0  0  0
 16 13  1  0  0  0  0
 17 16  1  0  0  0  0
 18 20  1  0  0  0  0
 20 19  1  0  0  0  0
 21 22  1  0  0  0  0
 22 23  1  0  0  0  0
 23 39  1  0  0  0  0
 24 26  1  0  0  0  0
 24 25  1  0  0  0  0
 25 27  1  1  0  0  0
 26 23  1  6  0  0  0
 26 25  1  0  0  0  0
 27 29  1  0  0  0  0
 28 29  2  0  0  0  0
 29 30  1  0  0  0  0
 30 31  2  0  0  0  0
 31 32  1  0  0  0  0
 32 33  1  0  0  0  0
 34 33  1  0  0  0  0
 35 34  1  0  0  0  0
 36 37  1  0  0  0  0
 36 35  1  0  0  0  0
 38 37  2  0  0  0  0
 39 40  1  0  0  0  0
 41 40  1  0  0  0  0
 43 44  2  0  0  0  0
 44 41  1  0  0  0  0
 44 42  1  0  0  0  0
 46 47  1  0  0  0  0
 46 49  1  0  0  0  0
 47 49  1  0  0  0  0
 47 45  1  1  0  0  0
 49 48  1  6  0  0  0
M  END
>  <MODEL>
5

>  <REMARK>
 VINA RESULT:      -5.9      1.648      3.852
  Name = 
  24 active torsions:
  status: ('A' for Active; 'I' for Inactive)
    1  A    between atoms: O_1  and  C_22
    2  A    between atoms: O_1  and  C_24
    3  A    between atoms: C_5  and  N_17
    4  A    between atoms: C_5  and  N_42
    5  A    between atoms: N_6  and  C_33
    6  A    between atoms: N_6  and  C_43
    7  A    between atoms: O_10  and  C_12
    8  A    between atoms: O_10  and  C_34
    9  A    between atoms: C_12  and  C_37
   10  A    between atoms: C_13  and  C_19
   11  A    between atoms: C_13  and  C_25
   12  A    between atoms: C_15  and  C_22
   13  A    between atoms: C_16  and  C_35
   14  A    between atoms: N_17  and  C_29
   15  A    between atoms: N_17  and  C_44
   16  A    between atoms: C_19  and  C_29
   17  A    between atoms: C_22  and  N_42
   18  A    between atoms: C_23  and  C_39
   19  A    between atoms: C_23  and  N_49
   20  A    between atoms: C_27  and  N_45
   21  A    between atoms: N_31  and  C_32
   22  A    between atoms: C_33  and  O_46
   23  A    between atoms: C_35  and  C_38
   24  A    between atoms: O_46  and  N_49
                            x       y       z     vdW  Elec       q    Type
                         _______ _______ _______ _____ _____    ______ ____

>  <TORSDO>
F 24

$$$$
=
 OpenBabel11032419363D

 49 52  0  0  1  0  0  0  0  0999 V2000
  185.9680  177.9710  144.1090 C   0  0  1  0  0  3  0  0  0  0  0  0
  184.1300  178.0220  142.4490 O   0  0  0  0  0  0  0  0  0  0  0  0
  184.6340  178.4120  143.5900 C   0  0  0  0  0  0  0  0  0  0  0  0
  183.7340  179.2680  144.2040 C   0  0  0  0  0  3  0  0  0  0  0  0
  182.7060  179.3720  143.3880 O   0  0  0  0  0  0  0  0  0  0  0  0
  182.9660  178.6190  142.3490 C   0  0  0  0  0  0  0  0  0  0  0  0
  182.1540  178.4980  141.3410 N   0  0  0  0  0  0  0  0  0  0  0  0
  181.4800  176.6130  139.8560 C   0  0  0  0  0  3  0  0  0  0  0  0
  183.4470  177.9310  139.3550 C   0  0  0  0  0  3  0  0  0  0  0  0
  182.8050  176.0950  137.8950 C   0  0  0  0  0  0  0  0  0  0  0  0
  182.3540  177.6640  140.1870 C   0  0  0  0  0  0  0  0  0  0  0  0
  181.7070  175.8310  138.7190 C   0  0  0  0  0  3  0  0  0  0  0  0
  183.6900  177.1490  138.2110 C   0  0  0  0  0  0  0  0  0  0  0  0
  186.3120  178.4980  139.0210 N   0  0  0  0  0  1  0  0  0  0  0  0
  186.8820  178.3040  136.7830 O   0  0  0  0  0  0  0  0  0  0  0  0
  184.8060  177.4180  137.3460 N   0  0  0  0  0  2  0  0  0  0  0  0
  186.0390  178.0740  137.6830 C   0  0  0  0  0  0  0  0  0  0  0  0
  183.0410  175.2220  136.7030 C   0  0  0  0  0  2  0  0  0  0  0  0
  184.8730  173.3580  137.4750 S   0  0  0  0  0  1  0  0  0  0  0  0
  183.1440  173.7690  137.1230 C   0  0  0  0  0  2  0  0  0  0  0  0
  186.9580  178.1130  143.0470 N   0  0  0  0  0  2  0  0  0  0  0  0
  188.0790  177.2150  143.3320 C   0  0  0  0  0  2  0  0  0  0  0  0
  189.2700  177.5160  142.5180 N   0  0  0  0  0  0  0  0  0  0  0  0
  189.5340  178.0310  140.1300 C   0  0  0  0  0  2  0  0  0  0  0  0
  190.5530  176.9790  140.5310 C   0  0  1  0  0  3  0  0  0  0  0  0
  189.1710  176.9760  141.1630 C   0  0  1  0  0  3  0  0  0  0  0  0
  190.6060  175.9420  139.5610 O   0  0  0  0  0  0  0  0  0  0  0  0
  191.6390  176.7730  137.6680 O   0  0  0  0  0  0  0  0  0  0  0  0
  190.6390  176.1990  138.1900 C   0  0  0  0  0  0  0  0  0  0  0  0
  189.4430  175.9050  137.3970 C   0  0  0  0  0  3  0  0  0  0  0  0
  189.1560  174.7660  136.7490 C   0  0  0  0  0  3  0  0  0  0  0  0
  189.8880  173.5350  136.8170 N   0  0  0  0  0  2  0  0  0  0  0  0
  191.0390  173.1970  136.0030 C   0  0  0  0  0  2  0  0  0  0  0  0
  192.2160  173.4200  136.7320 O   0  0  0  0  0  0  0  0  0  0  0  0
  193.0070  174.1250  135.8990 N   0  0  0  0  0  2  0  0  0  0  0  0
  194.3620  173.6440  136.0910 C   0  0  0  0  0  2  0  0  0  0  0  0
  194.8790  174.0950  137.4150 C   0  0  0  0  0  3  0  0  0  0  0  0
  196.1910  174.1320  137.6540 C   0  0  0  0  0  2  0  0  0  0  0  0
  190.4100  176.8810  143.1560 C   0  0  0  0  0  2  0  0  0  0  0  0
  190.2680  176.9870  144.6610 C   0  0  0  0  0  2  0  0  0  0  0  0
  191.6300  177.2310  145.2760 C   0  0  0  0  0  2  0  0  0  0  0  0
  192.3390  175.1990  146.3790 N   0  0  0  0  0  2  0  0  0  0  0  0
  191.5970  176.9470  147.7720 N   0  0  0  0  0  1  0  0  0  0  0  0
  191.8050  176.3770  146.4880 C   0  0  0  0  0  0  0  0  0  0  0  0
  186.3520  178.7390  145.2120 O   0  0  0  0  0  0  0  0  0  0  0  0
  186.3310  178.5930  147.5740 C   0  0  0  0  0  2  0  0  0  0  0  0
  186.4450  177.8310  146.2730 C   0  0  2  0  0  3  0  0  0  0  0  0
  188.0850  176.8890  147.8540 C   0  0  0  0  0  1  0  0  0  0  0  0
  187.6870  178.1330  147.0900 C   0  0  2  0  0  3  0  0  0  0  0  0
  1 21  1  6  0  0  0
  1 45  1  0  0  0  0
  2  3  1  0  0  0  0
  3  1  1  0  0  0  0
  3  4  2  0  0  0  0
  5  4  1  0  0  0  0
  6  2  1  0  0  0  0
  6  5  1  0  0  0  0
  7  6  2  0  0  0  0
  8 11  1  0  0  0  0
  9 11  2  0  0  0  0
 10 13  2  0  0  0  0
 10 12  1  0  0  0  0
 11  7  1  0  0  0  0
 12  8  2  0  0  0  0
 13  9  1  0  0  0  0
 15 17  2  0  0  0  0
 16 17  1  0  0  0  0
 16 13  1  0  0  0  0
 17 14  1  0  0  0  0
 18 20  1  0  0  0  0
 18 10  1  0  0  0  0
 20 19  1  0  0  0  0
 21 22  1  0  0  0  0
 23 39  1  0  0  0  0
 23 22  1  0  0  0  0
 24 25  1  0  0  0  0
 24 26  1  0  0  0  0
 25 27  1  6  0  0  0
 25 26  1  0  0  0  0
 26 23  1  1  0  0  0
 28 29  2  0  0  0  0
 29 27  1  0  0  0  0
 30 29  1  0  0  0  0
 31 32  1  0  0  0  0
 31 30  2  0  0  0  0
 33 34  1  0  0  0  0
 33 32  1  0  0  0  0
 35 36  1  0  0  0  0
 35 34  1  0  0  0  0
 36 37  1  0  0  0  0
 37 38  2  0  0  0  0
 39 40  1  0  0  0  0
 40 41  1  0  0  0  0
 41 44  1  0  0  0  0
 42 44  2  0  0  0  0
 44 43  1  0  0  0  0
 47 45  1  6  0  0  0
 47 49  1  0  0  0  0
 47 46  1  0  0  0  0
 49 46  1  0  0  0  0
 49 48  1  1  0  0  0
M  END
>  <MODEL>
6

>  <REMARK>
 VINA RESULT:      -5.9      2.829      7.579
  Name = 
  24 active torsions:
  status: ('A' for Active; 'I' for Inactive)
    1  A    between atoms: O_1  and  C_22
    2  A    between atoms: O_1  and  C_24
    3  A    between atoms: C_5  and  N_17
    4  A    between atoms: C_5  and  N_42
    5  A    between atoms: N_6  and  C_33
    6  A    between atoms: N_6  and  C_43
    7  A    between atoms: O_10  and  C_12
    8  A    between atoms: O_10  and  C_34
    9  A    between atoms: C_12  and  C_37
   10  A    between atoms: C_13  and  C_19
   11  A    between atoms: C_13  and  C_25
   12  A    between atoms: C_15  and  C_22
   13  A    between atoms: C_16  and  C_35
   14  A    between atoms: N_17  and  C_29
   15  A    between atoms: N_17  and  C_44
   16  A    between atoms: C_19  and  C_29
   17  A    between atoms: C_22  and  N_42
   18  A    between atoms: C_23  and  C_39
   19  A    between atoms: C_23  and  N_49
   20  A    between atoms: C_27  and  N_45
   21  A    between atoms: N_31  and  C_32
   22  A    between atoms: C_33  and  O_46
   23  A    between atoms: C_35  and  C_38
   24  A    between atoms: O_46  and  N_49
                            x       y       z     vdW  Elec       q    Type
                         _______ _______ _______ _____ _____    ______ ____

>  <TORSDO>
F 24

$$$$
=
 OpenBabel11032419363D

 49 52  0  0  1  0  0  0  0  0999 V2000
  188.2270  177.5900  143.9850 C   0  0  1  0  0  3  0  0  0  0  0  0
  189.3960  177.4930  141.8030 O   0  0  0  0  0  0  0  0  0  0  0  0
  189.4360  177.4680  143.1090 C   0  0  0  0  0  0  0  0  0  0  0  0
  190.7540  177.3220  143.5100 C   0  0  0  0  0  3  0  0  0  0  0  0
  191.4710  177.2510  142.4080 O   0  0  0  0  0  0  0  0  0  0  0  0
  190.6380  177.3560  141.4040 C   0  0  0  0  0  0  0  0  0  0  0  0
  191.0180  177.3180  140.1610 N   0  0  0  0  0  0  0  0  0  0  0  0
  189.2280  178.5020  138.8940 C   0  0  0  0  0  3  0  0  0  0  0  0
  190.3090  176.5500  137.9600 C   0  0  0  0  0  3  0  0  0  0  0  0
  188.5640  177.6930  136.7100 C   0  0  0  0  0  0  0  0  0  0  0  0
  190.1690  177.4640  139.0100 C   0  0  0  0  0  0  0  0  0  0  0  0
  188.4280  178.6130  137.7530 C   0  0  0  0  0  3  0  0  0  0  0  0
  189.5070  176.6460  136.8080 C   0  0  0  0  0  0  0  0  0  0  0  0
  188.6450  173.7120  136.8290 N   0  0  0  0  0  1  0  0  0  0  0  0
  189.5470  173.6290  134.6950 O   0  0  0  0  0  0  0  0  0  0  0  0
  189.6450  175.7150  135.7220 N   0  0  0  0  0  2  0  0  0  0  0  0
  189.2800  174.3260  135.7050 C   0  0  0  0  0  0  0  0  0  0  0  0
  187.6720  177.8160  135.5150 C   0  0  0  0  0  2  0  0  0  0  0  0
  185.8430  175.8350  135.1240 S   0  0  0  0  0  1  0  0  0  0  0  0
  186.2500  177.4330  135.8730 C   0  0  0  0  0  2  0  0  0  0  0  0
  187.0590  177.1280  143.2440 N   0  0  0  0  0  2  0  0  0  0  0  0
  186.8370  178.0330  142.1130 C   0  0  0  0  0  2  0  0  0  0  0  0
  185.7240  178.9720  142.3460 N   0  0  0  0  0  0  0  0  0  0  0  0
  184.4580  179.0230  144.4500 C   0  0  0  0  0  2  0  0  0  0  0  0
  183.5390  179.4000  143.3040 C   0  0  1  0  0  3  0  0  0  0  0  0
  184.6260  178.3600  143.0920 C   0  0  1  0  0  3  0  0  0  0  0  0
  182.2910  178.7280  143.4230 O   0  0  0  0  0  0  0  0  0  0  0  0
  180.4470  180.0680  143.0440 O   0  0  0  0  0  0  0  0  0  0  0  0
  181.1690  179.0950  142.6790 C   0  0  0  0  0  0  0  0  0  0  0  0
  180.7800  178.2530  141.5450 C   0  0  0  0  0  3  0  0  0  0  0  0
  180.4620  178.6550  140.3050 C   0  0  0  0  0  3  0  0  0  0  0  0
  180.5800  179.9830  139.7790 N   0  0  0  0  0  2  0  0  0  0  0  0
  181.8270  180.6750  139.5170 C   0  0  0  0  0  2  0  0  0  0  0  0
  181.8880  181.0440  138.1650 O   0  0  0  0  0  0  0  0  0  0  0  0
  181.5590  182.3510  138.1520 N   0  0  0  0  0  2  0  0  0  0  0  0
  180.6770  182.5570  137.0190 C   0  0  0  0  0  2  0  0  0  0  0  0
  180.9510  183.8840  136.3970 C   0  0  0  0  0  3  0  0  0  0  0  0
  180.9840  184.9900  137.1430 C   0  0  0  0  0  2  0  0  0  0  0  0
  185.2030  179.3640  141.0480 C   0  0  0  0  0  2  0  0  0  0  0  0
  184.8560  178.1250  140.2480 C   0  0  0  0  0  2  0  0  0  0  0  0
  184.4770  178.5290  138.8390 C   0  0  0  0  0  2  0  0  0  0  0  0
  183.3520  176.3880  138.8440 N   0  0  0  0  0  1  0  0  0  0  0  0
  182.6710  177.9300  137.2000 N   0  0  0  0  0  2  0  0  0  0  0  0
  183.5310  177.5320  138.2570 C   0  0  0  0  0  0  0  0  0  0  0  0
  188.3750  176.8270  145.1470 O   0  0  0  0  0  0  0  0  0  0  0  0
  189.7750  177.3220  146.9890 C   0  0  0  0  0  2  0  0  0  0  0  0
  188.5820  177.7600  146.1710 C   0  0  2  0  0  3  0  0  0  0  0  0
  188.0560  178.1460  148.5470 C   0  0  0  0  0  1  0  0  0  0  0  0
  188.3770  177.0870  147.5150 C   0  0  2  0  0  3  0  0  0  0  0  0
  1 21  1  6  0  0  0
  1 45  1  0  0  0  0
  2  3  1  0  0  0  0
  3  4  2  0  0  0  0
  3  1  1  0  0  0  0
  5  4  1  0  0  0  0
  6  2  1  0  0  0  0
  6  5  1  0  0  0  0
  7  6  2  0  0  0  0
  8 11  1  0  0  0  0
  9 11  2  0  0  0  0
 10 13  2  0  0  0  0
 10 12  1  0  0  0  0
 11  7  1  0  0  0  0
 12  8  2  0  0  0  0
 13  9  1  0  0  0  0
 15 17  2  0  0  0  0
 16 13  1  0  0  0  0
 17 16  1  0  0  0  0
 17 14  1  0  0  0  0
 18 20  1  0  0  0  0
 18 10  1  0  0  0  0
 19 20  1  0  0  0  0
 22 23  1  0  0  0  0
 22 21  1  0  0  0  0
 25 27  1  1  0  0  0
 25 24  1  0  0  0  0
 26 23  1  6  0  0  0
 26 25  1  0  0  0  0
 26 24  1  0  0  0  0
 29 28  2  0  0  0  0
 29 27  1  0  0  0  0
 30 29  1  0  0  0  0
 31 30  2  0  0  0  0
 32 31  1  0  0  0  0
 33 32  1  0  0  0  0
 34 33  1  0  0  0  0
 35 34  1  0  0  0  0
 36 35  1  0  0  0  0
 37 36  1  0  0  0  0
 37 38  2  0  0  0  0
 39 23  1  0  0  0  0
 40 39  1  0  0  0  0
 41 40  1  0  0  0  0
 43 44  2  0  0  0  0
 44 41  1  0  0  0  0
 44 42  1  0  0  0  0
 46 49  1  0  0  0  0
 47 45  1  6  0  0  0
 47 46  1  0  0  0  0
 47 49  1  0  0  0  0
 49 48  1  1  0  0  0
M  END
>  <MODEL>
7

>  <REMARK>
 VINA RESULT:      -5.6      2.640      8.645
  Name = 
  24 active torsions:
  status: ('A' for Active; 'I' for Inactive)
    1  A    between atoms: O_1  and  C_22
    2  A    between atoms: O_1  and  C_24
    3  A    between atoms: C_5  and  N_17
    4  A    between atoms: C_5  and  N_42
    5  A    between atoms: N_6  and  C_33
    6  A    between atoms: N_6  and  C_43
    7  A    between atoms: O_10  and  C_12
    8  A    between atoms: O_10  and  C_34
    9  A    between atoms: C_12  and  C_37
   10  A    between atoms: C_13  and  C_19
   11  A    between atoms: C_13  and  C_25
   12  A    between atoms: C_15  and  C_22
   13  A    between atoms: C_16  and  C_35
   14  A    between atoms: N_17  and  C_29
   15  A    between atoms: N_17  and  C_44
   16  A    between atoms: C_19  and  C_29
   17  A    between atoms: C_22  and  N_42
   18  A    between atoms: C_23  and  C_39
   19  A    between atoms: C_23  and  N_49
   20  A    between atoms: C_27  and  N_45
   21  A    between atoms: N_31  and  C_32
   22  A    between atoms: C_33  and  O_46
   23  A    between atoms: C_35  and  C_38
   24  A    between atoms: O_46  and  N_49
                            x       y       z     vdW  Elec       q    Type
                         _______ _______ _______ _____ _____    ______ ____

>  <TORSDO>
F 24

$$$$
=
 OpenBabel11032419363D

 49 52  0  0  1  0  0  0  0  0999 V2000
  186.4790  177.7810  144.2620 C   0  0  1  0  0  3  0  0  0  0  0  0
  184.1570  178.3240  143.5920 O   0  0  0  0  0  0  0  0  0  0  0  0
  185.1050  178.3310  144.4920 C   0  0  0  0  0  0  0  0  0  0  0  0
  184.6140  178.9100  145.6510 C   0  0  0  0  0  3  0  0  0  0  0  0
  183.3670  179.2490  145.3970 O   0  0  0  0  0  0  0  0  0  0  0  0
  183.1190  178.8890  144.1630 C   0  0  0  0  0  0  0  0  0  0  0  0
  181.9700  179.0850  143.5850 N   0  0  0  0  0  0  0  0  0  0  0  0
  180.2770  178.6210  141.8160 C   0  0  0  0  0  3  0  0  0  0  0  0
  182.6390  178.3700  141.3540 C   0  0  0  0  0  3  0  0  0  0  0  0
  181.0010  177.9130  139.6150 C   0  0  0  0  0  0  0  0  0  0  0  0
  181.6120  178.6840  142.2520 C   0  0  0  0  0  0  0  0  0  0  0  0
  179.9730  178.2340  140.5070 C   0  0  0  0  0  3  0  0  0  0  0  0
  182.3480  177.9740  140.0360 C   0  0  0  0  0  0  0  0  0  0  0  0
  184.7360  179.7490  139.3320 N   0  0  0  0  0  1  0  0  0  0  0  0
  185.2960  178.0730  137.8310 O   0  0  0  0  0  0  0  0  0  0  0  0
  183.3940  177.6550  139.1040 N   0  0  0  0  0  2  0  0  0  0  0  0
  184.5130  178.4730  138.7270 C   0  0  0  0  0  0  0  0  0  0  0  0
  180.6460  177.4710  138.2310 C   0  0  0  0  0  2  0  0  0  0  0  0
  181.5420  178.1060  135.7370 S   0  0  0  0  0  1  0  0  0  0  0  0
  180.7270  178.6370  137.2650 C   0  0  0  0  0  2  0  0  0  0  0  0
  186.8530  178.0130  142.8720 N   0  0  0  0  0  2  0  0  0  0  0  0
  188.0180  177.1820  142.5580 C   0  0  0  0  0  2  0  0  0  0  0  0
  188.9170  177.8110  141.5730 N   0  0  0  0  0  0  0  0  0  0  0  0
  188.8600  178.6370  139.2610 C   0  0  0  0  0  2  0  0  0  0  0  0
  189.8180  177.4630  139.3500 C   0  0  1  0  0  3  0  0  0  0  0  0
  188.5560  177.4780  140.1970 C   0  0  1  0  0  3  0  0  0  0  0  0
  189.6170  176.5720  138.2600 O   0  0  0  0  0  0  0  0  0  0  0  0
  188.8200  177.8460  136.5040 O   0  0  0  0  0  0  0  0  0  0  0  0
  189.6540  176.9950  136.9300 C   0  0  0  0  0  0  0  0  0  0  0  0
  190.5940  176.3410  136.0180 C   0  0  0  0  0  3  0  0  0  0  0  0
  191.7890  175.8110  136.3230 C   0  0  0  0  0  3  0  0  0  0  0  0
  192.3380  175.6360  137.6360 N   0  0  0  0  0  2  0  0  0  0  0  0
  193.1400  176.6130  138.3470 C   0  0  0  0  0  2  0  0  0  0  0  0
  194.3050  176.0040  138.8330 O   0  0  0  0  0  0  0  0  0  0  0  0
  194.7170  175.2020  137.8310 N   0  0  0  0  0  2  0  0  0  0  0  0
  195.0900  173.9330  138.4250 C   0  0  0  0  0  2  0  0  0  0  0  0
  196.4820  173.5750  138.0270 C   0  0  0  0  0  3  0  0  0  0  0  0
  197.4460  174.4970  138.0280 C   0  0  0  0  0  2  0  0  0  0  0  0
  190.2540  177.2960  141.8100 C   0  0  0  0  0  2  0  0  0  0  0  0
  190.2720  176.5150  143.1080 C   0  0  0  0  0  2  0  0  0  0  0  0
  191.3430  177.0810  144.0170 C   0  0  0  0  0  2  0  0  0  0  0  0
  192.0550  176.2030  146.1550 N   0  0  0  0  0  1  0  0  0  0  0  0
  192.0550  174.6950  144.3470 N   0  0  0  0  0  2  0  0  0  0  0  0
  191.9040  176.0010  144.8810 C   0  0  0  0  0  0  0  0  0  0  0  0
  187.4090  178.3940  145.1060 O   0  0  0  0  0  0  0  0  0  0  0  0
  187.4780  178.2180  147.4650 C   0  0  0  0  0  2  0  0  0  0  0  0
  187.6100  177.4830  146.1500 C   0  0  2  0  0  3  0  0  0  0  0  0
  189.3720  176.6590  147.6620 C   0  0  0  0  0  1  0  0  0  0  0  0
  188.8500  177.8760  146.9300 C   0  0  2  0  0  3  0  0  0  0  0  0
  1 21  1  6  0  0  0
  1  3  1  0  0  0  0
  1 45  1  0  0  0  0
  2  6  1  0  0  0  0
  2  3  1  0  0  0  0
  3  4  2  0  0  0  0
  5  4  1  0  0  0  0
  6  5  1  0  0  0  0
  7  6  2  0  0  0  0
  8 11  1  0  0  0  0
  9 11  2  0  0  0  0
 10 13  2  0  0  0  0
 10 12  1  0  0  0  0
 11  7  1  0  0  0  0
 12  8  2  0  0  0  0
 13  9  1  0  0  0  0
 15 17  2  0  0  0  0
 16 13  1  0  0  0  0
 17 16  1  0  0  0  0
 17 14  1  0  0  0  0
 18 10  1  0  0  0  0
 19 20  1  0  0  0  0
 20 18  1  0  0  0  0
 22 21  1  0  0  0  0
 23 39  1  0  0  0  0
 23 22  1  0  0  0  0
 24 25  1  0  0  0  0
 24 26  1  0  0  0  0
 25 27  1  6  0  0  0
 25 26  1  0  0  0  0
 26 23  1  1  0  0  0
 28 29  2  0  0  0  0
 29 27  1  0  0  0  0
 30 31  2  0  0  0  0
 30 29  1  0  0  0  0
 31 32  1  0  0  0  0
 32 33  1  0  0  0  0
 33 34  1  0  0  0  0
 35 36  1  0  0  0  0
 35 34  1  0  0  0  0
 37 38  2  0  0  0  0
 37 36  1  0  0  0  0
 39 40  1  0  0  0  0
 40 41  1  0  0  0  0
 41 44  1  0  0  0  0
 43 44  2  0  0  0  0
 44 42  1  0  0  0  0
 47 45  1  6  0  0  0
 47 49  1  0  0  0  0
 47 46  1  0  0  0  0
 49 46  1  0  0  0  0
 49 48  1  1  0  0  0
M  END
>  <MODEL>
8

>  <REMARK>
 VINA RESULT:      -5.5      2.606      7.270
  Name = 
  24 active torsions:
  status: ('A' for Active; 'I' for Inactive)
    1  A    between atoms: O_1  and  C_22
    2  A    between atoms: O_1  and  C_24
    3  A    between atoms: C_5  and  N_17
    4  A    between atoms: C_5  and  N_42
    5  A    between atoms: N_6  and  C_33
    6  A    between atoms: N_6  and  C_43
    7  A    between atoms: O_10  and  C_12
    8  A    between atoms: O_10  and  C_34
    9  A    between atoms: C_12  and  C_37
   10  A    between atoms: C_13  and  C_19
   11  A    between atoms: C_13  and  C_25
   12  A    between atoms: C_15  and  C_22
   13  A    between atoms: C_16  and  C_35
   14  A    between atoms: N_17  and  C_29
   15  A    between atoms: N_17  and  C_44
   16  A    between atoms: C_19  and  C_29
   17  A    between atoms: C_22  and  N_42
   18  A    between atoms: C_23  and  C_39
   19  A    between atoms: C_23  and  N_49
   20  A    between atoms: C_27  and  N_45
   21  A    between atoms: N_31  and  C_32
   22  A    between atoms: C_33  and  O_46
   23  A    between atoms: C_35  and  C_38
   24  A    between atoms: O_46  and  N_49
                            x       y       z     vdW  Elec       q    Type
                         _______ _______ _______ _____ _____    ______ ____

>  <TORSDO>
F 24

$$$$
=
 OpenBabel11032419363D

 49 52  0  0  1  0  0  0  0  0999 V2000
  185.0970  178.6110  140.5600 C   0  0  1  0  0  3  0  0  0  0  0  0
  183.8210  177.7540  138.6170 O   0  0  0  0  0  0  0  0  0  0  0  0
  184.0550  178.7000  139.4880 C   0  0  0  0  0  0  0  0  0  0  0  0
  183.1850  179.7510  139.2470 C   0  0  0  0  0  3  0  0  0  0  0  0
  182.4530  179.3960  138.2110 O   0  0  0  0  0  0  0  0  0  0  0  0
  182.8530  178.2010  137.8540 C   0  0  0  0  0  0  0  0  0  0  0  0
  182.3390  177.5520  136.8510 N   0  0  0  0  0  0  0  0  0  0  0  0
  183.7870  175.9780  135.5710 C   0  0  0  0  0  3  0  0  0  0  0  0
  181.9450  175.1490  136.9030 C   0  0  0  0  0  3  0  0  0  0  0  0
  183.3480  173.5970  135.6620 C   0  0  0  0  0  0  0  0  0  0  0  0
  182.6980  176.2270  136.4250 C   0  0  0  0  0  0  0  0  0  0  0  0
  184.1070  174.6720  135.1890 C   0  0  0  0  0  3  0  0  0  0  0  0
  182.2520  173.8300  136.5230 C   0  0  0  0  0  0  0  0  0  0  0  0
  179.6060  172.8160  135.3740 N   0  0  0  0  0  1  0  0  0  0  0  0
  179.6540  171.2880  137.1160 O   0  0  0  0  0  0  0  0  0  0  0  0
  181.4890  172.7150  137.0120 N   0  0  0  0  0  2  0  0  0  0  0  0
  180.2310  172.2280  136.5170 C   0  0  0  0  0  0  0  0  0  0  0  0
  183.6930  172.2130  135.2110 C   0  0  0  0  0  2  0  0  0  0  0  0
  186.3590  171.6570  135.1480 S   0  0  0  0  0  1  0  0  0  0  0  0
  184.8010  171.6370  136.0700 C   0  0  0  0  0  2  0  0  0  0  0  0
  186.3840  179.0090  140.0000 N   0  0  0  0  0  2  0  0  0  0  0  0
  187.0310  177.8240  139.4320 C   0  0  0  0  0  2  0  0  0  0  0  0
  188.3770  177.5890  139.9870 N   0  0  0  0  0  0  0  0  0  0  0  0
  188.2020  177.2480  142.4130 C   0  0  0  0  0  2  0  0  0  0  0  0
  189.6550  177.4790  142.0440 C   0  0  1  0  0  3  0  0  0  0  0  0
  188.5570  178.2160  141.2950 C   0  0  1  0  0  3  0  0  0  0  0  0
  190.2640  178.3850  142.9550 O   0  0  0  0  0  0  0  0  0  0  0  0
  192.0390  178.8480  144.3600 O   0  0  0  0  0  0  0  0  0  0  0  0
  191.2600  177.9920  143.8500 C   0  0  0  0  0  0  0  0  0  0  0  0
  191.4590  176.5600  144.0830 C   0  0  0  0  0  3  0  0  0  0  0  0
  191.8710  175.9690  145.2150 C   0  0  0  0  0  3  0  0  0  0  0  0
  192.0600  176.6000  146.4890 N   0  0  0  0  0  2  0  0  0  0  0  0
  191.0470  176.7360  147.5170 C   0  0  0  0  0  2  0  0  0  0  0  0
  189.9650  177.4750  147.0190 O   0  0  0  0  0  0  0  0  0  0  0  0
  188.8730  176.7680  147.3730 N   0  0  0  0  0  2  0  0  0  0  0  0
  187.9150  177.7080  147.9220 C   0  0  0  0  0  2  0  0  0  0  0  0
  186.7190  177.7900  147.0350 C   0  0  0  0  0  3  0  0  0  0  0  0
  186.8100  178.3410  145.8240 C   0  0  0  0  0  2  0  0  0  0  0  0
  189.3370  178.1930  139.0790 C   0  0  0  0  0  2  0  0  0  0  0  0
  190.1370  177.1040  138.3940 C   0  0  0  0  0  2  0  0  0  0  0  0
  189.4380  176.7000  137.1130 C   0  0  0  0  0  2  0  0  0  0  0  0
  187.8160  174.9330  136.8030 N   0  0  0  0  0  2  0  0  0  0  0  0
  189.9730  174.2730  137.4770 N   0  0  0  0  0  1  0  0  0  0  0  0
  189.0070  175.2730  137.1930 C   0  0  0  0  0  0  0  0  0  0  0  0
  184.7780  179.4440  141.6360 O   0  0  0  0  0  0  0  0  0  0  0  0
  182.8270  178.6330  142.7020 C   0  0  0  0  0  2  0  0  0  0  0  0
  184.3370  178.5810  142.6460 C   0  0  2  0  0  3  0  0  0  0  0  0
  183.6620  178.5900  145.0170 C   0  0  0  0  0  1  0  0  0  0  0  0
  183.6430  179.3850  143.7290 C   0  0  2  0  0  3  0  0  0  0  0  0
  1 21  1  6  0  0  0
  1 45  1  0  0  0  0
  2  3  1  0  0  0  0
  3  1  1  0  0  0  0
  4  3  2  0  0  0  0
  5  4  1  0  0  0  0
  6  5  1  0  0  0  0
  6  2  1  0  0  0  0
  7  6  2  0  0  0  0
  8 11  1  0  0  0  0
 10 13  2  0  0  0  0
 11  7  1  0  0  0  0
 11  9  2  0  0  0  0
 12  8  2  0  0  0  0
 12 10  1  0  0  0  0
 13  9  1  0  0  0  0
 13 16  1  0  0  0  0
 14 17  1  0  0  0  0
 17 16  1  0  0  0  0
 17 15  2  0  0  0  0
 18 10  1  0  0  0  0
 18 20  1  0  0  0  0
 19 20  1  0  0  0  0
 22 23  1  0  0  0  0
 22 21  1  0  0  0  0
 25 24  1  0  0  0  0
 25 27  1  1  0  0  0
 26 23  1  6  0  0  0
 26 25  1  0  0  0  0
 26 24  1  0  0  0  0
 27 29  1  0  0  0  0
 29 30  1  0  0  0  0
 29 28  2  0  0  0  0
 30 31  2  0  0  0  0
 31 32  1  0  0  0  0
 32 33  1  0  0  0  0
 34 35  1  0  0  0  0
 34 33  1  0  0  0  0
 35 36  1  0  0  0  0
 37 36  1  0  0  0  0
 38 37  2  0  0  0  0
 39 23  1  0  0  0  0
 40 39  1  0  0  0  0
 41 44  1  0  0  0  0
 41 40  1  0  0  0  0
 42 44  2  0  0  0  0
 44 43  1  0  0  0  0
 46 49  1  0  0  0  0
 47 45  1  6  0  0  0
 47 46  1  0  0  0  0
 47 49  1  0  0  0  0
 49 48  1  1  0  0  0
M  END
>  <MODEL>
9

>  <REMARK>
 VINA RESULT:      -5.5      3.467      6.474
  Name = 
  24 active torsions:
  status: ('A' for Active; 'I' for Inactive)
    1  A    between atoms: O_1  and  C_22
    2  A    between atoms: O_1  and  C_24
    3  A    between atoms: C_5  and  N_17
    4  A    between atoms: C_5  and  N_42
    5  A    between atoms: N_6  and  C_33
    6  A    between atoms: N_6  and  C_43
    7  A    between atoms: O_10  and  C_12
    8  A    between atoms: O_10  and  C_34
    9  A    between atoms: C_12  and  C_37
   10  A    between atoms: C_13  and  C_19
   11  A    between atoms: C_13  and  C_25
   12  A    between atoms: C_15  and  C_22
   13  A    between atoms: C_16  and  C_35
   14  A    between atoms: N_17  and  C_29
   15  A    between atoms: N_17  and  C_44
   16  A    between atoms: C_19  and  C_29
   17  A    between atoms: C_22  and  N_42
   18  A    between atoms: C_23  and  C_39
   19  A    between atoms: C_23  and  N_49
   20  A    between atoms: C_27  and  N_45
   21  A    between atoms: N_31  and  C_32
   22  A    between atoms: C_33  and  O_46
   23  A    between atoms: C_35  and  C_38
   24  A    between atoms: O_46  and  N_49
                            x       y       z     vdW  Elec       q    Type
                         _______ _______ _______ _____ _____    ______ ____

>  <TORSDO>
F 24

$$$$
