=
 OpenBabel11032419463D

 65 69  0  0  1  0  0  0  0  0999 V2000
  183.9860  178.1960  140.7270 C   0  0  0  0  0  2  0  0  0  0  0  0
  182.8170  177.2840  140.5270 C   0  0  0  0  0  3  0  0  0  0  0  0
  185.3860  178.4840  142.7500 C   0  0  0  0  0  0  0  0  0  0  0  0
  181.7150  179.4870  142.2720 N   0  0  0  0  0  2  0  0  0  0  0  0
  183.1130  179.6140  144.0910 O   0  0  0  0  0  0  0  0  0  0  0  0
  184.1550  178.6130  142.1690 C   0  0  0  0  0  0  0  0  0  0  0  0
  182.9960  179.2650  142.8860 C   0  0  0  0  0  0  0  0  0  0  0  0
  181.5690  177.7510  140.5970 C   0  0  0  0  0  0  0  0  0  0  0  0
  181.3450  179.1950  140.8930 C   0  0  0  0  0  2  0  0  0  0  0  0
  186.9510  177.0170  146.5540 C   0  0  0  0  0  3  0  0  0  0  0  0
  186.1650  178.4530  145.2080 C   0  0  0  0  0  0  0  0  0  0  0  0
  186.9070  178.2510  147.1760 C   0  0  0  0  0  3  0  0  0  0  0  0
  186.4770  177.1470  145.2990 N   0  0  0  0  0  0  0  0  0  0  0  0
  186.4130  179.1070  146.3120 O   0  0  0  0  0  0  0  0  0  0  0  0
  185.6350  179.0850  144.0360 N   0  0  0  0  0  2  0  0  0  0  0  0
  187.7040  178.3740  141.8540 C   0  0  0  0  0  3  0  0  0  0  0  0
  186.5190  177.8080  142.0690 C   0  0  0  0  0  3  0  0  0  0  0  0
  190.9400  176.8860  140.6300 C   0  0  1  0  0  3  0  0  0  0  0  0
  190.1240  177.5850  141.7350 C   0  0  1  0  0  3  0  0  0  0  0  0
  190.0960  175.8190  138.6120 O   0  0  0  0  0  0  0  0  0  0  0  0
  188.7620  177.6590  141.2120 N   0  0  0  0  0  0  0  0  0  0  0  0
  189.8850  176.4990  139.6510 C   0  0  0  0  0  0  0  0  0  0  0  0
  188.6130  176.9930  139.9970 N   0  0  0  0  0  2  0  0  0  0  0  0
  190.1450  176.6200  143.2440 S   0  0  0  0  0  0  0  0  0  0  0  0
  191.1930  175.5450  143.1480 O   0  0  0  0  0  0  0  0  0  0  0  0
  188.8000  175.9710  143.4060 O   0  0  0  0  0  0  0  0  0  0  0  0
  190.4410  177.6410  144.6850 C   0  0  2  0  0  3  0  0  0  0  0  0
  191.2120  178.8740  144.3450 C   0  0  0  0  0  0  0  0  0  0  0  0
  190.6040  179.8890  143.9120 O   0  0  0  0  0  0  0  0  0  0  0  0
  192.5870  178.9250  144.5450 O   0  0  0  0  0  1  0  0  0  0  0  0
  190.1850  176.6690  146.6560 C   0  0  0  0  0  1  0  0  0  0  0  0
  191.1290  176.9080  145.6530 O   0  0  0  0  0  0  0  0  0  0  0  0
  191.7880  177.8250  140.0400 O   0  0  0  0  0  0  0  0  0  0  0  0
  193.0180  177.1770  139.9010 C   0  0  0  0  0  2  0  0  0  0  0  0
  193.2840  176.9310  138.4310 C   0  0  0  0  0  2  0  0  0  0  0  0
  193.9270  175.5710  138.2300 C   0  0  0  0  0  2  0  0  0  0  0  0
  194.0890  176.3650  136.1270 O   0  0  0  0  0  1  0  0  0  0  0  0
  194.7310  175.5740  137.0190 N   0  0  0  0  0  2  0  0  0  0  0  0
  180.4580  176.9230  140.4030 O   0  0  0  0  0  0  0  0  0  0  0  0
  180.5420  175.6400  139.7920 C   0  0  0  0  0  2  0  0  0  0  0  0
  180.5030  175.7870  138.3050 C   0  0  0  0  0  0  0  0  0  0  0  0
  181.3840  175.1700  137.5890 N   0  0  0  0  0  0  0  0  0  0  0  0
  181.4090  175.2310  136.1480 C   0  0  0  0  0  2  0  0  0  0  0  0
  182.3270  172.8990  135.6080 N   0  0  0  0  0  2  0  0  0  0  0  0
  181.2580  173.8540  135.5800 C   0  0  0  0  0  0  0  0  0  0  0  0
  180.1710  173.5380  135.0290 O   0  0  0  0  0  0  0  0  0  0  0  0
  183.6260  173.0390  136.2680 C   0  0  2  0  0  3  0  0  0  0  0  0
  186.2920  175.2350  135.4470 C   0  0  2  0  0  3  0  0  0  0  0  0
  184.9840  174.9960  135.8990 O   0  0  0  0  0  0  0  0  0  0  0  0
  185.9300  172.9310  135.1690 C   0  0  0  0  0  2  0  0  0  0  0  0
  187.0360  173.9040  135.4460 C   0  0  2  0  0  3  0  0  0  0  0  0
  184.6530  173.7360  135.3710 C   0  0  1  0  0  3  0  0  0  0  0  0
  187.6330  173.5680  136.8050 C   0  0  0  0  0  1  0  0  0  0  0  0
  186.9740  176.3530  136.2440 C   0  0  2  0  0  3  0  0  0  0  0  0
  185.9390  177.3130  136.7990 C   0  0  0  0  0  1  0  0  0  0  0  0
  187.8470  177.0600  135.4150 O   0  0  0  0  0  1  0  0  0  0  0  0
  184.1200  171.7380  136.8970 C   0  0  0  0  0  2  0  0  0  0  0  0
  183.2280  170.7040  136.6110 O   0  0  0  0  0  1  0  0  0  0  0  0
  179.4030  176.6030  137.6880 C   0  0  0  0  0  2  0  0  0  0  0  0
  179.7870  178.0440  137.6210 C   0  0  0  0  0  0  0  0  0  0  0  0
  181.0170  178.4140  137.0670 C   0  0  0  0  0  3  0  0  0  0  0  0
  180.5370  180.7380  137.5430 C   0  0  0  0  0  3  0  0  0  0  0  0
  178.9340  179.0240  138.1400 C   0  0  0  0  0  3  0  0  0  0  0  0
  179.3090  180.3690  138.1030 C   0  0  0  0  0  3  0  0  0  0  0  0
  181.3910  179.7600  137.0260 C   0  0  0  0  0  3  0  0  0  0  0  0
  1  6  1  0  0  0  0
  2  8  2  0  0  0  0
  2  1  1  0  0  0  0
  3 15  1  0  0  0  0
  4  7  1  0  0  0  0
  6  3  2  0  0  0  0
  6  7  1  0  0  0  0
  7  5  2  0  0  0  0
  8  9  1  0  0  0  0
  9  4  1  0  0  0  0
 10 12  2  0  0  0  0
 11 13  2  0  0  0  0
 11 14  1  0  0  0  0
 13 10  1  0  0  0  0
 14 12  1  0  0  0  0
 15 11  1  0  0  0  0
 16 17  2  0  0  0  0
 17  3  1  0  0  0  0
 18 33  1  6  0  0  0
 18 19  1  0  0  0  0
 19 24  1  1  0  0  0
 20 22  2  0  0  0  0
 21 19  1  0  0  0  0
 21 16  1  0  0  0  0
 22 23  1  0  0  0  0
 22 18  1  0  0  0  0
 23 21  1  0  0  0  0
 24 26  2  0  0  0  0
 24 27  1  0  0  0  0
 25 24  2  0  0  0  0
 27 28  1  6  0  0  0
 27 32  1  0  0  0  0
 28 30  1  0  0  0  0
 29 28  2  0  0  0  0
 32 31  1  0  0  0  0
 34 33  1  0  0  0  0
 35 34  1  0  0  0  0
 36 35  1  0  0  0  0
 37 38  1  0  0  0  0
 38 36  1  0  0  0  0
 39  8  1  0  0  0  0
 40 39  1  0  0  0  0
 41 40  1  0  0  0  0
 42 41  2  0  0  0  0
 43 42  1  0  0  0  0
 44 47  1  0  0  0  0
 45 44  1  0  0  0  0
 45 43  1  0  0  0  0
 46 45  2  0  0  0  0
 47 57  1  6  0  0  0
 48 49  1  0  0  0  0
 48 54  1  1  0  0  0
 50 52  1  0  0  0  0
 50 51  1  0  0  0  0
 51 48  1  0  0  0  0
 51 53  1  1  0  0  0
 52 49  1  0  0  0  0
 52 47  1  1  0  0  0
 54 55  1  6  0  0  0
 56 54  1  0  0  0  0
 58 57  1  0  0  0  0
 59 41  1  0  0  0  0
 60 59  1  0  0  0  0
 60 63  1  0  0  0  0
 61 60  2  0  0  0  0
 62 64  1  0  0  0  0
 64 63  2  0  0  0  0
 65 61  1  0  0  0  0
 65 62  2  0  0  0  0
M  END
>  <MODEL>
1

>  <REMARK>
 VINA RESULT:      -5.9      0.000      0.000
  Name = 
  23 active torsions:
  status: ('A' for Active; 'I' for Inactive)
    1  A    between atoms: C_1  and  C_13
    2  A    between atoms: C_2  and  N_25
    3  A    between atoms: C_3  and  C_62
    4  A    between atoms: S_4  and  C_9
    5  A    between atoms: S_4  and  C_21
    6  A    between atoms: C_6  and  O_63
    7  A    between atoms: N_7  and  CA_49
    8  A    between atoms: C_8  and  C_38
    9  A    between atoms: C_17  and  CA_49
   10  A    between atoms: C_20  and  C_26
   11  A    between atoms: C_21  and  O_30
   12  A    between atoms: C_21  and  C_33
   13  A    between atoms: C_26  and  N_61
   14  A    between atoms: C_31  and  CA_49
   15  A    between atoms: C_32  and  C_44
   16  A    between atoms: C_32  and  C_64
   17  A    between atoms: C_38  and  N_54
   18  A    between atoms: C_39  and  C_47
   19  A    between atoms: C_39  and  O_56
   20  A    between atoms: C_44  and  O_63
   21  A    between atoms: C_47  and  C_62
   22  A    between atoms: C_53  and  O_56
   23  A    between atoms: N_55  and  C_64
                            x       y       z     vdW  Elec       q    Type
                         _______ _______ _______ _____ _____    ______ ____

>  <TORSDO>
F 23

$$$$
=
 OpenBabel11032419463D

 65 69  0  0  1  0  0  0  0  0999 V2000
  190.3720  176.6250  139.3440 C   0  0  0  0  0  2  0  0  0  0  0  0
  190.5930  176.3800  140.8040 C   0  0  0  0  0  3  0  0  0  0  0  0
  191.2900  175.3700  137.4170 C   0  0  0  0  0  0  0  0  0  0  0  0
  193.1940  177.6070  139.8830 N   0  0  0  0  0  2  0  0  0  0  0  0
  193.9060  176.3270  138.1120 O   0  0  0  0  0  0  0  0  0  0  0  0
  191.5370  176.1690  138.4980 C   0  0  0  0  0  0  0  0  0  0  0  0
  192.9190  176.7000  138.8010 C   0  0  0  0  0  0  0  0  0  0  0  0
  191.4590  177.1230  141.4960 C   0  0  0  0  0  0  0  0  0  0  0  0
  192.2230  178.1960  140.7960 C   0  0  0  0  0  2  0  0  0  0  0  0
  193.0700  171.7540  135.7350 C   0  0  0  0  0  3  0  0  0  0  0  0
  192.8140  173.8400  136.0070 C   0  0  0  0  0  0  0  0  0  0  0  0
  193.9220  172.4350  134.8840 C   0  0  0  0  0  3  0  0  0  0  0  0
  192.3650  172.6520  136.4510 N   0  0  0  0  0  0  0  0  0  0  0  0
  193.7340  173.7180  135.0860 O   0  0  0  0  0  0  0  0  0  0  0  0
  192.3400  175.1130  136.4630 N   0  0  0  0  0  2  0  0  0  0  0  0
  189.2420  175.0740  136.0360 C   0  0  0  0  0  3  0  0  0  0  0  0
  189.9440  174.8090  137.1330 C   0  0  0  0  0  3  0  0  0  0  0  0
  185.6450  173.9600  136.0260 C   0  0  1  0  0  3  0  0  0  0  0  0
  186.7150  175.0150  136.3620 C   0  0  1  0  0  3  0  0  0  0  0  0
  185.8860  172.0060  134.5940 O   0  0  0  0  0  0  0  0  0  0  0  0
  187.9600  174.4820  135.8140 N   0  0  0  0  0  0  0  0  0  0  0  0
  186.4000  173.0000  135.1700 C   0  0  0  0  0  0  0  0  0  0  0  0
  187.7710  173.3090  135.0850 N   0  0  0  0  0  2  0  0  0  0  0  0
  186.3270  176.5800  135.5820 S   0  0  0  0  0  0  0  0  0  0  0  0
  185.2090  176.3950  134.5940 O   0  0  0  0  0  0  0  0  0  0  0  0
  187.5480  177.0560  134.8470 O   0  0  0  0  0  0  0  0  0  0  0  0
  185.8850  177.8330  136.7840 C   0  0  2  0  0  3  0  0  0  0  0  0
  187.0850  178.5580  137.3000 C   0  0  0  0  0  0  0  0  0  0  0  0
  187.4090  179.6640  136.7940 O   0  0  0  0  0  0  0  0  0  0  0  0
  187.8180  178.0410  138.3630 O   0  0  0  0  0  1  0  0  0  0  0  0
  184.4810  178.2990  138.4290 C   0  0  0  0  0  1  0  0  0  0  0  0
  185.1950  177.2480  137.8470 O   0  0  0  0  0  0  0  0  0  0  0  0
  185.2640  173.3170  137.2060 O   0  0  0  0  0  0  0  0  0  0  0  0
  183.8680  173.3020  137.1870 C   0  0  0  0  0  2  0  0  0  0  0  0
  183.3900  171.8700  137.0850 C   0  0  0  0  0  2  0  0  0  0  0  0
  182.0690  171.8040  136.3410 C   0  0  0  0  0  2  0  0  0  0  0  0
  181.0810  173.4740  135.1950 O   0  0  0  0  0  1  0  0  0  0  0  0
  181.3690  173.0720  136.4560 N   0  0  0  0  0  2  0  0  0  0  0  0
  191.6780  176.9230  142.8630 O   0  0  0  0  0  0  0  0  0  0  0  0
  190.7850  176.1870  143.6930 C   0  0  0  0  0  2  0  0  0  0  0  0
  189.5110  176.9490  143.8640 C   0  0  0  0  0  0  0  0  0  0  0  0
  188.4070  176.4320  143.4370 N   0  0  0  0  0  0  0  0  0  0  0  0
  187.1260  177.0810  143.5820 C   0  0  0  0  0  2  0  0  0  0  0  0
  185.6300  178.6400  142.2040 N   0  0  0  0  0  2  0  0  0  0  0  0
  186.9000  178.0180  142.4370 C   0  0  0  0  0  0  0  0  0  0  0  0
  187.8440  178.2370  141.6340 O   0  0  0  0  0  0  0  0  0  0  0  0
  184.4420  178.5820  143.0590 C   0  0  2  0  0  3  0  0  0  0  0  0
  181.2810  178.3810  141.4570 C   0  0  2  0  0  3  0  0  0  0  0  0
  182.6520  178.0850  141.5240 O   0  0  0  0  0  0  0  0  0  0  0  0
  182.1100  179.6010  143.2830 C   0  0  0  0  0  2  0  0  0  0  0  0
  180.8550  178.9310  142.8130 C   0  0  2  0  0  3  0  0  0  0  0  0
  183.1920  179.0940  142.3390 C   0  0  1  0  0  3  0  0  0  0  0  0
  180.5050  177.8320  143.8060 C   0  0  0  0  0  1  0  0  0  0  0  0
  180.4630  177.1820  140.9630 C   0  0  2  0  0  3  0  0  0  0  0  0
  180.7420  176.9200  139.4950 C   0  0  0  0  0  1  0  0  0  0  0  0
  179.1010  177.4410  141.1240 O   0  0  0  0  0  1  0  0  0  0  0  0
  184.6690  179.1950  144.4400 C   0  0  0  0  0  2  0  0  0  0  0  0
  184.5580  178.2090  145.4200 O   0  0  0  0  0  1  0  0  0  0  0  0
  189.5490  178.2700  144.5790 C   0  0  0  0  0  2  0  0  0  0  0  0
  189.1320  178.1130  146.0030 C   0  0  0  0  0  0  0  0  0  0  0  0
  190.0720  177.7420  146.9700 C   0  0  0  0  0  3  0  0  0  0  0  0
  188.3440  177.7640  148.6640 C   0  0  0  0  0  3  0  0  0  0  0  0
  187.7940  178.3060  146.3690 C   0  0  0  0  0  3  0  0  0  0  0  0
  187.4010  178.1300  147.6980 C   0  0  0  0  0  3  0  0  0  0  0  0
  189.6790  177.5690  148.3000 C   0  0  0  0  0  3  0  0  0  0  0  0
  1  2  1  0  0  0  0
  2  8  2  0  0  0  0
  3  6  2  0  0  0  0
  4  9  1  0  0  0  0
  5  7  2  0  0  0  0
  6  7  1  0  0  0  0
  6  1  1  0  0  0  0
  7  4  1  0  0  0  0
  8 39  1  0  0  0  0
  9  8  1  0  0  0  0
 10 13  1  0  0  0  0
 11 13  2  0  0  0  0
 11 15  1  0  0  0  0
 12 14  1  0  0  0  0
 12 10  2  0  0  0  0
 14 11  1  0  0  0  0
 15  3  1  0  0  0  0
 16 17  2  0  0  0  0
 17  3  1  0  0  0  0
 18 19  1  0  0  0  0
 18 33  1  1  0  0  0
 19 24  1  6  0  0  0
 20 22  2  0  0  0  0
 21 16  1  0  0  0  0
 21 19  1  0  0  0  0
 22 18  1  0  0  0  0
 23 22  1  0  0  0  0
 23 21  1  0  0  0  0
 24 27  1  0  0  0  0
 25 24  2  0  0  0  0
 26 24  2  0  0  0  0
 27 28  1  1  0  0  0
 27 32  1  0  0  0  0
 28 30  1  0  0  0  0
 29 28  2  0  0  0  0
 32 31  1  0  0  0  0
 34 33  1  0  0  0  0
 35 34  1  0  0  0  0
 36 38  1  0  0  0  0
 36 35  1  0  0  0  0
 37 38  1  0  0  0  0
 39 40  1  0  0  0  0
 40 41  1  0  0  0  0
 41 59  1  0  0  0  0
 42 43  1  0  0  0  0
 42 41  2  0  0  0  0
 44 45  1  0  0  0  0
 44 47  1  0  0  0  0
 45 43  1  0  0  0  0
 46 45  2  0  0  0  0
 47 57  1  1  0  0  0
 48 54  1  1  0  0  0
 48 49  1  0  0  0  0
 48 51  1  0  0  0  0
 49 52  1  0  0  0  0
 51 50  1  0  0  0  0
 51 53  1  1  0  0  0
 52 47  1  1  0  0  0
 52 50  1  0  0  0  0
 54 55  1  6  0  0  0
 54 56  1  0  0  0  0
 57 58  1  0  0  0  0
 59 60  1  0  0  0  0
 60 63  2  0  0  0  0
 60 61  1  0  0  0  0
 61 65  2  0  0  0  0
 63 64  1  0  0  0  0
 64 62  2  0  0  0  0
 65 62  1  0  0  0  0
M  END
>  <MODEL>
2

>  <REMARK>
 VINA RESULT:      -5.9      2.503     10.367
  Name = 
  23 active torsions:
  status: ('A' for Active; 'I' for Inactive)
    1  A    between atoms: C_1  and  C_13
    2  A    between atoms: C_2  and  N_25
    3  A    between atoms: C_3  and  C_62
    4  A    between atoms: S_4  and  C_9
    5  A    between atoms: S_4  and  C_21
    6  A    between atoms: C_6  and  O_63
    7  A    between atoms: N_7  and  CA_49
    8  A    between atoms: C_8  and  C_38
    9  A    between atoms: C_17  and  CA_49
   10  A    between atoms: C_20  and  C_26
   11  A    between atoms: C_21  and  O_30
   12  A    between atoms: C_21  and  C_33
   13  A    between atoms: C_26  and  N_61
   14  A    between atoms: C_31  and  CA_49
   15  A    between atoms: C_32  and  C_44
   16  A    between atoms: C_32  and  C_64
   17  A    between atoms: C_38  and  N_54
   18  A    between atoms: C_39  and  C_47
   19  A    between atoms: C_39  and  O_56
   20  A    between atoms: C_44  and  O_63
   21  A    between atoms: C_47  and  C_62
   22  A    between atoms: C_53  and  O_56
   23  A    between atoms: N_55  and  C_64
                            x       y       z     vdW  Elec       q    Type
                         _______ _______ _______ _____ _____    ______ ____

>  <TORSDO>
F 23

$$$$
=
 OpenBabel11032419463D

 65 69  0  0  1  0  0  0  0  0999 V2000
  184.0560  178.4350  141.2270 C   0  0  0  0  0  2  0  0  0  0  0  0
  182.8340  177.6170  140.9490 C   0  0  0  0  0  3  0  0  0  0  0  0
  185.5070  178.4000  143.2340 C   0  0  0  0  0  0  0  0  0  0  0  0
  181.8900  179.6480  142.9730 N   0  0  0  0  0  2  0  0  0  0  0  0
  183.3260  179.4780  144.7590 O   0  0  0  0  0  0  0  0  0  0  0  0
  184.2740  178.6640  142.7040 C   0  0  0  0  0  0  0  0  0  0  0  0
  183.1670  179.2850  143.5230 C   0  0  0  0  0  0  0  0  0  0  0  0
  181.6150  178.1380  141.1060 C   0  0  0  0  0  0  0  0  0  0  0  0
  181.4790  179.5460  141.5790 C   0  0  0  0  0  2  0  0  0  0  0  0
  187.6040  176.5880  146.6090 C   0  0  0  0  0  3  0  0  0  0  0  0
  186.5270  178.0970  145.5830 C   0  0  0  0  0  0  0  0  0  0  0  0
  187.4810  177.6980  147.4260 C   0  0  0  0  0  3  0  0  0  0  0  0
  186.9940  176.8450  145.4350 N   0  0  0  0  0  0  0  0  0  0  0  0
  186.8080  178.6030  146.7560 O   0  0  0  0  0  0  0  0  0  0  0  0
  185.8130  178.8260  144.5770 N   0  0  0  0  0  2  0  0  0  0  0  0
  187.6450  178.3970  141.9630 C   0  0  0  0  0  3  0  0  0  0  0  0
  186.5880  177.7520  142.4490 C   0  0  0  0  0  3  0  0  0  0  0  0
  190.7890  176.8550  140.5780 C   0  0  1  0  0  3  0  0  0  0  0  0
  189.9950  177.4310  141.7660 C   0  0  1  0  0  3  0  0  0  0  0  0
  189.9330  176.2120  138.3930 O   0  0  0  0  0  0  0  0  0  0  0  0
  188.6630  177.7080  141.2330 N   0  0  0  0  0  0  0  0  0  0  0  0
  189.7420  176.7270  139.5250 C   0  0  0  0  0  0  0  0  0  0  0  0
  188.5030  177.2660  139.9210 N   0  0  0  0  0  2  0  0  0  0  0  0
  189.8830  176.2320  143.0930 S   0  0  0  0  0  0  0  0  0  0  0  0
  190.5670  174.9560  142.6870 O   0  0  0  0  0  0  0  0  0  0  0  0
  188.4310  175.9440  143.3460 O   0  0  0  0  0  0  0  0  0  0  0  0
  190.5940  176.8550  144.6140 C   0  0  2  0  0  3  0  0  0  0  0  0
  190.7450  178.3400  144.5930 C   0  0  0  0  0  0  0  0  0  0  0  0
  189.7700  179.0700  144.9110 O   0  0  0  0  0  1  0  0  0  0  0  0
  191.9660  178.9200  144.2660 O   0  0  0  0  0  0  0  0  0  0  0  0
  191.9110  176.0970  146.2230 C   0  0  0  0  0  1  0  0  0  0  0  0
  191.8360  176.2580  144.8370 O   0  0  0  0  0  0  0  0  0  0  0  0
  191.7330  177.8010  140.1710 O   0  0  0  0  0  0  0  0  0  0  0  0
  192.9050  177.0780  139.9370 C   0  0  0  0  0  2  0  0  0  0  0  0
  193.1760  177.0450  138.4480 C   0  0  0  0  0  2  0  0  0  0  0  0
  193.5060  175.6320  138.0020 C   0  0  0  0  0  2  0  0  0  0  0  0
  195.3640  174.4100  137.6350 O   0  0  0  0  0  1  0  0  0  0  0  0
  194.8010  175.6070  137.3430 N   0  0  0  0  0  2  0  0  0  0  0  0
  180.4570  177.4010  140.8420 O   0  0  0  0  0  0  0  0  0  0  0  0
  180.4480  176.2290  140.0340 C   0  0  0  0  0  2  0  0  0  0  0  0
  180.8290  176.5790  138.6330 C   0  0  0  0  0  0  0  0  0  0  0  0
  182.0400  176.3630  138.2370 N   0  0  0  0  0  0  0  0  0  0  0  0
  182.4920  176.6440  136.8960 C   0  0  0  0  0  2  0  0  0  0  0  0
  184.8150  175.6660  136.4320 N   0  0  0  0  0  2  0  0  0  0  0  0
  183.9840  176.7470  136.8750 C   0  0  0  0  0  0  0  0  0  0  0  0
  184.5280  177.8030  137.2920 O   0  0  0  0  0  0  0  0  0  0  0  0
  184.3820  174.4000  135.8380 C   0  0  2  0  0  3  0  0  0  0  0  0
  182.0730  171.9510  136.9650 C   0  0  2  0  0  3  0  0  0  0  0  0
  182.3680  173.1890  136.3710 O   0  0  0  0  0  0  0  0  0  0  0  0
  184.3950  172.2250  137.1790 C   0  0  0  0  0  2  0  0  0  0  0  0
  183.3650  171.1470  137.0340 C   0  0  2  0  0  3  0  0  0  0  0  0
  183.6500  173.5120  136.8470 C   0  0  1  0  0  3  0  0  0  0  0  0
  183.6520  170.3890  135.7440 C   0  0  0  0  0  1  0  0  0  0  0  0
  180.9110  171.2440  136.2580 C   0  0  2  0  0  3  0  0  0  0  0  0
  180.5200  171.9970  135.0000 C   0  0  0  0  0  1  0  0  0  0  0  0
  179.8060  171.1830  137.1090 O   0  0  0  0  0  1  0  0  0  0  0  0
  185.4940  173.6910  135.0670 C   0  0  0  0  0  2  0  0  0  0  0  0
  186.7310  174.2440  135.4020 O   0  0  0  0  0  1  0  0  0  0  0  0
  179.7740  177.1220  137.7110 C   0  0  0  0  0  2  0  0  0  0  0  0
  180.0870  178.5260  137.3160 C   0  0  0  0  0  0  0  0  0  0  0  0
  180.9130  179.3120  138.1270 C   0  0  0  0  0  3  0  0  0  0  0  0
  180.6340  181.1780  136.6100 C   0  0  0  0  0  3  0  0  0  0  0  0
  179.5320  179.0710  136.1520 C   0  0  0  0  0  3  0  0  0  0  0  0
  179.8040  180.3950  135.8010 C   0  0  0  0  0  3  0  0  0  0  0  0
  181.1880  180.6360  137.7740 C   0  0  0  0  0  3  0  0  0  0  0  0
  1  6  1  0  0  0  0
  2  8  2  0  0  0  0
  2  1  1  0  0  0  0
  3 15  1  0  0  0  0
  4  7  1  0  0  0  0
  6  3  2  0  0  0  0
  6  7  1  0  0  0  0
  7  5  2  0  0  0  0
  8  9  1  0  0  0  0
  9  4  1  0  0  0  0
 10 12  2  0  0  0  0
 11 14  1  0  0  0  0
 13 11  2  0  0  0  0
 13 10  1  0  0  0  0
 14 12  1  0  0  0  0
 15 11  1  0  0  0  0
 16 17  2  0  0  0  0
 17  3  1  0  0  0  0
 18 33  1  6  0  0  0
 18 19  1  0  0  0  0
 19 24  1  1  0  0  0
 20 22  2  0  0  0  0
 21 19  1  0  0  0  0
 21 16  1  0  0  0  0
 22 23  1  0  0  0  0
 22 18  1  0  0  0  0
 23 21  1  0  0  0  0
 24 26  2  0  0  0  0
 24 27  1  0  0  0  0
 25 24  2  0  0  0  0
 27 28  1  6  0  0  0
 27 32  1  0  0  0  0
 28 29  1  0  0  0  0
 30 28  2  0  0  0  0
 32 31  1  0  0  0  0
 34 33  1  0  0  0  0
 35 34  1  0  0  0  0
 36 35  1  0  0  0  0
 38 37  1  0  0  0  0
 38 36  1  0  0  0  0
 39  8  1  0  0  0  0
 40 39  1  0  0  0  0
 41 40  1  0  0  0  0
 42 41  2  0  0  0  0
 43 42  1  0  0  0  0
 44 45  1  0  0  0  0
 45 43  1  0  0  0  0
 45 46  2  0  0  0  0
 47 57  1  1  0  0  0
 47 44  1  0  0  0  0
 48 54  1  6  0  0  0
 48 51  1  0  0  0  0
 49 52  1  0  0  0  0
 49 48  1  0  0  0  0
 51 53  1  6  0  0  0
 51 50  1  0  0  0  0
 52 47  1  6  0  0  0
 52 50  1  0  0  0  0
 54 55  1  6  0  0  0
 54 56  1  0  0  0  0
 57 58  1  0  0  0  0
 59 41  1  0  0  0  0
 60 59  1  0  0  0  0
 60 61  1  0  0  0  0
 62 65  1  0  0  0  0
 63 60  2  0  0  0  0
 64 63  1  0  0  0  0
 64 62  2  0  0  0  0
 65 61  2  0  0  0  0
M  END
>  <MODEL>
3

>  <REMARK>
 VINA RESULT:      -5.4      1.349      2.742
  Name = 
  23 active torsions:
  status: ('A' for Active; 'I' for Inactive)
    1  A    between atoms: C_1  and  C_13
    2  A    between atoms: C_2  and  N_25
    3  A    between atoms: C_3  and  C_62
    4  A    between atoms: S_4  and  C_9
    5  A    between atoms: S_4  and  C_21
    6  A    between atoms: C_6  and  O_63
    7  A    between atoms: N_7  and  CA_49
    8  A    between atoms: C_8  and  C_38
    9  A    between atoms: C_17  and  CA_49
   10  A    between atoms: C_20  and  C_26
   11  A    between atoms: C_21  and  O_30
   12  A    between atoms: C_21  and  C_33
   13  A    between atoms: C_26  and  N_61
   14  A    between atoms: C_31  and  CA_49
   15  A    between atoms: C_32  and  C_44
   16  A    between atoms: C_32  and  C_64
   17  A    between atoms: C_38  and  N_54
   18  A    between atoms: C_39  and  C_47
   19  A    between atoms: C_39  and  O_56
   20  A    between atoms: C_44  and  O_63
   21  A    between atoms: C_47  and  C_62
   22  A    between atoms: C_53  and  O_56
   23  A    between atoms: N_55  and  C_64
                            x       y       z     vdW  Elec       q    Type
                         _______ _______ _______ _____ _____    ______ ____

>  <TORSDO>
F 23

$$$$
=
 OpenBabel11032419463D

 65 69  0  0  1  0  0  0  0  0999 V2000
  184.5670  178.0830  140.7630 C   0  0  0  0  0  2  0  0  0  0  0  0
  185.9630  178.6190  140.6960 C   0  0  0  0  0  3  0  0  0  0  0  0
  182.4560  179.3270  141.1240 C   0  0  0  0  0  0  0  0  0  0  0  0
  185.2920  178.7350  143.6370 N   0  0  0  0  0  2  0  0  0  0  0  0
  183.3300  179.9200  143.7940 O   0  0  0  0  0  0  0  0  0  0  0  0
  183.6630  178.9290  141.6280 C   0  0  0  0  0  0  0  0  0  0  0  0
  184.0660  179.2110  143.0570 C   0  0  0  0  0  0  0  0  0  0  0  0
  186.7810  178.5210  141.7450 C   0  0  0  0  0  0  0  0  0  0  0  0
  186.2870  177.8830  142.9990 C   0  0  0  0  0  2  0  0  0  0  0  0
  179.6240  177.7810  144.0680 C   0  0  0  0  0  3  0  0  0  0  0  0
  180.6120  179.2680  142.9260 C   0  0  0  0  0  0  0  0  0  0  0  0
  179.1710  179.0290  144.4530 C   0  0  0  0  0  3  0  0  0  0  0  0
  180.5430  177.9350  143.0930 N   0  0  0  0  0  0  0  0  0  0  0  0
  179.8030  179.9180  143.7220 O   0  0  0  0  0  0  0  0  0  0  0  0
  181.4810  179.9290  141.9980 N   0  0  0  0  0  2  0  0  0  0  0  0
  181.4930  177.9750  139.2710 C   0  0  0  0  0  3  0  0  0  0  0  0
  182.0680  179.0910  139.7110 C   0  0  0  0  0  3  0  0  0  0  0  0
  181.0490  177.0270  135.6530 C   0  0  1  0  0  3  0  0  0  0  0  0
  181.4950  176.6680  137.0830 C   0  0  1  0  0  3  0  0  0  0  0  0
  179.7070  178.9330  134.9530 O   0  0  0  0  0  0  0  0  0  0  0  0
  181.1230  177.8220  137.8990 N   0  0  0  0  0  0  0  0  0  0  0  0
  180.3210  178.3110  135.8590 C   0  0  0  0  0  0  0  0  0  0  0  0
  180.4040  178.7780  137.1850 N   0  0  0  0  0  2  0  0  0  0  0  0
  180.6350  175.2080  137.6660 S   0  0  0  0  0  0  0  0  0  0  0  0
  179.1500  175.4460  137.6390 O   0  0  0  0  0  0  0  0  0  0  0  0
  181.0570  174.9470  139.0830 O   0  0  0  0  0  0  0  0  0  0  0  0
  181.0440  173.7610  136.6940 C   0  0  2  0  0  3  0  0  0  0  0  0
  180.0050  172.6950  136.8170 C   0  0  0  0  0  0  0  0  0  0  0  0
  178.9810  172.7360  136.0860 O   0  0  0  0  0  0  0  0  0  0  0  0
  180.1830  171.6350  137.7000 O   0  0  0  0  0  1  0  0  0  0  0  0
  182.8650  172.7730  135.9150 C   0  0  0  0  0  1  0  0  0  0  0  0
  182.2840  173.2580  137.0900 O   0  0  0  0  0  0  0  0  0  0  0  0
  182.1860  177.2680  134.8780 O   0  0  0  0  0  0  0  0  0  0  0  0
  183.1470  176.3640  135.3390 C   0  0  0  0  0  2  0  0  0  0  0  0
  184.5240  176.8860  134.9890 C   0  0  0  0  0  2  0  0  0  0  0  0
  185.3110  177.1880  136.2500 C   0  0  0  0  0  2  0  0  0  0  0  0
  185.9710  175.1820  137.0390 O   0  0  0  0  0  1  0  0  0  0  0  0
  186.4300  176.2690  136.3730 N   0  0  0  0  0  2  0  0  0  0  0  0
  188.0930  179.0030  141.7060 O   0  0  0  0  0  0  0  0  0  0  0  0
  189.1420  178.4680  142.5070 C   0  0  0  0  0  2  0  0  0  0  0  0
  189.7860  177.3220  141.7950 C   0  0  0  0  0  0  0  0  0  0  0  0
  190.0180  177.4190  140.5290 N   0  0  0  0  0  0  0  0  0  0  0  0
  190.6600  176.3770  139.7640 C   0  0  0  0  0  2  0  0  0  0  0  0
  190.7240  175.5720  137.3320 N   0  0  0  0  0  2  0  0  0  0  0  0
  190.1550  176.3980  138.3560 C   0  0  0  0  0  0  0  0  0  0  0  0
  189.2270  177.1920  138.0530 O   0  0  0  0  0  0  0  0  0  0  0  0
  191.7420  174.5320  137.4930 C   0  0  2  0  0  3  0  0  0  0  0  0
  195.2540  174.7020  137.0030 C   0  0  2  0  0  3  0  0  0  0  0  0
  194.1110  174.0940  137.5500 O   0  0  0  0  0  0  0  0  0  0  0  0
  193.4650  176.1370  136.5000 C   0  0  0  0  0  2  0  0  0  0  0  0
  194.7920  175.7060  135.9550 C   0  0  2  0  0  3  0  0  0  0  0  0
  193.1520  175.1210  137.5910 C   0  0  1  0  0  3  0  0  0  0  0  0
  194.5590  175.0640  134.5940 C   0  0  0  0  0  1  0  0  0  0  0  0
  196.2640  173.6640  136.5000 C   0  0  2  0  0  3  0  0  0  0  0  0
  196.7510  172.8000  137.6480 C   0  0  0  0  0  1  0  0  0  0  0  0
  197.3600  174.3100  135.9250 O   0  0  0  0  0  1  0  0  0  0  0  0
  191.6030  173.3970  136.4810 C   0  0  0  0  0  2  0  0  0  0  0  0
  190.9360  173.8540  135.3440 O   0  0  0  0  0  1  0  0  0  0  0  0
  190.1920  176.1140  142.5910 C   0  0  0  0  0  2  0  0  0  0  0  0
  190.3090  176.4490  144.0400 C   0  0  0  0  0  0  0  0  0  0  0  0
  191.5530  176.3780  144.6760 C   0  0  0  0  0  3  0  0  0  0  0  0
  190.5240  177.0240  146.7700 C   0  0  0  0  0  3  0  0  0  0  0  0
  189.1710  176.8060  144.7740 C   0  0  0  0  0  3  0  0  0  0  0  0
  189.2780  177.0910  146.1370 C   0  0  0  0  0  3  0  0  0  0  0  0
  191.6610  176.6660  146.0390 C   0  0  0  0  0  3  0  0  0  0  0  0
  1  6  1  0  0  0  0
  2  1  1  0  0  0  0
  2  8  2  0  0  0  0
  3  6  2  0  0  0  0
  3 15  1  0  0  0  0
  6  7  1  0  0  0  0
  7  4  1  0  0  0  0
  7  5  2  0  0  0  0
  8  9  1  0  0  0  0
  9  4  1  0  0  0  0
 10 12  2  0  0  0  0
 11 13  2  0  0  0  0
 11 14  1  0  0  0  0
 13 10  1  0  0  0  0
 14 12  1  0  0  0  0
 15 11  1  0  0  0  0
 16 17  2  0  0  0  0
 17  3  1  0  0  0  0
 18 33  1  6  0  0  0
 18 22  1  0  0  0  0
 18 19  1  0  0  0  0
 19 24  1  1  0  0  0
 19 21  1  0  0  0  0
 20 22  2  0  0  0  0
 21 16  1  0  0  0  0
 22 23  1  0  0  0  0
 23 21  1  0  0  0  0
 24 26  2  0  0  0  0
 25 24  2  0  0  0  0
 27 28  1  1  0  0  0
 27 32  1  0  0  0  0
 27 24  1  0  0  0  0
 28 30  1  0  0  0  0
 29 28  2  0  0  0  0
 31 32  1  0  0  0  0
 33 34  1  0  0  0  0
 35 34  1  0  0  0  0
 35 36  1  0  0  0  0
 36 38  1  0  0  0  0
 38 37  1  0  0  0  0
 39  8  1  0  0  0  0
 39 40  1  0  0  0  0
 41 40  1  0  0  0  0
 41 59  1  0  0  0  0
 42 41  2  0  0  0  0
 43 42  1  0  0  0  0
 44 47  1  0  0  0  0
 44 45  1  0  0  0  0
 45 43  1  0  0  0  0
 46 45  2  0  0  0  0
 47 57  1  6  0  0  0
 48 54  1  6  0  0  0
 48 49  1  0  0  0  0
 49 52  1  0  0  0  0
 50 52  1  0  0  0  0
 51 53  1  6  0  0  0
 51 50  1  0  0  0  0
 51 48  1  0  0  0  0
 52 47  1  6  0  0  0
 54 55  1  1  0  0  0
 56 54  1  0  0  0  0
 58 57  1  0  0  0  0
 59 60  1  0  0  0  0
 60 61  2  0  0  0  0
 60 63  1  0  0  0  0
 61 65  1  0  0  0  0
 63 64  2  0  0  0  0
 64 62  1  0  0  0  0
 65 62  2  0  0  0  0
M  END
>  <MODEL>
4

>  <REMARK>
 VINA RESULT:      -5.2      2.844      9.688
  Name = 
  23 active torsions:
  status: ('A' for Active; 'I' for Inactive)
    1  A    between atoms: C_1  and  C_13
    2  A    between atoms: C_2  and  N_25
    3  A    between atoms: C_3  and  C_62
    4  A    between atoms: S_4  and  C_9
    5  A    between atoms: S_4  and  C_21
    6  A    between atoms: C_6  and  O_63
    7  A    between atoms: N_7  and  CA_49
    8  A    between atoms: C_8  and  C_38
    9  A    between atoms: C_17  and  CA_49
   10  A    between atoms: C_20  and  C_26
   11  A    between atoms: C_21  and  O_30
   12  A    between atoms: C_21  and  C_33
   13  A    between atoms: C_26  and  N_61
   14  A    between atoms: C_31  and  CA_49
   15  A    between atoms: C_32  and  C_44
   16  A    between atoms: C_32  and  C_64
   17  A    between atoms: C_38  and  N_54
   18  A    between atoms: C_39  and  C_47
   19  A    between atoms: C_39  and  O_56
   20  A    between atoms: C_44  and  O_63
   21  A    between atoms: C_47  and  C_62
   22  A    between atoms: C_53  and  O_56
   23  A    between atoms: N_55  and  C_64
                            x       y       z     vdW  Elec       q    Type
                         _______ _______ _______ _____ _____    ______ ____

>  <TORSDO>
F 23

$$$$
=
 OpenBabel11032419463D

 65 69  0  0  1  0  0  0  0  0999 V2000
  183.8840  177.9020  138.9990 C   0  0  0  0  0  2  0  0  0  0  0  0
  184.1500  176.5800  138.3500 C   0  0  0  0  0  3  0  0  0  0  0  0
  182.1730  178.4660  140.6990 C   0  0  0  0  0  0  0  0  0  0  0  0
  181.6110  177.5300  137.0220 N   0  0  0  0  0  2  0  0  0  0  0  0
  180.1410  177.9970  138.7260 O   0  0  0  0  0  0  0  0  0  0  0  0
  182.4420  178.0600  139.4210 C   0  0  0  0  0  0  0  0  0  0  0  0
  181.3510  177.8780  138.3930 C   0  0  0  0  0  0  0  0  0  0  0  0
  183.7030  176.3230  137.1200 C   0  0  0  0  0  0  0  0  0  0  0  0
  182.9160  177.3630  136.3970 C   0  0  0  0  0  2  0  0  0  0  0  0
  180.1280  179.2380  144.4790 C   0  0  0  0  0  3  0  0  0  0  0  0
  180.3080  179.0680  142.3750 C   0  0  0  0  0  0  0  0  0  0  0  0
  178.9320  179.5990  143.8870 C   0  0  0  0  0  3  0  0  0  0  0  0
  181.0040  178.8990  143.5130 N   0  0  0  0  0  0  0  0  0  0  0  0
  179.0850  179.4770  142.5900 O   0  0  0  0  0  0  0  0  0  0  0  0
  180.8310  178.8490  141.0590 N   0  0  0  0  0  2  0  0  0  0  0  0
  184.2850  177.8000  141.8330 C   0  0  0  0  0  3  0  0  0  0  0  0
  183.2340  178.6090  141.7280 C   0  0  0  0  0  3  0  0  0  0  0  0
  187.3290  177.8690  144.0490 C   0  0  1  0  0  3  0  0  0  0  0  0
  186.6880  177.6420  142.6670 C   0  0  1  0  0  3  0  0  0  0  0  0
  186.3240  178.9330  145.9940 O   0  0  0  0  0  0  0  0  0  0  0  0
  185.2830  178.0070  142.8350 N   0  0  0  0  0  0  0  0  0  0  0  0
  186.2170  178.4980  144.8180 C   0  0  0  0  0  0  0  0  0  0  0  0
  185.0100  178.5390  144.0930 N   0  0  0  0  0  2  0  0  0  0  0  0
  187.4480  178.6990  141.4360 S   0  0  0  0  0  0  0  0  0  0  0  0
  188.6900  179.3310  142.0020 O   0  0  0  0  0  0  0  0  0  0  0  0
  186.4720  179.7840  141.0790 O   0  0  0  0  0  0  0  0  0  0  0  0
  187.8430  177.8000  139.9380 C   0  0  2  0  0  3  0  0  0  0  0  0
  189.2920  177.4490  139.8640 C   0  0  0  0  0  0  0  0  0  0  0  0
  190.0750  178.1740  139.1960 O   0  0  0  0  0  0  0  0  0  0  0  0
  189.7900  176.3550  140.5630 O   0  0  0  0  0  1  0  0  0  0  0  0
  187.4870  177.6500  137.7590 C   0  0  0  0  0  1  0  0  0  0  0  0
  187.4840  178.5580  138.8210 O   0  0  0  0  0  0  0  0  0  0  0  0
  187.6270  176.6270  144.6130 O   0  0  0  0  0  0  0  0  0  0  0  0
  189.0020  176.4570  144.4280 C   0  0  0  0  0  2  0  0  0  0  0  0
  189.7270  176.9100  145.6770 C   0  0  0  0  0  2  0  0  0  0  0  0
  191.1500  177.3190  145.3430 C   0  0  0  0  0  2  0  0  0  0  0  0
  192.1170  175.5110  146.2790 O   0  0  0  0  0  1  0  0  0  0  0  0
  191.9620  176.1400  145.0900 N   0  0  0  0  0  2  0  0  0  0  0  0
  183.9460  175.1000  136.4860 O   0  0  0  0  0  0  0  0  0  0  0  0
  184.8850  174.1460  136.9710 C   0  0  0  0  0  2  0  0  0  0  0  0
  185.9370  173.9040  135.9390 C   0  0  0  0  0  0  0  0  0  0  0  0
  187.1610  174.2240  136.2010 N   0  0  0  0  0  0  0  0  0  0  0  0
  188.2480  174.0030  135.2780 C   0  0  0  0  0  2  0  0  0  0  0  0
  190.4620  175.1960  135.7710 N   0  0  0  0  0  2  0  0  0  0  0  0
  189.1320  175.2090  135.2370 C   0  0  0  0  0  0  0  0  0  0  0  0
  188.6810  176.2790  134.7500 O   0  0  0  0  0  0  0  0  0  0  0  0
  191.1950  174.0430  136.2990 C   0  0  2  0  0  3  0  0  0  0  0  0
  194.4200  174.5080  137.7070 C   0  0  2  0  0  3  0  0  0  0  0  0
  193.3950  173.6840  137.2150 O   0  0  0  0  0  0  0  0  0  0  0  0
  192.5970  175.9300  137.3000 C   0  0  0  0  0  2  0  0  0  0  0  0
  194.0950  175.9440  137.3120 C   0  0  2  0  0  3  0  0  0  0  0  0
  192.2270  174.4540  137.3530 C   0  0  1  0  0  3  0  0  0  0  0  0
  194.5770  176.2870  135.9090 C   0  0  0  0  0  1  0  0  0  0  0  0
  195.8050  174.0170  137.2680 C   0  0  2  0  0  3  0  0  0  0  0  0
  196.1620  172.7300  137.9870 C   0  0  0  0  0  1  0  0  0  0  0  0
  196.7660  174.9830  137.5680 O   0  0  0  0  0  1  0  0  0  0  0  0
  191.7440  173.1310  135.2030 C   0  0  0  0  0  2  0  0  0  0  0  0
  191.7750  171.8120  135.6560 O   0  0  0  0  0  1  0  0  0  0  0  0
  185.5450  173.2420  134.6480 C   0  0  0  0  0  2  0  0  0  0  0  0
  184.6970  172.0410  134.9050 C   0  0  0  0  0  0  0  0  0  0  0  0
  183.3100  172.1200  134.7480 C   0  0  0  0  0  3  0  0  0  0  0  0
  183.0980  169.8090  135.4380 C   0  0  0  0  0  3  0  0  0  0  0  0
  185.2840  170.8450  135.3330 C   0  0  0  0  0  3  0  0  0  0  0  0
  184.4850  169.7300  135.6000 C   0  0  0  0  0  3  0  0  0  0  0  0
  182.5100  171.0050  135.0130 C   0  0  0  0  0  3  0  0  0  0  0  0
  1  6  1  0  0  0  0
  2  1  1  0  0  0  0
  3 15  1  0  0  0  0
  3 17  1  0  0  0  0
  4  7  1  0  0  0  0
  6  3  2  0  0  0  0
  7  5  2  0  0  0  0
  7  6  1  0  0  0  0
  8  2  2  0  0  0  0
  9  4  1  0  0  0  0
  9  8  1  0  0  0  0
 11 14  1  0  0  0  0
 11 13  2  0  0  0  0
 12 10  2  0  0  0  0
 13 10  1  0  0  0  0
 14 12  1  0  0  0  0
 15 11  1  0  0  0  0
 16 21  1  0  0  0  0
 17 16  2  0  0  0  0
 18 33  1  1  0  0  0
 18 22  1  0  0  0  0
 19 24  1  6  0  0  0
 19 21  1  0  0  0  0
 19 18  1  0  0  0  0
 21 23  1  0  0  0  0
 22 20  2  0  0  0  0
 23 22  1  0  0  0  0
 24 25  2  0  0  0  0
 26 24  2  0  0  0  0
 27 32  1  6  0  0  0
 27 24  1  0  0  0  0
 28 27  1  0  0  0  0
 28 30  1  0  0  0  0
 29 28  2  0  0  0  0
 31 32  1  0  0  0  0
 34 33  1  0  0  0  0
 34 35  1  0  0  0  0
 36 35  1  0  0  0  0
 38 36  1  0  0  0  0
 38 37  1  0  0  0  0
 39 40  1  0  0  0  0
 39  8  1  0  0  0  0
 41 42  2  0  0  0  0
 41 40  1  0  0  0  0
 43 42  1  0  0  0  0
 44 47  1  0  0  0  0
 45 43  1  0  0  0  0
 45 44  1  0  0  0  0
 46 45  2  0  0  0  0
 47 57  1  6  0  0  0
 48 54  1  6  0  0  0
 49 52  1  0  0  0  0
 49 48  1  0  0  0  0
 50 51  1  0  0  0  0
 50 52  1  0  0  0  0
 51 53  1  6  0  0  0
 51 48  1  0  0  0  0
 52 47  1  6  0  0  0
 54 56  1  0  0  0  0
 54 55  1  1  0  0  0
 57 58  1  0  0  0  0
 59 60  1  0  0  0  0
 59 41  1  0  0  0  0
 60 63  1  0  0  0  0
 61 60  2  0  0  0  0
 61 65  1  0  0  0  0
 62 64  1  0  0  0  0
 63 64  2  0  0  0  0
 65 62  2  0  0  0  0
M  END
>  <MODEL>
5

>  <REMARK>
 VINA RESULT:      -5.0      2.513      7.180
  Name = 
  23 active torsions:
  status: ('A' for Active; 'I' for Inactive)
    1  A    between atoms: C_1  and  C_13
    2  A    between atoms: C_2  and  N_25
    3  A    between atoms: C_3  and  C_62
    4  A    between atoms: S_4  and  C_9
    5  A    between atoms: S_4  and  C_21
    6  A    between atoms: C_6  and  O_63
    7  A    between atoms: N_7  and  CA_49
    8  A    between atoms: C_8  and  C_38
    9  A    between atoms: C_17  and  CA_49
   10  A    between atoms: C_20  and  C_26
   11  A    between atoms: C_21  and  O_30
   12  A    between atoms: C_21  and  C_33
   13  A    between atoms: C_26  and  N_61
   14  A    between atoms: C_31  and  CA_49
   15  A    between atoms: C_32  and  C_44
   16  A    between atoms: C_32  and  C_64
   17  A    between atoms: C_38  and  N_54
   18  A    between atoms: C_39  and  C_47
   19  A    between atoms: C_39  and  O_56
   20  A    between atoms: C_44  and  O_63
   21  A    between atoms: C_47  and  C_62
   22  A    between atoms: C_53  and  O_56
   23  A    between atoms: N_55  and  C_64
                            x       y       z     vdW  Elec       q    Type
                         _______ _______ _______ _____ _____    ______ ____

>  <TORSDO>
F 23

$$$$
=
 OpenBabel11032419463D

 65 69  0  0  1  0  0  0  0  0999 V2000
  182.7740  177.7420  140.0310 C   0  0  0  0  0  2  0  0  0  0  0  0
  183.0410  178.4900  141.2990 C   0  0  0  0  0  3  0  0  0  0  0  0
  182.0480  178.6390  137.8390 C   0  0  0  0  0  0  0  0  0  0  0  0
  180.0290  178.4800  141.0970 N   0  0  0  0  0  2  0  0  0  0  0  0
  179.5300  179.3430  139.0260 O   0  0  0  0  0  0  0  0  0  0  0  0
  181.7520  178.4310  139.1580 C   0  0  0  0  0  0  0  0  0  0  0  0
  180.3950  178.7620  139.7350 C   0  0  0  0  0  0  0  0  0  0  0  0
  182.1370  178.5130  142.2800 C   0  0  0  0  0  0  0  0  0  0  0  0
  180.8420  177.7980  142.0960 C   0  0  0  0  0  2  0  0  0  0  0  0
  180.5310  182.5390  136.5900 C   0  0  0  0  0  3  0  0  0  0  0  0
  180.6320  180.4220  136.6280 C   0  0  0  0  0  0  0  0  0  0  0  0
  179.6250  182.0200  135.6830 C   0  0  0  0  0  3  0  0  0  0  0  0
  181.1720  181.5180  137.1930 N   0  0  0  0  0  0  0  0  0  0  0  0
  179.7180  180.7130  135.7400 O   0  0  0  0  0  0  0  0  0  0  0  0
  181.0140  179.0750  136.9350 N   0  0  0  0  0  2  0  0  0  0  0  0
  184.3360  177.6640  137.9010 C   0  0  0  0  0  3  0  0  0  0  0  0
  183.3900  178.3550  137.2710 C   0  0  0  0  0  3  0  0  0  0  0  0
  187.5870  176.2940  136.5840 C   0  0  1  0  0  3  0  0  0  0  0  0
  186.1520  176.0670  137.0980 C   0  0  1  0  0  3  0  0  0  0  0  0
  188.6020  178.3960  135.8970 O   0  0  0  0  0  0  0  0  0  0  0  0
  185.6000  177.4070  137.2870 N   0  0  0  0  0  0  0  0  0  0  0  0
  187.6280  177.7710  136.3920 C   0  0  0  0  0  0  0  0  0  0  0  0
  186.4580  178.4120  136.8440 N   0  0  0  0  0  2  0  0  0  0  0  0
  185.1800  175.1740  135.8870 S   0  0  0  0  0  0  0  0  0  0  0  0
  186.0460  174.1700  135.1770 O   0  0  0  0  0  0  0  0  0  0  0  0
  184.6590  176.1600  134.8810 O   0  0  0  0  0  0  0  0  0  0  0  0
  183.7740  174.3540  136.6350 C   0  0  2  0  0  3  0  0  0  0  0  0
  184.0760  172.9340  136.9820 C   0  0  0  0  0  0  0  0  0  0  0  0
  183.4930  172.0050  136.3650 O   0  0  0  0  0  0  0  0  0  0  0  0
  185.0280  172.6310  137.9500 O   0  0  0  0  0  1  0  0  0  0  0  0
  181.7190  175.1550  136.4510 C   0  0  0  0  0  1  0  0  0  0  0  0
  182.6800  174.4050  135.7690 O   0  0  0  0  0  0  0  0  0  0  0  0
  188.4840  175.9400  137.5940 O   0  0  0  0  0  0  0  0  0  0  0  0
  189.3730  175.0400  137.0020 C   0  0  0  0  0  2  0  0  0  0  0  0
  190.6980  175.7340  136.7700 C   0  0  0  0  0  2  0  0  0  0  0  0
  191.5500  174.9370  135.8000 C   0  0  0  0  0  2  0  0  0  0  0  0
  193.5430  174.3250  136.6580 O   0  0  0  0  0  1  0  0  0  0  0  0
  192.9480  175.3090  135.9420 N   0  0  0  0  0  2  0  0  0  0  0  0
  182.3650  179.1950  143.4790 O   0  0  0  0  0  0  0  0  0  0  0  0
  183.0470  178.6140  144.5860 C   0  0  0  0  0  2  0  0  0  0  0  0
  184.5160  178.8510  144.4550 C   0  0  0  0  0  0  0  0  0  0  0  0
  185.1360  178.4010  143.4140 N   0  0  0  0  0  0  0  0  0  0  0  0
  186.5460  178.6050  143.1880 C   0  0  0  0  0  2  0  0  0  0  0  0
  187.9190  177.9570  141.1240 N   0  0  0  0  0  2  0  0  0  0  0  0
  186.8220  178.6610  141.7190 C   0  0  0  0  0  0  0  0  0  0  0  0
  186.0870  179.3760  140.9880 O   0  0  0  0  0  0  0  0  0  0  0  0
  188.8300  177.0150  141.7780 C   0  0  2  0  0  3  0  0  0  0  0  0
  190.5310  177.1680  144.8890 C   0  0  2  0  0  3  0  0  0  0  0  0
  189.9400  176.4460  143.8390 O   0  0  0  0  0  0  0  0  0  0  0  0
  189.5230  178.7700  143.5010 C   0  0  0  0  0  2  0  0  0  0  0  0
  190.6850  178.6130  144.4330 C   0  0  2  0  0  3  0  0  0  0  0  0
  189.0330  177.3480  143.2580 C   0  0  1  0  0  3  0  0  0  0  0  0
  191.9640  178.8430  143.6390 C   0  0  0  0  0  1  0  0  0  0  0  0
  191.8250  176.5050  145.3770 C   0  0  2  0  0  3  0  0  0  0  0  0
  191.8650  175.0490  144.9540 C   0  0  0  0  0  1  0  0  0  0  0  0
  191.8950  176.5730  146.7690 O   0  0  0  0  0  1  0  0  0  0  0  0
  190.1250  176.7970  140.9980 C   0  0  0  0  0  2  0  0  0  0  0  0
  190.2680  177.7900  140.0280 O   0  0  0  0  0  1  0  0  0  0  0  0
  185.2160  179.6570  145.5120 C   0  0  0  0  0  2  0  0  0  0  0  0
  186.1600  178.8020  146.2900 C   0  0  0  0  0  0  0  0  0  0  0  0
  186.7450  179.2950  147.4620 C   0  0  0  0  0  3  0  0  0  0  0  0
  187.9730  177.2260  147.7230 C   0  0  0  0  0  3  0  0  0  0  0  0
  186.4880  177.5200  145.8340 C   0  0  0  0  0  3  0  0  0  0  0  0
  187.3940  176.7330  146.5490 C   0  0  0  0  0  3  0  0  0  0  0  0
  187.6500  178.5070  148.1790 C   0  0  0  0  0  3  0  0  0  0  0  0
  1  2  1  0  0  0  0
  2  8  2  0  0  0  0
  3  6  2  0  0  0  0
  4  9  1  0  0  0  0
  5  7  2  0  0  0  0
  6  7  1  0  0  0  0
  6  1  1  0  0  0  0
  7  4  1  0  0  0  0
  8 39  1  0  0  0  0
  9  8  1  0  0  0  0
 10 13  1  0  0  0  0
 11 15  1  0  0  0  0
 11 13  2  0  0  0  0
 12 14  1  0  0  0  0
 12 10  2  0  0  0  0
 14 11  1  0  0  0  0
 15  3  1  0  0  0  0
 17  3  1  0  0  0  0
 17 16  2  0  0  0  0
 18 19  1  0  0  0  0
 18 33  1  1  0  0  0
 19 24  1  6  0  0  0
 19 21  1  0  0  0  0
 20 22  2  0  0  0  0
 21 16  1  0  0  0  0
 22 18  1  0  0  0  0
 22 23  1  0  0  0  0
 23 21  1  0  0  0  0
 24 27  1  0  0  0  0
 25 24  2  0  0  0  0
 26 24  2  0  0  0  0
 27 32  1  6  0  0  0
 27 28  1  0  0  0  0
 28 30  1  0  0  0  0
 29 28  2  0  0  0  0
 32 31  1  0  0  0  0
 34 33  1  0  0  0  0
 35 34  1  0  0  0  0
 36 38  1  0  0  0  0
 36 35  1  0  0  0  0
 38 37  1  0  0  0  0
 39 40  1  0  0  0  0
 41 40  1  0  0  0  0
 41 59  1  0  0  0  0
 42 41  2  0  0  0  0
 43 42  1  0  0  0  0
 44 45  1  0  0  0  0
 44 47  1  0  0  0  0
 45 43  1  0  0  0  0
 46 45  2  0  0  0  0
 47 57  1  6  0  0  0
 48 54  1  6  0  0  0
 49 48  1  0  0  0  0
 50 51  1  0  0  0  0
 51 53  1  6  0  0  0
 51 48  1  0  0  0  0
 52 47  1  6  0  0  0
 52 50  1  0  0  0  0
 52 49  1  0  0  0  0
 54 55  1  1  0  0  0
 54 56  1  0  0  0  0
 58 57  1  0  0  0  0
 59 60  1  0  0  0  0
 60 61  1  0  0  0  0
 61 65  2  0  0  0  0
 62 65  1  0  0  0  0
 63 60  2  0  0  0  0
 63 64  1  0  0  0  0
 64 62  2  0  0  0  0
M  END
>  <MODEL>
6

>  <REMARK>
 VINA RESULT:      -4.8      2.434      8.921
  Name = 
  23 active torsions:
  status: ('A' for Active; 'I' for Inactive)
    1  A    between atoms: C_1  and  C_13
    2  A    between atoms: C_2  and  N_25
    3  A    between atoms: C_3  and  C_62
    4  A    between atoms: S_4  and  C_9
    5  A    between atoms: S_4  and  C_21
    6  A    between atoms: C_6  and  O_63
    7  A    between atoms: N_7  and  CA_49
    8  A    between atoms: C_8  and  C_38
    9  A    between atoms: C_17  and  CA_49
   10  A    between atoms: C_20  and  C_26
   11  A    between atoms: C_21  and  O_30
   12  A    between atoms: C_21  and  C_33
   13  A    between atoms: C_26  and  N_61
   14  A    between atoms: C_31  and  CA_49
   15  A    between atoms: C_32  and  C_44
   16  A    between atoms: C_32  and  C_64
   17  A    between atoms: C_38  and  N_54
   18  A    between atoms: C_39  and  C_47
   19  A    between atoms: C_39  and  O_56
   20  A    between atoms: C_44  and  O_63
   21  A    between atoms: C_47  and  C_62
   22  A    between atoms: C_53  and  O_56
   23  A    between atoms: N_55  and  C_64
                            x       y       z     vdW  Elec       q    Type
                         _______ _______ _______ _____ _____    ______ ____

>  <TORSDO>
F 23

$$$$
=
 OpenBabel11032419463D

 65 69  0  0  1  0  0  0  0  0999 V2000
  188.0440  178.3180  140.1520 C   0  0  0  0  0  2  0  0  0  0  0  0
  186.7090  178.0850  139.5160 C   0  0  0  0  0  3  0  0  0  0  0  0
  189.3570  176.7800  141.5810 C   0  0  0  0  0  0  0  0  0  0  0  0
  186.0470  178.5220  142.4280 N   0  0  0  0  0  2  0  0  0  0  0  0
  187.3330  177.0230  143.6030 O   0  0  0  0  0  0  0  0  0  0  0  0
  188.2230  177.5270  141.4260 C   0  0  0  0  0  0  0  0  0  0  0  0
  187.2060  177.6780  142.5330 C   0  0  0  0  0  0  0  0  0  0  0  0
  185.6000  178.5950  140.0540 C   0  0  0  0  0  0  0  0  0  0  0  0
  185.6980  179.3900  141.3110 C   0  0  0  0  0  2  0  0  0  0  0  0
  191.6260  178.1310  145.0590 C   0  0  0  0  0  3  0  0  0  0  0  0
  190.4390  176.7940  143.9220 C   0  0  0  0  0  0  0  0  0  0  0  0
  191.3380  177.0140  145.8210 C   0  0  0  0  0  3  0  0  0  0  0  0
  191.0520  177.9880  143.8480 N   0  0  0  0  0  0  0  0  0  0  0  0
  190.6070  176.2130  145.0820 O   0  0  0  0  0  0  0  0  0  0  0  0
  189.6650  176.2080  142.8680 N   0  0  0  0  0  2  0  0  0  0  0  0
  190.0570  176.0260  139.3160 C   0  0  0  0  0  3  0  0  0  0  0  0
  190.3420  176.5920  140.4860 C   0  0  0  0  0  3  0  0  0  0  0  0
  192.5250  174.9390  136.6870 C   0  0  1  0  0  3  0  0  0  0  0  0
  191.2500  174.6780  137.5120 C   0  0  1  0  0  3  0  0  0  0  0  0
  193.7410  177.0350  136.4590 O   0  0  0  0  0  0  0  0  0  0  0  0
  191.0480  175.8950  138.2940 N   0  0  0  0  0  0  0  0  0  0  0  0
  192.8160  176.3690  136.9930 C   0  0  0  0  0  0  0  0  0  0  0  0
  191.9520  176.9040  137.9680 N   0  0  0  0  0  2  0  0  0  0  0  0
  189.8450  174.4060  136.4350 S   0  0  0  0  0  0  0  0  0  0  0  0
  189.0300  173.2480  136.9420 O   0  0  0  0  0  0  0  0  0  0  0  0
  190.3600  174.0720  135.0640 O   0  0  0  0  0  0  0  0  0  0  0  0
  188.8180  175.8670  136.2960 C   0  0  2  0  0  3  0  0  0  0  0  0
  187.4370  175.5360  135.8360 C   0  0  0  0  0  0  0  0  0  0  0  0
  187.2740  174.9140  134.7530 O   0  0  0  0  0  0  0  0  0  0  0  0
  186.3340  175.8700  136.6150 O   0  0  0  0  0  1  0  0  0  0  0  0
  189.0380  178.0330  135.9010 C   0  0  0  0  0  1  0  0  0  0  0  0
  189.4040  176.7760  135.4130 O   0  0  0  0  0  0  0  0  0  0  0  0
  193.5560  174.1460  137.1950 O   0  0  0  0  0  0  0  0  0  0  0  0
  194.2900  173.7330  136.0800 C   0  0  0  0  0  2  0  0  0  0  0  0
  195.7570  173.6760  136.4480 C   0  0  0  0  0  2  0  0  0  0  0  0
  195.9580  174.1070  137.8900 C   0  0  0  0  0  2  0  0  0  0  0  0
  197.5000  175.3220  136.7820 O   0  0  0  0  0  1  0  0  0  0  0  0
  197.1960  174.8590  138.0170 N   0  0  0  0  0  2  0  0  0  0  0  0
  184.3420  178.4020  139.4750 O   0  0  0  0  0  0  0  0  0  0  0  0
  183.3530  179.4240  139.4050 C   0  0  0  0  0  2  0  0  0  0  0  0
  182.1380  178.9050  138.7080 C   0  0  0  0  0  0  0  0  0  0  0  0
  181.5260  177.8760  139.1930 N   0  0  0  0  0  0  0  0  0  0  0  0
  180.3310  177.3210  138.6040 C   0  0  0  0  0  2  0  0  0  0  0  0
  179.7670  174.8420  138.9220 N   0  0  0  0  0  2  0  0  0  0  0  0
  179.8400  176.1780  139.4350 C   0  0  0  0  0  0  0  0  0  0  0  0
  179.4460  176.4030  140.6100 O   0  0  0  0  0  0  0  0  0  0  0  0
  180.2490  174.3600  137.6270 C   0  0  2  0  0  3  0  0  0  0  0  0
  183.6490  173.6120  136.9340 C   0  0  2  0  0  3  0  0  0  0  0  0
  182.4930  173.4870  137.7220 O   0  0  0  0  0  0  0  0  0  0  0  0
  182.0920  175.1180  136.0280 C   0  0  0  0  0  2  0  0  0  0  0  0
  183.2460  174.2570  135.6130 C   0  0  2  0  0  3  0  0  0  0  0  0
  181.7420  174.6380  137.4300 C   0  0  1  0  0  3  0  0  0  0  0  0
  182.7390  173.2420  134.5980 C   0  0  0  0  0  1  0  0  0  0  0  0
  184.3920  172.2770  136.7990 C   0  0  2  0  0  3  0  0  0  0  0  0
  185.8430  172.4350  137.2120 C   0  0  0  0  0  1  0  0  0  0  0  0
  184.3450  171.8430  135.4730 O   0  0  0  0  0  1  0  0  0  0  0  0
  179.3680  174.8020  136.4590 C   0  0  0  0  0  2  0  0  0  0  0  0
  179.2100  173.7470  135.5590 O   0  0  0  0  0  1  0  0  0  0  0  0
  181.6360  179.6320  137.4930 C   0  0  0  0  0  2  0  0  0  0  0  0
  180.8930  180.8660  137.8840 C   0  0  0  0  0  0  0  0  0  0  0  0
  181.0280  182.0330  137.1250 C   0  0  0  0  0  3  0  0  0  0  0  0
  179.5470  183.1980  138.6450 C   0  0  0  0  0  3  0  0  0  0  0  0
  180.0860  180.8680  139.0280 C   0  0  0  0  0  3  0  0  0  0  0  0
  179.4150  182.0330  139.4080 C   0  0  0  0  0  3  0  0  0  0  0  0
  180.3550  183.1980  137.5040 C   0  0  0  0  0  3  0  0  0  0  0  0
  1  6  1  0  0  0  0
  2  8  2  0  0  0  0
  2  1  1  0  0  0  0
  3 15  1  0  0  0  0
  4  7  1  0  0  0  0
  6  3  2  0  0  0  0
  6  7  1  0  0  0  0
  7  5  2  0  0  0  0
  8  9  1  0  0  0  0
  9  4  1  0  0  0  0
 10 12  2  0  0  0  0
 11 14  1  0  0  0  0
 13 11  2  0  0  0  0
 13 10  1  0  0  0  0
 14 12  1  0  0  0  0
 15 11  1  0  0  0  0
 16 17  2  0  0  0  0
 17  3  1  0  0  0  0
 18 22  1  0  0  0  0
 18 33  1  1  0  0  0
 18 19  1  0  0  0  0
 19 24  1  6  0  0  0
 19 21  1  0  0  0  0
 20 22  2  0  0  0  0
 21 16  1  0  0  0  0
 22 23  1  0  0  0  0
 23 21  1  0  0  0  0
 24 25  2  0  0  0  0
 26 24  2  0  0  0  0
 27 32  1  6  0  0  0
 27 24  1  0  0  0  0
 28 27  1  0  0  0  0
 28 30  1  0  0  0  0
 29 28  2  0  0  0  0
 32 31  1  0  0  0  0
 34 35  1  0  0  0  0
 34 33  1  0  0  0  0
 35 36  1  0  0  0  0
 36 38  1  0  0  0  0
 37 38  1  0  0  0  0
 39  8  1  0  0  0  0
 40 39  1  0  0  0  0
 41 42  2  0  0  0  0
 41 40  1  0  0  0  0
 43 42  1  0  0  0  0
 43 45  1  0  0  0  0
 44 45  1  0  0  0  0
 45 46  2  0  0  0  0
 47 57  1  6  0  0  0
 47 44  1  0  0  0  0
 48 54  1  6  0  0  0
 48 49  1  0  0  0  0
 50 52  1  0  0  0  0
 51 53  1  6  0  0  0
 51 50  1  0  0  0  0
 51 48  1  0  0  0  0
 52 47  1  6  0  0  0
 52 49  1  0  0  0  0
 54 55  1  6  0  0  0
 56 54  1  0  0  0  0
 58 57  1  0  0  0  0
 59 60  1  0  0  0  0
 59 41  1  0  0  0  0
 60 63  1  0  0  0  0
 61 65  1  0  0  0  0
 61 60  2  0  0  0  0
 62 64  1  0  0  0  0
 63 64  2  0  0  0  0
 65 62  2  0  0  0  0
M  END
>  <MODEL>
7

>  <REMARK>
 VINA RESULT:      -4.7      2.445      5.363
  Name = 
  23 active torsions:
  status: ('A' for Active; 'I' for Inactive)
    1  A    between atoms: C_1  and  C_13
    2  A    between atoms: C_2  and  N_25
    3  A    between atoms: C_3  and  C_62
    4  A    between atoms: S_4  and  C_9
    5  A    between atoms: S_4  and  C_21
    6  A    between atoms: C_6  and  O_63
    7  A    between atoms: N_7  and  CA_49
    8  A    between atoms: C_8  and  C_38
    9  A    between atoms: C_17  and  CA_49
   10  A    between atoms: C_20  and  C_26
   11  A    between atoms: C_21  and  O_30
   12  A    between atoms: C_21  and  C_33
   13  A    between atoms: C_26  and  N_61
   14  A    between atoms: C_31  and  CA_49
   15  A    between atoms: C_32  and  C_44
   16  A    between atoms: C_32  and  C_64
   17  A    between atoms: C_38  and  N_54
   18  A    between atoms: C_39  and  C_47
   19  A    between atoms: C_39  and  O_56
   20  A    between atoms: C_44  and  O_63
   21  A    between atoms: C_47  and  C_62
   22  A    between atoms: C_53  and  O_56
   23  A    between atoms: N_55  and  C_64
                            x       y       z     vdW  Elec       q    Type
                         _______ _______ _______ _____ _____    ______ ____

>  <TORSDO>
F 23

$$$$
=
 OpenBabel11032419463D

 65 69  0  0  1  0  0  0  0  0999 V2000
  188.6540  176.9330  141.2810 C   0  0  0  0  0  2  0  0  0  0  0  0
  189.6930  177.5260  140.3820 C   0  0  0  0  0  3  0  0  0  0  0  0
  187.5890  177.9410  143.2770 C   0  0  0  0  0  0  0  0  0  0  0  0
  191.2320  176.8100  142.8790 N   0  0  0  0  0  2  0  0  0  0  0  0
  190.1240  177.8230  144.6190 O   0  0  0  0  0  0  0  0  0  0  0  0
  188.7320  177.4730  142.6900 C   0  0  0  0  0  0  0  0  0  0  0  0
  190.0360  177.3730  143.4450 C   0  0  0  0  0  0  0  0  0  0  0  0
  190.9770  177.1810  140.5040 C   0  0  0  0  0  0  0  0  0  0  0  0
  191.3730  176.2060  141.5600 C   0  0  0  0  0  2  0  0  0  0  0  0
  184.4520  178.5290  146.2580 C   0  0  0  0  0  3  0  0  0  0  0  0
  186.4420  178.4050  145.5400 C   0  0  0  0  0  0  0  0  0  0  0  0
  185.3300  178.6950  147.3130 C   0  0  0  0  0  3  0  0  0  0  0  0
  185.1630  178.3450  145.1280 N   0  0  0  0  0  0  0  0  0  0  0  0
  186.5470  178.6140  146.8260 O   0  0  0  0  0  0  0  0  0  0  0  0
  187.5820  178.2410  144.6860 N   0  0  0  0  0  2  0  0  0  0  0  0
  186.1400  178.8970  141.4950 C   0  0  0  0  0  3  0  0  0  0  0  0
  186.3120  178.0820  142.5320 C   0  0  0  0  0  3  0  0  0  0  0  0
  183.2300  179.5070  139.1830 C   0  0  1  0  0  3  0  0  0  0  0  0
  184.7490  179.4160  139.4230 C   0  0  1  0  0  3  0  0  0  0  0  0
  181.4470  178.7410  140.6520 O   0  0  0  0  0  0  0  0  0  0  0  0
  184.8890  178.9680  140.8070 N   0  0  0  0  0  0  0  0  0  0  0  0
  182.6730  178.9390  140.4430 C   0  0  0  0  0  0  0  0  0  0  0  0
  183.6670  178.6580  141.4000 N   0  0  0  0  0  2  0  0  0  0  0  0
  185.4940  178.2180  138.3180 S   0  0  0  0  0  0  0  0  0  0  0  0
  186.6410  177.5320  139.0060 O   0  0  0  0  0  0  0  0  0  0  0  0
  186.0180  178.9500  137.1150 O   0  0  0  0  0  0  0  0  0  0  0  0
  184.3040  177.0060  137.7490 C   0  0  2  0  0  3  0  0  0  0  0  0
  183.5860  177.4630  136.5220 C   0  0  0  0  0  0  0  0  0  0  0  0
  182.5150  178.1150  136.6330 O   0  0  0  0  0  1  0  0  0  0  0  0
  184.1150  177.2120  135.2600 O   0  0  0  0  0  0  0  0  0  0  0  0
  183.0180  175.4010  138.5640 C   0  0  0  0  0  1  0  0  0  0  0  0
  183.3810  176.7360  138.7610 O   0  0  0  0  0  0  0  0  0  0  0  0
  182.8720  180.8540  139.0930 O   0  0  0  0  0  0  0  0  0  0  0  0
  181.6110  180.8630  138.4940 C   0  0  0  0  0  2  0  0  0  0  0  0
  181.3220  182.2540  137.9720 C   0  0  0  0  0  2  0  0  0  0  0  0
  180.8400  182.1910  136.5340 C   0  0  0  0  0  2  0  0  0  0  0  0
  181.0010  184.3910  136.9960 O   0  0  0  0  0  1  0  0  0  0  0  0
  180.7340  183.5320  135.9840 N   0  0  0  0  0  2  0  0  0  0  0  0
  191.9670  177.7110  139.6710 O   0  0  0  0  0  0  0  0  0  0  0  0
  193.0650  176.9470  139.1840 C   0  0  0  0  0  2  0  0  0  0  0  0
  192.7220  176.3620  137.8530 C   0  0  0  0  0  0  0  0  0  0  0  0
  191.4830  176.1400  137.5640 N   0  0  0  0  0  0  0  0  0  0  0  0
  191.0540  175.6040  136.2950 C   0  0  0  0  0  2  0  0  0  0  0  0
  189.0630  174.0280  136.6400 N   0  0  0  0  0  2  0  0  0  0  0  0
  190.4730  174.2390  136.4910 C   0  0  0  0  0  0  0  0  0  0  0  0
  191.2490  173.2510  136.5620 O   0  0  0  0  0  0  0  0  0  0  0  0
  187.9970  175.0220  136.5060 C   0  0  2  0  0  3  0  0  0  0  0  0
  184.8420  173.4510  136.0800 C   0  0  2  0  0  3  0  0  0  0  0  0
  185.7410  174.5030  135.8380 O   0  0  0  0  0  0  0  0  0  0  0  0
  186.6990  173.0360  137.4560 C   0  0  0  0  0  2  0  0  0  0  0  0
  185.6250  172.3050  136.7100 C   0  0  2  0  0  3  0  0  0  0  0  0
  186.6340  174.4610  136.9210 C   0  0  1  0  0  3  0  0  0  0  0  0
  186.2920  171.4130  135.6720 C   0  0  0  0  0  1  0  0  0  0  0  0
  184.0520  173.0750  134.8210 C   0  0  2  0  0  3  0  0  0  0  0  0
  182.9130  174.0530  134.6000 C   0  0  0  0  0  1  0  0  0  0  0  0
  183.5240  171.7910  134.9600 O   0  0  0  0  0  1  0  0  0  0  0  0
  188.0010  175.7240  135.1490 C   0  0  0  0  0  2  0  0  0  0  0  0
  188.0480  177.1070  135.3320 O   0  0  0  0  0  1  0  0  0  0  0  0
  193.8280  176.1030  136.8700 C   0  0  0  0  0  2  0  0  0  0  0  0
  194.5680  174.8560  137.2230 C   0  0  0  0  0  0  0  0  0  0  0  0
  194.6560  173.8110  136.2970 C   0  0  0  0  0  3  0  0  0  0  0  0
  195.9060  172.4930  137.8970 C   0  0  0  0  0  3  0  0  0  0  0  0
  195.1470  174.7150  138.4890 C   0  0  0  0  0  3  0  0  0  0  0  0
  195.8140  173.5350  138.8260 C   0  0  0  0  0  3  0  0  0  0  0  0
  195.3260  172.6310  136.6330 C   0  0  0  0  0  3  0  0  0  0  0  0
  1  6  1  0  0  0  0
  2  8  2  0  0  0  0
  2  1  1  0  0  0  0
  3 15  1  0  0  0  0
  4  7  1  0  0  0  0
  6  3  2  0  0  0  0
  6  7  1  0  0  0  0
  7  5  2  0  0  0  0
  8  9  1  0  0  0  0
  9  4  1  0  0  0  0
 10 12  2  0  0  0  0
 11 14  1  0  0  0  0
 13 11  2  0  0  0  0
 13 10  1  0  0  0  0
 14 12  1  0  0  0  0
 15 11  1  0  0  0  0
 16 17  2  0  0  0  0
 17  3  1  0  0  0  0
 18 33  1  1  0  0  0
 18 19  1  0  0  0  0
 18 22  1  0  0  0  0
 19 24  1  6  0  0  0
 19 21  1  0  0  0  0
 21 23  1  0  0  0  0
 21 16  1  0  0  0  0
 22 20  2  0  0  0  0
 22 23  1  0  0  0  0
 24 25  2  0  0  0  0
 26 24  2  0  0  0  0
 27 28  1  6  0  0  0
 27 24  1  0  0  0  0
 27 32  1  0  0  0  0
 28 29  1  0  0  0  0
 30 28  2  0  0  0  0
 31 32  1  0  0  0  0
 34 33  1  0  0  0  0
 35 34  1  0  0  0  0
 36 35  1  0  0  0  0
 38 36  1  0  0  0  0
 38 37  1  0  0  0  0
 39  8  1  0  0  0  0
 40 39  1  0  0  0  0
 41 40  1  0  0  0  0
 42 41  2  0  0  0  0
 43 45  1  0  0  0  0
 43 42  1  0  0  0  0
 45 46  2  0  0  0  0
 45 44  1  0  0  0  0
 47 57  1  6  0  0  0
 47 44  1  0  0  0  0
 48 54  1  6  0  0  0
 48 51  1  0  0  0  0
 49 48  1  0  0  0  0
 49 52  1  0  0  0  0
 51 53  1  6  0  0  0
 51 50  1  0  0  0  0
 52 47  1  6  0  0  0
 52 50  1  0  0  0  0
 54 55  1  1  0  0  0
 54 56  1  0  0  0  0
 57 58  1  0  0  0  0
 59 60  1  0  0  0  0
 59 41  1  0  0  0  0
 60 63  1  0  0  0  0
 61 65  1  0  0  0  0
 61 60  2  0  0  0  0
 62 64  1  0  0  0  0
 63 64  2  0  0  0  0
 65 62  2  0  0  0  0
M  END
>  <MODEL>
8

>  <REMARK>
 VINA RESULT:      -4.5      2.735      9.405
  Name = 
  23 active torsions:
  status: ('A' for Active; 'I' for Inactive)
    1  A    between atoms: C_1  and  C_13
    2  A    between atoms: C_2  and  N_25
    3  A    between atoms: C_3  and  C_62
    4  A    between atoms: S_4  and  C_9
    5  A    between atoms: S_4  and  C_21
    6  A    between atoms: C_6  and  O_63
    7  A    between atoms: N_7  and  CA_49
    8  A    between atoms: C_8  and  C_38
    9  A    between atoms: C_17  and  CA_49
   10  A    between atoms: C_20  and  C_26
   11  A    between atoms: C_21  and  O_30
   12  A    between atoms: C_21  and  C_33
   13  A    between atoms: C_26  and  N_61
   14  A    between atoms: C_31  and  CA_49
   15  A    between atoms: C_32  and  C_44
   16  A    between atoms: C_32  and  C_64
   17  A    between atoms: C_38  and  N_54
   18  A    between atoms: C_39  and  C_47
   19  A    between atoms: C_39  and  O_56
   20  A    between atoms: C_44  and  O_63
   21  A    between atoms: C_47  and  C_62
   22  A    between atoms: C_53  and  O_56
   23  A    between atoms: N_55  and  C_64
                            x       y       z     vdW  Elec       q    Type
                         _______ _______ _______ _____ _____    ______ ____

>  <TORSDO>
F 23

$$$$
=
 OpenBabel11032419463D

 65 69  0  0  1  0  0  0  0  0999 V2000
  186.9820  177.1750  142.5010 C   0  0  0  0  0  2  0  0  0  0  0  0
  187.6470  177.7260  141.2790 C   0  0  0  0  0  3  0  0  0  0  0  0
  186.3720  178.3600  144.5880 C   0  0  0  0  0  0  0  0  0  0  0  0
  189.8890  177.5450  143.2920 N   0  0  0  0  0  2  0  0  0  0  0  0
  189.1680  178.6930  145.1480 O   0  0  0  0  0  0  0  0  0  0  0  0
  187.3650  177.9240  143.7550 C   0  0  0  0  0  0  0  0  0  0  0  0
  188.8270  178.0660  144.1090 C   0  0  0  0  0  0  0  0  0  0  0  0
  188.9500  177.5310  141.0650 C   0  0  0  0  0  0  0  0  0  0  0  0
  189.7480  176.7680  142.0680 C   0  0  0  0  0  2  0  0  0  0  0  0
  188.1060  176.6020  148.1900 C   0  0  0  0  0  3  0  0  0  0  0  0
  187.2840  178.1430  146.9900 C   0  0  0  0  0  0  0  0  0  0  0  0
  188.1280  177.7910  148.8950 C   0  0  0  0  0  3  0  0  0  0  0  0
  187.5670  176.8280  146.9760 N   0  0  0  0  0  0  0  0  0  0  0  0
  187.6090  178.7150  148.1210 O   0  0  0  0  0  0  0  0  0  0  0  0
  186.7070  178.8650  145.8950 N   0  0  0  0  0  2  0  0  0  0  0  0
  184.3250  179.0670  143.3650 C   0  0  0  0  0  3  0  0  0  0  0  0
  184.9340  178.2620  144.2310 C   0  0  0  0  0  3  0  0  0  0  0  0
  180.8590  179.0040  141.8910 C   0  0  1  0  0  3  0  0  0  0  0  0
  182.3860  179.0970  141.7100 C   0  0  1  0  0  3  0  0  0  0  0  0
  179.6400  178.3320  143.8880 O   0  0  0  0  0  0  0  0  0  0  0  0
  182.9400  178.9040  143.0490 N   0  0  0  0  0  0  0  0  0  0  0  0
  180.7310  178.6060  143.3220 C   0  0  0  0  0  0  0  0  0  0  0  0
  181.9680  178.5850  143.9950 N   0  0  0  0  0  2  0  0  0  0  0  0
  182.9740  177.8060  140.6160 S   0  0  0  0  0  0  0  0  0  0  0  0
  181.9630  176.6930  140.5500 O   0  0  0  0  0  0  0  0  0  0  0  0
  184.2560  177.2610  141.1770 O   0  0  0  0  0  0  0  0  0  0  0  0
  183.3120  178.4280  138.9710 C   0  0  2  0  0  3  0  0  0  0  0  0
  184.4290  179.4200  138.9700 C   0  0  0  0  0  0  0  0  0  0  0  0
  184.1740  180.6440  139.1170 O   0  0  0  0  0  1  0  0  0  0  0  0
  185.7480  178.9970  138.8520 O   0  0  0  0  0  0  0  0  0  0  0  0
  182.0690  178.5010  137.1430 C   0  0  0  0  0  1  0  0  0  0  0  0
  182.1620  179.0140  138.4390 O   0  0  0  0  0  0  0  0  0  0  0  0
  180.3110  180.2770  141.7210 O   0  0  0  0  0  0  0  0  0  0  0  0
  179.6760  180.2440  140.4770 C   0  0  0  0  0  2  0  0  0  0  0  0
  179.7460  181.6200  139.8510 C   0  0  0  0  0  2  0  0  0  0  0  0
  179.6020  181.5230  138.3430 C   0  0  0  0  0  2  0  0  0  0  0  0
  180.5920  183.3970  137.5750 O   0  0  0  0  0  1  0  0  0  0  0  0
  180.7850  182.0610  137.6930 N   0  0  0  0  0  2  0  0  0  0  0  0
  189.5940  178.0250  139.9270 O   0  0  0  0  0  0  0  0  0  0  0  0
  190.3690  177.2070  139.0560 C   0  0  0  0  0  2  0  0  0  0  0  0
  189.5430  176.7980  137.8800 C   0  0  0  0  0  0  0  0  0  0  0  0
  188.3610  176.3160  138.0800 N   0  0  0  0  0  0  0  0  0  0  0  0
  187.4810  175.9200  137.0070 C   0  0  0  0  0  2  0  0  0  0  0  0
  185.9500  173.8650  136.9460 N   0  0  0  0  0  2  0  0  0  0  0  0
  187.2590  174.4410  137.0530 C   0  0  0  0  0  0  0  0  0  0  0  0
  188.2470  173.6810  137.2280 O   0  0  0  0  0  0  0  0  0  0  0  0
  184.6950  174.5610  136.6600 C   0  0  2  0  0  3  0  0  0  0  0  0
  181.3220  173.6030  137.2140 C   0  0  2  0  0  3  0  0  0  0  0  0
  182.5600  174.0820  137.6710 O   0  0  0  0  0  0  0  0  0  0  0  0
  182.7850  173.4390  135.3850 C   0  0  0  0  0  2  0  0  0  0  0  0
  181.3340  173.6560  135.6910 C   0  0  2  0  0  3  0  0  0  0  0  0
  183.4890  173.6190  136.7240 C   0  0  1  0  0  3  0  0  0  0  0  0
  180.9350  175.0220  135.1500 C   0  0  0  0  0  1  0  0  0  0  0  0
  180.1490  174.3380  137.8740 C   0  0  2  0  0  3  0  0  0  0  0  0
  180.2840  174.3000  139.3840 C   0  0  0  0  0  1  0  0  0  0  0  0
  178.9460  173.7280  137.5130 O   0  0  0  0  0  1  0  0  0  0  0  0
  184.7600  175.4140  135.3940 C   0  0  0  0  0  2  0  0  0  0  0  0
  185.8530  175.0280  134.6180 O   0  0  0  0  0  1  0  0  0  0  0  0
  190.0930  177.0130  136.4990 C   0  0  0  0  0  2  0  0  0  0  0  0
  191.1100  175.9730  136.1670 C   0  0  0  0  0  0  0  0  0  0  0  0
  191.5100  175.0500  137.1390 C   0  0  0  0  0  3  0  0  0  0  0  0
  193.0560  174.0550  135.5660 C   0  0  0  0  0  3  0  0  0  0  0  0
  191.6900  175.9370  134.8930 C   0  0  0  0  0  3  0  0  0  0  0  0
  192.6620  174.9800  134.5940 C   0  0  0  0  0  3  0  0  0  0  0  0
  192.4810  174.0910  136.8390 C   0  0  0  0  0  3  0  0  0  0  0  0
  1  6  1  0  0  0  0
  2  1  1  0  0  0  0
  3 15  1  0  0  0  0
  4  7  1  0  0  0  0
  6  7  1  0  0  0  0
  6  3  2  0  0  0  0
  7  5  2  0  0  0  0
  8  2  2  0  0  0  0
  8  9  1  0  0  0  0
  9  4  1  0  0  0  0
 10 12  2  0  0  0  0
 11 14  1  0  0  0  0
 13 11  2  0  0  0  0
 13 10  1  0  0  0  0
 14 12  1  0  0  0  0
 15 11  1  0  0  0  0
 16 17  2  0  0  0  0
 17  3  1  0  0  0  0
 18 33  1  1  0  0  0
 18 22  1  0  0  0  0
 19 24  1  6  0  0  0
 19 18  1  0  0  0  0
 19 21  1  0  0  0  0
 21 16  1  0  0  0  0
 21 23  1  0  0  0  0
 22 20  2  0  0  0  0
 22 23  1  0  0  0  0
 24 26  2  0  0  0  0
 25 24  2  0  0  0  0
 27 32  1  1  0  0  0
 27 24  1  0  0  0  0
 28 27  1  0  0  0  0
 28 29  1  0  0  0  0
 30 28  2  0  0  0  0
 31 32  1  0  0  0  0
 34 33  1  0  0  0  0
 35 34  1  0  0  0  0
 36 35  1  0  0  0  0
 37 38  1  0  0  0  0
 38 36  1  0  0  0  0
 39  8  1  0  0  0  0
 40 39  1  0  0  0  0
 41 42  2  0  0  0  0
 41 40  1  0  0  0  0
 43 45  1  0  0  0  0
 43 42  1  0  0  0  0
 44 45  1  0  0  0  0
 45 46  2  0  0  0  0
 47 57  1  6  0  0  0
 47 44  1  0  0  0  0
 48 49  1  0  0  0  0
 48 54  1  1  0  0  0
 50 51  1  0  0  0  0
 50 52  1  0  0  0  0
 51 53  1  1  0  0  0
 51 48  1  0  0  0  0
 52 47  1  6  0  0  0
 52 49  1  0  0  0  0
 54 55  1  1  0  0  0
 56 54  1  0  0  0  0
 58 57  1  0  0  0  0
 59 41  1  0  0  0  0
 60 59  1  0  0  0  0
 60 61  1  0  0  0  0
 62 65  1  0  0  0  0
 63 60  2  0  0  0  0
 64 63  1  0  0  0  0
 64 62  2  0  0  0  0
 65 61  2  0  0  0  0
M  END
>  <MODEL>
9

>  <REMARK>
 VINA RESULT:      -4.4      2.704      8.703
  Name = 
  23 active torsions:
  status: ('A' for Active; 'I' for Inactive)
    1  A    between atoms: C_1  and  C_13
    2  A    between atoms: C_2  and  N_25
    3  A    between atoms: C_3  and  C_62
    4  A    between atoms: S_4  and  C_9
    5  A    between atoms: S_4  and  C_21
    6  A    between atoms: C_6  and  O_63
    7  A    between atoms: N_7  and  CA_49
    8  A    between atoms: C_8  and  C_38
    9  A    between atoms: C_17  and  CA_49
   10  A    between atoms: C_20  and  C_26
   11  A    between atoms: C_21  and  O_30
   12  A    between atoms: C_21  and  C_33
   13  A    between atoms: C_26  and  N_61
   14  A    between atoms: C_31  and  CA_49
   15  A    between atoms: C_32  and  C_44
   16  A    between atoms: C_32  and  C_64
   17  A    between atoms: C_38  and  N_54
   18  A    between atoms: C_39  and  C_47
   19  A    between atoms: C_39  and  O_56
   20  A    between atoms: C_44  and  O_63
   21  A    between atoms: C_47  and  C_62
   22  A    between atoms: C_53  and  O_56
   23  A    between atoms: N_55  and  C_64
                            x       y       z     vdW  Elec       q    Type
                         _______ _______ _______ _____ _____    ______ ____

>  <TORSDO>
F 23

$$$$
