=
 OpenBabel11042411523D

 35 40  0  0  1  0  0  0  0  0999 V2000
  184.2420  179.0150  142.7630 N   0  0  0  0  0  0  0  0  0  0  0  0
  187.7300  177.6340  142.9620 C   0  0  0  0  0  0  0  0  0  0  0  0
  185.9810  178.0920  144.7030 C   0  0  0  0  0  0  0  0  0  0  0  0
  188.3570  177.7010  145.3770 C   0  0  2  0  0  3  0  0  0  0  0  0
  189.8900  177.6360  139.8820 C   0  0  0  0  0  3  0  0  0  0  0  0
  188.1390  177.7190  141.6840 C   0  0  0  0  0  0  0  0  0  0  0  0
  183.8490  179.0130  144.0650 C   0  0  0  0  0  0  0  0  0  0  0  0
  186.8870  177.5550  145.7740 C   0  0  0  0  0  2  0  0  0  0  0  0
  185.4730  178.5690  142.3770 C   0  0  0  0  0  0  0  0  0  0  0  0
  189.0190  178.1920  139.0360 C   0  0  0  0  0  0  0  0  0  0  0  0
  188.6230  177.0420  144.0230 C   0  0  0  0  0  2  0  0  0  0  0  0
  187.6710  178.4740  139.4400 N   0  0  0  0  0  0  0  0  0  0  0  0
  186.3710  178.0920  143.3500 C   0  0  0  0  0  0  0  0  0  0  0  0
  189.5020  177.2200  141.2730 C   0  0  0  0  0  3  0  0  0  0  0  0
  187.2270  178.2680  140.6470 C   0  0  2  0  0  3  0  0  0  0  0  0
  185.8620  178.5930  140.9880 N   0  0  0  0  0  0  0  0  0  0  0  0
  184.7110  178.5410  145.0560 C   0  0  0  0  0  3  0  0  0  0  0  0
  189.2350  177.1480  146.4090 N   0  0  0  0  0  0  0  0  0  0  0  0
  191.1370  177.4930  145.0890 O   0  0  0  0  0  0  0  0  0  0  0  0
  190.6500  177.0780  146.1770 C   0  0  0  0  0  0  0  0  0  0  0  0
  191.5750  176.5230  147.2100 C   0  0  0  0  0  1  0  0  0  0  0  0
  188.6670  176.6640  147.6650 C   0  0  0  0  0  1  0  0  0  0  0  0
  183.6690  178.2740  139.9320 C   0  0  0  0  0  2  0  0  0  0  0  0
  184.9400  179.1110  139.9680 C   0  0  0  0  0  3  0  0  0  0  0  0
  184.7200  178.0790  138.8700 C   0  0  0  0  0  2  0  0  0  0  0  0
  189.4640  178.5480  137.6600 C   0  0  0  0  0  2  0  0  0  0  0  0
  188.9440  179.7940  137.3050 O   0  0  0  0  0  1  0  0  0  0  0  0
  182.4890  179.4950  144.4390 C   0  0  0  0  0  2  0  0  0  0  0  0
  181.4190  178.6640  143.7500 C   0  0  0  0  0  2  0  0  0  0  0  0
  180.0470  180.1840  140.8810 C   0  0  0  0  0  0  0  0  0  0  0  0
  180.7580  179.2250  141.4240 O   0  0  0  0  0  0  0  0  0  0  0  0
  180.7270  179.4760  142.7100 C   0  0  0  0  0  0  0  0  0  0  0  0
  179.5730  181.0330  141.8110 N   0  0  0  0  0  0  0  0  0  0  0  0
  180.0090  180.5810  142.9790 N   0  0  0  0  0  0  0  0  0  0  0  0
  179.7880  180.3160  139.4220 C   0  0  0  0  0  1  0  0  0  0  0  0
  1  7  1  0  0  0  0
  2 13  1  0  0  0  0
  2 11  1  0  0  0  0
  3 17  1  0  0  0  0
  3  8  1  0  0  0  0
  4  8  1  0  0  0  0
  4 18  1  1  0  0  0
  5 14  2  0  0  0  0
  6  2  2  0  0  0  0
  7 28  1  0  0  0  0
  7 17  2  0  0  0  0
  9  1  2  0  0  0  0
  9 13  1  0  0  0  0
 10 12  2  0  0  0  0
 10  5  1  0  0  0  0
 11  4  1  0  0  0  0
 13  3  2  0  0  0  0
 14  6  1  0  0  0  0
 15 12  1  1  0  0  0
 15 16  1  0  0  0  0
 15  6  1  0  0  0  0
 16  9  1  0  0  0  0
 18 22  1  0  0  0  0
 19 20  2  0  0  0  0
 20 18  1  0  0  0  0
 20 21  1  0  0  0  0
 23 24  1  0  0  0  0
 24 16  1  0  0  0  0
 25 23  1  0  0  0  0
 25 24  1  0  0  0  0
 26 10  1  0  0  0  0
 27 26  1  0  0  0  0
 29 28  1  0  0  0  0
 30 31  1  0  0  0  0
 30 33  2  0  0  0  0
 31 32  1  0  0  0  0
 32 34  2  0  0  0  0
 32 29  1  0  0  0  0
 33 34  1  0  0  0  0
 35 30  1  0  0  0  0
M  END
>  <MODEL>
1

>  <REMARK>
 VINA RESULT:     -10.6      0.000      0.000
  Name = 
  6 active torsions:
  status: ('A' for Active; 'I' for Inactive)
    1  A    between atoms: N_1  and  C_10
    2  A    between atoms: C_3  and  C_8
    3  A    between atoms: C_3  and  C_24
    4  A    between atoms: C_9  and  CA_21
    5  A    between atoms: C_13  and  C_24
    6  A    between atoms: C_15  and  N_32
                            x       y       z     vdW  Elec       q    Type
                         _______ _______ _______ _____ _____    ______ ____

>  <TORSDO>
F 6

$$$$
=
 OpenBabel11042411523D

 35 40  0  0  1  0  0  0  0  0999 V2000
  185.7810  178.0850  145.3760 N   0  0  0  0  0  0  0  0  0  0  0  0
  189.0430  177.6500  143.5640 C   0  0  0  0  0  0  0  0  0  0  0  0
  186.7250  178.2060  142.7810 C   0  0  0  0  0  0  0  0  0  0  0  0
  188.4640  177.4670  141.1440 C   0  0  2  0  0  3  0  0  0  0  0  0
  192.0460  176.4010  145.4540 C   0  0  0  0  0  3  0  0  0  0  0  0
  189.8710  177.2900  144.5610 C   0  0  0  0  0  0  0  0  0  0  0  0
  184.9170  178.3680  144.3650 C   0  0  0  0  0  0  0  0  0  0  0  0
  187.2150  178.3230  141.3660 C   0  0  0  0  0  2  0  0  0  0  0  0
  187.1090  177.8630  145.1530 C   0  0  0  0  0  0  0  0  0  0  0  0
  191.4780  176.2660  146.6540 C   0  0  0  0  0  0  0  0  0  0  0  0
  189.5540  177.8210  142.1560 C   0  0  0  0  0  2  0  0  0  0  0  0
  190.1250  176.6900  146.8840 N   0  0  0  0  0  0  0  0  0  0  0  0
  187.6090  177.9240  143.8400 C   0  0  0  0  0  0  0  0  0  0  0  0
  191.3380  177.0500  144.2970 C   0  0  0  0  0  2  0  0  0  0  0  0
  189.3560  177.1680  145.9490 C   0  0  0  0  0  0  0  0  0  0  0  0
  187.9980  177.5560  146.2480 N   0  0  0  0  0  0  0  0  0  0  0  0
  185.3780  178.4420  143.0500 C   0  0  0  0  0  3  0  0  0  0  0  0
  188.9570  177.6090  139.7730 N   0  0  0  0  0  0  0  0  0  0  0  0
  190.6400  176.0210  140.1300 O   0  0  0  0  0  0  0  0  0  0  0  0
  190.0800  176.8270  139.3370 C   0  0  0  0  0  0  0  0  0  0  0  0
  190.6070  176.9440  137.9440 C   0  0  0  0  0  1  0  0  0  0  0  0
  188.3100  178.5470  138.8600 C   0  0  0  0  0  1  0  0  0  0  0  0
  186.9480  178.8200  148.0720 C   0  0  0  0  0  2  0  0  0  0  0  0
  187.4810  177.4690  147.6210 C   0  0  0  0  0  3  0  0  0  0  0  0
  188.2950  178.3500  148.5590 C   0  0  0  0  0  2  0  0  0  0  0  0
  192.2520  175.6440  147.7640 C   0  0  0  0  0  2  0  0  0  0  0  0
  192.7840  176.6420  148.5820 O   0  0  0  0  0  1  0  0  0  0  0  0
  183.4770  178.6180  144.6560 C   0  0  0  0  0  2  0  0  0  0  0  0
  182.8410  179.4350  143.5430 C   0  0  0  0  0  2  0  0  0  0  0  0
  179.9240  178.0930  142.0900 C   0  0  0  0  0  0  0  0  0  0  0  0
  181.1550  178.5250  141.9640 O   0  0  0  0  0  0  0  0  0  0  0  0
  181.5150  178.8620  143.1790 C   0  0  0  0  0  0  0  0  0  0  0  0
  179.5070  178.1570  143.3670 N   0  0  0  0  0  0  0  0  0  0  0  0
  180.5230  178.6490  144.0630 N   0  0  0  0  0  0  0  0  0  0  0  0
  179.0900  177.5880  140.9660 C   0  0  0  0  0  1  0  0  0  0  0  0
  2 13  1  0  0  0  0
  2  6  2  0  0  0  0
  3 17  2  0  0  0  0
  3 13  1  0  0  0  0
  4 18  1  6  0  0  0
  4  8  1  0  0  0  0
  4 11  1  0  0  0  0
  5 10  2  0  0  0  0
  6 15  1  0  0  0  0
  7 28  1  0  0  0  0
  7  1  2  0  0  0  0
  8  3  1  0  0  0  0
  9  1  1  0  0  0  0
  9 16  1  0  0  0  0
 10 12  1  0  0  0  0
 10 26  1  0  0  0  0
 11  2  1  0  0  0  0
 13  9  2  0  0  0  0
 14  6  1  0  0  0  0
 14  5  1  0  0  0  0
 15 16  1  0  0  0  0
 15 12  2  0  0  0  0
 16 24  1  0  0  0  0
 17  7  1  0  0  0  0
 20 18  1  0  0  0  0
 20 19  2  0  0  0  0
 21 20  1  0  0  0  0
 22 18  1  0  0  0  0
 23 25  1  0  0  0  0
 24 23  1  0  0  0  0
 24 25  1  0  0  0  0
 26 27  1  0  0  0  0
 29 28  1  0  0  0  0
 30 33  2  0  0  0  0
 31 30  1  0  0  0  0
 31 32  1  0  0  0  0
 32 29  1  0  0  0  0
 32 34  2  0  0  0  0
 33 34  1  0  0  0  0
 35 30  1  0  0  0  0
M  END
>  <MODEL>
2

>  <REMARK>
 VINA RESULT:     -10.4      2.089      5.822
  Name = 
  6 active torsions:
  status: ('A' for Active; 'I' for Inactive)
    1  A    between atoms: N_1  and  C_10
    2  A    between atoms: C_3  and  C_8
    3  A    between atoms: C_3  and  C_24
    4  A    between atoms: C_9  and  CA_21
    5  A    between atoms: C_13  and  C_24
    6  A    between atoms: C_15  and  N_32
                            x       y       z     vdW  Elec       q    Type
                         _______ _______ _______ _____ _____    ______ ____

>  <TORSDO>
F 6

$$$$
=
 OpenBabel11042411523D

 35 40  0  0  1  0  0  0  0  0999 V2000
  185.4090  178.1600  144.2930 N   0  0  0  0  0  0  0  0  0  0  0  0
  188.9060  177.8200  142.9640 C   0  0  0  0  0  0  0  0  0  0  0  0
  186.7050  178.2970  141.8550 C   0  0  0  0  0  0  0  0  0  0  0  0
  188.6800  177.6040  140.4880 C   0  0  2  0  0  3  0  0  0  0  0  0
  191.6490  176.6790  145.2700 C   0  0  0  0  0  3  0  0  0  0  0  0
  189.5960  177.4920  144.0710 C   0  0  0  0  0  0  0  0  0  0  0  0
  184.6880  178.4090  143.1670 C   0  0  0  0  0  0  0  0  0  0  0  0
  187.3870  178.4200  140.5230 C   0  0  0  0  0  2  0  0  0  0  0  0
  186.7610  177.9790  144.2620 C   0  0  0  0  0  0  0  0  0  0  0  0
  190.9210  176.5330  146.3800 C   0  0  0  0  0  0  0  0  0  0  0  0
  189.6050  177.9980  141.6400 C   0  0  0  0  0  2  0  0  0  0  0  0
  189.5380  176.9140  146.4120 N   0  0  0  0  0  0  0  0  0  0  0  0
  187.4390  178.0490  143.0310 C   0  0  0  0  0  0  0  0  0  0  0  0
  191.0920  177.2980  144.0190 C   0  0  0  0  0  2  0  0  0  0  0  0
  188.8940  177.3620  145.3730 C   0  0  0  0  0  0  0  0  0  0  0  0
  187.4950  177.7080  145.4740 N   0  0  0  0  0  0  0  0  0  0  0  0
  185.3270  178.4900  141.9290 C   0  0  0  0  0  3  0  0  0  0  0  0
  189.3580  177.7530  139.1990 N   0  0  0  0  0  0  0  0  0  0  0  0
  190.5260  175.7460  139.4900 O   0  0  0  0  0  0  0  0  0  0  0  0
  190.2910  176.7510  138.7650 C   0  0  0  0  0  0  0  0  0  0  0  0
  190.9970  176.8700  137.4550 C   0  0  0  0  0  1  0  0  0  0  0  0
  189.0860  178.9210  138.3650 C   0  0  0  0  0  1  0  0  0  0  0  0
  185.9520  178.8580  146.9990 C   0  0  0  0  0  2  0  0  0  0  0  0
  186.7920  177.6120  146.7610 C   0  0  0  0  0  3  0  0  0  0  0  0
  187.2680  178.6990  147.7150 C   0  0  0  0  0  2  0  0  0  0  0  0
  191.5500  175.9430  147.5940 C   0  0  0  0  0  2  0  0  0  0  0  0
  192.3530  176.8980  148.2200 O   0  0  0  0  0  1  0  0  0  0  0  0
  183.2140  178.6150  143.2500 C   0  0  0  0  0  2  0  0  0  0  0  0
  182.5690  178.4110  141.8880 C   0  0  0  0  0  2  0  0  0  0  0  0
  179.9710  180.5600  140.8610 C   0  0  0  0  0  0  0  0  0  0  0  0
  180.9380  179.7290  140.5590 O   0  0  0  0  0  0  0  0  0  0  0  0
  181.4260  179.3510  141.7160 C   0  0  0  0  0  0  0  0  0  0  0  0
  179.8480  180.7100  142.1930 N   0  0  0  0  0  0  0  0  0  0  0  0
  180.7780  179.9380  142.7380 N   0  0  0  0  0  0  0  0  0  0  0  0
  179.1110  181.2500  139.8630 C   0  0  0  0  0  1  0  0  0  0  0  0
  2 13  1  0  0  0  0
  2  6  2  0  0  0  0
  3 17  2  0  0  0  0
  3 13  1  0  0  0  0
  4 18  1  6  0  0  0
  4  8  1  0  0  0  0
  4 11  1  0  0  0  0
  5 10  2  0  0  0  0
  6 15  1  0  0  0  0
  7 28  1  0  0  0  0
  7  1  2  0  0  0  0
  8  3  1  0  0  0  0
  9  1  1  0  0  0  0
  9 16  1  0  0  0  0
 10 12  1  0  0  0  0
 10 26  1  0  0  0  0
 11  2  1  0  0  0  0
 13  9  2  0  0  0  0
 14  6  1  0  0  0  0
 14  5  1  0  0  0  0
 15 16  1  0  0  0  0
 15 12  2  0  0  0  0
 16 24  1  0  0  0  0
 17  7  1  0  0  0  0
 20 18  1  0  0  0  0
 20 19  2  0  0  0  0
 21 20  1  0  0  0  0
 22 18  1  0  0  0  0
 23 25  1  0  0  0  0
 24 23  1  0  0  0  0
 24 25  1  0  0  0  0
 26 27  1  0  0  0  0
 29 28  1  0  0  0  0
 30 33  2  0  0  0  0
 31 30  1  0  0  0  0
 31 32  1  0  0  0  0
 32 29  1  0  0  0  0
 32 34  2  0  0  0  0
 33 34  1  0  0  0  0
 35 30  1  0  0  0  0
M  END
>  <MODEL>
3

>  <REMARK>
 VINA RESULT:     -10.2      1.751      5.589
  Name = 
  6 active torsions:
  status: ('A' for Active; 'I' for Inactive)
    1  A    between atoms: N_1  and  C_10
    2  A    between atoms: C_3  and  C_8
    3  A    between atoms: C_3  and  C_24
    4  A    between atoms: C_9  and  CA_21
    5  A    between atoms: C_13  and  C_24
    6  A    between atoms: C_15  and  N_32
                            x       y       z     vdW  Elec       q    Type
                         _______ _______ _______ _____ _____    ______ ____

>  <TORSDO>
F 6

$$$$
=
 OpenBabel11042411523D

 35 40  0  0  1  0  0  0  0  0999 V2000
  188.4520  177.4420  145.3480 N   0  0  0  0  0  0  0  0  0  0  0  0
  186.6650  178.2670  142.1480 C   0  0  0  0  0  0  0  0  0  0  0  0
  185.9110  178.1710  144.5390 C   0  0  0  0  0  0  0  0  0  0  0  0
  184.2300  178.2150  142.6890 C   0  0  2  0  0  3  0  0  0  0  0  0
  188.4440  177.7830  138.8690 C   0  0  0  0  0  3  0  0  0  0  0  0
  187.6260  178.0590  141.2290 C   0  0  0  0  0  0  0  0  0  0  0  0
  187.4660  177.5670  146.2770 C   0  0  0  0  0  0  0  0  0  0  0  0
  184.5320  178.6080  144.1370 C   0  0  0  0  0  2  0  0  0  0  0  0
  188.2300  177.6710  144.0210 C   0  0  0  0  0  0  0  0  0  0  0  0
  189.6070  177.3320  139.3440 C   0  0  0  0  0  0  0  0  0  0  0  0
  185.3000  178.7600  141.7420 C   0  0  0  0  0  2  0  0  0  0  0  0
  189.8610  177.2840  140.7560 N   0  0  0  0  0  0  0  0  0  0  0  0
  186.9440  178.0470  143.5910 C   0  0  0  0  0  0  0  0  0  0  0  0
  187.3640  178.3200  139.7660 C   0  0  0  0  0  2  0  0  0  0  0  0
  188.9770  177.6130  141.6540 C   0  0  0  0  0  0  0  0  0  0  0  0
  189.2960  177.5220  143.0600 N   0  0  0  0  0  0  0  0  0  0  0  0
  186.1800  177.9430  145.8870 C   0  0  0  0  0  3  0  0  0  0  0  0
  182.8970  178.6710  142.2910 N   0  0  0  0  0  0  0  0  0  0  0  0
  183.1470  177.7770  140.1420 O   0  0  0  0  0  0  0  0  0  0  0  0
  182.4210  178.4040  140.9630 C   0  0  0  0  0  0  0  0  0  0  0  0
  181.0650  178.8520  140.5240 C   0  0  0  0  0  1  0  0  0  0  0  0
  182.0630  179.4000  143.2430 C   0  0  0  0  0  1  0  0  0  0  0  0
  191.2660  178.1900  144.3630 C   0  0  0  0  0  2  0  0  0  0  0  0
  190.6370  177.1090  143.4970 C   0  0  0  0  0  3  0  0  0  0  0  0
  191.6980  178.0400  142.9270 C   0  0  0  0  0  2  0  0  0  0  0  0
  190.6460  176.8470  138.3940 C   0  0  0  0  0  2  0  0  0  0  0  0
  190.8860  175.4890  138.6110 O   0  0  0  0  0  1  0  0  0  0  0  0
  187.7580  177.3210  147.7180 C   0  0  0  0  0  2  0  0  0  0  0  0
  188.8970  178.2100  148.1910 C   0  0  0  0  0  2  0  0  0  0  0  0
  191.6590  176.1780  147.3760 C   0  0  0  0  0  0  0  0  0  0  0  0
  190.3940  176.4840  147.2200 O   0  0  0  0  0  0  0  0  0  0  0  0
  190.2010  177.5140  148.0080 C   0  0  0  0  0  0  0  0  0  0  0  0
  192.2610  177.0020  148.2540 N   0  0  0  0  0  0  0  0  0  0  0  0
  191.3290  177.8540  148.6580 N   0  0  0  0  0  0  0  0  0  0  0  0
  192.3490  175.0660  146.6700 C   0  0  0  0  0  1  0  0  0  0  0  0
  1  7  1  0  0  0  0
  2 13  1  0  0  0  0
  3 17  1  0  0  0  0
  4 18  1  6  0  0  0
  4  8  1  0  0  0  0
  5 10  2  0  0  0  0
  5 14  1  0  0  0  0
  6 15  1  0  0  0  0
  6  2  2  0  0  0  0
  7 28  1  0  0  0  0
  8  3  1  0  0  0  0
  9  1  2  0  0  0  0
 10 12  1  0  0  0  0
 11  2  1  0  0  0  0
 11  4  1  0  0  0  0
 12 15  2  0  0  0  0
 13  9  1  0  0  0  0
 13  3  2  0  0  0  0
 14  6  1  0  0  0  0
 15 16  1  0  0  0  0
 16 24  1  0  0  0  0
 16  9  1  0  0  0  0
 17  7  2  0  0  0  0
 18 22  1  0  0  0  0
 19 20  2  0  0  0  0
 20 18  1  0  0  0  0
 21 20  1  0  0  0  0
 24 23  1  0  0  0  0
 25 24  1  0  0  0  0
 25 23  1  0  0  0  0
 26 27  1  0  0  0  0
 26 10  1  0  0  0  0
 28 29  1  0  0  0  0
 30 33  2  0  0  0  0
 31 30  1  0  0  0  0
 31 32  1  0  0  0  0
 32 29  1  0  0  0  0
 32 34  2  0  0  0  0
 33 34  1  0  0  0  0
 35 30  1  0  0  0  0
M  END
>  <MODEL>
4

>  <REMARK>
 VINA RESULT:      -9.6      1.963      7.649
  Name = 
  6 active torsions:
  status: ('A' for Active; 'I' for Inactive)
    1  A    between atoms: N_1  and  C_10
    2  A    between atoms: C_3  and  C_8
    3  A    between atoms: C_3  and  C_24
    4  A    between atoms: C_9  and  CA_21
    5  A    between atoms: C_13  and  C_24
    6  A    between atoms: C_15  and  N_32
                            x       y       z     vdW  Elec       q    Type
                         _______ _______ _______ _____ _____    ______ ____

>  <TORSDO>
F 6

$$$$
=
 OpenBabel11042411523D

 35 40  0  0  1  0  0  0  0  0999 V2000
  183.4360  178.9080  141.8830 N   0  0  0  0  0  0  0  0  0  0  0  0
  186.9560  177.9190  142.7480 C   0  0  0  0  0  0  0  0  0  0  0  0
  184.9080  178.3070  144.1450 C   0  0  0  0  0  0  0  0  0  0  0  0
  187.1650  178.2170  145.2170 C   0  0  2  0  0  3  0  0  0  0  0  0
  189.5870  177.9380  140.0600 C   0  0  0  0  0  3  0  0  0  0  0  0
  187.5610  177.9590  141.5480 C   0  0  0  0  0  0  0  0  0  0  0  0
  182.8340  178.9530  143.1020 C   0  0  0  0  0  0  0  0  0  0  0  0
  185.6690  177.9440  145.3880 C   0  0  0  0  0  2  0  0  0  0  0  0
  184.7500  178.5690  141.7370 C   0  0  0  0  0  0  0  0  0  0  0  0
  188.8210  178.3400  139.0430 C   0  0  0  0  0  0  0  0  0  0  0  0
  187.7120  177.4990  143.9830 C   0  0  0  0  0  2  0  0  0  0  0  0
  187.4040  178.5050  139.2030 N   0  0  0  0  0  0  0  0  0  0  0  0
  185.5140  178.2560  142.8760 C   0  0  0  0  0  0  0  0  0  0  0  0
  189.0150  177.5790  141.4020 C   0  0  0  0  0  3  0  0  0  0  0  0
  186.7870  178.3370  140.3370 C   0  0  2  0  0  3  0  0  0  0  0  0
  185.3610  178.5390  140.4290 N   0  0  0  0  0  0  0  0  0  0  0  0
  183.5600  178.6440  144.2530 C   0  0  0  0  0  3  0  0  0  0  0  0
  187.9060  177.8310  146.4190 N   0  0  0  0  0  0  0  0  0  0  0  0
  186.4580  179.0460  147.7990 O   0  0  0  0  0  0  0  0  0  0  0  0
  187.4740  178.3030  147.7040 C   0  0  0  0  0  0  0  0  0  0  0  0
  188.2050  177.9270  148.9510 C   0  0  0  0  0  1  0  0  0  0  0  0
  189.0840  176.9750  146.3030 C   0  0  0  0  0  1  0  0  0  0  0  0
  183.3440  177.9980  139.1380 C   0  0  0  0  0  2  0  0  0  0  0  0
  184.5760  178.8850  139.2360 C   0  0  0  0  0  3  0  0  0  0  0  0
  184.5370  177.7150  138.2620 C   0  0  0  0  0  2  0  0  0  0  0  0
  189.4530  178.6460  137.7290 C   0  0  0  0  0  2  0  0  0  0  0  0
  188.8410  179.7650  137.1620 O   0  0  0  0  0  1  0  0  0  0  0  0
  181.3920  179.3140  143.2140 C   0  0  0  0  0  2  0  0  0  0  0  0
  180.7750  179.4760  141.8350 C   0  0  0  0  0  2  0  0  0  0  0  0
  179.5510  176.5680  140.2630 C   0  0  0  0  0  0  0  0  0  0  0  0
  180.2930  177.6490  140.2250 O   0  0  0  0  0  0  0  0  0  0  0  0
  180.1370  178.2000  141.4050 C   0  0  0  0  0  0  0  0  0  0  0  0
  178.9310  176.4380  141.4490 N   0  0  0  0  0  0  0  0  0  0  0  0
  179.3040  177.4800  142.1780 N   0  0  0  0  0  0  0  0  0  0  0  0
  179.4130  175.6030  139.1390 C   0  0  0  0  0  1  0  0  0  0  0  0
  1  7  1  0  0  0  0
  2 13  1  0  0  0  0
  2 11  1  0  0  0  0
  3 17  1  0  0  0  0
  3  8  1  0  0  0  0
  4  8  1  0  0  0  0
  4 18  1  1  0  0  0
  5 14  2  0  0  0  0
  6  2  2  0  0  0  0
  7 28  1  0  0  0  0
  7 17  2  0  0  0  0
  9  1  2  0  0  0  0
  9 13  1  0  0  0  0
 10 12  2  0  0  0  0
 10  5  1  0  0  0  0
 11  4  1  0  0  0  0
 13  3  2  0  0  0  0
 14  6  1  0  0  0  0
 15 12  1  1  0  0  0
 15 16  1  0  0  0  0
 15  6  1  0  0  0  0
 16  9  1  0  0  0  0
 18 20  1  0  0  0  0
 20 19  2  0  0  0  0
 20 21  1  0  0  0  0
 22 18  1  0  0  0  0
 23 24  1  0  0  0  0
 24 16  1  0  0  0  0
 25 23  1  0  0  0  0
 25 24  1  0  0  0  0
 26 10  1  0  0  0  0
 27 26  1  0  0  0  0
 29 28  1  0  0  0  0
 30 33  2  0  0  0  0
 31 30  1  0  0  0  0
 31 32  1  0  0  0  0
 32 29  1  0  0  0  0
 32 34  2  0  0  0  0
 33 34  1  0  0  0  0
 35 30  1  0  0  0  0
M  END
>  <MODEL>
5

>  <REMARK>
 VINA RESULT:      -9.5      1.953      2.193
  Name = 
  6 active torsions:
  status: ('A' for Active; 'I' for Inactive)
    1  A    between atoms: N_1  and  C_10
    2  A    between atoms: C_3  and  C_8
    3  A    between atoms: C_3  and  C_24
    4  A    between atoms: C_9  and  CA_21
    5  A    between atoms: C_13  and  C_24
    6  A    between atoms: C_15  and  N_32
                            x       y       z     vdW  Elec       q    Type
                         _______ _______ _______ _____ _____    ______ ____

>  <TORSDO>
F 6

$$$$
=
 OpenBabel11042411523D

 35 40  0  0  1  0  0  0  0  0999 V2000
  189.2900  178.2140  140.8260 N   0  0  0  0  0  0  0  0  0  0  0  0
  186.4880  177.9240  143.3110 C   0  0  0  0  0  0  0  0  0  0  0  0
  186.5280  178.3100  140.8310 C   0  0  0  0  0  0  0  0  0  0  0  0
  184.4470  178.7590  142.1420 C   0  0  2  0  0  3  0  0  0  0  0  0
  187.2940  177.7410  146.9810 C   0  0  0  0  0  3  0  0  0  0  0  0
  187.1550  177.7950  144.4710 C   0  0  0  0  0  0  0  0  0  0  0  0
  188.6280  178.4300  139.6570 C   0  0  0  0  0  0  0  0  0  0  0  0
  185.0270  178.3240  140.7950 C   0  0  0  0  0  2  0  0  0  0  0  0
  188.6340  178.0360  142.0080 C   0  0  0  0  0  0  0  0  0  0  0  0
  188.6240  177.8120  146.8900 C   0  0  0  0  0  0  0  0  0  0  0  0
  184.9820  177.8800  143.2740 C   0  0  0  0  0  2  0  0  0  0  0  0
  189.2800  177.8100  145.6140 N   0  0  0  0  0  0  0  0  0  0  0  0
  187.2270  178.0780  142.0310 C   0  0  0  0  0  0  0  0  0  0  0  0
  186.4130  177.5970  145.7710 C   0  0  0  0  0  3  0  0  0  0  0  0
  188.6410  177.7990  144.4800 C   0  0  2  0  0  3  0  0  0  0  0  0
  189.3670  177.8170  143.2320 N   0  0  0  0  0  0  0  0  0  0  0  0
  187.2330  178.4730  139.6410 C   0  0  0  0  0  3  0  0  0  0  0  0
  182.9840  178.7400  142.1120 N   0  0  0  0  0  0  0  0  0  0  0  0
  182.8510  179.2460  144.3940 O   0  0  0  0  0  0  0  0  0  0  0  0
  182.2440  179.0000  143.3150 C   0  0  0  0  0  0  0  0  0  0  0  0
  180.7500  178.9920  143.3200 C   0  0  0  0  0  1  0  0  0  0  0  0
  182.2850  178.4490  140.8630 C   0  0  0  0  0  1  0  0  0  0  0  0
  191.3440  176.9830  142.0390 C   0  0  0  0  0  2  0  0  0  0  0  0
  190.8370  177.7940  143.2220 C   0  0  0  0  0  3  0  0  0  0  0  0
  191.3520  176.3750  143.4180 C   0  0  0  0  0  2  0  0  0  0  0  0
  189.4360  177.9190  148.1340 C   0  0  0  0  0  2  0  0  0  0  0  0
  188.6080  178.2500  149.2090 O   0  0  0  0  0  1  0  0  0  0  0  0
  189.3860  178.6040  138.3860 C   0  0  0  0  0  2  0  0  0  0  0  0
  189.1960  177.3970  137.4820 C   0  0  0  0  0  2  0  0  0  0  0  0
  192.2200  175.6190  137.8200 C   0  0  0  0  0  0  0  0  0  0  0  0
  191.5880  176.7520  137.6340 O   0  0  0  0  0  0  0  0  0  0  0  0
  190.3170  176.4340  137.6690 C   0  0  0  0  0  0  0  0  0  0  0  0
  191.3610  174.5940  137.9690 N   0  0  0  0  0  0  0  0  0  0  0  0
  190.1450  175.1150  137.8710 N   0  0  0  0  0  0  0  0  0  0  0  0
  193.7010  175.4790  137.8680 C   0  0  0  0  0  1  0  0  0  0  0  0
  1  9  1  0  0  0  0
  2  6  2  0  0  0  0
  3 13  1  0  0  0  0
  4 18  1  6  0  0  0
  4 11  1  0  0  0  0
  6 14  1  0  0  0  0
  7  1  2  0  0  0  0
  8  3  1  0  0  0  0
  8  4  1  0  0  0  0
  9 13  2  0  0  0  0
  9 16  1  0  0  0  0
 10  5  1  0  0  0  0
 10 26  1  0  0  0  0
 11  2  1  0  0  0  0
 12 10  2  0  0  0  0
 13  2  1  0  0  0  0
 14  5  2  0  0  0  0
 15  6  1  1  0  0  0
 15 12  1  0  0  0  0
 16 15  1  0  0  0  0
 17  7  1  0  0  0  0
 17  3  2  0  0  0  0
 18 20  1  0  0  0  0
 20 21  1  0  0  0  0
 20 19  2  0  0  0  0
 22 18  1  0  0  0  0
 23 24  1  0  0  0  0
 23 25  1  0  0  0  0
 24 16  1  0  0  0  0
 24 25  1  0  0  0  0
 26 27  1  0  0  0  0
 28  7  1  0  0  0  0
 29 32  1  0  0  0  0
 29 28  1  0  0  0  0
 30 35  1  0  0  0  0
 30 33  2  0  0  0  0
 31 32  1  0  0  0  0
 31 30  1  0  0  0  0
 32 34  2  0  0  0  0
 34 33  1  0  0  0  0
M  END
>  <MODEL>
6

>  <REMARK>
 VINA RESULT:      -9.5      2.423      8.489
  Name = 
  6 active torsions:
  status: ('A' for Active; 'I' for Inactive)
    1  A    between atoms: N_1  and  C_10
    2  A    between atoms: C_3  and  C_8
    3  A    between atoms: C_3  and  C_24
    4  A    between atoms: C_9  and  CA_21
    5  A    between atoms: C_13  and  C_24
    6  A    between atoms: C_15  and  N_32
                            x       y       z     vdW  Elec       q    Type
                         _______ _______ _______ _____ _____    ______ ____

>  <TORSDO>
F 6

$$$$
=
 OpenBabel11042411523D

 35 40  0  0  1  0  0  0  0  0999 V2000
  186.8850  178.5410  139.8320 N   0  0  0  0  0  0  0  0  0  0  0  0
  185.8710  178.4810  143.4490 C   0  0  0  0  0  0  0  0  0  0  0  0
  188.0710  178.1270  142.2950 C   0  0  0  0  0  0  0  0  0  0  0  0
  187.7730  177.4290  144.6770 C   0  0  2  0  0  3  0  0  0  0  0  0
  182.2250  178.7170  144.3430 C   0  0  0  0  0  3  0  0  0  0  0  0
  184.5430  178.6740  143.3710 C   0  0  0  0  0  0  0  0  0  0  0  0
  188.2150  178.2620  139.8940 C   0  0  0  0  0  0  0  0  0  0  0  0
  188.7530  177.9410  143.6200 C   0  0  0  0  0  2  0  0  0  0  0  0
  186.1110  178.6290  140.9530 C   0  0  0  0  0  0  0  0  0  0  0  0
  181.7280  178.8010  143.1070 C   0  0  0  0  0  0  0  0  0  0  0  0
  186.5580  178.3510  144.7850 C   0  0  0  0  0  2  0  0  0  0  0  0
  182.5930  178.8920  141.9650 N   0  0  0  0  0  0  0  0  0  0  0  0
  186.6980  178.4260  142.2150 C   0  0  0  0  0  0  0  0  0  0  0  0
  183.7010  178.7720  144.6200 C   0  0  0  0  0  3  0  0  0  0  0  0
  183.8920  178.8400  142.0460 C   0  0  2  0  0  3  0  0  0  0  0  0
  184.7010  178.9190  140.8520 N   0  0  0  0  0  0  0  0  0  0  0  0
  188.8320  178.0590  141.1290 C   0  0  0  0  0  3  0  0  0  0  0  0
  188.4340  177.2800  145.9740 N   0  0  0  0  0  0  0  0  0  0  0  0
  190.4660  176.7110  144.9620 O   0  0  0  0  0  0  0  0  0  0  0  0
  189.8200  176.9080  146.0280 C   0  0  0  0  0  0  0  0  0  0  0  0
  190.5270  176.7500  147.3340 C   0  0  0  0  0  1  0  0  0  0  0  0
  187.6800  177.5040  147.2050 C   0  0  0  0  0  1  0  0  0  0  0  0
  182.9490  178.1080  139.3350 C   0  0  0  0  0  2  0  0  0  0  0  0
  184.0750  179.1110  139.5360 C   0  0  0  0  0  3  0  0  0  0  0  0
  184.2770  177.8820  138.6610 C   0  0  0  0  0  2  0  0  0  0  0  0
  180.2520  178.7750  142.9100 C   0  0  0  0  0  2  0  0  0  0  0  0
  179.6720  177.8820  143.8130 O   0  0  0  0  0  1  0  0  0  0  0  0
  189.0250  178.1890  138.6440 C   0  0  0  0  0  2  0  0  0  0  0  0
  190.3200  177.4320  138.8910 C   0  0  0  0  0  2  0  0  0  0  0  0
  189.6040  174.4350  137.1800 C   0  0  0  0  0  0  0  0  0  0  0  0
  189.2370  175.6320  137.5690 O   0  0  0  0  0  0  0  0  0  0  0  0
  190.2680  176.0970  138.2320 C   0  0  0  0  0  0  0  0  0  0  0  0
  190.8500  174.1440  137.5950 N   0  0  0  0  0  0  0  0  0  0  0  0
  191.2740  175.2050  138.2670 N   0  0  0  0  0  0  0  0  0  0  0  0
  188.7550  173.5130  136.3780 C   0  0  0  0  0  1  0  0  0  0  0  0
  1  7  2  0  0  0  0
  1  9  1  0  0  0  0
  2 11  1  0  0  0  0
  3  8  1  0  0  0  0
  4 11  1  0  0  0  0
  4 18  1  1  0  0  0
  5 14  2  0  0  0  0
  6  2  2  0  0  0  0
  6 14  1  0  0  0  0
  7 17  1  0  0  0  0
  8  4  1  0  0  0  0
  9 13  2  0  0  0  0
 10  5  1  0  0  0  0
 12 10  2  0  0  0  0
 13  3  1  0  0  0  0
 13  2  1  0  0  0  0
 15 12  1  6  0  0  0
 15  6  1  0  0  0  0
 16  9  1  0  0  0  0
 16 15  1  0  0  0  0
 17  3  2  0  0  0  0
 18 20  1  0  0  0  0
 18 22  1  0  0  0  0
 19 20  2  0  0  0  0
 20 21  1  0  0  0  0
 23 24  1  0  0  0  0
 24 16  1  0  0  0  0
 25 23  1  0  0  0  0
 25 24  1  0  0  0  0
 26 10  1  0  0  0  0
 26 27  1  0  0  0  0
 28 29  1  0  0  0  0
 28  7  1  0  0  0  0
 30 31  1  0  0  0  0
 30 33  2  0  0  0  0
 31 32  1  0  0  0  0
 32 34  2  0  0  0  0
 32 29  1  0  0  0  0
 33 34  1  0  0  0  0
 35 30  1  0  0  0  0
M  END
>  <MODEL>
7

>  <REMARK>
 VINA RESULT:      -9.3      2.157      6.932
  Name = 
  6 active torsions:
  status: ('A' for Active; 'I' for Inactive)
    1  A    between atoms: N_1  and  C_10
    2  A    between atoms: C_3  and  C_8
    3  A    between atoms: C_3  and  C_24
    4  A    between atoms: C_9  and  CA_21
    5  A    between atoms: C_13  and  C_24
    6  A    between atoms: C_15  and  N_32
                            x       y       z     vdW  Elec       q    Type
                         _______ _______ _______ _____ _____    ______ ____

>  <TORSDO>
F 6

$$$$
=
 OpenBabel11042411523D

 35 40  0  0  1  0  0  0  0  0999 V2000
  187.4300  178.0790  143.8240 N   0  0  0  0  0  0  0  0  0  0  0  0
  186.9540  178.2610  140.1020 C   0  0  0  0  0  0  0  0  0  0  0  0
  185.4180  178.7090  142.0360 C   0  0  0  0  0  0  0  0  0  0  0  0
  184.4910  178.4160  139.7320 C   0  0  2  0  0  3  0  0  0  0  0  0
  189.6860  177.0200  137.8340 C   0  0  0  0  0  3  0  0  0  0  0  0
  188.1420  177.8260  139.6460 C   0  0  0  0  0  0  0  0  0  0  0  0
  186.2050  178.4360  144.2960 C   0  0  0  0  0  0  0  0  0  0  0  0
  184.3190  179.0990  141.0900 C   0  0  0  0  0  2  0  0  0  0  0  0
  187.7040  178.0260  142.4880 C   0  0  0  0  0  0  0  0  0  0  0  0
  190.5570  176.6390  138.7710 C   0  0  0  0  0  0  0  0  0  0  0  0
  185.8740  178.7050  139.1490 C   0  0  0  0  0  2  0  0  0  0  0  0
  190.3040  176.8860  140.1620 N   0  0  0  0  0  0  0  0  0  0  0  0
  186.6940  178.3460  141.5630 C   0  0  0  0  0  0  0  0  0  0  0  0
  188.4300  177.7750  138.1650 C   0  0  0  0  0  2  0  0  0  0  0  0
  189.2070  177.4320  140.6040 C   0  0  0  0  0  0  0  0  0  0  0  0
  189.0120  177.6340  142.0200 N   0  0  0  0  0  0  0  0  0  0  0  0
  185.1810  178.7660  143.4080 C   0  0  0  0  0  3  0  0  0  0  0  0
  183.4350  178.8240  138.8040 N   0  0  0  0  0  0  0  0  0  0  0  0
  183.3530  176.6950  137.8360 O   0  0  0  0  0  0  0  0  0  0  0  0
  182.9090  177.8760  137.8630 C   0  0  0  0  0  0  0  0  0  0  0  0
  181.8300  178.2570  136.9040 C   0  0  0  0  0  1  0  0  0  0  0  0
  182.9290  180.1940  138.8360 C   0  0  0  0  0  1  0  0  0  0  0  0
  190.2780  178.4050  143.9770 C   0  0  0  0  0  2  0  0  0  0  0  0
  190.0660  177.2760  142.9790 C   0  0  0  0  0  3  0  0  0  0  0  0
  191.2560  178.2170  142.8450 C   0  0  0  0  0  2  0  0  0  0  0  0
  191.8000  175.9240  138.3660 C   0  0  0  0  0  2  0  0  0  0  0  0
  191.4950  174.6020  138.0370 O   0  0  0  0  0  1  0  0  0  0  0  0
  185.9550  178.4960  145.7650 C   0  0  0  0  0  2  0  0  0  0  0  0
  186.4180  177.2140  146.4370 C   0  0  0  0  0  2  0  0  0  0  0  0
  189.7700  177.2500  147.5250 C   0  0  0  0  0  0  0  0  0  0  0  0
  188.8500  176.7970  146.7080 O   0  0  0  0  0  0  0  0  0  0  0  0
  187.7520  177.4170  147.0670 C   0  0  0  0  0  0  0  0  0  0  0  0
  189.2620  178.1440  148.3930 N   0  0  0  0  0  0  0  0  0  0  0  0
  187.9730  178.2490  148.1010 N   0  0  0  0  0  0  0  0  0  0  0  0
  191.1990  176.8360  147.4960 C   0  0  0  0  0  1  0  0  0  0  0  0
  1  7  1  0  0  0  0
  2 13  1  0  0  0  0
  3 17  1  0  0  0  0
  4 18  1  6  0  0  0
  4  8  1  0  0  0  0
  5 14  1  0  0  0  0
  5 10  2  0  0  0  0
  6  2  2  0  0  0  0
  6 15  1  0  0  0  0
  7 28  1  0  0  0  0
  8  3  1  0  0  0  0
  9  1  2  0  0  0  0
 10 12  1  0  0  0  0
 11  4  1  0  0  0  0
 11  2  1  0  0  0  0
 12 15  2  0  0  0  0
 13  3  2  0  0  0  0
 13  9  1  0  0  0  0
 14  6  1  0  0  0  0
 15 16  1  0  0  0  0
 16  9  1  0  0  0  0
 16 24  1  0  0  0  0
 17  7  2  0  0  0  0
 18 22  1  0  0  0  0
 19 20  2  0  0  0  0
 20 18  1  0  0  0  0
 21 20  1  0  0  0  0
 24 23  1  0  0  0  0
 25 24  1  0  0  0  0
 25 23  1  0  0  0  0
 26 10  1  0  0  0  0
 27 26  1  0  0  0  0
 28 29  1  0  0  0  0
 29 32  1  0  0  0  0
 30 33  2  0  0  0  0
 31 32  1  0  0  0  0
 31 30  1  0  0  0  0
 32 34  2  0  0  0  0
 34 33  1  0  0  0  0
 35 30  1  0  0  0  0
M  END
>  <MODEL>
8

>  <REMARK>
 VINA RESULT:      -9.2      2.693      7.360
  Name = 
  6 active torsions:
  status: ('A' for Active; 'I' for Inactive)
    1  A    between atoms: N_1  and  C_10
    2  A    between atoms: C_3  and  C_8
    3  A    between atoms: C_3  and  C_24
    4  A    between atoms: C_9  and  CA_21
    5  A    between atoms: C_13  and  C_24
    6  A    between atoms: C_15  and  N_32
                            x       y       z     vdW  Elec       q    Type
                         _______ _______ _______ _____ _____    ______ ____

>  <TORSDO>
F 6

$$$$
=
 OpenBabel11042411523D

 35 40  0  0  1  0  0  0  0  0999 V2000
  190.1050  177.3970  141.3130 N   0  0  0  0  0  0  0  0  0  0  0  0
  186.7410  177.8320  142.9270 C   0  0  0  0  0  0  0  0  0  0  0  0
  187.5110  177.9620  140.5420 C   0  0  0  0  0  0  0  0  0  0  0  0
  185.2810  178.8840  141.1970 C   0  0  2  0  0  3  0  0  0  0  0  0
  186.4910  177.8740  146.6800 C   0  0  0  0  0  3  0  0  0  0  0  0
  187.0380  177.7050  144.2330 C   0  0  0  0  0  0  0  0  0  0  0  0
  189.8300  177.6070  139.9970 C   0  0  0  0  0  0  0  0  0  0  0  0
  186.1040  178.2280  140.0870 C   0  0  0  0  0  2  0  0  0  0  0  0
  189.1360  177.4500  142.2720 C   0  0  0  0  0  0  0  0  0  0  0  0
  187.7850  177.7080  146.9620 C   0  0  0  0  0  0  0  0  0  0  0  0
  185.3180  178.0420  142.4740 C   0  0  0  0  0  2  0  0  0  0  0  0
  188.7450  177.4690  145.9210 N   0  0  0  0  0  0  0  0  0  0  0  0
  187.8090  177.7320  141.8990 C   0  0  0  0  0  0  0  0  0  0  0  0
  185.9530  177.7640  145.2810 C   0  0  0  0  0  3  0  0  0  0  0  0
  188.4400  177.4570  144.6560 C   0  0  2  0  0  3  0  0  0  0  0  0
  189.4620  177.2300  143.6610 N   0  0  0  0  0  0  0  0  0  0  0  0
  188.5250  177.8850  139.5900 C   0  0  0  0  0  3  0  0  0  0  0  0
  183.9030  179.1110  140.7610 N   0  0  0  0  0  0  0  0  0  0  0  0
  184.6150  180.1260  138.7750 O   0  0  0  0  0  0  0  0  0  0  0  0
  183.6520  179.7570  139.5030 C   0  0  0  0  0  0  0  0  0  0  0  0
  182.2590  180.0020  139.0250 C   0  0  0  0  0  1  0  0  0  0  0  0
  182.7910  178.6880  141.6080 C   0  0  0  0  0  1  0  0  0  0  0  0
  191.1870  177.7090  145.3400 C   0  0  0  0  0  2  0  0  0  0  0  0
  190.8480  176.9550  144.0620 C   0  0  0  0  0  3  0  0  0  0  0  0
  191.6820  178.2290  144.0150 C   0  0  0  0  0  2  0  0  0  0  0  0
  188.2420  177.7960  148.3770 C   0  0  0  0  0  2  0  0  0  0  0  0
  189.3610  178.6270  148.4590 O   0  0  0  0  0  1  0  0  0  0  0  0
  190.9180  177.5250  138.9810 C   0  0  0  0  0  2  0  0  0  0  0  0
  190.8870  176.1800  138.2750 C   0  0  0  0  0  2  0  0  0  0  0  0
  193.8870  174.4570  137.6010 C   0  0  0  0  0  0  0  0  0  0  0  0
  192.5770  174.4810  137.6250 O   0  0  0  0  0  0  0  0  0  0  0  0
  192.2740  175.6810  138.0570 C   0  0  0  0  0  0  0  0  0  0  0  0
  194.4090  175.6260  138.0150 N   0  0  0  0  0  0  0  0  0  0  0  0
  193.3780  176.4070  138.3080 N   0  0  0  0  0  0  0  0  0  0  0  0
  194.6990  173.2890  137.1650 C   0  0  0  0  0  1  0  0  0  0  0  0
  1  9  1  0  0  0  0
  2  6  2  0  0  0  0
  3 13  1  0  0  0  0
  4 18  1  6  0  0  0
  4 11  1  0  0  0  0
  5 10  1  0  0  0  0
  6 14  1  0  0  0  0
  7  1  2  0  0  0  0
  8  3  1  0  0  0  0
  8  4  1  0  0  0  0
  9 16  1  0  0  0  0
 10 26  1  0  0  0  0
 11  2  1  0  0  0  0
 12 10  2  0  0  0  0
 13  9  2  0  0  0  0
 13  2  1  0  0  0  0
 14  5  2  0  0  0  0
 15  6  1  6  0  0  0
 15 12  1  0  0  0  0
 16 24  1  0  0  0  0
 16 15  1  0  0  0  0
 17  7  1  0  0  0  0
 17  3  2  0  0  0  0
 18 22  1  0  0  0  0
 19 20  2  0  0  0  0
 20 18  1  0  0  0  0
 21 20  1  0  0  0  0
 24 23  1  0  0  0  0
 25 24  1  0  0  0  0
 25 23  1  0  0  0  0
 26 27  1  0  0  0  0
 28  7  1  0  0  0  0
 29 28  1  0  0  0  0
 30 31  1  0  0  0  0
 30 33  2  0  0  0  0
 31 32  1  0  0  0  0
 32 29  1  0  0  0  0
 32 34  2  0  0  0  0
 33 34  1  0  0  0  0
 35 30  1  0  0  0  0
M  END
>  <MODEL>
9

>  <REMARK>
 VINA RESULT:      -9.1      3.092      9.294
  Name = 
  6 active torsions:
  status: ('A' for Active; 'I' for Inactive)
    1  A    between atoms: N_1  and  C_10
    2  A    between atoms: C_3  and  C_8
    3  A    between atoms: C_3  and  C_24
    4  A    between atoms: C_9  and  CA_21
    5  A    between atoms: C_13  and  C_24
    6  A    between atoms: C_15  and  N_32
                            x       y       z     vdW  Elec       q    Type
                         _______ _______ _______ _____ _____    ______ ____

>  <TORSDO>
F 6

$$$$
