=
 OpenBabel11042413073D

 32 35  0  0  1  0  0  0  0  0999 V2000
  189.4800  177.3260  147.5880 C   0  0  0  0  0  3  0  0  0  0  0  0
  187.9240  178.1530  149.2230 O   0  0  0  0  0  1  0  0  0  0  0  0
  184.4570  178.6240  143.8070 N   0  0  0  0  0  2  0  0  0  0  0  0
  185.0780  178.7380  146.1580 C   0  0  0  0  0  3  0  0  0  0  0  0
  187.5880  177.6950  145.5460 C   0  0  0  0  0  0  0  0  0  0  0  0
  187.2720  178.0230  146.8870 C   0  0  0  0  0  0  0  0  0  0  0  0
  188.8650  177.1610  145.2410 C   0  0  0  0  0  0  0  0  0  0  0  0
  184.6760  178.4410  142.4020 C   0  0  0  0  0  0  0  0  0  0  0  0
  186.6570  177.9100  144.5720 N   0  0  0  0  0  0  0  0  0  0  0  0
  188.2200  177.8340  147.9030 C   0  0  0  0  0  0  0  0  0  0  0  0
  185.8070  178.1020  141.9630 O   0  0  0  0  0  0  0  0  0  0  0  0
  186.0070  178.5410  147.1790 C   0  0  0  0  0  3  0  0  0  0  0  0
  189.7970  176.9940  146.2710 C   0  0  0  0  0  3  0  0  0  0  0  0
  185.4230  178.4200  144.8440 C   0  0  0  0  0  0  0  0  0  0  0  0
  184.5010  179.8790  139.4400 O   0  0  0  0  0  0  0  0  0  0  0  0
  183.5370  178.6220  141.4510 C   0  0  2  0  0  3  0  0  0  0  0  0
  183.5410  177.6270  140.5080 O   0  0  0  0  0  0  0  0  0  0  0  0
  184.0170  179.0170  140.2190 C   0  0  0  0  0  0  0  0  0  0  0  0
  189.2730  176.7830  143.9170 N   0  0  0  0  0  2  0  0  0  0  0  0
  190.4490  176.8360  140.6650 C   0  0  1  0  0  3  0  0  0  0  0  0
  191.5780  177.2670  141.4700 N   0  0  0  0  0  2  0  0  0  0  0  0
  191.8660  178.2010  143.5950 O   0  0  0  0  0  0  0  0  0  0  0  0
  189.6320  177.6930  142.8390 C   0  0  2  0  0  3  0  0  0  0  0  0
  189.1880  177.1070  141.4970 C   0  0  0  0  0  2  0  0  0  0  0  0
  191.0990  177.7510  142.7040 C   0  0  0  0  0  0  0  0  0  0  0  0
  190.3870  177.6410  139.3800 C   0  0  0  0  0  2  0  0  0  0  0  0
  189.0200  178.2820  139.2280 C   0  0  0  0  0  2  0  0  0  0  0  0
  188.7860  178.6350  137.8030 C   0  0  0  0  0  0  0  0  0  0  0  0
  188.9820  179.8190  137.4140 O   0  0  0  0  0  0  0  0  0  0  0  0
  188.3260  177.6590  136.9190 O   0  0  0  0  0  0  0  0  0  0  0  0
  185.9680  177.3900  137.2440 C   0  0  0  0  0  1  0  0  0  0  0  0
  187.0670  177.7670  136.2730 C   0  0  0  0  0  2  0  0  0  0  0  0
  1 10  1  0  0  0  0
  3 14  1  0  0  0  0
  4 12  2  0  0  0  0
  5  6  1  0  0  0  0
  6 12  1  0  0  0  0
  6 10  2  0  0  0  0
  7  5  2  0  0  0  0
  7 13  1  0  0  0  0
  8  3  1  0  0  0  0
  9 14  2  0  0  0  0
  9  5  1  0  0  0  0
 10  2  1  0  0  0  0
 11  8  2  0  0  0  0
 13  1  2  0  0  0  0
 14  4  1  0  0  0  0
 15 18  2  0  0  0  0
 16  8  1  1  0  0  0
 17 16  1  0  0  0  0
 18 17  1  0  0  0  0
 18 16  1  0  0  0  0
 19  7  1  0  0  0  0
 20 26  1  6  0  0  0
 20 21  1  0  0  0  0
 20 24  1  0  0  0  0
 21 25  1  0  0  0  0
 23 19  1  1  0  0  0
 24 23  1  0  0  0  0
 25 23  1  0  0  0  0
 25 22  2  0  0  0  0
 27 26  1  0  0  0  0
 28 27  1  0  0  0  0
 29 28  2  0  0  0  0
 30 28  1  0  0  0  0
 32 30  1  0  0  0  0
 32 31  1  0  0  0  0
M  END
>  <MODEL>
1

>  <REMARK>
 VINA RESULT:      -9.4      0.000      0.000
  Name = 
  8 active torsions:
  status: ('A' for Active; 'I' for Inactive)
    1  A    between atoms: C_1  and  C_20
    2  A    between atoms: C_5  and  C_10
    3  A    between atoms: C_5  and  O_12
    4  A    between atoms: C_10  and  C_20
    5  A    between atoms: C_11  and  O_12
    6  A    between atoms: C_16  and  N_30
    7  A    between atoms: C_17  and  N_30
    8  A    between atoms: C_18  and  C_24
                            x       y       z     vdW  Elec       q    Type
                         _______ _______ _______ _____ _____    ______ ____

>  <TORSDO>
F 8

$$$$
=
 OpenBabel11042413073D

 32 35  0  0  1  0  0  0  0  0999 V2000
  189.5050  177.1250  147.6800 C   0  0  0  0  0  3  0  0  0  0  0  0
  191.6220  176.0040  147.4830 O   0  0  0  0  0  1  0  0  0  0  0  0
  190.2400  177.2210  141.3030 N   0  0  0  0  0  2  0  0  0  0  0  0
  191.4190  176.4480  143.2880 C   0  0  0  0  0  3  0  0  0  0  0  0
  189.3690  177.4400  144.8920 C   0  0  0  0  0  0  0  0  0  0  0  0
  190.4780  176.7920  145.4900 C   0  0  0  0  0  0  0  0  0  0  0  0
  188.3310  177.9450  145.7150 C   0  0  0  0  0  0  0  0  0  0  0  0
  189.1360  177.7530  140.5610 C   0  0  0  0  0  0  0  0  0  0  0  0
  189.3200  177.5540  143.5340 N   0  0  0  0  0  0  0  0  0  0  0  0
  190.5410  176.6390  146.8820 C   0  0  0  0  0  0  0  0  0  0  0  0
  188.0800  178.1180  141.1440 O   0  0  0  0  0  0  0  0  0  0  0  0
  191.5000  176.3030  144.6720 C   0  0  0  0  0  3  0  0  0  0  0  0
  188.4130  177.7700  147.1000 C   0  0  0  0  0  3  0  0  0  0  0  0
  190.3080  177.0770  142.7260 C   0  0  0  0  0  0  0  0  0  0  0  0
  186.8800  177.6380  138.1580 O   0  0  0  0  0  0  0  0  0  0  0  0
  189.2530  177.9090  139.0780 C   0  0  2  0  0  3  0  0  0  0  0  0
  188.9740  179.2000  138.7110 O   0  0  0  0  0  0  0  0  0  0  0  0
  187.9990  178.0780  138.5270 C   0  0  0  0  0  0  0  0  0  0  0  0
  187.1770  178.6310  145.2050 N   0  0  0  0  0  2  0  0  0  0  0  0
  184.3020  179.2190  143.3750 C   0  0  1  0  0  3  0  0  0  0  0  0
  183.8780  179.3060  144.7600 N   0  0  0  0  0  2  0  0  0  0  0  0
  184.6800  178.5220  146.8140 O   0  0  0  0  0  0  0  0  0  0  0  0
  185.9190  178.0130  144.8090 C   0  0  2  0  0  3  0  0  0  0  0  0
  185.5920  178.3880  143.3610 C   0  0  0  0  0  2  0  0  0  0  0  0
  184.8070  178.6170  145.5660 C   0  0  0  0  0  0  0  0  0  0  0  0
  183.2410  178.5150  142.5490 C   0  0  0  0  0  2  0  0  0  0  0  0
  183.8400  178.0030  141.2520 C   0  0  0  0  0  2  0  0  0  0  0  0
  183.8070  179.0780  140.2240 C   0  0  0  0  0  0  0  0  0  0  0  0
  184.8740  179.6760  139.9140 O   0  0  0  0  0  0  0  0  0  0  0  0
  182.5920  179.4300  139.6370 O   0  0  0  0  0  0  0  0  0  0  0  0
  181.1620  181.1400  138.7590 C   0  0  0  0  0  1  0  0  0  0  0  0
  182.5040  180.4470  138.6500 C   0  0  0  0  0  2  0  0  0  0  0  0
  3 14  1  0  0  0  0
  4 12  2  0  0  0  0
  5  6  2  0  0  0  0
  5  7  1  0  0  0  0
  6 10  1  0  0  0  0
  7 13  2  0  0  0  0
  8 11  2  0  0  0  0
  8  3  1  0  0  0  0
  9  5  1  0  0  0  0
 10  2  1  0  0  0  0
 10  1  2  0  0  0  0
 12  6  1  0  0  0  0
 13  1  1  0  0  0  0
 14  4  1  0  0  0  0
 14  9  2  0  0  0  0
 15 18  2  0  0  0  0
 16  8  1  1  0  0  0
 17 16  1  0  0  0  0
 18 17  1  0  0  0  0
 18 16  1  0  0  0  0
 19  7  1  0  0  0  0
 20 26  1  6  0  0  0
 20 21  1  0  0  0  0
 21 25  1  0  0  0  0
 23 19  1  1  0  0  0
 23 25  1  0  0  0  0
 24 20  1  0  0  0  0
 24 23  1  0  0  0  0
 25 22  2  0  0  0  0
 27 26  1  0  0  0  0
 28 27  1  0  0  0  0
 29 28  2  0  0  0  0
 30 28  1  0  0  0  0
 32 31  1  0  0  0  0
 32 30  1  0  0  0  0
M  END
>  <MODEL>
2

>  <REMARK>
 VINA RESULT:      -9.1      1.780      5.322
  Name = 
  8 active torsions:
  status: ('A' for Active; 'I' for Inactive)
    1  A    between atoms: C_1  and  C_20
    2  A    between atoms: C_5  and  C_10
    3  A    between atoms: C_5  and  O_12
    4  A    between atoms: C_10  and  C_20
    5  A    between atoms: C_11  and  O_12
    6  A    between atoms: C_16  and  N_30
    7  A    between atoms: C_17  and  N_30
    8  A    between atoms: C_18  and  C_24
                            x       y       z     vdW  Elec       q    Type
                         _______ _______ _______ _____ _____    ______ ____

>  <TORSDO>
F 8

$$$$
=
 OpenBabel11042413073D

 32 35  0  0  1  0  0  0  0  0999 V2000
  189.2520  177.1440  147.6580 C   0  0  0  0  0  3  0  0  0  0  0  0
  191.4180  176.1040  147.5870 O   0  0  0  0  0  1  0  0  0  0  0  0
  190.3890  177.3460  141.3430 N   0  0  0  0  0  2  0  0  0  0  0  0
  191.4670  176.5920  143.3920 C   0  0  0  0  0  3  0  0  0  0  0  0
  189.2830  177.4880  144.8710 C   0  0  0  0  0  0  0  0  0  0  0  0
  190.3750  176.8740  145.5320 C   0  0  0  0  0  0  0  0  0  0  0  0
  188.1770  177.9450  145.6300 C   0  0  0  0  0  0  0  0  0  0  0  0
  189.3150  177.8460  140.5370 C   0  0  0  0  0  0  0  0  0  0  0  0
  189.3160  177.6170  143.5140 N   0  0  0  0  0  0  0  0  0  0  0  0
  190.3540  176.7070  146.9240 C   0  0  0  0  0  0  0  0  0  0  0  0
  188.2120  178.1640  141.0540 O   0  0  0  0  0  0  0  0  0  0  0  0
  191.4650  176.4330  144.7770 C   0  0  0  0  0  3  0  0  0  0  0  0
  188.1760  177.7550  147.0150 C   0  0  0  0  0  3  0  0  0  0  0  0
  190.3720  177.1870  142.7670 C   0  0  0  0  0  0  0  0  0  0  0  0
  187.5190  176.8960  137.9400 O   0  0  0  0  0  0  0  0  0  0  0  0
  189.5220  178.0240  139.0660 C   0  0  2  0  0  3  0  0  0  0  0  0
  188.8320  179.1210  138.6180 O   0  0  0  0  0  0  0  0  0  0  0  0
  188.3570  177.7190  138.3920 C   0  0  0  0  0  0  0  0  0  0  0  0
  187.0320  178.5940  145.0540 N   0  0  0  0  0  2  0  0  0  0  0  0
  183.8940  179.2630  143.7620 C   0  0  1  0  0  3  0  0  0  0  0  0
  183.7160  179.3130  145.2020 N   0  0  0  0  0  2  0  0  0  0  0  0
  184.8470  178.4630  147.0650 O   0  0  0  0  0  0  0  0  0  0  0  0
  185.7160  178.0000  144.8630 C   0  0  2  0  0  3  0  0  0  0  0  0
  185.1510  178.4200  143.5050 C   0  0  0  0  0  2  0  0  0  0  0  0
  184.7600  178.5920  145.8170 C   0  0  0  0  0  0  0  0  0  0  0  0
  182.6970  178.5940  143.1120 C   0  0  0  0  0  2  0  0  0  0  0  0
  181.4680  178.7530  143.9870 C   0  0  0  0  0  2  0  0  0  0  0  0
  180.3260  179.2350  143.1660 C   0  0  0  0  0  0  0  0  0  0  0  0
  180.2440  180.4590  142.8710 O   0  0  0  0  0  0  0  0  0  0  0  0
  179.3440  178.3330  142.7550 O   0  0  0  0  0  0  0  0  0  0  0  0
  179.8620  176.9850  140.8440 C   0  0  0  0  0  1  0  0  0  0  0  0
  179.0360  178.1340  141.3840 C   0  0  0  0  0  2  0  0  0  0  0  0
  3 14  1  0  0  0  0
  4 12  2  0  0  0  0
  5  6  2  0  0  0  0
  5  7  1  0  0  0  0
  6 10  1  0  0  0  0
  7 13  2  0  0  0  0
  8 11  2  0  0  0  0
  8  3  1  0  0  0  0
  9  5  1  0  0  0  0
 10  2  1  0  0  0  0
 10  1  2  0  0  0  0
 12  6  1  0  0  0  0
 13  1  1  0  0  0  0
 14  4  1  0  0  0  0
 14  9  2  0  0  0  0
 15 18  2  0  0  0  0
 16  8  1  1  0  0  0
 17 16  1  0  0  0  0
 18 17  1  0  0  0  0
 18 16  1  0  0  0  0
 19  7  1  0  0  0  0
 20 26  1  6  0  0  0
 20 21  1  0  0  0  0
 21 25  1  0  0  0  0
 23 19  1  1  0  0  0
 23 25  1  0  0  0  0
 24 20  1  0  0  0  0
 24 23  1  0  0  0  0
 25 22  2  0  0  0  0
 26 27  1  0  0  0  0
 28 27  1  0  0  0  0
 29 28  2  0  0  0  0
 30 28  1  0  0  0  0
 31 32  1  0  0  0  0
 32 30  1  0  0  0  0
M  END
>  <MODEL>
3

>  <REMARK>
 VINA RESULT:      -9.1      2.389      6.355
  Name = 
  8 active torsions:
  status: ('A' for Active; 'I' for Inactive)
    1  A    between atoms: C_1  and  C_20
    2  A    between atoms: C_5  and  C_10
    3  A    between atoms: C_5  and  O_12
    4  A    between atoms: C_10  and  C_20
    5  A    between atoms: C_11  and  O_12
    6  A    between atoms: C_16  and  N_30
    7  A    between atoms: C_17  and  N_30
    8  A    between atoms: C_18  and  C_24
                            x       y       z     vdW  Elec       q    Type
                         _______ _______ _______ _____ _____    ______ ____

>  <TORSDO>
F 8

$$$$
=
 OpenBabel11042413073D

 32 35  0  0  1  0  0  0  0  0999 V2000
  189.4850  177.2940  147.5210 C   0  0  0  0  0  3  0  0  0  0  0  0
  187.9330  178.1020  149.1690 O   0  0  0  0  0  1  0  0  0  0  0  0
  184.4460  178.6190  143.7710 N   0  0  0  0  0  2  0  0  0  0  0  0
  185.0750  178.7100  146.1200 C   0  0  0  0  0  3  0  0  0  0  0  0
  187.5850  177.6800  145.4890 C   0  0  0  0  0  0  0  0  0  0  0  0
  187.2720  177.9930  146.8340 C   0  0  0  0  0  0  0  0  0  0  0  0
  188.8620  177.1520  145.1750 C   0  0  0  0  0  0  0  0  0  0  0  0
  184.6600  178.4500  142.3640 C   0  0  0  0  0  0  0  0  0  0  0  0
  186.6500  177.9030  144.5210 N   0  0  0  0  0  0  0  0  0  0  0  0
  188.2250  177.7970  147.8450 C   0  0  0  0  0  0  0  0  0  0  0  0
  185.7900  178.1180  141.9170 O   0  0  0  0  0  0  0  0  0  0  0  0
  186.0080  178.5060  147.1360 C   0  0  0  0  0  3  0  0  0  0  0  0
  189.7980  176.9770  146.1990 C   0  0  0  0  0  3  0  0  0  0  0  0
  185.4150  178.4060  144.8030 C   0  0  0  0  0  0  0  0  0  0  0  0
  184.4700  179.9210  139.4180 O   0  0  0  0  0  0  0  0  0  0  0  0
  183.5160  178.6380  141.4180 C   0  0  2  0  0  3  0  0  0  0  0  0
  183.5210  177.6540  140.4640 O   0  0  0  0  0  0  0  0  0  0  0  0
  183.9920  179.0490  140.1890 C   0  0  0  0  0  0  0  0  0  0  0  0
  189.2660  176.7880  143.8450 N   0  0  0  0  0  2  0  0  0  0  0  0
  190.3400  176.8780  140.5590 C   0  0  1  0  0  3  0  0  0  0  0  0
  191.4860  177.3220  141.3310 N   0  0  0  0  0  2  0  0  0  0  0  0
  191.8260  178.2480  143.4520 O   0  0  0  0  0  0  0  0  0  0  0  0
  189.5780  177.7100  142.7620 C   0  0  2  0  0  3  0  0  0  0  0  0
  189.1010  177.1250  141.4310 C   0  0  0  0  0  2  0  0  0  0  0  0
  191.0390  177.7910  142.5830 C   0  0  0  0  0  0  0  0  0  0  0  0
  190.2260  177.6900  139.2820 C   0  0  0  0  0  2  0  0  0  0  0  0
  189.6020  176.8520  138.1810 C   0  0  0  0  0  2  0  0  0  0  0  0
  190.5620  176.7080  137.0540 C   0  0  0  0  0  0  0  0  0  0  0  0
  190.1440  176.7870  135.8660 O   0  0  0  0  0  0  0  0  0  0  0  0
  191.9070  176.4610  137.3240 O   0  0  0  0  0  0  0  0  0  0  0  0
  192.6470  174.2150  136.9390 C   0  0  0  0  0  1  0  0  0  0  0  0
  192.7070  175.6540  136.4720 C   0  0  0  0  0  2  0  0  0  0  0  0
  1 10  1  0  0  0  0
  3 14  1  0  0  0  0
  4 12  2  0  0  0  0
  5  6  1  0  0  0  0
  6 12  1  0  0  0  0
  6 10  2  0  0  0  0
  7  5  2  0  0  0  0
  7 13  1  0  0  0  0
  8  3  1  0  0  0  0
  9 14  2  0  0  0  0
  9  5  1  0  0  0  0
 10  2  1  0  0  0  0
 11  8  2  0  0  0  0
 13  1  2  0  0  0  0
 14  4  1  0  0  0  0
 15 18  2  0  0  0  0
 16  8  1  1  0  0  0
 17 16  1  0  0  0  0
 18 17  1  0  0  0  0
 18 16  1  0  0  0  0
 19  7  1  0  0  0  0
 20 26  1  6  0  0  0
 20 21  1  0  0  0  0
 20 24  1  0  0  0  0
 21 25  1  0  0  0  0
 23 19  1  1  0  0  0
 24 23  1  0  0  0  0
 25 23  1  0  0  0  0
 25 22  2  0  0  0  0
 27 26  1  0  0  0  0
 28 30  1  0  0  0  0
 28 27  1  0  0  0  0
 29 28  2  0  0  0  0
 32 31  1  0  0  0  0
 32 30  1  0  0  0  0
M  END
>  <MODEL>
4

>  <REMARK>
 VINA RESULT:      -8.7      1.473      2.012
  Name = 
  8 active torsions:
  status: ('A' for Active; 'I' for Inactive)
    1  A    between atoms: C_1  and  C_20
    2  A    between atoms: C_5  and  C_10
    3  A    between atoms: C_5  and  O_12
    4  A    between atoms: C_10  and  C_20
    5  A    between atoms: C_11  and  O_12
    6  A    between atoms: C_16  and  N_30
    7  A    between atoms: C_17  and  N_30
    8  A    between atoms: C_18  and  C_24
                            x       y       z     vdW  Elec       q    Type
                         _______ _______ _______ _____ _____    ______ ____

>  <TORSDO>
F 8

$$$$
=
 OpenBabel11042413073D

 32 35  0  0  1  0  0  0  0  0999 V2000
  189.0590  177.3860  146.6820 C   0  0  0  0  0  3  0  0  0  0  0  0
  187.6250  178.0500  148.4930 O   0  0  0  0  0  1  0  0  0  0  0  0
  183.6650  178.6520  143.4400 N   0  0  0  0  0  2  0  0  0  0  0  0
  184.4920  178.6670  145.7300 C   0  0  0  0  0  3  0  0  0  0  0  0
  186.9760  177.7770  144.8390 C   0  0  0  0  0  0  0  0  0  0  0  0
  186.7700  178.0160  146.2200 C   0  0  0  0  0  0  0  0  0  0  0  0
  188.2420  177.3210  144.3930 C   0  0  0  0  0  0  0  0  0  0  0  0
  183.7630  178.5560  142.0140 C   0  0  0  0  0  0  0  0  0  0  0  0
  185.9530  178.0010  143.9650 N   0  0  0  0  0  0  0  0  0  0  0  0
  187.8130  177.8180  147.1350 C   0  0  0  0  0  0  0  0  0  0  0  0
  184.8630  178.2940  141.4570 O   0  0  0  0  0  0  0  0  0  0  0  0
  185.5160  178.4590  146.6520 C   0  0  0  0  0  3  0  0  0  0  0  0
  189.2690  177.1420  145.3250 C   0  0  0  0  0  3  0  0  0  0  0  0
  184.7280  178.4370  144.3750 C   0  0  0  0  0  0  0  0  0  0  0  0
  183.3060  179.9420  139.0570 O   0  0  0  0  0  0  0  0  0  0  0  0
  182.5350  178.7350  141.1780 C   0  0  2  0  0  3  0  0  0  0  0  0
  182.4330  177.7230  140.2590 O   0  0  0  0  0  0  0  0  0  0  0  0
  182.8940  179.1010  139.8970 C   0  0  0  0  0  0  0  0  0  0  0  0
  188.5430  177.0340  143.0180 N   0  0  0  0  0  2  0  0  0  0  0  0
  189.0410  177.5570  139.6360 C   0  0  1  0  0  3  0  0  0  0  0  0
  190.3190  177.0720  140.1230 N   0  0  0  0  0  2  0  0  0  0  0  0
  191.4000  176.9760  142.1950 O   0  0  0  0  0  0  0  0  0  0  0  0
  189.1910  177.9370  142.0770 C   0  0  2  0  0  3  0  0  0  0  0  0
  188.2980  178.1320  140.8490 C   0  0  0  0  0  2  0  0  0  0  0  0
  190.3910  177.2930  141.5130 C   0  0  0  0  0  0  0  0  0  0  0  0
  189.2570  178.6560  138.6110 C   0  0  0  0  0  2  0  0  0  0  0  0
  189.0060  178.1250  137.2120 C   0  0  0  0  0  2  0  0  0  0  0  0
  187.5420  178.0380  136.9620 C   0  0  0  0  0  0  0  0  0  0  0  0
  186.7840  178.9550  137.3810 O   0  0  0  0  0  0  0  0  0  0  0  0
  187.0230  176.9310  136.2910 O   0  0  0  0  0  0  0  0  0  0  0  0
  185.0370  175.6270  135.9830 C   0  0  0  0  0  1  0  0  0  0  0  0
  186.1560  176.0070  136.9300 C   0  0  0  0  0  2  0  0  0  0  0  0
  1 10  1  0  0  0  0
  3 14  1  0  0  0  0
  4 12  2  0  0  0  0
  5  6  1  0  0  0  0
  6 12  1  0  0  0  0
  6 10  2  0  0  0  0
  7  5  2  0  0  0  0
  7 13  1  0  0  0  0
  8  3  1  0  0  0  0
  9 14  2  0  0  0  0
  9  5  1  0  0  0  0
 10  2  1  0  0  0  0
 11  8  2  0  0  0  0
 13  1  2  0  0  0  0
 14  4  1  0  0  0  0
 15 18  2  0  0  0  0
 16  8  1  1  0  0  0
 17 16  1  0  0  0  0
 18 17  1  0  0  0  0
 18 16  1  0  0  0  0
 19  7  1  0  0  0  0
 20 26  1  6  0  0  0
 20 21  1  0  0  0  0
 20 24  1  0  0  0  0
 21 25  1  0  0  0  0
 23 19  1  1  0  0  0
 24 23  1  0  0  0  0
 25 23  1  0  0  0  0
 25 22  2  0  0  0  0
 27 26  1  0  0  0  0
 28 27  1  0  0  0  0
 28 29  2  0  0  0  0
 30 32  1  0  0  0  0
 30 28  1  0  0  0  0
 31 32  1  0  0  0  0
M  END
>  <MODEL>
5

>  <REMARK>
 VINA RESULT:      -8.6      1.183      1.395
  Name = 
  8 active torsions:
  status: ('A' for Active; 'I' for Inactive)
    1  A    between atoms: C_1  and  C_20
    2  A    between atoms: C_5  and  C_10
    3  A    between atoms: C_5  and  O_12
    4  A    between atoms: C_10  and  C_20
    5  A    between atoms: C_11  and  O_12
    6  A    between atoms: C_16  and  N_30
    7  A    between atoms: C_17  and  N_30
    8  A    between atoms: C_18  and  C_24
                            x       y       z     vdW  Elec       q    Type
                         _______ _______ _______ _____ _____    ______ ____

>  <TORSDO>
F 8

$$$$
=
 OpenBabel11042413073D

 32 35  0  0  1  0  0  0  0  0999 V2000
  191.6920  176.3030  145.6280 C   0  0  0  0  0  3  0  0  0  0  0  0
  191.4480  176.7580  147.9750 O   0  0  0  0  0  1  0  0  0  0  0  0
  185.7670  178.7710  145.6840 N   0  0  0  0  0  2  0  0  0  0  0  0
  187.5650  178.2480  147.2380 C   0  0  0  0  0  3  0  0  0  0  0  0
  189.1050  177.2750  145.1310 C   0  0  0  0  0  0  0  0  0  0  0  0
  189.6280  177.2630  146.4470 C   0  0  0  0  0  0  0  0  0  0  0  0
  189.8920  176.7760  144.0630 C   0  0  0  0  0  0  0  0  0  0  0  0
  185.1560  178.9440  144.3990 C   0  0  0  0  0  0  0  0  0  0  0  0
  187.8550  177.7780  144.9180 N   0  0  0  0  0  0  0  0  0  0  0  0
  190.9200  176.7750  146.6890 C   0  0  0  0  0  0  0  0  0  0  0  0
  185.7860  178.6740  143.3420 O   0  0  0  0  0  0  0  0  0  0  0  0
  188.8420  177.7510  147.4940 C   0  0  0  0  0  3  0  0  0  0  0  0
  191.1820  176.3050  144.3290 C   0  0  0  0  0  3  0  0  0  0  0  0
  187.0820  178.2610  145.9300 C   0  0  0  0  0  0  0  0  0  0  0  0
  182.8790  178.6440  142.0330 O   0  0  0  0  0  0  0  0  0  0  0  0
  183.7400  179.4180  144.3150 C   0  0  2  0  0  3  0  0  0  0  0  0
  182.8800  178.4200  144.6940 O   0  0  0  0  0  0  0  0  0  0  0  0
  183.1020  178.7960  143.2610 C   0  0  0  0  0  0  0  0  0  0  0  0
  189.4430  176.7300  142.6990 N   0  0  0  0  0  2  0  0  0  0  0  0
  189.0140  177.3950  139.3330 C   0  0  1  0  0  3  0  0  0  0  0  0
  190.4460  177.2110  139.4890 N   0  0  0  0  0  2  0  0  0  0  0  0
  191.9710  177.3400  141.2580 O   0  0  0  0  0  0  0  0  0  0  0  0
  189.6390  177.7690  141.6980 C   0  0  2  0  0  3  0  0  0  0  0  0
  188.4650  177.7690  140.7160 C   0  0  0  0  0  2  0  0  0  0  0  0
  190.7880  177.4250  140.8400 C   0  0  0  0  0  0  0  0  0  0  0  0
  188.7380  178.5260  138.3590 C   0  0  0  0  0  2  0  0  0  0  0  0
  188.0330  177.9960  137.1240 C   0  0  0  0  0  2  0  0  0  0  0  0
  186.5640  178.1780  137.2680 C   0  0  0  0  0  0  0  0  0  0  0  0
  185.7850  177.6330  136.4390 O   0  0  0  0  0  0  0  0  0  0  0  0
  186.0670  178.9730  138.3010 O   0  0  0  0  0  0  0  0  0  0  0  0
  183.8040  179.4870  138.8950 C   0  0  0  0  0  1  0  0  0  0  0  0
  184.9790  178.5550  139.1100 C   0  0  0  0  0  2  0  0  0  0  0  0
  1 10  1  0  0  0  0
  3 14  1  0  0  0  0
  4 12  2  0  0  0  0
  5  6  1  0  0  0  0
  6 10  2  0  0  0  0
  6 12  1  0  0  0  0
  7 13  1  0  0  0  0
  7  5  2  0  0  0  0
  8  3  1  0  0  0  0
  9  5  1  0  0  0  0
  9 14  2  0  0  0  0
 10  2  1  0  0  0  0
 11  8  2  0  0  0  0
 13  1  2  0  0  0  0
 14  4  1  0  0  0  0
 15 18  2  0  0  0  0
 16  8  1  6  0  0  0
 16 17  1  0  0  0  0
 18 16  1  0  0  0  0
 18 17  1  0  0  0  0
 19  7  1  0  0  0  0
 20 26  1  6  0  0  0
 20 21  1  0  0  0  0
 20 24  1  0  0  0  0
 21 25  1  0  0  0  0
 23 19  1  1  0  0  0
 24 23  1  0  0  0  0
 25 22  2  0  0  0  0
 25 23  1  0  0  0  0
 27 28  1  0  0  0  0
 27 26  1  0  0  0  0
 28 30  1  0  0  0  0
 29 28  2  0  0  0  0
 30 32  1  0  0  0  0
 31 32  1  0  0  0  0
M  END
>  <MODEL>
6

>  <REMARK>
 VINA RESULT:      -8.6      1.769      2.647
  Name = 
  8 active torsions:
  status: ('A' for Active; 'I' for Inactive)
    1  A    between atoms: C_1  and  C_20
    2  A    between atoms: C_5  and  C_10
    3  A    between atoms: C_5  and  O_12
    4  A    between atoms: C_10  and  C_20
    5  A    between atoms: C_11  and  O_12
    6  A    between atoms: C_16  and  N_30
    7  A    between atoms: C_17  and  N_30
    8  A    between atoms: C_18  and  C_24
                            x       y       z     vdW  Elec       q    Type
                         _______ _______ _______ _____ _____    ______ ____

>  <TORSDO>
F 8

$$$$
=
 OpenBabel11042413073D

 32 35  0  0  1  0  0  0  0  0999 V2000
  185.4220  178.3630  144.3150 C   0  0  0  0  0  3  0  0  0  0  0  0
  184.6620  178.9350  146.5220 O   0  0  0  0  0  1  0  0  0  0  0  0
  190.6200  176.7900  147.7380 N   0  0  0  0  0  2  0  0  0  0  0  0
  188.3900  177.7050  148.0790 C   0  0  0  0  0  3  0  0  0  0  0  0
  187.9110  177.5590  145.3390 C   0  0  0  0  0  0  0  0  0  0  0  0
  186.9020  178.0500  146.2030 C   0  0  0  0  0  0  0  0  0  0  0  0
  187.6620  177.4900  143.9450 C   0  0  0  0  0  0  0  0  0  0  0  0
  191.6840  176.1750  147.0000 C   0  0  0  0  0  0  0  0  0  0  0  0
  189.0990  177.1510  145.8690 N   0  0  0  0  0  0  0  0  0  0  0  0
  185.6620  178.4520  145.6860 C   0  0  0  0  0  0  0  0  0  0  0  0
  191.5580  175.9200  145.7730 O   0  0  0  0  0  0  0  0  0  0  0  0
  187.1590  178.1210  147.5750 C   0  0  0  0  0  3  0  0  0  0  0  0
  186.4130  177.8860  143.4560 C   0  0  0  0  0  3  0  0  0  0  0  0
  189.3590  177.2110  147.2050 C   0  0  0  0  0  0  0  0  0  0  0  0
  193.1980  177.5980  149.5610 O   0  0  0  0  0  0  0  0  0  0  0  0
  192.9740  175.8650  147.6910 C   0  0  2  0  0  3  0  0  0  0  0  0
  192.7480  175.0800  148.7920 O   0  0  0  0  0  0  0  0  0  0  0  0
  193.0360  176.5470  148.8890 C   0  0  0  0  0  0  0  0  0  0  0  0
  188.6250  177.0230  142.9880 N   0  0  0  0  0  2  0  0  0  0  0  0
  190.0770  176.8790  139.8520 C   0  0  1  0  0  3  0  0  0  0  0  0
  191.1990  176.9500  140.7720 N   0  0  0  0  0  2  0  0  0  0  0  0
  191.5240  177.6830  142.9690 O   0  0  0  0  0  0  0  0  0  0  0  0
  189.3200  177.8410  142.0030 C   0  0  2  0  0  3  0  0  0  0  0  0
  188.8640  177.4540  140.5950 C   0  0  0  0  0  2  0  0  0  0  0  0
  190.7540  177.4980  141.9920 C   0  0  0  0  0  0  0  0  0  0  0  0
  190.3590  177.7210  138.6210 C   0  0  0  0  0  2  0  0  0  0  0  0
  189.3630  177.3950  137.5230 C   0  0  0  0  0  2  0  0  0  0  0  0
  188.4980  178.5760  137.2630 C   0  0  0  0  0  0  0  0  0  0  0  0
  188.9840  179.7360  137.3530 O   0  0  0  0  0  0  0  0  0  0  0  0
  187.1510  178.3860  136.9510 O   0  0  0  0  0  0  0  0  0  0  0  0
  184.9740  177.4090  137.1500 C   0  0  0  0  0  1  0  0  0  0  0  0
  186.2430  177.8030  137.8740 C   0  0  0  0  0  2  0  0  0  0  0  0
  1 10  1  0  0  0  0
  5  9  1  0  0  0  0
  5  6  1  0  0  0  0
  6 12  1  0  0  0  0
  7  5  2  0  0  0  0
  8  3  1  0  0  0  0
  9 14  2  0  0  0  0
 10  6  2  0  0  0  0
 10  2  1  0  0  0  0
 11  8  2  0  0  0  0
 12  4  2  0  0  0  0
 13  7  1  0  0  0  0
 13  1  2  0  0  0  0
 14  3  1  0  0  0  0
 14  4  1  0  0  0  0
 16  8  1  6  0  0  0
 16 17  1  0  0  0  0
 16 18  1  0  0  0  0
 17 18  1  0  0  0  0
 18 15  2  0  0  0  0
 19  7  1  0  0  0  0
 20 26  1  6  0  0  0
 20 24  1  0  0  0  0
 20 21  1  0  0  0  0
 21 25  1  0  0  0  0
 23 19  1  1  0  0  0
 24 23  1  0  0  0  0
 25 23  1  0  0  0  0
 25 22  2  0  0  0  0
 27 26  1  0  0  0  0
 28 29  2  0  0  0  0
 28 27  1  0  0  0  0
 30 28  1  0  0  0  0
 30 32  1  0  0  0  0
 31 32  1  0  0  0  0
M  END
>  <MODEL>
7

>  <REMARK>
 VINA RESULT:      -8.4      2.265      5.517
  Name = 
  8 active torsions:
  status: ('A' for Active; 'I' for Inactive)
    1  A    between atoms: C_1  and  C_20
    2  A    between atoms: C_5  and  C_10
    3  A    between atoms: C_5  and  O_12
    4  A    between atoms: C_10  and  C_20
    5  A    between atoms: C_11  and  O_12
    6  A    between atoms: C_16  and  N_30
    7  A    between atoms: C_17  and  N_30
    8  A    between atoms: C_18  and  C_24
                            x       y       z     vdW  Elec       q    Type
                         _______ _______ _______ _____ _____    ______ ____

>  <TORSDO>
F 8

$$$$
=
 OpenBabel11042413073D

 32 35  0  0  1  0  0  0  0  0999 V2000
  187.8340  177.5160  146.9120 C   0  0  0  0  0  3  0  0  0  0  0  0
  190.0810  177.2170  147.7120 O   0  0  0  0  0  1  0  0  0  0  0  0
  190.9750  177.1270  141.3270 N   0  0  0  0  0  2  0  0  0  0  0  0
  191.4390  177.0660  143.7160 C   0  0  0  0  0  3  0  0  0  0  0  0
  188.7300  177.4350  144.2510 C   0  0  0  0  0  0  0  0  0  0  0  0
  189.6460  177.3030  145.3230 C   0  0  0  0  0  0  0  0  0  0  0  0
  187.3540  177.6250  144.5300 C   0  0  0  0  0  0  0  0  0  0  0  0
  190.1540  177.1360  140.1530 C   0  0  0  0  0  0  0  0  0  0  0  0
  189.1920  177.3640  142.9700 N   0  0  0  0  0  0  0  0  0  0  0  0
  189.1930  177.3460  146.6500 C   0  0  0  0  0  0  0  0  0  0  0  0
  188.8970  177.1620  140.2420 O   0  0  0  0  0  0  0  0  0  0  0  0
  191.0030  177.1230  145.0390 C   0  0  0  0  0  3  0  0  0  0  0  0
  186.9260  177.6530  145.8620 C   0  0  0  0  0  3  0  0  0  0  0  0
  190.5120  177.1840  142.6810 C   0  0  0  0  0  0  0  0  0  0  0  0
  190.7280  174.7310  137.9720 O   0  0  0  0  0  0  0  0  0  0  0  0
  190.7990  177.1500  138.8030 C   0  0  2  0  0  3  0  0  0  0  0  0
  189.8480  177.2480  137.8210 O   0  0  0  0  0  0  0  0  0  0  0  0
  190.5410  175.9610  138.1510 C   0  0  0  0  0  0  0  0  0  0  0  0
  186.3520  177.7860  143.5140 N   0  0  0  0  0  2  0  0  0  0  0  0
  182.9680  178.3920  143.1320 C   0  0  1  0  0  3  0  0  0  0  0  0
  183.5520  178.7590  141.8540 N   0  0  0  0  0  2  0  0  0  0  0  0
  185.6770  179.3770  141.0950 O   0  0  0  0  0  0  0  0  0  0  0  0
  185.3790  178.8660  143.4330 C   0  0  2  0  0  3  0  0  0  0  0  0
  184.0980  178.4650  144.1680 C   0  0  0  0  0  2  0  0  0  0  0  0
  184.9250  179.0250  142.0390 C   0  0  0  0  0  0  0  0  0  0  0  0
  181.8770  179.3780  143.5070 C   0  0  0  0  0  2  0  0  0  0  0  0
  180.7770  179.3650  142.4620 C   0  0  0  0  0  2  0  0  0  0  0  0
  179.7960  178.2930  142.7770 C   0  0  0  0  0  0  0  0  0  0  0  0
  179.6840  177.8810  143.9640 O   0  0  0  0  0  0  0  0  0  0  0  0
  179.0320  177.7360  141.7510 O   0  0  0  0  0  0  0  0  0  0  0  0
  180.3800  176.4820  140.2190 C   0  0  0  0  0  1  0  0  0  0  0  0
  179.4950  177.6960  140.4100 C   0  0  0  0  0  2  0  0  0  0  0  0
  3 14  1  0  0  0  0
  4 12  2  0  0  0  0
  5  7  2  0  0  0  0
  5  6  1  0  0  0  0
  6 10  2  0  0  0  0
  7 13  1  0  0  0  0
  8 11  2  0  0  0  0
  8  3  1  0  0  0  0
  9  5  1  0  0  0  0
 10  1  1  0  0  0  0
 10  2  1  0  0  0  0
 12  6  1  0  0  0  0
 13  1  2  0  0  0  0
 14  9  2  0  0  0  0
 14  4  1  0  0  0  0
 15 18  2  0  0  0  0
 16  8  1  1  0  0  0
 17 18  1  0  0  0  0
 17 16  1  0  0  0  0
 18 16  1  0  0  0  0
 19  7  1  0  0  0  0
 20 26  1  1  0  0  0
 20 24  1  0  0  0  0
 21 25  1  0  0  0  0
 21 20  1  0  0  0  0
 22 25  2  0  0  0  0
 23 19  1  6  0  0  0
 23 24  1  0  0  0  0
 25 23  1  0  0  0  0
 27 28  1  0  0  0  0
 27 26  1  0  0  0  0
 28 29  2  0  0  0  0
 30 28  1  0  0  0  0
 31 32  1  0  0  0  0
 32 30  1  0  0  0  0
M  END
>  <MODEL>
8

>  <REMARK>
 VINA RESULT:      -8.2      2.416      6.640
  Name = 
  8 active torsions:
  status: ('A' for Active; 'I' for Inactive)
    1  A    between atoms: C_1  and  C_20
    2  A    between atoms: C_5  and  C_10
    3  A    between atoms: C_5  and  O_12
    4  A    between atoms: C_10  and  C_20
    5  A    between atoms: C_11  and  O_12
    6  A    between atoms: C_16  and  N_30
    7  A    between atoms: C_17  and  N_30
    8  A    between atoms: C_18  and  C_24
                            x       y       z     vdW  Elec       q    Type
                         _______ _______ _______ _____ _____    ______ ____

>  <TORSDO>
F 8

$$$$
=
 OpenBabel11042413073D

 32 35  0  0  1  0  0  0  0  0999 V2000
  189.2310  177.3180  146.2220 C   0  0  0  0  0  3  0  0  0  0  0  0
  188.2020  177.8180  148.3360 O   0  0  0  0  0  1  0  0  0  0  0  0
  183.2890  178.7620  144.2670 N   0  0  0  0  0  2  0  0  0  0  0  0
  184.5690  178.6070  146.3320 C   0  0  0  0  0  3  0  0  0  0  0  0
  186.8150  177.8240  144.8830 C   0  0  0  0  0  0  0  0  0  0  0  0
  186.8970  177.9510  146.2910 C   0  0  0  0  0  0  0  0  0  0  0  0
  187.9600  177.4220  144.1510 C   0  0  0  0  0  0  0  0  0  0  0  0
  183.0920  178.7800  142.8480 C   0  0  0  0  0  0  0  0  0  0  0  0
  185.6340  178.1030  144.2580 N   0  0  0  0  0  0  0  0  0  0  0  0
  188.1060  177.6950  146.9540 C   0  0  0  0  0  0  0  0  0  0  0  0
  184.0520  178.5770  142.0590 O   0  0  0  0  0  0  0  0  0  0  0  0
  185.7610  178.3420  147.0050 C   0  0  0  0  0  3  0  0  0  0  0  0
  189.1570  177.1840  144.8350 C   0  0  0  0  0  3  0  0  0  0  0  0
  184.5220  178.4880  144.9440 C   0  0  0  0  0  0  0  0  0  0  0  0
  180.1180  177.8450  143.9230 O   0  0  0  0  0  0  0  0  0  0  0  0
  181.7190  179.0070  142.2990 C   0  0  2  0  0  3  0  0  0  0  0  0
  181.1380  180.0920  142.9030 O   0  0  0  0  0  0  0  0  0  0  0  0
  180.7770  178.6810  143.2530 C   0  0  0  0  0  0  0  0  0  0  0  0
  187.9720  177.2490  142.7250 N   0  0  0  0  0  2  0  0  0  0  0  0
  188.6380  177.5610  139.3460 C   0  0  1  0  0  3  0  0  0  0  0  0
  189.8220  176.9250  139.8950 N   0  0  0  0  0  2  0  0  0  0  0  0
  190.8160  176.7670  142.0070 O   0  0  0  0  0  0  0  0  0  0  0  0
  188.7660  178.0150  141.7760 C   0  0  2  0  0  3  0  0  0  0  0  0
  187.9460  178.2810  140.5110 C   0  0  0  0  0  2  0  0  0  0  0  0
  189.8820  177.1910  141.2790 C   0  0  0  0  0  0  0  0  0  0  0  0
  189.0340  178.5770  138.2910 C   0  0  0  0  0  2  0  0  0  0  0  0
  187.9800  178.6390  137.2000 C   0  0  0  0  0  2  0  0  0  0  0  0
  188.3070  177.6600  136.1290 C   0  0  0  0  0  0  0  0  0  0  0  0
  187.3880  177.2200  135.3860 O   0  0  0  0  0  0  0  0  0  0  0  0
  189.6220  177.2200  135.9780 O   0  0  0  0  0  0  0  0  0  0  0  0
  189.5360  175.0100  136.8980 C   0  0  0  0  0  1  0  0  0  0  0  0
  189.9310  175.8610  135.7100 C   0  0  0  0  0  2  0  0  0  0  0  0
  1 10  1  0  0  0  0
  3 14  1  0  0  0  0
  4 12  2  0  0  0  0
  5  6  1  0  0  0  0
  6 10  2  0  0  0  0
  6 12  1  0  0  0  0
  7 13  1  0  0  0  0
  7  5  2  0  0  0  0
  8  3  1  0  0  0  0
  9  5  1  0  0  0  0
  9 14  2  0  0  0  0
 10  2  1  0  0  0  0
 11  8  2  0  0  0  0
 13  1  2  0  0  0  0
 14  4  1  0  0  0  0
 16  8  1  1  0  0  0
 16 17  1  0  0  0  0
 16 18  1  0  0  0  0
 17 18  1  0  0  0  0
 18 15  2  0  0  0  0
 19  7  1  0  0  0  0
 20 26  1  6  0  0  0
 20 21  1  0  0  0  0
 20 24  1  0  0  0  0
 21 25  1  0  0  0  0
 23 19  1  1  0  0  0
 24 23  1  0  0  0  0
 25 23  1  0  0  0  0
 25 22  2  0  0  0  0
 27 26  1  0  0  0  0
 28 27  1  0  0  0  0
 29 28  2  0  0  0  0
 30 28  1  0  0  0  0
 32 30  1  0  0  0  0
 32 31  1  0  0  0  0
M  END
>  <MODEL>
9

>  <REMARK>
 VINA RESULT:      -8.2      1.988      2.469
  Name = 
  8 active torsions:
  status: ('A' for Active; 'I' for Inactive)
    1  A    between atoms: C_1  and  C_20
    2  A    between atoms: C_5  and  C_10
    3  A    between atoms: C_5  and  O_12
    4  A    between atoms: C_10  and  C_20
    5  A    between atoms: C_11  and  O_12
    6  A    between atoms: C_16  and  N_30
    7  A    between atoms: C_17  and  N_30
    8  A    between atoms: C_18  and  C_24
                            x       y       z     vdW  Elec       q    Type
                         _______ _______ _______ _____ _____    ______ ____

>  <TORSDO>
F 8

$$$$
