=
 OpenBabel11032421203D

 43 48  0  0  1  0  0  0  0  0999 V2000
  179.2530  182.1310  138.5690 N   0  0  0  0  0  2  0  0  0  0  0  0
  179.4850  180.9610  140.6000 N   0  0  0  0  0  0  0  0  0  0  0  0
  183.2830  178.5540  141.2290 C   0  0  0  0  0  0  0  0  0  0  0  0
  181.3950  179.6450  141.2130 C   0  0  0  0  0  0  0  0  0  0  0  0
  181.3420  180.6620  138.9500 C   0  0  2  0  0  3  0  0  0  0  0  0
  181.6650  178.3870  143.2200 C   0  0  0  0  0  3  0  0  0  0  0  0
  180.1560  180.1120  141.5440 C   0  0  0  0  0  0  0  0  0  0  0  0
  183.1940  179.2080  140.0330 N   0  0  0  0  0  0  0  0  0  0  0  0
  182.1430  178.8210  141.9820 C   0  0  0  0  0  0  0  0  0  0  0  0
  181.1140  179.8290  137.8690 F   0  0  0  0  0  0  0  0  0  0  0  0
  180.3900  178.8590  143.6260 C   0  0  0  0  0  3  0  0  0  0  0  0
  182.0150  179.8770  140.0430 C   0  0  0  0  0  0  0  0  0  0  0  0
  179.6300  179.7240  142.7890 C   0  0  0  0  0  3  0  0  0  0  0  0
  180.0010  181.2590  139.4260 C   0  0  0  0  0  0  0  0  0  0  0  0
  179.5600  182.0720  136.1180 O   0  0  0  0  0  0  0  0  0  0  0  0
  180.0110  182.6540  134.9460 N   0  0  0  0  0  2  0  0  0  0  0  0
  179.7150  182.7230  137.3510 C   0  0  0  0  0  0  0  0  0  0  0  0
  180.6500  183.9340  134.9820 C   0  0  0  0  0  3  0  0  0  0  0  0
  180.8030  184.5480  136.1540 C   0  0  0  0  0  3  0  0  0  0  0  0
  180.3160  183.9160  137.3930 C   0  0  0  0  0  3  0  0  0  0  0  0
  184.1280  179.1100  138.9180 C   0  0  0  0  0  2  0  0  0  0  0  0
  183.8120  177.8920  138.0700 C   0  0  0  0  0  1  0  0  0  0  0  0
  184.4190  177.6550  141.6310 C   0  0  0  0  0  2  0  0  0  0  0  0
  185.3680  179.7290  142.7030 C   0  0  0  0  0  1  0  0  0  0  0  0
  185.7040  178.4020  142.0390 C   0  0  2  0  0  0  0  0  0  0  0  0
  186.5400  178.6890  140.7930 C   0  0  0  0  0  2  0  0  0  0  0  0
  187.8910  178.4030  141.0090 O   0  0  0  0  0  0  0  0  0  0  0  0
  189.0910  179.2520  138.8460 O   0  0  0  0  0  1  0  0  0  0  0  0
  188.5100  178.0100  139.4810 P   0  0  0  0  0  0  0  0  0  0  0  0
  189.7290  176.8460  139.6410 O   0  0  0  0  0  1  0  0  0  0  0  0
  187.2770  177.4040  138.4920 O   0  0  0  0  0  0  0  0  0  0  0  0
  186.5360  177.5820  143.0270 C   0  0  0  0  0  2  0  0  0  0  0  0
  186.5630  178.1900  144.4340 C   0  0  1  0  0  3  0  0  0  0  0  0
  186.9720  177.1160  145.4210 C   0  0  1  0  0  3  0  0  0  0  0  0
  187.9440  178.2440  145.1080 C   0  0  1  0  0  3  0  0  0  0  0  0
  186.3030  177.3900  146.7500 C   0  0  0  0  0  1  0  0  0  0  0  0
  189.3220  176.4070  144.0580 C   0  0  0  0  0  3  0  0  0  0  0  0
  191.2860  176.9520  142.7600 C   0  0  0  0  0  3  0  0  0  0  0  0
  190.4200  176.0000  143.2990 C   0  0  0  0  0  0  0  0  0  0  0  0
  191.0390  178.3060  142.9940 C   0  0  0  0  0  3  0  0  0  0  0  0
  189.9610  178.6850  143.7340 N   0  0  0  0  0  0  0  0  0  0  0  0
  190.6490  174.6810  143.0920 F   0  0  0  0  0  0  0  0  0  0  0  0
  189.0910  177.7750  144.2550 C   0  0  0  0  0  0  0  0  0  0  0  0
  1 14  1  0  0  0  0
  2  7  1  0  0  0  0
  3 23  1  0  0  0  0
  3  9  2  0  0  0  0
  4  7  1  0  0  0  0
  4  9  1  0  0  0  0
  5 10  1  6  0  0  0
  5 14  1  0  0  0  0
  5 12  1  0  0  0  0
  6 11  2  0  0  0  0
  7 13  2  0  0  0  0
  8 12  1  0  0  0  0
  8  3  1  0  0  0  0
  9  6  1  0  0  0  0
 12  4  2  0  0  0  0
 13 11  1  0  0  0  0
 14  2  2  0  0  0  0
 15 17  1  0  0  0  0
 16 18  1  0  0  0  0
 16 15  1  0  0  0  0
 17 20  2  0  0  0  0
 17  1  1  0  0  0  0
 18 19  2  0  0  0  0
 19 20  1  0  0  0  0
 21  8  1  0  0  0  0
 22 21  1  0  0  0  0
 23 25  1  0  0  0  0
 25 24  1  1  0  0  0
 25 32  1  0  0  0  0
 26 27  1  0  0  0  0
 26 25  1  0  0  0  0
 28 29  1  0  0  0  0
 29 30  1  0  0  0  0
 29 27  1  0  0  0  0
 31 29  2  0  0  0  0
 33 32  1  6  0  0  0
 33 35  1  0  0  0  0
 33 34  1  0  0  0  0
 34 36  1  1  0  0  0
 35 43  1  6  0  0  0
 35 34  1  0  0  0  0
 37 43  1  0  0  0  0
 38 40  2  0  0  0  0
 38 39  1  0  0  0  0
 39 37  2  0  0  0  0
 40 41  1  0  0  0  0
 41 43  2  0  0  0  0
 42 39  1  0  0  0  0
M  END
>  <MODEL>
1

>  <REMARK>
 VINA RESULT:      -7.7      0.000      0.000
  Name = 
  10 active torsions:
  status: ('A' for Active; 'I' for Inactive)
    1  A    between atoms: C_1  and  C_21
    2  A    between atoms: N_3  and  C_17
    3  A    between atoms: C_6  and  C_38
    4  A    between atoms: C_9  and  O_20
    5  A    between atoms: C_9  and  C_35
    6  A    between atoms: P_15  and  O_20
    7  A    between atoms: N_16  and  C_26
    8  A    between atoms: C_21  and  C_35
    9  A    between atoms: C_29  and  C_41
   10  A    between atoms: C_35  and  C_38
                            x       y       z     vdW  Elec       q    Type
                         _______ _______ _______ _____ _____    ______ ____

>  <TORSDO>
F 10

$$$$
=
 OpenBabel11032421203D

 43 48  0  0  1  0  0  0  0  0999 V2000
  190.6210  176.7200  141.1740 N   0  0  0  0  0  2  0  0  0  0  0  0
  189.3620  176.9140  139.1930 N   0  0  0  0  0  0  0  0  0  0  0  0
  185.3390  179.0040  139.4440 C   0  0  0  0  0  0  0  0  0  0  0  0
  187.2280  177.9980  139.0270 C   0  0  0  0  0  0  0  0  0  0  0  0
  188.2810  177.8080  141.2650 C   0  0  2  0  0  3  0  0  0  0  0  0
  185.8750  178.1720  137.0710 C   0  0  0  0  0  3  0  0  0  0  0  0
  188.2300  177.3130  138.4040 C   0  0  0  0  0  0  0  0  0  0  0  0
  186.0270  178.9110  140.6210 N   0  0  0  0  0  0  0  0  0  0  0  0
  186.0910  178.4220  138.4280 C   0  0  0  0  0  0  0  0  0  0  0  0
  187.7490  176.8950  142.1580 F   0  0  0  0  0  0  0  0  0  0  0  0
  186.8950  177.4810  136.3670 C   0  0  0  0  0  3  0  0  0  0  0  0
  187.1940  178.2830  140.3400 C   0  0  0  0  0  0  0  0  0  0  0  0
  188.0780  177.0480  137.0310 C   0  0  0  0  0  3  0  0  0  0  0  0
  189.4380  177.1460  140.4870 C   0  0  0  0  0  0  0  0  0  0  0  0
  191.3280  178.3490  142.8920 O   0  0  0  0  0  0  0  0  0  0  0  0
  191.6740  178.6490  144.1980 N   0  0  0  0  0  2  0  0  0  0  0  0
  190.9810  177.0420  142.5220 C   0  0  0  0  0  0  0  0  0  0  0  0
  191.6880  177.6170  145.1900 C   0  0  0  0  0  3  0  0  0  0  0  0
  191.3650  176.3740  144.8350 C   0  0  0  0  0  3  0  0  0  0  0  0
  190.9960  176.0720  143.4410 C   0  0  0  0  0  3  0  0  0  0  0  0
  185.5470  179.3060  141.9410 C   0  0  0  0  0  2  0  0  0  0  0  0
  184.9250  178.1180  142.6510 C   0  0  0  0  0  1  0  0  0  0  0  0
  183.9670  179.6030  139.2980 C   0  0  0  0  0  2  0  0  0  0  0  0
  181.8090  178.9200  138.1920 C   0  0  0  0  0  1  0  0  0  0  0  0
  182.8250  178.5690  139.2680 C   0  0  2  0  0  0  0  0  0  0  0  0
  182.1100  178.5650  140.6180 C   0  0  0  0  0  2  0  0  0  0  0  0
  180.8940  179.2520  140.5520 O   0  0  0  0  0  0  0  0  0  0  0  0
  179.8490  180.7930  142.3890 O   0  0  0  0  0  0  0  0  0  0  0  0
  180.3790  179.3960  142.1610 P   0  0  0  0  0  0  0  0  0  0  0  0
  179.1460  178.2780  142.4680 O   0  0  0  0  0  1  0  0  0  0  0  0
  181.6740  179.1130  143.2130 O   0  0  0  0  0  1  0  0  0  0  0  0
  183.3530  177.1630  138.9730 C   0  0  0  0  0  2  0  0  0  0  0  0
  182.4820  176.0590  139.5830 C   0  0  1  0  0  3  0  0  0  0  0  0
  181.3020  175.8070  138.6680 C   0  0  1  0  0  3  0  0  0  0  0  0
  182.3970  174.7560  138.7720 C   0  0  1  0  0  3  0  0  0  0  0  0
  180.1160  175.3760  139.5020 C   0  0  0  0  0  1  0  0  0  0  0  0
  184.5460  174.1750  137.5800 C   0  0  0  0  0  3  0  0  0  0  0  0
  184.8390  174.7560  135.2530 C   0  0  0  0  0  3  0  0  0  0  0  0
  185.3340  174.1890  136.4290 C   0  0  0  0  0  0  0  0  0  0  0  0
  183.5560  175.3050  135.2500 C   0  0  0  0  0  3  0  0  0  0  0  0
  182.7990  175.2780  136.3810 N   0  0  0  0  0  0  0  0  0  0  0  0
  186.5810  173.6610  136.4540 F   0  0  0  0  0  0  0  0  0  0  0  0
  183.2530  174.7140  137.5360 C   0  0  0  0  0  0  0  0  0  0  0  0
  1 17  1  0  0  0  0
  2 14  2  0  0  0  0
  3  8  1  0  0  0  0
  4 12  2  0  0  0  0
  5 10  1  1  0  0  0
  6  9  1  0  0  0  0
  7  4  1  0  0  0  0
  7  2  1  0  0  0  0
  8 21  1  0  0  0  0
  9  4  1  0  0  0  0
  9  3  2  0  0  0  0
 11 13  1  0  0  0  0
 11  6  2  0  0  0  0
 12  8  1  0  0  0  0
 12  5  1  0  0  0  0
 13  7  2  0  0  0  0
 14  1  1  0  0  0  0
 14  5  1  0  0  0  0
 15 16  1  0  0  0  0
 16 18  1  0  0  0  0
 17 15  1  0  0  0  0
 17 20  2  0  0  0  0
 19 18  2  0  0  0  0
 20 19  1  0  0  0  0
 21 22  1  0  0  0  0
 23  3  1  0  0  0  0
 25 24  1  6  0  0  0
 25 23  1  0  0  0  0
 25 26  1  0  0  0  0
 27 26  1  0  0  0  0
 27 29  1  0  0  0  0
 29 28  2  0  0  0  0
 29 30  1  0  0  0  0
 29 31  1  0  0  0  0
 32 25  1  0  0  0  0
 33 32  1  6  0  0  0
 34 35  1  0  0  0  0
 34 36  1  1  0  0  0
 34 33  1  0  0  0  0
 35 43  1  6  0  0  0
 35 33  1  0  0  0  0
 38 39  1  0  0  0  0
 39 42  1  0  0  0  0
 39 37  2  0  0  0  0
 40 38  2  0  0  0  0
 40 41  1  0  0  0  0
 41 43  2  0  0  0  0
 43 37  1  0  0  0  0
M  END
>  <MODEL>
2

>  <REMARK>
 VINA RESULT:      -7.6      4.083      9.430
  Name = 
  10 active torsions:
  status: ('A' for Active; 'I' for Inactive)
    1  A    between atoms: C_1  and  C_21
    2  A    between atoms: N_3  and  C_17
    3  A    between atoms: C_6  and  C_38
    4  A    between atoms: C_9  and  O_20
    5  A    between atoms: C_9  and  C_35
    6  A    between atoms: P_15  and  O_20
    7  A    between atoms: N_16  and  C_26
    8  A    between atoms: C_21  and  C_35
    9  A    between atoms: C_29  and  C_41
   10  A    between atoms: C_35  and  C_38
                            x       y       z     vdW  Elec       q    Type
                         _______ _______ _______ _____ _____    ______ ____

>  <TORSDO>
F 10

$$$$
=
 OpenBabel11032421203D

 43 48  0  0  1  0  0  0  0  0999 V2000
  181.2340  178.8660  143.9300 N   0  0  0  0  0  2  0  0  0  0  0  0
  183.1520  178.6050  145.2710 N   0  0  0  0  0  0  0  0  0  0  0  0
  187.1900  178.5720  143.1970 C   0  0  0  0  0  0  0  0  0  0  0  0
  185.4060  178.5880  144.4500 C   0  0  0  0  0  0  0  0  0  0  0  0
  183.5540  178.7380  142.8060 C   0  0  2  0  0  3  0  0  0  0  0  0
  187.3830  178.2630  145.7420 C   0  0  0  0  0  3  0  0  0  0  0  0
  184.5620  178.4930  145.5180 C   0  0  0  0  0  0  0  0  0  0  0  0
  186.1090  178.7190  142.3750 N   0  0  0  0  0  0  0  0  0  0  0  0
  186.7530  178.4820  144.5150 C   0  0  0  0  0  0  0  0  0  0  0  0
  183.2680  177.6180  142.0460 F   0  0  0  0  0  0  0  0  0  0  0  0
  186.5550  178.1780  146.8920 C   0  0  0  0  0  3  0  0  0  0  0  0
  185.0140  178.7250  143.1720 C   0  0  0  0  0  0  0  0  0  0  0  0
  185.1410  178.2930  146.7850 C   0  0  0  0  0  3  0  0  0  0  0  0
  182.6560  178.7470  144.0600 C   0  0  0  0  0  0  0  0  0  0  0  0
  180.3140  180.5540  142.3780 O   0  0  0  0  0  0  0  0  0  0  0  0
  179.6200  180.8800  141.2260 N   0  0  0  0  0  2  0  0  0  0  0  0
  180.5180  179.2150  142.7410 C   0  0  0  0  0  0  0  0  0  0  0  0
  179.0930  179.8440  140.3900 C   0  0  0  0  0  3  0  0  0  0  0  0
  179.2810  178.5720  140.7400 C   0  0  0  0  0  3  0  0  0  0  0  0
  180.0240  178.2430  141.9680 C   0  0  0  0  0  3  0  0  0  0  0  0
  186.1250  178.7460  140.9170 C   0  0  0  0  0  2  0  0  0  0  0  0
  184.8630  179.4030  140.3890 C   0  0  0  0  0  1  0  0  0  0  0  0
  188.6160  178.4770  142.7290 C   0  0  0  0  0  2  0  0  0  0  0  0
  188.1710  176.0130  143.0080 C   0  0  0  0  0  1  0  0  0  0  0  0
  189.0650  177.0530  142.3500 C   0  0  2  0  0  0  0  0  0  0  0  0
  190.4970  176.8270  142.8330 C   0  0  0  0  0  2  0  0  0  0  0  0
  190.5220  176.1280  144.0440 O   0  0  0  0  0  0  0  0  0  0  0  0
  190.0490  177.8560  145.9490 O   0  0  0  0  0  1  0  0  0  0  0  0
  191.1740  177.2150  145.1690 P   0  0  0  0  0  0  0  0  0  0  0  0
  192.1900  176.3870  146.2400 O   0  0  0  0  0  1  0  0  0  0  0  0
  192.0550  178.4200  144.3710 O   0  0  0  0  0  0  0  0  0  0  0  0
  189.0030  176.8330  140.8370 C   0  0  0  0  0  2  0  0  0  0  0  0
  190.2120  177.4190  140.0980 C   0  0  1  0  0  3  0  0  0  0  0  0
  190.7000  176.4070  139.0820 C   0  0  1  0  0  3  0  0  0  0  0  0
  190.0130  177.6740  138.5960 C   0  0  1  0  0  3  0  0  0  0  0  0
  192.1960  176.5580  138.9180 C   0  0  0  0  0  1  0  0  0  0  0  0
  188.2470  176.0960  137.7190 C   0  0  0  0  0  3  0  0  0  0  0  0
  186.0950  176.9480  137.0240 C   0  0  0  0  0  3  0  0  0  0  0  0
  186.9700  175.8760  137.1990 C   0  0  0  0  0  0  0  0  0  0  0  0
  186.5140  178.2330  137.3710 C   0  0  0  0  0  3  0  0  0  0  0  0
  187.7610  178.4300  137.8800 N   0  0  0  0  0  0  0  0  0  0  0  0
  186.5850  174.6230  136.8580 F   0  0  0  0  0  0  0  0  0  0  0  0
  188.6270  177.3960  138.0770 C   0  0  0  0  0  0  0  0  0  0  0  0
  1 14  1  0  0  0  0
  2  7  1  0  0  0  0
  3  9  2  0  0  0  0
  4  9  1  0  0  0  0
  4  7  1  0  0  0  0
  5 10  1  1  0  0  0
  5 12  1  0  0  0  0
  5 14  1  0  0  0  0
  6 11  2  0  0  0  0
  7 13  2  0  0  0  0
  8 12  1  0  0  0  0
  8  3  1  0  0  0  0
  9  6  1  0  0  0  0
 12  4  2  0  0  0  0
 13 11  1  0  0  0  0
 14  2  2  0  0  0  0
 15 17  1  0  0  0  0
 16 15  1  0  0  0  0
 17  1  1  0  0  0  0
 18 19  2  0  0  0  0
 18 16  1  0  0  0  0
 19 20  1  0  0  0  0
 20 17  2  0  0  0  0
 21  8  1  0  0  0  0
 22 21  1  0  0  0  0
 23  3  1  0  0  0  0
 25 23  1  0  0  0  0
 25 26  1  0  0  0  0
 25 24  1  1  0  0  0
 26 27  1  0  0  0  0
 27 29  1  0  0  0  0
 29 28  1  0  0  0  0
 29 30  1  0  0  0  0
 31 29  2  0  0  0  0
 32 25  1  0  0  0  0
 33 32  1  1  0  0  0
 34 36  1  6  0  0  0
 34 33  1  0  0  0  0
 35 43  1  1  0  0  0
 35 34  1  0  0  0  0
 35 33  1  0  0  0  0
 37 43  1  0  0  0  0
 38 39  1  0  0  0  0
 38 40  2  0  0  0  0
 39 37  2  0  0  0  0
 40 41  1  0  0  0  0
 41 43  2  0  0  0  0
 42 39  1  0  0  0  0
M  END
>  <MODEL>
3

>  <REMARK>
 VINA RESULT:      -7.5      3.649      6.168
  Name = 
  10 active torsions:
  status: ('A' for Active; 'I' for Inactive)
    1  A    between atoms: C_1  and  C_21
    2  A    between atoms: N_3  and  C_17
    3  A    between atoms: C_6  and  C_38
    4  A    between atoms: C_9  and  O_20
    5  A    between atoms: C_9  and  C_35
    6  A    between atoms: P_15  and  O_20
    7  A    between atoms: N_16  and  C_26
    8  A    between atoms: C_21  and  C_35
    9  A    between atoms: C_29  and  C_41
   10  A    between atoms: C_35  and  C_38
                            x       y       z     vdW  Elec       q    Type
                         _______ _______ _______ _____ _____    ______ ____

>  <TORSDO>
F 10

$$$$
=
 OpenBabel11032421203D

 43 48  0  0  1  0  0  0  0  0999 V2000
  189.9520  176.8870  144.2470 N   0  0  0  0  0  2  0  0  0  0  0  0
  190.7810  176.8430  142.0430 N   0  0  0  0  0  0  0  0  0  0  0  0
  187.9930  178.1610  138.7110 C   0  0  0  0  0  0  0  0  0  0  0  0
  189.5450  177.5170  140.1000 C   0  0  0  0  0  0  0  0  0  0  0  0
  188.3880  177.5270  142.2950 C   0  0  2  0  0  3  0  0  0  0  0  0
  190.3010  177.4370  137.8400 C   0  0  0  0  0  3  0  0  0  0  0  0
  190.7070  177.0260  140.6200 C   0  0  0  0  0  0  0  0  0  0  0  0
  187.4620  178.1970  139.9690 N   0  0  0  0  0  0  0  0  0  0  0  0
  189.3120  177.7250  138.7840 C   0  0  0  0  0  0  0  0  0  0  0  0
  187.4580  176.5330  142.5430 F   0  0  0  0  0  0  0  0  0  0  0  0
  191.5390  176.9440  138.3270 C   0  0  0  0  0  3  0  0  0  0  0  0
  188.4410  177.7930  140.8150 C   0  0  0  0  0  0  0  0  0  0  0  0
  191.7480  176.7360  139.7190 C   0  0  0  0  0  3  0  0  0  0  0  0
  189.7630  177.0880  142.8400 C   0  0  0  0  0  0  0  0  0  0  0  0
  187.8050  177.8530  144.9960 O   0  0  0  0  0  0  0  0  0  0  0  0
  186.9370  178.2200  146.0100 N   0  0  0  0  0  2  0  0  0  0  0  0
  189.0480  177.2710  145.2870 C   0  0  0  0  0  0  0  0  0  0  0  0
  187.3070  178.0140  147.3770 C   0  0  0  0  0  3  0  0  0  0  0  0
  188.4900  177.4680  147.6530 C   0  0  0  0  0  3  0  0  0  0  0  0
  189.4010  177.0800  146.5620 C   0  0  0  0  0  3  0  0  0  0  0  0
  186.0790  178.4990  140.3210 C   0  0  0  0  0  2  0  0  0  0  0  0
  186.0270  179.3320  141.5880 C   0  0  0  0  0  1  0  0  0  0  0  0
  187.2390  178.4970  137.4540 C   0  0  0  0  0  2  0  0  0  0  0  0
  186.9420  177.3250  135.2430 C   0  0  0  0  0  1  0  0  0  0  0  0
  186.6350  177.2780  136.7320 C   0  0  2  0  0  0  0  0  0  0  0  0
  185.1170  177.2870  136.9070 C   0  0  0  0  0  2  0  0  0  0  0  0
  184.6950  176.2590  137.7560 O   0  0  0  0  0  0  0  0  0  0  0  0
  182.6670  175.8090  139.3440 O   0  0  0  0  0  1  0  0  0  0  0  0
  183.0970  176.6500  138.1640 P   0  0  0  0  0  0  0  0  0  0  0  0
  182.9990  178.2860  138.5840 O   0  0  0  0  0  1  0  0  0  0  0  0
  182.0700  176.3380  136.8560 O   0  0  0  0  0  0  0  0  0  0  0  0
  187.1980  175.9660  137.2840 C   0  0  0  0  0  2  0  0  0  0  0  0
  188.1600  175.2730  136.3120 C   0  0  1  0  0  3  0  0  0  0  0  0
  188.6030  173.9590  136.9200 C   0  0  1  0  0  3  0  0  0  0  0  0
  187.6640  173.9430  135.7230 C   0  0  1  0  0  3  0  0  0  0  0  0
  190.0090  173.6510  136.4540 C   0  0  0  0  0  1  0  0  0  0  0  0
  185.1860  173.8050  135.2560 C   0  0  0  0  0  3  0  0  0  0  0  0
  183.6840  172.9080  136.9220 C   0  0  0  0  0  3  0  0  0  0  0  0
  183.8940  173.4710  135.6630 C   0  0  0  0  0  0  0  0  0  0  0  0
  184.7780  172.6890  137.7610 C   0  0  0  0  0  3  0  0  0  0  0  0
  186.0330  173.0170  137.3460 N   0  0  0  0  0  0  0  0  0  0  0  0
  182.8440  173.7010  134.8390 F   0  0  0  0  0  0  0  0  0  0  0  0
  186.2650  173.5510  136.1140 C   0  0  0  0  0  0  0  0  0  0  0  0
  1 17  1  0  0  0  0
  2 14  2  0  0  0  0
  3  9  2  0  0  0  0
  3  8  1  0  0  0  0
  4  7  1  0  0  0  0
  4 12  2  0  0  0  0
  5 10  1  6  0  0  0
  5 14  1  0  0  0  0
  6 11  2  0  0  0  0
  6  9  1  0  0  0  0
  7  2  1  0  0  0  0
  8 21  1  0  0  0  0
  8 12  1  0  0  0  0
  9  4  1  0  0  0  0
 11 13  1  0  0  0  0
 12  5  1  0  0  0  0
 13  7  2  0  0  0  0
 14  1  1  0  0  0  0
 15 17  1  0  0  0  0
 15 16  1  0  0  0  0
 16 18  1  0  0  0  0
 17 20  2  0  0  0  0
 18 19  2  0  0  0  0
 20 19  1  0  0  0  0
 21 22  1  0  0  0  0
 23  3  1  0  0  0  0
 25 24  1  6  0  0  0
 25 26  1  0  0  0  0
 25 32  1  0  0  0  0
 25 23  1  0  0  0  0
 26 27  1  0  0  0  0
 27 29  1  0  0  0  0
 29 30  1  0  0  0  0
 29 28  1  0  0  0  0
 31 29  2  0  0  0  0
 33 34  1  0  0  0  0
 33 32  1  1  0  0  0
 34 36  1  6  0  0  0
 35 43  1  1  0  0  0
 35 33  1  0  0  0  0
 35 34  1  0  0  0  0
 37 39  2  0  0  0  0
 37 43  1  0  0  0  0
 38 40  2  0  0  0  0
 39 38  1  0  0  0  0
 41 40  1  0  0  0  0
 42 39  1  0  0  0  0
 43 41  2  0  0  0  0
M  END
>  <MODEL>
4

>  <REMARK>
 VINA RESULT:      -7.5      5.014      9.773
  Name = 
  10 active torsions:
  status: ('A' for Active; 'I' for Inactive)
    1  A    between atoms: C_1  and  C_21
    2  A    between atoms: N_3  and  C_17
    3  A    between atoms: C_6  and  C_38
    4  A    between atoms: C_9  and  O_20
    5  A    between atoms: C_9  and  C_35
    6  A    between atoms: P_15  and  O_20
    7  A    between atoms: N_16  and  C_26
    8  A    between atoms: C_21  and  C_35
    9  A    between atoms: C_29  and  C_41
   10  A    between atoms: C_35  and  C_38
                            x       y       z     vdW  Elec       q    Type
                         _______ _______ _______ _____ _____    ______ ____

>  <TORSDO>
F 10

$$$$
=
 OpenBabel11032421203D

 43 48  0  0  1  0  0  0  0  0999 V2000
  188.0070  177.7410  144.9420 N   0  0  0  0  0  2  0  0  0  0  0  0
  186.3290  178.1890  143.3500 N   0  0  0  0  0  0  0  0  0  0  0  0
  187.5360  178.2610  138.9740 C   0  0  0  0  0  0  0  0  0  0  0  0
  186.6740  178.2520  140.9770 C   0  0  0  0  0  0  0  0  0  0  0  0
  188.6430  177.8960  142.4440 C   0  0  2  0  0  3  0  0  0  0  0  0
  185.0380  178.7610  139.3190 C   0  0  0  0  0  3  0  0  0  0  0  0
  185.8100  178.3840  142.0250 C   0  0  0  0  0  0  0  0  0  0  0  0
  188.5460  178.0040  139.8570 N   0  0  0  0  0  0  0  0  0  0  0  0
  186.3450  178.4250  139.6760 C   0  0  0  0  0  0  0  0  0  0  0  0
  189.5320  178.9440  142.6030 F   0  0  0  0  0  0  0  0  0  0  0  0
  184.0910  178.8910  140.3680 C   0  0  0  0  0  3  0  0  0  0  0  0
  187.9900  178.0040  141.0930 C   0  0  0  0  0  0  0  0  0  0  0  0
  184.4740  178.7020  141.7260 C   0  0  0  0  0  3  0  0  0  0  0  0
  187.6000  177.9360  143.5810 C   0  0  0  0  0  0  0  0  0  0  0  0
  190.2340  176.7750  144.4820 O   0  0  0  0  0  0  0  0  0  0  0  0
  191.4670  176.3260  144.9230 N   0  0  0  0  0  2  0  0  0  0  0  0
  189.2840  177.2740  145.3860 C   0  0  0  0  0  0  0  0  0  0  0  0
  191.7840  176.3610  146.3180 C   0  0  0  0  0  3  0  0  0  0  0  0
  190.8790  176.8290  147.1770 C   0  0  0  0  0  3  0  0  0  0  0  0
  189.5720  177.3050  146.6910 C   0  0  0  0  0  3  0  0  0  0  0  0
  189.9640  177.8730  139.5410 C   0  0  0  0  0  2  0  0  0  0  0  0
  190.5280  176.6110  140.1670 C   0  0  0  0  0  1  0  0  0  0  0  0
  187.7110  178.3890  137.4860 C   0  0  0  0  0  2  0  0  0  0  0  0
  187.1690  177.3410  135.2590 C   0  0  0  0  0  1  0  0  0  0  0  0
  187.5320  177.0690  136.7110 C   0  0  2  0  0  0  0  0  0  0  0  0
  186.4000  176.2600  137.3430 C   0  0  0  0  0  2  0  0  0  0  0  0
  185.2320  176.3370  136.5800 O   0  0  0  0  0  0  0  0  0  0  0  0
  185.1080  173.9320  137.6010 O   0  0  0  0  0  1  0  0  0  0  0  0
  184.2410  175.0890  137.1600 P   0  0  0  0  0  0  0  0  0  0  0  0
  183.3400  175.6430  138.4810 O   0  0  0  0  0  1  0  0  0  0  0  0
  183.1920  174.5650  135.9400 O   0  0  0  0  0  0  0  0  0  0  0  0
  188.8160  176.2360  136.7240 C   0  0  0  0  0  2  0  0  0  0  0  0
  188.5520  174.7350  136.8900 C   0  0  1  0  0  3  0  0  0  0  0  0
  188.8400  174.0420  135.5740 C   0  0  1  0  0  3  0  0  0  0  0  0
  189.7820  173.8240  136.7480 C   0  0  1  0  0  3  0  0  0  0  0  0
  187.9260  172.8430  135.4400 C   0  0  0  0  0  1  0  0  0  0  0  0
  191.9320  174.7980  137.6470 C   0  0  0  0  0  3  0  0  0  0  0  0
  193.4480  175.9650  136.1710 C   0  0  0  0  0  3  0  0  0  0  0  0
  193.1190  175.5040  137.4460 C   0  0  0  0  0  0  0  0  0  0  0  0
  192.5760  175.7120  135.1100 C   0  0  0  0  0  3  0  0  0  0  0  0
  191.4250  175.0180  135.3230 N   0  0  0  0  0  0  0  0  0  0  0  0
  193.9460  175.7490  138.4900 F   0  0  0  0  0  0  0  0  0  0  0  0
  191.0910  174.5420  136.5560 C   0  0  0  0  0  0  0  0  0  0  0  0
  1 17  1  0  0  0  0
  2 14  2  0  0  0  0
  3  9  2  0  0  0  0
  3  8  1  0  0  0  0
  4 12  2  0  0  0  0
  4  7  1  0  0  0  0
  5 10  1  1  0  0  0
  5 14  1  0  0  0  0
  6  9  1  0  0  0  0
  6 11  2  0  0  0  0
  7  2  1  0  0  0  0
  8 12  1  0  0  0  0
  9  4  1  0  0  0  0
 11 13  1  0  0  0  0
 12  5  1  0  0  0  0
 13  7  2  0  0  0  0
 14  1  1  0  0  0  0
 15 16  1  0  0  0  0
 15 17  1  0  0  0  0
 16 18  1  0  0  0  0
 17 20  2  0  0  0  0
 18 19  2  0  0  0  0
 20 19  1  0  0  0  0
 21  8  1  0  0  0  0
 21 22  1  0  0  0  0
 23  3  1  0  0  0  0
 25 24  1  6  0  0  0
 25 32  1  0  0  0  0
 25 26  1  0  0  0  0
 25 23  1  0  0  0  0
 27 29  1  0  0  0  0
 27 26  1  0  0  0  0
 29 28  1  0  0  0  0
 29 30  1  0  0  0  0
 31 29  2  0  0  0  0
 33 32  1  6  0  0  0
 34 36  1  1  0  0  0
 34 35  1  0  0  0  0
 34 33  1  0  0  0  0
 35 43  1  6  0  0  0
 35 33  1  0  0  0  0
 38 39  2  0  0  0  0
 39 37  1  0  0  0  0
 39 42  1  0  0  0  0
 40 41  2  0  0  0  0
 40 38  1  0  0  0  0
 41 43  1  0  0  0  0
 43 37  2  0  0  0  0
M  END
>  <MODEL>
5

>  <REMARK>
 VINA RESULT:      -7.3      4.795      8.998
  Name = 
  10 active torsions:
  status: ('A' for Active; 'I' for Inactive)
    1  A    between atoms: C_1  and  C_21
    2  A    between atoms: N_3  and  C_17
    3  A    between atoms: C_6  and  C_38
    4  A    between atoms: C_9  and  O_20
    5  A    between atoms: C_9  and  C_35
    6  A    between atoms: P_15  and  O_20
    7  A    between atoms: N_16  and  C_26
    8  A    between atoms: C_21  and  C_35
    9  A    between atoms: C_29  and  C_41
   10  A    between atoms: C_35  and  C_38
                            x       y       z     vdW  Elec       q    Type
                         _______ _______ _______ _____ _____    ______ ____

>  <TORSDO>
F 10

$$$$
=
 OpenBabel11032421203D

 43 48  0  0  1  0  0  0  0  0999 V2000
  190.3300  177.4650  141.4000 N   0  0  0  0  0  2  0  0  0  0  0  0
  188.2070  177.8670  142.3360 N   0  0  0  0  0  0  0  0  0  0  0  0
  184.7600  178.6600  139.4910 C   0  0  0  0  0  0  0  0  0  0  0  0
  186.2080  178.2770  141.0750 C   0  0  0  0  0  0  0  0  0  0  0  0
  188.3470  178.0220  139.8430 C   0  0  2  0  0  3  0  0  0  0  0  0
  184.0460  178.7540  141.9590 C   0  0  0  0  0  3  0  0  0  0  0  0
  186.8000  178.1520  142.2980 C   0  0  0  0  0  0  0  0  0  0  0  0
  185.9710  178.4400  138.8980 N   0  0  0  0  0  0  0  0  0  0  0  0
  184.9020  178.5640  140.8720 C   0  0  0  0  0  0  0  0  0  0  0  0
  188.9240  179.1560  139.3010 F   0  0  0  0  0  0  0  0  0  0  0  0
  184.6040  178.6150  143.2560 C   0  0  0  0  0  3  0  0  0  0  0  0
  186.8550  178.2050  139.8980 C   0  0  0  0  0  0  0  0  0  0  0  0
  185.9830  178.3130  143.4310 C   0  0  0  0  0  3  0  0  0  0  0  0
  188.9380  177.7700  141.2460 C   0  0  0  0  0  0  0  0  0  0  0  0
  192.5850  177.5450  140.3940 O   0  0  0  0  0  0  0  0  0  0  0  0
  193.4630  177.2170  139.3750 N   0  0  0  0  0  2  0  0  0  0  0  0
  191.2460  177.1310  140.3520 C   0  0  0  0  0  0  0  0  0  0  0  0
  193.0050  176.4510  138.2550 C   0  0  0  0  0  3  0  0  0  0  0  0
  191.7310  176.0640  138.2130 C   0  0  0  0  0  3  0  0  0  0  0  0
  190.8110  176.4200  139.3070 C   0  0  0  0  0  3  0  0  0  0  0  0
  186.2760  178.5510  137.4760 C   0  0  0  0  0  2  0  0  0  0  0  0
  186.6210  177.1890  136.9040 C   0  0  0  0  0  1  0  0  0  0  0  0
  183.4940  178.9970  138.7520 C   0  0  0  0  0  2  0  0  0  0  0  0
  183.3660  176.5330  138.2450 C   0  0  0  0  0  1  0  0  0  0  0  0
  182.5610  177.7950  138.5120 C   0  0  2  0  0  0  0  0  0  0  0  0
  181.6840  178.0700  137.2910 C   0  0  0  0  0  2  0  0  0  0  0  0
  181.9030  179.3540  136.7850 O   0  0  0  0  0  0  0  0  0  0  0  0
  179.3250  179.1450  137.1700 O   0  0  0  0  0  1  0  0  0  0  0  0
  180.4250  180.1620  136.9730 P   0  0  0  0  0  0  0  0  0  0  0  0
  180.4950  181.1740  138.3280 O   0  0  0  0  0  1  0  0  0  0  0  0
  180.0880  181.0860  135.5950 O   0  0  0  0  0  0  0  0  0  0  0  0
  181.6670  177.5310  139.7260 C   0  0  0  0  0  2  0  0  0  0  0  0
  180.3820  176.7750  139.3680 C   0  0  1  0  0  3  0  0  0  0  0  0
  179.9740  175.9230  140.5510 C   0  0  1  0  0  3  0  0  0  0  0  0
  179.1420  177.1450  140.1970 C   0  0  1  0  0  3  0  0  0  0  0  0
  179.2750  174.6800  140.0440 C   0  0  0  0  0  1  0  0  0  0  0  0
  179.8200  178.0010  142.4740 C   0  0  0  0  0  3  0  0  0  0  0  0
  179.5910  180.3470  143.0080 C   0  0  0  0  0  3  0  0  0  0  0  0
  179.9520  179.0520  143.3830 C   0  0  0  0  0  0  0  0  0  0  0  0
  179.0960  180.5700  141.7220 C   0  0  0  0  0  3  0  0  0  0  0  0
  178.9770  179.5330  140.8470 N   0  0  0  0  0  0  0  0  0  0  0  0
  180.4240  178.8140  144.6300 F   0  0  0  0  0  0  0  0  0  0  0  0
  179.3410  178.2640  141.1840 C   0  0  0  0  0  0  0  0  0  0  0  0
  3  9  2  0  0  0  0
  4  7  1  0  0  0  0
  5 10  1  1  0  0  0
  5 12  1  0  0  0  0
  5 14  1  0  0  0  0
  6 11  2  0  0  0  0
  7  2  1  0  0  0  0
  7 13  2  0  0  0  0
  8  3  1  0  0  0  0
  8 12  1  0  0  0  0
  9  4  1  0  0  0  0
  9  6  1  0  0  0  0
 11 13  1  0  0  0  0
 12  4  2  0  0  0  0
 14  1  1  0  0  0  0
 14  2  2  0  0  0  0
 16 15  1  0  0  0  0
 17 15  1  0  0  0  0
 17  1  1  0  0  0  0
 18 16  1  0  0  0  0
 19 18  2  0  0  0  0
 19 20  1  0  0  0  0
 20 17  2  0  0  0  0
 21  8  1  0  0  0  0
 22 21  1  0  0  0  0
 23  3  1  0  0  0  0
 25 24  1  6  0  0  0
 25 23  1  0  0  0  0
 25 32  1  0  0  0  0
 26 25  1  0  0  0  0
 27 29  1  0  0  0  0
 27 26  1  0  0  0  0
 29 28  1  0  0  0  0
 29 30  1  0  0  0  0
 31 29  2  0  0  0  0
 33 32  1  1  0  0  0
 33 35  1  0  0  0  0
 33 34  1  0  0  0  0
 34 36  1  6  0  0  0
 35 34  1  0  0  0  0
 35 43  1  1  0  0  0
 37 39  1  0  0  0  0
 38 39  2  0  0  0  0
 39 42  1  0  0  0  0
 40 38  1  0  0  0  0
 41 43  1  0  0  0  0
 41 40  2  0  0  0  0
 43 37  2  0  0  0  0
M  END
>  <MODEL>
6

>  <REMARK>
 VINA RESULT:      -7.3      3.646      9.180
  Name = 
  10 active torsions:
  status: ('A' for Active; 'I' for Inactive)
    1  A    between atoms: C_1  and  C_21
    2  A    between atoms: N_3  and  C_17
    3  A    between atoms: C_6  and  C_38
    4  A    between atoms: C_9  and  O_20
    5  A    between atoms: C_9  and  C_35
    6  A    between atoms: P_15  and  O_20
    7  A    between atoms: N_16  and  C_26
    8  A    between atoms: C_21  and  C_35
    9  A    between atoms: C_29  and  C_41
   10  A    between atoms: C_35  and  C_38
                            x       y       z     vdW  Elec       q    Type
                         _______ _______ _______ _____ _____    ______ ____

>  <TORSDO>
F 10

$$$$
=
 OpenBabel11032421203D

 43 48  0  0  1  0  0  0  0  0999 V2000
  190.1920  173.6520  136.7330 N   0  0  0  0  0  2  0  0  0  0  0  0
  187.8940  173.1480  136.8410 N   0  0  0  0  0  0  0  0  0  0  0  0
  184.9970  176.6010  137.3790 C   0  0  0  0  0  0  0  0  0  0  0  0
  186.1450  174.7710  137.0830 C   0  0  0  0  0  0  0  0  0  0  0  0
  188.4980  175.5570  137.1390 C   0  0  2  0  0  3  0  0  0  0  0  0
  183.8100  174.3240  137.2640 C   0  0  0  0  0  3  0  0  0  0  0  0
  186.4970  173.4590  136.9640 C   0  0  0  0  0  0  0  0  0  0  0  0
  186.3180  176.9460  137.3300 N   0  0  0  0  0  0  0  0  0  0  0  0
  184.8780  175.2230  137.2290 C   0  0  0  0  0  0  0  0  0  0  0  0
  189.0250  175.9420  138.3580 F   0  0  0  0  0  0  0  0  0  0  0  0
  184.1170  172.9450  137.1230 C   0  0  0  0  0  3  0  0  0  0  0  0
  187.0120  175.7960  137.1470 C   0  0  0  0  0  0  0  0  0  0  0  0
  185.4620  172.5070  136.9720 C   0  0  0  0  0  3  0  0  0  0  0  0
  188.8300  174.0720  136.8840 C   0  0  0  0  0  0  0  0  0  0  0  0
  192.0130  175.0390  137.6630 O   0  0  0  0  0  0  0  0  0  0  0  0
  193.1110  175.8630  137.4850 N   0  0  0  0  0  2  0  0  0  0  0  0
  191.3280  174.5050  136.5610 C   0  0  0  0  0  0  0  0  0  0  0  0
  193.5570  176.1860  136.1640 C   0  0  0  0  0  3  0  0  0  0  0  0
  192.9020  175.6840  135.1180 C   0  0  0  0  0  3  0  0  0  0  0  0
  191.7370  174.8070  135.3250 C   0  0  0  0  0  3  0  0  0  0  0  0
  186.8780  178.2750  137.5480 C   0  0  0  0  0  2  0  0  0  0  0  0
  187.4350  178.8310  136.2510 C   0  0  0  0  0  1  0  0  0  0  0  0
  183.8680  177.5680  137.6060 C   0  0  0  0  0  2  0  0  0  0  0  0
  182.7800  176.3090  139.4990 C   0  0  0  0  0  1  0  0  0  0  0  0
  183.3790  177.6390  139.0660 C   0  0  2  0  0  0  0  0  0  0  0  0
  182.2980  178.7120  139.1860 C   0  0  0  0  0  2  0  0  0  0  0  0
  182.0540  179.3300  137.9570 O   0  0  0  0  0  0  0  0  0  0  0  0
  182.7650  181.7290  138.7180 O   0  0  0  0  0  1  0  0  0  0  0  0
  181.5560  180.9040  138.3440 P   0  0  0  0  0  0  0  0  0  0  0  0
  180.7970  181.6070  137.0050 O   0  0  0  0  0  0  0  0  0  0  0  0
  180.4800  180.8680  139.6500 O   0  0  0  0  0  1  0  0  0  0  0  0
  184.5260  177.9690  140.0230 C   0  0  0  0  0  2  0  0  0  0  0  0
  184.1370  179.0030  141.0860 C   0  0  1  0  0  3  0  0  0  0  0  0
  184.0440  178.3090  142.4290 C   0  0  1  0  0  3  0  0  0  0  0  0
  185.1940  179.2710  142.1700 C   0  0  1  0  0  3  0  0  0  0  0  0
  182.9940  179.0030  143.2690 C   0  0  0  0  0  1  0  0  0  0  0  0
  186.9040  177.5590  142.8930 C   0  0  0  0  0  3  0  0  0  0  0  0
  188.9680  177.3090  141.6620 C   0  0  0  0  0  3  0  0  0  0  0  0
  188.1400  176.9340  142.7210 C   0  0  0  0  0  0  0  0  0  0  0  0
  188.5440  178.3110  140.7880 C   0  0  0  0  0  3  0  0  0  0  0  0
  187.3330  178.9070  140.9690 N   0  0  0  0  0  0  0  0  0  0  0  0
  188.5390  175.9710  143.5850 F   0  0  0  0  0  0  0  0  0  0  0  0
  186.5000  178.5460  141.9840 C   0  0  0  0  0  0  0  0  0  0  0  0
  1 14  1  0  0  0  0
  2 14  2  0  0  0  0
  2  7  1  0  0  0  0
  3 23  1  0  0  0  0
  4 12  2  0  0  0  0
  4  9  1  0  0  0  0
  5 12  1  0  0  0  0
  5 10  1  1  0  0  0
  7 13  2  0  0  0  0
  7  4  1  0  0  0  0
  8  3  1  0  0  0  0
  8 21  1  0  0  0  0
  9  6  1  0  0  0  0
  9  3  2  0  0  0  0
 11  6  2  0  0  0  0
 12  8  1  0  0  0  0
 13 11  1  0  0  0  0
 14  5  1  0  0  0  0
 16 15  1  0  0  0  0
 17  1  1  0  0  0  0
 17 15  1  0  0  0  0
 18 16  1  0  0  0  0
 19 20  1  0  0  0  0
 19 18  2  0  0  0  0
 20 17  2  0  0  0  0
 22 21  1  0  0  0  0
 23 25  1  0  0  0  0
 25 26  1  0  0  0  0
 25 24  1  1  0  0  0
 25 32  1  0  0  0  0
 27 29  1  0  0  0  0
 27 26  1  0  0  0  0
 29 28  1  0  0  0  0
 29 31  1  0  0  0  0
 30 29  2  0  0  0  0
 33 32  1  6  0  0  0
 33 35  1  0  0  0  0
 33 34  1  0  0  0  0
 34 36  1  1  0  0  0
 35 43  1  6  0  0  0
 35 34  1  0  0  0  0
 38 39  2  0  0  0  0
 39 37  1  0  0  0  0
 39 42  1  0  0  0  0
 40 41  2  0  0  0  0
 40 38  1  0  0  0  0
 41 43  1  0  0  0  0
 43 37  2  0  0  0  0
M  END
>  <MODEL>
7

>  <REMARK>
 VINA RESULT:      -7.3      4.522      8.489
  Name = 
  10 active torsions:
  status: ('A' for Active; 'I' for Inactive)
    1  A    between atoms: C_1  and  C_21
    2  A    between atoms: N_3  and  C_17
    3  A    between atoms: C_6  and  C_38
    4  A    between atoms: C_9  and  O_20
    5  A    between atoms: C_9  and  C_35
    6  A    between atoms: P_15  and  O_20
    7  A    between atoms: N_16  and  C_26
    8  A    between atoms: C_21  and  C_35
    9  A    between atoms: C_29  and  C_41
   10  A    between atoms: C_35  and  C_38
                            x       y       z     vdW  Elec       q    Type
                         _______ _______ _______ _____ _____    ______ ____

>  <TORSDO>
F 10

$$$$
=
 OpenBabel11032421203D

 43 48  0  0  1  0  0  0  0  0999 V2000
  190.3490  176.9210  141.2390 N   0  0  0  0  0  2  0  0  0  0  0  0
  188.4330  177.5140  142.4740 N   0  0  0  0  0  0  0  0  0  0  0  0
  184.8140  179.0020  140.1720 C   0  0  0  0  0  0  0  0  0  0  0  0
  186.3740  178.2930  141.5200 C   0  0  0  0  0  0  0  0  0  0  0  0
  188.2910  177.8700  140.0020 C   0  0  2  0  0  3  0  0  0  0  0  0
  184.4240  178.9700  142.7130 C   0  0  0  0  0  3  0  0  0  0  0  0
  187.0860  177.9840  142.6420 C   0  0  0  0  0  0  0  0  0  0  0  0
  185.9010  178.6790  139.4110 N   0  0  0  0  0  0  0  0  0  0  0  0
  185.1070  178.7670  141.5120 C   0  0  0  0  0  0  0  0  0  0  0  0
  188.9520  178.9620  139.4710 F   0  0  0  0  0  0  0  0  0  0  0  0
  185.1090  178.6440  143.9130 C   0  0  0  0  0  3  0  0  0  0  0  0
  186.8570  178.2420  140.2660 C   0  0  0  0  0  0  0  0  0  0  0  0
  186.4430  178.1490  143.8820 C   0  0  0  0  0  3  0  0  0  0  0  0
  189.0050  177.4180  141.2930 C   0  0  0  0  0  0  0  0  0  0  0  0
  190.5680  175.6280  139.1450 O   0  0  0  0  0  0  0  0  0  0  0  0
  191.2770  175.2900  138.0060 N   0  0  0  0  0  2  0  0  0  0  0  0
  191.0740  176.5650  140.0580 C   0  0  0  0  0  0  0  0  0  0  0  0
  192.5500  175.8950  137.7510 C   0  0  0  0  0  3  0  0  0  0  0  0
  193.0330  176.7790  138.6220 C   0  0  0  0  0  3  0  0  0  0  0  0
  192.2640  177.1290  139.8290 C   0  0  0  0  0  3  0  0  0  0  0  0
  186.0440  178.8750  137.9730 C   0  0  0  0  0  2  0  0  0  0  0  0
  185.9770  177.5420  137.2510 C   0  0  0  0  0  1  0  0  0  0  0  0
  183.5290  179.5670  139.6340 C   0  0  0  0  0  2  0  0  0  0  0  0
  181.2950  179.0480  138.5900 C   0  0  0  0  0  1  0  0  0  0  0  0
  182.3820  178.5440  139.5270 C   0  0  2  0  0  0  0  0  0  0  0  0
  181.7620  178.3320  140.9080 C   0  0  0  0  0  2  0  0  0  0  0  0
  181.0520  179.4610  141.3260 O   0  0  0  0  0  0  0  0  0  0  0  0
  179.3920  177.6530  142.2270 O   0  0  0  0  0  0  0  0  0  0  0  0
  180.0970  178.9290  142.6220 P   0  0  0  0  0  0  0  0  0  0  0  0
  181.0780  178.6280  143.9670 O   0  0  0  0  0  1  0  0  0  0  0  0
  178.9430  180.1040  143.0150 O   0  0  0  0  0  1  0  0  0  0  0  0
  182.8800  177.2020  138.9870 C   0  0  0  0  0  2  0  0  0  0  0  0
  182.1420  176.0030  139.5940 C   0  0  1  0  0  3  0  0  0  0  0  0
  180.9120  175.7150  138.7580 C   0  0  1  0  0  3  0  0  0  0  0  0
  182.0830  174.7440  138.7130 C   0  0  1  0  0  3  0  0  0  0  0  0
  179.8310  175.1500  139.6530 C   0  0  0  0  0  1  0  0  0  0  0  0
  184.1280  174.3040  137.2990 C   0  0  0  0  0  3  0  0  0  0  0  0
  184.2340  175.1230  135.0280 C   0  0  0  0  0  3  0  0  0  0  0  0
  184.8210  174.4420  136.0950 C   0  0  0  0  0  0  0  0  0  0  0  0
  182.9550  175.6600  135.1840 C   0  0  0  0  0  3  0  0  0  0  0  0
  182.2920  175.5120  136.3640 N   0  0  0  0  0  0  0  0  0  0  0  0
  186.0650  173.9230  135.9670 F   0  0  0  0  0  0  0  0  0  0  0  0
  182.8370  174.8360  137.4140 C   0  0  0  0  0  0  0  0  0  0  0  0
  1 14  1  0  0  0  0
  2  7  1  0  0  0  0
  3  9  2  0  0  0  0
  4  7  1  0  0  0  0
  5 10  1  1  0  0  0
  5 12  1  0  0  0  0
  5 14  1  0  0  0  0
  6 11  2  0  0  0  0
  7 13  2  0  0  0  0
  8  3  1  0  0  0  0
  8 12  1  0  0  0  0
  9  4  1  0  0  0  0
  9  6  1  0  0  0  0
 12  4  2  0  0  0  0
 13 11  1  0  0  0  0
 14  2  2  0  0  0  0
 15 17  1  0  0  0  0
 16 15  1  0  0  0  0
 17  1  1  0  0  0  0
 18 16  1  0  0  0  0
 18 19  2  0  0  0  0
 19 20  1  0  0  0  0
 20 17  2  0  0  0  0
 21  8  1  0  0  0  0
 22 21  1  0  0  0  0
 23  3  1  0  0  0  0
 25 24  1  6  0  0  0
 25 23  1  0  0  0  0
 25 26  1  0  0  0  0
 26 27  1  0  0  0  0
 27 29  1  0  0  0  0
 28 29  2  0  0  0  0
 29 31  1  0  0  0  0
 29 30  1  0  0  0  0
 32 25  1  0  0  0  0
 33 32  1  6  0  0  0
 34 33  1  0  0  0  0
 34 36  1  1  0  0  0
 35 43  1  6  0  0  0
 35 34  1  0  0  0  0
 35 33  1  0  0  0  0
 37 43  1  0  0  0  0
 38 40  2  0  0  0  0
 38 39  1  0  0  0  0
 39 37  2  0  0  0  0
 40 41  1  0  0  0  0
 41 43  2  0  0  0  0
 42 39  1  0  0  0  0
M  END
>  <MODEL>
8

>  <REMARK>
 VINA RESULT:      -7.1      4.081      8.908
  Name = 
  10 active torsions:
  status: ('A' for Active; 'I' for Inactive)
    1  A    between atoms: C_1  and  C_21
    2  A    between atoms: N_3  and  C_17
    3  A    between atoms: C_6  and  C_38
    4  A    between atoms: C_9  and  O_20
    5  A    between atoms: C_9  and  C_35
    6  A    between atoms: P_15  and  O_20
    7  A    between atoms: N_16  and  C_26
    8  A    between atoms: C_21  and  C_35
    9  A    between atoms: C_29  and  C_41
   10  A    between atoms: C_35  and  C_38
                            x       y       z     vdW  Elec       q    Type
                         _______ _______ _______ _____ _____    ______ ____

>  <TORSDO>
F 10

$$$$
=
 OpenBabel11032421203D

 43 48  0  0  1  0  0  0  0  0999 V2000
  189.4410  177.2470  144.3580 N   0  0  0  0  0  2  0  0  0  0  0  0
  189.3930  177.5640  142.0240 N   0  0  0  0  0  0  0  0  0  0  0  0
  185.4840  178.9230  140.1580 C   0  0  0  0  0  0  0  0  0  0  0  0
  187.4810  178.3100  140.7820 C   0  0  0  0  0  0  0  0  0  0  0  0
  187.2240  177.9210  143.2190 C   0  0  2  0  0  3  0  0  0  0  0  0
  187.3470  178.5890  138.4180 C   0  0  0  0  0  3  0  0  0  0  0  0
  188.7840  177.9040  140.7690 C   0  0  0  0  0  0  0  0  0  0  0  0
  185.4570  178.7460  141.5130 N   0  0  0  0  0  0  0  0  0  0  0  0
  186.7620  178.6420  139.6850 C   0  0  0  0  0  0  0  0  0  0  0  0
  186.5230  176.8010  143.6280 F   0  0  0  0  0  0  0  0  0  0  0  0
  188.7080  178.1930  138.3470 C   0  0  0  0  0  3  0  0  0  0  0  0
  186.7050  178.3650  141.8790 C   0  0  0  0  0  0  0  0  0  0  0  0
  189.4320  177.8490  139.5220 C   0  0  0  0  0  3  0  0  0  0  0  0
  188.7300  177.5880  143.1610 C   0  0  0  0  0  0  0  0  0  0  0  0
  187.6660  177.8530  145.9650 O   0  0  0  0  0  0  0  0  0  0  0  0
  187.2140  177.9910  147.2660 N   0  0  0  0  0  2  0  0  0  0  0  0
  188.9640  177.3940  145.6990 C   0  0  0  0  0  0  0  0  0  0  0  0
  188.0780  177.6700  148.3620 C   0  0  0  0  0  3  0  0  0  0  0  0
  189.3140  177.2420  148.1080 C   0  0  0  0  0  3  0  0  0  0  0  0
  189.7780  177.0980  146.7170 C   0  0  0  0  0  3  0  0  0  0  0  0
  184.2870  178.8360  142.3780 C   0  0  0  0  0  2  0  0  0  0  0  0
  184.5830  179.7210  143.5740 C   0  0  0  0  0  1  0  0  0  0  0  0
  184.2970  179.3130  139.3220 C   0  0  0  0  0  2  0  0  0  0  0  0
  182.4670  178.6070  137.7400 C   0  0  0  0  0  1  0  0  0  0  0  0
  183.5350  178.1220  138.7090 C   0  0  2  0  0  0  0  0  0  0  0  0
  182.8480  177.3320  139.8220 C   0  0  0  0  0  2  0  0  0  0  0  0
  181.6070  177.8870  140.1490 O   0  0  0  0  0  0  0  0  0  0  0  0
  181.2410  175.3310  139.7390 O   0  0  0  0  0  1  0  0  0  0  0  0
  180.4930  176.6260  139.9520 P   0  0  0  0  0  0  0  0  0  0  0  0
  179.5330  176.4900  141.3390 O   0  0  0  0  0  1  0  0  0  0  0  0
  179.5060  176.9260  138.6100 O   0  0  0  0  0  0  0  0  0  0  0  0
  184.4770  177.1940  137.9390 C   0  0  0  0  0  2  0  0  0  0  0  0
  184.5320  177.5080  136.4400 C   0  0  1  0  0  3  0  0  0  0  0  0
  185.8520  177.0140  135.8870 C   0  0  1  0  0  3  0  0  0  0  0  0
  184.5710  176.2880  135.5060 C   0  0  1  0  0  3  0  0  0  0  0  0
  186.2740  177.9130  134.7440 C   0  0  0  0  0  1  0  0  0  0  0  0
  185.5920  174.3310  136.7320 C   0  0  0  0  0  3  0  0  0  0  0  0
  184.2230  172.4390  137.3540 C   0  0  0  0  0  3  0  0  0  0  0  0
  185.4660  173.0730  137.3230 C   0  0  0  0  0  0  0  0  0  0  0  0
  183.1190  173.0780  136.7870 C   0  0  0  0  0  3  0  0  0  0  0  0
  183.2600  174.3070  136.2180 N   0  0  0  0  0  0  0  0  0  0  0  0
  186.5510  172.4640  137.8590 F   0  0  0  0  0  0  0  0  0  0  0  0
  184.4590  174.9530  136.1920 C   0  0  0  0  0  0  0  0  0  0  0  0
  1 17  1  0  0  0  0
  2 14  2  0  0  0  0
  3  8  1  0  0  0  0
  4 12  2  0  0  0  0
  5 10  1  6  0  0  0
  6  9  1  0  0  0  0
  7  4  1  0  0  0  0
  7  2  1  0  0  0  0
  8 12  1  0  0  0  0
  8 21  1  0  0  0  0
  9  3  2  0  0  0  0
  9  4  1  0  0  0  0
 11  6  2  0  0  0  0
 11 13  1  0  0  0  0
 12  5  1  0  0  0  0
 13  7  2  0  0  0  0
 14  5  1  0  0  0  0
 14  1  1  0  0  0  0
 15 16  1  0  0  0  0
 16 18  1  0  0  0  0
 17 15  1  0  0  0  0
 17 20  2  0  0  0  0
 19 18  2  0  0  0  0
 20 19  1  0  0  0  0
 21 22  1  0  0  0  0
 23  3  1  0  0  0  0
 25 24  1  6  0  0  0
 25 23  1  0  0  0  0
 25 26  1  0  0  0  0
 26 27  1  0  0  0  0
 28 29  1  0  0  0  0
 29 27  1  0  0  0  0
 29 30  1  0  0  0  0
 31 29  2  0  0  0  0
 32 25  1  0  0  0  0
 33 32  1  1  0  0  0
 34 36  1  6  0  0  0
 34 33  1  0  0  0  0
 35 34  1  0  0  0  0
 35 43  1  1  0  0  0
 35 33  1  0  0  0  0
 37 39  1  0  0  0  0
 39 38  2  0  0  0  0
 39 42  1  0  0  0  0
 40 38  1  0  0  0  0
 41 40  2  0  0  0  0
 43 41  1  0  0  0  0
 43 37  2  0  0  0  0
M  END
>  <MODEL>
9

>  <REMARK>
 VINA RESULT:      -7.1      4.409      9.477
  Name = 
  10 active torsions:
  status: ('A' for Active; 'I' for Inactive)
    1  A    between atoms: C_1  and  C_21
    2  A    between atoms: N_3  and  C_17
    3  A    between atoms: C_6  and  C_38
    4  A    between atoms: C_9  and  O_20
    5  A    between atoms: C_9  and  C_35
    6  A    between atoms: P_15  and  O_20
    7  A    between atoms: N_16  and  C_26
    8  A    between atoms: C_21  and  C_35
    9  A    between atoms: C_29  and  C_41
   10  A    between atoms: C_35  and  C_38
                            x       y       z     vdW  Elec       q    Type
                         _______ _______ _______ _____ _____    ______ ____

>  <TORSDO>
F 10

$$$$
