=
 OpenBabel11042410123D

 32 37  0  0  1  0  0  0  0  0999 V2000
  191.9430  175.3230  136.7910 C   0  0  0  0  0  3  0  0  0  0  0  0
  189.2140  177.4130  141.7110 N   0  0  0  0  0  0  0  0  0  0  0  0
  188.3470  175.4210  137.0470 C   0  0  0  0  0  0  0  0  0  0  0  0
  191.1770  176.2820  138.8120 N   0  0  0  0  0  2  0  0  0  0  0  0
  190.1850  176.9570  139.5750 C   0  0  0  0  0  0  0  0  0  0  0  0
  189.1150  177.6040  138.9380 C   0  0  0  0  0  0  0  0  0  0  0  0
  189.1110  176.5780  136.4160 C   0  0  2  0  0  3  0  0  0  0  0  0
  187.9700  178.6360  136.8680 C   0  0  0  0  0  2  0  0  0  0  0  0
  191.2820  176.3990  137.5230 C   0  0  2  0  0  3  0  0  0  0  0  0
  190.3940  177.3190  136.7300 C   0  0  2  0  0  3  0  0  0  0  0  0
  189.1020  177.7920  137.4160 C   0  0  1  0  0  0  0  0  0  0  0  0
  191.4080  174.0970  136.8080 C   0  0  0  0  0  0  0  0  0  0  0  0
  188.1100  178.1740  139.7390 C   0  0  0  0  0  3  0  0  0  0  0  0
  190.2040  173.8510  137.5500 N   0  0  0  0  0  2  0  0  0  0  0  0
  186.9970  175.5460  137.2060 C   0  0  0  0  0  3  0  0  0  0  0  0
  186.2010  176.8120  137.0240 C   0  0  0  0  0  0  0  0  0  0  0  0
  186.8760  177.9200  136.8980 C   0  0  0  0  0  3  0  0  0  0  0  0
  188.8760  174.0130  136.9680 C   0  0  0  0  0  2  0  0  0  0  0  0
  190.2080  176.8570  140.9690 C   0  0  0  0  0  3  0  0  0  0  0  0
  188.1750  178.0650  141.1280 C   0  0  0  0  0  3  0  0  0  0  0  0
  192.4820  171.2850  134.6350 N   0  0  0  0  0  0  0  0  0  0  0  0
  191.4290  172.2300  134.9680 C   0  0  0  0  0  3  0  0  0  0  0  0
  193.4800  171.5050  135.4260 C   0  0  0  0  0  2  0  0  0  0  0  0
  192.0540  172.9910  136.0830 C   0  0  0  0  0  0  0  0  0  0  0  0
  193.2430  172.5650  136.3430 N   0  0  0  0  0  0  0  0  0  0  0  0
  184.7270  176.8350  137.2200 C   0  0  0  0  0  2  0  0  0  0  0  0
  184.3160  178.1080  137.9410 C   0  0  0  0  0  2  0  0  0  0  0  0
  183.9020  177.8030  139.3030 N   0  0  0  0  0  0  0  0  0  0  0  0
  184.3010  178.6390  140.4030 C   0  0  0  0  0  0  0  0  0  0  0  0
  182.9850  176.6930  139.5050 C   0  0  0  0  0  1  0  0  0  0  0  0
  183.8750  178.3280  141.7980 C   0  0  0  0  0  1  0  0  0  0  0  0
  185.0220  179.6510  140.2020 O   0  0  0  0  0  0  0  0  0  0  0  0
  1 12  2  0  0  0  0
  3 15  2  0  0  0  0
  4  5  1  0  0  0  0
  5 19  1  0  0  0  0
  6  5  2  0  0  0  0
  6 13  1  0  0  0  0
  7 10  1  0  0  0  0
  7  3  1  1  0  0  0
  7 11  1  0  0  0  0
  8 17  1  0  0  0  0
  8 11  1  0  0  0  0
  9  1  1  6  0  0  0
  9  4  1  0  0  0  0
 10 11  1  0  0  0  0
 10  9  1  0  0  0  0
 11  6  1  0  0  0  0
 12 14  1  0  0  0  0
 13 20  2  0  0  0  0
 16 15  1  0  0  0  0
 16 26  1  0  0  0  0
 17 16  2  0  0  0  0
 18  3  1  0  0  0  0
 18 14  1  0  0  0  0
 19  2  2  0  0  0  0
 20  2  1  0  0  0  0
 21 22  2  0  0  0  0
 21 23  1  0  0  0  0
 22 24  1  0  0  0  0
 23 25  1  0  0  0  0
 24 25  2  0  0  0  0
 24 12  1  0  0  0  0
 26 27  1  0  0  0  0
 27 28  1  0  0  0  0
 28 30  1  0  0  0  0
 28 29  1  0  0  0  0
 29 31  1  0  0  0  0
 32 29  2  0  0  0  0
M  END
>  <MODEL>
1

>  <REMARK>
 VINA RESULT:      -7.1      0.000      0.000
  Name = 
  4 active torsions:
  status: ('A' for Active; 'I' for Inactive)
    1  A    between atoms: N_2  and  C_7
    2  A    between atoms: C_7  and  C_16
    3  A    between atoms: C_16  and  C_24
    4  A    between atoms: C_18  and  C_30
                            x       y       z     vdW  Elec       q    Type
                         _______ _______ _______ _____ _____    ______ ____

>  <TORSDO>
F 4

$$$$
=
 OpenBabel11042410123D

 32 37  0  0  1  0  0  0  0  0999 V2000
  179.4490  175.3660  138.0090 C   0  0  0  0  0  3  0  0  0  0  0  0
  181.0990  181.0590  137.0660 N   0  0  0  0  0  0  0  0  0  0  0  0
  182.3380  176.7800  139.6420 C   0  0  0  0  0  0  0  0  0  0  0  0
  179.7810  177.6520  137.5030 N   0  0  0  0  0  2  0  0  0  0  0  0
  180.2970  178.9380  137.8220 C   0  0  0  0  0  0  0  0  0  0  0  0
  180.7110  179.2350  139.1300 C   0  0  0  0  0  0  0  0  0  0  0  0
  180.9750  176.8000  140.3220 C   0  0  2  0  0  3  0  0  0  0  0  0
  180.7800  178.7730  141.6670 C   0  0  0  0  0  2  0  0  0  0  0  0
  179.4630  176.7720  138.4030 C   0  0  2  0  0  3  0  0  0  0  0  0
  179.5530  177.0670  139.8750 C   0  0  2  0  0  3  0  0  0  0  0  0
  180.4170  178.2710  140.2860 C   0  0  1  0  0  0  0  0  0  0  0  0
  180.5860  174.7900  137.6040 C   0  0  0  0  0  0  0  0  0  0  0  0
  181.3020  180.4860  139.3730 C   0  0  0  0  0  3  0  0  0  0  0  0
  181.7980  175.5580  137.5480 N   0  0  0  0  0  2  0  0  0  0  0  0
  183.3790  177.4100  140.2580 C   0  0  0  0  0  3  0  0  0  0  0  0
  183.2760  178.3260  141.4480 C   0  0  0  0  0  0  0  0  0  0  0  0
  182.0790  178.7060  141.7990 C   0  0  0  0  0  3  0  0  0  0  0  0
  182.7050  175.6760  138.6840 C   0  0  0  0  0  2  0  0  0  0  0  0
  180.5160  179.8610  136.7960 C   0  0  0  0  0  3  0  0  0  0  0  0
  181.4920  181.3870  138.3240 C   0  0  0  0  0  3  0  0  0  0  0  0
  180.0240  171.2040  136.8290 N   0  0  0  0  0  0  0  0  0  0  0  0
  179.4820  172.4200  137.4110 C   0  0  0  0  0  2  0  0  0  0  0  0
  181.2100  171.4650  136.3880 C   0  0  0  0  0  3  0  0  0  0  0  0
  180.6020  173.3760  137.1960 C   0  0  0  0  0  0  0  0  0  0  0  0
  181.6000  172.8150  136.6020 N   0  0  0  0  0  0  0  0  0  0  0  0
  184.4820  178.9600  142.0460 C   0  0  0  0  0  2  0  0  0  0  0  0
  184.3040  179.1080  143.5480 C   0  0  0  0  0  2  0  0  0  0  0  0
  185.4250  178.5010  144.2500 N   0  0  0  0  0  0  0  0  0  0  0  0
  185.4560  178.4410  145.6860 C   0  0  0  0  0  0  0  0  0  0  0  0
  186.4600  177.8600  143.4550 C   0  0  0  0  0  1  0  0  0  0  0  0
  186.6040  177.8160  146.4040 C   0  0  0  0  0  1  0  0  0  0  0  0
  184.5080  178.9210  146.3620 O   0  0  0  0  0  0  0  0  0  0  0  0
  2 20  1  0  0  0  0
  3 15  2  0  0  0  0
  4  5  1  0  0  0  0
  4  9  1  0  0  0  0
  5  6  2  0  0  0  0
  6 13  1  0  0  0  0
  6 11  1  0  0  0  0
  7  3  1  6  0  0  0
  8 17  1  0  0  0  0
  9  1  1  1  0  0  0
  9 10  1  0  0  0  0
 10 11  1  0  0  0  0
 10  7  1  0  0  0  0
 11  7  1  0  0  0  0
 11  8  1  0  0  0  0
 12  1  2  0  0  0  0
 14 12  1  0  0  0  0
 14 18  1  0  0  0  0
 15 16  1  0  0  0  0
 16 17  2  0  0  0  0
 16 26  1  0  0  0  0
 18  3  1  0  0  0  0
 19  2  2  0  0  0  0
 19  5  1  0  0  0  0
 20 13  2  0  0  0  0
 21 22  1  0  0  0  0
 23 25  1  0  0  0  0
 23 21  2  0  0  0  0
 24 22  1  0  0  0  0
 24 12  1  0  0  0  0
 25 24  2  0  0  0  0
 26 27  1  0  0  0  0
 27 28  1  0  0  0  0
 28 29  1  0  0  0  0
 29 32  2  0  0  0  0
 29 31  1  0  0  0  0
 30 28  1  0  0  0  0
M  END
>  <MODEL>
2

>  <REMARK>
 VINA RESULT:      -6.4      6.820      9.083
  Name = 
  4 active torsions:
  status: ('A' for Active; 'I' for Inactive)
    1  A    between atoms: N_2  and  C_7
    2  A    between atoms: C_7  and  C_16
    3  A    between atoms: C_16  and  C_24
    4  A    between atoms: C_18  and  C_30
                            x       y       z     vdW  Elec       q    Type
                         _______ _______ _______ _____ _____    ______ ____

>  <TORSDO>
F 4

$$$$
=
 OpenBabel11042410123D

 32 37  0  0  1  0  0  0  0  0999 V2000
  179.7020  175.3120  137.8170 C   0  0  0  0  0  3  0  0  0  0  0  0
  181.1160  181.1020  137.1130 N   0  0  0  0  0  0  0  0  0  0  0  0
  182.4440  176.8090  139.6190 C   0  0  0  0  0  0  0  0  0  0  0  0
  179.9460  177.6250  137.3910 N   0  0  0  0  0  2  0  0  0  0  0  0
  180.3850  178.9230  137.7700 C   0  0  0  0  0  0  0  0  0  0  0  0
  180.7250  179.1990  139.1030 C   0  0  0  0  0  0  0  0  0  0  0  0
  181.0530  176.7440  140.2360 C   0  0  2  0  0  3  0  0  0  0  0  0
  180.7030  178.6640  141.6280 C   0  0  0  0  0  2  0  0  0  0  0  0
  179.6310  176.7040  138.2510 C   0  0  2  0  0  3  0  0  0  0  0  0
  179.6410  176.9580  139.7330 C   0  0  2  0  0  3  0  0  0  0  0  0
  180.4270  178.1880  140.2170 C   0  0  1  0  0  0  0  0  0  0  0  0
  180.8830  174.8020  137.4470 C   0  0  0  0  0  0  0  0  0  0  0  0
  181.2440  180.4690  139.4090 C   0  0  0  0  0  3  0  0  0  0  0  0
  182.0570  175.6280  137.4690 N   0  0  0  0  0  2  0  0  0  0  0  0
  183.4260  177.4680  140.3000 C   0  0  0  0  0  3  0  0  0  0  0  0
  183.2250  178.3410  141.5100 C   0  0  0  0  0  0  0  0  0  0  0  0
  181.9980  178.6530  141.8160 C   0  0  0  0  0  3  0  0  0  0  0  0
  182.9060  175.7530  138.6480 C   0  0  0  0  0  2  0  0  0  0  0  0
  180.6040  179.8870  136.7820 C   0  0  0  0  0  3  0  0  0  0  0  0
  181.4370  181.4100  138.3960 C   0  0  0  0  0  3  0  0  0  0  0  0
  180.5610  171.1990  136.6150 N   0  0  0  0  0  0  0  0  0  0  0  0
  179.9650  172.3540  137.2670 C   0  0  0  0  0  2  0  0  0  0  0  0
  181.6870  171.5680  136.1000 C   0  0  0  0  0  3  0  0  0  0  0  0
  180.9850  173.4040  137.0010 C   0  0  0  0  0  0  0  0  0  0  0  0
  181.9800  172.9410  136.3230 N   0  0  0  0  0  0  0  0  0  0  0  0
  184.3720  179.0120  142.1800 C   0  0  0  0  0  2  0  0  0  0  0  0
  185.5680  179.0620  141.2440 C   0  0  0  0  0  2  0  0  0  0  0  0
  186.7060  178.3810  141.8450 N   0  0  0  0  0  0  0  0  0  0  0  0
  187.9560  178.2670  141.1450 C   0  0  0  0  0  0  0  0  0  0  0  0
  186.5750  177.9180  143.2180 C   0  0  0  0  0  1  0  0  0  0  0  0
  189.1230  177.5730  141.7630 C   0  0  0  0  0  1  0  0  0  0  0  0
  188.0830  178.7540  139.9900 O   0  0  0  0  0  0  0  0  0  0  0  0
  2 20  1  0  0  0  0
  3 15  2  0  0  0  0
  4  5  1  0  0  0  0
  4  9  1  0  0  0  0
  5  6  2  0  0  0  0
  6 13  1  0  0  0  0
  6 11  1  0  0  0  0
  7  3  1  6  0  0  0
  8 17  1  0  0  0  0
  9  1  1  1  0  0  0
  9 10  1  0  0  0  0
 10 11  1  0  0  0  0
 10  7  1  0  0  0  0
 11  7  1  0  0  0  0
 11  8  1  0  0  0  0
 12 14  1  0  0  0  0
 12  1  2  0  0  0  0
 14 18  1  0  0  0  0
 15 16  1  0  0  0  0
 16 17  2  0  0  0  0
 16 26  1  0  0  0  0
 18  3  1  0  0  0  0
 19  2  2  0  0  0  0
 19  5  1  0  0  0  0
 20 13  2  0  0  0  0
 21 22  1  0  0  0  0
 23 25  1  0  0  0  0
 23 21  2  0  0  0  0
 24 22  1  0  0  0  0
 24 12  1  0  0  0  0
 25 24  2  0  0  0  0
 27 28  1  0  0  0  0
 27 26  1  0  0  0  0
 28 30  1  0  0  0  0
 29 31  1  0  0  0  0
 29 28  1  0  0  0  0
 32 29  2  0  0  0  0
M  END
>  <MODEL>
3

>  <REMARK>
 VINA RESULT:      -6.0      5.338      8.795
  Name = 
  4 active torsions:
  status: ('A' for Active; 'I' for Inactive)
    1  A    between atoms: N_2  and  C_7
    2  A    between atoms: C_7  and  C_16
    3  A    between atoms: C_16  and  C_24
    4  A    between atoms: C_18  and  C_30
                            x       y       z     vdW  Elec       q    Type
                         _______ _______ _______ _____ _____    ______ ____

>  <TORSDO>
F 4

$$$$
=
 OpenBabel11042410123D

 32 37  0  0  1  0  0  0  0  0999 V2000
  191.8030  175.4780  136.9080 C   0  0  0  0  0  3  0  0  0  0  0  0
  188.9240  177.5110  141.7650 N   0  0  0  0  0  0  0  0  0  0  0  0
  188.2010  175.5710  137.0550 C   0  0  0  0  0  0  0  0  0  0  0  0
  190.9750  176.4150  138.9150 N   0  0  0  0  0  2  0  0  0  0  0  0
  189.9600  177.0800  139.6550 C   0  0  0  0  0  0  0  0  0  0  0  0
  188.9090  177.7330  138.9930 C   0  0  0  0  0  0  0  0  0  0  0  0
  188.9840  176.7350  136.4600 C   0  0  2  0  0  3  0  0  0  0  0  0
  187.8270  178.7870  136.9010 C   0  0  0  0  0  2  0  0  0  0  0  0
  191.1190  176.5460  137.6310 C   0  0  2  0  0  3  0  0  0  0  0  0
  190.2550  177.4730  136.8220 C   0  0  2  0  0  3  0  0  0  0  0  0
  188.9420  177.9380  137.4730 C   0  0  1  0  0  0  0  0  0  0  0  0
  191.2690  174.2520  136.8940 C   0  0  0  0  0  0  0  0  0  0  0  0
  187.8800  178.2940  139.7690 C   0  0  0  0  0  3  0  0  0  0  0  0
  190.0440  173.9970  137.5970 N   0  0  0  0  0  2  0  0  0  0  0  0
  186.8470  175.6930  137.1740 C   0  0  0  0  0  3  0  0  0  0  0  0
  186.0560  176.9600  136.9820 C   0  0  0  0  0  0  0  0  0  0  0  0
  186.7330  178.0700  136.8890 C   0  0  0  0  0  3  0  0  0  0  0  0
  188.7340  174.1640  136.9760 C   0  0  0  0  0  2  0  0  0  0  0  0
  189.9400  176.9640  141.0470 C   0  0  0  0  0  3  0  0  0  0  0  0
  187.9020  178.1680  141.1590 C   0  0  0  0  0  3  0  0  0  0  0  0
  193.4910  171.6740  135.4130 N   0  0  0  0  0  0  0  0  0  0  0  0
  193.3770  172.8010  136.3230 C   0  0  0  0  0  2  0  0  0  0  0  0
  192.3310  171.4670  134.8840 C   0  0  0  0  0  3  0  0  0  0  0  0
  191.9380  173.1540  136.1780 C   0  0  0  0  0  0  0  0  0  0  0  0
  191.3390  172.3760  135.3420 N   0  0  0  0  0  0  0  0  0  0  0  0
  184.5760  176.9800  137.1330 C   0  0  0  0  0  2  0  0  0  0  0  0
  184.1060  175.7190  137.8390 C   0  0  0  0  0  2  0  0  0  0  0  0
  182.6980  175.8340  138.1900 N   0  0  0  0  0  0  0  0  0  0  0  0
  182.2910  176.4240  139.4360 C   0  0  0  0  0  0  0  0  0  0  0  0
  181.7130  175.4350  137.1970 C   0  0  0  0  0  1  0  0  0  0  0  0
  180.8480  176.5440  139.7940 C   0  0  0  0  0  1  0  0  0  0  0  0
  183.1540  176.8490  140.2490 O   0  0  0  0  0  0  0  0  0  0  0  0
  3 15  2  0  0  0  0
  4  5  1  0  0  0  0
  5 19  1  0  0  0  0
  6  5  2  0  0  0  0
  6 13  1  0  0  0  0
  7 10  1  0  0  0  0
  7  3  1  1  0  0  0
  7 11  1  0  0  0  0
  8 11  1  0  0  0  0
  9  1  1  6  0  0  0
  9  4  1  0  0  0  0
 10 11  1  0  0  0  0
 10  9  1  0  0  0  0
 11  6  1  0  0  0  0
 12  1  2  0  0  0  0
 12 14  1  0  0  0  0
 13 20  2  0  0  0  0
 16 26  1  0  0  0  0
 16 15  1  0  0  0  0
 17  8  1  0  0  0  0
 17 16  2  0  0  0  0
 18  3  1  0  0  0  0
 18 14  1  0  0  0  0
 19  2  2  0  0  0  0
 20  2  1  0  0  0  0
 21 22  1  0  0  0  0
 23 25  1  0  0  0  0
 23 21  2  0  0  0  0
 24 22  1  0  0  0  0
 24 12  1  0  0  0  0
 25 24  2  0  0  0  0
 26 27  1  0  0  0  0
 27 28  1  0  0  0  0
 28 29  1  0  0  0  0
 29 31  1  0  0  0  0
 29 32  2  0  0  0  0
 30 28  1  0  0  0  0
M  END
>  <MODEL>
4

>  <REMARK>
 VINA RESULT:      -6.0      1.248      1.518
  Name = 
  4 active torsions:
  status: ('A' for Active; 'I' for Inactive)
    1  A    between atoms: N_2  and  C_7
    2  A    between atoms: C_7  and  C_16
    3  A    between atoms: C_16  and  C_24
    4  A    between atoms: C_18  and  C_30
                            x       y       z     vdW  Elec       q    Type
                         _______ _______ _______ _____ _____    ______ ____

>  <TORSDO>
F 4

$$$$
=
 OpenBabel11042410123D

 32 37  0  0  1  0  0  0  0  0999 V2000
  182.8840  177.6780  136.6620 C   0  0  0  0  0  3  0  0  0  0  0  0
  185.9880  172.6620  137.7650 N   0  0  0  0  0  0  0  0  0  0  0  0
  186.2410  177.7970  137.9740 C   0  0  0  0  0  0  0  0  0  0  0  0
  183.8680  175.5410  136.9010 N   0  0  0  0  0  2  0  0  0  0  0  0
  185.0070  174.6950  136.9790 C   0  0  0  0  0  0  0  0  0  0  0  0
  186.2680  175.1580  136.5700 C   0  0  0  0  0  0  0  0  0  0  0  0
  185.9920  177.8650  136.4720 C   0  0  2  0  0  3  0  0  0  0  0  0
  187.8010  176.8070  135.3100 C   0  0  0  0  0  2  0  0  0  0  0  0
  183.8680  176.6750  136.2680 C   0  0  2  0  0  3  0  0  0  0  0  0
  185.0680  177.1610  135.5020 C   0  0  2  0  0  3  0  0  0  0  0  0
  186.4140  176.4930  135.8290 C   0  0  1  0  0  0  0  0  0  0  0  0
  182.9200  178.1770  137.9030 C   0  0  0  0  0  0  0  0  0  0  0  0
  187.3780  174.3170  136.7560 C   0  0  0  0  0  3  0  0  0  0  0  0
  183.9120  177.7150  138.8310 N   0  0  0  0  0  2  0  0  0  0  0  0
  187.5320  177.7500  138.4150 C   0  0  0  0  0  3  0  0  0  0  0  0
  188.7500  177.5330  137.5570 C   0  0  0  0  0  0  0  0  0  0  0  0
  188.5450  177.1650  136.3240 C   0  0  0  0  0  3  0  0  0  0  0  0
  185.2270  178.3350  138.9490 C   0  0  0  0  0  2  0  0  0  0  0  0
  184.8910  173.4450  137.5930 C   0  0  0  0  0  3  0  0  0  0  0  0
  187.2190  173.0690  137.3620 C   0  0  0  0  0  3  0  0  0  0  0  0
  180.5500  180.4880  139.5830 N   0  0  0  0  0  0  0  0  0  0  0  0
  181.5000  179.3990  139.7370 C   0  0  0  0  0  2  0  0  0  0  0  0
  180.4950  180.7960  138.3300 C   0  0  0  0  0  3  0  0  0  0  0  0
  181.9380  179.1860  138.3310 C   0  0  0  0  0  0  0  0  0  0  0  0
  181.3510  180.0000  137.5200 N   0  0  0  0  0  0  0  0  0  0  0  0
  190.1170  177.5050  138.1440 C   0  0  0  0  0  2  0  0  0  0  0  0
  190.1730  176.5040  139.2870 C   0  0  0  0  0  2  0  0  0  0  0  0
  190.7000  177.1390  140.4860 N   0  0  0  0  0  0  0  0  0  0  0  0
  189.8830  177.3020  141.6570 C   0  0  0  0  0  0  0  0  0  0  0  0
  192.1070  177.5050  140.5010 C   0  0  0  0  0  1  0  0  0  0  0  0
  190.4240  177.9500  142.8880 C   0  0  0  0  0  1  0  0  0  0  0  0
  188.6900  176.8980  141.6610 O   0  0  0  0  0  0  0  0  0  0  0  0
  1 12  2  0  0  0  0
  3 15  2  0  0  0  0
  3 18  1  0  0  0  0
  4  5  1  0  0  0  0
  5 19  2  0  0  0  0
  6 13  2  0  0  0  0
  6  5  1  0  0  0  0
  7  3  1  1  0  0  0
  8 11  1  0  0  0  0
  8 17  1  0  0  0  0
  9  1  1  1  0  0  0
  9  4  1  0  0  0  0
 10 11  1  0  0  0  0
 10  9  1  0  0  0  0
 10  7  1  0  0  0  0
 11  7  1  0  0  0  0
 11  6  1  0  0  0  0
 12 24  1  0  0  0  0
 12 14  1  0  0  0  0
 13 20  1  0  0  0  0
 14 18  1  0  0  0  0
 16 26  1  0  0  0  0
 16 15  1  0  0  0  0
 17 16  2  0  0  0  0
 19  2  1  0  0  0  0
 20  2  2  0  0  0  0
 21 22  1  0  0  0  0
 23 21  2  0  0  0  0
 24 22  1  0  0  0  0
 25 23  1  0  0  0  0
 25 24  2  0  0  0  0
 26 27  1  0  0  0  0
 27 28  1  0  0  0  0
 28 30  1  0  0  0  0
 28 29  1  0  0  0  0
 29 32  2  0  0  0  0
 29 31  1  0  0  0  0
M  END
>  <MODEL>
5

>  <REMARK>
 VINA RESULT:      -5.8      3.122      7.962
  Name = 
  4 active torsions:
  status: ('A' for Active; 'I' for Inactive)
    1  A    between atoms: N_2  and  C_7
    2  A    between atoms: C_7  and  C_16
    3  A    between atoms: C_16  and  C_24
    4  A    between atoms: C_18  and  C_30
                            x       y       z     vdW  Elec       q    Type
                         _______ _______ _______ _____ _____    ______ ____

>  <TORSDO>
F 4

$$$$
=
 OpenBabel11042410123D

 32 37  0  0  1  0  0  0  0  0999 V2000
  184.4270  177.0830  134.6890 C   0  0  0  0  0  3  0  0  0  0  0  0
  188.2610  172.8700  136.5820 N   0  0  0  0  0  0  0  0  0  0  0  0
  186.5650  177.6320  137.5420 C   0  0  0  0  0  0  0  0  0  0  0  0
  185.8850  175.2720  135.1260 N   0  0  0  0  0  2  0  0  0  0  0  0
  187.0860  174.7420  135.6700 C   0  0  0  0  0  0  0  0  0  0  0  0
  188.1420  175.5940  136.0290 C   0  0  0  0  0  0  0  0  0  0  0  0
  187.0040  178.0650  136.1490 C   0  0  2  0  0  3  0  0  0  0  0  0
  189.3830  177.8550  135.9560 C   0  0  0  0  0  2  0  0  0  0  0  0
  185.7670  176.5040  134.7330 C   0  0  2  0  0  3  0  0  0  0  0  0
  186.9240  177.4650  134.7610 C   0  0  2  0  0  3  0  0  0  0  0  0
  188.1210  177.0790  135.6450 C   0  0  1  0  0  0  0  0  0  0  0  0
  183.7290  177.1990  135.8240 C   0  0  0  0  0  0  0  0  0  0  0  0
  189.2700  175.0300  136.6500 C   0  0  0  0  0  3  0  0  0  0  0  0
  184.2950  176.7460  137.0630 N   0  0  0  0  0  2  0  0  0  0  0  0
  187.4460  177.7760  138.5730 C   0  0  0  0  0  3  0  0  0  0  0  0
  188.9080  178.1160  138.4430 C   0  0  0  0  0  0  0  0  0  0  0  0
  189.4180  178.0770  137.2450 C   0  0  0  0  0  3  0  0  0  0  0  0
  185.1060  177.6070  137.9170 C   0  0  0  0  0  2  0  0  0  0  0  0
  187.1580  173.3790  135.9710 C   0  0  0  0  0  3  0  0  0  0  0  0
  189.3100  173.6620  136.9230 C   0  0  0  0  0  3  0  0  0  0  0  0
  180.3150  178.5250  136.4330 N   0  0  0  0  0  0  0  0  0  0  0  0
  181.5010  177.9110  137.0080 C   0  0  0  0  0  2  0  0  0  0  0  0
  180.5210  178.6840  135.1680 C   0  0  0  0  0  3  0  0  0  0  0  0
  182.3740  177.7740  135.8110 C   0  0  0  0  0  0  0  0  0  0  0  0
  181.7990  178.2250  134.7480 N   0  0  0  0  0  0  0  0  0  0  0  0
  189.7810  178.2530  139.6400 C   0  0  0  0  0  2  0  0  0  0  0  0
  189.3050  177.3230  140.7430 C   0  0  0  0  0  2  0  0  0  0  0  0
  190.3890  177.0530  141.6770 N   0  0  0  0  0  0  0  0  0  0  0  0
  190.1670  176.2750  142.8640 C   0  0  0  0  0  0  0  0  0  0  0  0
  191.7250  177.5010  141.3170 C   0  0  0  0  0  1  0  0  0  0  0  0
  191.2800  175.9960  143.8190 C   0  0  0  0  0  1  0  0  0  0  0  0
  189.0230  175.8150  143.1180 O   0  0  0  0  0  0  0  0  0  0  0  0
  1 12  2  0  0  0  0
  2 20  1  0  0  0  0
  3 18  1  0  0  0  0
  3 15  2  0  0  0  0
  4  5  1  0  0  0  0
  5 19  1  0  0  0  0
  5  6  2  0  0  0  0
  6 13  1  0  0  0  0
  7  3  1  1  0  0  0
  8 17  1  0  0  0  0
  9  1  1  1  0  0  0
  9 10  1  0  0  0  0
  9  4  1  0  0  0  0
 10 11  1  0  0  0  0
 10  7  1  0  0  0  0
 11  8  1  0  0  0  0
 11  6  1  0  0  0  0
 11  7  1  0  0  0  0
 12 14  1  0  0  0  0
 13 20  2  0  0  0  0
 14 18  1  0  0  0  0
 16 15  1  0  0  0  0
 16 26  1  0  0  0  0
 17 16  2  0  0  0  0
 19  2  2  0  0  0  0
 21 22  1  0  0  0  0
 23 21  2  0  0  0  0
 24 12  1  0  0  0  0
 24 22  1  0  0  0  0
 25 23  1  0  0  0  0
 25 24  2  0  0  0  0
 26 27  1  0  0  0  0
 27 28  1  0  0  0  0
 28 29  1  0  0  0  0
 29 32  2  0  0  0  0
 29 31  1  0  0  0  0
 30 28  1  0  0  0  0
M  END
>  <MODEL>
6

>  <REMARK>
 VINA RESULT:      -5.8      2.661      7.356
  Name = 
  4 active torsions:
  status: ('A' for Active; 'I' for Inactive)
    1  A    between atoms: N_2  and  C_7
    2  A    between atoms: C_7  and  C_16
    3  A    between atoms: C_16  and  C_24
    4  A    between atoms: C_18  and  C_30
                            x       y       z     vdW  Elec       q    Type
                         _______ _______ _______ _____ _____    ______ ____

>  <TORSDO>
F 4

$$$$
=
 OpenBabel11042410123D

 32 37  0  0  1  0  0  0  0  0999 V2000
  182.9000  176.4960  136.8810 C   0  0  0  0  0  3  0  0  0  0  0  0
  180.5300  181.8360  138.2540 N   0  0  0  0  0  0  0  0  0  0  0  0
  183.4360  178.0150  140.1070 C   0  0  0  0  0  0  0  0  0  0  0  0
  181.7620  178.5520  137.1440 N   0  0  0  0  0  2  0  0  0  0  0  0
  181.1620  179.5500  137.9600 C   0  0  0  0  0  0  0  0  0  0  0  0
  180.8500  179.2800  139.3020 C   0  0  0  0  0  0  0  0  0  0  0  0
  182.2850  177.0410  139.8900 C   0  0  2  0  0  3  0  0  0  0  0  0
  180.4320  177.6680  141.2730 C   0  0  0  0  0  2  0  0  0  0  0  0
  181.8550  177.3070  137.5000 C   0  0  2  0  0  3  0  0  0  0  0  0
  181.2730  176.7990  138.7910 C   0  0  2  0  0  3  0  0  0  0  0  0
  180.9380  177.8530  139.8590 C   0  0  1  0  0  0  0  0  0  0  0  0
  184.1820  176.8240  137.0730 C   0  0  0  0  0  0  0  0  0  0  0  0
  180.3480  180.3270  140.0920 C   0  0  0  0  0  3  0  0  0  0  0  0
  184.5160  177.9700  137.8720 N   0  0  0  0  0  2  0  0  0  0  0  0
  183.5410  178.6350  141.3180 C   0  0  0  0  0  3  0  0  0  0  0  0
  182.4990  178.6280  142.4060 C   0  0  0  0  0  0  0  0  0  0  0  0
  181.3240  178.1590  142.0940 C   0  0  0  0  0  3  0  0  0  0  0  0
  184.7110  177.8910  139.3150 C   0  0  0  0  0  2  0  0  0  0  0  0
  181.0100  180.8450  137.4580 C   0  0  0  0  0  3  0  0  0  0  0  0
  180.1980  181.6040  139.5510 C   0  0  0  0  0  3  0  0  0  0  0  0
  186.5240  174.3020  135.6840 N   0  0  0  0  0  0  0  0  0  0  0  0
  185.2640  174.5440  136.3670 C   0  0  0  0  0  2  0  0  0  0  0  0
  187.0800  175.4450  135.4550 C   0  0  0  0  0  3  0  0  0  0  0  0
  185.2570  176.0290  136.4580 C   0  0  0  0  0  0  0  0  0  0  0  0
  186.3130  176.5440  135.9270 N   0  0  0  0  0  0  0  0  0  0  0  0
  182.7200  179.3370  143.6950 C   0  0  0  0  0  2  0  0  0  0  0  0
  184.1760  179.7540  143.8190 C   0  0  0  0  0  2  0  0  0  0  0  0
  184.9070  178.7920  144.6320 N   0  0  0  0  0  0  0  0  0  0  0  0
  186.0580  178.1060  144.1110 C   0  0  0  0  0  0  0  0  0  0  0  0
  184.5050  178.6280  146.0200 C   0  0  0  0  0  1  0  0  0  0  0  0
  186.8090  177.1230  144.9450 C   0  0  0  0  0  1  0  0  0  0  0  0
  186.4500  178.3250  142.9350 O   0  0  0  0  0  0  0  0  0  0  0  0
  1 12  2  0  0  0  0
  2 20  1  0  0  0  0
  3 15  2  0  0  0  0
  4  9  1  0  0  0  0
  4  5  1  0  0  0  0
  5  6  2  0  0  0  0
  6 11  1  0  0  0  0
  6 13  1  0  0  0  0
  7  3  1  6  0  0  0
  8 17  1  0  0  0  0
  9  1  1  1  0  0  0
  9 10  1  0  0  0  0
 10 11  1  0  0  0  0
 10  7  1  0  0  0  0
 11  7  1  0  0  0  0
 11  8  1  0  0  0  0
 12 14  1  0  0  0  0
 14 18  1  0  0  0  0
 15 16  1  0  0  0  0
 16 26  1  0  0  0  0
 17 16  2  0  0  0  0
 18  3  1  0  0  0  0
 19  5  1  0  0  0  0
 19  2  2  0  0  0  0
 20 13  2  0  0  0  0
 21 22  1  0  0  0  0
 22 24  1  0  0  0  0
 23 21  2  0  0  0  0
 23 25  1  0  0  0  0
 24 12  1  0  0  0  0
 25 24  2  0  0  0  0
 26 27  1  0  0  0  0
 27 28  1  0  0  0  0
 28 30  1  0  0  0  0
 29 28  1  0  0  0  0
 29 31  1  0  0  0  0
 32 29  2  0  0  0  0
M  END
>  <MODEL>
7

>  <REMARK>
 VINA RESULT:      -5.7      4.153      7.715
  Name = 
  4 active torsions:
  status: ('A' for Active; 'I' for Inactive)
    1  A    between atoms: N_2  and  C_7
    2  A    between atoms: C_7  and  C_16
    3  A    between atoms: C_16  and  C_24
    4  A    between atoms: C_18  and  C_30
                            x       y       z     vdW  Elec       q    Type
                         _______ _______ _______ _____ _____    ______ ____

>  <TORSDO>
F 4

$$$$
=
 OpenBabel11042410123D

 32 37  0  0  1  0  0  0  0  0999 V2000
  181.5680  176.6850  138.2060 C   0  0  0  0  0  3  0  0  0  0  0  0
  186.1800  172.8850  137.6520 N   0  0  0  0  0  0  0  0  0  0  0  0
  184.9780  177.8610  138.1650 C   0  0  0  0  0  0  0  0  0  0  0  0
  183.1480  174.9550  137.8840 N   0  0  0  0  0  2  0  0  0  0  0  0
  184.4250  174.4960  137.4600 C   0  0  0  0  0  0  0  0  0  0  0  0
  185.2380  175.3000  136.6460 C   0  0  0  0  0  0  0  0  0  0  0  0
  184.1650  177.7930  136.8780 C   0  0  2  0  0  3  0  0  0  0  0  0
  185.6160  177.2840  135.0400 C   0  0  0  0  0  2  0  0  0  0  0  0
  182.5750  176.0110  137.3910 C   0  0  2  0  0  3  0  0  0  0  0  0
  183.1910  176.8050  136.2720 C   0  0  2  0  0  3  0  0  0  0  0  0
  184.6910  176.5870  136.0150 C   0  0  1  0  0  0  0  0  0  0  0  0
  181.9290  177.2200  139.3780 C   0  0  0  0  0  0  0  0  0  0  0  0
  186.5280  174.8410  136.3330 C   0  0  0  0  0  3  0  0  0  0  0  0
  183.2880  177.1150  139.8250 N   0  0  0  0  0  2  0  0  0  0  0  0
  186.2910  178.2230  138.0850 C   0  0  0  0  0  3  0  0  0  0  0  0
  187.0940  178.3500  136.8170 C   0  0  0  0  0  0  0  0  0  0  0  0
  186.5510  177.8890  135.7260 C   0  0  0  0  0  3  0  0  0  0  0  0
  184.3040  178.1070  139.4900 C   0  0  0  0  0  2  0  0  0  0  0  0
  184.9230  173.2930  137.9680 C   0  0  0  0  0  3  0  0  0  0  0  0
  186.9860  173.6290  136.8500 C   0  0  0  0  0  3  0  0  0  0  0  0
  179.6980  179.4900  141.2880 N   0  0  0  0  0  0  0  0  0  0  0  0
  180.8080  179.3780  140.3570 C   0  0  0  0  0  3  0  0  0  0  0  0
  179.3090  178.2970  141.5920 C   0  0  0  0  0  2  0  0  0  0  0  0
  180.9360  177.9020  140.2240 C   0  0  0  0  0  0  0  0  0  0  0  0
  180.0620  177.2810  140.9420 N   0  0  0  0  0  0  0  0  0  0  0  0
  188.5250  178.7580  136.8440 C   0  0  0  0  0  2  0  0  0  0  0  0
  189.2620  178.0030  137.9370 C   0  0  0  0  0  2  0  0  0  0  0  0
  190.0560  176.9280  137.3590 N   0  0  0  0  0  0  0  0  0  0  0  0
  190.6930  175.9460  138.1940 C   0  0  0  0  0  0  0  0  0  0  0  0
  190.0960  176.8140  135.9100 C   0  0  0  0  0  1  0  0  0  0  0  0
  191.5040  174.8430  137.6010 C   0  0  0  0  0  1  0  0  0  0  0  0
  190.5750  176.0050  139.4460 O   0  0  0  0  0  0  0  0  0  0  0  0
  1 12  2  0  0  0  0
  2 19  1  0  0  0  0
  3 18  1  0  0  0  0
  5  4  1  0  0  0  0
  5 19  2  0  0  0  0
  6  5  1  0  0  0  0
  7  3  1  1  0  0  0
  8 17  1  0  0  0  0
  8 11  1  0  0  0  0
  9  4  1  0  0  0  0
  9  1  1  1  0  0  0
 10  7  1  0  0  0  0
 10  9  1  0  0  0  0
 11 10  1  0  0  0  0
 11  6  1  0  0  0  0
 11  7  1  0  0  0  0
 12 14  1  0  0  0  0
 12 24  1  0  0  0  0
 13  6  2  0  0  0  0
 13 20  1  0  0  0  0
 15  3  2  0  0  0  0
 16 26  1  0  0  0  0
 16 15  1  0  0  0  0
 17 16  2  0  0  0  0
 18 14  1  0  0  0  0
 20  2  2  0  0  0  0
 21 23  1  0  0  0  0
 22 21  2  0  0  0  0
 24 22  1  0  0  0  0
 24 25  2  0  0  0  0
 25 23  1  0  0  0  0
 26 27  1  0  0  0  0
 28 27  1  0  0  0  0
 28 29  1  0  0  0  0
 29 32  2  0  0  0  0
 30 28  1  0  0  0  0
 31 29  1  0  0  0  0
M  END
>  <MODEL>
8

>  <REMARK>
 VINA RESULT:      -5.6      2.806      8.498
  Name = 
  4 active torsions:
  status: ('A' for Active; 'I' for Inactive)
    1  A    between atoms: N_2  and  C_7
    2  A    between atoms: C_7  and  C_16
    3  A    between atoms: C_16  and  C_24
    4  A    between atoms: C_18  and  C_30
                            x       y       z     vdW  Elec       q    Type
                         _______ _______ _______ _____ _____    ______ ____

>  <TORSDO>
F 4

$$$$
=
 OpenBabel11042410123D

 32 37  0  0  1  0  0  0  0  0999 V2000
  185.1840  179.0290  140.5790 C   0  0  0  0  0  3  0  0  0  0  0  0
  180.5000  181.1580  137.4900 N   0  0  0  0  0  0  0  0  0  0  0  0
  182.4410  176.8940  139.6170 C   0  0  0  0  0  0  0  0  0  0  0  0
  183.5400  180.1440  139.2950 N   0  0  0  0  0  2  0  0  0  0  0  0
  182.4850  180.1360  138.3430 C   0  0  0  0  0  0  0  0  0  0  0  0
  182.2760  179.0180  137.5200 C   0  0  0  0  0  0  0  0  0  0  0  0
  183.6750  177.0200  138.7310 C   0  0  2  0  0  3  0  0  0  0  0  0
  183.0360  176.8060  136.4320 C   0  0  0  0  0  2  0  0  0  0  0  0
  184.4820  179.2500  139.3180 C   0  0  2  0  0  3  0  0  0  0  0  0
  184.5700  178.1570  138.2880 C   0  0  2  0  0  3  0  0  0  0  0  0
  183.3000  177.8780  137.4670 C   0  0  1  0  0  0  0  0  0  0  0  0
  184.5010  178.5830  141.6390 C   0  0  0  0  0  0  0  0  0  0  0  0
  181.1630  179.0210  136.6630 C   0  0  0  0  0  3  0  0  0  0  0  0
  183.0900  178.3390  141.5300 N   0  0  0  0  0  2  0  0  0  0  0  0
  181.3920  176.1490  139.1650 C   0  0  0  0  0  3  0  0  0  0  0  0
  181.2300  175.6090  137.7680 C   0  0  0  0  0  0  0  0  0  0  0  0
  182.0580  176.0520  136.8650 C   0  0  0  0  0  3  0  0  0  0  0  0
  182.5470  177.0520  141.1120 C   0  0  0  0  0  2  0  0  0  0  0  0
  181.5720  181.1930  138.3250 C   0  0  0  0  0  3  0  0  0  0  0  0
  180.2800  180.1020  136.6650 C   0  0  0  0  0  3  0  0  0  0  0  0
  185.6640  178.2390  145.1470 N   0  0  0  0  0  0  0  0  0  0  0  0
  184.5870  178.6420  144.2580 C   0  0  0  0  0  3  0  0  0  0  0  0
  186.6460  177.8180  144.4200 C   0  0  0  0  0  2  0  0  0  0  0  0
  185.1810  178.3560  142.9240 C   0  0  0  0  0  0  0  0  0  0  0  0
  186.3740  177.8780  143.0260 N   0  0  0  0  0  0  0  0  0  0  0  0
  180.0420  174.8010  137.3820 C   0  0  0  0  0  2  0  0  0  0  0  0
  180.3990  173.8590  136.2440 C   0  0  0  0  0  2  0  0  0  0  0  0
  181.0800  172.6810  136.7600 N   0  0  0  0  0  0  0  0  0  0  0  0
  182.4010  172.3340  136.3120 C   0  0  0  0  0  0  0  0  0  0  0  0
  180.4310  171.9280  137.8210 C   0  0  0  0  0  1  0  0  0  0  0  0
  183.1010  171.1280  136.8430 C   0  0  0  0  0  1  0  0  0  0  0  0
  182.9900  173.0470  135.4580 O   0  0  0  0  0  0  0  0  0  0  0  0
  1 12  2  0  0  0  0
  2 19  1  0  0  0  0
  3 18  1  0  0  0  0
  4  9  1  0  0  0  0
  5  4  1  0  0  0  0
  6  5  1  0  0  0  0
  7  3  1  1  0  0  0
  8 17  1  0  0  0  0
  8 11  1  0  0  0  0
  9  1  1  1  0  0  0
 10  7  1  0  0  0  0
 10  9  1  0  0  0  0
 11  6  1  0  0  0  0
 11 10  1  0  0  0  0
 11  7  1  0  0  0  0
 12 24  1  0  0  0  0
 13 20  1  0  0  0  0
 13  6  2  0  0  0  0
 14 12  1  0  0  0  0
 15  3  2  0  0  0  0
 16 15  1  0  0  0  0
 17 16  2  0  0  0  0
 18 14  1  0  0  0  0
 19  5  2  0  0  0  0
 20  2  2  0  0  0  0
 22 21  2  0  0  0  0
 23 21  1  0  0  0  0
 24 25  2  0  0  0  0
 24 22  1  0  0  0  0
 25 23  1  0  0  0  0
 26 16  1  0  0  0  0
 27 28  1  0  0  0  0
 27 26  1  0  0  0  0
 28 30  1  0  0  0  0
 29 28  1  0  0  0  0
 29 31  1  0  0  0  0
 32 29  2  0  0  0  0
M  END
>  <MODEL>
9

>  <REMARK>
 VINA RESULT:      -5.5      6.077      8.519
  Name = 
  4 active torsions:
  status: ('A' for Active; 'I' for Inactive)
    1  A    between atoms: N_2  and  C_7
    2  A    between atoms: C_7  and  C_16
    3  A    between atoms: C_16  and  C_24
    4  A    between atoms: C_18  and  C_30
                            x       y       z     vdW  Elec       q    Type
                         _______ _______ _______ _____ _____    ______ ____

>  <TORSDO>
F 4

$$$$
