=
 OpenBabel11042410383D

 44 48  0  0  1  0  0  0  0  0999 V2000
  192.4910  175.2630  136.8090 C   0  0  0  0  0  0  0  0  0  0  0  0
  188.9270  177.5440  140.9690 C   0  0  2  0  0  3  0  0  0  0  0  0
  186.8890  177.5440  137.7760 C   0  0  1  0  0  3  0  0  0  0  0  0
  187.8350  178.1310  135.5420 C   0  0  0  0  0  3  0  0  0  0  0  0
  186.8330  178.1940  136.4250 C   0  0  0  0  0  3  0  0  0  0  0  0
  190.5450  176.1760  139.6700 N   0  0  0  0  0  2  0  0  0  0  0  0
  190.3600  177.4270  140.4060 C   0  0  0  0  0  2  0  0  0  0  0  0
  188.0210  178.1280  138.5860 C   0  0  1  0  0  3  0  0  0  0  0  0
  187.9310  178.2620  140.0550 C   0  0  0  0  0  0  0  0  0  0  0  0
  189.6980  177.4620  136.9630 C   0  0  0  0  0  0  0  0  0  0  0  0
  189.0890  177.4840  135.8120 N   0  0  0  0  0  0  0  0  0  0  0  0
  189.2170  178.1510  138.1090 N   0  0  0  0  0  2  0  0  0  0  0  0
  186.9470  178.8710  140.5560 O   0  0  0  0  0  0  0  0  0  0  0  0
  190.8680  176.6060  137.1880 C   0  0  0  0  0  0  0  0  0  0  0  0
  191.2540  176.0770  138.4180 C   0  0  0  0  0  0  0  0  0  0  0  0
  191.6330  176.1100  136.2020 N   0  0  0  0  0  0  0  0  0  0  0  0
  192.2770  175.1840  138.1800 C   0  0  0  0  0  2  0  0  0  0  0  0
  185.6590  177.7170  138.4160 O   0  0  0  0  0  0  0  0  0  0  0  0
  184.6990  177.4560  137.4340 C   0  0  0  0  0  2  0  0  0  0  0  0
  183.3830  177.0550  138.0790 C   0  0  0  0  0  2  0  0  0  0  0  0
  183.4360  177.2660  139.5200 N   0  0  0  0  0  2  0  0  0  0  0  0
  181.8290  178.9600  139.5340 O   0  0  0  0  0  0  0  0  0  0  0  0
  182.6550  178.2630  140.1850 C   0  0  0  0  0  0  0  0  0  0  0  0
  181.7050  178.8450  142.4160 C   0  0  0  0  0  3  0  0  0  0  0  0
  182.8060  178.4750  141.6330 C   0  0  0  0  0  0  0  0  0  0  0  0
  184.2090  178.4940  143.5620 C   0  0  0  0  0  0  0  0  0  0  0  0
  184.0240  178.3090  142.2230 N   0  0  0  0  0  0  0  0  0  0  0  0
  181.8720  179.0380  143.7880 C   0  0  0  0  0  3  0  0  0  0  0  0
  183.1290  178.8620  144.3660 C   0  0  0  0  0  3  0  0  0  0  0  0
  185.6810  178.4770  145.5350 C   0  0  0  0  0  1  0  0  0  0  0  0
  185.4670  178.3200  144.1410 O   0  0  0  0  0  0  0  0  0  0  0  0
  193.5420  174.4980  136.0520 C   0  0  0  0  0  3  0  0  0  0  0  0
  195.6320  174.0600  136.6380 C   0  0  0  0  0  1  0  0  0  0  0  0
  194.3140  173.6700  136.8800 O   0  0  0  0  0  0  0  0  0  0  0  0
  192.4500  172.5920  135.4010 C   0  0  0  0  0  1  0  0  0  0  0  0
  193.0140  173.7940  134.9450 O   0  0  0  0  0  0  0  0  0  0  0  0
  188.9840  178.2180  142.3330 C   0  0  0  0  0  2  0  0  0  0  0  0
  190.2550  177.9310  142.9810 N   0  0  0  0  0  2  0  0  0  0  0  0
  191.5630  176.5900  146.2210 C   0  0  0  0  0  3  0  0  0  0  0  0
  190.3580  177.5840  144.3620 C   0  0  0  0  0  0  0  0  0  0  0  0
  190.5100  176.9190  147.0800 C   0  0  0  0  0  3  0  0  0  0  0  0
  189.3070  177.9110  145.2280 C   0  0  0  0  0  3  0  0  0  0  0  0
  189.3840  177.5810  146.5840 C   0  0  0  0  0  3  0  0  0  0  0  0
  191.4870  176.9210  144.8650 C   0  0  0  0  0  3  0  0  0  0  0  0
  1 17  1  0  0  0  0
  2 37  1  1  0  0  0
  3 18  1  1  0  0  0
  3  8  1  0  0  0  0
  4 11  1  0  0  0  0
  4  5  2  0  0  0  0
  5  3  1  0  0  0  0
  6  7  1  0  0  0  0
  7  2  1  0  0  0  0
  8 12  1  1  0  0  0
  8  9  1  0  0  0  0
  9 13  2  0  0  0  0
  9  2  1  0  0  0  0
 10 14  1  0  0  0  0
 10 12  1  0  0  0  0
 11 10  2  0  0  0  0
 14 15  2  0  0  0  0
 15  6  1  0  0  0  0
 16  1  2  0  0  0  0
 16 14  1  0  0  0  0
 17 15  1  0  0  0  0
 19 20  1  0  0  0  0
 19 18  1  0  0  0  0
 20 21  1  0  0  0  0
 21 23  1  0  0  0  0
 22 23  2  0  0  0  0
 23 25  1  0  0  0  0
 24 28  1  0  0  0  0
 25 27  1  0  0  0  0
 25 24  2  0  0  0  0
 26 31  1  0  0  0  0
 26 29  1  0  0  0  0
 27 26  2  0  0  0  0
 28 29  2  0  0  0  0
 31 30  1  0  0  0  0
 32  1  1  0  0  0  0
 32 34  1  0  0  0  0
 33 34  1  0  0  0  0
 36 35  1  0  0  0  0
 36 32  1  0  0  0  0
 37 38  1  0  0  0  0
 38 40  1  0  0  0  0
 39 41  1  0  0  0  0
 40 44  1  0  0  0  0
 40 42  2  0  0  0  0
 42 43  1  0  0  0  0
 43 41  2  0  0  0  0
 44 39  2  0  0  0  0
M  END
>  <MODEL>
1

>  <REMARK>
 VINA RESULT:      -8.5      0.000      0.000
  Name = 
  12 active torsions:
  status: ('A' for Active; 'I' for Inactive)
    1  A    between atoms: C_1  and  C_25
    2  A    between atoms: C_5  and  C_44
    3  A    between atoms: N_6  and  C_32
    4  A    between atoms: C_7  and  C_41
    5  A    between atoms: C_9  and  O_17
    6  A    between atoms: C_14  and  O_43
    7  A    between atoms: C_15  and  O_17
    8  A    between atoms: C_15  and  C_32
    9  A    between atoms: O_21  and  C_25
   10  A    between atoms: C_23  and  N_27
   11  A    between atoms: C_25  and  O_31
   12  A    between atoms: N_27  and  C_44
                            x       y       z     vdW  Elec       q    Type
                         _______ _______ _______ _____ _____    ______ ____

>  <TORSDO>
F 12

$$$$
=
 OpenBabel11042410383D

 44 48  0  0  1  0  0  0  0  0999 V2000
  192.5380  174.9480  136.3820 C   0  0  0  0  0  0  0  0  0  0  0  0
  189.1640  177.3960  140.6050 C   0  0  2  0  0  3  0  0  0  0  0  0
  186.9890  177.2860  137.5060 C   0  0  1  0  0  3  0  0  0  0  0  0
  187.8390  177.7860  135.2130 C   0  0  0  0  0  3  0  0  0  0  0  0
  186.8760  177.8850  136.1360 C   0  0  0  0  0  3  0  0  0  0  0  0
  190.7210  175.9740  139.2890 N   0  0  0  0  0  2  0  0  0  0  0  0
  190.5710  177.2520  139.9850 C   0  0  0  0  0  2  0  0  0  0  0  0
  188.1570  177.8950  138.2450 C   0  0  1  0  0  3  0  0  0  0  0  0
  188.1310  178.0830  139.7100 C   0  0  0  0  0  0  0  0  0  0  0  0
  189.7600  177.1620  136.5750 C   0  0  0  0  0  0  0  0  0  0  0  0
  189.1010  177.1440  135.4530 N   0  0  0  0  0  0  0  0  0  0  0  0
  189.3310  177.8940  137.7150 N   0  0  0  0  0  2  0  0  0  0  0  0
  187.1710  178.7140  140.2300 O   0  0  0  0  0  0  0  0  0  0  0  0
  190.9360  176.3100  136.7810 C   0  0  0  0  0  0  0  0  0  0  0  0
  191.3740  175.8250  138.0130 C   0  0  0  0  0  0  0  0  0  0  0  0
  191.6560  175.7750  135.7820 N   0  0  0  0  0  0  0  0  0  0  0  0
  192.3830  174.9200  137.7640 C   0  0  0  0  0  2  0  0  0  0  0  0
  185.7890  177.4870  138.1920 O   0  0  0  0  0  0  0  0  0  0  0  0
  184.7910  177.0600  137.3110 C   0  0  0  0  0  2  0  0  0  0  0  0
  183.5400  177.9060  137.4850 C   0  0  0  0  0  2  0  0  0  0  0  0
  183.1290  177.9280  138.8830 N   0  0  0  0  0  2  0  0  0  0  0  0
  184.1830  179.9540  139.3700 O   0  0  0  0  0  0  0  0  0  0  0  0
  183.5160  178.9670  139.7870 C   0  0  0  0  0  0  0  0  0  0  0  0
  184.1050  178.8590  142.2070 C   0  0  0  0  0  3  0  0  0  0  0  0
  183.1280  178.8950  141.2040 C   0  0  0  0  0  0  0  0  0  0  0  0
  181.4050  178.8010  142.8500 C   0  0  0  0  0  0  0  0  0  0  0  0
  181.8100  178.8660  141.5500 N   0  0  0  0  0  0  0  0  0  0  0  0
  183.7140  178.7940  143.5450 C   0  0  0  0  0  3  0  0  0  0  0  0
  182.3570  178.7640  143.8710 C   0  0  0  0  0  3  0  0  0  0  0  0
  179.3440  179.9360  143.5740 C   0  0  0  0  0  1  0  0  0  0  0  0
  180.0490  178.7700  143.1780 O   0  0  0  0  0  0  0  0  0  0  0  0
  193.5530  174.1500  135.6090 C   0  0  0  0  0  3  0  0  0  0  0  0
  195.5960  174.0360  134.7610 C   0  0  0  0  0  1  0  0  0  0  0  0
  194.8650  174.6050  135.8060 O   0  0  0  0  0  0  0  0  0  0  0  0
  192.3470  172.2750  135.0870 C   0  0  0  0  0  1  0  0  0  0  0  0
  193.4360  172.7590  135.8280 O   0  0  0  0  0  0  0  0  0  0  0  0
  189.2820  178.1190  141.9390 C   0  0  0  0  0  2  0  0  0  0  0  0
  189.3920  177.1550  143.0240 N   0  0  0  0  0  2  0  0  0  0  0  0
  188.7410  177.4530  146.6980 C   0  0  0  0  0  3  0  0  0  0  0  0
  188.7190  177.3170  144.2740 C   0  0  0  0  0  0  0  0  0  0  0  0
  187.3540  177.6350  146.7010 C   0  0  0  0  0  3  0  0  0  0  0  0
  187.3310  177.5010  144.2830 C   0  0  0  0  0  3  0  0  0  0  0  0
  186.6500  177.6610  145.4930 C   0  0  0  0  0  3  0  0  0  0  0  0
  189.4220  177.2940  145.4880 C   0  0  0  0  0  3  0  0  0  0  0  0
  1 17  1  0  0  0  0
  2 37  1  1  0  0  0
  3 18  1  1  0  0  0
  3  8  1  0  0  0  0
  4 11  1  0  0  0  0
  4  5  2  0  0  0  0
  5  3  1  0  0  0  0
  6  7  1  0  0  0  0
  7  2  1  0  0  0  0
  8 12  1  1  0  0  0
  8  9  1  0  0  0  0
  9 13  2  0  0  0  0
  9  2  1  0  0  0  0
 10 14  1  0  0  0  0
 10 12  1  0  0  0  0
 11 10  2  0  0  0  0
 14 15  2  0  0  0  0
 15  6  1  0  0  0  0
 16  1  2  0  0  0  0
 16 14  1  0  0  0  0
 17 15  1  0  0  0  0
 19 20  1  0  0  0  0
 19 18  1  0  0  0  0
 20 21  1  0  0  0  0
 21 23  1  0  0  0  0
 22 23  2  0  0  0  0
 23 25  1  0  0  0  0
 24 28  1  0  0  0  0
 25 27  1  0  0  0  0
 25 24  2  0  0  0  0
 26 31  1  0  0  0  0
 26 29  1  0  0  0  0
 27 26  2  0  0  0  0
 28 29  2  0  0  0  0
 31 30  1  0  0  0  0
 32 34  1  0  0  0  0
 32 36  1  0  0  0  0
 32  1  1  0  0  0  0
 33 34  1  0  0  0  0
 35 36  1  0  0  0  0
 37 38  1  0  0  0  0
 38 40  1  0  0  0  0
 39 41  1  0  0  0  0
 40 42  2  0  0  0  0
 40 44  1  0  0  0  0
 42 43  1  0  0  0  0
 43 41  2  0  0  0  0
 44 39  2  0  0  0  0
M  END
>  <MODEL>
2

>  <REMARK>
 VINA RESULT:      -8.4      1.263      1.944
  Name = 
  12 active torsions:
  status: ('A' for Active; 'I' for Inactive)
    1  A    between atoms: C_1  and  C_25
    2  A    between atoms: C_5  and  C_44
    3  A    between atoms: N_6  and  C_32
    4  A    between atoms: C_7  and  C_41
    5  A    between atoms: C_9  and  O_17
    6  A    between atoms: C_14  and  O_43
    7  A    between atoms: C_15  and  O_17
    8  A    between atoms: C_15  and  C_32
    9  A    between atoms: O_21  and  C_25
   10  A    between atoms: C_23  and  N_27
   11  A    between atoms: C_25  and  O_31
   12  A    between atoms: N_27  and  C_44
                            x       y       z     vdW  Elec       q    Type
                         _______ _______ _______ _____ _____    ______ ____

>  <TORSDO>
F 12

$$$$
=
 OpenBabel11042410383D

 44 48  0  0  1  0  0  0  0  0999 V2000
  189.0730  177.1020  145.6780 C   0  0  0  0  0  0  0  0  0  0  0  0
  185.8500  178.3570  140.8570 C   0  0  2  0  0  3  0  0  0  0  0  0
  189.0970  176.9030  139.5560 C   0  0  1  0  0  3  0  0  0  0  0  0
  191.3280  177.4200  140.5480 C   0  0  0  0  0  3  0  0  0  0  0  0
  190.5630  177.2080  139.4720 C   0  0  0  0  0  3  0  0  0  0  0  0
  186.6640  177.6000  143.0800 N   0  0  0  0  0  2  0  0  0  0  0  0
  186.2600  178.7620  142.2890 C   0  0  0  0  0  2  0  0  0  0  0  0
  188.3640  178.0520  140.2060 C   0  0  1  0  0  3  0  0  0  0  0  0
  186.9800  178.3990  139.8250 C   0  0  0  0  0  0  0  0  0  0  0  0
  189.6540  177.8830  142.2560 C   0  0  0  0  0  0  0  0  0  0  0  0
  190.8190  177.4320  141.8910 N   0  0  0  0  0  0  0  0  0  0  0  0
  188.7420  178.4960  141.3550 N   0  0  0  0  0  2  0  0  0  0  0  0
  186.7120  178.6090  138.6110 O   0  0  0  0  0  0  0  0  0  0  0  0
  189.1450  177.6660  143.6150 C   0  0  0  0  0  0  0  0  0  0  0  0
  187.7990  177.5860  143.9680 C   0  0  0  0  0  0  0  0  0  0  0  0
  189.9260  177.3740  144.6680 N   0  0  0  0  0  0  0  0  0  0  0  0
  187.7420  177.1900  145.2870 C   0  0  0  0  0  2  0  0  0  0  0  0
  188.6100  176.6470  138.2720 O   0  0  0  0  0  0  0  0  0  0  0  0
  189.6280  175.9330  137.6340 C   0  0  0  0  0  2  0  0  0  0  0  0
  189.0530  174.7250  136.9150 C   0  0  0  0  0  2  0  0  0  0  0  0
  187.5980  174.7280  136.9960 N   0  0  0  0  0  2  0  0  0  0  0  0
  187.4060  172.4180  137.2770 O   0  0  0  0  0  0  0  0  0  0  0  0
  186.8280  173.5310  137.1420 C   0  0  0  0  0  0  0  0  0  0  0  0
  184.5970  172.4410  136.9110 C   0  0  0  0  0  3  0  0  0  0  0  0
  185.3580  173.5940  137.1450 C   0  0  0  0  0  0  0  0  0  0  0  0
  183.3670  174.8830  137.3930 C   0  0  0  0  0  0  0  0  0  0  0  0
  184.7270  174.7790  137.3800 N   0  0  0  0  0  0  0  0  0  0  0  0
  183.2040  172.5240  136.9220 C   0  0  0  0  0  3  0  0  0  0  0  0
  182.5830  173.7500  137.1640 C   0  0  0  0  0  3  0  0  0  0  0  0
  183.1050  177.2860  136.9290 C   0  0  0  0  0  1  0  0  0  0  0  0
  182.7450  176.1090  137.6340 O   0  0  0  0  0  0  0  0  0  0  0  0
  189.5470  176.7350  147.0580 C   0  0  0  0  0  3  0  0  0  0  0  0
  191.6480  176.1500  147.4470 C   0  0  0  0  0  1  0  0  0  0  0  0
  190.8120  177.2640  147.3570 O   0  0  0  0  0  0  0  0  0  0  0  0
  188.8420  178.3320  148.5400 C   0  0  0  0  0  1  0  0  0  0  0  0
  188.5970  177.0360  148.0600 O   0  0  0  0  0  0  0  0  0  0  0  0
  184.6830  179.2260  140.4100 C   0  0  0  0  0  2  0  0  0  0  0  0
  183.4540  178.4460  140.3960 N   0  0  0  0  0  2  0  0  0  0  0  0
  181.8480  178.9150  143.7430 C   0  0  0  0  0  3  0  0  0  0  0  0
  182.4710  178.5340  141.4280 C   0  0  0  0  0  0  0  0  0  0  0  0
  180.5060  178.6890  143.4200 C   0  0  0  0  0  3  0  0  0  0  0  0
  181.1260  178.3100  141.1100 C   0  0  0  0  0  3  0  0  0  0  0  0
  180.1450  178.3890  142.1030 C   0  0  0  0  0  3  0  0  0  0  0  0
  182.8280  178.8370  142.7500 C   0  0  0  0  0  3  0  0  0  0  0  0
  1 32  1  0  0  0  0
  2 37  1  6  0  0  0
  2  7  1  0  0  0  0
  3 18  1  6  0  0  0
  3  8  1  0  0  0  0
  4 11  1  0  0  0  0
  5  3  1  0  0  0  0
  5  4  2  0  0  0  0
  6 15  1  0  0  0  0
  7  6  1  0  0  0  0
  8  9  1  1  0  0  0
  8 12  1  0  0  0  0
  9  2  1  0  0  0  0
 10 14  1  0  0  0  0
 11 10  2  0  0  0  0
 12 10  1  0  0  0  0
 13  9  2  0  0  0  0
 14 15  2  0  0  0  0
 14 16  1  0  0  0  0
 15 17  1  0  0  0  0
 16  1  2  0  0  0  0
 17  1  1  0  0  0  0
 19 18  1  0  0  0  0
 20 21  1  0  0  0  0
 20 19  1  0  0  0  0
 21 23  1  0  0  0  0
 23 25  1  0  0  0  0
 23 22  2  0  0  0  0
 24 28  1  0  0  0  0
 24 25  2  0  0  0  0
 25 27  1  0  0  0  0
 26 31  1  0  0  0  0
 27 26  2  0  0  0  0
 28 29  2  0  0  0  0
 29 26  1  0  0  0  0
 30 31  1  0  0  0  0
 32 34  1  0  0  0  0
 32 36  1  0  0  0  0
 34 33  1  0  0  0  0
 36 35  1  0  0  0  0
 38 37  1  0  0  0  0
 38 40  1  0  0  0  0
 40 44  1  0  0  0  0
 41 39  1  0  0  0  0
 42 40  2  0  0  0  0
 42 43  1  0  0  0  0
 43 41  2  0  0  0  0
 44 39  2  0  0  0  0
M  END
>  <MODEL>
3

>  <REMARK>
 VINA RESULT:      -8.1      2.828      7.964
  Name = 
  12 active torsions:
  status: ('A' for Active; 'I' for Inactive)
    1  A    between atoms: C_1  and  C_25
    2  A    between atoms: C_5  and  C_44
    3  A    between atoms: N_6  and  C_32
    4  A    between atoms: C_7  and  C_41
    5  A    between atoms: C_9  and  O_17
    6  A    between atoms: C_14  and  O_43
    7  A    between atoms: C_15  and  O_17
    8  A    between atoms: C_15  and  C_32
    9  A    between atoms: O_21  and  C_25
   10  A    between atoms: C_23  and  N_27
   11  A    between atoms: C_25  and  O_31
   12  A    between atoms: N_27  and  C_44
                            x       y       z     vdW  Elec       q    Type
                         _______ _______ _______ _____ _____    ______ ____

>  <TORSDO>
F 12

$$$$
=
 OpenBabel11042410383D

 44 48  0  0  1  0  0  0  0  0999 V2000
  189.0670  177.0870  145.6730 C   0  0  0  0  0  0  0  0  0  0  0  0
  185.8520  178.3780  140.8570 C   0  0  2  0  0  3  0  0  0  0  0  0
  189.1050  176.9440  139.5500 C   0  0  1  0  0  3  0  0  0  0  0  0
  191.3330  177.4570  140.5510 C   0  0  0  0  0  3  0  0  0  0  0  0
  190.5700  177.2520  139.4720 C   0  0  0  0  0  3  0  0  0  0  0  0
  186.6620  177.6030  143.0750 N   0  0  0  0  0  2  0  0  0  0  0  0
  186.2580  178.7720  142.2930 C   0  0  0  0  0  2  0  0  0  0  0  0
  188.3680  178.0850  140.2080 C   0  0  1  0  0  3  0  0  0  0  0  0
  186.9840  178.4330  139.8280 C   0  0  0  0  0  0  0  0  0  0  0  0
  189.6530  177.9000  142.2590 C   0  0  0  0  0  0  0  0  0  0  0  0
  190.8210  177.4550  141.8930 N   0  0  0  0  0  0  0  0  0  0  0  0
  188.7430  178.5190  141.3620 N   0  0  0  0  0  2  0  0  0  0  0  0
  186.7180  178.6530  138.6150 O   0  0  0  0  0  0  0  0  0  0  0  0
  189.1430  177.6700  143.6150 C   0  0  0  0  0  0  0  0  0  0  0  0
  187.7960  177.5840  143.9650 C   0  0  0  0  0  0  0  0  0  0  0  0
  189.9210  177.3700  144.6670 N   0  0  0  0  0  0  0  0  0  0  0  0
  187.7370  177.1750  145.2800 C   0  0  0  0  0  2  0  0  0  0  0  0
  188.6210  176.6980  138.2620 O   0  0  0  0  0  0  0  0  0  0  0  0
  189.5620  177.2760  137.4050 C   0  0  0  0  0  2  0  0  0  0  0  0
  189.7750  176.3920  136.1870 C   0  0  0  0  0  2  0  0  0  0  0  0
  191.0830  175.7530  136.2430 N   0  0  0  0  0  2  0  0  0  0  0  0
  190.3600  173.9240  137.5020 O   0  0  0  0  0  0  0  0  0  0  0  0
  191.3180  174.5320  136.9500 C   0  0  0  0  0  0  0  0  0  0  0  0
  193.6780  174.6390  137.7490 C   0  0  0  0  0  3  0  0  0  0  0  0
  192.6770  173.9740  137.0290 C   0  0  0  0  0  0  0  0  0  0  0  0
  194.2150  172.2460  136.4500 C   0  0  0  0  0  0  0  0  0  0  0  0
  192.9690  172.8000  136.4020 N   0  0  0  0  0  0  0  0  0  0  0  0
  194.9580  174.0890  137.8130 C   0  0  0  0  0  3  0  0  0  0  0  0
  195.2310  172.8860  137.1600 C   0  0  0  0  0  3  0  0  0  0  0  0
  195.6190  170.2500  136.1240 C   0  0  0  0  0  1  0  0  0  0  0  0
  194.4890  171.0430  135.7970 O   0  0  0  0  0  0  0  0  0  0  0  0
  189.5390  176.7080  147.0510 C   0  0  0  0  0  3  0  0  0  0  0  0
  191.6590  176.1230  147.3090 C   0  0  0  0  0  1  0  0  0  0  0  0
  190.8070  177.2270  147.3520 O   0  0  0  0  0  0  0  0  0  0  0  0
  188.8830  178.2760  148.5860 C   0  0  0  0  0  1  0  0  0  0  0  0
  188.5910  177.0100  148.0550 O   0  0  0  0  0  0  0  0  0  0  0  0
  184.6840  179.2490  140.4150 C   0  0  0  0  0  2  0  0  0  0  0  0
  183.4540  178.4710  140.4060 N   0  0  0  0  0  2  0  0  0  0  0  0
  181.8810  178.9030  143.7750 C   0  0  0  0  0  3  0  0  0  0  0  0
  182.4800  178.5530  141.4480 C   0  0  0  0  0  0  0  0  0  0  0  0
  180.5340  178.6980  143.4590 C   0  0  0  0  0  3  0  0  0  0  0  0
  181.1300  178.3500  141.1380 C   0  0  0  0  0  3  0  0  0  0  0  0
  180.1590  178.4230  142.1410 C   0  0  0  0  0  3  0  0  0  0  0  0
  182.8520  178.8300  142.7720 C   0  0  0  0  0  3  0  0  0  0  0  0
  1 32  1  0  0  0  0
  2 37  1  6  0  0  0
  2  7  1  0  0  0  0
  3 18  1  6  0  0  0
  3  8  1  0  0  0  0
  4 11  1  0  0  0  0
  5  3  1  0  0  0  0
  5  4  2  0  0  0  0
  6 15  1  0  0  0  0
  7  6  1  0  0  0  0
  8  9  1  1  0  0  0
  8 12  1  0  0  0  0
  9  2  1  0  0  0  0
 10 14  1  0  0  0  0
 11 10  2  0  0  0  0
 12 10  1  0  0  0  0
 13  9  2  0  0  0  0
 14 15  2  0  0  0  0
 14 16  1  0  0  0  0
 15 17  1  0  0  0  0
 16  1  2  0  0  0  0
 17  1  1  0  0  0  0
 19 18  1  0  0  0  0
 20 21  1  0  0  0  0
 20 19  1  0  0  0  0
 21 23  1  0  0  0  0
 23 25  1  0  0  0  0
 23 22  2  0  0  0  0
 24 28  1  0  0  0  0
 25 24  2  0  0  0  0
 26 29  1  0  0  0  0
 27 26  2  0  0  0  0
 27 25  1  0  0  0  0
 29 28  2  0  0  0  0
 31 30  1  0  0  0  0
 31 26  1  0  0  0  0
 32 34  1  0  0  0  0
 32 36  1  0  0  0  0
 33 34  1  0  0  0  0
 36 35  1  0  0  0  0
 38 37  1  0  0  0  0
 38 40  1  0  0  0  0
 40 44  1  0  0  0  0
 41 39  1  0  0  0  0
 42 40  2  0  0  0  0
 42 43  1  0  0  0  0
 43 41  2  0  0  0  0
 44 39  2  0  0  0  0
M  END
>  <MODEL>
4

>  <REMARK>
 VINA RESULT:      -8.0      2.199      9.483
  Name = 
  12 active torsions:
  status: ('A' for Active; 'I' for Inactive)
    1  A    between atoms: C_1  and  C_25
    2  A    between atoms: C_5  and  C_44
    3  A    between atoms: N_6  and  C_32
    4  A    between atoms: C_7  and  C_41
    5  A    between atoms: C_9  and  O_17
    6  A    between atoms: C_14  and  O_43
    7  A    between atoms: C_15  and  O_17
    8  A    between atoms: C_15  and  C_32
    9  A    between atoms: O_21  and  C_25
   10  A    between atoms: C_23  and  N_27
   11  A    between atoms: C_25  and  O_31
   12  A    between atoms: N_27  and  C_44
                            x       y       z     vdW  Elec       q    Type
                         _______ _______ _______ _____ _____    ______ ____

>  <TORSDO>
F 12

$$$$
=
 OpenBabel11042410383D

 44 48  0  0  1  0  0  0  0  0999 V2000
  182.5330  173.6810  136.4770 C   0  0  0  0  0  0  0  0  0  0  0  0
  187.6370  176.5200  137.5280 C   0  0  2  0  0  3  0  0  0  0  0  0
  184.9700  178.5310  139.3150 C   0  0  1  0  0  3  0  0  0  0  0  0
  182.7060  178.9660  138.3580 C   0  0  0  0  0  3  0  0  0  0  0  0
  183.7750  179.3950  139.0370 C   0  0  0  0  0  3  0  0  0  0  0  0
  185.8390  174.8310  137.2220 N   0  0  0  0  0  2  0  0  0  0  0  0
  186.7800  175.7130  136.5290 C   0  0  0  0  0  2  0  0  0  0  0  0
  185.6100  178.0980  138.0180 C   0  0  1  0  0  3  0  0  0  0  0  0
  187.0680  177.8890  137.9070 C   0  0  0  0  0  0  0  0  0  0  0  0
  183.5930  176.9900  137.2450 C   0  0  0  0  0  0  0  0  0  0  0  0
  182.6100  177.6560  137.7780 N   0  0  0  0  0  0  0  0  0  0  0  0
  184.9050  177.5170  137.1080 N   0  0  0  0  0  2  0  0  0  0  0  0
  187.8490  178.8180  138.2530 O   0  0  0  0  0  0  0  0  0  0  0  0
  183.4390  175.5810  136.8630 C   0  0  0  0  0  0  0  0  0  0  0  0
  184.4680  174.6420  136.8170 C   0  0  0  0  0  0  0  0  0  0  0  0
  182.2530  174.9900  136.6480 N   0  0  0  0  0  2  0  0  0  0  0  0
  183.8910  173.4090  136.6030 C   0  0  0  0  0  3  0  0  0  0  0  0
  185.8690  179.2400  140.1160 O   0  0  0  0  0  0  0  0  0  0  0  0
  185.9790  178.4880  141.2890 C   0  0  0  0  0  2  0  0  0  0  0  0
  187.4350  178.1430  141.5570 C   0  0  0  0  0  2  0  0  0  0  0  0
  187.7280  178.2370  142.9810 N   0  0  0  0  0  2  0  0  0  0  0  0
  188.3780  176.0050  143.2000 O   0  0  0  0  0  0  0  0  0  0  0  0
  188.1650  177.1170  143.7570 C   0  0  0  0  0  0  0  0  0  0  0  0
  187.3610  177.7700  146.0250 C   0  0  0  0  0  3  0  0  0  0  0  0
  188.3760  177.2600  145.2060 C   0  0  0  0  0  0  0  0  0  0  0  0
  189.8040  177.0050  147.0980 C   0  0  0  0  0  0  0  0  0  0  0  0
  189.5650  176.8910  145.7610 N   0  0  0  0  0  0  0  0  0  0  0  0
  187.5840  177.8940  147.3970 C   0  0  0  0  0  3  0  0  0  0  0  0
  188.8110  177.5100  147.9390 C   0  0  0  0  0  3  0  0  0  0  0  0
  192.0400  176.0020  146.8600 C   0  0  0  0  0  1  0  0  0  0  0  0
  191.0310  176.6230  147.6420 O   0  0  0  0  0  0  0  0  0  0  0  0
  181.4680  172.6570  136.1950 C   0  0  0  0  0  3  0  0  0  0  0  0
  181.8580  170.5520  135.6260 C   0  0  0  0  0  1  0  0  0  0  0  0
  181.7760  171.8410  135.0960 O   0  0  0  0  0  0  0  0  0  0  0  0
  179.9080  172.3810  137.8490 C   0  0  0  0  0  1  0  0  0  0  0  0
  181.1230  171.8990  137.3370 O   0  0  0  0  0  0  0  0  0  0  0  0
  189.0460  176.6610  136.9710 C   0  0  0  0  0  2  0  0  0  0  0  0
  189.9730  175.8440  137.7400 N   0  0  0  0  0  2  0  0  0  0  0  0
  191.4340  177.5030  140.7610 C   0  0  0  0  0  3  0  0  0  0  0  0
  190.9130  176.4010  138.6610 C   0  0  0  0  0  0  0  0  0  0  0  0
  192.7930  177.4860  140.4330 C   0  0  0  0  0  3  0  0  0  0  0  0
  192.2750  176.3870  138.3380 C   0  0  0  0  0  3  0  0  0  0  0  0
  193.2130  176.9270  139.2230 C   0  0  0  0  0  3  0  0  0  0  0  0
  190.4960  176.9620  139.8780 C   0  0  0  0  0  3  0  0  0  0  0  0
  1 17  2  0  0  0  0
  1 16  1  0  0  0  0
  2 37  1  6  0  0  0
  2  9  1  0  0  0  0
  3 18  1  1  0  0  0
  4  5  2  0  0  0  0
  5  3  1  0  0  0  0
  7  6  1  0  0  0  0
  7  2  1  0  0  0  0
  8 12  1  1  0  0  0
  8  3  1  0  0  0  0
  9  8  1  0  0  0  0
  9 13  2  0  0  0  0
 10 11  2  0  0  0  0
 11  4  1  0  0  0  0
 12 10  1  0  0  0  0
 14 10  1  0  0  0  0
 15 14  2  0  0  0  0
 15  6  1  0  0  0  0
 16 14  1  0  0  0  0
 17 15  1  0  0  0  0
 18 19  1  0  0  0  0
 19 20  1  0  0  0  0
 20 21  1  0  0  0  0
 21 23  1  0  0  0  0
 22 23  2  0  0  0  0
 23 25  1  0  0  0  0
 24 28  1  0  0  0  0
 25 27  1  0  0  0  0
 25 24  2  0  0  0  0
 26 31  1  0  0  0  0
 26 29  1  0  0  0  0
 27 26  2  0  0  0  0
 28 29  2  0  0  0  0
 30 31  1  0  0  0  0
 32  1  1  0  0  0  0
 32 36  1  0  0  0  0
 34 33  1  0  0  0  0
 34 32  1  0  0  0  0
 36 35  1  0  0  0  0
 37 38  1  0  0  0  0
 38 40  1  0  0  0  0
 40 44  1  0  0  0  0
 41 39  1  0  0  0  0
 42 40  2  0  0  0  0
 42 43  1  0  0  0  0
 43 41  2  0  0  0  0
 44 39  2  0  0  0  0
M  END
>  <MODEL>
5

>  <REMARK>
 VINA RESULT:      -7.7      3.242      7.317
  Name = 
  12 active torsions:
  status: ('A' for Active; 'I' for Inactive)
    1  A    between atoms: C_1  and  C_25
    2  A    between atoms: C_5  and  C_44
    3  A    between atoms: N_6  and  C_32
    4  A    between atoms: C_7  and  C_41
    5  A    between atoms: C_9  and  O_17
    6  A    between atoms: C_14  and  O_43
    7  A    between atoms: C_15  and  O_17
    8  A    between atoms: C_15  and  C_32
    9  A    between atoms: O_21  and  C_25
   10  A    between atoms: C_23  and  N_27
   11  A    between atoms: C_25  and  O_31
   12  A    between atoms: N_27  and  C_44
                            x       y       z     vdW  Elec       q    Type
                         _______ _______ _______ _____ _____    ______ ____

>  <TORSDO>
F 12

$$$$
=
 OpenBabel11042410383D

 44 48  0  0  1  0  0  0  0  0999 V2000
  188.7370  177.1640  145.6770 C   0  0  0  0  0  0  0  0  0  0  0  0
  185.7470  178.4070  140.7050 C   0  0  2  0  0  3  0  0  0  0  0  0
  189.0610  176.9700  139.5640 C   0  0  1  0  0  3  0  0  0  0  0  0
  191.2380  177.4980  140.6640 C   0  0  0  0  0  3  0  0  0  0  0  0
  190.5280  177.2830  139.5520 C   0  0  0  0  0  3  0  0  0  0  0  0
  186.4550  177.6530  142.9650 N   0  0  0  0  0  2  0  0  0  0  0  0
  186.0840  178.8140  142.1550 C   0  0  0  0  0  2  0  0  0  0  0  0
  188.2910  178.1150  140.1780 C   0  0  1  0  0  3  0  0  0  0  0  0
  186.9260  178.4560  139.7300 C   0  0  0  0  0  0  0  0  0  0  0  0
  189.4800  177.9510  142.2880 C   0  0  0  0  0  0  0  0  0  0  0  0
  190.6640  177.5060  141.9800 N   0  0  0  0  0  0  0  0  0  0  0  0
  188.6110  178.5600  141.3440 N   0  0  0  0  0  2  0  0  0  0  0  0
  186.7160  178.6660  138.5040 O   0  0  0  0  0  0  0  0  0  0  0  0
  188.9070  177.7310  143.6200 C   0  0  0  0  0  0  0  0  0  0  0  0
  187.5460  177.6440  143.9080 C   0  0  0  0  0  0  0  0  0  0  0  0
  189.6370  177.4420  144.7100 N   0  0  0  0  0  0  0  0  0  0  0  0
  187.4260  177.2460  145.2220 C   0  0  0  0  0  2  0  0  0  0  0  0
  188.6380  176.7130  138.2570 O   0  0  0  0  0  0  0  0  0  0  0  0
  189.5270  175.7490  137.7720 C   0  0  0  0  0  2  0  0  0  0  0  0
  188.7980  174.7690  136.8680 C   0  0  0  0  0  2  0  0  0  0  0  0
  187.3900  175.1280  136.7560 N   0  0  0  0  0  2  0  0  0  0  0  0
  186.6010  173.1510  137.7170 O   0  0  0  0  0  0  0  0  0  0  0  0
  186.3330  174.2560  137.1680 C   0  0  0  0  0  0  0  0  0  0  0  0
  184.5540  175.9960  137.0100 C   0  0  0  0  0  3  0  0  0  0  0  0
  184.9300  174.6470  136.9630 C   0  0  0  0  0  0  0  0  0  0  0  0
  182.6740  174.0120  136.5260 C   0  0  0  0  0  0  0  0  0  0  0  0
  183.9850  173.6950  136.7230 N   0  0  0  0  0  0  0  0  0  0  0  0
  183.2180  176.3430  136.8100 C   0  0  0  0  0  3  0  0  0  0  0  0
  182.2700  175.3480  136.5660 C   0  0  0  0  0  3  0  0  0  0  0  0
  181.6320  171.8530  137.0880 C   0  0  0  0  0  1  0  0  0  0  0  0
  181.7250  173.0180  136.2830 O   0  0  0  0  0  0  0  0  0  0  0  0
  189.1450  176.7990  147.0790 C   0  0  0  0  0  3  0  0  0  0  0  0
  191.2360  176.1160  147.3340 C   0  0  0  0  0  1  0  0  0  0  0  0
  190.4310  177.2540  147.4060 O   0  0  0  0  0  0  0  0  0  0  0  0
  188.6330  178.3460  148.6870 C   0  0  0  0  0  1  0  0  0  0  0  0
  188.1860  177.1810  148.0440 O   0  0  0  0  0  0  0  0  0  0  0  0
  184.5990  179.2710  140.2020 C   0  0  0  0  0  2  0  0  0  0  0  0
  183.3290  178.7440  140.6790 N   0  0  0  0  0  2  0  0  0  0  0  0
  180.2710  177.2060  139.1660 C   0  0  0  0  0  3  0  0  0  0  0  0
  182.2180  178.5040  139.8140 C   0  0  0  0  0  0  0  0  0  0  0  0
  180.0550  178.0680  138.0860 C   0  0  0  0  0  3  0  0  0  0  0  0
  181.9960  179.3640  138.7330 C   0  0  0  0  0  3  0  0  0  0  0  0
  180.9160  179.1480  137.8710 C   0  0  0  0  0  3  0  0  0  0  0  0
  181.3500  177.4220  140.0270 C   0  0  0  0  0  3  0  0  0  0  0  0
  1 32  1  0  0  0  0
  2 37  1  6  0  0  0
  2  7  1  0  0  0  0
  3 18  1  6  0  0  0
  3  8  1  0  0  0  0
  4 11  1  0  0  0  0
  5  3  1  0  0  0  0
  5  4  2  0  0  0  0
  6 15  1  0  0  0  0
  7  6  1  0  0  0  0
  8  9  1  1  0  0  0
  8 12  1  0  0  0  0
  9  2  1  0  0  0  0
 10 14  1  0  0  0  0
 11 10  2  0  0  0  0
 12 10  1  0  0  0  0
 13  9  2  0  0  0  0
 14 15  2  0  0  0  0
 14 16  1  0  0  0  0
 15 17  1  0  0  0  0
 16  1  2  0  0  0  0
 17  1  1  0  0  0  0
 19 18  1  0  0  0  0
 20 19  1  0  0  0  0
 21 20  1  0  0  0  0
 21 23  1  0  0  0  0
 23 22  2  0  0  0  0
 25 24  2  0  0  0  0
 25 23  1  0  0  0  0
 26 29  1  0  0  0  0
 26 27  2  0  0  0  0
 27 25  1  0  0  0  0
 28 24  1  0  0  0  0
 29 28  2  0  0  0  0
 31 26  1  0  0  0  0
 31 30  1  0  0  0  0
 32 34  1  0  0  0  0
 32 36  1  0  0  0  0
 33 34  1  0  0  0  0
 36 35  1  0  0  0  0
 37 38  1  0  0  0  0
 39 44  1  0  0  0  0
 40 44  2  0  0  0  0
 40 38  1  0  0  0  0
 41 39  2  0  0  0  0
 42 40  1  0  0  0  0
 43 41  1  0  0  0  0
 43 42  2  0  0  0  0
M  END
>  <MODEL>
6

>  <REMARK>
 VINA RESULT:      -7.7      3.037      8.403
  Name = 
  12 active torsions:
  status: ('A' for Active; 'I' for Inactive)
    1  A    between atoms: C_1  and  C_25
    2  A    between atoms: C_5  and  C_44
    3  A    between atoms: N_6  and  C_32
    4  A    between atoms: C_7  and  C_41
    5  A    between atoms: C_9  and  O_17
    6  A    between atoms: C_14  and  O_43
    7  A    between atoms: C_15  and  O_17
    8  A    between atoms: C_15  and  C_32
    9  A    between atoms: O_21  and  C_25
   10  A    between atoms: C_23  and  N_27
   11  A    between atoms: C_25  and  O_31
   12  A    between atoms: N_27  and  C_44
                            x       y       z     vdW  Elec       q    Type
                         _______ _______ _______ _____ _____    ______ ____

>  <TORSDO>
F 12

$$$$
=
 OpenBabel11042410383D

 44 48  0  0  1  0  0  0  0  0999 V2000
  186.6440  173.9190  136.1090 C   0  0  0  0  0  0  0  0  0  0  0  0
  192.3450  174.6230  137.5950 C   0  0  2  0  0  3  0  0  0  0  0  0
  190.4090  176.9540  139.8680 C   0  0  1  0  0  3  0  0  0  0  0  0
  188.4540  178.3060  139.1060 C   0  0  0  0  0  3  0  0  0  0  0  0
  189.5750  178.2000  139.8280 C   0  0  0  0  0  3  0  0  0  0  0  0
  190.1090  173.7290  136.9820 N   0  0  0  0  0  2  0  0  0  0  0  0
  191.3150  174.3820  136.4720 C   0  0  0  0  0  2  0  0  0  0  0  0
  190.9260  176.6310  138.4880 C   0  0  1  0  0  3  0  0  0  0  0  0
  192.2400  175.9850  138.2870 C   0  0  0  0  0  0  0  0  0  0  0  0
  188.6930  176.4430  137.5550 C   0  0  0  0  0  0  0  0  0  0  0  0
  187.9600  177.2610  138.2540 N   0  0  0  0  0  0  0  0  0  0  0  0
  190.1100  176.5280  137.4960 N   0  0  0  0  0  2  0  0  0  0  0  0
  193.2650  176.5060  138.8040 O   0  0  0  0  0  0  0  0  0  0  0  0
  188.1040  175.2830  136.8770 C   0  0  0  0  0  0  0  0  0  0  0  0
  188.7700  174.0930  136.5910 C   0  0  0  0  0  0  0  0  0  0  0  0
  186.8000  175.1760  136.5740 N   0  0  0  0  0  2  0  0  0  0  0  0
  187.8310  173.1960  136.1280 C   0  0  0  0  0  3  0  0  0  0  0  0
  191.4550  177.1350  140.7770 O   0  0  0  0  0  0  0  0  0  0  0  0
  190.8370  177.5370  141.9650 C   0  0  0  0  0  2  0  0  0  0  0  0
  190.4250  176.3230  142.7810 C   0  0  0  0  0  2  0  0  0  0  0  0
  189.6900  176.7330  143.9700 N   0  0  0  0  0  2  0  0  0  0  0  0
  187.6220  176.8690  142.8940 O   0  0  0  0  0  0  0  0  0  0  0  0
  188.2900  177.0270  143.9530 C   0  0  0  0  0  0  0  0  0  0  0  0
  188.3000  177.5190  146.3970 C   0  0  0  0  0  3  0  0  0  0  0  0
  187.6200  177.5050  145.1730 C   0  0  0  0  0  0  0  0  0  0  0  0
  185.6720  178.3940  146.2200 C   0  0  0  0  0  0  0  0  0  0  0  0
  186.3300  177.9420  145.1150 N   0  0  0  0  0  0  0  0  0  0  0  0
  187.6450  177.9800  147.5400 C   0  0  0  0  0  3  0  0  0  0  0  0
  186.3240  178.4200  147.4540 C   0  0  0  0  0  3  0  0  0  0  0  0
  183.6910  179.0020  144.8900 C   0  0  0  0  0  1  0  0  0  0  0  0
  184.3500  178.8340  146.1360 O   0  0  0  0  0  0  0  0  0  0  0  0
  185.3160  173.3890  135.6430 C   0  0  0  0  0  3  0  0  0  0  0  0
  184.6390  172.5940  137.5960 C   0  0  0  0  0  1  0  0  0  0  0  0
  184.9460  172.2020  136.2920 O   0  0  0  0  0  0  0  0  0  0  0  0
  183.4000  174.1350  134.6330 C   0  0  0  0  0  1  0  0  0  0  0  0
  184.2910  174.3620  135.6940 O   0  0  0  0  0  0  0  0  0  0  0  0
  193.7460  174.4130  137.0380 C   0  0  0  0  0  2  0  0  0  0  0  0
  194.5780  173.7310  138.0180 N   0  0  0  0  0  2  0  0  0  0  0  0
  197.6470  174.8800  139.8250 C   0  0  0  0  0  3  0  0  0  0  0  0
  195.9250  174.1190  138.2920 C   0  0  0  0  0  0  0  0  0  0  0  0
  198.5770  174.8790  138.7810 C   0  0  0  0  0  3  0  0  0  0  0  0
  196.8610  174.1200  137.2510 C   0  0  0  0  0  3  0  0  0  0  0  0
  198.1850  174.4980  137.4950 C   0  0  0  0  0  3  0  0  0  0  0  0
  196.3240  174.5010  139.5820 C   0  0  0  0  0  3  0  0  0  0  0  0
  1 17  2  0  0  0  0
  1 16  1  0  0  0  0
  2 37  1  6  0  0  0
  2  9  1  0  0  0  0
  3 18  1  1  0  0  0
  4  5  2  0  0  0  0
  5  3  1  0  0  0  0
  7  6  1  0  0  0  0
  7  2  1  0  0  0  0
  8 12  1  1  0  0  0
  8  3  1  0  0  0  0
  9  8  1  0  0  0  0
  9 13  2  0  0  0  0
 10 11  2  0  0  0  0
 11  4  1  0  0  0  0
 12 10  1  0  0  0  0
 14 10  1  0  0  0  0
 15 14  2  0  0  0  0
 15  6  1  0  0  0  0
 16 14  1  0  0  0  0
 17 15  1  0  0  0  0
 18 19  1  0  0  0  0
 19 20  1  0  0  0  0
 20 21  1  0  0  0  0
 22 23  2  0  0  0  0
 23 21  1  0  0  0  0
 23 25  1  0  0  0  0
 24 28  1  0  0  0  0
 25 24  2  0  0  0  0
 26 29  1  0  0  0  0
 27 25  1  0  0  0  0
 27 26  2  0  0  0  0
 29 28  2  0  0  0  0
 30 31  1  0  0  0  0
 31 26  1  0  0  0  0
 32 36  1  0  0  0  0
 32  1  1  0  0  0  0
 32 34  1  0  0  0  0
 34 33  1  0  0  0  0
 35 36  1  0  0  0  0
 37 38  1  0  0  0  0
 38 40  1  0  0  0  0
 40 44  2  0  0  0  0
 41 39  2  0  0  0  0
 42 43  2  0  0  0  0
 42 40  1  0  0  0  0
 43 41  1  0  0  0  0
 44 39  1  0  0  0  0
M  END
>  <MODEL>
7

>  <REMARK>
 VINA RESULT:      -7.6      2.895      6.889
  Name = 
  12 active torsions:
  status: ('A' for Active; 'I' for Inactive)
    1  A    between atoms: C_1  and  C_25
    2  A    between atoms: C_5  and  C_44
    3  A    between atoms: N_6  and  C_32
    4  A    between atoms: C_7  and  C_41
    5  A    between atoms: C_9  and  O_17
    6  A    between atoms: C_14  and  O_43
    7  A    between atoms: C_15  and  O_17
    8  A    between atoms: C_15  and  C_32
    9  A    between atoms: O_21  and  C_25
   10  A    between atoms: C_23  and  N_27
   11  A    between atoms: C_25  and  O_31
   12  A    between atoms: N_27  and  C_44
                            x       y       z     vdW  Elec       q    Type
                         _______ _______ _______ _____ _____    ______ ____

>  <TORSDO>
F 12

$$$$
=
 OpenBabel11042410383D

 44 48  0  0  1  0  0  0  0  0999 V2000
  189.9310  177.3010  146.2290 C   0  0  0  0  0  0  0  0  0  0  0  0
  189.5520  177.9890  140.3480 C   0  0  2  0  0  3  0  0  0  0  0  0
  186.1850  179.0610  141.7140 C   0  0  1  0  0  3  0  0  0  0  0  0
  185.0190  177.8780  143.5770 C   0  0  0  0  0  3  0  0  0  0  0  0
  184.9710  178.5060  142.3970 C   0  0  0  0  0  3  0  0  0  0  0  0
  190.2610  177.9730  142.7310 N   0  0  0  0  0  2  0  0  0  0  0  0
  190.0980  177.1560  141.5270 C   0  0  0  0  0  2  0  0  0  0  0  0
  187.1610  177.9510  141.4070 C   0  0  1  0  0  3  0  0  0  0  0  0
  188.0270  177.9930  140.2110 C   0  0  0  0  0  0  0  0  0  0  0  0
  187.3860  177.3290  143.7430 C   0  0  0  0  0  0  0  0  0  0  0  0
  186.2400  177.6210  144.2870 N   0  0  0  0  0  0  0  0  0  0  0  0
  187.5610  177.1610  142.3430 N   0  0  0  0  0  2  0  0  0  0  0  0
  187.5000  178.1600  139.0780 O   0  0  0  0  0  0  0  0  0  0  0  0
  188.6170  177.2840  144.5400 C   0  0  0  0  0  0  0  0  0  0  0  0
  189.9000  177.5330  144.0550 C   0  0  0  0  0  0  0  0  0  0  0  0
  188.6400  177.1360  145.8740 N   0  0  0  0  0  2  0  0  0  0  0  0
  190.7490  177.5800  145.1410 C   0  0  0  0  0  3  0  0  0  0  0  0
  185.7900  179.7300  140.5530 O   0  0  0  0  0  0  0  0  0  0  0  0
  184.4700  179.3260  140.3330 C   0  0  0  0  0  2  0  0  0  0  0  0
  184.2620  178.9880  138.8660 C   0  0  0  0  0  2  0  0  0  0  0  0
  184.1740  177.5460  138.6820 N   0  0  0  0  0  2  0  0  0  0  0  0
  185.3160  177.5320  136.6450 O   0  0  0  0  0  0  0  0  0  0  0  0
  184.6920  176.8790  137.5260 C   0  0  0  0  0  0  0  0  0  0  0  0
  185.6160  174.5840  137.2200 C   0  0  0  0  0  3  0  0  0  0  0  0
  184.5090  175.4290  137.3650 C   0  0  0  0  0  0  0  0  0  0  0  0
  183.0370  173.5580  137.2150 C   0  0  0  0  0  0  0  0  0  0  0  0
  183.2530  174.8970  137.3600 N   0  0  0  0  0  0  0  0  0  0  0  0
  185.4180  173.2110  137.0710 C   0  0  0  0  0  3  0  0  0  0  0  0
  184.1220  172.6930  137.0680 C   0  0  0  0  0  3  0  0  0  0  0  0
  181.3280  172.0570  136.2740 C   0  0  0  0  0  1  0  0  0  0  0  0
  181.7420  173.0390  137.2110 O   0  0  0  0  0  0  0  0  0  0  0  0
  190.3960  177.1990  147.6570 C   0  0  0  0  0  3  0  0  0  0  0  0
  192.0630  175.7420  147.7130 C   0  0  0  0  0  1  0  0  0  0  0  0
  191.7910  177.1110  147.7690 O   0  0  0  0  0  0  0  0  0  0  0  0
  188.5160  177.9240  148.7460 C   0  0  0  0  0  1  0  0  0  0  0  0
  189.8620  178.2180  148.4790 O   0  0  0  0  0  0  0  0  0  0  0  0
  190.2050  177.5120  139.0590 C   0  0  0  0  0  2  0  0  0  0  0  0
  190.4710  176.0830  139.1310 N   0  0  0  0  0  2  0  0  0  0  0  0
  189.5170  174.1250  136.0870 C   0  0  0  0  0  3  0  0  0  0  0  0
  190.5530  175.2520  137.9720 C   0  0  0  0  0  0  0  0  0  0  0  0
  190.7620  173.6130  135.7090 C   0  0  0  0  0  3  0  0  0  0  0  0
  191.7960  174.7370  137.5880 C   0  0  0  0  0  3  0  0  0  0  0  0
  191.9020  173.9210  136.4580 C   0  0  0  0  0  3  0  0  0  0  0  0
  189.4120  174.9420  137.2160 C   0  0  0  0  0  3  0  0  0  0  0  0
  1 32  1  0  0  0  0
  2 37  1  6  0  0  0
  2  7  1  0  0  0  0
  3 18  1  6  0  0  0
  3  5  1  0  0  0  0
  4 11  1  0  0  0  0
  5  4  2  0  0  0  0
  6 15  1  0  0  0  0
  7  6  1  0  0  0  0
  8  9  1  1  0  0  0
  8  3  1  0  0  0  0
  8 12  1  0  0  0  0
  9  2  1  0  0  0  0
 10 11  2  0  0  0  0
 10 14  1  0  0  0  0
 12 10  1  0  0  0  0
 13  9  2  0  0  0  0
 14 16  1  0  0  0  0
 15 14  2  0  0  0  0
 15 17  1  0  0  0  0
 16  1  1  0  0  0  0
 17  1  2  0  0  0  0
 19 18  1  0  0  0  0
 20 19  1  0  0  0  0
 21 20  1  0  0  0  0
 22 23  2  0  0  0  0
 23 21  1  0  0  0  0
 24 25  2  0  0  0  0
 25 23  1  0  0  0  0
 26 27  2  0  0  0  0
 27 25  1  0  0  0  0
 28 24  1  0  0  0  0
 29 28  2  0  0  0  0
 29 26  1  0  0  0  0
 30 31  1  0  0  0  0
 31 26  1  0  0  0  0
 32 34  1  0  0  0  0
 32 36  1  0  0  0  0
 33 34  1  0  0  0  0
 36 35  1  0  0  0  0
 37 38  1  0  0  0  0
 39 44  1  0  0  0  0
 40 38  1  0  0  0  0
 41 39  2  0  0  0  0
 41 43  1  0  0  0  0
 42 40  1  0  0  0  0
 43 42  2  0  0  0  0
 44 40  2  0  0  0  0
M  END
>  <MODEL>
8

>  <REMARK>
 VINA RESULT:      -7.6      2.800      7.971
  Name = 
  12 active torsions:
  status: ('A' for Active; 'I' for Inactive)
    1  A    between atoms: C_1  and  C_25
    2  A    between atoms: C_5  and  C_44
    3  A    between atoms: N_6  and  C_32
    4  A    between atoms: C_7  and  C_41
    5  A    between atoms: C_9  and  O_17
    6  A    between atoms: C_14  and  O_43
    7  A    between atoms: C_15  and  O_17
    8  A    between atoms: C_15  and  C_32
    9  A    between atoms: O_21  and  C_25
   10  A    between atoms: C_23  and  N_27
   11  A    between atoms: C_25  and  O_31
   12  A    between atoms: N_27  and  C_44
                            x       y       z     vdW  Elec       q    Type
                         _______ _______ _______ _____ _____    ______ ____

>  <TORSDO>
F 12

$$$$
=
 OpenBabel11042410383D

 44 48  0  0  1  0  0  0  0  0999 V2000
  194.5200  175.9570  135.8970 C   0  0  0  0  0  0  0  0  0  0  0  0
  188.5950  176.2250  135.7400 C   0  0  2  0  0  3  0  0  0  0  0  0
  189.6070  178.0130  138.9220 C   0  0  1  0  0  3  0  0  0  0  0  0
  191.4420  177.2220  140.4170 C   0  0  0  0  0  3  0  0  0  0  0  0
  190.2240  177.7510  140.2640 C   0  0  0  0  0  3  0  0  0  0  0  0
  191.0230  176.2700  135.2100 N   0  0  0  0  0  2  0  0  0  0  0  0
  189.8670  175.4030  135.4440 C   0  0  0  0  0  2  0  0  0  0  0  0
  189.4550  176.7190  138.1590 C   0  0  1  0  0  3  0  0  0  0  0  0
  188.3340  176.5020  137.2220 C   0  0  0  0  0  0  0  0  0  0  0  0
  191.8380  176.2580  138.2160 C   0  0  0  0  0  0  0  0  0  0  0  0
  192.2660  176.8010  139.3190 N   0  0  0  0  0  0  0  0  0  0  0  0
  190.4710  175.9470  137.9830 N   0  0  0  0  0  2  0  0  0  0  0  0
  187.1520  176.6710  137.6300 O   0  0  0  0  0  0  0  0  0  0  0  0
  192.7330  176.0490  137.0730 C   0  0  0  0  0  0  0  0  0  0  0  0
  192.3400  176.0140  135.7360 C   0  0  0  0  0  0  0  0  0  0  0  0
  194.0720  176.0070  137.1700 N   0  0  0  0  0  2  0  0  0  0  0  0
  193.4850  175.9900  134.9700 C   0  0  0  0  0  3  0  0  0  0  0  0
  188.3750  178.6480  139.1030 O   0  0  0  0  0  0  0  0  0  0  0  0
  188.1480  178.6140  140.4810 C   0  0  0  0  0  2  0  0  0  0  0  0
  186.6590  178.5160  140.7660 C   0  0  0  0  0  2  0  0  0  0  0  0
  186.3990  178.6860  142.1900 N   0  0  0  0  0  2  0  0  0  0  0  0
  187.5590  176.7660  142.8380 O   0  0  0  0  0  0  0  0  0  0  0  0
  186.8490  177.7520  143.1760 C   0  0  0  0  0  0  0  0  0  0  0  0
  185.2410  178.4620  144.9450 C   0  0  0  0  0  3  0  0  0  0  0  0
  186.4930  177.9440  144.5910 C   0  0  0  0  0  0  0  0  0  0  0  0
  187.0950  177.7720  146.8920 C   0  0  0  0  0  0  0  0  0  0  0  0
  187.3840  177.6130  145.5690 N   0  0  0  0  0  0  0  0  0  0  0  0
  184.9240  178.6320  146.2930 C   0  0  0  0  0  3  0  0  0  0  0  0
  185.8550  178.2860  147.2740 C   0  0  0  0  0  3  0  0  0  0  0  0
  189.1370  178.2550  148.1800 C   0  0  0  0  0  1  0  0  0  0  0  0
  188.0260  177.4280  147.8740 O   0  0  0  0  0  0  0  0  0  0  0  0
  195.9840  175.8860  135.5580 C   0  0  0  0  0  3  0  0  0  0  0  0
  196.1140  177.9270  134.7080 C   0  0  0  0  0  1  0  0  0  0  0  0
  196.6380  177.1170  135.7170 O   0  0  0  0  0  0  0  0  0  0  0  0
  196.3480  173.6260  135.6030 C   0  0  0  0  0  1  0  0  0  0  0  0
  196.6520  174.8410  136.2360 O   0  0  0  0  0  0  0  0  0  0  0  0
  187.3980  175.5320  135.1050 C   0  0  0  0  0  2  0  0  0  0  0  0
  187.4570  174.0990  135.3570 N   0  0  0  0  0  2  0  0  0  0  0  0
  184.8540  172.7630  137.6900 C   0  0  0  0  0  3  0  0  0  0  0  0
  186.3510  173.3590  135.8730 C   0  0  0  0  0  0  0  0  0  0  0  0
  184.1770  171.8800  136.8440 C   0  0  0  0  0  3  0  0  0  0  0  0
  185.6690  172.4730  135.0310 C   0  0  0  0  0  3  0  0  0  0  0  0
  184.5840  171.7360  135.5140 C   0  0  0  0  0  3  0  0  0  0  0  0
  185.9380  173.5010  137.2070 C   0  0  0  0  0  3  0  0  0  0  0  0
  1 16  1  0  0  0  0
  2 37  1  1  0  0  0
  2  9  1  0  0  0  0
  3 18  1  1  0  0  0
  3  5  1  0  0  0  0
  5  4  2  0  0  0  0
  6  7  1  0  0  0  0
  6 15  1  0  0  0  0
  7  2  1  0  0  0  0
  8  9  1  6  0  0  0
  8  3  1  0  0  0  0
  9 13  2  0  0  0  0
 10 11  2  0  0  0  0
 11  4  1  0  0  0  0
 12  8  1  0  0  0  0
 12 10  1  0  0  0  0
 14 16  1  0  0  0  0
 14 10  1  0  0  0  0
 15 14  2  0  0  0  0
 17 15  1  0  0  0  0
 17  1  2  0  0  0  0
 18 19  1  0  0  0  0
 19 20  1  0  0  0  0
 20 21  1  0  0  0  0
 21 23  1  0  0  0  0
 22 23  2  0  0  0  0
 23 25  1  0  0  0  0
 24 28  1  0  0  0  0
 25 24  2  0  0  0  0
 25 27  1  0  0  0  0
 26 29  1  0  0  0  0
 26 31  1  0  0  0  0
 27 26  2  0  0  0  0
 28 29  2  0  0  0  0
 31 30  1  0  0  0  0
 32 34  1  0  0  0  0
 32  1  1  0  0  0  0
 32 36  1  0  0  0  0
 33 34  1  0  0  0  0
 35 36  1  0  0  0  0
 37 38  1  0  0  0  0
 38 40  1  0  0  0  0
 40 44  2  0  0  0  0
 41 39  2  0  0  0  0
 42 43  2  0  0  0  0
 42 40  1  0  0  0  0
 43 41  1  0  0  0  0
 44 39  1  0  0  0  0
M  END
>  <MODEL>
9

>  <REMARK>
 VINA RESULT:      -7.6      2.830      6.054
  Name = 
  12 active torsions:
  status: ('A' for Active; 'I' for Inactive)
    1  A    between atoms: C_1  and  C_25
    2  A    between atoms: C_5  and  C_44
    3  A    between atoms: N_6  and  C_32
    4  A    between atoms: C_7  and  C_41
    5  A    between atoms: C_9  and  O_17
    6  A    between atoms: C_14  and  O_43
    7  A    between atoms: C_15  and  O_17
    8  A    between atoms: C_15  and  C_32
    9  A    between atoms: O_21  and  C_25
   10  A    between atoms: C_23  and  N_27
   11  A    between atoms: C_25  and  O_31
   12  A    between atoms: N_27  and  C_44
                            x       y       z     vdW  Elec       q    Type
                         _______ _______ _______ _____ _____    ______ ____

>  <TORSDO>
F 12

$$$$
