=
 OpenBabel11042410063D

 29 32  0  0  1  0  0  0  0  0999 V2000
  186.5830  177.8860  146.8750 C   0  0  0  0  0  2  0  0  0  0  0  0
  186.0280  177.9540  144.0760 C   0  0  1  0  0  3  0  0  0  0  0  0
  191.6110  176.7930  147.1090 C   0  0  0  0  0  3  0  0  0  0  0  0
  187.9410  176.9150  142.1920 O   0  0  0  0  0  1  0  0  0  0  0  0
  187.2910  177.5810  144.4600 C   0  0  0  0  0  0  0  0  0  0  0  0
  189.4480  177.6820  147.6130 N   0  0  0  0  0  0  0  0  0  0  0  0
  185.1040  178.5740  145.0550 C   0  0  0  0  0  3  0  0  0  0  0  0
  188.9950  177.4480  146.2470 C   0  0  0  0  0  0  0  0  0  0  0  0
  185.3740  178.5830  146.3520 C   0  0  0  0  0  3  0  0  0  0  0  0
  191.1760  176.6450  145.7150 C   0  0  0  0  0  3  0  0  0  0  0  0
  187.6600  177.6940  145.8320 C   0  0  0  0  0  0  0  0  0  0  0  0
  188.7350  178.5150  148.5700 C   0  0  0  0  0  1  0  0  0  0  0  0
  189.9300  176.9480  145.3080 C   0  0  0  0  0  0  0  0  0  0  0  0
  190.7690  177.2920  148.0050 C   0  0  0  0  0  3  0  0  0  0  0  0
  188.2600  177.1020  143.5360 C   0  0  0  0  0  0  0  0  0  0  0  0
  189.5640  176.7720  143.9550 C   0  0  1  0  0  3  0  0  0  0  0  0
  183.9510  179.1590  141.7870 C   0  0  1  0  0  3  0  0  0  0  0  0
  185.5460  177.8760  142.6460 C   0  0  1  0  0  3  0  0  0  0  0  0
  184.0330  177.8460  142.5400 C   0  0  0  0  0  2  0  0  0  0  0  0
  185.7490  179.4620  141.7790 S   0  0  0  0  0  0  0  0  0  0  0  0
  183.4580  178.9060  140.3740 C   0  0  0  0  0  2  0  0  0  0  0  0
  182.0510  179.4500  140.2070 C   0  0  0  0  0  2  0  0  0  0  0  0
  179.4080  178.1140  142.5620 O   0  0  0  0  0  1  0  0  0  0  0  0
  180.3160  178.9940  141.9900 C   0  0  0  0  0  0  0  0  0  0  0  0
  180.4460  180.1530  142.4660 O   0  0  0  0  0  0  0  0  0  0  0  0
  181.0950  178.5740  140.8690 N   0  0  0  0  0  2  0  0  0  0  0  0
  191.3960  177.1340  142.2410 N   0  0  0  0  0  1  0  0  0  0  0  0
  190.5350  176.2490  142.9520 C   0  0  0  0  0  0  0  0  0  0  0  0
  190.6170  175.0110  142.7330 O   0  0  0  0  0  0  0  0  0  0  0  0
  2  5  1  0  0  0  0
  2  7  1  6  0  0  0
  3 14  2  0  0  0  0
  4 15  1  0  0  0  0
  5 11  1  0  0  0  0
  6 14  1  0  0  0  0
  6 12  1  0  0  0  0
  7  9  2  0  0  0  0
  8  6  1  0  0  0  0
  9  1  1  0  0  0  0
 10  3  1  0  0  0  0
 11  8  2  0  0  0  0
 11  1  1  0  0  0  0
 13 10  2  0  0  0  0
 13  8  1  0  0  0  0
 15 16  1  0  0  0  0
 15  5  2  0  0  0  0
 16 28  1  6  0  0  0
 16 13  1  0  0  0  0
 17 21  1  6  0  0  0
 17 19  1  0  0  0  0
 18 19  1  1  0  0  0
 18  2  1  0  0  0  0
 20 17  1  0  0  0  0
 20 18  1  0  0  0  0
 22 21  1  0  0  0  0
 22 26  1  0  0  0  0
 24 25  2  0  0  0  0
 24 23  1  0  0  0  0
 26 24  1  0  0  0  0
 27 28  1  0  0  0  0
 29 28  2  0  0  0  0
M  END
>  <MODEL>
1

>  <REMARK>
 VINA RESULT:      -8.7      0.000      0.000
  Name = 
  5 active torsions:
  status: ('A' for Active; 'I' for Inactive)
    1  A    between atoms: C_2  and  C_5
    2  A    between atoms: C_2  and  N_29
    3  A    between atoms: C_3  and  C_17
    4  A    between atoms: C_5  and  C_10
    5  A    between atoms: C_16  and  C_28
                            x       y       z     vdW  Elec       q    Type
                         _______ _______ _______ _____ _____    ______ ____

>  <TORSDO>
F 5

$$$$
=
 OpenBabel11042410063D

 29 32  0  0  1  0  0  0  0  0999 V2000
  186.3270  177.9050  146.6960 C   0  0  0  0  0  2  0  0  0  0  0  0
  185.9770  177.9640  143.8640 C   0  0  1  0  0  3  0  0  0  0  0  0
  191.3310  176.8440  147.2990 C   0  0  0  0  0  3  0  0  0  0  0  0
  188.0290  176.9330  142.1280 O   0  0  0  0  0  1  0  0  0  0  0  0
  187.2110  177.5990  144.3400 C   0  0  0  0  0  0  0  0  0  0  0  0
  189.1310  177.7200  147.6420 N   0  0  0  0  0  0  0  0  0  0  0  0
  184.9800  178.5790  144.7720 C   0  0  0  0  0  3  0  0  0  0  0  0
  188.7810  177.4810  146.2470 C   0  0  0  0  0  0  0  0  0  0  0  0
  185.1550  178.5940  146.0850 C   0  0  0  0  0  3  0  0  0  0  0  0
  191.0000  176.6900  145.8770 C   0  0  0  0  0  3  0  0  0  0  0  0
  187.4780  177.7170  145.7360 C   0  0  0  0  0  0  0  0  0  0  0  0
  188.3450  178.5510  148.5420 C   0  0  0  0  0  1  0  0  0  0  0  0
  189.7840  176.9850  145.3800 C   0  0  0  0  0  0  0  0  0  0  0  0
  190.4230  177.3400  148.1300 C   0  0  0  0  0  3  0  0  0  0  0  0
  188.2480  177.1240  143.4900 C   0  0  0  0  0  0  0  0  0  0  0  0
  189.5190  176.8040  144.0040 C   0  0  1  0  0  3  0  0  0  0  0  0
  184.0830  179.1670  141.4210 C   0  0  1  0  0  3  0  0  0  0  0  0
  185.6010  177.8800  142.4030 C   0  0  1  0  0  3  0  0  0  0  0  0
  184.1000  177.8590  142.1860 C   0  0  0  0  0  2  0  0  0  0  0  0
  185.8780  179.4580  141.5440 S   0  0  0  0  0  0  0  0  0  0  0  0
  183.6930  178.9080  139.9770 C   0  0  0  0  0  2  0  0  0  0  0  0
  182.2840  179.4110  139.7190 C   0  0  0  0  0  2  0  0  0  0  0  0
  181.3110  182.4900  137.7450 O   0  0  0  0  0  0  0  0  0  0  0  0
  181.2070  181.4200  138.6230 C   0  0  0  0  0  0  0  0  0  0  0  0
  180.1310  181.2320  139.2520 O   0  0  0  0  0  1  0  0  0  0  0  0
  182.3180  180.5400  138.8010 N   0  0  0  0  0  2  0  0  0  0  0  0
  191.4820  177.1710  142.4430 N   0  0  0  0  0  1  0  0  0  0  0  0
  190.5640  176.2840  143.0760 C   0  0  0  0  0  0  0  0  0  0  0  0
  190.6580  175.0480  142.8530 O   0  0  0  0  0  0  0  0  0  0  0  0
  2  5  1  0  0  0  0
  2  7  1  6  0  0  0
  3 14  2  0  0  0  0
  4 15  1  0  0  0  0
  5 11  1  0  0  0  0
  6 14  1  0  0  0  0
  6 12  1  0  0  0  0
  7  9  2  0  0  0  0
  8  6  1  0  0  0  0
  9  1  1  0  0  0  0
 10  3  1  0  0  0  0
 11  8  2  0  0  0  0
 11  1  1  0  0  0  0
 13 10  2  0  0  0  0
 13  8  1  0  0  0  0
 15 16  1  0  0  0  0
 15  5  2  0  0  0  0
 16 28  1  6  0  0  0
 16 13  1  0  0  0  0
 17 21  1  6  0  0  0
 17 20  1  0  0  0  0
 17 19  1  0  0  0  0
 18 19  1  1  0  0  0
 18  2  1  0  0  0  0
 20 18  1  0  0  0  0
 22 21  1  0  0  0  0
 23 24  2  0  0  0  0
 24 26  1  0  0  0  0
 24 25  1  0  0  0  0
 26 22  1  0  0  0  0
 27 28  1  0  0  0  0
 29 28  2  0  0  0  0
M  END
>  <MODEL>
2

>  <REMARK>
 VINA RESULT:      -8.5      1.425      1.735
  Name = 
  5 active torsions:
  status: ('A' for Active; 'I' for Inactive)
    1  A    between atoms: C_2  and  C_5
    2  A    between atoms: C_2  and  N_29
    3  A    between atoms: C_3  and  C_17
    4  A    between atoms: C_5  and  C_10
    5  A    between atoms: C_16  and  C_28
                            x       y       z     vdW  Elec       q    Type
                         _______ _______ _______ _____ _____    ______ ____

>  <TORSDO>
F 5

$$$$
=
 OpenBabel11042410063D

 29 32  0  0  1  0  0  0  0  0999 V2000
  183.7470  178.9210  144.9800 C   0  0  0  0  0  2  0  0  0  0  0  0
  186.2740  178.2440  143.8370 C   0  0  1  0  0  3  0  0  0  0  0  0
  180.6250  179.3460  140.9050 C   0  0  0  0  0  3  0  0  0  0  0  0
  186.7040  178.5210  141.0040 O   0  0  0  0  0  1  0  0  0  0  0  0
  185.2450  178.5260  142.9730 C   0  0  0  0  0  0  0  0  0  0  0  0
  181.4450  178.9090  143.1100 N   0  0  0  0  0  0  0  0  0  0  0  0
  185.9970  178.0150  145.2750 C   0  0  0  0  0  3  0  0  0  0  0  0
  182.8200  178.8600  142.6260 C   0  0  0  0  0  0  0  0  0  0  0  0
  184.8140  178.2870  145.8050 C   0  0  0  0  0  3  0  0  0  0  0  0
  182.0010  179.2050  140.4130 C   0  0  0  0  0  3  0  0  0  0  0  0
  183.9310  178.7030  143.4950 C   0  0  0  0  0  0  0  0  0  0  0  0
  181.0340  178.4400  144.4250 C   0  0  0  0  0  1  0  0  0  0  0  0
  183.0450  178.9830  141.2330 C   0  0  0  0  0  0  0  0  0  0  0  0
  180.3770  179.2000  142.2010 C   0  0  0  0  0  3  0  0  0  0  0  0
  185.4350  178.6270  141.5670 C   0  0  0  0  0  0  0  0  0  0  0  0
  184.3490  178.8700  140.7030 C   0  0  1  0  0  3  0  0  0  0  0  0
  189.2240  176.8870  144.5120 C   0  0  1  0  0  3  0  0  0  0  0  0
  187.6980  178.0340  143.3800 C   0  0  1  0  0  3  0  0  0  0  0  0
  188.7110  178.3130  144.4740 C   0  0  0  0  0  2  0  0  0  0  0  0
  188.1010  176.2680  143.2170 S   0  0  0  0  0  0  0  0  0  0  0  0
  190.6600  176.8500  144.0190 C   0  0  0  0  0  2  0  0  0  0  0  0
  191.5470  176.1740  145.0490 C   0  0  0  0  0  2  0  0  0  0  0  0
  192.0560  177.3630  148.6050 O   0  0  0  0  0  1  0  0  0  0  0  0
  191.9140  176.4960  147.5310 C   0  0  0  0  0  0  0  0  0  0  0  0
  191.9860  175.2530  147.7190 O   0  0  0  0  0  0  0  0  0  0  0  0
  191.6850  177.0230  146.2230 N   0  0  0  0  0  2  0  0  0  0  0  0
  184.6450  177.8400  138.4060 N   0  0  0  0  0  1  0  0  0  0  0  0
  184.6050  178.9950  139.2400 C   0  0  0  0  0  0  0  0  0  0  0  0
  184.7720  180.1290  138.7190 O   0  0  0  0  0  0  0  0  0  0  0  0
  1  9  1  0  0  0  0
  2  7  1  6  0  0  0
  3 14  2  0  0  0  0
  4 15  1  0  0  0  0
  5 11  1  0  0  0  0
  5  2  1  0  0  0  0
  6 12  1  0  0  0  0
  7  9  2  0  0  0  0
  8  6  1  0  0  0  0
  8 11  2  0  0  0  0
 10  3  1  0  0  0  0
 10 13  2  0  0  0  0
 11  1  1  0  0  0  0
 13  8  1  0  0  0  0
 14  6  1  0  0  0  0
 15  5  2  0  0  0  0
 16 28  1  6  0  0  0
 16 13  1  0  0  0  0
 16 15  1  0  0  0  0
 17 21  1  6  0  0  0
 18  2  1  0  0  0  0
 18 19  1  1  0  0  0
 19 17  1  0  0  0  0
 20 18  1  0  0  0  0
 20 17  1  0  0  0  0
 21 22  1  0  0  0  0
 22 26  1  0  0  0  0
 24 25  2  0  0  0  0
 24 23  1  0  0  0  0
 26 24  1  0  0  0  0
 27 28  1  0  0  0  0
 29 28  2  0  0  0  0
M  END
>  <MODEL>
3

>  <REMARK>
 VINA RESULT:      -8.4      2.620      8.286
  Name = 
  5 active torsions:
  status: ('A' for Active; 'I' for Inactive)
    1  A    between atoms: C_2  and  C_5
    2  A    between atoms: C_2  and  N_29
    3  A    between atoms: C_3  and  C_17
    4  A    between atoms: C_5  and  C_10
    5  A    between atoms: C_16  and  C_28
                            x       y       z     vdW  Elec       q    Type
                         _______ _______ _______ _____ _____    ______ ____

>  <TORSDO>
F 5

$$$$
=
 OpenBabel11042410063D

 29 32  0  0  1  0  0  0  0  0999 V2000
  185.9210  178.0200  142.8120 C   0  0  0  0  0  2  0  0  0  0  0  0
  188.2100  178.0910  141.1070 C   0  0  1  0  0  3  0  0  0  0  0  0
  187.9200  177.6680  147.5450 C   0  0  0  0  0  3  0  0  0  0  0  0
  190.8080  177.4010  142.1380 O   0  0  0  0  0  1  0  0  0  0  0  0
  188.4270  177.8950  142.4470 C   0  0  0  0  0  0  0  0  0  0  0  0
  186.4760  178.2150  145.7180 N   0  0  0  0  0  0  0  0  0  0  0  0
  186.8820  178.5390  140.6250 C   0  0  0  0  0  3  0  0  0  0  0  0
  187.5410  177.9590  144.7550 C   0  0  0  0  0  0  0  0  0  0  0  0
  185.8230  178.5490  141.4210 C   0  0  0  0  0  3  0  0  0  0  0  0
  189.0100  177.5000  146.5760 C   0  0  0  0  0  3  0  0  0  0  0  0
  187.3330  178.0190  143.3520 C   0  0  0  0  0  0  0  0  0  0  0  0
  185.2380  178.9050  145.3900 C   0  0  0  0  0  1  0  0  0  0  0  0
  188.8260  177.6300  145.2490 C   0  0  0  0  0  0  0  0  0  0  0  0
  186.7120  178.0110  147.1160 C   0  0  0  0  0  3  0  0  0  0  0  0
  189.7120  177.5920  142.9770 C   0  0  0  0  0  0  0  0  0  0  0  0
  189.9100  177.4440  144.3630 C   0  0  1  0  0  3  0  0  0  0  0  0
  189.0420  177.1150  138.0470 C   0  0  1  0  0  3  0  0  0  0  0  0
  189.3050  177.9870  140.0720 C   0  0  1  0  0  3  0  0  0  0  0  0
  189.3810  176.6120  139.4360 C   0  0  0  0  0  2  0  0  0  0  0  0
  188.8690  178.8630  138.5380 S   0  0  0  0  0  0  0  0  0  0  0  0
  190.2440  176.9450  137.1360 C   0  0  0  0  0  2  0  0  0  0  0  0
  189.9010  176.0120  135.9890 C   0  0  0  0  0  2  0  0  0  0  0  0
  192.0650  172.9280  136.3460 O   0  0  0  0  0  0  0  0  0  0  0  0
  191.0380  173.8310  136.5810 C   0  0  0  0  0  0  0  0  0  0  0  0
  190.1840  173.5860  137.4750 O   0  0  0  0  0  1  0  0  0  0  0  0
  190.9620  175.0310  135.8100 N   0  0  0  0  0  2  0  0  0  0  0  0
  191.7190  175.7460  144.8840 N   0  0  0  0  0  1  0  0  0  0  0  0
  191.2710  177.0990  144.8650 C   0  0  0  0  0  0  0  0  0  0  0  0
  192.0500  178.0050  145.2630 O   0  0  0  0  0  0  0  0  0  0  0  0
  1 11  1  0  0  0  0
  2  7  1  1  0  0  0
  2  5  1  0  0  0  0
  4 15  1  0  0  0  0
  5 15  2  0  0  0  0
  5 11  1  0  0  0  0
  6 14  1  0  0  0  0
  7  9  2  0  0  0  0
  8 13  1  0  0  0  0
  8  6  1  0  0  0  0
  9  1  1  0  0  0  0
 10  3  1  0  0  0  0
 11  8  2  0  0  0  0
 12  6  1  0  0  0  0
 13 10  2  0  0  0  0
 14  3  2  0  0  0  0
 15 16  1  0  0  0  0
 16 28  1  1  0  0  0
 16 13  1  0  0  0  0
 17 21  1  6  0  0  0
 17 20  1  0  0  0  0
 17 19  1  0  0  0  0
 18 19  1  6  0  0  0
 18  2  1  0  0  0  0
 20 18  1  0  0  0  0
 22 21  1  0  0  0  0
 23 24  2  0  0  0  0
 24 25  1  0  0  0  0
 26 22  1  0  0  0  0
 26 24  1  0  0  0  0
 28 27  1  0  0  0  0
 28 29  2  0  0  0  0
M  END
>  <MODEL>
4

>  <REMARK>
 VINA RESULT:      -8.2      3.903      6.391
  Name = 
  5 active torsions:
  status: ('A' for Active; 'I' for Inactive)
    1  A    between atoms: C_2  and  C_5
    2  A    between atoms: C_2  and  N_29
    3  A    between atoms: C_3  and  C_17
    4  A    between atoms: C_5  and  C_10
    5  A    between atoms: C_16  and  C_28
                            x       y       z     vdW  Elec       q    Type
                         _______ _______ _______ _____ _____    ______ ____

>  <TORSDO>
F 5

$$$$
=
 OpenBabel11042410063D

 29 32  0  0  1  0  0  0  0  0999 V2000
  186.5400  177.9010  146.9290 C   0  0  0  0  0  2  0  0  0  0  0  0
  186.0030  177.9310  144.1260 C   0  0  1  0  0  3  0  0  0  0  0  0
  191.5670  176.8190  147.2100 C   0  0  0  0  0  3  0  0  0  0  0  0
  187.9290  176.8690  142.2690 O   0  0  0  0  0  1  0  0  0  0  0  0
  187.2640  177.5650  144.5230 C   0  0  0  0  0  0  0  0  0  0  0  0
  189.4000  177.7110  147.6880 N   0  0  0  0  0  0  0  0  0  0  0  0
  185.0710  178.5620  145.0910 C   0  0  0  0  0  3  0  0  0  0  0  0
  188.9560  177.4590  146.3230 C   0  0  0  0  0  0  0  0  0  0  0  0
  185.3330  178.5900  146.3890 C   0  0  0  0  0  3  0  0  0  0  0  0
  191.1420  176.6510  145.8150 C   0  0  0  0  0  3  0  0  0  0  0  0
  187.6240  177.6970  145.8960 C   0  0  0  0  0  0  0  0  0  0  0  0
  188.6790  178.5570  148.6290 C   0  0  0  0  0  1  0  0  0  0  0  0
  189.8970  176.9480  145.3960 C   0  0  0  0  0  0  0  0  0  0  0  0
  190.7190  177.3290  148.0940 C   0  0  0  0  0  3  0  0  0  0  0  0
  188.2390  177.0750  143.6110 C   0  0  0  0  0  0  0  0  0  0  0  0
  189.5400  176.7530  144.0430 C   0  0  1  0  0  3  0  0  0  0  0  0
  184.0120  179.1690  141.7790 C   0  0  1  0  0  3  0  0  0  0  0  0
  185.5290  177.8330  142.6940 C   0  0  1  0  0  3  0  0  0  0  0  0
  184.0180  177.8780  142.5730 C   0  0  0  0  0  2  0  0  0  0  0  0
  185.8230  179.3780  141.7800 S   0  0  0  0  0  0  0  0  0  0  0  0
  183.5180  178.8970  140.3690 C   0  0  0  0  0  2  0  0  0  0  0  0
  184.5410  179.3790  139.3560 C   0  0  0  0  0  2  0  0  0  0  0  0
  186.2850  176.9900  136.9960 O   0  0  0  0  0  0  0  0  0  0  0  0
  186.1110  178.0050  137.9250 C   0  0  0  0  0  0  0  0  0  0  0  0
  187.1150  178.6270  138.3660 O   0  0  0  0  0  1  0  0  0  0  0  0
  184.7950  178.3390  138.3700 N   0  0  0  0  0  2  0  0  0  0  0  0
  191.3910  177.0930  142.3440 N   0  0  0  0  0  1  0  0  0  0  0  0
  190.5180  176.2170  143.0530 C   0  0  0  0  0  0  0  0  0  0  0  0
  190.5970  174.9770  142.8450 O   0  0  0  0  0  0  0  0  0  0  0  0
  2  5  1  0  0  0  0
  2  7  1  6  0  0  0
  3 14  2  0  0  0  0
  4 15  1  0  0  0  0
  5 11  1  0  0  0  0
  6 14  1  0  0  0  0
  6 12  1  0  0  0  0
  7  9  2  0  0  0  0
  8  6  1  0  0  0  0
  9  1  1  0  0  0  0
 10  3  1  0  0  0  0
 11  8  2  0  0  0  0
 11  1  1  0  0  0  0
 13 10  2  0  0  0  0
 13  8  1  0  0  0  0
 15 16  1  0  0  0  0
 15  5  2  0  0  0  0
 16 28  1  6  0  0  0
 16 13  1  0  0  0  0
 17 21  1  6  0  0  0
 17 20  1  0  0  0  0
 17 19  1  0  0  0  0
 18 19  1  1  0  0  0
 18  2  1  0  0  0  0
 20 18  1  0  0  0  0
 22 21  1  0  0  0  0
 23 24  2  0  0  0  0
 24 25  1  0  0  0  0
 24 26  1  0  0  0  0
 26 22  1  0  0  0  0
 27 28  1  0  0  0  0
 29 28  2  0  0  0  0
M  END
>  <MODEL>
5

>  <REMARK>
 VINA RESULT:      -8.1      2.445      2.763
  Name = 
  5 active torsions:
  status: ('A' for Active; 'I' for Inactive)
    1  A    between atoms: C_2  and  C_5
    2  A    between atoms: C_2  and  N_29
    3  A    between atoms: C_3  and  C_17
    4  A    between atoms: C_5  and  C_10
    5  A    between atoms: C_16  and  C_28
                            x       y       z     vdW  Elec       q    Type
                         _______ _______ _______ _____ _____    ______ ____

>  <TORSDO>
F 5

$$$$
=
 OpenBabel11042410063D

 29 32  0  0  1  0  0  0  0  0999 V2000
  186.7950  177.6820  147.1090 C   0  0  0  0  0  2  0  0  0  0  0  0
  185.9440  178.5580  144.5290 C   0  0  1  0  0  3  0  0  0  0  0  0
  191.7680  176.5220  146.4380 C   0  0  0  0  0  3  0  0  0  0  0  0
  187.5960  178.0880  142.2200 O   0  0  0  0  0  1  0  0  0  0  0  0
  187.2240  178.0790  144.6420 C   0  0  0  0  0  0  0  0  0  0  0  0
  189.7110  177.2480  147.4220 N   0  0  0  0  0  0  0  0  0  0  0  0
  185.1580  178.8780  145.7450 C   0  0  0  0  0  3  0  0  0  0  0  0
  189.1040  177.4210  146.1080 C   0  0  0  0  0  0  0  0  0  0  0  0
  185.5670  178.5110  146.9500 C   0  0  0  0  0  3  0  0  0  0  0  0
  191.1790  176.7860  145.1200 C   0  0  0  0  0  3  0  0  0  0  0  0
  187.7440  177.7880  145.9380 C   0  0  0  0  0  0  0  0  0  0  0  0
  189.1420  177.7770  148.6530 C   0  0  0  0  0  1  0  0  0  0  0  0
  189.9100  177.2050  144.9640 C   0  0  0  0  0  0  0  0  0  0  0  0
  191.0500  176.7500  147.5310 C   0  0  0  0  0  3  0  0  0  0  0  0
  188.0670  177.8770  143.5140 C   0  0  0  0  0  0  0  0  0  0  0  0
  189.3920  177.4290  143.6680 C   0  0  1  0  0  3  0  0  0  0  0  0
  183.2230  178.3820  142.6390 C   0  0  1  0  0  3  0  0  0  0  0  0
  185.3060  178.9000  143.2030 C   0  0  1  0  0  3  0  0  0  0  0  0
  184.5850  177.7210  142.5790 C   0  0  0  0  0  2  0  0  0  0  0  0
  183.8170  179.9230  143.4130 S   0  0  0  0  0  0  0  0  0  0  0  0
  182.7300  178.6620  141.2310 C   0  0  0  0  0  2  0  0  0  0  0  0
  181.2350  178.4100  141.1420 C   0  0  0  0  0  2  0  0  0  0  0  0
  179.6570  175.2810  139.7160 O   0  0  0  0  0  0  0  0  0  0  0  0
  179.8590  176.3740  140.5470 C   0  0  0  0  0  0  0  0  0  0  0  0
  179.0570  176.5940  141.4930 O   0  0  0  0  0  1  0  0  0  0  0  0
  180.9750  177.2360  140.3230 N   0  0  0  0  0  2  0  0  0  0  0  0
  190.2110  175.9530  141.7770 N   0  0  0  0  0  1  0  0  0  0  0  0
  190.2260  177.2080  142.4520 C   0  0  0  0  0  0  0  0  0  0  0  0
  190.9430  178.1370  141.9960 O   0  0  0  0  0  0  0  0  0  0  0  0
  2  5  1  0  0  0  0
  2  7  1  1  0  0  0
  3 14  2  0  0  0  0
  4 15  1  0  0  0  0
  5 11  1  0  0  0  0
  6 14  1  0  0  0  0
  6 12  1  0  0  0  0
  7  9  2  0  0  0  0
  8  6  1  0  0  0  0
  9  1  1  0  0  0  0
 10  3  1  0  0  0  0
 11  8  2  0  0  0  0
 11  1  1  0  0  0  0
 13 10  2  0  0  0  0
 13  8  1  0  0  0  0
 15 16  1  0  0  0  0
 15  5  2  0  0  0  0
 16 28  1  1  0  0  0
 16 13  1  0  0  0  0
 17 21  1  6  0  0  0
 17 20  1  0  0  0  0
 18 19  1  1  0  0  0
 18 20  1  0  0  0  0
 18  2  1  0  0  0  0
 19 17  1  0  0  0  0
 22 21  1  0  0  0  0
 23 24  2  0  0  0  0
 24 25  1  0  0  0  0
 26 24  1  0  0  0  0
 26 22  1  0  0  0  0
 27 28  1  0  0  0  0
 29 28  2  0  0  0  0
M  END
>  <MODEL>
6

>  <REMARK>
 VINA RESULT:      -8.0      1.503      1.654
  Name = 
  5 active torsions:
  status: ('A' for Active; 'I' for Inactive)
    1  A    between atoms: C_2  and  C_5
    2  A    between atoms: C_2  and  N_29
    3  A    between atoms: C_3  and  C_17
    4  A    between atoms: C_5  and  C_10
    5  A    between atoms: C_16  and  C_28
                            x       y       z     vdW  Elec       q    Type
                         _______ _______ _______ _____ _____    ______ ____

>  <TORSDO>
F 5

$$$$
=
 OpenBabel11042410063D

 29 32  0  0  1  0  0  0  0  0999 V2000
  190.2150  176.5030  139.1320 C   0  0  0  0  0  2  0  0  0  0  0  0
  189.2120  177.7850  141.4770 C   0  0  1  0  0  3  0  0  0  0  0  0
  186.6120  177.4440  135.5740 C   0  0  0  0  0  3  0  0  0  0  0  0
  186.4770  178.6780  141.5830 O   0  0  0  0  0  1  0  0  0  0  0  0
  188.4050  177.7780  140.3670 C   0  0  0  0  0  0  0  0  0  0  0  0
  188.7230  177.0500  136.6290 N   0  0  0  0  0  0  0  0  0  0  0  0
  190.6410  177.4080  141.3620 C   0  0  0  0  0  3  0  0  0  0  0  0
  188.1760  177.4010  137.9340 C   0  0  2  0  0  3  0  0  0  0  0  0
  191.1240  176.8510  140.2620 C   0  0  0  0  0  3  0  0  0  0  0  0
  186.0940  177.8820  136.8760 C   0  0  0  0  0  3  0  0  0  0  0  0
  188.9310  177.2990  139.1310 C   0  0  0  0  0  0  0  0  0  0  0  0
  190.1480  176.9290  136.3550 C   0  0  0  0  0  1  0  0  0  0  0  0
  186.8360  177.8530  137.9980 C   0  0  0  0  0  0  0  0  0  0  0  0
  187.8760  177.0490  135.4750 C   0  0  0  0  0  3  0  0  0  0  0  0
  187.0640  178.2510  140.3940 C   0  0  0  0  0  0  0  0  0  0  0  0
  186.2780  178.2750  139.2260 C   0  0  0  0  0  0  0  0  0  0  0  0
  189.2410  177.2990  144.7580 C   0  0  1  0  0  3  0  0  0  0  0  0
  188.7490  178.2770  142.8280 C   0  0  1  0  0  3  0  0  0  0  0  0
  188.1740  177.1690  143.6900 C   0  0  0  0  0  2  0  0  0  0  0  0
  190.1490  178.6450  143.9280 S   0  0  0  0  0  0  0  0  0  0  0  0
  188.6150  177.8080  146.0440 C   0  0  0  0  0  2  0  0  0  0  0  0
  189.3940  177.2960  147.2420 C   0  0  0  0  0  2  0  0  0  0  0  0
  192.6300  175.3590  146.9280 O   0  0  0  0  0  0  0  0  0  0  0  0
  191.7180  176.3060  147.3730 C   0  0  0  0  0  0  0  0  0  0  0  0
  192.0570  177.1260  148.2670 O   0  0  0  0  0  1  0  0  0  0  0  0
  190.4060  176.3430  146.8090 N   0  0  0  0  0  2  0  0  0  0  0  0
  184.5530  180.1280  139.0940 N   0  0  0  0  0  1  0  0  0  0  0  0
  184.8690  178.7560  139.3130 C   0  0  0  0  0  0  0  0  0  0  0  0
  183.9370  177.9470  139.5650 O   0  0  0  0  0  0  0  0  0  0  0  0
  1  9  1  0  0  0  0
  2  7  1  6  0  0  0
  2 18  1  0  0  0  0
  3 10  1  0  0  0  0
  5 15  1  0  0  0  0
  5  2  1  0  0  0  0
  6  8  1  0  0  0  0
  8 13  1  1  0  0  0
  8 11  1  0  0  0  0
  9  7  2  0  0  0  0
 10 13  2  0  0  0  0
 11  1  1  0  0  0  0
 11  5  2  0  0  0  0
 12  6  1  0  0  0  0
 13 16  1  0  0  0  0
 14  3  2  0  0  0  0
 14  6  1  0  0  0  0
 15  4  1  0  0  0  0
 16 28  1  0  0  0  0
 16 15  2  0  0  0  0
 17 21  1  1  0  0  0
 18 19  1  1  0  0  0
 18 20  1  0  0  0  0
 19 17  1  0  0  0  0
 20 17  1  0  0  0  0
 21 22  1  0  0  0  0
 23 24  2  0  0  0  0
 24 25  1  0  0  0  0
 26 22  1  0  0  0  0
 26 24  1  0  0  0  0
 27 28  1  0  0  0  0
 28 29  2  0  0  0  0
M  END
>  <MODEL>
7

>  <REMARK>
 VINA RESULT:      -7.8      3.952      8.872
  Name = 
  5 active torsions:
  status: ('A' for Active; 'I' for Inactive)
    1  A    between atoms: C_2  and  C_5
    2  A    between atoms: C_2  and  N_29
    3  A    between atoms: C_3  and  C_17
    4  A    between atoms: C_5  and  C_10
    5  A    between atoms: C_16  and  C_28
                            x       y       z     vdW  Elec       q    Type
                         _______ _______ _______ _____ _____    ______ ____

>  <TORSDO>
F 5

$$$$
=
 OpenBabel11042410063D

 29 32  0  0  1  0  0  0  0  0999 V2000
  191.0890  177.4550  144.5870 C   0  0  0  0  0  2  0  0  0  0  0  0
  189.3570  177.2440  142.3280 C   0  0  1  0  0  3  0  0  0  0  0  0
  187.8690  178.1210  148.5510 C   0  0  0  0  0  3  0  0  0  0  0  0
  186.5830  177.9810  142.5530 O   0  0  0  0  0  1  0  0  0  0  0  0
  188.7820  177.5310  143.5390 C   0  0  0  0  0  0  0  0  0  0  0  0
  189.7540  177.4600  147.2340 N   0  0  0  0  0  0  0  0  0  0  0  0
  190.7620  176.7750  142.2620 C   0  0  0  0  0  3  0  0  0  0  0  0
  188.9990  177.6380  146.0010 C   0  0  0  0  0  0  0  0  0  0  0  0
  191.5600  176.8310  143.3180 C   0  0  0  0  0  3  0  0  0  0  0  0
  187.0900  178.2100  147.3100 C   0  0  0  0  0  3  0  0  0  0  0  0
  189.5840  177.4810  144.7170 C   0  0  0  0  0  0  0  0  0  0  0  0
  191.0280  176.7590  147.3090 C   0  0  0  0  0  1  0  0  0  0  0  0
  187.6300  177.9890  146.0980 C   0  0  0  0  0  0  0  0  0  0  0  0
  189.1450  177.7590  148.4960 C   0  0  0  0  0  3  0  0  0  0  0  0
  187.4040  177.8600  143.6720 C   0  0  0  0  0  0  0  0  0  0  0  0
  186.8340  178.1030  144.9360 C   0  0  1  0  0  3  0  0  0  0  0  0
  189.2830  178.2760  139.1760 C   0  0  1  0  0  3  0  0  0  0  0  0
  188.5900  177.2650  141.0260 C   0  0  1  0  0  3  0  0  0  0  0  0
  188.5040  178.6530  140.4200 C   0  0  0  0  0  2  0  0  0  0  0  0
  189.5530  176.5400  139.6640 S   0  0  0  0  0  0  0  0  0  0  0  0
  188.3700  178.3410  137.9640 C   0  0  0  0  0  2  0  0  0  0  0  0
  189.1790  178.6550  136.7190 C   0  0  0  0  0  2  0  0  0  0  0  0
  189.6400  175.5340  134.6290 O   0  0  0  0  0  0  0  0  0  0  0  0
  189.8890  176.5080  135.5860 C   0  0  0  0  0  0  0  0  0  0  0  0
  190.9080  176.4140  136.3210 O   0  0  0  0  0  1  0  0  0  0  0  0
  188.9900  177.6090  135.7240 N   0  0  0  0  0  2  0  0  0  0  0  0
  184.9080  179.6650  144.4130 N   0  0  0  0  0  1  0  0  0  0  0  0
  185.3910  178.4700  145.0200 C   0  0  0  0  0  0  0  0  0  0  0  0
  184.5770  177.7150  145.6140 O   0  0  0  0  0  0  0  0  0  0  0  0
  1 11  1  0  0  0  0
  2  7  1  1  0  0  0
  2  5  1  0  0  0  0
  4 15  1  0  0  0  0
  5 15  2  0  0  0  0
  5 11  1  0  0  0  0
  6 12  1  0  0  0  0
  6 14  1  0  0  0  0
  7  9  2  0  0  0  0
  8 13  1  0  0  0  0
  8  6  1  0  0  0  0
  9  1  1  0  0  0  0
 10  3  1  0  0  0  0
 11  8  2  0  0  0  0
 13 10  2  0  0  0  0
 14  3  2  0  0  0  0
 15 16  1  0  0  0  0
 16 28  1  1  0  0  0
 16 13  1  0  0  0  0
 17 21  1  6  0  0  0
 17 20  1  0  0  0  0
 17 19  1  0  0  0  0
 18 19  1  6  0  0  0
 18  2  1  0  0  0  0
 20 18  1  0  0  0  0
 22 21  1  0  0  0  0
 23 24  2  0  0  0  0
 24 26  1  0  0  0  0
 24 25  1  0  0  0  0
 26 22  1  0  0  0  0
 27 28  1  0  0  0  0
 28 29  2  0  0  0  0
M  END
>  <MODEL>
8

>  <REMARK>
 VINA RESULT:      -7.8      3.799      6.204
  Name = 
  5 active torsions:
  status: ('A' for Active; 'I' for Inactive)
    1  A    between atoms: C_2  and  C_5
    2  A    between atoms: C_2  and  N_29
    3  A    between atoms: C_3  and  C_17
    4  A    between atoms: C_5  and  C_10
    5  A    between atoms: C_16  and  C_28
                            x       y       z     vdW  Elec       q    Type
                         _______ _______ _______ _____ _____    ______ ____

>  <TORSDO>
F 5

$$$$
=
 OpenBabel11042410063D

 29 32  0  0  1  0  0  0  0  0999 V2000
  190.7510  177.7230  143.0480 C   0  0  0  0  0  2  0  0  0  0  0  0
  189.1330  177.7950  140.6970 C   0  0  1  0  0  3  0  0  0  0  0  0
  187.3340  177.8620  146.9000 C   0  0  0  0  0  3  0  0  0  0  0  0
  186.3440  178.4850  140.8760 O   0  0  0  0  0  1  0  0  0  0  0  0
  188.4960  177.9230  141.9060 C   0  0  0  0  0  0  0  0  0  0  0  0
  189.2880  177.3830  145.6050 N   0  0  0  0  0  0  0  0  0  0  0  0
  190.5440  177.3450  140.6430 C   0  0  0  0  0  3  0  0  0  0  0  0
  188.5920  177.7140  144.3680 C   0  0  0  0  0  0  0  0  0  0  0  0
  191.2900  177.2690  141.7350 C   0  0  0  0  0  3  0  0  0  0  0  0
  186.6150  178.1050  145.6440 C   0  0  0  0  0  3  0  0  0  0  0  0
  189.2400  177.7250  143.1060 C   0  0  0  0  0  0  0  0  0  0  0  0
  190.5640  176.6840  145.6530 C   0  0  0  0  0  1  0  0  0  0  0  0
  187.2160  178.0440  144.4410 C   0  0  0  0  0  0  0  0  0  0  0  0
  188.6150  177.5150  146.8620 C   0  0  0  0  0  3  0  0  0  0  0  0
  187.1110  178.2250  142.0110 C   0  0  0  0  0  0  0  0  0  0  0  0
  186.4760  178.3020  143.2660 C   0  0  1  0  0  3  0  0  0  0  0  0
  189.4220  177.8300  137.3930 C   0  0  1  0  0  3  0  0  0  0  0  0
  188.4300  177.9790  139.3730 C   0  0  1  0  0  3  0  0  0  0  0  0
  189.1820  178.9040  138.4340 C   0  0  0  0  0  2  0  0  0  0  0  0
  188.5790  176.5040  138.3190 S   0  0  0  0  0  0  0  0  0  0  0  0
  188.6440  178.1610  136.1320 C   0  0  0  0  0  2  0  0  0  0  0  0
  189.2950  177.5010  134.9290 C   0  0  0  0  0  2  0  0  0  0  0  0
  188.4150  173.8360  134.5970 O   0  0  0  0  0  0  0  0  0  0  0  0
  189.1360  174.9770  134.9190 C   0  0  0  0  0  0  0  0  0  0  0  0
  190.2570  174.8680  135.4840 O   0  0  0  0  0  1  0  0  0  0  0  0
  188.6020  176.2640  134.6030 N   0  0  0  0  0  2  0  0  0  0  0  0
  184.6000  179.9080  143.8340 N   0  0  0  0  0  1  0  0  0  0  0  0
  185.0270  178.6490  143.3230 C   0  0  0  0  0  0  0  0  0  0  0  0
  184.1620  177.8360  142.9030 O   0  0  0  0  0  0  0  0  0  0  0  0
  1 11  1  0  0  0  0
  2  7  1  6  0  0  0
  2  5  1  0  0  0  0
  4 15  1  0  0  0  0
  5 15  2  0  0  0  0
  5 11  1  0  0  0  0
  6 12  1  0  0  0  0
  6 14  1  0  0  0  0
  7  9  2  0  0  0  0
  8 13  1  0  0  0  0
  8  6  1  0  0  0  0
  9  1  1  0  0  0  0
 10  3  1  0  0  0  0
 11  8  2  0  0  0  0
 13 10  2  0  0  0  0
 14  3  2  0  0  0  0
 15 16  1  0  0  0  0
 16 28  1  6  0  0  0
 16 13  1  0  0  0  0
 17 21  1  6  0  0  0
 17 20  1  0  0  0  0
 17 19  1  0  0  0  0
 18 19  1  6  0  0  0
 18  2  1  0  0  0  0
 20 18  1  0  0  0  0
 22 21  1  0  0  0  0
 23 24  2  0  0  0  0
 24 25  1  0  0  0  0
 26 24  1  0  0  0  0
 26 22  1  0  0  0  0
 28 27  1  0  0  0  0
 29 28  2  0  0  0  0
M  END
>  <MODEL>
9

>  <REMARK>
 VINA RESULT:      -7.6      4.402      6.645
  Name = 
  5 active torsions:
  status: ('A' for Active; 'I' for Inactive)
    1  A    between atoms: C_2  and  C_5
    2  A    between atoms: C_2  and  N_29
    3  A    between atoms: C_3  and  C_17
    4  A    between atoms: C_5  and  C_10
    5  A    between atoms: C_16  and  C_28
                            x       y       z     vdW  Elec       q    Type
                         _______ _______ _______ _____ _____    ______ ____

>  <TORSDO>
F 5

$$$$
