=
 OpenBabel11032421043D

 59 64  0  0  1  0  0  0  0  0999 V2000
  190.1170  176.5840  137.7210 C   0  0  0  0  0  3  0  0  0  0  0  0
  189.1030  177.3650  140.2260 C   0  0  0  0  0  0  0  0  0  0  0  0
  191.3550  177.1340  141.1470 C   0  0  0  0  0  3  0  0  0  0  0  0
  188.7510  176.8490  137.8600 C   0  0  0  0  0  0  0  0  0  0  0  0
  189.5340  177.8160  142.5750 C   0  0  0  0  0  3  0  0  0  0  0  0
  188.2500  177.2350  139.1160 C   0  0  0  0  0  3  0  0  0  0  0  0
  190.4810  177.0640  140.0620 C   0  0  0  0  0  0  0  0  0  0  0  0
  190.8850  177.4960  142.4070 C   0  0  0  0  0  0  0  0  0  0  0  0
  190.9770  176.6880  138.8140 C   0  0  0  0  0  3  0  0  0  0  0  0
  188.6340  177.7650  141.5050 C   0  0  0  0  0  0  0  0  0  0  0  0
  186.9460  173.1370  134.8980 C   0  0  0  0  0  3  0  0  0  0  0  0
  186.9580  177.8520  136.4060 C   0  0  0  0  0  2  0  0  0  0  0  0
  184.5120  174.4320  135.3500 C   0  0  0  0  0  3  0  0  0  0  0  0
  186.9020  174.5350  134.9140 C   0  0  0  0  0  0  0  0  0  0  0  0
  188.5630  176.2580  135.3710 C   0  0  0  0  0  0  0  0  0  0  0  0
  188.1100  175.2670  134.6540 N   0  0  0  0  0  0  0  0  0  0  0  0
  185.5860  177.4000  136.1910 N   0  0  0  0  0  2  0  0  0  0  0  0
  185.5620  176.6100  135.0310 N   0  0  0  0  0  2  0  0  0  0  0  0
  184.5740  173.0370  135.3620 C   0  0  0  0  0  3  0  0  0  0  0  0
  187.8780  176.6640  136.6490 C   0  0  1  0  0  3  0  0  0  0  0  0
  185.6670  175.1880  135.1180 C   0  0  0  0  0  0  0  0  0  0  0  0
  185.7890  172.3890  135.1290 C   0  0  0  0  0  3  0  0  0  0  0  0
  189.6640  176.9930  134.9260 O   0  0  0  0  0  0  0  0  0  0  0  0
  190.8970  176.3770  134.5940 C   0  0  0  0  0  1  0  0  0  0  0  0
  186.5040  179.0050  141.1270 C   0  0  0  0  0  3  0  0  0  0  0  0
  187.2500  178.1630  141.8290 C   0  0  0  0  0  3  0  0  0  0  0  0
  184.1340  178.6220  141.1770 C   0  0  0  0  0  0  0  0  0  0  0  0
  183.1040  177.9450  140.7500 C   0  0  0  0  0  3  0  0  0  0  0  0
  185.1580  179.3060  141.6020 C   0  0  0  0  0  3  0  0  0  0  0  0
  181.8790  178.6550  140.2860 C   0  0  2  0  0  3  0  0  0  0  0  0
  179.6320  178.4280  141.0540 O   0  0  0  0  0  0  0  0  0  0  0  0
  180.8300  178.6670  141.3560 C   0  0  0  0  0  0  0  0  0  0  0  0
  181.1630  178.9520  142.6740 O   0  0  0  0  0  1  0  0  0  0  0  0
  181.3930  178.1240  138.9250 C   0  0  2  0  0  3  0  0  0  0  0  0
  181.4490  176.6300  138.8640 C   0  0  0  0  0  0  0  0  0  0  0  0
  182.5190  176.0360  138.5670 O   0  0  0  0  0  0  0  0  0  0  0  0
  180.3070  175.8930  139.1410 O   0  0  0  0  0  1  0  0  0  0  0  0
  182.0920  178.7460  137.7150 C   0  0  0  0  0  2  0  0  0  0  0  0
  179.6700  179.2470  137.2900 C   0  0  0  0  0  1  0  0  0  0  0  0
  181.0960  179.4100  136.7730 C   0  0  2  0  0  3  0  0  0  0  0  0
  179.9380  178.8760  134.6070 C   0  0  0  0  0  1  0  0  0  0  0  0
  181.2640  178.8830  135.3440 C   0  0  0  0  0  3  0  0  0  0  0  0
  181.8930  177.4980  135.2940 C   0  0  0  0  0  1  0  0  0  0  0  0
  191.8480  177.5820  143.5500 C   0  0  1  0  0  3  0  0  0  0  0  0
  191.2110  179.7710  143.7600 O   0  0  0  0  0  0  0  0  0  0  0  0
  191.6340  178.7950  144.3000 N   0  0  0  0  0  0  0  0  0  0  0  0
  191.6790  176.1380  144.6470 S   0  0  0  0  0  0  0  0  0  0  0  0
  191.3490  177.1580  146.1190 C   0  0  0  0  0  2  0  0  0  0  0  0
  191.1210  176.2950  147.3550 C   0  0  0  0  0  2  0  0  0  0  0  0
  189.6950  176.1910  147.6660 N   0  0  0  0  0  2  0  0  0  0  0  0
  189.0300  178.1940  148.7270 O   0  0  0  0  0  1  0  0  0  0  0  0
  189.0250  177.4880  147.5200 C   0  0  2  0  0  3  0  0  0  0  0  0
  185.1360  178.2200  144.7860 C   0  0  0  0  0  3  0  0  0  0  0  0
  186.4160  177.4370  144.8050 C   0  0  0  0  0  2  0  0  0  0  0  0
  185.3960  178.4650  147.2120 C   0  0  0  0  0  2  0  0  0  0  0  0
  187.6060  177.3380  146.9900 C   0  0  2  0  0  3  0  0  0  0  0  0
  184.6500  178.7090  145.9310 C   0  0  0  0  0  3  0  0  0  0  0  0
  187.4650  178.1180  145.6960 C   0  0  2  0  0  3  0  0  0  0  0  0
  186.9050  178.6820  147.0200 C   0  0  1  0  0  3  0  0  0  0  0  0
  1  4  2  0  0  0  0
  1  9  1  0  0  0  0
  2 10  1  0  0  0  0
  3  8  2  0  0  0  0
  4  6  1  0  0  0  0
  6  2  2  0  0  0  0
  7  2  1  0  0  0  0
  7  3  1  0  0  0  0
  8  5  1  0  0  0  0
  8 44  1  0  0  0  0
  9  7  2  0  0  0  0
 10 26  1  0  0  0  0
 10  5  2  0  0  0  0
 11 14  2  0  0  0  0
 11 22  1  0  0  0  0
 12 20  1  0  0  0  0
 13 19  1  0  0  0  0
 14 21  1  0  0  0  0
 15 20  1  0  0  0  0
 16 14  1  0  0  0  0
 16 15  2  0  0  0  0
 17 12  1  0  0  0  0
 18 21  1  0  0  0  0
 18 17  1  0  0  0  0
 20  4  1  1  0  0  0
 21 13  2  0  0  0  0
 22 19  2  0  0  0  0
 23 15  1  0  0  0  0
 24 23  1  0  0  0  0
 25 29  1  0  0  0  0
 25 26  2  0  0  0  0
 27 29  2  0  0  0  0
 28 27  2  0  0  0  0
 30 28  1  1  0  0  0
 30 32  1  0  0  0  0
 31 32  2  0  0  0  0
 32 33  1  0  0  0  0
 34 38  1  6  0  0  0
 34 30  1  0  0  0  0
 35 34  1  0  0  0  0
 35 37  1  0  0  0  0
 36 35  2  0  0  0  0
 40 39  1  1  0  0  0
 40 38  1  0  0  0  0
 41 42  1  0  0  0  0
 42 40  1  0  0  0  0
 43 42  1  0  0  0  0
 44 46  1  1  0  0  0
 44 47  1  0  0  0  0
 45 46  2  0  0  0  0
 47 48  1  0  0  0  0
 48 49  1  0  0  0  0
 49 50  1  0  0  0  0
 52 50  1  0  0  0  0
 52 51  1  1  0  0  0
 53 54  1  0  0  0  0
 53 57  2  0  0  0  0
 56 59  1  0  0  0  0
 56 52  1  1  0  0  0
 57 55  1  0  0  0  0
 58 54  1  6  0  0  0
 58 56  1  0  0  0  0
 58 59  1  0  0  0  0
 59 55  1  6  0  0  0
M  END
>  <MODEL>
1

>  <REMARK>
 VINA RESULT:      -8.2      0.000      0.000
  Name = 
  19 active torsions:
  status: ('A' for Active; 'I' for Inactive)
    1  A    between atoms: C_4  and  C_53
    2  A    between atoms: C_6  and  C_37
    3  A    between atoms: N_8  and  C_43
    4  A    between atoms: N_8  and  C_58
    5  A    between atoms: C_9  and  C_32
    6  A    between atoms: C_9  and  C_53
    7  A    between atoms: C_14  and  O_18
    8  A    between atoms: C_16  and  C_46
    9  A    between atoms: C_17  and  C_54
   10  A    between atoms: S_21  and  C_28
   11  A    between atoms: S_21  and  C_31
   12  A    between atoms: C_27  and  C_58
   13  A    between atoms: C_28  and  C_35
   14  A    between atoms: C_28  and  N_36
   15  A    between atoms: C_31  and  C_43
   16  A    between atoms: C_32  and  C_52
   17  A    between atoms: C_34  and  C_37
   18  A    between atoms: C_37  and  C_53
   19  A    between atoms: C_42  and  C_59
                            x       y       z     vdW  Elec       q    Type
                         _______ _______ _______ _____ _____    ______ ____

>  <TORSDO>
F 19

$$$$
=
 OpenBabel11032421043D

 59 64  0  0  1  0  0  0  0  0999 V2000
  182.5490  177.2490  135.2980 C   0  0  0  0  0  3  0  0  0  0  0  0
  184.8510  177.3880  136.9080 C   0  0  0  0  0  0  0  0  0  0  0  0
  186.1130  176.3420  135.0970 C   0  0  0  0  0  3  0  0  0  0  0  0
  182.4550  177.7700  136.5920 C   0  0  0  0  0  0  0  0  0  0  0  0
  187.2260  176.9330  137.1550 C   0  0  0  0  0  3  0  0  0  0  0  0
  183.6080  177.8340  137.3940 C   0  0  0  0  0  3  0  0  0  0  0  0
  184.9120  176.8390  135.6010 C   0  0  0  0  0  0  0  0  0  0  0  0
  187.2700  176.3750  135.8740 C   0  0  0  0  0  0  0  0  0  0  0  0
  183.7670  176.7840  134.8060 C   0  0  0  0  0  3  0  0  0  0  0  0
  186.0380  177.4490  137.6850 C   0  0  0  0  0  0  0  0  0  0  0  0
  179.7030  177.9140  140.8610 C   0  0  0  0  0  3  0  0  0  0  0  0
  180.4450  179.2180  136.1430 C   0  0  0  0  0  2  0  0  0  0  0  0
  179.2960  180.5720  140.0980 C   0  0  0  0  0  3  0  0  0  0  0  0
  179.5000  178.2200  139.5110 C   0  0  0  0  0  0  0  0  0  0  0  0
  180.1210  177.1140  137.4310 C   0  0  0  0  0  0  0  0  0  0  0  0
  179.4650  177.1470  138.5570 N   0  0  0  0  0  0  0  0  0  0  0  0
  179.9440  180.3590  136.9030 N   0  0  0  0  0  2  0  0  0  0  0  0
  178.9490  179.8990  137.7800 N   0  0  0  0  0  2  0  0  0  0  0  0
  179.5300  180.2570  141.4380 C   0  0  0  0  0  3  0  0  0  0  0  0
  181.0960  178.2040  137.0720 C   0  0  1  0  0  3  0  0  0  0  0  0
  179.2700  179.5610  139.1310 C   0  0  0  0  0  0  0  0  0  0  0  0
  179.7270  178.9280  141.8220 C   0  0  0  0  0  3  0  0  0  0  0  0
  179.8800  176.0880  136.5140 O   0  0  0  0  0  0  0  0  0  0  0  0
  179.3490  176.3410  135.2240 C   0  0  0  0  0  1  0  0  0  0  0  0
  185.2270  178.7570  139.6470 C   0  0  0  0  0  3  0  0  0  0  0  0
  186.1560  178.0370  139.0350 C   0  0  0  0  0  3  0  0  0  0  0  0
  185.6270  178.4820  141.9990 C   0  0  0  0  0  0  0  0  0  0  0  0
  185.7330  177.6870  143.0270 C   0  0  0  0  0  3  0  0  0  0  0  0
  185.5160  179.2820  140.9770 C   0  0  0  0  0  3  0  0  0  0  0  0
  185.0150  177.9990  144.2950 C   0  0  2  0  0  3  0  0  0  0  0  0
  183.0550  179.3450  144.0980 O   0  0  0  0  0  0  0  0  0  0  0  0
  184.3090  179.3180  144.1980 C   0  0  0  0  0  0  0  0  0  0  0  0
  185.0240  180.5090  144.2050 O   0  0  0  0  0  1  0  0  0  0  0  0
  185.9360  177.8600  145.5200 C   0  0  2  0  0  3  0  0  0  0  0  0
  185.3800  178.5710  146.7120 C   0  0  0  0  0  0  0  0  0  0  0  0
  184.2480  178.2670  147.1750 O   0  0  0  0  0  0  0  0  0  0  0  0
  186.1220  179.5760  147.3150 O   0  0  0  0  0  1  0  0  0  0  0  0
  187.3890  178.2660  145.2700 C   0  0  0  0  0  2  0  0  0  0  0  0
  188.8330  177.2970  147.0810 C   0  0  0  0  0  1  0  0  0  0  0  0
  188.3550  177.1470  145.6400 C   0  0  2  0  0  3  0  0  0  0  0  0
  190.0860  178.4590  144.3760 C   0  0  0  0  0  1  0  0  0  0  0  0
  189.5160  177.0780  144.6420 C   0  0  0  0  0  3  0  0  0  0  0  0
  189.1280  176.4150  143.3280 C   0  0  0  0  0  1  0  0  0  0  0  0
  188.5500  175.8520  135.3010 C   0  0  1  0  0  3  0  0  0  0  0  0
  189.7540  177.7970  135.2090 O   0  0  0  0  0  0  0  0  0  0  0  0
  189.2550  176.8990  134.6030 N   0  0  0  0  0  0  0  0  0  0  0  0
  189.6100  175.1610  136.6120 S   0  0  0  0  0  0  0  0  0  0  0  0
  190.1820  173.7790  135.5720 C   0  0  0  0  0  2  0  0  0  0  0  0
  189.2290  172.5910  135.6520 C   0  0  0  0  0  2  0  0  0  0  0  0
  188.1900  172.8200  136.6560 N   0  0  0  0  0  2  0  0  0  0  0  0
  187.1040  171.3900  135.1220 O   0  0  0  0  0  1  0  0  0  0  0  0
  186.9570  172.1040  136.3150 C   0  0  2  0  0  3  0  0  0  0  0  0
  182.6630  174.0210  137.3300 C   0  0  0  0  0  3  0  0  0  0  0  0
  184.0940  174.0620  137.7820 C   0  0  0  0  0  2  0  0  0  0  0  0
  183.4890  173.0960  135.2150 C   0  0  0  0  0  2  0  0  0  0  0  0
  185.7590  173.0410  136.2380 C   0  0  2  0  0  3  0  0  0  0  0  0
  182.3750  173.5620  136.1090 C   0  0  0  0  0  3  0  0  0  0  0  0
  184.8280  172.7680  137.4050 C   0  0  2  0  0  3  0  0  0  0  0  0
  184.4970  172.2370  135.9930 C   0  0  1  0  0  3  0  0  0  0  0  0
  1  4  1  0  0  0  0
  2  6  1  0  0  0  0
  2 10  1  0  0  0  0
  3  7  1  0  0  0  0
  3  8  2  0  0  0  0
  4  6  2  0  0  0  0
  5 10  2  0  0  0  0
  7  2  2  0  0  0  0
  8  5  1  0  0  0  0
  9  1  2  0  0  0  0
  9  7  1  0  0  0  0
 10 26  1  0  0  0  0
 11 22  1  0  0  0  0
 12 17  1  0  0  0  0
 12 20  1  0  0  0  0
 13 19  1  0  0  0  0
 14 11  2  0  0  0  0
 15 16  2  0  0  0  0
 16 14  1  0  0  0  0
 17 18  1  0  0  0  0
 18 21  1  0  0  0  0
 19 22  2  0  0  0  0
 20  4  1  6  0  0  0
 20 15  1  0  0  0  0
 21 14  1  0  0  0  0
 21 13  2  0  0  0  0
 23 15  1  0  0  0  0
 24 23  1  0  0  0  0
 25 29  1  0  0  0  0
 26 25  2  0  0  0  0
 27 28  2  0  0  0  0
 29 27  2  0  0  0  0
 30 28  1  6  0  0  0
 30 34  1  0  0  0  0
 31 32  2  0  0  0  0
 32 33  1  0  0  0  0
 32 30  1  0  0  0  0
 34 38  1  6  0  0  0
 34 35  1  0  0  0  0
 35 36  2  0  0  0  0
 35 37  1  0  0  0  0
 38 40  1  0  0  0  0
 40 39  1  1  0  0  0
 41 42  1  0  0  0  0
 42 40  1  0  0  0  0
 43 42  1  0  0  0  0
 44 46  1  1  0  0  0
 44  8  1  0  0  0  0
 44 47  1  0  0  0  0
 46 45  2  0  0  0  0
 48 49  1  0  0  0  0
 48 47  1  0  0  0  0
 49 50  1  0  0  0  0
 52 51  1  6  0  0  0
 52 50  1  0  0  0  0
 53 54  1  0  0  0  0
 55 57  1  0  0  0  0
 56 52  1  1  0  0  0
 56 58  1  0  0  0  0
 57 53  2  0  0  0  0
 58 54  1  6  0  0  0
 59 55  1  6  0  0  0
 59 56  1  0  0  0  0
 59 58  1  0  0  0  0
M  END
>  <MODEL>
2

>  <REMARK>
 VINA RESULT:      -7.4      3.197      9.205
  Name = 
  19 active torsions:
  status: ('A' for Active; 'I' for Inactive)
    1  A    between atoms: C_4  and  C_53
    2  A    between atoms: C_6  and  C_37
    3  A    between atoms: N_8  and  C_43
    4  A    between atoms: N_8  and  C_58
    5  A    between atoms: C_9  and  C_32
    6  A    between atoms: C_9  and  C_53
    7  A    between atoms: C_14  and  O_18
    8  A    between atoms: C_16  and  C_46
    9  A    between atoms: C_17  and  C_54
   10  A    between atoms: S_21  and  C_28
   11  A    between atoms: S_21  and  C_31
   12  A    between atoms: C_27  and  C_58
   13  A    between atoms: C_28  and  C_35
   14  A    between atoms: C_28  and  N_36
   15  A    between atoms: C_31  and  C_43
   16  A    between atoms: C_32  and  C_52
   17  A    between atoms: C_34  and  C_37
   18  A    between atoms: C_37  and  C_53
   19  A    between atoms: C_42  and  C_59
                            x       y       z     vdW  Elec       q    Type
                         _______ _______ _______ _____ _____    ______ ____

>  <TORSDO>
F 19

$$$$
=
 OpenBabel11032421043D

 59 64  0  0  1  0  0  0  0  0999 V2000
  185.0140  176.6180  135.9580 C   0  0  0  0  0  3  0  0  0  0  0  0
  183.8630  177.3300  138.4240 C   0  0  0  0  0  0  0  0  0  0  0  0
  181.6760  176.7340  137.5120 C   0  0  0  0  0  3  0  0  0  0  0  0
  185.8270  177.1160  136.9810 C   0  0  0  0  0  0  0  0  0  0  0  0
  181.8540  177.5540  139.7750 C   0  0  0  0  0  3  0  0  0  0  0  0
  185.2450  177.4740  138.2100 C   0  0  0  0  0  3  0  0  0  0  0  0
  183.0570  176.8470  137.3600 C   0  0  0  0  0  0  0  0  0  0  0  0
  181.0680  177.0980  138.7120 C   0  0  0  0  0  0  0  0  0  0  0  0
  183.6380  176.4860  136.1440 C   0  0  0  0  0  3  0  0  0  0  0  0
  183.2430  177.6700  139.6560 C   0  0  0  0  0  0  0  0  0  0  0  0
  190.1880  174.5450  137.4200 C   0  0  0  0  0  3  0  0  0  0  0  0
  187.5650  178.3480  135.6400 C   0  0  0  0  0  2  0  0  0  0  0  0
  190.4840  175.2720  134.7380 C   0  0  0  0  0  3  0  0  0  0  0  0
  189.8000  175.8230  137.0060 C   0  0  0  0  0  0  0  0  0  0  0  0
  188.2090  177.4540  137.8710 C   0  0  0  0  0  0  0  0  0  0  0  0
  189.2980  176.7440  137.9870 N   0  0  0  0  0  0  0  0  0  0  0  0
  188.4660  177.8370  134.6110 N   0  0  0  0  0  2  0  0  0  0  0  0
  189.6940  177.5290  135.2170 N   0  0  0  0  0  2  0  0  0  0  0  0
  190.8380  173.9870  135.1580 C   0  0  0  0  0  3  0  0  0  0  0  0
  187.2940  177.2780  136.6880 C   0  0  1  0  0  3  0  0  0  0  0  0
  189.9740  176.1970  135.6550 C   0  0  0  0  0  0  0  0  0  0  0  0
  190.6970  173.6260  136.5000 C   0  0  0  0  0  3  0  0  0  0  0  0
  187.9110  178.4320  138.8220 O   0  0  0  0  0  0  0  0  0  0  0  0
  188.6340  178.5470  140.0360 C   0  0  0  0  0  1  0  0  0  0  0  0
  185.1760  178.6090  140.9210 C   0  0  0  0  0  3  0  0  0  0  0  0
  183.9410  178.1320  140.8730 C   0  0  0  0  0  3  0  0  0  0  0  0
  186.5920  178.2510  142.8270 C   0  0  0  0  0  0  0  0  0  0  0  0
  187.4580  177.4990  143.4480 C   0  0  0  0  0  3  0  0  0  0  0  0
  185.7230  179.0030  142.2150 C   0  0  0  0  0  3  0  0  0  0  0  0
  187.2760  177.1800  144.8920 C   0  0  2  0  0  3  0  0  0  0  0  0
  185.1090  177.3710  145.8720 O   0  0  0  0  0  1  0  0  0  0  0  0
  186.1420  177.9680  145.4750 C   0  0  0  0  0  0  0  0  0  0  0  0
  186.2140  179.3530  145.5680 O   0  0  0  0  0  0  0  0  0  0  0  0
  188.5970  177.2950  145.6720 C   0  0  2  0  0  3  0  0  0  0  0  0
  188.3700  177.2680  147.1500 C   0  0  0  0  0  0  0  0  0  0  0  0
  188.1140  176.1860  147.7440 O   0  0  0  0  0  0  0  0  0  0  0  0
  188.4430  178.4490  147.8740 O   0  0  0  0  0  1  0  0  0  0  0  0
  189.4660  178.4900  145.2750 C   0  0  0  0  0  2  0  0  0  0  0  0
  191.5660  178.8610  143.9510 C   0  0  0  0  0  1  0  0  0  0  0  0
  190.9250  178.0870  145.0980 C   0  0  2  0  0  3  0  0  0  0  0  0
  192.0130  175.9850  145.9440 C   0  0  0  0  0  1  0  0  0  0  0  0
  191.0530  176.5690  144.9250 C   0  0  0  0  0  3  0  0  0  0  0  0
  191.4790  176.1680  143.5200 C   0  0  0  0  0  1  0  0  0  0  0  0
  179.5850  176.9470  138.8560 C   0  0  1  0  0  3  0  0  0  0  0  0
  179.5320  179.1620  138.2800 O   0  0  0  0  0  0  0  0  0  0  0  0
  178.9320  178.2230  138.7080 N   0  0  0  0  0  0  0  0  0  0  0  0
  178.9340  175.7730  137.6250 S   0  0  0  0  0  0  0  0  0  0  0  0
  179.9580  174.3960  138.2350 C   0  0  0  0  0  2  0  0  0  0  0  0
  179.8450  173.1740  137.3290 C   0  0  0  0  0  2  0  0  0  0  0  0
  180.5040  173.4110  136.0450 N   0  0  0  0  0  2  0  0  0  0  0  0
  181.3960  171.3040  136.6300 O   0  0  0  0  0  1  0  0  0  0  0  0
  181.5500  172.4140  135.7940 C   0  0  2  0  0  3  0  0  0  0  0  0
  186.3400  172.6160  136.1830 C   0  0  0  0  0  3  0  0  0  0  0  0
  185.2580  172.5260  135.1470 C   0  0  0  0  0  2  0  0  0  0  0  0
  184.6210  173.4410  137.7260 C   0  0  0  0  0  2  0  0  0  0  0  0
  182.9450  173.0060  135.9350 C   0  0  2  0  0  3  0  0  0  0  0  0
  186.0370  173.0510  137.4100 C   0  0  0  0  0  3  0  0  0  0  0  0
  183.9800  171.9140  135.7380 C   0  0  2  0  0  3  0  0  0  0  0  0
  183.6290  172.4170  137.1540 C   0  0  1  0  0  3  0  0  0  0  0  0
  1  9  2  0  0  0  0
  1  4  1  0  0  0  0
  2 10  1  0  0  0  0
  3  8  2  0  0  0  0
  4  6  2  0  0  0  0
  6  2  1  0  0  0  0
  7  3  1  0  0  0  0
  7  2  2  0  0  0  0
  8 44  1  0  0  0  0
  8  5  1  0  0  0  0
  9  7  1  0  0  0  0
 10  5  2  0  0  0  0
 10 26  1  0  0  0  0
 12 20  1  0  0  0  0
 13 19  2  0  0  0  0
 13 21  1  0  0  0  0
 14 11  1  0  0  0  0
 14 16  1  0  0  0  0
 15 16  2  0  0  0  0
 15 23  1  0  0  0  0
 17 18  1  0  0  0  0
 17 12  1  0  0  0  0
 18 21  1  0  0  0  0
 19 22  1  0  0  0  0
 20  4  1  1  0  0  0
 20 15  1  0  0  0  0
 21 14  2  0  0  0  0
 22 11  2  0  0  0  0
 23 24  1  0  0  0  0
 25 29  1  0  0  0  0
 26 25  2  0  0  0  0
 27 28  2  0  0  0  0
 29 27  2  0  0  0  0
 30 28  1  6  0  0  0
 30 32  1  0  0  0  0
 30 34  1  0  0  0  0
 32 33  2  0  0  0  0
 32 31  1  0  0  0  0
 34 38  1  1  0  0  0
 34 35  1  0  0  0  0
 35 36  2  0  0  0  0
 35 37  1  0  0  0  0
 40 39  1  6  0  0  0
 40 38  1  0  0  0  0
 42 40  1  0  0  0  0
 42 41  1  0  0  0  0
 43 42  1  0  0  0  0
 44 47  1  6  0  0  0
 45 46  2  0  0  0  0
 46 44  1  0  0  0  0
 47 48  1  0  0  0  0
 49 48  1  0  0  0  0
 50 49  1  0  0  0  0
 52 50  1  0  0  0  0
 52 51  1  1  0  0  0
 53 57  2  0  0  0  0
 54 53  1  0  0  0  0
 56 52  1  1  0  0  0
 56 59  1  0  0  0  0
 57 55  1  0  0  0  0
 58 54  1  6  0  0  0
 58 56  1  0  0  0  0
 58 59  1  0  0  0  0
 59 55  1  6  0  0  0
M  END
>  <MODEL>
3

>  <REMARK>
 VINA RESULT:      -7.4      3.275      9.563
  Name = 
  19 active torsions:
  status: ('A' for Active; 'I' for Inactive)
    1  A    between atoms: C_4  and  C_53
    2  A    between atoms: C_6  and  C_37
    3  A    between atoms: N_8  and  C_43
    4  A    between atoms: N_8  and  C_58
    5  A    between atoms: C_9  and  C_32
    6  A    between atoms: C_9  and  C_53
    7  A    between atoms: C_14  and  O_18
    8  A    between atoms: C_16  and  C_46
    9  A    between atoms: C_17  and  C_54
   10  A    between atoms: S_21  and  C_28
   11  A    between atoms: S_21  and  C_31
   12  A    between atoms: C_27  and  C_58
   13  A    between atoms: C_28  and  C_35
   14  A    between atoms: C_28  and  N_36
   15  A    between atoms: C_31  and  C_43
   16  A    between atoms: C_32  and  C_52
   17  A    between atoms: C_34  and  C_37
   18  A    between atoms: C_37  and  C_53
   19  A    between atoms: C_42  and  C_59
                            x       y       z     vdW  Elec       q    Type
                         _______ _______ _______ _____ _____    ______ ____

>  <TORSDO>
F 19

$$$$
=
 OpenBabel11032421043D

 59 64  0  0  1  0  0  0  0  0999 V2000
  185.2760  176.7200  135.1380 C   0  0  0  0  0  3  0  0  0  0  0  0
  187.1410  177.0980  137.2090 C   0  0  0  0  0  0  0  0  0  0  0  0
  188.8820  176.2510  135.7200 C   0  0  0  0  0  3  0  0  0  0  0  0
  184.8420  177.1980  136.3790 C   0  0  0  0  0  0  0  0  0  0  0  0
  189.4440  176.9250  137.9670 C   0  0  0  0  0  3  0  0  0  0  0  0
  185.7780  177.3810  137.4110 C   0  0  0  0  0  3  0  0  0  0  0  0
  187.5500  176.5900  135.9490 C   0  0  0  0  0  0  0  0  0  0  0  0
  189.8310  176.4050  136.7290 C   0  0  0  0  0  0  0  0  0  0  0  0
  186.6190  176.4160  134.9240 C   0  0  0  0  0  3  0  0  0  0  0  0
  188.1160  177.2830  138.2250 C   0  0  0  0  0  0  0  0  0  0  0  0
  181.7050  180.3670  138.8150 C   0  0  0  0  0  3  0  0  0  0  0  0
  182.5370  176.8570  135.4250 C   0  0  0  0  0  2  0  0  0  0  0  0
  180.5440  180.6090  136.2850 C   0  0  0  0  0  3  0  0  0  0  0  0
  181.5760  179.2340  138.0050 C   0  0  0  0  0  0  0  0  0  0  0  0
  182.7690  177.1130  137.8880 C   0  0  0  0  0  0  0  0  0  0  0  0
  182.0090  177.9650  138.5180 N   0  0  0  0  0  0  0  0  0  0  0  0
  181.6020  177.8480  134.8990 N   0  0  0  0  0  2  0  0  0  0  0  0
  180.7160  178.2030  135.9270 N   0  0  0  0  0  2  0  0  0  0  0  0
  180.7070  181.7390  137.0910 C   0  0  0  0  0  3  0  0  0  0  0  0
  183.3690  177.4540  136.5500 C   0  0  1  0  0  3  0  0  0  0  0  0
  180.9660  179.3540  136.7370 C   0  0  0  0  0  0  0  0  0  0  0  0
  181.2800  181.6170  138.3590 C   0  0  0  0  0  3  0  0  0  0  0  0
  182.9890  175.8430  138.4280 O   0  0  0  0  0  0  0  0  0  0  0  0
  182.3720  174.6830  137.8960 C   0  0  0  0  0  1  0  0  0  0  0  0
  186.8380  178.6160  139.9010 C   0  0  0  0  0  3  0  0  0  0  0  0
  187.8670  177.8510  139.5660 C   0  0  0  0  0  3  0  0  0  0  0  0
  186.7510  178.2860  142.2780 C   0  0  0  0  0  0  0  0  0  0  0  0
  186.7400  177.4630  143.2910 C   0  0  0  0  0  3  0  0  0  0  0  0
  186.7550  179.1110  141.2710 C   0  0  0  0  0  3  0  0  0  0  0  0
  185.7270  177.6190  144.3720 C   0  0  2  0  0  3  0  0  0  0  0  0
  183.5650  178.4630  143.8220 O   0  0  0  0  0  0  0  0  0  0  0  0
  184.7720  178.7300  144.0550 C   0  0  0  0  0  0  0  0  0  0  0  0
  185.2070  180.0480  144.0020 O   0  0  0  0  0  1  0  0  0  0  0  0
  186.3870  177.7250  145.7590 C   0  0  2  0  0  3  0  0  0  0  0  0
  185.5400  178.5050  146.7150 C   0  0  0  0  0  0  0  0  0  0  0  0
  184.4160  178.0710  147.0830 O   0  0  0  0  0  0  0  0  0  0  0  0
  186.0020  179.7190  147.2010 O   0  0  0  0  0  1  0  0  0  0  0  0
  187.8210  178.2570  145.7400 C   0  0  0  0  0  2  0  0  0  0  0  0
  189.2270  177.1450  147.4980 C   0  0  0  0  0  1  0  0  0  0  0  0
  188.8310  177.1520  146.0250 C   0  0  2  0  0  3  0  0  0  0  0  0
  190.1960  178.6890  144.5790 C   0  0  0  0  0  1  0  0  0  0  0  0
  190.0430  177.2710  145.0930 C   0  0  0  0  0  3  0  0  0  0  0  0
  189.9880  176.2980  143.9240 C   0  0  0  0  0  1  0  0  0  0  0  0
  191.2590  176.0520  136.4500 C   0  0  1  0  0  3  0  0  0  0  0  0
  191.8450  174.4510  137.9770 O   0  0  0  0  0  0  0  0  0  0  0  0
  191.9110  175.5970  137.6530 N   0  0  0  0  0  0  0  0  0  0  0  0
  191.3670  174.7660  135.1640 S   0  0  0  0  0  0  0  0  0  0  0  0
  193.1040  175.1490  134.7730 C   0  0  0  0  0  2  0  0  0  0  0  0
  193.9280  173.8790  134.5940 C   0  0  0  0  0  2  0  0  0  0  0  0
  194.2240  173.2610  135.8860 N   0  0  0  0  0  2  0  0  0  0  0  0
  195.4550  171.2600  135.6460 O   0  0  0  0  0  1  0  0  0  0  0  0
  195.5500  172.6340  135.8830 C   0  0  2  0  0  3  0  0  0  0  0  0
  197.1100  174.9760  139.7850 C   0  0  0  0  0  3  0  0  0  0  0  0
  195.9630  174.1300  139.3150 C   0  0  0  0  0  2  0  0  0  0  0  0
  198.3950  174.0540  137.9100 C   0  0  0  0  0  2  0  0  0  0  0  0
  196.3100  172.9070  137.1730 C   0  0  2  0  0  3  0  0  0  0  0  0
  198.2670  174.9400  139.1170 C   0  0  0  0  0  3  0  0  0  0  0  0
  195.8140  174.2030  137.7880 C   0  0  2  0  0  3  0  0  0  0  0  0
  197.1500  174.1600  137.0160 C   0  0  1  0  0  3  0  0  0  0  0  0
  1  4  1  0  0  0  0
  2  6  1  0  0  0  0
  2 10  1  0  0  0  0
  3  7  1  0  0  0  0
  3  8  2  0  0  0  0
  4  6  2  0  0  0  0
  5 10  2  0  0  0  0
  7  2  2  0  0  0  0
  8  5  1  0  0  0  0
  9  1  2  0  0  0  0
  9  7  1  0  0  0  0
 10 26  1  0  0  0  0
 12 20  1  0  0  0  0
 13 21  2  0  0  0  0
 13 19  1  0  0  0  0
 14 16  1  0  0  0  0
 14 11  2  0  0  0  0
 15 23  1  0  0  0  0
 15 16  2  0  0  0  0
 17 12  1  0  0  0  0
 17 18  1  0  0  0  0
 18 21  1  0  0  0  0
 19 22  2  0  0  0  0
 20  4  1  1  0  0  0
 20 15  1  0  0  0  0
 21 14  1  0  0  0  0
 22 11  1  0  0  0  0
 24 23  1  0  0  0  0
 25 29  1  0  0  0  0
 26 25  2  0  0  0  0
 27 28  2  0  0  0  0
 29 27  2  0  0  0  0
 30 28  1  6  0  0  0
 30 34  1  0  0  0  0
 31 32  2  0  0  0  0
 32 30  1  0  0  0  0
 33 32  1  0  0  0  0
 34 38  1  6  0  0  0
 34 35  1  0  0  0  0
 35 36  2  0  0  0  0
 35 37  1  0  0  0  0
 38 40  1  0  0  0  0
 40 39  1  1  0  0  0
 41 42  1  0  0  0  0
 42 40  1  0  0  0  0
 43 42  1  0  0  0  0
 44 47  1  6  0  0  0
 44  8  1  0  0  0  0
 44 46  1  0  0  0  0
 46 45  2  0  0  0  0
 48 47  1  0  0  0  0
 49 48  1  0  0  0  0
 49 50  1  0  0  0  0
 52 51  1  1  0  0  0
 52 50  1  0  0  0  0
 54 53  1  0  0  0  0
 55 57  1  0  0  0  0
 56 52  1  6  0  0  0
 56 58  1  0  0  0  0
 57 53  2  0  0  0  0
 58 54  1  1  0  0  0
 59 56  1  0  0  0  0
 59 58  1  0  0  0  0
 59 55  1  1  0  0  0
M  END
>  <MODEL>
4

>  <REMARK>
 VINA RESULT:      -7.1      3.728      9.278
  Name = 
  19 active torsions:
  status: ('A' for Active; 'I' for Inactive)
    1  A    between atoms: C_4  and  C_53
    2  A    between atoms: C_6  and  C_37
    3  A    between atoms: N_8  and  C_43
    4  A    between atoms: N_8  and  C_58
    5  A    between atoms: C_9  and  C_32
    6  A    between atoms: C_9  and  C_53
    7  A    between atoms: C_14  and  O_18
    8  A    between atoms: C_16  and  C_46
    9  A    between atoms: C_17  and  C_54
   10  A    between atoms: S_21  and  C_28
   11  A    between atoms: S_21  and  C_31
   12  A    between atoms: C_27  and  C_58
   13  A    between atoms: C_28  and  C_35
   14  A    between atoms: C_28  and  N_36
   15  A    between atoms: C_31  and  C_43
   16  A    between atoms: C_32  and  C_52
   17  A    between atoms: C_34  and  C_37
   18  A    between atoms: C_37  and  C_53
   19  A    between atoms: C_42  and  C_59
                            x       y       z     vdW  Elec       q    Type
                         _______ _______ _______ _____ _____    ______ ____

>  <TORSDO>
F 19

$$$$
=
 OpenBabel11032421043D

 59 64  0  0  1  0  0  0  0  0999 V2000
  183.6400  177.0310  135.8320 C   0  0  0  0  0  3  0  0  0  0  0  0
  186.1150  177.1810  137.1620 C   0  0  0  0  0  0  0  0  0  0  0  0
  187.0810  175.7890  135.4020 C   0  0  0  0  0  3  0  0  0  0  0  0
  183.7340  177.7300  137.0400 C   0  0  0  0  0  0  0  0  0  0  0  0
  188.4620  176.5520  137.2280 C   0  0  0  0  0  3  0  0  0  0  0  0
  184.9720  177.7980  137.7020 C   0  0  0  0  0  3  0  0  0  0  0  0
  185.9860  176.4560  135.9480 C   0  0  0  0  0  0  0  0  0  0  0  0
  188.3180  175.8230  136.0430 C   0  0  0  0  0  0  0  0  0  0  0  0
  184.7570  176.3960  135.2900 C   0  0  0  0  0  3  0  0  0  0  0  0
  187.3840  177.2390  137.7960 C   0  0  0  0  0  0  0  0  0  0  0  0
  181.4250  182.2460  137.3480 C   0  0  0  0  0  3  0  0  0  0  0  0
  181.3740  177.3170  137.8150 C   0  0  0  0  0  2  0  0  0  0  0  0
  179.2360  180.8040  136.3780 C   0  0  0  0  0  3  0  0  0  0  0  0
  181.1890  180.9500  137.8200 C   0  0  0  0  0  0  0  0  0  0  0  0
  182.6200  179.2350  138.7940 C   0  0  0  0  0  0  0  0  0  0  0  0
  182.0600  180.4130  138.8270 N   0  0  0  0  0  0  0  0  0  0  0  0
  180.1190  177.7760  137.2270 N   0  0  0  0  0  2  0  0  0  0  0  0
  179.7310  178.9530  137.8860 N   0  0  0  0  0  2  0  0  0  0  0  0
  179.5000  182.0860  135.8910 C   0  0  0  0  0  3  0  0  0  0  0  0
  182.4740  178.3440  137.5890 C   0  0  1  0  0  3  0  0  0  0  0  0
  180.0680  180.2330  137.3470 C   0  0  0  0  0  0  0  0  0  0  0  0
  180.5900  182.8100  136.3810 C   0  0  0  0  0  3  0  0  0  0  0  0
  183.3170  178.7630  139.9080 O   0  0  0  0  0  0  0  0  0  0  0  0
  182.6940  178.5940  141.1700 C   0  0  0  0  0  1  0  0  0  0  0  0
  186.9170  178.0880  140.0940 C   0  0  0  0  0  3  0  0  0  0  0  0
  187.6980  177.9920  139.0270 C   0  0  0  0  0  3  0  0  0  0  0  0
  188.5090  178.6350  141.8080 C   0  0  0  0  0  0  0  0  0  0  0  0
  189.6410  178.3780  142.4020 C   0  0  0  0  0  3  0  0  0  0  0  0
  187.3740  178.8930  141.2220 C   0  0  0  0  0  3  0  0  0  0  0  0
  189.7070  178.2990  143.8890 C   0  0  2  0  0  3  0  0  0  0  0  0
  191.6630  179.6580  144.0200 O   0  0  0  0  0  0  0  0  0  0  0  0
  191.0910  178.5960  144.3790 C   0  0  0  0  0  0  0  0  0  0  0  0
  191.7560  177.7070  145.2150 O   0  0  0  0  0  1  0  0  0  0  0  0
  189.1160  176.9780  144.4150 C   0  0  2  0  0  3  0  0  0  0  0  0
  189.3520  175.8500  143.4630 C   0  0  0  0  0  0  0  0  0  0  0  0
  190.5190  175.4340  143.2320 O   0  0  0  0  0  1  0  0  0  0  0  0
  188.2710  175.2540  142.8280 O   0  0  0  0  0  0  0  0  0  0  0  0
  187.6410  177.0580  144.8140 C   0  0  0  0  0  2  0  0  0  0  0  0
  187.6610  177.6760  147.2470 C   0  0  0  0  0  1  0  0  0  0  0  0
  187.3940  178.1680  145.8280 C   0  0  2  0  0  3  0  0  0  0  0  0
  185.0810  178.3100  146.7990 C   0  0  0  0  0  1  0  0  0  0  0  0
  185.9860  178.7510  145.6640 C   0  0  0  0  0  3  0  0  0  0  0  0
  185.3510  178.3980  144.3270 C   0  0  0  0  0  1  0  0  0  0  0  0
  189.4820  175.1150  135.4240 C   0  0  1  0  0  3  0  0  0  0  0  0
  191.2650  176.5010  135.0460 O   0  0  0  0  0  0  0  0  0  0  0  0
  190.2570  176.0270  134.6190 N   0  0  0  0  0  0  0  0  0  0  0  0
  190.5410  174.3700  136.7050 S   0  0  0  0  0  0  0  0  0  0  0  0
  191.0500  172.9870  135.6360 C   0  0  0  0  0  2  0  0  0  0  0  0
  192.5680  172.8800  135.5470 C   0  0  0  0  0  2  0  0  0  0  0  0
  193.2020  174.1640  135.8490 N   0  0  0  0  0  2  0  0  0  0  0  0
  193.6830  174.6020  138.1200 O   0  0  0  0  0  1  0  0  0  0  0  0
  194.1730  174.0320  136.9400 C   0  0  2  0  0  3  0  0  0  0  0  0
  198.5050  174.4590  134.8930 C   0  0  0  0  0  3  0  0  0  0  0  0
  197.0520  174.7070  134.6090 C   0  0  0  0  0  2  0  0  0  0  0  0
  197.9070  174.4370  137.2710 C   0  0  0  0  0  2  0  0  0  0  0  0
  195.5240  174.6300  136.5740 C   0  0  2  0  0  3  0  0  0  0  0  0
  198.9120  174.3300  136.1590 C   0  0  0  0  0  3  0  0  0  0  0  0
  196.1600  173.8030  135.4710 C   0  0  2  0  0  3  0  0  0  0  0  0
  196.6280  173.6550  136.9350 C   0  0  1  0  0  3  0  0  0  0  0  0
  1  4  1  0  0  0  0
  2  6  1  0  0  0  0
  2 10  1  0  0  0  0
  3  7  1  0  0  0  0
  3  8  2  0  0  0  0
  4  6  2  0  0  0  0
  5 10  2  0  0  0  0
  7  2  2  0  0  0  0
  8  5  1  0  0  0  0
  9  1  2  0  0  0  0
  9  7  1  0  0  0  0
 10 26  1  0  0  0  0
 11 14  1  0  0  0  0
 13 21  1  0  0  0  0
 14 16  1  0  0  0  0
 15 16  2  0  0  0  0
 15 23  1  0  0  0  0
 17 12  1  0  0  0  0
 17 18  1  0  0  0  0
 19 13  2  0  0  0  0
 19 22  1  0  0  0  0
 20  4  1  1  0  0  0
 20 12  1  0  0  0  0
 20 15  1  0  0  0  0
 21 14  2  0  0  0  0
 21 18  1  0  0  0  0
 22 11  2  0  0  0  0
 23 24  1  0  0  0  0
 25 29  1  0  0  0  0
 26 25  2  0  0  0  0
 27 28  2  0  0  0  0
 29 27  2  0  0  0  0
 30 28  1  6  0  0  0
 30 32  1  0  0  0  0
 30 34  1  0  0  0  0
 31 32  2  0  0  0  0
 32 33  1  0  0  0  0
 34 38  1  6  0  0  0
 35 34  1  0  0  0  0
 36 35  1  0  0  0  0
 37 35  2  0  0  0  0
 38 40  1  0  0  0  0
 40 39  1  1  0  0  0
 42 40  1  0  0  0  0
 42 41  1  0  0  0  0
 43 42  1  0  0  0  0
 44 46  1  1  0  0  0
 44  8  1  0  0  0  0
 44 47  1  0  0  0  0
 46 45  2  0  0  0  0
 48 47  1  0  0  0  0
 49 48  1  0  0  0  0
 49 50  1  0  0  0  0
 50 52  1  0  0  0  0
 52 51  1  1  0  0  0
 53 57  2  0  0  0  0
 54 53  1  0  0  0  0
 56 59  1  0  0  0  0
 56 52  1  1  0  0  0
 57 55  1  0  0  0  0
 58 54  1  6  0  0  0
 58 56  1  0  0  0  0
 58 59  1  0  0  0  0
 59 55  1  6  0  0  0
M  END
>  <MODEL>
5

>  <REMARK>
 VINA RESULT:      -6.7      3.636      9.926
  Name = 
  19 active torsions:
  status: ('A' for Active; 'I' for Inactive)
    1  A    between atoms: C_4  and  C_53
    2  A    between atoms: C_6  and  C_37
    3  A    between atoms: N_8  and  C_43
    4  A    between atoms: N_8  and  C_58
    5  A    between atoms: C_9  and  C_32
    6  A    between atoms: C_9  and  C_53
    7  A    between atoms: C_14  and  O_18
    8  A    between atoms: C_16  and  C_46
    9  A    between atoms: C_17  and  C_54
   10  A    between atoms: S_21  and  C_28
   11  A    between atoms: S_21  and  C_31
   12  A    between atoms: C_27  and  C_58
   13  A    between atoms: C_28  and  C_35
   14  A    between atoms: C_28  and  N_36
   15  A    between atoms: C_31  and  C_43
   16  A    between atoms: C_32  and  C_52
   17  A    between atoms: C_34  and  C_37
   18  A    between atoms: C_37  and  C_53
   19  A    between atoms: C_42  and  C_59
                            x       y       z     vdW  Elec       q    Type
                         _______ _______ _______ _____ _____    ______ ____

>  <TORSDO>
F 19

$$$$
=
 OpenBabel11032421043D

 59 64  0  0  1  0  0  0  0  0999 V2000
  187.4670  177.5840  140.6140 C   0  0  0  0  0  3  0  0  0  0  0  0
  190.0250  177.1810  141.7130 C   0  0  0  0  0  0  0  0  0  0  0  0
  189.0290  177.3180  143.9400 C   0  0  0  0  0  3  0  0  0  0  0  0
  188.5710  177.4550  139.7650 C   0  0  0  0  0  0  0  0  0  0  0  0
  191.4030  176.9620  143.7030 C   0  0  0  0  0  3  0  0  0  0  0  0
  189.8470  177.2580  140.3200 C   0  0  0  0  0  3  0  0  0  0  0  0
  188.8910  177.3400  142.5530 C   0  0  0  0  0  0  0  0  0  0  0  0
  190.2830  177.1420  144.5200 C   0  0  0  0  0  0  0  0  0  0  0  0
  187.6250  177.5290  141.9980 C   0  0  0  0  0  3  0  0  0  0  0  0
  191.2970  176.9700  142.3080 C   0  0  0  0  0  0  0  0  0  0  0  0
  186.1440  175.0420  136.0090 C   0  0  0  0  0  3  0  0  0  0  0  0
  188.5510  178.9930  137.7720 C   0  0  0  0  0  2  0  0  0  0  0  0
  185.1460  177.5980  135.4790 C   0  0  0  0  0  3  0  0  0  0  0  0
  186.9900  176.1500  136.1240 C   0  0  0  0  0  0  0  0  0  0  0  0
  189.0230  176.5790  137.3960 C   0  0  0  0  0  0  0  0  0  0  0  0
  188.3660  175.9340  136.4730 N   0  0  0  0  0  0  0  0  0  0  0  0
  187.4220  179.4210  136.9500 N   0  0  0  0  0  2  0  0  0  0  0  0
  187.3510  178.5790  135.8300 N   0  0  0  0  0  2  0  0  0  0  0  0
  184.3030  176.4880  135.3980 C   0  0  0  0  0  3  0  0  0  0  0  0
  188.3290  177.5770  138.2850 C   0  0  1  0  0  3  0  0  0  0  0  0
  186.4910  177.4380  135.8320 C   0  0  0  0  0  0  0  0  0  0  0  0
  184.8020  175.2090  135.6560 C   0  0  0  0  0  3  0  0  0  0  0  0
  190.4010  176.3910  137.5320 O   0  0  0  0  0  0  0  0  0  0  0  0
  191.2640  176.3120  136.4100 C   0  0  0  0  0  1  0  0  0  0  0  0
  192.8290  177.1380  140.3480 C   0  0  0  0  0  3  0  0  0  0  0  0
  192.5600  176.7320  141.5810 C   0  0  0  0  0  3  0  0  0  0  0  0
  194.2070  176.0020  138.7420 C   0  0  0  0  0  0  0  0  0  0  0  0
  194.2960  175.2000  137.7170 C   0  0  0  0  0  3  0  0  0  0  0  0
  194.1250  176.7990  139.7700 C   0  0  0  0  0  3  0  0  0  0  0  0
  195.2750  174.0760  137.7270 C   0  0  2  0  0  3  0  0  0  0  0  0
  197.2260  175.2080  136.9500 O   0  0  0  0  0  0  0  0  0  0  0  0
  196.6740  174.5870  137.8950 C   0  0  0  0  0  0  0  0  0  0  0  0
  197.3730  174.3700  139.0760 O   0  0  0  0  0  1  0  0  0  0  0  0
  195.0800  173.1410  136.5200 C   0  0  2  0  0  3  0  0  0  0  0  0
  194.4380  173.8510  135.3700 C   0  0  0  0  0  0  0  0  0  0  0  0
  195.0590  174.7440  134.7350 O   0  0  0  0  0  0  0  0  0  0  0  0
  193.1420  173.5190  135.0000 O   0  0  0  0  0  1  0  0  0  0  0  0
  194.3420  171.8400  136.8390 C   0  0  0  0  0  2  0  0  0  0  0  0
  193.9250  169.8600  135.3520 C   0  0  0  0  0  1  0  0  0  0  0  0
  194.9750  170.6500  136.1280 C   0  0  2  0  0  3  0  0  0  0  0  0
  195.0130  169.6610  138.4380 C   0  0  0  0  0  1  0  0  0  0  0  0
  195.7520  169.7750  137.1180 C   0  0  0  0  0  3  0  0  0  0  0  0
  197.1700  170.2710  137.3590 C   0  0  0  0  0  1  0  0  0  0  0  0
  190.3990  177.1020  146.0120 C   0  0  1  0  0  3  0  0  0  0  0  0
  192.3610  176.3940  146.9560 O   0  0  0  0  0  0  0  0  0  0  0  0
  191.7710  177.2810  146.4170 N   0  0  0  0  0  0  0  0  0  0  0  0
  189.3560  178.3860  146.7760 S   0  0  0  0  0  0  0  0  0  0  0  0
  188.1570  177.1800  147.4280 C   0  0  0  0  0  2  0  0  0  0  0  0
  186.8330  177.2490  146.6750 C   0  0  0  0  0  2  0  0  0  0  0  0
  186.8120  178.3850  145.7540 N   0  0  0  0  0  2  0  0  0  0  0  0
  184.9950  179.0710  147.0970 O   0  0  0  0  0  1  0  0  0  0  0  0
  185.5250  179.0850  145.8030 C   0  0  2  0  0  3  0  0  0  0  0  0
  182.8810  178.6640  141.8060 C   0  0  0  0  0  3  0  0  0  0  0  0
  184.2480  178.3460  142.3380 C   0  0  0  0  0  2  0  0  0  0  0  0
  182.1500  178.8340  144.1410 C   0  0  0  0  0  2  0  0  0  0  0  0
  184.5280  178.5100  144.8070 C   0  0  2  0  0  3  0  0  0  0  0  0
  181.8830  178.8960  142.6630 C   0  0  0  0  0  3  0  0  0  0  0  0
  184.6170  179.2770  143.5010 C   0  0  2  0  0  3  0  0  0  0  0  0
  183.4650  179.5450  144.4930 C   0  0  1  0  0  3  0  0  0  0  0  0
  1  9  1  0  0  0  0
  2 10  1  0  0  0  0
  2  7  1  0  0  0  0
  3  8  2  0  0  0  0
  4  6  1  0  0  0  0
  4  1  2  0  0  0  0
  5  8  1  0  0  0  0
  6  2  2  0  0  0  0
  7  3  1  0  0  0  0
  8 44  1  0  0  0  0
  9  7  2  0  0  0  0
 10  5  2  0  0  0  0
 11 14  1  0  0  0  0
 12 20  1  0  0  0  0
 13 21  1  0  0  0  0
 14 16  1  0  0  0  0
 15 23  1  0  0  0  0
 15 20  1  0  0  0  0
 16 15  2  0  0  0  0
 17 12  1  0  0  0  0
 18 21  1  0  0  0  0
 18 17  1  0  0  0  0
 19 13  2  0  0  0  0
 19 22  1  0  0  0  0
 20  4  1  1  0  0  0
 21 14  2  0  0  0  0
 22 11  2  0  0  0  0
 24 23  1  0  0  0  0
 25 26  2  0  0  0  0
 26 10  1  0  0  0  0
 27 29  2  0  0  0  0
 28 27  2  0  0  0  0
 29 25  1  0  0  0  0
 30 28  1  6  0  0  0
 30 32  1  0  0  0  0
 31 32  2  0  0  0  0
 32 33  1  0  0  0  0
 34 38  1  1  0  0  0
 34 30  1  0  0  0  0
 35 34  1  0  0  0  0
 36 35  2  0  0  0  0
 37 35  1  0  0  0  0
 40 39  1  1  0  0  0
 40 38  1  0  0  0  0
 40 42  1  0  0  0  0
 42 43  1  0  0  0  0
 42 41  1  0  0  0  0
 44 46  1  6  0  0  0
 44 47  1  0  0  0  0
 46 45  2  0  0  0  0
 47 48  1  0  0  0  0
 49 48  1  0  0  0  0
 50 52  1  0  0  0  0
 50 49  1  0  0  0  0
 52 51  1  1  0  0  0
 53 54  1  0  0  0  0
 53 57  2  0  0  0  0
 56 52  1  1  0  0  0
 57 55  1  0  0  0  0
 58 54  1  6  0  0  0
 58 59  1  0  0  0  0
 58 56  1  0  0  0  0
 59 55  1  6  0  0  0
 59 56  1  0  0  0  0
M  END
>  <MODEL>
6

>  <REMARK>
 VINA RESULT:      -6.5      3.869      8.655
  Name = 
  19 active torsions:
  status: ('A' for Active; 'I' for Inactive)
    1  A    between atoms: C_4  and  C_53
    2  A    between atoms: C_6  and  C_37
    3  A    between atoms: N_8  and  C_43
    4  A    between atoms: N_8  and  C_58
    5  A    between atoms: C_9  and  C_32
    6  A    between atoms: C_9  and  C_53
    7  A    between atoms: C_14  and  O_18
    8  A    between atoms: C_16  and  C_46
    9  A    between atoms: C_17  and  C_54
   10  A    between atoms: S_21  and  C_28
   11  A    between atoms: S_21  and  C_31
   12  A    between atoms: C_27  and  C_58
   13  A    between atoms: C_28  and  C_35
   14  A    between atoms: C_28  and  N_36
   15  A    between atoms: C_31  and  C_43
   16  A    between atoms: C_32  and  C_52
   17  A    between atoms: C_34  and  C_37
   18  A    between atoms: C_37  and  C_53
   19  A    between atoms: C_42  and  C_59
                            x       y       z     vdW  Elec       q    Type
                         _______ _______ _______ _____ _____    ______ ____

>  <TORSDO>
F 19

$$$$
=
 OpenBabel11032421043D

 59 64  0  0  1  0  0  0  0  0999 V2000
  187.2330  177.8110  145.3460 C   0  0  0  0  0  3  0  0  0  0  0  0
  185.6080  178.2120  143.0860 C   0  0  0  0  0  0  0  0  0  0  0  0
  183.7160  178.5960  144.5830 C   0  0  0  0  0  3  0  0  0  0  0  0
  187.7850  177.6800  144.0680 C   0  0  0  0  0  0  0  0  0  0  0  0
  183.4010  178.7050  142.1940 C   0  0  0  0  0  3  0  0  0  0  0  0
  186.9660  177.8780  142.9420 C   0  0  0  0  0  3  0  0  0  0  0  0
  185.0680  178.3130  144.3950 C   0  0  0  0  0  0  0  0  0  0  0  0
  182.8760  178.7800  143.4870 C   0  0  0  0  0  0  0  0  0  0  0  0
  185.8850  178.1230  145.5100 C   0  0  0  0  0  3  0  0  0  0  0  0
  184.7550  178.4320  141.9710 C   0  0  0  0  0  0  0  0  0  0  0  0
  191.8070  176.8850  147.0700 C   0  0  0  0  0  3  0  0  0  0  0  0
  189.5600  176.5720  142.6690 C   0  0  0  0  0  2  0  0  0  0  0  0
  191.9930  174.5110  145.6070 C   0  0  0  0  0  3  0  0  0  0  0  0
  191.5540  176.9020  145.6940 C   0  0  0  0  0  0  0  0  0  0  0  0
  190.2500  178.3660  144.2480 C   0  0  0  0  0  0  0  0  0  0  0  0
  191.2460  178.1540  145.0640 N   0  0  0  0  0  0  0  0  0  0  0  0
  190.3120  175.3480  142.9350 N   0  0  0  0  0  2  0  0  0  0  0  0
  191.5320  175.7030  143.5300 N   0  0  0  0  0  2  0  0  0  0  0  0
  192.2120  174.5020  146.9870 C   0  0  0  0  0  3  0  0  0  0  0  0
  189.2350  177.2900  143.9710 C   0  0  1  0  0  3  0  0  0  0  0  0
  191.6730  175.7060  144.9530 C   0  0  0  0  0  0  0  0  0  0  0  0
  192.1270  175.6890  147.7170 C   0  0  0  0  0  3  0  0  0  0  0  0
  190.1490  179.5860  143.5740 O   0  0  0  0  0  0  0  0  0  0  0  0
  190.9310  180.7120  143.9350 C   0  0  0  0  0  1  0  0  0  0  0  0
  184.5650  179.0660  139.5680 C   0  0  0  0  0  3  0  0  0  0  0  0
  185.1690  178.4190  140.5540 C   0  0  0  0  0  3  0  0  0  0  0  0
  185.7300  177.8490  137.8560 C   0  0  0  0  0  0  0  0  0  0  0  0
  186.3730  176.7730  137.4930 C   0  0  0  0  0  3  0  0  0  0  0  0
  185.0950  178.9280  138.2150 C   0  0  0  0  0  3  0  0  0  0  0  0
  187.6750  176.8830  136.7770 C   0  0  2  0  0  3  0  0  0  0  0  0
  188.5000  178.6280  135.3760 O   0  0  0  0  0  1  0  0  0  0  0  0
  187.5670  177.8180  135.6110 C   0  0  0  0  0  0  0  0  0  0  0  0
  186.4420  177.8100  134.7950 O   0  0  0  0  0  0  0  0  0  0  0  0
  188.2520  175.4990  136.4300 C   0  0  2  0  0  3  0  0  0  0  0  0
  187.1810  174.4580  136.3520 C   0  0  0  0  0  0  0  0  0  0  0  0
  187.0800  173.5690  137.2400 O   0  0  0  0  0  1  0  0  0  0  0  0
  186.2890  174.4730  135.2900 O   0  0  0  0  0  0  0  0  0  0  0  0
  189.3930  175.0410  137.3410 C   0  0  0  0  0  2  0  0  0  0  0  0
  190.9780  175.9240  135.6060 C   0  0  0  0  0  1  0  0  0  0  0  0
  190.6620  175.8480  137.0960 C   0  0  2  0  0  3  0  0  0  0  0  0
  192.8280  176.3770  138.2570 C   0  0  0  0  0  1  0  0  0  0  0  0
  191.8300  175.2860  137.9140 C   0  0  0  0  0  3  0  0  0  0  0  0
  192.5400  174.1340  137.2180 C   0  0  0  0  0  1  0  0  0  0  0  0
  181.4330  179.1030  143.7190 C   0  0  1  0  0  3  0  0  0  0  0  0
  180.1180  180.8780  143.1170 O   0  0  0  0  0  0  0  0  0  0  0  0
  180.9920  180.1270  142.8050 N   0  0  0  0  0  0  0  0  0  0  0  0
  180.3990  177.6160  143.5260 S   0  0  0  0  0  0  0  0  0  0  0  0
  179.7320  178.1540  141.9190 C   0  0  0  0  0  2  0  0  0  0  0  0
  179.8350  177.0480  140.8750 C   0  0  0  0  0  2  0  0  0  0  0  0
  181.1720  177.0090  140.2830 N   0  0  0  0  0  2  0  0  0  0  0  0
  179.8660  177.8210  138.4900 O   0  0  0  0  0  1  0  0  0  0  0  0
  181.1710  177.5770  138.9310 C   0  0  2  0  0  3  0  0  0  0  0  0
  182.2710  173.7230  136.2720 C   0  0  0  0  0  3  0  0  0  0  0  0
  181.3960  174.9420  136.2500 C   0  0  0  0  0  2  0  0  0  0  0  0
  183.6140  174.8700  137.9720 C   0  0  0  0  0  2  0  0  0  0  0  0
  181.9170  176.6930  137.9420 C   0  0  2  0  0  3  0  0  0  0  0  0
  183.3260  173.6880  137.0900 C   0  0  0  0  0  3  0  0  0  0  0  0
  181.1070  175.4380  137.6740 C   0  0  2  0  0  3  0  0  0  0  0  0
  182.3260  175.4000  138.6210 C   0  0  1  0  0  3  0  0  0  0  0  0
  1  9  1  0  0  0  0
  2  7  1  0  0  0  0
  4  1  2  0  0  0  0
  5  8  1  0  0  0  0
  6  2  2  0  0  0  0
  6  4  1  0  0  0  0
  7  3  1  0  0  0  0
  7  9  2  0  0  0  0
  8 44  1  0  0  0  0
  8  3  2  0  0  0  0
 10  5  2  0  0  0  0
 10  2  1  0  0  0  0
 11 22  1  0  0  0  0
 12 17  1  0  0  0  0
 12 20  1  0  0  0  0
 13 19  1  0  0  0  0
 14 11  2  0  0  0  0
 15 16  2  0  0  0  0
 16 14  1  0  0  0  0
 17 18  1  0  0  0  0
 18 21  1  0  0  0  0
 19 22  2  0  0  0  0
 20  4  1  6  0  0  0
 20 15  1  0  0  0  0
 21 13  2  0  0  0  0
 21 14  1  0  0  0  0
 23 24  1  0  0  0  0
 23 15  1  0  0  0  0
 25 26  2  0  0  0  0
 26 10  1  0  0  0  0
 27 29  2  0  0  0  0
 28 27  2  0  0  0  0
 29 25  1  0  0  0  0
 30 28  1  6  0  0  0
 31 32  1  0  0  0  0
 32 30  1  0  0  0  0
 33 32  2  0  0  0  0
 34 30  1  0  0  0  0
 34 38  1  1  0  0  0
 35 34  1  0  0  0  0
 35 36  1  0  0  0  0
 37 35  2  0  0  0  0
 40 39  1  6  0  0  0
 40 38  1  0  0  0  0
 40 42  1  0  0  0  0
 42 41  1  0  0  0  0
 43 42  1  0  0  0  0
 44 46  1  6  0  0  0
 46 45  2  0  0  0  0
 47 44  1  0  0  0  0
 48 47  1  0  0  0  0
 49 48  1  0  0  0  0
 50 49  1  0  0  0  0
 52 51  1  6  0  0  0
 52 50  1  0  0  0  0
 53 57  2  0  0  0  0
 54 53  1  0  0  0  0
 56 59  1  0  0  0  0
 56 52  1  1  0  0  0
 57 55  1  0  0  0  0
 58 54  1  6  0  0  0
 58 56  1  0  0  0  0
 58 59  1  0  0  0  0
 59 55  1  6  0  0  0
M  END
>  <MODEL>
7

>  <REMARK>
 VINA RESULT:      -6.5      3.019      9.664
  Name = 
  19 active torsions:
  status: ('A' for Active; 'I' for Inactive)
    1  A    between atoms: C_4  and  C_53
    2  A    between atoms: C_6  and  C_37
    3  A    between atoms: N_8  and  C_43
    4  A    between atoms: N_8  and  C_58
    5  A    between atoms: C_9  and  C_32
    6  A    between atoms: C_9  and  C_53
    7  A    between atoms: C_14  and  O_18
    8  A    between atoms: C_16  and  C_46
    9  A    between atoms: C_17  and  C_54
   10  A    between atoms: S_21  and  C_28
   11  A    between atoms: S_21  and  C_31
   12  A    between atoms: C_27  and  C_58
   13  A    between atoms: C_28  and  C_35
   14  A    between atoms: C_28  and  N_36
   15  A    between atoms: C_31  and  C_43
   16  A    between atoms: C_32  and  C_52
   17  A    between atoms: C_34  and  C_37
   18  A    between atoms: C_37  and  C_53
   19  A    between atoms: C_42  and  C_59
                            x       y       z     vdW  Elec       q    Type
                         _______ _______ _______ _____ _____    ______ ____

>  <TORSDO>
F 19

$$$$
=
 OpenBabel11032421043D

 59 64  0  0  1  0  0  0  0  0999 V2000
  183.4110  177.8470  136.3090 C   0  0  0  0  0  3  0  0  0  0  0  0
  185.3340  177.8860  138.3610 C   0  0  0  0  0  0  0  0  0  0  0  0
  186.9960  177.1200  136.7420 C   0  0  0  0  0  3  0  0  0  0  0  0
  183.0290  178.2030  137.6060 C   0  0  0  0  0  0  0  0  0  0  0  0
  187.6380  177.5030  139.0360 C   0  0  0  0  0  3  0  0  0  0  0  0
  183.9940  178.2170  138.6290 C   0  0  0  0  0  3  0  0  0  0  0  0
  185.6890  177.5020  137.0410 C   0  0  0  0  0  0  0  0  0  0  0  0
  187.9710  177.1070  137.7370 C   0  0  0  0  0  0  0  0  0  0  0  0
  184.7300  177.4960  136.0280 C   0  0  0  0  0  3  0  0  0  0  0  0
  186.3380  177.9000  139.3660 C   0  0  0  0  0  0  0  0  0  0  0  0
  179.7820  178.9150  141.4500 C   0  0  0  0  0  3  0  0  0  0  0  0
  180.9160  179.1690  136.6370 C   0  0  0  0  0  2  0  0  0  0  0  0
  179.1250  181.2190  140.0110 C   0  0  0  0  0  3  0  0  0  0  0  0
  179.7070  178.8580  140.0540 C   0  0  0  0  0  0  0  0  0  0  0  0
  180.7170  177.4040  138.3800 C   0  0  0  0  0  0  0  0  0  0  0  0
  179.9290  177.5990  139.4010 N   0  0  0  0  0  0  0  0  0  0  0  0
  180.1800  180.3640  137.0410 N   0  0  0  0  0  2  0  0  0  0  0  0
  179.1550  179.9720  137.9160 N   0  0  0  0  0  2  0  0  0  0  0  0
  179.2340  181.2710  141.4030 C   0  0  0  0  0  3  0  0  0  0  0  0
  181.5770  178.5180  137.8440 C   0  0  1  0  0  3  0  0  0  0  0  0
  179.3500  180.0170  139.3310 C   0  0  0  0  0  0  0  0  0  0  0  0
  179.5550  180.1180  142.1230 C   0  0  0  0  0  3  0  0  0  0  0  0
  180.7260  176.1660  137.7330 O   0  0  0  0  0  0  0  0  0  0  0  0
  181.2790  175.0080  138.3330 C   0  0  0  0  0  1  0  0  0  0  0  0
  184.9880  178.3780  141.4080 C   0  0  0  0  0  3  0  0  0  0  0  0
  186.1480  178.3250  140.7680 C   0  0  0  0  0  3  0  0  0  0  0  0
  185.9590  178.5580  143.5970 C   0  0  0  0  0  0  0  0  0  0  0  0
  186.9370  178.2710  144.4100 C   0  0  0  0  0  3  0  0  0  0  0  0
  184.9760  178.8420  142.7910 C   0  0  0  0  0  3  0  0  0  0  0  0
  186.6490  177.7420  145.7730 C   0  0  2  0  0  3  0  0  0  0  0  0
  186.1090  179.8830  146.6760 O   0  0  0  0  0  0  0  0  0  0  0  0
  185.7650  178.6810  146.5360 C   0  0  0  0  0  0  0  0  0  0  0  0
  184.5760  178.2360  147.1010 O   0  0  0  0  0  1  0  0  0  0  0  0
  187.9380  177.3410  146.5130 C   0  0  2  0  0  3  0  0  0  0  0  0
  187.8390  177.6110  147.9810 C   0  0  0  0  0  0  0  0  0  0  0  0
  188.3640  178.6400  148.4840 O   0  0  0  0  0  0  0  0  0  0  0  0
  187.1590  176.7170  148.7950 O   0  0  0  0  0  1  0  0  0  0  0  0
  189.2170  177.9470  145.9310 C   0  0  0  0  0  2  0  0  0  0  0  0
  191.0730  176.7460  147.1210 C   0  0  0  0  0  1  0  0  0  0  0  0
  190.3220  176.9050  145.8030 C   0  0  2  0  0  3  0  0  0  0  0  0
  190.9930  178.6440  144.1180 C   0  0  0  0  0  1  0  0  0  0  0  0
  191.2540  177.2410  144.6340 C   0  0  0  0  0  3  0  0  0  0  0  0
  191.1540  176.2420  143.4910 C   0  0  0  0  0  1  0  0  0  0  0  0
  189.3710  176.7110  137.3830 C   0  0  1  0  0  3  0  0  0  0  0  0
  190.5990  177.8570  138.9390 O   0  0  0  0  0  0  0  0  0  0  0  0
  190.2270  176.7960  138.5400 N   0  0  0  0  0  0  0  0  0  0  0  0
  189.4130  175.0210  136.7050 S   0  0  0  0  0  0  0  0  0  0  0  0
  190.1540  175.5540  135.1300 C   0  0  0  0  0  2  0  0  0  0  0  0
  191.2940  176.5420  135.3560 C   0  0  0  0  0  2  0  0  0  0  0  0
  192.5750  175.8450  135.4750 N   0  0  0  0  0  2  0  0  0  0  0  0
  193.5920  176.7630  137.3980 O   0  0  0  0  0  1  0  0  0  0  0  0
  192.9390  175.6410  136.8800 C   0  0  2  0  0  3  0  0  0  0  0  0
  196.7520  172.8920  137.9030 C   0  0  0  0  0  3  0  0  0  0  0  0
  195.6010  173.5830  138.5740 C   0  0  0  0  0  2  0  0  0  0  0  0
  195.4780  173.0640  135.8160 C   0  0  0  0  0  2  0  0  0  0  0  0
  193.7840  174.3900  137.0720 C   0  0  2  0  0  3  0  0  0  0  0  0
  196.6940  172.6450  136.5920 C   0  0  0  0  0  3  0  0  0  0  0  0
  195.1000  174.7640  137.7290 C   0  0  2  0  0  3  0  0  0  0  0  0
  195.0320  174.4790  136.2130 C   0  0  1  0  0  3  0  0  0  0  0  0
  1  4  1  0  0  0  0
  2  6  1  0  0  0  0
  2 10  1  0  0  0  0
  3  7  1  0  0  0  0
  3  8  2  0  0  0  0
  4  6  2  0  0  0  0
  5 10  2  0  0  0  0
  7  2  2  0  0  0  0
  8  5  1  0  0  0  0
  9  1  2  0  0  0  0
  9  7  1  0  0  0  0
 10 26  1  0  0  0  0
 11 22  1  0  0  0  0
 12 17  1  0  0  0  0
 12 20  1  0  0  0  0
 13 19  1  0  0  0  0
 14 11  2  0  0  0  0
 15 16  2  0  0  0  0
 16 14  1  0  0  0  0
 17 18  1  0  0  0  0
 18 21  1  0  0  0  0
 19 22  2  0  0  0  0
 20  4  1  6  0  0  0
 20 15  1  0  0  0  0
 21 13  2  0  0  0  0
 21 14  1  0  0  0  0
 23 24  1  0  0  0  0
 23 15  1  0  0  0  0
 25 29  1  0  0  0  0
 26 25  2  0  0  0  0
 27 28  2  0  0  0  0
 29 27  2  0  0  0  0
 30 28  1  6  0  0  0
 30 34  1  0  0  0  0
 30 32  1  0  0  0  0
 32 31  2  0  0  0  0
 32 33  1  0  0  0  0
 34 38  1  6  0  0  0
 34 35  1  0  0  0  0
 35 36  2  0  0  0  0
 35 37  1  0  0  0  0
 40 38  1  0  0  0  0
 40 39  1  1  0  0  0
 41 42  1  0  0  0  0
 42 40  1  0  0  0  0
 43 42  1  0  0  0  0
 44 47  1  1  0  0  0
 44  8  1  0  0  0  0
 44 46  1  0  0  0  0
 46 45  2  0  0  0  0
 48 49  1  0  0  0  0
 48 47  1  0  0  0  0
 49 50  1  0  0  0  0
 50 52  1  0  0  0  0
 52 51  1  6  0  0  0
 53 54  1  0  0  0  0
 55 57  1  0  0  0  0
 56 52  1  6  0  0  0
 56 58  1  0  0  0  0
 57 53  2  0  0  0  0
 58 54  1  1  0  0  0
 59 55  1  1  0  0  0
 59 56  1  0  0  0  0
 59 58  1  0  0  0  0
M  END
>  <MODEL>
8

>  <REMARK>
 VINA RESULT:      -6.5      3.333      9.755
  Name = 
  19 active torsions:
  status: ('A' for Active; 'I' for Inactive)
    1  A    between atoms: C_4  and  C_53
    2  A    between atoms: C_6  and  C_37
    3  A    between atoms: N_8  and  C_43
    4  A    between atoms: N_8  and  C_58
    5  A    between atoms: C_9  and  C_32
    6  A    between atoms: C_9  and  C_53
    7  A    between atoms: C_14  and  O_18
    8  A    between atoms: C_16  and  C_46
    9  A    between atoms: C_17  and  C_54
   10  A    between atoms: S_21  and  C_28
   11  A    between atoms: S_21  and  C_31
   12  A    between atoms: C_27  and  C_58
   13  A    between atoms: C_28  and  C_35
   14  A    between atoms: C_28  and  N_36
   15  A    between atoms: C_31  and  C_43
   16  A    between atoms: C_32  and  C_52
   17  A    between atoms: C_34  and  C_37
   18  A    between atoms: C_37  and  C_53
   19  A    between atoms: C_42  and  C_59
                            x       y       z     vdW  Elec       q    Type
                         _______ _______ _______ _____ _____    ______ ____

>  <TORSDO>
F 19

$$$$
=
 OpenBabel11032421043D

 59 64  0  0  1  0  0  0  0  0999 V2000
  186.9720  177.8520  145.3280 C   0  0  0  0  0  3  0  0  0  0  0  0
  185.3060  178.2040  143.0880 C   0  0  0  0  0  0  0  0  0  0  0  0
  183.4450  178.6390  144.6100 C   0  0  0  0  0  3  0  0  0  0  0  0
  187.4980  177.6830  144.0430 C   0  0  0  0  0  0  0  0  0  0  0  0
  183.0860  178.6870  142.2250 C   0  0  0  0  0  3  0  0  0  0  0  0
  186.6590  177.8570  142.9280 C   0  0  0  0  0  3  0  0  0  0  0  0
  184.7920  178.3430  144.4040 C   0  0  0  0  0  0  0  0  0  0  0  0
  182.5860  178.8000  143.5250 C   0  0  0  0  0  0  0  0  0  0  0  0
  185.6280  178.1770  145.5080 C   0  0  0  0  0  3  0  0  0  0  0  0
  184.4340  178.3990  141.9840 C   0  0  0  0  0  0  0  0  0  0  0  0
  191.6700  177.3200  146.9200 C   0  0  0  0  0  3  0  0  0  0  0  0
  189.2070  176.3850  142.7280 C   0  0  0  0  0  2  0  0  0  0  0  0
  191.7970  174.7610  145.8030 C   0  0  0  0  0  3  0  0  0  0  0  0
  191.3480  177.1400  145.5700 C   0  0  0  0  0  0  0  0  0  0  0  0
  189.9650  178.3850  143.9980 C   0  0  0  0  0  0  0  0  0  0  0  0
  191.0010  178.2910  144.7840 N   0  0  0  0  0  0  0  0  0  0  0  0
  189.9780  175.2100  143.1270 N   0  0  0  0  0  2  0  0  0  0  0  0
  191.2250  175.6460  143.6030 N   0  0  0  0  0  2  0  0  0  0  0  0
  192.0860  174.9480  147.1570 C   0  0  0  0  0  3  0  0  0  0  0  0
  188.9430  177.2810  143.9290 C   0  0  1  0  0  3  0  0  0  0  0  0
  191.4370  175.8510  145.0020 C   0  0  0  0  0  0  0  0  0  0  0  0
  192.0300  176.2280  147.7140 C   0  0  0  0  0  3  0  0  0  0  0  0
  189.8230  179.4960  143.1630 O   0  0  0  0  0  0  0  0  0  0  0  0
  189.3830  179.3780  141.8210 C   0  0  0  0  0  1  0  0  0  0  0  0
  183.9890  178.4210  139.5310 C   0  0  0  0  0  3  0  0  0  0  0  0
  184.8200  178.3460  140.5600 C   0  0  0  0  0  3  0  0  0  0  0  0
  185.0500  177.2160  137.7450 C   0  0  0  0  0  0  0  0  0  0  0  0
  185.5700  176.1040  137.3040 C   0  0  0  0  0  3  0  0  0  0  0  0
  184.5380  178.3310  138.1820 C   0  0  0  0  0  3  0  0  0  0  0  0
  186.8960  176.1130  136.6250 C   0  0  2  0  0  3  0  0  0  0  0  0
  185.8780  176.8970  134.6150 O   0  0  0  0  0  0  0  0  0  0  0  0
  186.8620  176.9700  135.3960 C   0  0  0  0  0  0  0  0  0  0  0  0
  187.9100  177.8330  135.1020 O   0  0  0  0  0  1  0  0  0  0  0  0
  187.4260  174.6870  136.3910 C   0  0  2  0  0  3  0  0  0  0  0  0
  188.9020  174.6800  136.1460 C   0  0  0  0  0  0  0  0  0  0  0  0
  189.3930  174.0320  135.1840 O   0  0  0  0  0  0  0  0  0  0  0  0
  189.7370  175.3980  136.9900 O   0  0  0  0  0  1  0  0  0  0  0  0
  186.6880  173.9070  135.3020 C   0  0  0  0  0  2  0  0  0  0  0  0
  186.9540  171.4420  135.6970 C   0  0  0  0  0  1  0  0  0  0  0  0
  186.0350  172.6490  135.8600 C   0  0  2  0  0  3  0  0  0  0  0  0
  183.6880  173.5180  135.6350 C   0  0  0  0  0  1  0  0  0  0  0  0
  184.6570  172.4250  135.2280 C   0  0  0  0  0  3  0  0  0  0  0  0
  184.0680  171.0600  135.5580 C   0  0  0  0  0  1  0  0  0  0  0  0
  181.1490  179.1380  143.7760 C   0  0  1  0  0  3  0  0  0  0  0  0
  180.0930  181.0510  143.0920 O   0  0  0  0  0  0  0  0  0  0  0  0
  180.6640  180.0520  142.7720 N   0  0  0  0  0  0  0  0  0  0  0  0
  180.1240  177.6320  143.7870 S   0  0  0  0  0  0  0  0  0  0  0  0
  179.3660  178.0040  142.1730 C   0  0  0  0  0  2  0  0  0  0  0  0
  179.6010  176.8760  141.1740 C   0  0  0  0  0  2  0  0  0  0  0  0
  180.5570  177.2800  140.1430 N   0  0  0  0  0  2  0  0  0  0  0  0
  180.6250  176.6580  137.8650 O   0  0  0  0  0  1  0  0  0  0  0  0
  179.9110  177.3760  138.8300 C   0  0  2  0  0  3  0  0  0  0  0  0
  180.9480  181.7050  137.0060 C   0  0  0  0  0  3  0  0  0  0  0  0
  180.5050  180.3360  136.5780 C   0  0  0  0  0  2  0  0  0  0  0  0
  180.1810  181.1120  139.2590 C   0  0  0  0  0  2  0  0  0  0  0  0
  179.7220  178.8220  138.3950 C   0  0  2  0  0  3  0  0  0  0  0  0
  180.7940  182.0740  138.2810 C   0  0  0  0  0  3  0  0  0  0  0  0
  180.9340  179.2740  137.6010 C   0  0  2  0  0  3  0  0  0  0  0  0
  180.7550  179.7000  139.0740 C   0  0  1  0  0  3  0  0  0  0  0  0
  1  9  1  0  0  0  0
  2  7  1  0  0  0  0
  4  1  2  0  0  0  0
  5  8  1  0  0  0  0
  6  2  2  0  0  0  0
  6  4  1  0  0  0  0
  7  3  1  0  0  0  0
  7  9  2  0  0  0  0
  8 44  1  0  0  0  0
  8  3  2  0  0  0  0
 10  5  2  0  0  0  0
 10  2  1  0  0  0  0
 11 22  1  0  0  0  0
 12 17  1  0  0  0  0
 12 20  1  0  0  0  0
 13 19  1  0  0  0  0
 14 11  2  0  0  0  0
 15 16  2  0  0  0  0
 16 14  1  0  0  0  0
 17 18  1  0  0  0  0
 18 21  1  0  0  0  0
 19 22  2  0  0  0  0
 20 15  1  0  0  0  0
 20  4  1  6  0  0  0
 21 14  1  0  0  0  0
 21 13  2  0  0  0  0
 23 15  1  0  0  0  0
 24 23  1  0  0  0  0
 25 26  2  0  0  0  0
 26 10  1  0  0  0  0
 27 29  2  0  0  0  0
 28 27  2  0  0  0  0
 29 25  1  0  0  0  0
 30 28  1  6  0  0  0
 31 32  2  0  0  0  0
 32 30  1  0  0  0  0
 33 32  1  0  0  0  0
 34 38  1  6  0  0  0
 34 30  1  0  0  0  0
 35 34  1  0  0  0  0
 35 37  1  0  0  0  0
 36 35  2  0  0  0  0
 38 40  1  0  0  0  0
 40 39  1  6  0  0  0
 42 43  1  0  0  0  0
 42 41  1  0  0  0  0
 42 40  1  0  0  0  0
 44 46  1  6  0  0  0
 44 47  1  0  0  0  0
 46 45  2  0  0  0  0
 48 47  1  0  0  0  0
 49 48  1  0  0  0  0
 50 49  1  0  0  0  0
 52 51  1  6  0  0  0
 52 50  1  0  0  0  0
 53 57  2  0  0  0  0
 54 53  1  0  0  0  0
 56 52  1  1  0  0  0
 56 59  1  0  0  0  0
 57 55  1  0  0  0  0
 58 54  1  6  0  0  0
 58 56  1  0  0  0  0
 58 59  1  0  0  0  0
 59 55  1  6  0  0  0
M  END
>  <MODEL>
9

>  <REMARK>
 VINA RESULT:      -6.4      3.049      9.413
  Name = 
  19 active torsions:
  status: ('A' for Active; 'I' for Inactive)
    1  A    between atoms: C_4  and  C_53
    2  A    between atoms: C_6  and  C_37
    3  A    between atoms: N_8  and  C_43
    4  A    between atoms: N_8  and  C_58
    5  A    between atoms: C_9  and  C_32
    6  A    between atoms: C_9  and  C_53
    7  A    between atoms: C_14  and  O_18
    8  A    between atoms: C_16  and  C_46
    9  A    between atoms: C_17  and  C_54
   10  A    between atoms: S_21  and  C_28
   11  A    between atoms: S_21  and  C_31
   12  A    between atoms: C_27  and  C_58
   13  A    between atoms: C_28  and  C_35
   14  A    between atoms: C_28  and  N_36
   15  A    between atoms: C_31  and  C_43
   16  A    between atoms: C_32  and  C_52
   17  A    between atoms: C_34  and  C_37
   18  A    between atoms: C_37  and  C_53
   19  A    between atoms: C_42  and  C_59
                            x       y       z     vdW  Elec       q    Type
                         _______ _______ _______ _____ _____    ______ ____

>  <TORSDO>
F 19

$$$$
