=
 OpenBabel11032420423D

 45 52  0  0  1  0  0  0  0  0999 V2000
  189.4500  177.1030  140.7440 C   0  0  0  0  0  3  0  0  0  0  0  0
  189.6530  177.5880  145.0320 C   0  0  1  0  0  3  0  0  0  0  0  0
  189.4130  176.8300  146.2520 N   0  0  0  0  0  2  0  0  0  0  0  0
  190.3600  176.7310  139.8380 C   0  0  0  0  0  3  0  0  0  0  0  0
  189.8710  177.9550  141.9160 C   0  0  0  0  0  0  0  0  0  0  0  0
  191.7990  177.5450  143.5800 C   0  0  0  0  0  2  0  0  0  0  0  0
  191.3060  177.6840  142.3400 C   0  0  0  0  0  0  0  0  0  0  0  0
  191.0820  177.5330  144.8240 N   0  0  2  0  0  0  0  0  0  0  0  0
  187.5500  176.7820  144.2590 C   0  0  0  0  0  2  0  0  0  0  0  0
  188.8900  178.1480  142.9890 N   0  0  0  0  0  0  0  0  0  0  0  0
  191.7610  177.1490  145.9820 N   0  0  0  0  0  2  0  0  0  0  0  0
  186.6650  177.3100  143.1630 C   0  0  2  0  0  3  0  0  0  0  0  0
  187.5350  178.3100  142.4640 C   0  0  0  0  0  2  0  0  0  0  0  0
  192.2480  177.4520  141.2350 C   0  0  0  0  0  3  0  0  0  0  0  0
  191.8020  177.0380  140.0410 C   0  0  0  0  0  0  0  0  0  0  0  0
  188.9280  177.0580  143.8770 N   0  0  1  0  0  0  0  0  0  0  0  0
  190.7030  176.8610  146.9450 C   0  0  0  0  0  2  0  0  0  0  0  0
  185.5100  177.9830  143.7610 C   0  0  0  0  0  0  0  0  0  0  0  0
  184.5440  178.5180  144.2500 C   0  0  0  0  0  0  0  0  0  0  0  0
  183.3460  179.1360  144.8150 C   0  0  0  0  0  2  0  0  0  0  0  0
  182.4370  179.6290  143.7000 C   0  0  0  0  0  2  0  0  0  0  0  0
  181.6300  178.4760  143.0920 C   0  0  1  0  0  3  0  0  0  0  0  0
  180.3840  178.4190  143.7120 O   0  0  0  0  0  1  0  0  0  0  0  0
  182.8030  179.3300  139.5210 C   0  0  0  0  0  0  0  0  0  0  0  0
  183.5390  177.5600  140.9210 O   0  0  0  0  0  1  0  0  0  0  0  0
  180.3650  179.7470  139.6660 C   0  0  0  0  0  2  0  0  0  0  0  0
  180.5390  179.7290  141.1830 C   0  0  0  0  0  2  0  0  0  0  0  0
  183.9790  179.3920  138.7980 O   0  0  0  0  0  1  0  0  0  0  0  0
  182.8360  178.7640  140.9240 C   0  0  2  0  0  3  0  0  0  0  0  0
  181.4560  178.5700  141.5710 C   0  0  1  0  0  3  0  0  0  0  0  0
  181.6900  179.8120  138.9740 C   0  0  0  0  0  3  0  0  0  0  0  0
  192.7600  176.7860  139.0150 N   0  0  0  0  0  2  0  0  0  0  0  0
  192.4130  176.7240  137.6560 N   0  0  0  0  0  0  0  0  0  0  0  0
  192.6940  175.6760  136.9440 C   0  0  0  0  0  3  0  0  0  0  0  0
  194.7970  173.2190  136.5150 C   0  0  1  0  0  0  0  0  0  0  0  0
  193.3920  174.4930  137.5490 C   0  0  1  0  0  3  0  0  0  0  0  0
  195.4530  175.5400  136.5470 O   0  0  0  0  0  1  0  0  0  0  0  0
  195.7370  173.3060  137.7080 C   0  0  2  0  0  3  0  0  0  0  0  0
  193.2800  173.2690  136.6740 C   0  0  0  0  0  2  0  0  0  0  0  0
  194.9040  174.5230  137.3460 C   0  0  2  0  0  0  0  0  0  0  0  0
  195.2850  173.3980  135.2140 O   0  0  0  0  0  1  0  0  0  0  0  0
  197.2430  173.5500  137.4870 C   0  0  2  0  0  0  0  0  0  0  0  0
  198.0660  172.3620  137.2070 C   0  0  0  0  0  2  0  0  0  0  0  0
  197.9450  174.6090  138.3130 C   0  0  0  0  0  1  0  0  0  0  0  0
  197.7990  173.3330  136.2260 O   0  0  0  0  0  0  0  0  0  0  0  0
  1  5  1  0  0  0  0
  2  3  1  1  0  0  0
  3 17  1  0  0  0  0
  4 15  1  0  0  0  0
  4  1  2  0  0  0  0
  5  7  2  0  0  0  0
  5 10  1  0  0  0  0
  7  6  1  0  0  0  0
  8  6  1  6  0  0  0
  8  2  1  0  0  0  0
  8 11  1  0  0  0  0
 10 16  1  0  0  0  0
 11 17  1  0  0  0  0
 12 18  1  1  0  0  0
 12  9  1  0  0  0  0
 13 10  1  0  0  0  0
 13 12  1  0  0  0  0
 14  7  1  0  0  0  0
 15 14  2  0  0  0  0
 16  9  1  1  0  0  0
 16  2  1  0  0  0  0
 18 19  3  0  0  0  0
 19 20  1  0  0  0  0
 21 20  1  0  0  0  0
 22 21  1  0  0  0  0
 22 23  1  1  0  0  0
 24 29  1  0  0  0  0
 26 27  1  0  0  0  0
 27 30  1  0  0  0  0
 28 24  1  0  0  0  0
 29 25  1  6  0  0  0
 29 30  1  0  0  0  0
 30 22  1  1  0  0  0
 31 24  2  0  0  0  0
 31 26  1  0  0  0  0
 32 15  1  0  0  0  0
 33 32  1  0  0  0  0
 34 33  2  0  0  0  0
 35 41  1  6  0  0  0
 35 39  1  0  0  0  0
 35 40  1  0  0  0  0
 35 38  1  0  0  0  0
 36 34  1  6  0  0  0
 38 42  1  6  0  0  0
 39 36  1  0  0  0  0
 40 37  1  6  0  0  0
 40 36  1  0  0  0  0
 40 38  1  0  0  0  0
 42 44  1  1  0  0  0
 43 42  1  0  0  0  0
 45 43  1  0  0  0  0
 45 42  1  0  0  0  0
M  END
>  <MODEL>
1

>  <REMARK>
 VINA RESULT:      -8.8      0.000      0.000
  Name = 
  9 active torsions:
  status: ('A' for Active; 'I' for Inactive)
    1  A    between atoms: C_1  and  C_36
    2  A    between atoms: C_1  and  C_39
    3  A    between atoms: C_2  and  C_39
    4  A    between atoms: C_2  and  C_45
    5  A    between atoms: C_7  and  C_24
    6  A    between atoms: C_13  and  C_16
    7  A    between atoms: N_22  and  N_44
    8  A    between atoms: C_29  and  C_43
    9  A    between atoms: C_35  and  N_44
                            x       y       z     vdW  Elec       q    Type
                         _______ _______ _______ _____ _____    ______ ____

>  <TORSDO>
F 9

$$$$
=
 OpenBabel11032420423D

 45 52  0  0  1  0  0  0  0  0999 V2000
  189.6070  177.2000  140.6980 C   0  0  0  0  0  3  0  0  0  0  0  0
  189.6910  177.5700  145.0030 C   0  0  1  0  0  3  0  0  0  0  0  0
  189.4350  176.7740  146.1940 N   0  0  0  0  0  2  0  0  0  0  0  0
  190.5480  176.8720  139.8070 C   0  0  0  0  0  3  0  0  0  0  0  0
  189.9810  178.0280  141.9040 C   0  0  0  0  0  0  0  0  0  0  0  0
  191.8740  177.6080  143.6060 C   0  0  0  0  0  2  0  0  0  0  0  0
  191.4110  177.7720  142.3580 C   0  0  0  0  0  0  0  0  0  0  0  0
  191.1260  177.5470  144.8310 N   0  0  2  0  0  0  0  0  0  0  0  0
  187.6250  176.7460  144.1520 C   0  0  0  0  0  2  0  0  0  0  0  0
  188.9700  178.1720  142.9560 N   0  0  0  0  0  0  0  0  0  0  0  0
  191.7830  177.1450  145.9940 N   0  0  0  0  0  2  0  0  0  0  0  0
  186.7580  177.2880  143.0490 C   0  0  2  0  0  3  0  0  0  0  0  0
  187.6260  178.3230  142.4000 C   0  0  0  0  0  2  0  0  0  0  0  0
  192.3840  177.5880  141.2720 C   0  0  0  0  0  3  0  0  0  0  0  0
  191.9780  177.1990  140.0560 C   0  0  0  0  0  0  0  0  0  0  0  0
  189.0060  177.0580  143.8150 N   0  0  1  0  0  0  0  0  0  0  0  0
  190.7060  176.8100  146.9210 C   0  0  0  0  0  2  0  0  0  0  0  0
  185.5750  177.9220  143.6350 C   0  0  0  0  0  0  0  0  0  0  0  0
  184.6100  178.4430  144.1390 C   0  0  0  0  0  0  0  0  0  0  0  0
  183.4520  179.0510  144.7920 C   0  0  0  0  0  2  0  0  0  0  0  0
  182.4940  179.6050  143.7490 C   0  0  0  0  0  2  0  0  0  0  0  0
  181.5850  178.5040  143.1910 C   0  0  1  0  0  3  0  0  0  0  0  0
  180.3740  178.5240  143.8810 O   0  0  0  0  0  1  0  0  0  0  0  0
  182.5790  179.3580  139.5670 C   0  0  0  0  0  0  0  0  0  0  0  0
  183.3610  177.5700  140.9190 O   0  0  0  0  0  1  0  0  0  0  0  0
  180.1590  179.8100  139.8430 C   0  0  0  0  0  2  0  0  0  0  0  0
  180.4130  179.7820  141.3480 C   0  0  0  0  0  2  0  0  0  0  0  0
  183.7150  179.4050  138.7820 O   0  0  0  0  0  1  0  0  0  0  0  0
  182.6780  178.7850  140.9630 C   0  0  2  0  0  3  0  0  0  0  0  0
  181.3320  178.6080  141.6820 C   0  0  1  0  0  3  0  0  0  0  0  0
  181.4460  179.8590  139.0810 C   0  0  0  0  0  3  0  0  0  0  0  0
  192.9670  176.9940  139.0490 N   0  0  0  0  0  2  0  0  0  0  0  0
  193.4280  175.7170  138.6920 N   0  0  0  0  0  0  0  0  0  0  0  0
  193.0550  175.1610  137.5800 C   0  0  0  0  0  3  0  0  0  0  0  0
  190.8330  174.8900  135.2070 C   0  0  1  0  0  0  0  0  0  0  0  0
  192.1260  175.8660  136.6350 C   0  0  1  0  0  3  0  0  0  0  0  0
  190.4370  174.2020  137.4850 O   0  0  0  0  0  1  0  0  0  0  0  0
  189.6840  175.7820  135.6520 C   0  0  2  0  0  3  0  0  0  0  0  0
  192.2830  175.3670  135.2200 C   0  0  0  0  0  2  0  0  0  0  0  0
  190.6990  175.3280  136.6870 C   0  0  2  0  0  0  0  0  0  0  0  0
  190.6420  173.5080  135.0620 O   0  0  0  0  0  1  0  0  0  0  0  0
  188.2900  175.1760  135.9050 C   0  0  2  0  0  0  0  0  0  0  0  0
  187.3870  175.1000  134.7460 C   0  0  0  0  0  2  0  0  0  0  0  0
  187.5900  175.4660  137.2180 C   0  0  0  0  0  1  0  0  0  0  0  0
  187.9550  173.9530  135.3250 O   0  0  0  0  0  0  0  0  0  0  0  0
  1  5  1  0  0  0  0
  2  3  1  1  0  0  0
  3 17  1  0  0  0  0
  4 15  1  0  0  0  0
  4  1  2  0  0  0  0
  5  7  2  0  0  0  0
  5 10  1  0  0  0  0
  7  6  1  0  0  0  0
  8  6  1  6  0  0  0
  8  2  1  0  0  0  0
  8 11  1  0  0  0  0
 10 16  1  0  0  0  0
 11 17  1  0  0  0  0
 12 18  1  1  0  0  0
 12  9  1  0  0  0  0
 13 10  1  0  0  0  0
 13 12  1  0  0  0  0
 14  7  1  0  0  0  0
 15 14  2  0  0  0  0
 16  9  1  1  0  0  0
 16  2  1  0  0  0  0
 18 19  3  0  0  0  0
 19 20  1  0  0  0  0
 21 20  1  0  0  0  0
 22 21  1  0  0  0  0
 22 23  1  1  0  0  0
 24 29  1  0  0  0  0
 26 27  1  0  0  0  0
 27 30  1  0  0  0  0
 28 24  1  0  0  0  0
 29 25  1  6  0  0  0
 29 30  1  0  0  0  0
 30 22  1  1  0  0  0
 31 24  2  0  0  0  0
 31 26  1  0  0  0  0
 32 15  1  0  0  0  0
 33 32  1  0  0  0  0
 34 33  2  0  0  0  0
 35 41  1  6  0  0  0
 35 39  1  0  0  0  0
 35 38  1  0  0  0  0
 35 40  1  0  0  0  0
 36 40  1  0  0  0  0
 36 34  1  1  0  0  0
 38 42  1  1  0  0  0
 38 40  1  0  0  0  0
 39 36  1  0  0  0  0
 40 37  1  1  0  0  0
 42 44  1  1  0  0  0
 43 45  1  0  0  0  0
 43 42  1  0  0  0  0
 45 42  1  0  0  0  0
M  END
>  <MODEL>
2

>  <REMARK>
 VINA RESULT:      -8.6      2.166      3.566
  Name = 
  9 active torsions:
  status: ('A' for Active; 'I' for Inactive)
    1  A    between atoms: C_1  and  C_36
    2  A    between atoms: C_1  and  C_39
    3  A    between atoms: C_2  and  C_39
    4  A    between atoms: C_2  and  C_45
    5  A    between atoms: C_7  and  C_24
    6  A    between atoms: C_13  and  C_16
    7  A    between atoms: N_22  and  N_44
    8  A    between atoms: C_29  and  C_43
    9  A    between atoms: C_35  and  N_44
                            x       y       z     vdW  Elec       q    Type
                         _______ _______ _______ _____ _____    ______ ____

>  <TORSDO>
F 9

$$$$
=
 OpenBabel11032420423D

 45 52  0  0  1  0  0  0  0  0999 V2000
  191.9020  176.7040  139.1290 C   0  0  0  0  0  3  0  0  0  0  0  0
  187.9750  177.8250  140.5400 C   0  0  1  0  0  3  0  0  0  0  0  0
  187.2310  179.0120  140.9360 N   0  0  0  0  0  2  0  0  0  0  0  0
  192.4050  176.5520  137.9000 C   0  0  0  0  0  3  0  0  0  0  0  0
  190.4770  176.2920  139.4070 C   0  0  0  0  0  0  0  0  0  0  0  0
  188.3410  176.9620  138.1240 C   0  0  0  0  0  2  0  0  0  0  0  0
  189.5820  176.4560  138.1870 C   0  0  0  0  0  0  0  0  0  0  0  0
  187.5700  177.5580  139.1790 N   0  0  2  0  0  0  0  0  0  0  0  0
  189.7500  178.6260  141.9110 C   0  0  0  0  0  2  0  0  0  0  0  0
  189.9080  176.6810  140.7010 N   0  0  0  0  0  0  0  0  0  0  0  0
  186.3900  178.2250  138.8480 N   0  0  0  0  0  2  0  0  0  0  0  0
  190.9230  177.8850  142.4910 C   0  0  2  0  0  3  0  0  0  0  0  0
  190.8870  176.5650  141.7810 C   0  0  0  0  0  2  0  0  0  0  0  0
  190.2060  176.0980  136.9050 C   0  0  0  0  0  3  0  0  0  0  0  0
  191.5400  176.1060  136.7750 C   0  0  0  0  0  0  0  0  0  0  0  0
  189.4250  178.0010  140.6380 N   0  0  1  0  0  0  0  0  0  0  0  0
  186.0810  179.0250  140.0290 C   0  0  0  0  0  2  0  0  0  0  0  0
  190.7060  177.6880  143.9260 C   0  0  0  0  0  0  0  0  0  0  0  0
  190.5380  177.5470  145.1120 C   0  0  0  0  0  0  0  0  0  0  0  0
  190.3710  177.4070  146.5580 C   0  0  0  0  0  2  0  0  0  0  0  0
  189.1120  176.6120  146.8650 C   0  0  0  0  0  2  0  0  0  0  0  0
  187.9700  177.5320  147.3120 C   0  0  1  0  0  3  0  0  0  0  0  0
  188.4870  178.5270  148.1390 O   0  0  0  0  0  1  0  0  0  0  0  0
  184.7500  178.6680  145.5240 C   0  0  0  0  0  0  0  0  0  0  0  0
  185.7710  179.6150  147.4460 O   0  0  0  0  0  1  0  0  0  0  0  0
  186.3810  177.9310  143.8100 C   0  0  0  0  0  2  0  0  0  0  0  0
  187.1280  177.2340  144.9440 C   0  0  0  0  0  2  0  0  0  0  0  0
  183.4820  179.1120  145.8450 O   0  0  0  0  0  1  0  0  0  0  0  0
  185.7630  178.4830  146.6330 C   0  0  2  0  0  3  0  0  0  0  0  0
  187.1880  178.1650  146.1550 C   0  0  1  0  0  3  0  0  0  0  0  0
  185.0230  178.3760  144.2540 C   0  0  0  0  0  3  0  0  0  0  0  0
  192.0940  175.7920  135.4990 N   0  0  0  0  0  2  0  0  0  0  0  0
  193.0780  176.5840  134.8880 N   0  0  0  0  0  0  0  0  0  0  0  0
  194.3260  176.2270  134.9060 C   0  0  0  0  0  3  0  0  0  0  0  0
  196.7170  174.0630  135.3980 C   0  0  1  0  0  0  0  0  0  0  0  0
  194.7570  174.9530  135.5730 C   0  0  1  0  0  3  0  0  0  0  0  0
  196.7610  176.3130  136.2670 O   0  0  0  0  0  1  0  0  0  0  0  0
  196.7490  173.8610  136.9060 C   0  0  2  0  0  3  0  0  0  0  0  0
  195.4180  174.0080  134.6000 C   0  0  0  0  0  2  0  0  0  0  0  0
  196.0630  175.0970  136.3490 C   0  0  2  0  0  0  0  0  0  0  0  0
  197.8260  174.6060  134.7340 O   0  0  0  0  0  1  0  0  0  0  0  0
  198.0170  174.2150  137.7060 C   0  0  2  0  0  0  0  0  0  0  0  0
  199.1540  173.2880  137.5790 C   0  0  0  0  0  2  0  0  0  0  0  0
  197.8710  174.8300  139.0840 C   0  0  0  0  0  1  0  0  0  0  0  0
  199.1800  174.5800  137.0280 O   0  0  0  0  0  0  0  0  0  0  0  0
  1  5  1  0  0  0  0
  2 16  1  0  0  0  0
  2  3  1  6  0  0  0
  4  1  2  0  0  0  0
  5 10  1  0  0  0  0
  6  7  1  0  0  0  0
  7  5  2  0  0  0  0
  8  6  1  6  0  0  0
  8  2  1  0  0  0  0
  9 12  1  0  0  0  0
 10 13  1  0  0  0  0
 11  8  1  0  0  0  0
 11 17  1  0  0  0  0
 12 18  1  1  0  0  0
 13 12  1  0  0  0  0
 14  7  1  0  0  0  0
 15 14  2  0  0  0  0
 15  4  1  0  0  0  0
 16 10  1  0  0  0  0
 16  9  1  1  0  0  0
 17  3  1  0  0  0  0
 18 19  3  0  0  0  0
 19 20  1  0  0  0  0
 20 21  1  0  0  0  0
 21 22  1  0  0  0  0
 22 23  1  1  0  0  0
 24 28  1  0  0  0  0
 24 29  1  0  0  0  0
 26 31  1  0  0  0  0
 26 27  1  0  0  0  0
 27 30  1  0  0  0  0
 29 25  1  6  0  0  0
 30 29  1  0  0  0  0
 30 22  1  1  0  0  0
 31 24  2  0  0  0  0
 32 15  1  0  0  0  0
 33 34  2  0  0  0  0
 33 32  1  0  0  0  0
 35 41  1  6  0  0  0
 35 40  1  0  0  0  0
 35 38  1  0  0  0  0
 36 34  1  6  0  0  0
 36 40  1  0  0  0  0
 38 42  1  1  0  0  0
 39 35  1  0  0  0  0
 39 36  1  0  0  0  0
 40 37  1  1  0  0  0
 40 38  1  0  0  0  0
 42 44  1  1  0  0  0
 43 42  1  0  0  0  0
 45 43  1  0  0  0  0
 45 42  1  0  0  0  0
M  END
>  <MODEL>
3

>  <REMARK>
 VINA RESULT:      -8.6      3.035      5.278
  Name = 
  9 active torsions:
  status: ('A' for Active; 'I' for Inactive)
    1  A    between atoms: C_1  and  C_36
    2  A    between atoms: C_1  and  C_39
    3  A    between atoms: C_2  and  C_39
    4  A    between atoms: C_2  and  C_45
    5  A    between atoms: C_7  and  C_24
    6  A    between atoms: C_13  and  C_16
    7  A    between atoms: N_22  and  N_44
    8  A    between atoms: C_29  and  C_43
    9  A    between atoms: C_35  and  N_44
                            x       y       z     vdW  Elec       q    Type
                         _______ _______ _______ _____ _____    ______ ____

>  <TORSDO>
F 9

$$$$
=
 OpenBabel11032420423D

 45 52  0  0  1  0  0  0  0  0999 V2000
  186.7800  177.4680  137.9690 C   0  0  0  0  0  3  0  0  0  0  0  0
  191.0090  176.7310  137.4750 C   0  0  1  0  0  3  0  0  0  0  0  0
  191.9900  175.6780  137.6970 N   0  0  0  0  0  2  0  0  0  0  0  0
  185.7400  177.3140  137.1430 C   0  0  0  0  0  3  0  0  0  0  0  0
  188.1050  177.9370  137.4170 C   0  0  0  0  0  0  0  0  0  0  0  0
  189.4380  176.9770  135.4290 C   0  0  0  0  0  2  0  0  0  0  0  0
  188.3250  177.4810  135.9830 C   0  0  0  0  0  0  0  0  0  0  0  0
  190.6830  176.6580  136.0690 N   0  0  2  0  0  0  0  0  0  0  0  0
  190.2100  176.2860  139.6740 C   0  0  0  0  0  2  0  0  0  0  0  0
  189.2620  177.8770  138.3160 N   0  0  0  0  0  0  0  0  0  0  0  0
  191.6360  175.9320  135.3520 N   0  0  0  0  0  2  0  0  0  0  0  0
  189.3730  177.1450  140.5810 C   0  0  2  0  0  3  0  0  0  0  0  0
  188.9070  178.2510  139.6830 C   0  0  0  0  0  2  0  0  0  0  0  0
  187.1290  177.5150  135.1280 C   0  0  0  0  0  3  0  0  0  0  0  0
  185.9060  177.4740  135.6740 C   0  0  0  0  0  0  0  0  0  0  0  0
  189.8130  176.5820  138.3050 N   0  0  1  0  0  0  0  0  0  0  0  0
  192.5620  175.4460  136.3690 C   0  0  0  0  0  2  0  0  0  0  0  0
  190.2190  177.6870  141.6470 C   0  0  0  0  0  0  0  0  0  0  0  0
  190.9180  178.1110  142.5340 C   0  0  0  0  0  0  0  0  0  0  0  0
  191.7490  178.5890  143.6380 C   0  0  0  0  0  2  0  0  0  0  0  0
  190.9280  178.6690  144.9150 C   0  0  0  0  0  2  0  0  0  0  0  0
  190.6900  177.2770  145.5110 C   0  0  1  0  0  3  0  0  0  0  0  0
  191.7390  176.9700  146.3760 O   0  0  0  0  0  1  0  0  0  0  0  0
  186.9440  178.0060  146.0430 C   0  0  0  0  0  0  0  0  0  0  0  0
  187.9570  176.7230  144.3220 O   0  0  0  0  0  1  0  0  0  0  0  0
  188.0020  177.6830  148.2590 C   0  0  0  0  0  2  0  0  0  0  0  0
  189.3400  177.9020  147.5580 C   0  0  0  0  0  2  0  0  0  0  0  0
  185.8290  178.3310  145.2940 O   0  0  0  0  0  1  0  0  0  0  0  0
  188.2280  177.6510  145.3270 C   0  0  2  0  0  3  0  0  0  0  0  0
  189.3490  177.1300  146.2400 C   0  0  1  0  0  3  0  0  0  0  0  0
  186.8590  178.0600  147.3700 C   0  0  0  0  0  3  0  0  0  0  0  0
  184.7790  177.4650  134.7990 N   0  0  0  0  0  2  0  0  0  0  0  0
  183.8720  176.3950  134.7470 N   0  0  0  0  0  0  0  0  0  0  0  0
  182.7140  176.4760  135.3280 C   0  0  0  0  0  3  0  0  0  0  0  0
  180.7790  177.8000  137.5960 C   0  0  1  0  0  0  0  0  0  0  0  0
  182.3020  177.7160  136.0670 C   0  0  1  0  0  3  0  0  0  0  0  0
  182.5620  176.2580  138.1060 O   0  0  0  0  0  1  0  0  0  0  0  0
  181.7170  178.6180  138.4710 C   0  0  2  0  0  3  0  0  0  0  0  0
  180.8040  177.8920  136.0730 C   0  0  0  0  0  2  0  0  0  0  0  0
  182.3060  177.5360  137.5830 C   0  0  2  0  0  0  0  0  0  0  0  0
  180.0750  176.7140  138.1350 O   0  0  0  0  0  1  0  0  0  0  0  0
  181.8650  178.2830  139.9670 C   0  0  2  0  0  0  0  0  0  0  0  0
  180.9850  179.0120  140.8950 C   0  0  0  0  0  2  0  0  0  0  0  0
  183.2460  177.9930  140.5220 C   0  0  0  0  0  1  0  0  0  0  0  0
  180.8230  177.6400  140.6360 O   0  0  0  0  0  0  0  0  0  0  0  0
  2  3  1  1  0  0  0
  2 16  1  0  0  0  0
  4  1  2  0  0  0  0
  5  1  1  0  0  0  0
  5 10  1  0  0  0  0
  6  7  1  0  0  0  0
  7  5  2  0  0  0  0
  8  6  1  1  0  0  0
  8  2  1  0  0  0  0
  9 12  1  0  0  0  0
 10 13  1  0  0  0  0
 11  8  1  0  0  0  0
 11 17  1  0  0  0  0
 12 18  1  1  0  0  0
 13 12  1  0  0  0  0
 14 15  2  0  0  0  0
 14  7  1  0  0  0  0
 15  4  1  0  0  0  0
 16 10  1  0  0  0  0
 16  9  1  1  0  0  0
 17  3  1  0  0  0  0
 18 19  3  0  0  0  0
 19 20  1  0  0  0  0
 20 21  1  0  0  0  0
 21 22  1  0  0  0  0
 22 23  1  1  0  0  0
 24 31  2  0  0  0  0
 27 26  1  0  0  0  0
 28 24  1  0  0  0  0
 29 25  1  6  0  0  0
 29 24  1  0  0  0  0
 29 30  1  0  0  0  0
 30 22  1  6  0  0  0
 30 27  1  0  0  0  0
 31 26  1  0  0  0  0
 32 15  1  0  0  0  0
 33 32  1  0  0  0  0
 33 34  2  0  0  0  0
 35 41  1  1  0  0  0
 35 38  1  0  0  0  0
 36 34  1  6  0  0  0
 36 39  1  0  0  0  0
 36 40  1  0  0  0  0
 38 42  1  1  0  0  0
 39 35  1  0  0  0  0
 40 35  1  0  0  0  0
 40 37  1  1  0  0  0
 40 38  1  0  0  0  0
 42 44  1  1  0  0  0
 42 45  1  0  0  0  0
 42 43  1  0  0  0  0
 45 43  1  0  0  0  0
M  END
>  <MODEL>
4

>  <REMARK>
 VINA RESULT:      -8.5      4.482     10.248
  Name = 
  9 active torsions:
  status: ('A' for Active; 'I' for Inactive)
    1  A    between atoms: C_1  and  C_36
    2  A    between atoms: C_1  and  C_39
    3  A    between atoms: C_2  and  C_39
    4  A    between atoms: C_2  and  C_45
    5  A    between atoms: C_7  and  C_24
    6  A    between atoms: C_13  and  C_16
    7  A    between atoms: N_22  and  N_44
    8  A    between atoms: C_29  and  C_43
    9  A    between atoms: C_35  and  N_44
                            x       y       z     vdW  Elec       q    Type
                         _______ _______ _______ _____ _____    ______ ____

>  <TORSDO>
F 9

$$$$
=
 OpenBabel11032420423D

 45 52  0  0  1  0  0  0  0  0999 V2000
  186.6260  178.7560  141.8330 C   0  0  0  0  0  3  0  0  0  0  0  0
  190.0060  176.9980  143.8730 C   0  0  1  0  0  3  0  0  0  0  0  0
  191.3440  177.3550  144.3230 N   0  0  0  0  0  2  0  0  0  0  0  0
  185.5310  179.3770  142.2820 C   0  0  0  0  0  3  0  0  0  0  0  0
  187.1880  177.5870  142.6060 C   0  0  0  0  0  0  0  0  0  0  0  0
  187.7790  177.4640  145.1130 C   0  0  0  0  0  2  0  0  0  0  0  0
  186.9340  177.7090  144.1010 C   0  0  0  0  0  0  0  0  0  0  0  0
  189.1680  177.1050  145.0450 N   0  0  2  0  0  0  0  0  0  0  0  0
  190.5650  178.0130  141.7920 C   0  0  0  0  0  2  0  0  0  0  0  0
  188.5040  177.0850  142.1970 N   0  0  0  0  0  0  0  0  0  0  0  0
  189.9190  177.1170  146.2220 N   0  0  0  0  0  2  0  0  0  0  0  0
  189.9260  177.8460  140.4420 C   0  0  2  0  0  3  0  0  0  0  0  0
  188.6620  177.0980  140.7440 C   0  0  0  0  0  2  0  0  0  0  0  0
  185.6200  178.2570  144.4660 C   0  0  0  0  0  3  0  0  0  0  0  0
  184.9370  179.0150  143.5970 C   0  0  0  0  0  0  0  0  0  0  0  0
  189.5190  177.8570  142.7920 N   0  0  1  0  0  0  0  0  0  0  0  0
  191.3060  177.1080  145.7660 C   0  0  0  0  0  2  0  0  0  0  0  0
  190.7990  177.0310  139.5940 C   0  0  0  0  0  0  0  0  0  0  0  0
  191.5220  176.3780  138.8810 C   0  0  0  0  0  0  0  0  0  0  0  0
  192.3850  175.6170  137.9790 C   0  0  0  0  0  2  0  0  0  0  0  0
  191.5470  174.7000  137.1020 C   0  0  0  0  0  2  0  0  0  0  0  0
  190.9630  175.4590  135.9050 C   0  0  1  0  0  3  0  0  0  0  0  0
  191.2320  174.7420  134.7410 O   0  0  0  0  0  1  0  0  0  0  0  0
  187.8980  177.6230  136.7890 C   0  0  0  0  0  0  0  0  0  0  0  0
  189.4330  177.9160  135.0020 O   0  0  0  0  0  1  0  0  0  0  0  0
  187.3310  175.2490  137.2150 C   0  0  0  0  0  2  0  0  0  0  0  0
  188.8320  174.9730  137.1810 C   0  0  0  0  0  2  0  0  0  0  0  0
  187.5490  178.9580  136.8530 O   0  0  0  0  0  1  0  0  0  0  0  0
  189.2440  177.2450  136.2090 C   0  0  2  0  0  3  0  0  0  0  0  0
  189.4580  175.7360  136.0150 C   0  0  1  0  0  3  0  0  0  0  0  0
  187.0550  176.7170  137.2810 C   0  0  0  0  0  3  0  0  0  0  0  0
  183.6860  179.5580  144.0150 N   0  0  0  0  0  2  0  0  0  0  0  0
  182.5320  178.7730  144.1580 N   0  0  0  0  0  0  0  0  0  0  0  0
  181.7780  178.5050  143.1350 C   0  0  0  0  0  3  0  0  0  0  0  0
  181.0650  178.5080  139.9520 C   0  0  1  0  0  0  0  0  0  0  0  0
  182.1200  179.0180  141.7670 C   0  0  1  0  0  3  0  0  0  0  0  0
  179.6520  179.5080  141.6320 O   0  0  0  0  0  1  0  0  0  0  0  0
  181.0400  179.9790  139.5650 C   0  0  2  0  0  3  0  0  0  0  0  0
  182.2100  177.9010  140.7570 C   0  0  0  0  0  2  0  0  0  0  0  0
  180.9180  179.6090  141.0330 C   0  0  2  0  0  0  0  0  0  0  0  0
  179.9030  177.7300  139.8520 O   0  0  0  0  0  1  0  0  0  0  0  0
  179.7450  180.6120  139.0200 C   0  0  2  0  0  0  0  0  0  0  0  0
  179.7100  180.8960  137.5760 C   0  0  0  0  0  2  0  0  0  0  0  0
  179.0100  181.6300  139.8690 C   0  0  0  0  0  1  0  0  0  0  0  0
  178.9310  179.8800  138.1560 O   0  0  0  0  0  0  0  0  0  0  0  0
  1  4  2  0  0  0  0
  1  5  1  0  0  0  0
  2  3  1  1  0  0  0
  2  8  1  0  0  0  0
  3 17  1  0  0  0  0
  4 15  1  0  0  0  0
  5  7  2  0  0  0  0
  7 14  1  0  0  0  0
  7  6  1  0  0  0  0
  8  6  1  6  0  0  0
  8 11  1  0  0  0  0
 10  5  1  0  0  0  0
 10 16  1  0  0  0  0
 12 18  1  6  0  0  0
 12 13  1  0  0  0  0
 12  9  1  0  0  0  0
 13 10  1  0  0  0  0
 15 32  1  0  0  0  0
 15 14  2  0  0  0  0
 16  9  1  6  0  0  0
 16  2  1  0  0  0  0
 17 11  1  0  0  0  0
 19 18  3  0  0  0  0
 20 19  1  0  0  0  0
 21 20  1  0  0  0  0
 22 23  1  6  0  0  0
 22 21  1  0  0  0  0
 24 28  1  0  0  0  0
 24 31  2  0  0  0  0
 26 31  1  0  0  0  0
 27 26  1  0  0  0  0
 29 25  1  6  0  0  0
 29 24  1  0  0  0  0
 30 22  1  1  0  0  0
 30 29  1  0  0  0  0
 30 27  1  0  0  0  0
 32 33  1  0  0  0  0
 34 33  2  0  0  0  0
 35 41  1  6  0  0  0
 35 39  1  0  0  0  0
 35 40  1  0  0  0  0
 36 34  1  1  0  0  0
 38 42  1  6  0  0  0
 38 35  1  0  0  0  0
 38 40  1  0  0  0  0
 39 36  1  0  0  0  0
 40 37  1  1  0  0  0
 40 36  1  0  0  0  0
 42 44  1  1  0  0  0
 43 45  1  0  0  0  0
 43 42  1  0  0  0  0
 45 42  1  0  0  0  0
M  END
>  <MODEL>
5

>  <REMARK>
 VINA RESULT:      -8.4      2.881     10.750
  Name = 
  9 active torsions:
  status: ('A' for Active; 'I' for Inactive)
    1  A    between atoms: C_1  and  C_36
    2  A    between atoms: C_1  and  C_39
    3  A    between atoms: C_2  and  C_39
    4  A    between atoms: C_2  and  C_45
    5  A    between atoms: C_7  and  C_24
    6  A    between atoms: C_13  and  C_16
    7  A    between atoms: N_22  and  N_44
    8  A    between atoms: C_29  and  C_43
    9  A    between atoms: C_35  and  N_44
                            x       y       z     vdW  Elec       q    Type
                         _______ _______ _______ _____ _____    ______ ____

>  <TORSDO>
F 9

$$$$
=
 OpenBabel11032420423D

 45 52  0  0  1  0  0  0  0  0999 V2000
  185.2000  177.8770  142.2900 C   0  0  0  0  0  3  0  0  0  0  0  0
  181.0060  178.7690  141.7560 C   0  0  1  0  0  3  0  0  0  0  0  0
  179.7270  178.0820  141.6400 N   0  0  0  0  0  2  0  0  0  0  0  0
  185.9660  177.7840  143.3820 C   0  0  0  0  0  3  0  0  0  0  0  0
  184.1110  178.9220  142.2320 C   0  0  0  0  0  0  0  0  0  0  0  0
  182.2420  179.3790  143.9490 C   0  0  0  0  0  2  0  0  0  0  0  0
  183.5290  179.2240  143.6040 C   0  0  0  0  0  0  0  0  0  0  0  0
  181.0760  179.2150  143.1280 N   0  0  2  0  0  0  0  0  0  0  0  0
  181.8580  177.1940  140.1850 C   0  0  0  0  0  2  0  0  0  0  0  0
  183.1640  178.8380  141.1150 N   0  0  0  0  0  0  0  0  0  0  0  0
  179.8230  179.2040  143.7430 N   0  0  0  0  0  2  0  0  0  0  0  0
  183.0860  177.2710  139.3210 C   0  0  2  0  0  3  0  0  0  0  0  0
  183.8250  178.4540  139.8700 C   0  0  0  0  0  2  0  0  0  0  0  0
  184.5070  179.2540  144.7020 C   0  0  0  0  0  3  0  0  0  0  0  0
  185.6740  178.6070  144.5870 C   0  0  0  0  0  0  0  0  0  0  0  0
  182.1450  177.9150  141.4170 N   0  0  1  0  0  0  0  0  0  0  0  0
  178.9310  178.6360  142.7370 C   0  0  0  0  0  2  0  0  0  0  0  0
  182.6840  177.5300  137.9360 C   0  0  0  0  0  0  0  0  0  0  0  0
  182.3420  177.7210  136.7950 C   0  0  0  0  0  0  0  0  0  0  0  0
  181.9240  177.9050  135.4060 C   0  0  0  0  0  2  0  0  0  0  0  0
  181.5560  179.3590  135.1580 C   0  0  0  0  0  2  0  0  0  0  0  0
  180.0470  179.5830  135.3040 C   0  0  1  0  0  3  0  0  0  0  0  0
  179.4270  178.3540  135.5250 O   0  0  0  0  0  1  0  0  0  0  0  0
  180.6640  182.6220  137.5920 C   0  0  0  0  0  0  0  0  0  0  0  0
  180.2120  182.6100  135.2610 O   0  0  0  0  0  1  0  0  0  0  0  0
  179.3490  180.9440  138.8540 C   0  0  0  0  0  2  0  0  0  0  0  0
  179.7830  179.9330  137.7960 C   0  0  0  0  0  2  0  0  0  0  0  0
  181.3410  183.8260  137.5650 O   0  0  0  0  0  1  0  0  0  0  0  0
  180.5910  181.7950  136.3270 C   0  0  2  0  0  3  0  0  0  0  0  0
  179.6660  180.5710  136.4120 C   0  0  1  0  0  3  0  0  0  0  0  0
  180.1350  182.2110  138.7430 C   0  0  0  0  0  3  0  0  0  0  0  0
  186.5700  178.6310  145.6970 N   0  0  0  0  0  2  0  0  0  0  0  0
  187.0950  177.4620  146.2690 N   0  0  0  0  0  0  0  0  0  0  0  0
  188.3080  177.0800  146.0080 C   0  0  0  0  0  3  0  0  0  0  0  0
  190.7100  177.0470  143.8010 C   0  0  1  0  0  0  0  0  0  0  0  0
  189.1910  177.8770  145.0940 C   0  0  1  0  0  3  0  0  0  0  0  0
  188.5060  176.1620  143.3810 O   0  0  0  0  0  1  0  0  0  0  0  0
  190.1930  177.9080  142.6580 C   0  0  2  0  0  3  0  0  0  0  0  0
  190.6450  177.5050  145.2560 C   0  0  0  0  0  2  0  0  0  0  0  0
  189.1970  177.3520  143.6610 C   0  0  2  0  0  0  0  0  0  0  0  0
  190.9800  175.6870  143.5960 O   0  0  0  0  0  1  0  0  0  0  0  0
  190.0050  177.2980  141.2570 C   0  0  2  0  0  0  0  0  0  0  0  0
  191.2080  177.2030  140.4140 C   0  0  0  0  0  2  0  0  0  0  0  0
  188.7330  177.5990  140.4880 C   0  0  0  0  0  1  0  0  0  0  0  0
  190.5870  176.0660  140.9570 O   0  0  0  0  0  0  0  0  0  0  0  0
  1  4  1  0  0  0  0
  2  3  1  1  0  0  0
  2  8  1  0  0  0  0
  3 17  1  0  0  0  0
  4 15  2  0  0  0  0
  5  1  2  0  0  0  0
  5  7  1  0  0  0  0
  7  6  1  0  0  0  0
  7 14  2  0  0  0  0
  8 11  1  0  0  0  0
  8  6  1  1  0  0  0
 10 16  1  0  0  0  0
 10  5  1  0  0  0  0
 12 18  1  6  0  0  0
 12 13  1  0  0  0  0
 12  9  1  0  0  0  0
 13 10  1  0  0  0  0
 15 14  1  0  0  0  0
 15 32  1  0  0  0  0
 16  9  1  6  0  0  0
 16  2  1  0  0  0  0
 17 11  1  0  0  0  0
 19 18  3  0  0  0  0
 20 19  1  0  0  0  0
 21 22  1  0  0  0  0
 21 20  1  0  0  0  0
 22 23  1  1  0  0  0
 24 31  2  0  0  0  0
 27 26  1  0  0  0  0
 28 24  1  0  0  0  0
 29 25  1  6  0  0  0
 29 30  1  0  0  0  0
 29 24  1  0  0  0  0
 30 22  1  6  0  0  0
 30 27  1  0  0  0  0
 31 26  1  0  0  0  0
 32 33  1  0  0  0  0
 34 33  2  0  0  0  0
 35 41  1  6  0  0  0
 35 39  1  0  0  0  0
 36 39  1  0  0  0  0
 36 34  1  1  0  0  0
 38 42  1  6  0  0  0
 38 40  1  0  0  0  0
 38 35  1  0  0  0  0
 40 37  1  6  0  0  0
 40 35  1  0  0  0  0
 40 36  1  0  0  0  0
 42 44  1  6  0  0  0
 43 45  1  0  0  0  0
 43 42  1  0  0  0  0
 45 42  1  0  0  0  0
M  END
>  <MODEL>
6

>  <REMARK>
 VINA RESULT:      -8.3      4.696      8.233
  Name = 
  9 active torsions:
  status: ('A' for Active; 'I' for Inactive)
    1  A    between atoms: C_1  and  C_36
    2  A    between atoms: C_1  and  C_39
    3  A    between atoms: C_2  and  C_39
    4  A    between atoms: C_2  and  C_45
    5  A    between atoms: C_7  and  C_24
    6  A    between atoms: C_13  and  C_16
    7  A    between atoms: N_22  and  N_44
    8  A    between atoms: C_29  and  C_43
    9  A    between atoms: C_35  and  N_44
                            x       y       z     vdW  Elec       q    Type
                         _______ _______ _______ _____ _____    ______ ____

>  <TORSDO>
F 9

$$$$
=
 OpenBabel11032420423D

 45 52  0  0  1  0  0  0  0  0999 V2000
  183.0450  179.0080  142.7440 C   0  0  0  0  0  3  0  0  0  0  0  0
  185.3860  178.2340  139.1960 C   0  0  1  0  0  3  0  0  0  0  0  0
  185.8410  178.9130  137.9910 N   0  0  0  0  0  2  0  0  0  0  0  0
  183.3830  179.4220  143.9700 C   0  0  0  0  0  3  0  0  0  0  0  0
  183.9620  178.0710  141.9960 C   0  0  0  0  0  0  0  0  0  0  0  0
  186.4880  178.3340  141.5390 C   0  0  0  0  0  2  0  0  0  0  0  0
  185.4250  178.2870  142.3560 C   0  0  0  0  0  0  0  0  0  0  0  0
  186.5090  178.2760  140.1040 N   0  0  2  0  0  0  0  0  0  0  0  0
  183.2270  179.1290  138.7420 C   0  0  0  0  0  2  0  0  0  0  0  0
  183.6590  177.8260  140.5820 N   0  0  0  0  0  0  0  0  0  0  0  0
  187.7020  178.5690  139.4420 N   0  0  0  0  0  2  0  0  0  0  0  0
  181.8810  178.6920  139.2520 C   0  0  2  0  0  3  0  0  0  0  0  0
  182.2200  177.7250  140.3450 C   0  0  0  0  0  2  0  0  0  0  0  0
  185.6800  178.5750  143.7750 C   0  0  0  0  0  3  0  0  0  0  0  0
  184.7080  179.0760  144.5500 C   0  0  0  0  0  0  0  0  0  0  0  0
  184.2000  178.8540  139.7880 N   0  0  1  0  0  0  0  0  0  0  0  0
  187.3000  178.8120  138.0600 C   0  0  0  0  0  2  0  0  0  0  0  0
  181.1610  178.0020  138.1790 C   0  0  0  0  0  0  0  0  0  0  0  0
  180.5740  177.4130  137.3040 C   0  0  0  0  0  0  0  0  0  0  0  0
  179.8910  176.6600  136.2540 C   0  0  0  0  0  2  0  0  0  0  0  0
  179.9010  175.1750  136.5820 C   0  0  0  0  0  2  0  0  0  0  0  0
  180.9150  174.4210  135.7140 C   0  0  1  0  0  3  0  0  0  0  0  0
  181.7030  175.3460  135.0330 O   0  0  0  0  0  1  0  0  0  0  0  0
  184.2770  173.1950  137.1460 C   0  0  0  0  0  0  0  0  0  0  0  0
  182.9800  175.0580  137.8410 O   0  0  0  0  0  1  0  0  0  0  0  0
  182.9090  171.2160  136.5500 C   0  0  0  0  0  2  0  0  0  0  0  0
  182.0590  172.1640  135.7080 C   0  0  0  0  0  2  0  0  0  0  0  0
  185.4730  173.7220  137.5940 O   0  0  0  0  0  1  0  0  0  0  0  0
  183.1430  174.1370  136.8070 C   0  0  2  0  0  3  0  0  0  0  0  0
  181.8050  173.4480  136.4970 C   0  0  1  0  0  3  0  0  0  0  0  0
  184.1780  171.8770  136.9880 C   0  0  0  0  0  3  0  0  0  0  0  0
  185.0190  179.3780  145.9090 N   0  0  0  0  0  2  0  0  0  0  0  0
  185.0410  178.3980  146.9140 N   0  0  0  0  0  0  0  0  0  0  0  0
  186.1570  178.0470  147.4770 C   0  0  0  0  0  3  0  0  0  0  0  0
  189.3730  177.6830  147.0730 C   0  0  1  0  0  0  0  0  0  0  0  0
  187.4580  178.6810  147.0790 C   0  0  1  0  0  3  0  0  0  0  0  0
  187.7270  176.6050  145.6770 O   0  0  0  0  0  1  0  0  0  0  0  0
  189.6540  178.2510  145.6900 C   0  0  2  0  0  3  0  0  0  0  0  0
  188.5360  178.4350  148.1050 C   0  0  0  0  0  2  0  0  0  0  0  0
  188.2280  177.8650  146.0450 C   0  0  2  0  0  0  0  0  0  0  0  0
  189.6100  176.3270  147.3430 O   0  0  0  0  0  1  0  0  0  0  0  0
  190.2410  177.3470  144.5890 C   0  0  2  0  0  0  0  0  0  0  0  0
  191.6380  177.6050  144.2030 C   0  0  0  0  0  2  0  0  0  0  0  0
  189.3510  176.9150  143.4410 C   0  0  0  0  0  1  0  0  0  0  0  0
  191.2590  176.4480  144.9050 O   0  0  0  0  0  0  0  0  0  0  0  0
  1  4  1  0  0  0  0
  2  3  1  6  0  0  0
  2 16  1  0  0  0  0
  2  8  1  0  0  0  0
  3 17  1  0  0  0  0
  4 15  2  0  0  0  0
  5  7  1  0  0  0  0
  5  1  2  0  0  0  0
  6  7  1  0  0  0  0
  7 14  2  0  0  0  0
  8  6  1  1  0  0  0
  9 12  1  0  0  0  0
 10  5  1  0  0  0  0
 11  8  1  0  0  0  0
 12 18  1  6  0  0  0
 12 13  1  0  0  0  0
 13 10  1  0  0  0  0
 14 15  1  0  0  0  0
 15 32  1  0  0  0  0
 16  9  1  6  0  0  0
 16 10  1  0  0  0  0
 17 11  1  0  0  0  0
 19 18  3  0  0  0  0
 20 21  1  0  0  0  0
 20 19  1  0  0  0  0
 22 23  1  1  0  0  0
 22 21  1  0  0  0  0
 24 28  1  0  0  0  0
 26 31  1  0  0  0  0
 27 30  1  0  0  0  0
 27 26  1  0  0  0  0
 29 24  1  0  0  0  0
 29 25  1  1  0  0  0
 30 22  1  6  0  0  0
 30 29  1  0  0  0  0
 31 24  2  0  0  0  0
 32 33  1  0  0  0  0
 33 34  2  0  0  0  0
 35 41  1  1  0  0  0
 35 39  1  0  0  0  0
 36 34  1  1  0  0  0
 36 39  1  0  0  0  0
 38 42  1  6  0  0  0
 38 40  1  0  0  0  0
 38 35  1  0  0  0  0
 40 37  1  6  0  0  0
 40 35  1  0  0  0  0
 40 36  1  0  0  0  0
 42 44  1  6  0  0  0
 42 45  1  0  0  0  0
 43 42  1  0  0  0  0
 43 45  1  0  0  0  0
M  END
>  <MODEL>
7

>  <REMARK>
 VINA RESULT:      -8.2      5.564      9.099
  Name = 
  9 active torsions:
  status: ('A' for Active; 'I' for Inactive)
    1  A    between atoms: C_1  and  C_36
    2  A    between atoms: C_1  and  C_39
    3  A    between atoms: C_2  and  C_39
    4  A    between atoms: C_2  and  C_45
    5  A    between atoms: C_7  and  C_24
    6  A    between atoms: C_13  and  C_16
    7  A    between atoms: N_22  and  N_44
    8  A    between atoms: C_29  and  C_43
    9  A    between atoms: C_35  and  N_44
                            x       y       z     vdW  Elec       q    Type
                         _______ _______ _______ _____ _____    ______ ____

>  <TORSDO>
F 9

$$$$
=
 OpenBabel11032420423D

 45 52  0  0  1  0  0  0  0  0999 V2000
  188.2880  177.8800  140.7300 C   0  0  0  0  0  3  0  0  0  0  0  0
  187.6460  176.5900  136.6560 C   0  0  1  0  0  3  0  0  0  0  0  0
  187.4790  175.3640  135.8900 N   0  0  0  0  0  2  0  0  0  0  0  0
  187.4420  178.2380  141.7020 C   0  0  0  0  0  3  0  0  0  0  0  0
  187.9820  178.2590  139.3010 C   0  0  0  0  0  0  0  0  0  0  0  0
  185.8080  177.8570  137.9720 C   0  0  0  0  0  2  0  0  0  0  0  0
  186.4860  178.3250  139.0310 C   0  0  0  0  0  0  0  0  0  0  0  0
  186.3090  177.0980  136.8600 N   0  0  2  0  0  0  0  0  0  0  0  0
  189.5000  175.5340  137.7150 C   0  0  0  0  0  2  0  0  0  0  0  0
  188.8170  177.6580  138.2570 N   0  0  0  0  0  0  0  0  0  0  0  0
  185.3930  176.5180  135.9820 N   0  0  0  0  0  2  0  0  0  0  0  0
  190.6440  176.1440  138.4760 C   0  0  2  0  0  3  0  0  0  0  0  0
  190.2170  177.5680  138.6660 C   0  0  0  0  0  2  0  0  0  0  0  0
  185.6810  178.8930  140.1210 C   0  0  0  0  0  3  0  0  0  0  0  0
  186.1440  178.8870  141.3790 C   0  0  0  0  0  0  0  0  0  0  0  0
  188.3340  176.3780  137.9310 N   0  0  1  0  0  0  0  0  0  0  0  0
  186.1740  175.5280  135.2460 C   0  0  0  0  0  2  0  0  0  0  0  0
  191.8530  176.0890  137.6510 C   0  0  0  0  0  0  0  0  0  0  0  0
  192.8450  176.0210  136.9670 C   0  0  0  0  0  0  0  0  0  0  0  0
  194.0480  175.8910  136.1470 C   0  0  0  0  0  2  0  0  0  0  0  0
  194.2340  174.4440  135.7160 C   0  0  0  0  0  2  0  0  0  0  0  0
  194.4870  173.5340  136.9230 C   0  0  1  0  0  3  0  0  0  0  0  0
  193.8910  172.2960  136.6890 O   0  0  0  0  0  1  0  0  0  0  0  0
  197.9170  174.7220  138.2180 C   0  0  0  0  0  0  0  0  0  0  0  0
  195.9430  174.3040  139.4690 O   0  0  0  0  0  1  0  0  0  0  0  0
  198.2910  173.0830  136.3990 C   0  0  0  0  0  2  0  0  0  0  0  0
  196.8350  173.3170  136.0040 C   0  0  0  0  0  2  0  0  0  0  0  0
  198.4310  175.6280  139.1270 O   0  0  0  0  0  1  0  0  0  0  0  0
  196.4210  174.4990  138.1740 C   0  0  2  0  0  3  0  0  0  0  0  0
  195.9710  173.3460  137.2640 C   0  0  1  0  0  3  0  0  0  0  0  0
  198.7540  174.1090  137.3840 C   0  0  0  0  0  3  0  0  0  0  0  0
  185.3060  179.4120  142.4070 N   0  0  0  0  0  2  0  0  0  0  0  0
  184.4200  178.6080  143.1420 N   0  0  0  0  0  0  0  0  0  0  0  0
  184.6060  178.4000  144.4100 C   0  0  0  0  0  3  0  0  0  0  0  0
  186.8020  178.1250  146.8070 C   0  0  1  0  0  0  0  0  0  0  0  0
  185.7670  179.0170  145.1340 C   0  0  1  0  0  3  0  0  0  0  0  0
  186.8140  176.7460  144.8270 O   0  0  0  0  0  1  0  0  0  0  0  0
  188.1330  178.4590  146.1490 C   0  0  2  0  0  3  0  0  0  0  0  0
  185.5660  179.0020  146.6290 C   0  0  0  0  0  2  0  0  0  0  0  0
  186.9590  178.0720  145.2660 C   0  0  2  0  0  0  0  0  0  0  0  0
  186.5790  176.8490  147.3430 O   0  0  0  0  0  1  0  0  0  0  0  0
  189.2580  177.4080  146.1070 C   0  0  2  0  0  0  0  0  0  0  0  0
  190.2060  177.4150  147.2340 C   0  0  0  0  0  2  0  0  0  0  0  0
  189.8860  177.0540  144.7730 C   0  0  0  0  0  1  0  0  0  0  0  0
  189.2760  176.3780  147.0480 O   0  0  0  0  0  0  0  0  0  0  0  0
  1  4  1  0  0  0  0
  2  3  1  1  0  0  0
  2  8  1  0  0  0  0
  2 16  1  0  0  0  0
  5  1  2  0  0  0  0
  6  7  1  0  0  0  0
  7  5  1  0  0  0  0
  7 14  2  0  0  0  0
  8  6  1  1  0  0  0
  9 12  1  0  0  0  0
 10 13  1  0  0  0  0
 10  5  1  0  0  0  0
 11  8  1  0  0  0  0
 12 18  1  6  0  0  0
 12 13  1  0  0  0  0
 14 15  1  0  0  0  0
 15  4  2  0  0  0  0
 15 32  1  0  0  0  0
 16  9  1  6  0  0  0
 16 10  1  0  0  0  0
 17  3  1  0  0  0  0
 17 11  1  0  0  0  0
 19 18  3  0  0  0  0
 20 19  1  0  0  0  0
 21 20  1  0  0  0  0
 21 22  1  0  0  0  0
 22 23  1  6  0  0  0
 24 28  1  0  0  0  0
 26 31  1  0  0  0  0
 27 26  1  0  0  0  0
 27 30  1  0  0  0  0
 29 24  1  0  0  0  0
 29 25  1  1  0  0  0
 30 22  1  6  0  0  0
 30 29  1  0  0  0  0
 31 24  2  0  0  0  0
 32 33  1  0  0  0  0
 33 34  2  0  0  0  0
 35 41  1  1  0  0  0
 36 34  1  6  0  0  0
 36 40  1  0  0  0  0
 36 39  1  0  0  0  0
 38 42  1  1  0  0  0
 38 35  1  0  0  0  0
 39 35  1  0  0  0  0
 40 37  1  6  0  0  0
 40 38  1  0  0  0  0
 40 35  1  0  0  0  0
 42 44  1  6  0  0  0
 42 45  1  0  0  0  0
 42 43  1  0  0  0  0
 45 43  1  0  0  0  0
M  END
>  <MODEL>
8

>  <REMARK>
 VINA RESULT:      -8.1      3.485     11.910
  Name = 
  9 active torsions:
  status: ('A' for Active; 'I' for Inactive)
    1  A    between atoms: C_1  and  C_36
    2  A    between atoms: C_1  and  C_39
    3  A    between atoms: C_2  and  C_39
    4  A    between atoms: C_2  and  C_45
    5  A    between atoms: C_7  and  C_24
    6  A    between atoms: C_13  and  C_16
    7  A    between atoms: N_22  and  N_44
    8  A    between atoms: C_29  and  C_43
    9  A    between atoms: C_35  and  N_44
                            x       y       z     vdW  Elec       q    Type
                         _______ _______ _______ _____ _____    ______ ____

>  <TORSDO>
F 9

$$$$
=
 OpenBabel11032420423D

 45 52  0  0  1  0  0  0  0  0999 V2000
  185.3630  177.9460  142.3530 C   0  0  0  0  0  3  0  0  0  0  0  0
  181.1640  178.7560  141.7330 C   0  0  1  0  0  3  0  0  0  0  0  0
  179.9050  178.0450  141.5670 N   0  0  0  0  0  2  0  0  0  0  0  0
  186.1030  177.8420  143.4610 C   0  0  0  0  0  3  0  0  0  0  0  0
  184.2520  178.9670  142.2920 C   0  0  0  0  0  0  0  0  0  0  0  0
  182.3310  179.3380  143.9720 C   0  0  0  0  0  2  0  0  0  0  0  0
  183.6290  179.2210  143.6570 C   0  0  0  0  0  0  0  0  0  0  0  0
  181.1890  179.1690  143.1170 N   0  0  2  0  0  0  0  0  0  0  0  0
  182.0920  177.2420  140.1460 C   0  0  0  0  0  2  0  0  0  0  0  0
  183.3360  178.8900  141.1500 N   0  0  0  0  0  0  0  0  0  0  0  0
  179.9220  179.1130  143.6990 N   0  0  0  0  0  2  0  0  0  0  0  0
  183.3400  177.3690  139.3160 C   0  0  2  0  0  3  0  0  0  0  0  0
  184.0370  178.5540  139.9130 C   0  0  0  0  0  2  0  0  0  0  0  0
  184.5780  179.2450  144.7790 C   0  0  0  0  0  3  0  0  0  0  0  0
  185.7620  178.6270  144.6780 C   0  0  0  0  0  0  0  0  0  0  0  0
  182.3320  177.9370  141.4020 N   0  0  1  0  0  0  0  0  0  0  0  0
  179.0690  178.5520  142.6560 C   0  0  0  0  0  2  0  0  0  0  0  0
  182.9670  177.6540  137.9280 C   0  0  0  0  0  0  0  0  0  0  0  0
  182.6380  177.8820  136.7900 C   0  0  0  0  0  0  0  0  0  0  0  0
  182.2010  178.1280  135.4160 C   0  0  0  0  0  2  0  0  0  0  0  0
  181.0060  177.2490  135.0820 C   0  0  0  0  0  2  0  0  0  0  0  0
  180.0400  177.1510  136.2690 C   0  0  1  0  0  3  0  0  0  0  0  0
  178.9470  177.9820  136.0330 O   0  0  0  0  0  1  0  0  0  0  0  0
  179.8910  173.9170  138.3620 C   0  0  0  0  0  0  0  0  0  0  0  0
  178.9570  176.0390  138.8740 O   0  0  0  0  0  1  0  0  0  0  0  0
  179.6960  173.3120  135.9670 C   0  0  0  0  0  2  0  0  0  0  0  0
  180.2420  174.7030  135.6580 C   0  0  0  0  0  2  0  0  0  0  0  0
  180.0000  173.5250  139.6820 O   0  0  0  0  0  1  0  0  0  0  0  0
  179.8680  175.3950  138.0370 C   0  0  2  0  0  3  0  0  0  0  0  0
  179.5610  175.7250  136.5680 C   0  0  1  0  0  3  0  0  0  0  0  0
  179.8560  172.9800  137.4170 C   0  0  0  0  0  3  0  0  0  0  0  0
  186.6290  178.6430  145.8110 N   0  0  0  0  0  2  0  0  0  0  0  0
  187.1470  177.4700  146.3820 N   0  0  0  0  0  0  0  0  0  0  0  0
  188.3770  177.1120  146.1690 C   0  0  0  0  0  3  0  0  0  0  0  0
  190.8510  177.1620  144.0440 C   0  0  1  0  0  0  0  0  0  0  0  0
  189.2870  177.9430  145.3120 C   0  0  1  0  0  3  0  0  0  0  0  0
  188.6650  176.2850  143.5200 O   0  0  0  0  0  1  0  0  0  0  0  0
  190.3690  178.0600  142.9140 C   0  0  2  0  0  3  0  0  0  0  0  0
  190.7350  177.5700  145.5090 C   0  0  0  0  0  2  0  0  0  0  0  0
  189.3420  177.4670  143.8630 C   0  0  2  0  0  0  0  0  0  0  0  0
  191.1330  175.8100  143.8020 O   0  0  0  0  0  1  0  0  0  0  0  0
  190.2300  177.4970  141.4860 C   0  0  2  0  0  0  0  0  0  0  0  0
  191.4460  177.5010  140.6570 C   0  0  0  0  0  2  0  0  0  0  0  0
  188.9530  177.7590  140.7140 C   0  0  0  0  0  1  0  0  0  0  0  0
  190.8810  176.3110  141.1460 O   0  0  0  0  0  0  0  0  0  0  0  0
  1  4  1  0  0  0  0
  2  3  1  1  0  0  0
  2  8  1  0  0  0  0
  3 17  1  0  0  0  0
  4 15  2  0  0  0  0
  5  1  2  0  0  0  0
  5  7  1  0  0  0  0
  7  6  1  0  0  0  0
  7 14  2  0  0  0  0
  8 11  1  0  0  0  0
  8  6  1  1  0  0  0
 10 16  1  0  0  0  0
 10  5  1  0  0  0  0
 12 18  1  6  0  0  0
 12 13  1  0  0  0  0
 12  9  1  0  0  0  0
 13 10  1  0  0  0  0
 15 14  1  0  0  0  0
 15 32  1  0  0  0  0
 16  9  1  6  0  0  0
 16  2  1  0  0  0  0
 17 11  1  0  0  0  0
 19 18  3  0  0  0  0
 20 19  1  0  0  0  0
 21 20  1  0  0  0  0
 21 22  1  0  0  0  0
 22 23  1  6  0  0  0
 24 28  1  0  0  0  0
 26 31  1  0  0  0  0
 27 26  1  0  0  0  0
 27 30  1  0  0  0  0
 29 24  1  0  0  0  0
 29 25  1  1  0  0  0
 30 22  1  6  0  0  0
 30 29  1  0  0  0  0
 31 24  2  0  0  0  0
 32 33  1  0  0  0  0
 34 33  2  0  0  0  0
 35 41  1  6  0  0  0
 35 39  1  0  0  0  0
 36 39  1  0  0  0  0
 36 34  1  1  0  0  0
 38 42  1  6  0  0  0
 38 40  1  0  0  0  0
 38 35  1  0  0  0  0
 40 37  1  6  0  0  0
 40 35  1  0  0  0  0
 40 36  1  0  0  0  0
 42 44  1  6  0  0  0
 43 45  1  0  0  0  0
 43 42  1  0  0  0  0
 45 42  1  0  0  0  0
M  END
>  <MODEL>
9

>  <REMARK>
 VINA RESULT:      -7.9      4.657      8.383
  Name = 
  9 active torsions:
  status: ('A' for Active; 'I' for Inactive)
    1  A    between atoms: C_1  and  C_36
    2  A    between atoms: C_1  and  C_39
    3  A    between atoms: C_2  and  C_39
    4  A    between atoms: C_2  and  C_45
    5  A    between atoms: C_7  and  C_24
    6  A    between atoms: C_13  and  C_16
    7  A    between atoms: N_22  and  N_44
    8  A    between atoms: C_29  and  C_43
    9  A    between atoms: C_35  and  N_44
                            x       y       z     vdW  Elec       q    Type
                         _______ _______ _______ _____ _____    ______ ____

>  <TORSDO>
F 9

$$$$
