=
 OpenBabel11042411203D

 25 29  0  0  1  0  0  0  0  0999 V2000
  188.8230  178.5030  139.7230 C   0  0  0  0  0  0  0  0  0  0  0  0
  187.0480  177.3750  142.8550 N   0  0  0  0  0  0  0  0  0  0  0  0
  187.5720  176.4100  143.7420 N   0  0  0  0  0  2  0  0  0  0  0  0
  189.9660  177.6930  139.8930 C   0  0  0  0  0  3  0  0  0  0  0  0
  189.0440  176.8350  141.9360 C   0  0  0  0  0  0  0  0  0  0  0  0
  187.7890  178.4580  140.6830 C   0  0  0  0  0  3  0  0  0  0  0  0
  190.0850  176.8450  141.0060 C   0  0  0  0  0  3  0  0  0  0  0  0
  188.8960  176.0430  143.1900 C   0  0  1  0  0  3  0  0  0  0  0  0
  187.9400  177.6060  141.7790 C   0  0  0  0  0  0  0  0  0  0  0  0
  191.1820  177.2420  145.8890 C   0  0  2  0  0  3  0  0  0  0  0  0
  191.0570  176.9560  147.1400 N   0  0  0  0  0  2  0  0  0  0  0  0
  188.9490  177.1090  146.3180 N   0  0  0  0  0  0  0  0  0  0  0  0
  189.8690  177.4300  145.2400 C   0  0  2  0  0  3  0  0  0  0  0  0
  192.0680  176.4930  145.0730 N   0  0  0  0  0  2  0  0  0  0  0  0
  189.9730  176.3870  144.1710 C   0  0  2  0  0  3  0  0  0  0  0  0
  191.2290  175.9650  144.0480 C   0  0  0  0  0  2  0  0  0  0  0  0
  189.6560  176.9120  147.3840 C   0  0  0  0  0  3  0  0  0  0  0  0
  184.8110  178.1100  142.0810 C   0  0  0  0  0  3  0  0  0  0  0  0
  185.7820  178.0190  143.0900 C   0  0  0  0  0  0  0  0  0  0  0  0
  185.5060  178.5700  144.3500 C   0  0  0  0  0  3  0  0  0  0  0  0
  183.3240  179.2860  143.5850 C   0  0  0  0  0  3  0  0  0  0  0  0
  183.5880  178.7400  142.3270 C   0  0  0  0  0  3  0  0  0  0  0  0
  184.2840  179.2020  144.5970 C   0  0  0  0  0  3  0  0  0  0  0  0
  189.0560  178.8810  137.2910 C   0  0  0  0  0  1  0  0  0  0  0  0
  188.7450  179.3320  138.6020 O   0  0  0  0  0  0  0  0  0  0  0  0
  1  4  2  0  0  0  0
  1  6  1  0  0  0  0
  2 19  1  0  0  0  0
  2  3  1  0  0  0  0
  4  7  1  0  0  0  0
  6  9  2  0  0  0  0
  7  5  2  0  0  0  0
  8  5  1  6  0  0  0
  8  3  1  0  0  0  0
  8 15  1  0  0  0  0
  9  5  1  0  0  0  0
  9  2  1  0  0  0  0
 10 14  1  6  0  0  0
 10 11  1  0  0  0  0
 11 17  1  0  0  0  0
 12 17  2  0  0  0  0
 13 10  1  0  0  0  0
 13 12  1  1  0  0  0
 15 16  1  6  0  0  0
 15 13  1  0  0  0  0
 16 14  1  0  0  0  0
 18 22  2  0  0  0  0
 18 19  1  0  0  0  0
 19 20  2  0  0  0  0
 20 23  1  0  0  0  0
 21 23  2  0  0  0  0
 22 21  1  0  0  0  0
 24 25  1  0  0  0  0
 25  1  1  0  0  0  0
M  END
>  <MODEL>
1

>  <REMARK>
 VINA RESULT:      -9.0      0.000      0.000
  Name = 
  3 active torsions:
  status: ('A' for Active; 'I' for Inactive)
    1  A    between atoms: C_1  and  O_18
    2  A    between atoms: N_5  and  C_13
    3  A    between atoms: C_19  and  C_22
                            x       y       z     vdW  Elec       q    Type
                         _______ _______ _______ _____ _____    ______ ____

>  <TORSDO>
F 3

$$$$
=
 OpenBabel11042411203D

 25 29  0  0  1  0  0  0  0  0999 V2000
  190.5560  177.0110  146.6950 C   0  0  0  0  0  0  0  0  0  0  0  0
  188.9920  177.0310  143.2620 N   0  0  0  0  0  0  0  0  0  0  0  0
  187.6010  176.9330  143.0410 N   0  0  0  0  0  2  0  0  0  0  0  0
  189.3480  176.9100  147.4150 C   0  0  0  0  0  3  0  0  0  0  0  0
  188.1260  176.9200  145.3490 C   0  0  0  0  0  0  0  0  0  0  0  0
  190.5250  177.0610  145.2850 C   0  0  0  0  0  3  0  0  0  0  0  0
  188.1150  176.8610  146.7440 C   0  0  0  0  0  3  0  0  0  0  0  0
  186.9890  176.8820  144.3870 C   0  0  1  0  0  3  0  0  0  0  0  0
  189.2820  177.0120  144.6480 C   0  0  0  0  0  0  0  0  0  0  0  0
  184.6450  179.7880  144.2980 C   0  0  2  0  0  3  0  0  0  0  0  0
  183.3890  179.7120  144.0150 N   0  0  0  0  0  2  0  0  0  0  0  0
  184.4150  178.1420  142.7410 N   0  0  0  0  0  0  0  0  0  0  0  0
  185.4440  178.8490  143.4850 C   0  0  2  0  0  3  0  0  0  0  0  0
  185.0690  179.8020  145.6510 N   0  0  0  0  0  2  0  0  0  0  0  0
  186.0820  178.0560  144.5820 C   0  0  2  0  0  3  0  0  0  0  0  0
  185.9320  178.6710  145.7540 C   0  0  0  0  0  2  0  0  0  0  0  0
  183.2830  178.7010  143.0190 C   0  0  0  0  0  3  0  0  0  0  0  0
  191.3040  177.3130  142.4150 C   0  0  0  0  0  3  0  0  0  0  0  0
  189.9300  177.1600  142.1780 C   0  0  0  0  0  0  0  0  0  0  0  0
  189.4690  177.1360  140.8530 C   0  0  0  0  0  3  0  0  0  0  0  0
  191.7300  177.4120  140.0360 C   0  0  0  0  0  3  0  0  0  0  0  0
  192.2010  177.4370  141.3500 C   0  0  0  0  0  3  0  0  0  0  0  0
  190.3640  177.2620  139.7870 C   0  0  0  0  0  3  0  0  0  0  0  0
  192.4590  175.8870  147.8040 C   0  0  0  0  0  1  0  0  0  0  0  0
  191.7610  177.0580  147.4010 O   0  0  0  0  0  0  0  0  0  0  0  0
  1 25  1  0  0  0  0
  1  4  1  0  0  0  0
  2  9  1  0  0  0  0
  3  2  1  0  0  0  0
  5  7  1  0  0  0  0
  6  1  2  0  0  0  0
  7  4  2  0  0  0  0
  8  3  1  6  0  0  0
  8 15  1  0  0  0  0
  8  5  1  0  0  0  0
  9  6  1  0  0  0  0
  9  5  2  0  0  0  0
 10 11  1  1  0  0  0
 10 14  1  0  0  0  0
 12 17  2  0  0  0  0
 13 12  1  6  0  0  0
 13 10  1  0  0  0  0
 13 15  1  0  0  0  0
 14 16  1  0  0  0  0
 15 16  1  6  0  0  0
 17 11  1  0  0  0  0
 19 18  1  0  0  0  0
 19  2  1  0  0  0  0
 20 19  2  0  0  0  0
 21 22  1  0  0  0  0
 22 18  2  0  0  0  0
 23 21  2  0  0  0  0
 23 20  1  0  0  0  0
 25 24  1  0  0  0  0
M  END
>  <MODEL>
2

>  <REMARK>
 VINA RESULT:      -8.2      2.675      6.695
  Name = 
  3 active torsions:
  status: ('A' for Active; 'I' for Inactive)
    1  A    between atoms: C_1  and  O_18
    2  A    between atoms: N_5  and  C_13
    3  A    between atoms: C_19  and  C_22
                            x       y       z     vdW  Elec       q    Type
                         _______ _______ _______ _____ _____    ______ ____

>  <TORSDO>
F 3

$$$$
=
 OpenBabel11042411203D

 25 29  0  0  1  0  0  0  0  0999 V2000
  188.9760  177.2070  145.2580 C   0  0  0  0  0  0  0  0  0  0  0  0
  186.8280  178.5960  142.4860 N   0  0  0  0  0  0  0  0  0  0  0  0
  187.3440  179.0310  141.2460 N   0  0  0  0  0  2  0  0  0  0  0  0
  190.2020  177.3070  144.5690 C   0  0  0  0  0  3  0  0  0  0  0  0
  189.0490  178.2000  142.6630 C   0  0  0  0  0  0  0  0  0  0  0  0
  187.7850  177.6190  144.6240 C   0  0  0  0  0  3  0  0  0  0  0  0
  190.2500  177.8100  143.2590 C   0  0  0  0  0  3  0  0  0  0  0  0
  188.7990  178.7670  141.3080 C   0  0  1  0  0  3  0  0  0  0  0  0
  187.8660  178.1120  143.3200 C   0  0  0  0  0  0  0  0  0  0  0  0
  189.3360  176.5730  138.3340 C   0  0  2  0  0  3  0  0  0  0  0  0
  189.7550  176.9820  137.1850 N   0  0  0  0  0  2  0  0  0  0  0  0
  188.4810  178.6600  138.0200 N   0  0  0  0  0  0  0  0  0  0  0  0
  188.4370  177.5590  138.9680 C   0  0  2  0  0  3  0  0  0  0  0  0
  190.2500  176.0200  139.2690 N   0  0  0  0  0  2  0  0  0  0  0  0
  189.1890  177.7950  140.2400 C   0  0  2  0  0  3  0  0  0  0  0  0
  190.1220  176.8610  140.4140 C   0  0  0  0  0  2  0  0  0  0  0  0
  189.1790  178.2700  137.0040 C   0  0  0  0  0  3  0  0  0  0  0  0
  184.9550  178.9840  144.0630 C   0  0  0  0  0  3  0  0  0  0  0  0
  185.4210  178.6400  142.7840 C   0  0  0  0  0  0  0  0  0  0  0  0
  184.4880  178.3310  141.7830 C   0  0  0  0  0  3  0  0  0  0  0  0
  182.6650  178.7120  143.3300 C   0  0  0  0  0  3  0  0  0  0  0  0
  183.5850  179.0210  144.3350 C   0  0  0  0  0  3  0  0  0  0  0  0
  183.1170  178.3660  142.0540 C   0  0  0  0  0  3  0  0  0  0  0  0
  189.0500  177.5360  147.7080 C   0  0  0  0  0  1  0  0  0  0  0  0
  188.9740  176.7010  146.5600 O   0  0  0  0  0  0  0  0  0  0  0  0
  1 25  1  0  0  0  0
  2 19  1  0  0  0  0
  2  9  1  0  0  0  0
  3  2  1  0  0  0  0
  4  1  2  0  0  0  0
  5  7  2  0  0  0  0
  5  9  1  0  0  0  0
  6  1  1  0  0  0  0
  7  4  1  0  0  0  0
  8  3  1  1  0  0  0
  8  5  1  0  0  0  0
  9  6  2  0  0  0  0
 10 11  1  6  0  0  0
 10 13  1  0  0  0  0
 10 14  1  0  0  0  0
 13 12  1  6  0  0  0
 13 15  1  0  0  0  0
 14 16  1  0  0  0  0
 15 16  1  1  0  0  0
 15  8  1  0  0  0  0
 17 11  1  0  0  0  0
 17 12  2  0  0  0  0
 18 22  1  0  0  0  0
 19 18  2  0  0  0  0
 20 23  2  0  0  0  0
 20 19  1  0  0  0  0
 21 22  2  0  0  0  0
 23 21  1  0  0  0  0
 25 24  1  0  0  0  0
M  END
>  <MODEL>
3

>  <REMARK>
 VINA RESULT:      -8.1      2.862      5.548
  Name = 
  3 active torsions:
  status: ('A' for Active; 'I' for Inactive)
    1  A    between atoms: C_1  and  O_18
    2  A    between atoms: N_5  and  C_13
    3  A    between atoms: C_19  and  C_22
                            x       y       z     vdW  Elec       q    Type
                         _______ _______ _______ _____ _____    ______ ____

>  <TORSDO>
F 3

$$$$
=
 OpenBabel11042411203D

 25 29  0  0  1  0  0  0  0  0999 V2000
  188.7490  178.4230  140.4550 C   0  0  0  0  0  0  0  0  0  0  0  0
  186.4200  177.5600  143.2950 N   0  0  0  0  0  0  0  0  0  0  0  0
  186.8020  176.7710  144.4010 N   0  0  0  0  0  2  0  0  0  0  0  0
  189.8760  177.7490  140.9690 C   0  0  0  0  0  3  0  0  0  0  0  0
  188.5950  177.0870  142.8870 C   0  0  0  0  0  0  0  0  0  0  0  0
  187.5390  178.4110  141.1810 C   0  0  0  0  0  3  0  0  0  0  0  0
  189.8070  177.0680  142.1950 C   0  0  0  0  0  3  0  0  0  0  0  0
  188.2320  176.4560  144.1880 C   0  0  1  0  0  3  0  0  0  0  0  0
  187.5050  177.7270  142.3990 C   0  0  0  0  0  0  0  0  0  0  0  0
  189.8080  178.1850  147.0980 C   0  0  2  0  0  3  0  0  0  0  0  0
  189.4570  178.0230  148.3290 N   0  0  0  0  0  2  0  0  0  0  0  0
  187.5560  177.8510  147.1060 N   0  0  0  0  0  0  0  0  0  0  0  0
  188.6440  178.1540  146.1920 C   0  0  2  0  0  3  0  0  0  0  0  0
  190.9040  177.4550  146.5700 N   0  0  0  0  0  2  0  0  0  0  0  0
  189.0530  177.0210  145.3050 C   0  0  2  0  0  3  0  0  0  0  0  0
  190.3400  176.7300  145.4790 C   0  0  0  0  0  2  0  0  0  0  0  0
  188.0450  177.8500  148.3030 C   0  0  0  0  0  3  0  0  0  0  0  0
  184.4070  178.0910  141.9500 C   0  0  0  0  0  3  0  0  0  0  0  0
  185.0970  178.1130  143.1720 C   0  0  0  0  0  0  0  0  0  0  0  0
  184.4770  178.6880  144.2910 C   0  0  0  0  0  3  0  0  0  0  0  0
  182.5160  179.2040  142.9700 C   0  0  0  0  0  3  0  0  0  0  0  0
  183.1220  178.6330  141.8490 C   0  0  0  0  0  3  0  0  0  0  0  0
  183.1930  179.2320  144.1910 C   0  0  0  0  0  3  0  0  0  0  0  0
  189.0040  178.4000  137.9960 C   0  0  0  0  0  1  0  0  0  0  0  0
  188.8600  179.0880  139.2310 O   0  0  0  0  0  0  0  0  0  0  0  0
  1  4  2  0  0  0  0
  1  6  1  0  0  0  0
  2  3  1  0  0  0  0
  4  7  1  0  0  0  0
  6  9  2  0  0  0  0
  7  5  2  0  0  0  0
  8  5  1  6  0  0  0
  8  3  1  0  0  0  0
  8 15  1  0  0  0  0
  9  5  1  0  0  0  0
  9  2  1  0  0  0  0
 10 14  1  6  0  0  0
 10 11  1  0  0  0  0
 12 17  2  0  0  0  0
 13 10  1  0  0  0  0
 13 12  1  1  0  0  0
 15 16  1  6  0  0  0
 15 13  1  0  0  0  0
 16 14  1  0  0  0  0
 17 11  1  0  0  0  0
 18 19  1  0  0  0  0
 19  2  1  0  0  0  0
 19 20  2  0  0  0  0
 21 23  2  0  0  0  0
 22 18  2  0  0  0  0
 22 21  1  0  0  0  0
 23 20  1  0  0  0  0
 24 25  1  0  0  0  0
 25  1  1  0  0  0  0
M  END
>  <MODEL>
4

>  <REMARK>
 VINA RESULT:      -7.9      1.116      1.337
  Name = 
  3 active torsions:
  status: ('A' for Active; 'I' for Inactive)
    1  A    between atoms: C_1  and  O_18
    2  A    between atoms: N_5  and  C_13
    3  A    between atoms: C_19  and  C_22
                            x       y       z     vdW  Elec       q    Type
                         _______ _______ _______ _____ _____    ______ ____

>  <TORSDO>
F 3

$$$$
=
 OpenBabel11042411203D

 25 29  0  0  1  0  0  0  0  0999 V2000
  189.8290  176.9060  143.9100 C   0  0  0  0  0  0  0  0  0  0  0  0
  186.9500  178.4670  142.0370 N   0  0  0  0  0  0  0  0  0  0  0  0
  187.0470  178.9260  140.7060 N   0  0  0  0  0  2  0  0  0  0  0  0
  190.7620  176.9860  142.8550 C   0  0  0  0  0  3  0  0  0  0  0  0
  189.0850  177.9860  141.4590 C   0  0  0  0  0  0  0  0  0  0  0  0
  188.5150  177.3820  143.7150 C   0  0  0  0  0  3  0  0  0  0  0  0
  190.3960  177.5330  141.6140 C   0  0  0  0  0  3  0  0  0  0  0  0
  188.4270  178.6100  140.2760 C   0  0  1  0  0  3  0  0  0  0  0  0
  188.1830  177.9180  142.4690 C   0  0  0  0  0  0  0  0  0  0  0  0
  187.8530  176.5050  137.2450 C   0  0  2  0  0  3  0  0  0  0  0  0
  187.8910  176.9380  136.0310 N   0  0  0  0  0  2  0  0  0  0  0  0
  187.0420  178.6330  137.2750 N   0  0  0  0  0  0  0  0  0  0  0  0
  187.2600  177.5000  138.1600 C   0  0  2  0  0  3  0  0  0  0  0  0
  188.9950  175.8850  137.8140 N   0  0  0  0  0  2  0  0  0  0  0  0
  188.3980  177.6620  139.1180 C   0  0  2  0  0  3  0  0  0  0  0  0
  189.2910  176.6880  138.9550 C   0  0  0  0  0  2  0  0  0  0  0  0
  187.3490  178.2530  136.0780 C   0  0  0  0  0  3  0  0  0  0  0  0
  185.7260  178.5830  144.1890 C   0  0  0  0  0  3  0  0  0  0  0  0
  185.7240  178.5500  142.7860 C   0  0  0  0  0  0  0  0  0  0  0  0
  184.4970  178.5980  142.1080 C   0  0  0  0  0  3  0  0  0  0  0  0
  183.3100  178.7100  144.2140 C   0  0  0  0  0  3  0  0  0  0  0  0
  184.5250  178.6640  144.9000 C   0  0  0  0  0  3  0  0  0  0  0  0
  183.2950  178.6760  142.8180 C   0  0  0  0  0  3  0  0  0  0  0  0
  191.4710  176.6830  145.7440 C   0  0  0  0  0  1  0  0  0  0  0  0
  190.2340  176.3550  145.1280 O   0  0  0  0  0  0  0  0  0  0  0  0
  1 25  1  0  0  0  0
  2  9  1  0  0  0  0
  2 19  1  0  0  0  0
  3  2  1  0  0  0  0
  4  1  2  0  0  0  0
  5  7  2  0  0  0  0
  5  9  1  0  0  0  0
  6  1  1  0  0  0  0
  7  4  1  0  0  0  0
  8  3  1  1  0  0  0
  8  5  1  0  0  0  0
  9  6  2  0  0  0  0
 10 11  1  6  0  0  0
 10 14  1  0  0  0  0
 10 13  1  0  0  0  0
 11 17  1  0  0  0  0
 13 12  1  6  0  0  0
 13 15  1  0  0  0  0
 14 16  1  0  0  0  0
 15 16  1  1  0  0  0
 15  8  1  0  0  0  0
 17 12  2  0  0  0  0
 18 22  1  0  0  0  0
 19 18  2  0  0  0  0
 20 19  1  0  0  0  0
 20 23  2  0  0  0  0
 21 22  2  0  0  0  0
 23 21  1  0  0  0  0
 25 24  1  0  0  0  0
M  END
>  <MODEL>
5

>  <REMARK>
 VINA RESULT:      -7.6      2.878      5.865
  Name = 
  3 active torsions:
  status: ('A' for Active; 'I' for Inactive)
    1  A    between atoms: C_1  and  O_18
    2  A    between atoms: N_5  and  C_13
    3  A    between atoms: C_19  and  C_22
                            x       y       z     vdW  Elec       q    Type
                         _______ _______ _______ _____ _____    ______ ____

>  <TORSDO>
F 3

$$$$
=
 OpenBabel11042411203D

 25 29  0  0  1  0  0  0  0  0999 V2000
  186.0010  178.6480  145.5790 C   0  0  0  0  0  0  0  0  0  0  0  0
  189.1370  176.7440  144.6990 N   0  0  0  0  0  0  0  0  0  0  0  0
  189.3580  176.1500  143.4380 N   0  0  0  0  0  2  0  0  0  0  0  0
  185.3750  178.5040  144.3230 C   0  0  0  0  0  3  0  0  0  0  0  0
  187.2750  177.2720  143.5270 C   0  0  0  0  0  0  0  0  0  0  0  0
  187.2780  178.0840  145.7890 C   0  0  0  0  0  3  0  0  0  0  0  0
  186.0100  177.8080  143.2810 C   0  0  0  0  0  3  0  0  0  0  0  0
  188.1690  176.4910  142.6250 C   0  0  1  0  0  3  0  0  0  0  0  0
  187.8820  177.4010  144.7320 C   0  0  0  0  0  0  0  0  0  0  0  0
  189.7040  178.2580  139.7150 C   0  0  2  0  0  3  0  0  0  0  0  0
  190.0380  177.6940  138.6050 N   0  0  0  0  0  2  0  0  0  0  0  0
  190.4200  176.1590  140.2290 N   0  0  0  0  0  0  0  0  0  0  0  0
  189.9610  177.3780  140.8720 C   0  0  2  0  0  3  0  0  0  0  0  0
  188.4540  178.9200  139.8270 N   0  0  0  0  0  2  0  0  0  0  0  0
  188.5780  177.3060  141.4380 C   0  0  2  0  0  3  0  0  0  0  0  0
  187.8000  178.2430  140.8990 C   0  0  0  0  0  2  0  0  0  0  0  0
  190.5110  176.4000  138.9620 C   0  0  0  0  0  3  0  0  0  0  0  0
  189.8890  177.2940  146.9960 C   0  0  0  0  0  3  0  0  0  0  0  0
  190.1120  176.6760  145.7560 C   0  0  0  0  0  0  0  0  0  0  0  0
  191.3140  175.9830  145.5490 C   0  0  0  0  0  3  0  0  0  0  0  0
  192.0400  176.5260  147.7940 C   0  0  0  0  0  3  0  0  0  0  0  0
  190.8470  177.2180  148.0110 C   0  0  0  0  0  3  0  0  0  0  0  0
  192.2740  175.9080  146.5630 C   0  0  0  0  0  3  0  0  0  0  0  0
  185.9960  179.8310  147.7490 C   0  0  0  0  0  1  0  0  0  0  0  0
  185.3350  179.3470  146.5880 O   0  0  0  0  0  0  0  0  0  0  0  0
  1  6  1  0  0  0  0
  1 25  1  0  0  0  0
  2  9  1  0  0  0  0
  2 19  1  0  0  0  0
  3  2  1  0  0  0  0
  4  1  2  0  0  0  0
  5  9  1  0  0  0  0
  7  5  2  0  0  0  0
  7  4  1  0  0  0  0
  8  3  1  1  0  0  0
  8  5  1  0  0  0  0
  9  6  2  0  0  0  0
 10 11  1  6  0  0  0
 10 14  1  0  0  0  0
 10 13  1  0  0  0  0
 11 17  1  0  0  0  0
 13 12  1  6  0  0  0
 13 15  1  0  0  0  0
 14 16  1  0  0  0  0
 15 16  1  1  0  0  0
 15  8  1  0  0  0  0
 17 12  2  0  0  0  0
 18 22  1  0  0  0  0
 19 18  2  0  0  0  0
 20 19  1  0  0  0  0
 20 23  2  0  0  0  0
 21 22  2  0  0  0  0
 23 21  1  0  0  0  0
 25 24  1  0  0  0  0
M  END
>  <MODEL>
6

>  <REMARK>
 VINA RESULT:      -7.4      2.744      6.551
  Name = 
  3 active torsions:
  status: ('A' for Active; 'I' for Inactive)
    1  A    between atoms: C_1  and  O_18
    2  A    between atoms: N_5  and  C_13
    3  A    between atoms: C_19  and  C_22
                            x       y       z     vdW  Elec       q    Type
                         _______ _______ _______ _____ _____    ______ ____

>  <TORSDO>
F 3

$$$$
=
 OpenBabel11042411203D

 25 29  0  0  1  0  0  0  0  0999 V2000
  190.4220  176.9960  143.4940 C   0  0  0  0  0  0  0  0  0  0  0  0
  187.5660  178.2890  141.3960 N   0  0  0  0  0  0  0  0  0  0  0  0
  187.6950  178.6280  140.0320 N   0  0  0  0  0  2  0  0  0  0  0  0
  191.3880  177.0090  142.4670 C   0  0  0  0  0  3  0  0  0  0  0  0
  189.7320  177.8240  140.9330 C   0  0  0  0  0  0  0  0  0  0  0  0
  189.1020  177.4120  143.2150 C   0  0  0  0  0  3  0  0  0  0  0  0
  191.0490  177.4280  141.1700 C   0  0  0  0  0  3  0  0  0  0  0  0
  189.0980  178.3160  139.6770 C   0  0  1  0  0  3  0  0  0  0  0  0
  188.7980  177.8200  141.9150 C   0  0  0  0  0  0  0  0  0  0  0  0
  189.7130  175.9140  136.8850 C   0  0  2  0  0  3  0  0  0  0  0  0
  190.6110  174.9880  136.8950 N   0  0  0  0  0  2  0  0  0  0  0  0
  191.4940  176.7310  138.0440 N   0  0  0  0  0  0  0  0  0  0  0  0
  190.1880  177.1400  137.5560 C   0  0  2  0  0  3  0  0  0  0  0  0
  188.3730  175.6080  137.2370 N   0  0  0  0  0  2  0  0  0  0  0  0
  189.1350  177.2660  138.6110 C   0  0  2  0  0  3  0  0  0  0  0  0
  188.1030  176.4680  138.3420 C   0  0  0  0  0  2  0  0  0  0  0  0
  191.7200  175.5390  137.5950 C   0  0  0  0  0  3  0  0  0  0  0  0
  186.2380  178.2530  143.4880 C   0  0  0  0  0  3  0  0  0  0  0  0
  186.3130  178.4020  142.0950 C   0  0  0  0  0  0  0  0  0  0  0  0
  185.1380  178.6660  141.3770 C   0  0  0  0  0  3  0  0  0  0  0  0
  183.8490  178.6280  143.4260 C   0  0  0  0  0  3  0  0  0  0  0  0
  185.0130  178.3660  144.1510 C   0  0  0  0  0  3  0  0  0  0  0  0
  183.9110  178.7770  142.0380 C   0  0  0  0  0  3  0  0  0  0  0  0
  190.2520  177.1280  145.9570 C   0  0  0  0  0  1  0  0  0  0  0  0
  190.8000  176.5710  144.7700 O   0  0  0  0  0  0  0  0  0  0  0  0
  1 25  1  0  0  0  0
  2  9  1  0  0  0  0
  2 19  1  0  0  0  0
  3  2  1  0  0  0  0
  4  1  2  0  0  0  0
  5  7  2  0  0  0  0
  5  9  1  0  0  0  0
  6  1  1  0  0  0  0
  7  4  1  0  0  0  0
  8  3  1  1  0  0  0
  8  5  1  0  0  0  0
  9  6  2  0  0  0  0
 10 11  1  1  0  0  0
 10 14  1  0  0  0  0
 10 13  1  0  0  0  0
 11 17  1  0  0  0  0
 13 12  1  1  0  0  0
 13 15  1  0  0  0  0
 14 16  1  0  0  0  0
 15 16  1  6  0  0  0
 15  8  1  0  0  0  0
 17 12  2  0  0  0  0
 18 22  1  0  0  0  0
 19 18  2  0  0  0  0
 20 23  2  0  0  0  0
 20 19  1  0  0  0  0
 21 22  2  0  0  0  0
 23 21  1  0  0  0  0
 25 24  1  0  0  0  0
M  END
>  <MODEL>
7

>  <REMARK>
 VINA RESULT:      -7.3      3.145      5.726
  Name = 
  3 active torsions:
  status: ('A' for Active; 'I' for Inactive)
    1  A    between atoms: C_1  and  O_18
    2  A    between atoms: N_5  and  C_13
    3  A    between atoms: C_19  and  C_22
                            x       y       z     vdW  Elec       q    Type
                         _______ _______ _______ _____ _____    ______ ____

>  <TORSDO>
F 3

$$$$
=
 OpenBabel11042411203D

 25 29  0  0  1  0  0  0  0  0999 V2000
  189.3900  177.0770  141.6760 C   0  0  0  0  0  0  0  0  0  0  0  0
  186.4220  178.6140  143.4260 N   0  0  0  0  0  0  0  0  0  0  0  0
  185.4260  179.3580  142.7590 N   0  0  0  0  0  2  0  0  0  0  0  0
  189.0430  177.5050  140.3780 C   0  0  0  0  0  3  0  0  0  0  0  0
  187.0720  178.5530  141.2600 C   0  0  0  0  0  0  0  0  0  0  0  0
  188.5550  177.4080  142.7650 C   0  0  0  0  0  3  0  0  0  0  0  0
  187.8750  178.2530  140.1580 C   0  0  0  0  0  3  0  0  0  0  0  0
  185.7990  179.3250  141.3270 C   0  0  1  0  0  3  0  0  0  0  0  0
  187.4000  178.1510  142.5120 C   0  0  0  0  0  0  0  0  0  0  0  0
  183.3250  177.9470  138.8930 C   0  0  2  0  0  3  0  0  0  0  0  0
  183.6150  177.1530  137.9190 N   0  0  0  0  0  2  0  0  0  0  0  0
  185.3900  178.5450  138.1420 N   0  0  0  0  0  0  0  0  0  0  0  0
  184.3830  178.9540  139.1070 C   0  0  2  0  0  3  0  0  0  0  0  0
  182.8440  177.4220  140.1200 N   0  0  0  0  0  2  0  0  0  0  0  0
  184.7220  178.6540  140.5330 C   0  0  2  0  0  3  0  0  0  0  0  0
  183.7910  177.8780  141.0840 C   0  0  0  0  0  2  0  0  0  0  0  0
  184.8920  177.5720  137.4520 C   0  0  0  0  0  3  0  0  0  0  0  0
  185.2160  178.6420  145.5920 C   0  0  0  0  0  3  0  0  0  0  0  0
  186.3730  178.3730  144.8440 C   0  0  0  0  0  0  0  0  0  0  0  0
  187.5010  177.8590  145.5010 C   0  0  0  0  0  3  0  0  0  0  0  0
  186.3160  177.8900  147.6120 C   0  0  0  0  0  3  0  0  0  0  0  0
  185.1870  178.4010  146.9680 C   0  0  0  0  0  3  0  0  0  0  0  0
  187.4740  177.6190  146.8790 C   0  0  0  0  0  3  0  0  0  0  0  0
  191.1520  176.1260  143.1270 C   0  0  0  0  0  1  0  0  0  0  0  0
  190.5600  176.3340  141.8520 O   0  0  0  0  0  0  0  0  0  0  0  0
  1 25  1  0  0  0  0
  1  6  1  0  0  0  0
  2 19  1  0  0  0  0
  3  2  1  0  0  0  0
  4  1  2  0  0  0  0
  5  9  1  0  0  0  0
  7  4  1  0  0  0  0
  7  5  2  0  0  0  0
  8  5  1  1  0  0  0
  8  3  1  0  0  0  0
  9  6  2  0  0  0  0
  9  2  1  0  0  0  0
 10 11  1  6  0  0  0
 10 13  1  0  0  0  0
 10 14  1  0  0  0  0
 13 12  1  6  0  0  0
 13 15  1  0  0  0  0
 14 16  1  0  0  0  0
 15 16  1  1  0  0  0
 15  8  1  0  0  0  0
 17 11  1  0  0  0  0
 17 12  2  0  0  0  0
 18 22  1  0  0  0  0
 19 20  1  0  0  0  0
 19 18  2  0  0  0  0
 20 23  2  0  0  0  0
 22 21  2  0  0  0  0
 23 21  1  0  0  0  0
 25 24  1  0  0  0  0
M  END
>  <MODEL>
8

>  <REMARK>
 VINA RESULT:      -7.3      2.877      6.258
  Name = 
  3 active torsions:
  status: ('A' for Active; 'I' for Inactive)
    1  A    between atoms: C_1  and  O_18
    2  A    between atoms: N_5  and  C_13
    3  A    between atoms: C_19  and  C_22
                            x       y       z     vdW  Elec       q    Type
                         _______ _______ _______ _____ _____    ______ ____

>  <TORSDO>
F 3

$$$$
=
 OpenBabel11042411203D

 25 29  0  0  1  0  0  0  0  0999 V2000
  186.3030  177.8550  143.2000 C   0  0  0  0  0  0  0  0  0  0  0  0
  189.7120  177.8760  141.5840 N   0  0  0  0  0  0  0  0  0  0  0  0
  190.9130  178.0430  142.3050 N   0  0  0  0  0  2  0  0  0  0  0  0
  186.7580  178.0260  144.5240 C   0  0  0  0  0  3  0  0  0  0  0  0
  189.0240  178.0550  143.7320 C   0  0  0  0  0  0  0  0  0  0  0  0
  187.2380  177.7910  142.1450 C   0  0  0  0  0  3  0  0  0  0  0  0
  188.1310  178.1300  144.8020 C   0  0  0  0  0  3  0  0  0  0  0  0
  190.5110  178.1410  143.7270 C   0  0  1  0  0  3  0  0  0  0  0  0
  188.5950  177.8960  142.4560 C   0  0  0  0  0  0  0  0  0  0  0  0
  192.0420  175.7150  146.1180 C   0  0  2  0  0  3  0  0  0  0  0  0
  191.4510  175.2380  147.1610 N   0  0  0  0  0  2  0  0  0  0  0  0
  190.7020  177.3650  146.9340 N   0  0  0  0  0  0  0  0  0  0  0  0
  191.6830  177.1280  145.8880 C   0  0  2  0  0  3  0  0  0  0  0  0
  192.0560  174.9740  144.9080 N   0  0  0  0  0  2  0  0  0  0  0  0
  191.1160  177.0160  144.5080 C   0  0  2  0  0  3  0  0  0  0  0  0
  191.4290  175.8420  143.9660 C   0  0  0  0  0  2  0  0  0  0  0  0
  190.6500  176.3000  147.6650 C   0  0  0  0  0  3  0  0  0  0  0  0
  190.3180  176.5780  139.5610 C   0  0  0  0  0  3  0  0  0  0  0  0
  189.6980  177.6870  140.1570 C   0  0  0  0  0  0  0  0  0  0  0  0
  189.0560  178.6280  139.3380 C   0  0  0  0  0  3  0  0  0  0  0  0
  189.6530  177.3540  137.3680 C   0  0  0  0  0  3  0  0  0  0  0  0
  190.2950  176.4110  138.1740 C   0  0  0  0  0  3  0  0  0  0  0  0
  189.0340  178.4630  137.9490 C   0  0  0  0  0  3  0  0  0  0  0  0
  183.9840  178.6270  143.5690 C   0  0  0  0  0  1  0  0  0  0  0  0
  184.9290  177.7540  142.9670 O   0  0  0  0  0  0  0  0  0  0  0  0
  1  4  1  0  0  0  0
  2  3  1  0  0  0  0
  2  9  1  0  0  0  0
  4  7  2  0  0  0  0
  5  7  1  0  0  0  0
  6  9  1  0  0  0  0
  6  1  2  0  0  0  0
  8  3  1  6  0  0  0
  8  5  1  0  0  0  0
  8 15  1  0  0  0  0
  9  5  2  0  0  0  0
 10 14  1  6  0  0  0
 10 11  1  0  0  0  0
 11 17  1  0  0  0  0
 12 17  2  0  0  0  0
 13 10  1  0  0  0  0
 13 12  1  1  0  0  0
 15 16  1  6  0  0  0
 15 13  1  0  0  0  0
 16 14  1  0  0  0  0
 18 19  1  0  0  0  0
 19  2  1  0  0  0  0
 20 19  2  0  0  0  0
 21 23  2  0  0  0  0
 21 22  1  0  0  0  0
 22 18  2  0  0  0  0
 23 20  1  0  0  0  0
 25  1  1  0  0  0  0
 25 24  1  0  0  0  0
M  END
>  <MODEL>
9

>  <REMARK>
 VINA RESULT:      -7.3      1.932      4.691
  Name = 
  3 active torsions:
  status: ('A' for Active; 'I' for Inactive)
    1  A    between atoms: C_1  and  O_18
    2  A    between atoms: N_5  and  C_13
    3  A    between atoms: C_19  and  C_22
                            x       y       z     vdW  Elec       q    Type
                         _______ _______ _______ _____ _____    ______ ____

>  <TORSDO>
F 3

$$$$
