=
 OpenBabel11042413263D

 50 55  0  0  1  0  0  0  0  0999 V2000
  185.9920  178.9980  141.1870 C   0  0  0  0  0  0  0  0  0  0  0  0
  187.3210  178.9210  141.1330 C   0  0  0  0  0  3  0  0  0  0  0  0
  185.2030  178.3660  140.1680 N   0  0  0  0  0  2  0  0  0  0  0  0
  184.4210  180.2930  139.0870 O   0  0  0  0  0  0  0  0  0  0  0  0
  184.3840  179.0400  139.2060 C   0  0  0  0  0  0  0  0  0  0  0  0
  183.5070  178.2830  138.3690 N   0  0  0  0  0  2  0  0  0  0  0  0
  183.4490  176.9290  138.4460 O   0  0  0  0  0  0  0  0  0  0  0  0
  182.7710  176.5200  137.2850 C   0  0  1  0  0  0  0  0  0  0  0  0
  183.5980  176.6590  136.0900 N   0  0  0  0  0  2  0  0  0  0  0  0
  183.3790  175.3450  136.7030 C   0  0  2  0  0  0  0  0  0  0  0  0
  181.1430  174.5050  137.8960 O   0  0  0  0  0  0  0  0  0  0  0  0
  182.0510  175.1890  137.4500 C   0  0  0  0  0  0  0  0  0  0  0  0
  185.9750  172.9520  137.5410 C   0  0  0  0  0  2  0  0  0  0  0  0
  184.5390  173.4270  137.5560 C   0  0  0  0  0  2  0  0  0  0  0  0
  185.7610  175.2040  136.7200 C   0  0  0  0  0  2  0  0  0  0  0  0
  186.7660  174.0960  136.9580 C   0  0  2  0  0  3  0  0  0  0  0  0
  184.5520  174.8880  137.4770 N   0  0  1  0  0  0  0  0  0  0  0  0
  187.3640  173.6900  135.6820 C   0  0  0  0  0  0  0  0  0  0  0  0
  187.8340  173.3680  134.6730 N   0  0  0  0  0  0  0  0  0  0  0  0
  188.0270  178.2290  140.0150 C   0  0  0  0  0  2  0  0  0  0  0  0
  189.3060  177.8550  140.4260 O   0  0  0  0  0  0  0  0  0  0  0  0
  189.0920  176.8860  141.4080 C   0  0  0  0  0  2  0  0  0  0  0  0
  190.4330  176.6480  143.5360 C   0  0  1  0  0  3  0  0  0  0  0  0
  190.4200  176.4610  142.0290 C   0  0  2  0  0  3  0  0  0  0  0  0
  191.4890  177.4220  141.5990 C   0  0  0  0  0  2  0  0  0  0  0  0
  191.6660  178.3550  142.7850 C   0  0  0  0  0  2  0  0  0  0  0  0
  190.7760  177.9790  143.8070 O   0  0  0  0  0  0  0  0  0  0  0  0
  189.1550  176.3150  144.1590 N   0  0  0  0  0  2  0  0  0  0  0  0
  187.2750  178.1230  146.9040 C   0  0  1  0  0  3  0  0  0  0  0  0
  187.9680  178.2140  149.3030 C   0  0  0  0  0  1  0  0  0  0  0  0
  189.4960  177.5100  147.6150 O   0  0  0  0  0  0  0  0  0  0  0  0
  188.9690  177.2120  145.2920 C   0  0  2  0  0  3  0  0  0  0  0  0
  189.6490  176.6270  146.5300 C   0  0  0  0  0  2  0  0  0  0  0  0
  188.1400  177.4720  147.9910 C   0  0  2  0  0  3  0  0  0  0  0  0
  187.4790  177.3810  145.5820 C   0  0  0  0  0  2  0  0  0  0  0  0
  185.9400  178.0650  147.2570 F   0  0  0  0  0  0  0  0  0  0  0  0
  185.3520  179.6610  142.2820 N   0  0  0  0  0  2  0  0  0  0  0  0
  185.0240  179.0180  143.5460 C   0  0  0  0  0  2  0  0  0  0  0  0
  182.7630  179.1490  142.7160 N   0  0  0  0  0  0  0  0  0  0  0  0
  183.5980  178.5940  143.5310 C   0  0  0  0  0  3  0  0  0  0  0  0
  181.4510  178.7330  142.6770 O   0  0  0  0  0  0  0  0  0  0  0  0
  180.4170  179.6320  142.3040 C   0  0  0  0  0  2  0  0  0  0  0  0
  179.9330  179.3250  140.8940 C   0  0  2  0  0  3  0  0  0  0  0  0
  179.6300  177.8650  140.7690 C   0  0  0  0  0  0  0  0  0  0  0  0
  180.1340  177.1340  139.6970 O   0  0  0  0  0  0  0  0  0  0  0  0
  178.9510  177.2850  141.6600 O   0  0  0  0  0  1  0  0  0  0  0  0
  180.9040  179.7010  139.9650 O   0  0  0  0  0  0  0  0  0  0  0  0
  180.8320  180.4620  137.7160 C   0  0  0  0  0  2  0  0  0  0  0  0
  180.2600  180.5980  139.1110 C   0  0  0  0  0  3  0  0  0  0  0  0
  181.2620  181.6120  138.5980 C   0  0  0  0  0  2  0  0  0  0  0  0
  1 37  1  0  0  0  0
  2  1  2  0  0  0  0
  3  1  1  0  0  0  0
  4  5  2  0  0  0  0
  5  3  1  0  0  0  0
  6  7  1  0  0  0  0
  6  5  1  0  0  0  0
  8 12  1  0  0  0  0
  8  7  1  1  0  0  0
  9  8  1  0  0  0  0
 10  9  1  6  0  0  0
 10  8  1  0  0  0  0
 10 12  1  0  0  0  0
 10 17  1  0  0  0  0
 12 11  2  0  0  0  0
 13 14  1  0  0  0  0
 15 16  1  0  0  0  0
 16 18  1  6  0  0  0
 16 13  1  0  0  0  0
 17 15  1  6  0  0  0
 17 14  1  0  0  0  0
 19 18  3  0  0  0  0
 20 21  1  0  0  0  0
 20  2  1  0  0  0  0
 21 22  1  0  0  0  0
 23 27  1  0  0  0  0
 23 28  1  6  0  0  0
 24 22  1  6  0  0  0
 24 23  1  0  0  0  0
 25 24  1  0  0  0  0
 25 26  1  0  0  0  0
 26 27  1  0  0  0  0
 29 36  1  1  0  0  0
 29 34  1  0  0  0  0
 31 34  1  0  0  0  0
 32 28  1  6  0  0  0
 32 35  1  0  0  0  0
 32 33  1  0  0  0  0
 33 31  1  0  0  0  0
 34 30  1  1  0  0  0
 35 29  1  0  0  0  0
 37 38  1  0  0  0  0
 39 40  2  0  0  0  0
 40 38  1  0  0  0  0
 41 39  1  0  0  0  0
 42 41  1  0  0  0  0
 43 42  1  1  0  0  0
 44 43  1  0  0  0  0
 44 46  1  0  0  0  0
 45 44  2  0  0  0  0
 47 43  1  0  0  0  0
 48 50  1  0  0  0  0
 48 49  1  0  0  0  0
 49 47  1  0  0  0  0
 50 49  1  0  0  0  0
M  END
>  <MODEL>
1

>  <REMARK>
 VINA RESULT:      -6.6      0.000      0.000
  Name = 
  20 active torsions:
  status: ('A' for Active; 'I' for Inactive)
    1  A    between atoms: N_1  and  O_28
    2  A    between atoms: C_2  and  O_25
    3  A    between atoms: C_6  and  N_48
    4  A    between atoms: C_7  and  C_10
    5  A    between atoms: C_7  and  O_44
    6  A    between atoms: C_8  and  C_41
    7  A    between atoms: N_11  and  C_40
    8  A    between atoms: C_13  and  C_39
    9  A    between atoms: C_14  and  N_45
   10  A    between atoms: C_19  and  C_23
   11  A    between atoms: C_23  and  C_26
   12  A    between atoms: C_23  and  O_27
   13  A    between atoms: C_24  and  O_27
   14  A    between atoms: O_25  and  N_49
   15  A    between atoms: C_26  and  O_28
   16  A    between atoms: N_30  and  C_39
   17  A    between atoms: N_30  and  C_40
   18  A    between atoms: C_31  and  N_48
   19  A    between atoms: C_32  and  C_43
   20  A    between atoms: C_32  and  O_44
                            x       y       z     vdW  Elec       q    Type
                         _______ _______ _______ _____ _____    ______ ____

>  <TORSDO>
F 20

$$$$
=
 OpenBabel11042413263D

 50 55  0  0  1  0  0  0  0  0999 V2000
  184.5270  178.4570  141.4540 C   0  0  0  0  0  0  0  0  0  0  0  0
  183.3330  177.8680  141.4030 C   0  0  0  0  0  3  0  0  0  0  0  0
  185.3190  178.5580  140.2620 N   0  0  0  0  0  2  0  0  0  0  0  0
  184.0400  180.1630  139.1280 O   0  0  0  0  0  0  0  0  0  0  0  0
  185.0020  179.3490  139.1110 C   0  0  0  0  0  0  0  0  0  0  0  0
  185.7810  179.2140  137.9220 N   0  0  0  0  0  2  0  0  0  0  0  0
  186.8400  178.3670  137.8620 O   0  0  0  0  0  0  0  0  0  0  0  0
  187.6630  178.8700  136.8410 C   0  0  1  0  0  0  0  0  0  0  0  0
  188.7780  179.6500  137.3700 N   0  0  0  0  0  2  0  0  0  0  0  0
  188.9820  178.2820  136.8840 C   0  0  2  0  0  0  0  0  0  0  0  0
  187.7240  177.1250  134.8330 O   0  0  0  0  0  0  0  0  0  0  0  0
  188.0140  177.8310  135.7850 C   0  0  0  0  0  0  0  0  0  0  0  0
  190.6480  175.5700  138.6270 C   0  0  0  0  0  2  0  0  0  0  0  0
  189.7990  176.1130  137.4980 C   0  0  0  0  0  2  0  0  0  0  0  0
  190.0280  177.8670  138.9880 C   0  0  0  0  0  2  0  0  0  0  0  0
  190.8320  176.7270  139.5780 C   0  0  2  0  0  3  0  0  0  0  0  0
  189.1180  177.3110  137.9890 N   0  0  1  0  0  0  0  0  0  0  0  0
  192.2480  177.1010  139.6410 C   0  0  0  0  0  0  0  0  0  0  0  0
  193.3670  177.3970  139.6870 N   0  0  0  0  0  0  0  0  0  0  0  0
  182.8020  177.2660  140.1450 C   0  0  0  0  0  2  0  0  0  0  0  0
  181.4510  177.5820  140.0040 O   0  0  0  0  0  0  0  0  0  0  0  0
  181.0290  176.8450  138.8960 C   0  0  0  0  0  2  0  0  0  0  0  0
  181.2980  174.5830  137.8050 C   0  0  1  0  0  3  0  0  0  0  0  0
  181.3130  175.3610  139.1090 C   0  0  2  0  0  3  0  0  0  0  0  0
  180.1580  174.7430  139.8400 C   0  0  0  0  0  2  0  0  0  0  0  0
  179.3490  174.0460  138.7590 C   0  0  0  0  0  2  0  0  0  0  0  0
  179.9690  174.2470  137.5140 O   0  0  0  0  0  0  0  0  0  0  0  0
  181.8910  175.3250  136.6960 N   0  0  0  0  0  2  0  0  0  0  0  0
  185.6300  174.7370  136.8200 C   0  0  1  0  0  3  0  0  0  0  0  0
  186.7270  172.5250  137.2030 C   0  0  0  0  0  1  0  0  0  0  0  0
  184.4180  172.6610  136.6220 O   0  0  0  0  0  0  0  0  0  0  0  0
  183.1610  174.6900  136.3690 C   0  0  2  0  0  3  0  0  0  0  0  0
  183.2040  173.2840  136.9660 C   0  0  0  0  0  2  0  0  0  0  0  0
  185.4360  173.3100  137.3480 C   0  0  2  0  0  3  0  0  0  0  0  0
  184.3150  175.5080  136.9480 C   0  0  0  0  0  2  0  0  0  0  0  0
  186.6100  175.3870  137.5460 F   0  0  0  0  0  0  0  0  0  0  0  0
  184.9950  179.0330  142.6780 N   0  0  0  0  0  2  0  0  0  0  0  0
  185.0680  178.3160  143.9430 C   0  0  0  0  0  2  0  0  0  0  0  0
  186.7590  177.8340  145.5930 N   0  0  0  0  0  0  0  0  0  0  0  0
  186.4770  178.2870  144.4160 C   0  0  0  0  0  3  0  0  0  0  0  0
  188.0670  177.7750  146.0180 O   0  0  0  0  0  0  0  0  0  0  0  0
  189.0480  177.0890  145.2520 C   0  0  0  0  0  2  0  0  0  0  0  0
  190.3690  177.8440  145.2870 C   0  0  2  0  0  3  0  0  0  0  0  0
  190.5550  178.6010  144.0110 C   0  0  0  0  0  0  0  0  0  0  0  0
  189.7250  178.3530  142.9210 O   0  0  0  0  0  0  0  0  0  0  0  0
  191.4390  179.4980  143.9350 O   0  0  0  0  0  1  0  0  0  0  0  0
  191.4230  176.9480  145.4780 O   0  0  0  0  0  0  0  0  0  0  0  0
  191.6390  176.8630  147.8420 C   0  0  0  0  0  2  0  0  0  0  0  0
  191.0660  176.2050  146.6050 C   0  0  0  0  0  3  0  0  0  0  0  0
  192.3160  175.6460  147.2550 C   0  0  0  0  0  2  0  0  0  0  0  0
  1 37  1  0  0  0  0
  2  1  2  0  0  0  0
  3  1  1  0  0  0  0
  5  4  2  0  0  0  0
  5  3  1  0  0  0  0
  6  5  1  0  0  0  0
  7  6  1  0  0  0  0
  8 10  1  0  0  0  0
  8  9  1  0  0  0  0
  8  7  1  1  0  0  0
 10 12  1  6  0  0  0
 10  9  1  0  0  0  0
 10 17  1  0  0  0  0
 11 12  2  0  0  0  0
 12  8  1  0  0  0  0
 13 16  1  0  0  0  0
 14 13  1  0  0  0  0
 15 16  1  0  0  0  0
 16 18  1  6  0  0  0
 17 14  1  6  0  0  0
 17 15  1  0  0  0  0
 18 19  3  0  0  0  0
 20  2  1  0  0  0  0
 21 20  1  0  0  0  0
 22 21  1  0  0  0  0
 23 28  1  6  0  0  0
 23 24  1  0  0  0  0
 24 22  1  6  0  0  0
 24 25  1  0  0  0  0
 26 25  1  0  0  0  0
 27 23  1  0  0  0  0
 27 26  1  0  0  0  0
 29 35  1  0  0  0  0
 29 34  1  0  0  0  0
 29 36  1  1  0  0  0
 31 33  1  0  0  0  0
 31 34  1  0  0  0  0
 32 28  1  1  0  0  0
 32 35  1  0  0  0  0
 32 33  1  0  0  0  0
 34 30  1  6  0  0  0
 37 38  1  0  0  0  0
 38 40  1  0  0  0  0
 39 41  1  0  0  0  0
 40 39  2  0  0  0  0
 42 41  1  0  0  0  0
 43 42  1  6  0  0  0
 43 47  1  0  0  0  0
 44 43  1  0  0  0  0
 45 44  2  0  0  0  0
 46 44  1  0  0  0  0
 47 49  1  0  0  0  0
 49 50  1  0  0  0  0
 49 48  1  0  0  0  0
 50 48  1  0  0  0  0
M  END
>  <MODEL>
2

>  <REMARK>
 VINA RESULT:      -6.5      2.938      9.038
  Name = 
  20 active torsions:
  status: ('A' for Active; 'I' for Inactive)
    1  A    between atoms: N_1  and  O_28
    2  A    between atoms: C_2  and  O_25
    3  A    between atoms: C_6  and  N_48
    4  A    between atoms: C_7  and  C_10
    5  A    between atoms: C_7  and  O_44
    6  A    between atoms: C_8  and  C_41
    7  A    between atoms: N_11  and  C_40
    8  A    between atoms: C_13  and  C_39
    9  A    between atoms: C_14  and  N_45
   10  A    between atoms: C_19  and  C_23
   11  A    between atoms: C_23  and  C_26
   12  A    between atoms: C_23  and  O_27
   13  A    between atoms: C_24  and  O_27
   14  A    between atoms: O_25  and  N_49
   15  A    between atoms: C_26  and  O_28
   16  A    between atoms: N_30  and  C_39
   17  A    between atoms: N_30  and  C_40
   18  A    between atoms: C_31  and  N_48
   19  A    between atoms: C_32  and  C_43
   20  A    between atoms: C_32  and  O_44
                            x       y       z     vdW  Elec       q    Type
                         _______ _______ _______ _____ _____    ______ ____

>  <TORSDO>
F 20

$$$$
=
 OpenBabel11042413263D

 50 55  0  0  1  0  0  0  0  0999 V2000
  189.1320  177.2710  140.6440 C   0  0  0  0  0  0  0  0  0  0  0  0
  188.9860  177.6200  139.3660 C   0  0  0  0  0  3  0  0  0  0  0  0
  188.0260  177.4110  141.5480 N   0  0  0  0  0  2  0  0  0  0  0  0
  188.9880  176.4040  143.4340 O   0  0  0  0  0  0  0  0  0  0  0  0
  187.9690  176.9010  142.8850 C   0  0  0  0  0  0  0  0  0  0  0  0
  186.7380  176.9500  143.6090 N   0  0  0  0  0  2  0  0  0  0  0  0
  185.6200  177.4950  143.0680 O   0  0  0  0  0  0  0  0  0  0  0  0
  185.6270  178.8400  143.4740 C   0  0  1  0  0  0  0  0  0  0  0  0
  185.5210  179.7550  142.3410 N   0  0  0  0  0  2  0  0  0  0  0  0
  184.3630  179.4840  143.1990 C   0  0  2  0  0  0  0  0  0  0  0  0
  184.4100  179.0430  145.8310 O   0  0  0  0  0  0  0  0  0  0  0  0
  184.6990  179.1170  144.6480 C   0  0  0  0  0  0  0  0  0  0  0  0
  181.1660  178.6790  141.6830 C   0  0  0  0  0  2  0  0  0  0  0  0
  182.0380  178.9920  142.8790 C   0  0  0  0  0  2  0  0  0  0  0  0
  183.5040  178.7090  141.1120 C   0  0  0  0  0  2  0  0  0  0  0  0
  182.1190  178.5350  140.5230 C   0  0  2  0  0  3  0  0  0  0  0  0
  183.4000  178.5620  142.5620 N   0  0  1  0  0  0  0  0  0  0  0  0
  181.8660  179.5900  139.5360 C   0  0  0  0  0  0  0  0  0  0  0  0
  181.6640  180.4210  138.7540 N   0  0  0  0  0  0  0  0  0  0  0  0
  187.7120  178.1970  138.8460 C   0  0  0  0  0  2  0  0  0  0  0  0
  187.7550  178.2530  137.4530 O   0  0  0  0  0  0  0  0  0  0  0  0
  186.4200  178.1600  137.0540 C   0  0  0  0  0  2  0  0  0  0  0  0
  185.5250  175.8360  136.6300 C   0  0  1  0  0  3  0  0  0  0  0  0
  186.2500  177.0330  136.0400 C   0  0  2  0  0  3  0  0  0  0  0  0
  187.5950  176.4460  135.7310 C   0  0  0  0  0  2  0  0  0  0  0  0
  187.6600  175.1770  136.5640 C   0  0  0  0  0  2  0  0  0  0  0  0
  186.4680  175.0420  137.2970 O   0  0  0  0  0  0  0  0  0  0  0  0
  184.4480  176.2180  137.5390 N   0  0  0  0  0  2  0  0  0  0  0  0
  181.0540  174.6160  138.0450 C   0  0  1  0  0  3  0  0  0  0  0  0
  179.7790  173.3640  136.2980 C   0  0  0  0  0  1  0  0  0  0  0  0
  182.0960  173.8480  136.0100 O   0  0  0  0  0  0  0  0  0  0  0  0
  183.4420  175.1650  137.4990 C   0  0  2  0  0  3  0  0  0  0  0  0
  183.0440  174.8870  136.0490 C   0  0  0  0  0  2  0  0  0  0  0  0
  180.8970  174.3620  136.5410 C   0  0  2  0  0  3  0  0  0  0  0  0
  182.2010  175.6020  138.2760 C   0  0  0  0  0  2  0  0  0  0  0  0
  179.8880  175.1440  138.5660 F   0  0  0  0  0  0  0  0  0  0  0  0
  190.3670  176.7100  141.1010 N   0  0  0  0  0  2  0  0  0  0  0  0
  191.5590  177.4910  141.3970 C   0  0  0  0  0  2  0  0  0  0  0  0
  191.5890  178.1730  143.7110 N   0  0  0  0  0  0  0  0  0  0  0  0
  191.9360  177.3000  142.8230 C   0  0  0  0  0  3  0  0  0  0  0  0
  191.9080  177.9790  145.0360 O   0  0  0  0  0  0  0  0  0  0  0  0
  191.6340  176.7390  145.6730 C   0  0  0  0  0  2  0  0  0  0  0  0
  191.2780  176.9630  147.1350 C   0  0  2  0  0  3  0  0  0  0  0  0
  192.2320  176.2150  148.0100 C   0  0  0  0  0  0  0  0  0  0  0  0
  192.9710  176.8880  148.9790 O   0  0  0  0  0  1  0  0  0  0  0  0
  192.3380  174.9620  147.8990 O   0  0  0  0  0  0  0  0  0  0  0  0
  189.9680  176.5420  147.3750 O   0  0  0  0  0  0  0  0  0  0  0  0
  188.8280  178.3180  148.4650 C   0  0  0  0  0  2  0  0  0  0  0  0
  189.1780  177.6700  147.1430 C   0  0  0  0  0  3  0  0  0  0  0  0
  187.8080  177.4580  147.7550 C   0  0  0  0  0  2  0  0  0  0  0  0
  1 37  1  0  0  0  0
  1  3  1  0  0  0  0
  2  1  2  0  0  0  0
  3  5  1  0  0  0  0
  5  4  2  0  0  0  0
  5  6  1  0  0  0  0
  7  6  1  0  0  0  0
  8  7  1  6  0  0  0
  8 12  1  0  0  0  0
  9  8  1  0  0  0  0
 10  9  1  6  0  0  0
 10  8  1  0  0  0  0
 10 12  1  0  0  0  0
 12 11  2  0  0  0  0
 13 14  1  0  0  0  0
 16 18  1  6  0  0  0
 16 15  1  0  0  0  0
 16 13  1  0  0  0  0
 17 15  1  6  0  0  0
 17 14  1  0  0  0  0
 17 10  1  0  0  0  0
 19 18  3  0  0  0  0
 20  2  1  0  0  0  0
 21 20  1  0  0  0  0
 22 21  1  0  0  0  0
 23 27  1  0  0  0  0
 23 28  1  1  0  0  0
 24 23  1  0  0  0  0
 24 22  1  1  0  0  0
 25 24  1  0  0  0  0
 25 26  1  0  0  0  0
 26 27  1  0  0  0  0
 29 35  1  0  0  0  0
 29 36  1  6  0  0  0
 31 33  1  0  0  0  0
 31 34  1  0  0  0  0
 32 28  1  6  0  0  0
 32 35  1  0  0  0  0
 33 32  1  0  0  0  0
 34 30  1  1  0  0  0
 34 29  1  0  0  0  0
 37 38  1  0  0  0  0
 38 40  1  0  0  0  0
 39 41  1  0  0  0  0
 40 39  2  0  0  0  0
 41 42  1  0  0  0  0
 43 42  1  6  0  0  0
 43 47  1  0  0  0  0
 43 44  1  0  0  0  0
 44 45  1  0  0  0  0
 46 44  2  0  0  0  0
 49 47  1  0  0  0  0
 49 50  1  0  0  0  0
 49 48  1  0  0  0  0
 50 48  1  0  0  0  0
M  END
>  <MODEL>
3

>  <REMARK>
 VINA RESULT:      -6.5      2.969      9.610
  Name = 
  20 active torsions:
  status: ('A' for Active; 'I' for Inactive)
    1  A    between atoms: N_1  and  O_28
    2  A    between atoms: C_2  and  O_25
    3  A    between atoms: C_6  and  N_48
    4  A    between atoms: C_7  and  C_10
    5  A    between atoms: C_7  and  O_44
    6  A    between atoms: C_8  and  C_41
    7  A    between atoms: N_11  and  C_40
    8  A    between atoms: C_13  and  C_39
    9  A    between atoms: C_14  and  N_45
   10  A    between atoms: C_19  and  C_23
   11  A    between atoms: C_23  and  C_26
   12  A    between atoms: C_23  and  O_27
   13  A    between atoms: C_24  and  O_27
   14  A    between atoms: O_25  and  N_49
   15  A    between atoms: C_26  and  O_28
   16  A    between atoms: N_30  and  C_39
   17  A    between atoms: N_30  and  C_40
   18  A    between atoms: C_31  and  N_48
   19  A    between atoms: C_32  and  C_43
   20  A    between atoms: C_32  and  O_44
                            x       y       z     vdW  Elec       q    Type
                         _______ _______ _______ _____ _____    ______ ____

>  <TORSDO>
F 20

$$$$
=
 OpenBabel11042413263D

 50 55  0  0  1  0  0  0  0  0999 V2000
  187.5920  178.1740  139.8650 C   0  0  0  0  0  0  0  0  0  0  0  0
  188.5930  178.0070  140.7280 C   0  0  0  0  0  3  0  0  0  0  0  0
  187.6330  177.5100  138.5940 N   0  0  0  0  0  2  0  0  0  0  0  0
  186.8480  179.2680  137.2560 O   0  0  0  0  0  0  0  0  0  0  0  0
  187.1840  178.0570  137.3480 C   0  0  0  0  0  0  0  0  0  0  0  0
  187.1120  177.2210  136.1930 N   0  0  0  0  0  2  0  0  0  0  0  0
  187.4840  175.9170  136.2390 O   0  0  0  0  0  0  0  0  0  0  0  0
  188.0380  175.6430  134.9770 C   0  0  1  0  0  0  0  0  0  0  0  0
  189.0470  176.6280  134.5960 N   0  0  0  0  0  2  0  0  0  0  0  0
  189.4380  175.2990  135.0760 C   0  0  2  0  0  0  0  0  0  0  0  0
  188.1430  173.0080  134.6270 O   0  0  0  0  0  0  0  0  0  0  0  0
  188.4270  174.1820  134.7960 C   0  0  0  0  0  0  0  0  0  0  0  0
  191.8140  174.5090  137.7030 C   0  0  0  0  0  2  0  0  0  0  0  0
  190.7140  174.1300  136.7350 C   0  0  0  0  0  2  0  0  0  0  0  0
  190.8600  176.4350  136.6190 C   0  0  0  0  0  2  0  0  0  0  0  0
  191.9360  176.0090  137.5960 C   0  0  2  0  0  3  0  0  0  0  0  0
  189.9180  175.3270  136.4730 N   0  0  1  0  0  0  0  0  0  0  0  0
  193.2550  176.3650  137.0640 C   0  0  0  0  0  0  0  0  0  0  0  0
  194.2960  176.6480  136.6410 N   0  0  0  0  0  0  0  0  0  0  0  0
  189.7890  177.1780  140.4000 C   0  0  0  0  0  2  0  0  0  0  0  0
  190.7950  177.4090  141.3370 O   0  0  0  0  0  0  0  0  0  0  0  0
  190.4420  176.6230  142.4360 C   0  0  0  0  0  2  0  0  0  0  0  0
  190.4360  177.4760  144.8130 C   0  0  1  0  0  3  0  0  0  0  0  0
  191.2870  177.0000  143.6490 C   0  0  2  0  0  3  0  0  0  0  0  0
  192.0740  178.2360  143.3290 C   0  0  0  0  0  2  0  0  0  0  0  0
  191.3020  179.3650  143.9900 C   0  0  0  0  0  2  0  0  0  0  0  0
  190.1640  178.8380  144.6260 O   0  0  0  0  0  0  0  0  0  0  0  0
  189.1920  176.7230  144.9500 N   0  0  0  0  0  2  0  0  0  0  0  0
  185.7860  178.2510  144.3120 C   0  0  1  0  0  3  0  0  0  0  0  0
  184.1710  178.9570  146.0820 C   0  0  0  0  0  1  0  0  0  0  0  0
  186.4530  178.5170  146.6140 O   0  0  0  0  0  0  0  0  0  0  0  0
  188.1060  177.6850  145.0850 C   0  0  2  0  0  3  0  0  0  0  0  0
  187.4800  177.5650  146.4740 C   0  0  0  0  0  2  0  0  0  0  0  0
  185.3910  178.1040  145.7860 C   0  0  2  0  0  3  0  0  0  0  0  0
  187.0320  177.4080  144.0340 C   0  0  0  0  0  2  0  0  0  0  0  0
  184.7570  177.8230  143.4950 F   0  0  0  0  0  0  0  0  0  0  0  0
  186.4560  178.9680  140.2230 N   0  0  0  0  0  2  0  0  0  0  0  0
  185.1820  178.4180  140.6640 C   0  0  0  0  0  2  0  0  0  0  0  0
  184.3210  180.1810  139.2610 N   0  0  0  0  0  0  0  0  0  0  0  0
  184.0700  179.1610  140.0130 C   0  0  0  0  0  3  0  0  0  0  0  0
  183.2950  180.8470  138.6300 O   0  0  0  0  0  0  0  0  0  0  0  0
  181.9790  180.8240  139.1650 C   0  0  0  0  0  2  0  0  0  0  0  0
  181.2540  179.5580  138.7300 C   0  0  2  0  0  3  0  0  0  0  0  0
  181.0890  179.5530  137.2440 C   0  0  0  0  0  0  0  0  0  0  0  0
  181.4420  178.4280  136.5030 O   0  0  0  0  0  0  0  0  0  0  0  0
  180.5890  180.5550  136.6630 O   0  0  0  0  0  1  0  0  0  0  0  0
  180.0090  179.4840  139.3570 O   0  0  0  0  0  0  0  0  0  0  0  0
  180.4730  177.5630  140.6750 C   0  0  0  0  0  2  0  0  0  0  0  0
  180.2840  179.0640  140.6600 C   0  0  0  0  0  3  0  0  0  0  0  0
  179.1670  178.1620  141.1440 C   0  0  0  0  0  2  0  0  0  0  0  0
  1 37  1  0  0  0  0
  1  2  2  0  0  0  0
  3  1  1  0  0  0  0
  4  5  2  0  0  0  0
  5  3  1  0  0  0  0
  6  7  1  0  0  0  0
  6  5  1  0  0  0  0
  8 10  1  0  0  0  0
  8  7  1  1  0  0  0
  9  8  1  0  0  0  0
 10  9  1  6  0  0  0
 10 17  1  0  0  0  0
 11 12  2  0  0  0  0
 12  8  1  0  0  0  0
 12 10  1  0  0  0  0
 14 13  1  0  0  0  0
 15 16  1  0  0  0  0
 16 18  1  6  0  0  0
 16 13  1  0  0  0  0
 17 15  1  6  0  0  0
 17 14  1  0  0  0  0
 19 18  3  0  0  0  0
 20  2  1  0  0  0  0
 20 21  1  0  0  0  0
 21 22  1  0  0  0  0
 23 28  1  6  0  0  0
 24 22  1  6  0  0  0
 24 23  1  0  0  0  0
 25 24  1  0  0  0  0
 25 26  1  0  0  0  0
 26 27  1  0  0  0  0
 27 23  1  0  0  0  0
 29 36  1  6  0  0  0
 29 34  1  0  0  0  0
 32 28  1  1  0  0  0
 32 33  1  0  0  0  0
 33 31  1  0  0  0  0
 34 30  1  6  0  0  0
 34 31  1  0  0  0  0
 35 29  1  0  0  0  0
 35 32  1  0  0  0  0
 37 38  1  0  0  0  0
 39 40  2  0  0  0  0
 40 38  1  0  0  0  0
 41 42  1  0  0  0  0
 41 39  1  0  0  0  0
 43 42  1  1  0  0  0
 43 47  1  0  0  0  0
 44 43  1  0  0  0  0
 45 44  2  0  0  0  0
 46 44  1  0  0  0  0
 47 49  1  0  0  0  0
 48 50  1  0  0  0  0
 49 48  1  0  0  0  0
 49 50  1  0  0  0  0
M  END
>  <MODEL>
4

>  <REMARK>
 VINA RESULT:      -6.5      2.854      4.176
  Name = 
  20 active torsions:
  status: ('A' for Active; 'I' for Inactive)
    1  A    between atoms: N_1  and  O_28
    2  A    between atoms: C_2  and  O_25
    3  A    between atoms: C_6  and  N_48
    4  A    between atoms: C_7  and  C_10
    5  A    between atoms: C_7  and  O_44
    6  A    between atoms: C_8  and  C_41
    7  A    between atoms: N_11  and  C_40
    8  A    between atoms: C_13  and  C_39
    9  A    between atoms: C_14  and  N_45
   10  A    between atoms: C_19  and  C_23
   11  A    between atoms: C_23  and  C_26
   12  A    between atoms: C_23  and  O_27
   13  A    between atoms: C_24  and  O_27
   14  A    between atoms: O_25  and  N_49
   15  A    between atoms: C_26  and  O_28
   16  A    between atoms: N_30  and  C_39
   17  A    between atoms: N_30  and  C_40
   18  A    between atoms: C_31  and  N_48
   19  A    between atoms: C_32  and  C_43
   20  A    between atoms: C_32  and  O_44
                            x       y       z     vdW  Elec       q    Type
                         _______ _______ _______ _____ _____    ______ ____

>  <TORSDO>
F 20

$$$$
=
 OpenBabel11042413263D

 50 55  0  0  1  0  0  0  0  0999 V2000
  183.4370  178.6390  141.5740 C   0  0  0  0  0  0  0  0  0  0  0  0
  182.1370  178.5430  141.2960 C   0  0  0  0  0  3  0  0  0  0  0  0
  184.4040  178.3220  140.5620 N   0  0  0  0  0  2  0  0  0  0  0  0
  186.1930  179.6000  141.3770 O   0  0  0  0  0  0  0  0  0  0  0  0
  185.7200  178.8780  140.4590 C   0  0  0  0  0  0  0  0  0  0  0  0
  186.5100  178.6150  139.2990 N   0  0  0  0  0  2  0  0  0  0  0  0
  186.0520  177.8260  138.2940 O   0  0  0  0  0  0  0  0  0  0  0  0
  186.4930  178.4380  137.1090 C   0  0  1  0  0  0  0  0  0  0  0  0
  187.7580  179.1430  137.2940 N   0  0  0  0  0  2  0  0  0  0  0  0
  187.7160  177.8390  136.6260 C   0  0  2  0  0  0  0  0  0  0  0  0
  185.7710  176.9360  135.0350 O   0  0  0  0  0  0  0  0  0  0  0  0
  186.4070  177.5250  135.8940 C   0  0  0  0  0  0  0  0  0  0  0  0
  189.6680  174.8640  137.3390 C   0  0  0  0  0  2  0  0  0  0  0  0
  188.5010  175.5740  136.6890 C   0  0  0  0  0  2  0  0  0  0  0  0
  189.4560  177.1380  138.1000 C   0  0  0  0  0  2  0  0  0  0  0  0
  190.3150  175.8970  138.2280 C   0  0  2  0  0  3  0  0  0  0  0  0
  188.1810  176.7460  137.5040 N   0  0  1  0  0  0  0  0  0  0  0  0
  191.6720  176.1840  137.7530 C   0  0  0  0  0  0  0  0  0  0  0  0
  192.7450  176.4150  137.3790 N   0  0  0  0  0  0  0  0  0  0  0  0
  181.6460  178.0730  139.9680 C   0  0  0  0  0  2  0  0  0  0  0  0
  181.2560  179.1670  139.1950 O   0  0  0  0  0  0  0  0  0  0  0  0
  181.9200  178.9960  137.9790 C   0  0  0  0  0  2  0  0  0  0  0  0
  181.9600  177.0960  136.3150 C   0  0  1  0  0  3  0  0  0  0  0  0
  181.0980  178.1080  137.0490 C   0  0  2  0  0  3  0  0  0  0  0  0
  180.5800  178.9400  135.9130 C   0  0  0  0  0  2  0  0  0  0  0  0
  181.5170  178.6370  134.7570 C   0  0  0  0  0  2  0  0  0  0  0  0
  182.4970  177.7220  135.1810 O   0  0  0  0  0  0  0  0  0  0  0  0
  183.0290  176.5510  137.1490 N   0  0  0  0  0  2  0  0  0  0  0  0
  184.6710  173.1400  137.0870 C   0  0  1  0  0  3  0  0  0  0  0  0
  183.4940  170.9840  136.6310 C   0  0  0  0  0  1  0  0  0  0  0  0
  182.4640  173.0720  136.1180 O   0  0  0  0  0  0  0  0  0  0  0  0
  183.3710  175.2360  136.6230 C   0  0  2  0  0  3  0  0  0  0  0  0
  182.1400  174.3310  136.6550 C   0  0  0  0  0  2  0  0  0  0  0  0
  183.3120  172.4330  137.0440 C   0  0  2  0  0  3  0  0  0  0  0  0
  184.4690  174.6050  137.4780 C   0  0  0  0  0  2  0  0  0  0  0  0
  185.4980  172.5330  138.0130 F   0  0  0  0  0  0  0  0  0  0  0  0
  183.8670  179.1060  142.8570 N   0  0  0  0  0  2  0  0  0  0  0  0
  183.1930  178.7900  144.1090 C   0  0  0  0  0  2  0  0  0  0  0  0
  185.4490  178.7180  144.9600 N   0  0  0  0  0  0  0  0  0  0  0  0
  184.1840  178.7850  145.2180 C   0  0  0  0  0  3  0  0  0  0  0  0
  186.3670  178.7480  145.9850 O   0  0  0  0  0  0  0  0  0  0  0  0
  186.8470  177.5430  146.5640 C   0  0  0  0  0  2  0  0  0  0  0  0
  188.3070  177.3230  146.1930 C   0  0  2  0  0  3  0  0  0  0  0  0
  189.1750  177.5630  147.3880 C   0  0  0  0  0  0  0  0  0  0  0  0
  188.7890  178.4770  148.3630 O   0  0  0  0  0  1  0  0  0  0  0  0
  190.2410  176.9020  147.5330 O   0  0  0  0  0  0  0  0  0  0  0  0
  188.6670  178.1790  145.1510 O   0  0  0  0  0  0  0  0  0  0  0  0
  190.5730  177.8900  143.7620 C   0  0  0  0  0  2  0  0  0  0  0  0
  189.2210  177.3480  144.1750 C   0  0  0  0  0  3  0  0  0  0  0  0
  189.3680  178.1210  142.8810 C   0  0  0  0  0  2  0  0  0  0  0  0
  1 37  1  0  0  0  0
  2  1  2  0  0  0  0
  3  1  1  0  0  0  0
  5  3  1  0  0  0  0
  5  4  2  0  0  0  0
  6  5  1  0  0  0  0
  7  6  1  0  0  0  0
  8  9  1  0  0  0  0
  8  7  1  1  0  0  0
 10 12  1  6  0  0  0
 10  8  1  0  0  0  0
 10  9  1  0  0  0  0
 10 17  1  0  0  0  0
 11 12  2  0  0  0  0
 12  8  1  0  0  0  0
 13 16  1  0  0  0  0
 14 13  1  0  0  0  0
 15 16  1  0  0  0  0
 16 18  1  6  0  0  0
 17 14  1  6  0  0  0
 17 15  1  0  0  0  0
 19 18  3  0  0  0  0
 20  2  1  0  0  0  0
 21 20  1  0  0  0  0
 22 21  1  0  0  0  0
 23 24  1  0  0  0  0
 23 28  1  1  0  0  0
 24 22  1  1  0  0  0
 25 24  1  0  0  0  0
 26 27  1  0  0  0  0
 26 25  1  0  0  0  0
 27 23  1  0  0  0  0
 29 35  1  0  0  0  0
 29 36  1  1  0  0  0
 31 33  1  0  0  0  0
 31 34  1  0  0  0  0
 32 33  1  0  0  0  0
 32 28  1  1  0  0  0
 32 35  1  0  0  0  0
 34 30  1  6  0  0  0
 34 29  1  0  0  0  0
 37 38  1  0  0  0  0
 38 40  1  0  0  0  0
 39 40  2  0  0  0  0
 39 41  1  0  0  0  0
 41 42  1  0  0  0  0
 43 42  1  1  0  0  0
 43 44  1  0  0  0  0
 44 46  2  0  0  0  0
 44 45  1  0  0  0  0
 47 43  1  0  0  0  0
 48 49  1  0  0  0  0
 49 47  1  0  0  0  0
 50 48  1  0  0  0  0
 50 49  1  0  0  0  0
M  END
>  <MODEL>
5

>  <REMARK>
 VINA RESULT:      -6.4      2.923      8.525
  Name = 
  20 active torsions:
  status: ('A' for Active; 'I' for Inactive)
    1  A    between atoms: N_1  and  O_28
    2  A    between atoms: C_2  and  O_25
    3  A    between atoms: C_6  and  N_48
    4  A    between atoms: C_7  and  C_10
    5  A    between atoms: C_7  and  O_44
    6  A    between atoms: C_8  and  C_41
    7  A    between atoms: N_11  and  C_40
    8  A    between atoms: C_13  and  C_39
    9  A    between atoms: C_14  and  N_45
   10  A    between atoms: C_19  and  C_23
   11  A    between atoms: C_23  and  C_26
   12  A    between atoms: C_23  and  O_27
   13  A    between atoms: C_24  and  O_27
   14  A    between atoms: O_25  and  N_49
   15  A    between atoms: C_26  and  O_28
   16  A    between atoms: N_30  and  C_39
   17  A    between atoms: N_30  and  C_40
   18  A    between atoms: C_31  and  N_48
   19  A    between atoms: C_32  and  C_43
   20  A    between atoms: C_32  and  O_44
                            x       y       z     vdW  Elec       q    Type
                         _______ _______ _______ _____ _____    ______ ____

>  <TORSDO>
F 20

$$$$
=
 OpenBabel11042413263D

 50 55  0  0  1  0  0  0  0  0999 V2000
  186.3160  178.2310  138.1010 C   0  0  0  0  0  0  0  0  0  0  0  0
  186.2350  177.1520  137.3230 C   0  0  0  0  0  3  0  0  0  0  0  0
  185.1380  179.0070  138.3630 N   0  0  0  0  0  2  0  0  0  0  0  0
  185.1020  178.8080  140.6990 O   0  0  0  0  0  0  0  0  0  0  0  0
  184.5310  179.2000  139.6460 C   0  0  0  0  0  0  0  0  0  0  0  0
  183.2580  179.8400  139.7370 N   0  0  0  0  0  2  0  0  0  0  0  0
  182.6150  180.2980  138.6330 O   0  0  0  0  0  0  0  0  0  0  0  0
  181.2520  180.0460  138.8650 C   0  0  1  0  0  0  0  0  0  0  0  0
  180.5840  181.1820  139.4920 N   0  0  0  0  0  2  0  0  0  0  0  0
  180.4110  180.9040  138.0630 C   0  0  2  0  0  0  0  0  0  0  0  0
  180.3130  178.4940  136.9180 O   0  0  0  0  0  0  0  0  0  0  0  0
  180.5440  179.4300  137.6660 C   0  0  0  0  0  0  0  0  0  0  0  0
  180.7900  183.3380  135.3990 C   0  0  0  0  0  2  0  0  0  0  0  0
  180.5710  181.9280  135.9010 C   0  0  0  0  0  2  0  0  0  0  0  0
  181.1150  183.1660  137.7770 C   0  0  0  0  0  2  0  0  0  0  0  0
  181.1040  184.1530  136.6280 C   0  0  2  0  0  3  0  0  0  0  0  0
  181.2020  181.8200  137.2150 N   0  0  1  0  0  0  0  0  0  0  0  0
  180.0540  185.1530  136.8470 C   0  0  0  0  0  0  0  0  0  0  0  0
  179.2250  185.9430  137.0230 N   0  0  0  0  0  0  0  0  0  0  0  0
  184.9560  176.7410  136.6730 C   0  0  0  0  0  2  0  0  0  0  0  0
  184.3650  175.7120  137.4040 O   0  0  0  0  0  0  0  0  0  0  0  0
  184.3790  174.6130  136.5430 C   0  0  0  0  0  2  0  0  0  0  0  0
  186.2940  172.9950  136.2330 C   0  0  1  0  0  3  0  0  0  0  0  0
  185.1860  173.4720  137.1560 C   0  0  2  0  0  3  0  0  0  0  0  0
  184.3200  172.2510  137.2390 C   0  0  0  0  0  2  0  0  0  0  0  0
  184.7360  171.4030  136.0500 C   0  0  0  0  0  2  0  0  0  0  0  0
  185.7440  172.0720  135.3340 O   0  0  0  0  0  0  0  0  0  0  0  0
  186.9390  174.0880  135.5100 N   0  0  0  0  0  2  0  0  0  0  0  0
  190.5710  175.1500  135.6530 C   0  0  1  0  0  3  0  0  0  0  0  0
  192.1710  174.5620  137.4800 C   0  0  0  0  0  1  0  0  0  0  0  0
  190.1010  173.4020  137.2470 O   0  0  0  0  0  0  0  0  0  0  0  0
  188.3790  173.9270  135.6590 C   0  0  2  0  0  3  0  0  0  0  0  0
  188.7130  173.5890  137.1120 C   0  0  0  0  0  2  0  0  0  0  0  0
  190.7050  174.6670  137.1020 C   0  0  2  0  0  3  0  0  0  0  0  0
  189.0900  175.2240  135.2780 C   0  0  0  0  0  2  0  0  0  0  0  0
  191.1400  176.4010  135.5110 F   0  0  0  0  0  0  0  0  0  0  0  0
  187.5600  178.5840  138.7160 N   0  0  0  0  0  2  0  0  0  0  0  0
  188.4390  177.6340  139.3840 C   0  0  0  0  0  2  0  0  0  0  0  0
  188.6670  177.1230  141.7300 N   0  0  0  0  0  0  0  0  0  0  0  0
  188.6000  178.0270  140.8100 C   0  0  0  0  0  3  0  0  0  0  0  0
  188.8510  177.4850  143.0460 O   0  0  0  0  0  0  0  0  0  0  0  0
  190.1460  177.8040  143.5340 C   0  0  0  0  0  2  0  0  0  0  0  0
  190.2270  177.5390  145.0310 C   0  0  2  0  0  3  0  0  0  0  0  0
  191.4040  176.6660  145.3280 C   0  0  0  0  0  0  0  0  0  0  0  0
  191.8650  175.7620  144.3750 O   0  0  0  0  0  0  0  0  0  0  0  0
  192.0090  176.7790  146.4300 O   0  0  0  0  0  1  0  0  0  0  0  0
  189.0490  176.9320  145.4710 O   0  0  0  0  0  0  0  0  0  0  0  0
  187.8170  177.5020  147.4200 C   0  0  0  0  0  2  0  0  0  0  0  0
  188.3130  177.9600  146.0650 C   0  0  0  0  0  3  0  0  0  0  0  0
  186.8760  177.5130  146.2380 C   0  0  0  0  0  2  0  0  0  0  0  0
  1  3  1  0  0  0  0
  1 37  1  0  0  0  0
  2  1  2  0  0  0  0
  3  5  1  0  0  0  0
  5  6  1  0  0  0  0
  5  4  2  0  0  0  0
  7  6  1  0  0  0  0
  8  7  1  6  0  0  0
  8  9  1  0  0  0  0
 10 12  1  6  0  0  0
 10  8  1  0  0  0  0
 10  9  1  0  0  0  0
 11 12  2  0  0  0  0
 12  8  1  0  0  0  0
 13 14  1  0  0  0  0
 13 16  1  0  0  0  0
 16 18  1  1  0  0  0
 16 15  1  0  0  0  0
 17 14  1  6  0  0  0
 17 15  1  0  0  0  0
 17 10  1  0  0  0  0
 18 19  3  0  0  0  0
 20  2  1  0  0  0  0
 20 21  1  0  0  0  0
 22 21  1  0  0  0  0
 23 28  1  6  0  0  0
 23 24  1  0  0  0  0
 24 22  1  6  0  0  0
 24 25  1  0  0  0  0
 26 25  1  0  0  0  0
 27 26  1  0  0  0  0
 27 23  1  0  0  0  0
 29 36  1  1  0  0  0
 29 34  1  0  0  0  0
 32 28  1  1  0  0  0
 32 33  1  0  0  0  0
 33 31  1  0  0  0  0
 34 31  1  0  0  0  0
 34 30  1  6  0  0  0
 35 29  1  0  0  0  0
 35 32  1  0  0  0  0
 37 38  1  0  0  0  0
 38 40  1  0  0  0  0
 39 41  1  0  0  0  0
 40 39  2  0  0  0  0
 41 42  1  0  0  0  0
 43 42  1  6  0  0  0
 43 44  1  0  0  0  0
 43 47  1  0  0  0  0
 44 46  1  0  0  0  0
 45 44  2  0  0  0  0
 47 49  1  0  0  0  0
 49 50  1  0  0  0  0
 49 48  1  0  0  0  0
 50 48  1  0  0  0  0
M  END
>  <MODEL>
6

>  <REMARK>
 VINA RESULT:      -6.4      3.377      9.272
  Name = 
  20 active torsions:
  status: ('A' for Active; 'I' for Inactive)
    1  A    between atoms: N_1  and  O_28
    2  A    between atoms: C_2  and  O_25
    3  A    between atoms: C_6  and  N_48
    4  A    between atoms: C_7  and  C_10
    5  A    between atoms: C_7  and  O_44
    6  A    between atoms: C_8  and  C_41
    7  A    between atoms: N_11  and  C_40
    8  A    between atoms: C_13  and  C_39
    9  A    between atoms: C_14  and  N_45
   10  A    between atoms: C_19  and  C_23
   11  A    between atoms: C_23  and  C_26
   12  A    between atoms: C_23  and  O_27
   13  A    between atoms: C_24  and  O_27
   14  A    between atoms: O_25  and  N_49
   15  A    between atoms: C_26  and  O_28
   16  A    between atoms: N_30  and  C_39
   17  A    between atoms: N_30  and  C_40
   18  A    between atoms: C_31  and  N_48
   19  A    between atoms: C_32  and  C_43
   20  A    between atoms: C_32  and  O_44
                            x       y       z     vdW  Elec       q    Type
                         _______ _______ _______ _____ _____    ______ ____

>  <TORSDO>
F 20

$$$$
=
 OpenBabel11042413263D

 50 55  0  0  1  0  0  0  0  0999 V2000
  187.9760  178.3430  140.9360 C   0  0  0  0  0  0  0  0  0  0  0  0
  186.6910  178.6210  141.1590 C   0  0  0  0  0  3  0  0  0  0  0  0
  188.7510  177.7030  141.9600 N   0  0  0  0  0  2  0  0  0  0  0  0
  190.2870  176.5850  140.5860 O   0  0  0  0  0  0  0  0  0  0  0  0
  189.8280  176.7850  141.7430 C   0  0  0  0  0  0  0  0  0  0  0  0
  190.3910  176.0800  142.8500 N   0  0  0  0  0  2  0  0  0  0  0  0
  189.9450  176.2780  144.1160 O   0  0  0  0  0  0  0  0  0  0  0  0
  190.7570  177.2960  144.6420 C   0  0  1  0  0  0  0  0  0  0  0  0
  190.0530  178.5730  144.7220 N   0  0  0  0  0  2  0  0  0  0  0  0
  190.2670  177.7580  145.9210 C   0  0  2  0  0  0  0  0  0  0  0  0
  192.4050  176.2480  146.4490 O   0  0  0  0  0  0  0  0  0  0  0  0
  191.5180  176.8720  145.8910 C   0  0  0  0  0  0  0  0  0  0  0  0
  187.1640  177.4510  147.7760 C   0  0  0  0  0  2  0  0  0  0  0  0
  188.6740  177.4590  147.6880 C   0  0  0  0  0  2  0  0  0  0  0  0
  187.9350  177.4890  145.4970 C   0  0  0  0  0  2  0  0  0  0  0  0
  186.6820  177.5120  146.3480 C   0  0  2  0  0  3  0  0  0  0  0  0
  189.0440  177.0410  146.3360 N   0  0  1  0  0  0  0  0  0  0  0  0
  185.9540  178.7640  146.1210 C   0  0  0  0  0  0  0  0  0  0  0  0
  185.3760  179.7520  145.9440 N   0  0  0  0  0  0  0  0  0  0  0  0
  186.0350  178.3250  142.4660 C   0  0  0  0  0  2  0  0  0  0  0  0
  184.6620  178.1670  142.2780 O   0  0  0  0  0  0  0  0  0  0  0  0
  184.4550  178.4430  140.9260 C   0  0  0  0  0  2  0  0  0  0  0  0
  182.9970  177.8850  138.9400 C   0  0  1  0  0  3  0  0  0  0  0  0
  183.1570  177.8000  140.4480 C   0  0  2  0  0  3  0  0  0  0  0  0
  181.9990  178.6290  140.9190 C   0  0  0  0  0  2  0  0  0  0  0  0
  181.5960  179.4500  139.7060 C   0  0  0  0  0  2  0  0  0  0  0  0
  182.4460  179.1370  138.6310 O   0  0  0  0  0  0  0  0  0  0  0  0
  184.2560  177.6930  138.2250 N   0  0  0  0  0  2  0  0  0  0  0  0
  185.4450  174.4620  136.6480 C   0  0  1  0  0  3  0  0  0  0  0  0
  184.3560  172.2320  136.9390 C   0  0  0  0  0  1  0  0  0  0  0  0
  183.2160  174.2380  137.5390 O   0  0  0  0  0  0  0  0  0  0  0  0
  184.1520  176.4470  137.4760 C   0  0  2  0  0  3  0  0  0  0  0  0
  183.3420  175.4290  138.2780 C   0  0  0  0  0  2  0  0  0  0  0  0
  184.4870  173.6320  137.5110 C   0  0  2  0  0  3  0  0  0  0  0  0
  185.5470  175.8770  137.2200 C   0  0  0  0  0  2  0  0  0  0  0  0
  186.7010  173.8850  136.6380 F   0  0  0  0  0  0  0  0  0  0  0  0
  188.5640  178.6320  139.6640 N   0  0  0  0  0  2  0  0  0  0  0  0
  187.9910  178.2290  138.3880 C   0  0  0  0  0  2  0  0  0  0  0  0
  188.8020  177.2200  136.3530 N   0  0  0  0  0  0  0  0  0  0  0  0
  189.0800  177.8270  137.4590 C   0  0  0  0  0  3  0  0  0  0  0  0
  189.8070  176.8790  135.4770 O   0  0  0  0  0  0  0  0  0  0  0  0
  191.0560  176.4030  135.9560 C   0  0  0  0  0  2  0  0  0  0  0  0
  191.2330  174.9330  135.6030 C   0  0  2  0  0  3  0  0  0  0  0  0
  190.5740  174.0800  136.6390 C   0  0  0  0  0  0  0  0  0  0  0  0
  190.5370  174.4920  137.9680 O   0  0  0  0  0  1  0  0  0  0  0  0
  190.0110  173.0020  136.3010 O   0  0  0  0  0  0  0  0  0  0  0  0
  192.5920  174.6260  135.5140 O   0  0  0  0  0  0  0  0  0  0  0  0
  194.6770  175.7470  135.7120 C   0  0  0  0  0  2  0  0  0  0  0  0
  193.2420  175.6640  136.1860 C   0  0  0  0  0  3  0  0  0  0  0  0
  194.3590  175.0900  137.0340 C   0  0  0  0  0  2  0  0  0  0  0  0
  1  2  2  0  0  0  0
  1  3  1  0  0  0  0
  2 20  1  0  0  0  0
  4  5  2  0  0  0  0
  5  3  1  0  0  0  0
  5  6  1  0  0  0  0
  6  7  1  0  0  0  0
  8  7  1  6  0  0  0
  8  9  1  0  0  0  0
  8 12  1  0  0  0  0
  8 10  1  0  0  0  0
 10  9  1  1  0  0  0
 10 17  1  0  0  0  0
 12 10  1  0  0  0  0
 12 11  2  0  0  0  0
 14 13  1  0  0  0  0
 15 16  1  0  0  0  0
 16 18  1  1  0  0  0
 16 13  1  0  0  0  0
 17 15  1  6  0  0  0
 17 14  1  0  0  0  0
 19 18  3  0  0  0  0
 21 20  1  0  0  0  0
 22 21  1  0  0  0  0
 23 28  1  6  0  0  0
 23 24  1  0  0  0  0
 24 25  1  0  0  0  0
 24 22  1  6  0  0  0
 26 25  1  0  0  0  0
 27 23  1  0  0  0  0
 27 26  1  0  0  0  0
 29 36  1  1  0  0  0
 29 35  1  0  0  0  0
 29 34  1  0  0  0  0
 31 33  1  0  0  0  0
 32 28  1  1  0  0  0
 32 33  1  0  0  0  0
 34 30  1  6  0  0  0
 34 31  1  0  0  0  0
 35 32  1  0  0  0  0
 37  1  1  0  0  0  0
 38 37  1  0  0  0  0
 39 40  2  0  0  0  0
 40 38  1  0  0  0  0
 41 42  1  0  0  0  0
 41 39  1  0  0  0  0
 43 42  1  1  0  0  0
 43 44  1  0  0  0  0
 44 45  1  0  0  0  0
 46 44  2  0  0  0  0
 47 43  1  0  0  0  0
 47 49  1  0  0  0  0
 48 49  1  0  0  0  0
 48 50  1  0  0  0  0
 49 50  1  0  0  0  0
M  END
>  <MODEL>
7

>  <REMARK>
 VINA RESULT:      -6.2      3.424     10.354
  Name = 
  20 active torsions:
  status: ('A' for Active; 'I' for Inactive)
    1  A    between atoms: N_1  and  O_28
    2  A    between atoms: C_2  and  O_25
    3  A    between atoms: C_6  and  N_48
    4  A    between atoms: C_7  and  C_10
    5  A    between atoms: C_7  and  O_44
    6  A    between atoms: C_8  and  C_41
    7  A    between atoms: N_11  and  C_40
    8  A    between atoms: C_13  and  C_39
    9  A    between atoms: C_14  and  N_45
   10  A    between atoms: C_19  and  C_23
   11  A    between atoms: C_23  and  C_26
   12  A    between atoms: C_23  and  O_27
   13  A    between atoms: C_24  and  O_27
   14  A    between atoms: O_25  and  N_49
   15  A    between atoms: C_26  and  O_28
   16  A    between atoms: N_30  and  C_39
   17  A    between atoms: N_30  and  C_40
   18  A    between atoms: C_31  and  N_48
   19  A    between atoms: C_32  and  C_43
   20  A    between atoms: C_32  and  O_44
                            x       y       z     vdW  Elec       q    Type
                         _______ _______ _______ _____ _____    ______ ____

>  <TORSDO>
F 20

$$$$
=
 OpenBabel11042413263D

 50 55  0  0  1  0  0  0  0  0999 V2000
  183.7820  178.4530  141.3130 C   0  0  0  0  0  0  0  0  0  0  0  0
  182.6360  178.9300  140.8290 C   0  0  0  0  0  3  0  0  0  0  0  0
  184.8830  178.2170  140.4230 N   0  0  0  0  0  2  0  0  0  0  0  0
  186.5080  179.4910  141.5350 O   0  0  0  0  0  0  0  0  0  0  0  0
  186.1840  178.8100  140.5260 C   0  0  0  0  0  0  0  0  0  0  0  0
  187.1270  178.6320  139.4690 N   0  0  0  0  0  2  0  0  0  0  0  0
  186.8310  177.8890  138.3720 O   0  0  0  0  0  0  0  0  0  0  0  0
  187.3200  178.6250  137.2800 C   0  0  1  0  0  0  0  0  0  0  0  0
  188.5740  179.3050  137.5950 N   0  0  0  0  0  2  0  0  0  0  0  0
  188.5650  178.0800  136.7890 C   0  0  2  0  0  0  0  0  0  0  0  0
  186.6940  177.3560  135.0270 O   0  0  0  0  0  0  0  0  0  0  0  0
  187.2900  177.8480  135.9710 C   0  0  0  0  0  0  0  0  0  0  0  0
  190.5440  175.0800  137.2900 C   0  0  0  0  0  2  0  0  0  0  0  0
  189.4080  175.8400  136.6410 C   0  0  0  0  0  2  0  0  0  0  0  0
  190.2120  177.2400  138.2980 C   0  0  0  0  0  2  0  0  0  0  0  0
  191.0940  176.0090  138.3430 C   0  0  2  0  0  3  0  0  0  0  0  0
  188.9950  176.8980  137.5630 N   0  0  1  0  0  0  0  0  0  0  0  0
  192.4740  176.3790  138.0100 C   0  0  0  0  0  0  0  0  0  0  0  0
  193.5620  176.6710  137.7440 N   0  0  0  0  0  0  0  0  0  0  0  0
  182.4410  179.1920  139.3730 C   0  0  0  0  0  2  0  0  0  0  0  0
  182.4210  177.9840  138.6760 O   0  0  0  0  0  0  0  0  0  0  0  0
  181.1000  177.5420  138.7710 C   0  0  0  0  0  2  0  0  0  0  0  0
  181.1530  175.0470  138.3810 C   0  0  1  0  0  3  0  0  0  0  0  0
  181.0510  176.1580  139.4110 C   0  0  2  0  0  3  0  0  0  0  0  0
  179.6780  175.9250  139.9680 C   0  0  0  0  0  2  0  0  0  0  0  0
  178.9860  175.0550  138.9320 C   0  0  0  0  0  2  0  0  0  0  0  0
  179.8710  174.8120  137.8660 O   0  0  0  0  0  0  0  0  0  0  0  0
  182.0850  175.3600  137.3010 N   0  0  0  0  0  2  0  0  0  0  0  0
  184.7030  172.6240  137.2360 C   0  0  1  0  0  3  0  0  0  0  0  0
  187.1180  172.9560  136.6910 C   0  0  0  0  0  1  0  0  0  0  0  0
  185.7160  174.8120  137.2120 O   0  0  0  0  0  0  0  0  0  0  0  0
  183.3510  174.7060  137.6080 C   0  0  2  0  0  3  0  0  0  0  0  0
  184.4910  175.4250  136.8890 C   0  0  0  0  0  2  0  0  0  0  0  0
  185.7280  173.5540  136.5780 C   0  0  2  0  0  3  0  0  0  0  0  0
  183.3120  173.2520  137.1390 C   0  0  0  0  0  2  0  0  0  0  0  0
  184.6930  171.3960  136.6010 F   0  0  0  0  0  0  0  0  0  0  0  0
  183.9330  178.2270  142.7180 N   0  0  0  0  0  2  0  0  0  0  0  0
  183.9820  179.2880  143.7150 C   0  0  0  0  0  2  0  0  0  0  0  0
  185.5430  177.7820  144.7700 N   0  0  0  0  0  0  0  0  0  0  0  0
  185.0070  178.9580  144.7400 C   0  0  0  0  0  3  0  0  0  0  0  0
  186.5170  177.4870  145.6970 O   0  0  0  0  0  0  0  0  0  0  0  0
  187.7150  178.2480  145.7560 C   0  0  0  0  0  2  0  0  0  0  0  0
  188.9280  177.3280  145.7350 C   0  0  2  0  0  3  0  0  0  0  0  0
  189.3230  176.9780  147.1340 C   0  0  0  0  0  0  0  0  0  0  0  0
  188.4020  177.0890  148.1720 O   0  0  0  0  0  1  0  0  0  0  0  0
  190.4830  176.5400  147.3690 O   0  0  0  0  0  0  0  0  0  0  0  0
  189.9870  177.9530  145.0730 O   0  0  0  0  0  0  0  0  0  0  0  0
  191.3500  176.4460  143.8420 C   0  0  0  0  0  2  0  0  0  0  0  0
  190.0910  177.2870  143.8500 C   0  0  0  0  0  3  0  0  0  0  0  0
  191.3260  177.7720  143.1180 C   0  0  0  0  0  2  0  0  0  0  0  0
  1 37  1  0  0  0  0
  2  1  2  0  0  0  0
  3  5  1  0  0  0  0
  3  1  1  0  0  0  0
  5  4  2  0  0  0  0
  6  5  1  0  0  0  0
  7  6  1  0  0  0  0
  8  9  1  0  0  0  0
  8  7  1  1  0  0  0
 10 12  1  6  0  0  0
 10  8  1  0  0  0  0
 10 17  1  0  0  0  0
 10  9  1  0  0  0  0
 11 12  2  0  0  0  0
 12  8  1  0  0  0  0
 13 16  1  0  0  0  0
 14 13  1  0  0  0  0
 15 16  1  0  0  0  0
 16 18  1  6  0  0  0
 17 14  1  6  0  0  0
 17 15  1  0  0  0  0
 19 18  3  0  0  0  0
 20  2  1  0  0  0  0
 21 22  1  0  0  0  0
 21 20  1  0  0  0  0
 23 28  1  6  0  0  0
 23 24  1  0  0  0  0
 24 22  1  6  0  0  0
 24 25  1  0  0  0  0
 26 25  1  0  0  0  0
 27 23  1  0  0  0  0
 27 26  1  0  0  0  0
 29 36  1  6  0  0  0
 32 28  1  6  0  0  0
 33 31  1  0  0  0  0
 33 32  1  0  0  0  0
 34 30  1  1  0  0  0
 34 31  1  0  0  0  0
 34 29  1  0  0  0  0
 35 29  1  0  0  0  0
 35 32  1  0  0  0  0
 37 38  1  0  0  0  0
 38 40  1  0  0  0  0
 39 41  1  0  0  0  0
 40 39  2  0  0  0  0
 41 42  1  0  0  0  0
 43 42  1  1  0  0  0
 43 44  1  0  0  0  0
 44 46  2  0  0  0  0
 44 45  1  0  0  0  0
 47 43  1  0  0  0  0
 48 49  1  0  0  0  0
 49 47  1  0  0  0  0
 50 48  1  0  0  0  0
 50 49  1  0  0  0  0
M  END
>  <MODEL>
8

>  <REMARK>
 VINA RESULT:      -6.2      3.164      8.635
  Name = 
  20 active torsions:
  status: ('A' for Active; 'I' for Inactive)
    1  A    between atoms: N_1  and  O_28
    2  A    between atoms: C_2  and  O_25
    3  A    between atoms: C_6  and  N_48
    4  A    between atoms: C_7  and  C_10
    5  A    between atoms: C_7  and  O_44
    6  A    between atoms: C_8  and  C_41
    7  A    between atoms: N_11  and  C_40
    8  A    between atoms: C_13  and  C_39
    9  A    between atoms: C_14  and  N_45
   10  A    between atoms: C_19  and  C_23
   11  A    between atoms: C_23  and  C_26
   12  A    between atoms: C_23  and  O_27
   13  A    between atoms: C_24  and  O_27
   14  A    between atoms: O_25  and  N_49
   15  A    between atoms: C_26  and  O_28
   16  A    between atoms: N_30  and  C_39
   17  A    between atoms: N_30  and  C_40
   18  A    between atoms: C_31  and  N_48
   19  A    between atoms: C_32  and  C_43
   20  A    between atoms: C_32  and  O_44
                            x       y       z     vdW  Elec       q    Type
                         _______ _______ _______ _____ _____    ______ ____

>  <TORSDO>
F 20

$$$$
=
 OpenBabel11042413263D

 50 55  0  0  1  0  0  0  0  0999 V2000
  185.4940  178.9720  141.5130 C   0  0  0  0  0  0  0  0  0  0  0  0
  184.4380  179.0050  142.3240 C   0  0  0  0  0  3  0  0  0  0  0  0
  186.7520  178.4900  142.0060 N   0  0  0  0  0  2  0  0  0  0  0  0
  187.9570  178.5400  139.9960 O   0  0  0  0  0  0  0  0  0  0  0  0
  187.9130  178.2180  141.2130 C   0  0  0  0  0  0  0  0  0  0  0  0
  189.0380  177.5660  141.8050 N   0  0  0  0  0  2  0  0  0  0  0  0
  189.0450  177.2190  143.1170 O   0  0  0  0  0  0  0  0  0  0  0  0
  190.2030  177.8090  143.6510 C   0  0  1  0  0  0  0  0  0  0  0  0
  189.8930  178.9560  144.5000 N   0  0  0  0  0  2  0  0  0  0  0  0
  190.2580  177.6630  145.0880 C   0  0  2  0  0  0  0  0  0  0  0  0
  192.0150  175.9130  144.1010 O   0  0  0  0  0  0  0  0  0  0  0  0
  191.1810  176.7950  144.2280 C   0  0  0  0  0  0  0  0  0  0  0  0
  187.7980  176.9050  147.6460 C   0  0  0  0  0  2  0  0  0  0  0  0
  189.1950  176.8310  147.0700 C   0  0  0  0  0  2  0  0  0  0  0  0
  187.8930  177.7580  145.3970 C   0  0  0  0  0  2  0  0  0  0  0  0
  186.9580  177.5480  146.5700 C   0  0  2  0  0  3  0  0  0  0  0  0
  189.0830  176.9380  145.6150 N   0  0  1  0  0  0  0  0  0  0  0  0
  186.4540  178.8430  147.0380 C   0  0  0  0  0  0  0  0  0  0  0  0
  186.0550  179.8640  147.4110 N   0  0  0  0  0  0  0  0  0  0  0  0
  184.5280  178.5940  143.7560 C   0  0  0  0  0  2  0  0  0  0  0  0
  183.2490  178.3620  144.2610 O   0  0  0  0  0  0  0  0  0  0  0  0
  182.4200  179.2140  143.5300 C   0  0  0  0  0  2  0  0  0  0  0  0
  180.2550  179.3410  142.2350 C   0  0  1  0  0  3  0  0  0  0  0  0
  181.1440  178.4850  143.1200 C   0  0  2  0  0  3  0  0  0  0  0  0
  180.2760  178.3020  144.3290 C   0  0  0  0  0  2  0  0  0  0  0  0
  179.2320  179.4010  144.2210 C   0  0  0  0  0  2  0  0  0  0  0  0
  179.4750  180.1600  143.0630 O   0  0  0  0  0  0  0  0  0  0  0  0
  181.0140  180.1530  141.2860 N   0  0  0  0  0  2  0  0  0  0  0  0
  180.3630  180.9260  137.6370 C   0  0  1  0  0  3  0  0  0  0  0  0
  179.9070  179.2250  135.8640 C   0  0  0  0  0  1  0  0  0  0  0  0
  179.7680  178.6520  138.1740 O   0  0  0  0  0  0  0  0  0  0  0  0
  180.3180  180.1010  140.0070 C   0  0  2  0  0  3  0  0  0  0  0  0
  180.4670  178.7090  139.3940 C   0  0  0  0  0  2  0  0  0  0  0  0
  180.4780  179.4460  137.2530 C   0  0  2  0  0  3  0  0  0  0  0  0
  180.9170  181.1290  139.0480 C   0  0  0  0  0  2  0  0  0  0  0  0
  181.0790  181.7080  136.7500 F   0  0  0  0  0  0  0  0  0  0  0  0
  185.3620  179.3640  140.1420 N   0  0  0  0  0  2  0  0  0  0  0  0
  184.1290  179.2560  139.3770 C   0  0  0  0  0  2  0  0  0  0  0  0
  185.5250  177.8890  137.9630 N   0  0  0  0  0  0  0  0  0  0  0  0
  184.3680  178.4290  138.1650 C   0  0  0  0  0  3  0  0  0  0  0  0
  185.7370  177.0950  136.8590 O   0  0  0  0  0  0  0  0  0  0  0  0
  186.8770  177.2890  136.0350 C   0  0  0  0  0  2  0  0  0  0  0  0
  188.0380  176.4390  136.5300 C   0  0  2  0  0  3  0  0  0  0  0  0
  189.2600  177.2880  136.6800 C   0  0  0  0  0  0  0  0  0  0  0  0
  189.1430  178.6670  136.8260 O   0  0  0  0  0  1  0  0  0  0  0  0
  190.4000  176.7470  136.7160 O   0  0  0  0  0  0  0  0  0  0  0  0
  188.2790  175.3940  135.6350 O   0  0  0  0  0  0  0  0  0  0  0  0
  188.8400  173.4340  136.8540 C   0  0  0  0  0  2  0  0  0  0  0  0
  187.7300  174.2630  136.2430 C   0  0  0  0  0  3  0  0  0  0  0  0
  188.2300  173.0200  135.5350 C   0  0  0  0  0  2  0  0  0  0  0  0
  1  3  1  0  0  0  0
  1  2  2  0  0  0  0
  2 20  1  0  0  0  0
  4  5  2  0  0  0  0
  5  6  1  0  0  0  0
  5  3  1  0  0  0  0
  6  7  1  0  0  0  0
  8  7  1  6  0  0  0
  8 12  1  0  0  0  0
  8  9  1  0  0  0  0
  8 10  1  0  0  0  0
  9 10  1  0  0  0  0
 10 12  1  1  0  0  0
 10 17  1  0  0  0  0
 11 12  2  0  0  0  0
 14 13  1  0  0  0  0
 15 16  1  0  0  0  0
 16 18  1  1  0  0  0
 16 13  1  0  0  0  0
 17 15  1  1  0  0  0
 17 14  1  0  0  0  0
 18 19  3  0  0  0  0
 20 21  1  0  0  0  0
 22 21  1  0  0  0  0
 23 28  1  6  0  0  0
 23 27  1  0  0  0  0
 23 24  1  0  0  0  0
 24 22  1  1  0  0  0
 24 25  1  0  0  0  0
 26 25  1  0  0  0  0
 27 26  1  0  0  0  0
 29 36  1  6  0  0  0
 29 35  1  0  0  0  0
 31 33  1  0  0  0  0
 32 28  1  1  0  0  0
 33 32  1  0  0  0  0
 34 30  1  6  0  0  0
 34 29  1  0  0  0  0
 34 31  1  0  0  0  0
 35 32  1  0  0  0  0
 37  1  1  0  0  0  0
 38 37  1  0  0  0  0
 39 40  2  0  0  0  0
 40 38  1  0  0  0  0
 41 39  1  0  0  0  0
 42 41  1  0  0  0  0
 43 42  1  6  0  0  0
 43 44  1  0  0  0  0
 44 46  2  0  0  0  0
 44 45  1  0  0  0  0
 47 49  1  0  0  0  0
 47 43  1  0  0  0  0
 49 48  1  0  0  0  0
 50 49  1  0  0  0  0
 50 48  1  0  0  0  0
M  END
>  <MODEL>
9

>  <REMARK>
 VINA RESULT:      -6.1      2.886      9.879
  Name = 
  20 active torsions:
  status: ('A' for Active; 'I' for Inactive)
    1  A    between atoms: N_1  and  O_28
    2  A    between atoms: C_2  and  O_25
    3  A    between atoms: C_6  and  N_48
    4  A    between atoms: C_7  and  C_10
    5  A    between atoms: C_7  and  O_44
    6  A    between atoms: C_8  and  C_41
    7  A    between atoms: N_11  and  C_40
    8  A    between atoms: C_13  and  C_39
    9  A    between atoms: C_14  and  N_45
   10  A    between atoms: C_19  and  C_23
   11  A    between atoms: C_23  and  C_26
   12  A    between atoms: C_23  and  O_27
   13  A    between atoms: C_24  and  O_27
   14  A    between atoms: O_25  and  N_49
   15  A    between atoms: C_26  and  O_28
   16  A    between atoms: N_30  and  C_39
   17  A    between atoms: N_30  and  C_40
   18  A    between atoms: C_31  and  N_48
   19  A    between atoms: C_32  and  C_43
   20  A    between atoms: C_32  and  O_44
                            x       y       z     vdW  Elec       q    Type
                         _______ _______ _______ _____ _____    ______ ____

>  <TORSDO>
F 20

$$$$
