=
 OpenBabel11042412143D

 67 72  0  0  1  0  0  0  0  0999 V2000
  184.6350  179.2790  140.5260 N   0  0  0  0  0  0  0  0  0  0  0  0
  190.5110  176.4410  139.8270 O   0  0  0  0  0  0  0  0  0  0  0  0
  188.3350  176.8650  140.5880 C   0  0  0  0  0  2  0  0  0  0  0  0
  189.8390  177.7630  136.5460 C   0  0  1  0  0  3  0  0  0  0  0  0
  189.7080  176.4070  140.9910 C   0  0  2  0  0  3  0  0  0  0  0  0
  186.2370  178.2720  139.0750 N   0  0  0  0  0  2  0  0  0  0  0  0
  189.1660  179.0760  136.9510 C   0  0  0  0  0  2  0  0  0  0  0  0
  189.8020  176.7430  137.6920 C   0  0  0  0  0  2  0  0  0  0  0  0
  185.8760  179.1100  140.1730 C   0  0  0  0  0  3  0  0  0  0  0  0
  187.5840  178.2430  138.5940 C   0  0  0  0  0  0  0  0  0  0  0  0
  188.7080  177.8730  139.5630 C   0  0  2  0  0  3  0  0  0  0  0  0
  189.9830  177.3930  138.9870 N   0  0  1  0  0  0  0  0  0  0  0  0
  187.8270  178.8390  137.4650 N   0  0  0  0  0  0  0  0  0  0  0  0
  183.5350  178.6010  139.9190 C   0  0  0  0  0  0  0  0  0  0  0  0
  183.0960  177.4570  140.4570 C   0  0  0  0  0  3  0  0  0  0  0  0
  182.2700  176.1350  138.5380 C   0  0  0  0  0  1  0  0  0  0  0  0
  181.9380  176.6860  139.9150 C   0  0  0  0  0  2  0  0  0  0  0  0
  182.8610  179.2240  138.7300 C   0  0  0  0  0  2  0  0  0  0  0  0
  182.0950  180.3220  139.1330 O   0  0  0  0  0  1  0  0  0  0  0  0
  189.1990  177.1190  135.3060 C   0  0  0  0  0  2  0  0  0  0  0  0
  189.5080  175.6240  135.1450 C   0  0  1  0  0  3  0  0  0  0  0  0
  190.9530  175.3820  134.8350 C   0  0  0  0  0  0  0  0  0  0  0  0
  191.4680  174.0440  134.7730 N   0  0  0  0  0  2  0  0  0  0  0  0
  191.7050  176.3640  134.5960 O   0  0  0  0  0  0  0  0  0  0  0  0
  192.8930  173.7460  134.6490 C   0  0  0  0  0  2  0  0  0  0  0  0
  196.4380  174.7030  138.8260 O   0  0  0  0  0  1  0  0  0  0  0  0
  195.0310  173.1610  137.6760 C   0  0  0  0  0  0  0  0  0  0  0  0
  195.7550  175.3820  136.6190 C   0  0  1  0  0  3  0  0  0  0  0  0
  194.9810  174.8860  135.4020 C   0  0  0  0  0  2  0  0  0  0  0  0
  193.6850  174.2300  135.8630 C   0  0  2  0  0  3  0  0  0  0  0  0
  193.9760  173.1220  136.8470 C   0  0  0  0  0  3  0  0  0  0  0  0
  195.2180  172.1300  138.5400 F   0  0  0  0  0  0  0  0  0  0  0  0
  196.1100  174.2150  137.5600 C   0  0  1  0  0  3  0  0  0  0  0  0
  196.9330  176.0140  136.1970 O   0  0  0  0  0  0  0  0  0  0  0  0
  197.4570  175.1860  135.1970 C   0  0  0  0  0  2  0  0  0  0  0  0
  198.6890  174.6900  135.6010 O   0  0  0  0  0  1  0  0  0  0  0  0
  189.0720  174.8550  136.3100 N   0  0  0  0  0  2  0  0  0  0  0  0
  187.6660  174.8740  136.3710 N   0  0  0  0  0  2  0  0  0  0  0  0
  184.2000  170.1210  134.9560 C   0  0  0  0  0  3  0  0  0  0  0  0
  183.3560  171.2390  134.6660 O   0  0  0  0  0  0  0  0  0  0  0  0
  185.5740  170.7300  135.3170 C   0  0  0  0  0  3  0  0  0  0  0  0
  185.9140  173.4280  135.4110 C   0  0  0  0  0  0  0  0  0  0  0  0
  185.0450  174.3820  135.3000 N   0  0  0  0  0  0  0  0  0  0  0  0
  183.7850  173.8220  134.7890 C   0  0  0  0  0  2  0  0  0  0  0  0
  184.1170  172.3780  134.7190 C   0  0  0  0  0  0  0  0  0  0  0  0
  185.3500  172.1570  134.9940 C   0  0  0  0  0  0  0  0  0  0  0  0
  187.2140  173.6050  135.9750 N   0  0  0  0  0  2  0  0  0  0  0  0
  190.3150  177.3560  142.0260 C   0  0  0  0  0  2  0  0  0  0  0  0
  190.9820  177.7080  144.4830 C   0  0  1  0  0  0  0  0  0  0  0  0
  191.5100  179.0510  143.9400 C   0  0  0  0  0  1  0  0  0  0  0  0
  189.5510  177.8230  145.0340 C   0  0  1  0  0  3  0  0  0  0  0  0
  189.0960  176.7290  144.0750 C   0  0  0  0  0  2  0  0  0  0  0  0
  190.4650  176.7230  143.4100 C   0  0  1  0  0  3  0  0  0  0  0  0
  189.3560  177.5350  146.5330 C   0  0  2  0  0  3  0  0  0  0  0  0
  189.3830  176.1690  146.8210 O   0  0  0  0  0  1  0  0  0  0  0  0
  188.0430  178.1490  147.0020 C   0  0  0  0  0  2  0  0  0  0  0  0
  187.3710  178.6980  145.9020 O   0  0  0  0  0  0  0  0  0  0  0  0
  186.1020  178.0910  145.8560 C   0  0  1  0  0  3  0  0  0  0  0  0
  184.0770  178.1420  147.2300 O   0  0  0  0  0  0  0  0  0  0  0  0
  185.6350  179.7710  147.4040 O   0  0  0  0  0  0  0  0  0  0  0  0
  185.2110  178.7840  146.7760 N   0  0  0  0  0  0  0  0  0  0  0  0
  185.5270  178.1560  144.4280 C   0  0  0  0  0  2  0  0  0  0  0  0
  184.7220  179.4260  144.1830 C   0  0  0  0  0  2  0  0  0  0  0  0
  183.3180  179.1350  143.7450 C   0  0  0  0  0  3  0  0  0  0  0  0
  182.5170  178.6360  144.5160 O   0  0  0  0  0  0  0  0  0  0  0  0
  191.8950  177.0230  145.3330 O   0  0  0  0  0  0  0  0  0  0  0  0
  192.1090  175.7280  144.8390 C   0  0  0  0  0  1  0  0  0  0  0  0
  2  5  1  0  0  0  0
  3  5  1  0  0  0  0
  4 20  1  6  0  0  0
  4  7  1  0  0  0  0
  4  8  1  0  0  0  0
  5 48  1  1  0  0  0
  6  9  1  0  0  0  0
  7 13  1  0  0  0  0
  9  1  2  0  0  0  0
 10  6  1  0  0  0  0
 10 11  1  0  0  0  0
 11  3  1  1  0  0  0
 12  8  1  6  0  0  0
 12 11  1  0  0  0  0
 12  2  1  0  0  0  0
 13 10  2  0  0  0  0
 14 15  2  0  0  0  0
 14  1  1  0  0  0  0
 16 17  1  0  0  0  0
 17 15  1  0  0  0  0
 18 19  1  0  0  0  0
 18 14  1  0  0  0  0
 21 20  1  1  0  0  0
 21 37  1  0  0  0  0
 22 21  1  0  0  0  0
 23 22  1  0  0  0  0
 24 22  2  0  0  0  0
 25 23  1  0  0  0  0
 27 32  1  0  0  0  0
 28 34  1  6  0  0  0
 28 33  1  0  0  0  0
 29 30  1  0  0  0  0
 29 28  1  0  0  0  0
 30 25  1  6  0  0  0
 30 31  1  0  0  0  0
 31 27  2  0  0  0  0
 33 27  1  0  0  0  0
 33 26  1  1  0  0  0
 35 36  1  0  0  0  0
 35 34  1  0  0  0  0
 37 38  1  0  0  0  0
 39 41  2  0  0  0  0
 40 45  1  0  0  0  0
 40 39  1  0  0  0  0
 42 47  1  0  0  0  0
 43 42  2  0  0  0  0
 44 43  1  0  0  0  0
 45 44  1  0  0  0  0
 45 46  2  0  0  0  0
 46 41  1  0  0  0  0
 46 42  1  0  0  0  0
 47 38  1  0  0  0  0
 49 50  1  6  0  0  0
 49 51  1  0  0  0  0
 49 66  1  0  0  0  0
 51 54  1  1  0  0  0
 52 51  1  0  0  0  0
 53 48  1  6  0  0  0
 53 52  1  0  0  0  0
 53 49  1  0  0  0  0
 54 55  1  6  0  0  0
 54 56  1  0  0  0  0
 57 56  1  0  0  0  0
 58 62  1  6  0  0  0
 58 57  1  0  0  0  0
 58 61  1  0  0  0  0
 61 59  2  0  0  0  0
 61 60  2  0  0  0  0
 63 62  1  0  0  0  0
 64 63  1  0  0  0  0
 64 65  2  0  0  0  0
 67 66  1  0  0  0  0
M  END
>  <MODEL>
1

>  <REMARK>
 VINA RESULT:      -6.7      0.000      0.000
  Name = 
  24 active torsions:
  status: ('A' for Active; 'I' for Inactive)
    1  A    between atoms: C_1  and  O_51
    2  A    between atoms: N_4  and  CA_29
    3  A    between atoms: C_7  and  C_32
    4  A    between atoms: C_7  and  N_54
    5  A    between atoms: C_10  and  C_25
    6  A    between atoms: C_10  and  C_38
    7  A    between atoms: C_14  and  O_18
    8  A    between atoms: C_15  and  C_34
    9  A    between atoms: C_16  and  O_18
   10  A    between atoms: C_19  and  C_30
   11  A    between atoms: C_19  and  C_65
   12  A    between atoms: C_21  and  C_48
   13  A    between atoms: C_22  and  N_37
   14  A    between atoms: C_22  and  C_48
   15  A    between atoms: C_22  and  C_52
   16  A    between atoms: C_25  and  O_60
   17  A    between atoms: C_26  and  C_45
   18  A    between atoms: CA_29  and  C_40
   19  A    between atoms: N_37  and  N_39
   20  A    between atoms: N_39  and  N_63
   21  A    between atoms: C_44  and  C_45
   22  A    between atoms: C_44  and  C_50
   23  A    between atoms: C_50  and  O_60
   24  A    between atoms: C_50  and  N_66
                            x       y       z     vdW  Elec       q    Type
                         _______ _______ _______ _____ _____    ______ ____

>  <TORSDO>
F 24

$$$$
=
 OpenBabel11042412143D

 67 72  0  0  1  0  0  0  0  0999 V2000
  184.6760  179.5040  140.0490 N   0  0  0  0  0  0  0  0  0  0  0  0
  190.4800  176.4420  139.9690 O   0  0  0  0  0  0  0  0  0  0  0  0
  188.2690  176.9800  140.5340 C   0  0  0  0  0  2  0  0  0  0  0  0
  190.1060  177.5900  136.5760 C   0  0  1  0  0  3  0  0  0  0  0  0
  189.5910  176.5030  141.0660 C   0  0  2  0  0  3  0  0  0  0  0  0
  186.3450  178.3620  138.7850 N   0  0  0  0  0  2  0  0  0  0  0  0
  189.4540  178.9450  136.8530 C   0  0  0  0  0  2  0  0  0  0  0  0
  189.9460  176.6400  137.7710 C   0  0  0  0  0  2  0  0  0  0  0  0
  185.9330  179.2740  139.8030 C   0  0  0  0  0  3  0  0  0  0  0  0
  187.7220  178.2610  138.4120 C   0  0  0  0  0  0  0  0  0  0  0  0
  188.7560  177.9130  139.4850 C   0  0  2  0  0  3  0  0  0  0  0  0
  190.0520  177.3590  139.0380 N   0  0  1  0  0  0  0  0  0  0  0  0
  188.0720  178.7820  137.2740 N   0  0  0  0  0  0  0  0  0  0  0  0
  183.6010  178.8270  139.3970 C   0  0  0  0  0  0  0  0  0  0  0  0
  182.5780  179.5410  138.9150 C   0  0  0  0  0  3  0  0  0  0  0  0
  180.2430  178.7610  139.1400 C   0  0  0  0  0  1  0  0  0  0  0  0
  181.4200  178.9330  138.1940 C   0  0  0  0  0  2  0  0  0  0  0  0
  183.6800  177.3390  139.2160 C   0  0  0  0  0  2  0  0  0  0  0  0
  182.9300  176.6940  140.2050 O   0  0  0  0  0  1  0  0  0  0  0  0
  189.5390  176.8940  135.3280 C   0  0  0  0  0  2  0  0  0  0  0  0
  188.9870  175.4860  135.5900 C   0  0  1  0  0  3  0  0  0  0  0  0
  187.5830  175.3330  135.0920 C   0  0  0  0  0  0  0  0  0  0  0  0
  186.9030  174.0760  135.2120 N   0  0  0  0  0  2  0  0  0  0  0  0
  186.9940  176.3300  134.5950 O   0  0  0  0  0  0  0  0  0  0  0  0
  185.6050  173.8120  134.5950 C   0  0  0  0  0  2  0  0  0  0  0  0
  180.9790  175.4160  137.2320 O   0  0  0  0  0  1  0  0  0  0  0  0
  182.8930  176.0230  135.9490 C   0  0  0  0  0  0  0  0  0  0  0  0
  182.0800  173.5970  136.1030 C   0  0  1  0  0  3  0  0  0  0  0  0
  183.2220  173.3070  135.1330 C   0  0  0  0  0  2  0  0  0  0  0  0
  184.4490  174.1100  135.5490 C   0  0  2  0  0  3  0  0  0  0  0  0
  184.1170  175.5810  135.6200 C   0  0  0  0  0  3  0  0  0  0  0  0
  182.6770  177.3620  136.0020 F   0  0  0  0  0  0  0  0  0  0  0  0
  181.7090  175.0920  136.0870 C   0  0  1  0  0  3  0  0  0  0  0  0
  180.9580  172.8370  135.7420 O   0  0  0  0  0  0  0  0  0  0  0  0
  180.3180  172.5290  136.9480 C   0  0  0  0  0  2  0  0  0  0  0  0
  181.0630  171.5870  137.6440 O   0  0  0  0  0  1  0  0  0  0  0  0
  189.8670  174.4530  135.0450 N   0  0  0  0  0  2  0  0  0  0  0  0
  190.1770  173.5320  136.0630 N   0  0  0  0  0  2  0  0  0  0  0  0
  195.7720  173.5190  138.3640 C   0  0  0  0  0  3  0  0  0  0  0  0
  195.7630  172.3630  137.5210 O   0  0  0  0  0  0  0  0  0  0  0  0
  194.4200  174.2210  138.1090 C   0  0  0  0  0  3  0  0  0  0  0  0
  192.5810  173.1210  136.4320 C   0  0  0  0  0  0  0  0  0  0  0  0
  192.5800  171.9740  135.8320 N   0  0  0  0  0  0  0  0  0  0  0  0
  193.9240  171.3850  135.9290 C   0  0  0  0  0  2  0  0  0  0  0  0
  194.6250  172.3970  136.7580 C   0  0  0  0  0  0  0  0  0  0  0  0
  193.8900  173.4250  136.9790 C   0  0  0  0  0  0  0  0  0  0  0  0
  191.4090  173.9180  136.6130 N   0  0  0  0  0  2  0  0  0  0  0  0
  190.1520  177.4910  142.0900 C   0  0  0  0  0  2  0  0  0  0  0  0
  190.5120  177.9890  144.5860 C   0  0  1  0  0  0  0  0  0  0  0  0
  190.9700  179.3570  144.0430 C   0  0  0  0  0  1  0  0  0  0  0  0
  189.0250  177.9850  144.9780 C   0  0  1  0  0  3  0  0  0  0  0  0
  188.7790  176.8210  144.0260 C   0  0  0  0  0  2  0  0  0  0  0  0
  190.2070  176.9230  143.5090 C   0  0  1  0  0  3  0  0  0  0  0  0
  188.6940  177.7320  146.4590 C   0  0  2  0  0  3  0  0  0  0  0  0
  189.0320  176.4400  146.8660 O   0  0  0  0  0  1  0  0  0  0  0  0
  187.2140  177.9930  146.7020 C   0  0  0  0  0  2  0  0  0  0  0  0
  186.7250  178.8420  145.7010 O   0  0  0  0  0  0  0  0  0  0  0  0
  185.5360  178.2620  145.2190 C   0  0  1  0  0  3  0  0  0  0  0  0
  184.7020  178.3060  147.5200 O   0  0  0  0  0  0  0  0  0  0  0  0
  183.4980  179.2130  145.8350 O   0  0  0  0  0  0  0  0  0  0  0  0
  184.4660  178.5090  146.1760 N   0  0  0  0  0  0  0  0  0  0  0  0
  185.1600  178.8650  143.8520 C   0  0  0  0  0  2  0  0  0  0  0  0
  183.9750  178.1540  143.2110 C   0  0  0  0  0  2  0  0  0  0  0  0
  182.9110  179.1120  142.7630 C   0  0  0  0  0  3  0  0  0  0  0  0
  181.7310  178.8200  142.8600 O   0  0  0  0  0  0  0  0  0  0  0  0
  191.3850  177.4250  145.5570 O   0  0  0  0  0  0  0  0  0  0  0  0
  191.8390  176.1760  145.1060 C   0  0  0  0  0  1  0  0  0  0  0  0
  2  5  1  0  0  0  0
  3  5  1  0  0  0  0
  4 20  1  6  0  0  0
  4  7  1  0  0  0  0
  4  8  1  0  0  0  0
  5 48  1  1  0  0  0
  6  9  1  0  0  0  0
  7 13  1  0  0  0  0
  9  1  2  0  0  0  0
 10  6  1  0  0  0  0
 10 11  1  0  0  0  0
 11  3  1  1  0  0  0
 12  8  1  6  0  0  0
 12 11  1  0  0  0  0
 12  2  1  0  0  0  0
 13 10  2  0  0  0  0
 14  1  1  0  0  0  0
 15 14  2  0  0  0  0
 17 15  1  0  0  0  0
 17 16  1  0  0  0  0
 18 14  1  0  0  0  0
 18 19  1  0  0  0  0
 21 20  1  6  0  0  0
 22 23  1  0  0  0  0
 22 21  1  0  0  0  0
 24 22  2  0  0  0  0
 25 23  1  0  0  0  0
 27 32  1  0  0  0  0
 27 33  1  0  0  0  0
 28 34  1  6  0  0  0
 29 30  1  0  0  0  0
 29 28  1  0  0  0  0
 30 25  1  6  0  0  0
 30 31  1  0  0  0  0
 31 27  2  0  0  0  0
 33 28  1  0  0  0  0
 33 26  1  1  0  0  0
 34 35  1  0  0  0  0
 35 36  1  0  0  0  0
 37 21  1  0  0  0  0
 37 38  1  0  0  0  0
 38 47  1  0  0  0  0
 40 39  1  0  0  0  0
 41 39  2  0  0  0  0
 42 47  1  0  0  0  0
 42 46  1  0  0  0  0
 43 44  1  0  0  0  0
 43 42  2  0  0  0  0
 44 45  1  0  0  0  0
 45 46  2  0  0  0  0
 45 40  1  0  0  0  0
 46 41  1  0  0  0  0
 49 50  1  6  0  0  0
 49 51  1  0  0  0  0
 49 66  1  0  0  0  0
 51 54  1  1  0  0  0
 52 51  1  0  0  0  0
 53 48  1  6  0  0  0
 53 52  1  0  0  0  0
 53 49  1  0  0  0  0
 54 56  1  0  0  0  0
 54 55  1  6  0  0  0
 57 56  1  0  0  0  0
 58 62  1  6  0  0  0
 58 57  1  0  0  0  0
 58 61  1  0  0  0  0
 60 61  2  0  0  0  0
 61 59  2  0  0  0  0
 63 62  1  0  0  0  0
 64 65  2  0  0  0  0
 64 63  1  0  0  0  0
 67 66  1  0  0  0  0
M  END
>  <MODEL>
2

>  <REMARK>
 VINA RESULT:      -6.6      2.421      6.969
  Name = 
  24 active torsions:
  status: ('A' for Active; 'I' for Inactive)
    1  A    between atoms: C_1  and  O_51
    2  A    between atoms: N_4  and  CA_29
    3  A    between atoms: C_7  and  C_32
    4  A    between atoms: C_7  and  N_54
    5  A    between atoms: C_10  and  C_25
    6  A    between atoms: C_10  and  C_38
    7  A    between atoms: C_14  and  O_18
    8  A    between atoms: C_15  and  C_34
    9  A    between atoms: C_16  and  O_18
   10  A    between atoms: C_19  and  C_30
   11  A    between atoms: C_19  and  C_65
   12  A    between atoms: C_21  and  C_48
   13  A    between atoms: C_22  and  N_37
   14  A    between atoms: C_22  and  C_48
   15  A    between atoms: C_22  and  C_52
   16  A    between atoms: C_25  and  O_60
   17  A    between atoms: C_26  and  C_45
   18  A    between atoms: CA_29  and  C_40
   19  A    between atoms: N_37  and  N_39
   20  A    between atoms: N_39  and  N_63
   21  A    between atoms: C_44  and  C_45
   22  A    between atoms: C_44  and  C_50
   23  A    between atoms: C_50  and  O_60
   24  A    between atoms: C_50  and  N_66
                            x       y       z     vdW  Elec       q    Type
                         _______ _______ _______ _____ _____    ______ ____

>  <TORSDO>
F 24

$$$$
=
 OpenBabel11042412143D

 67 72  0  0  1  0  0  0  0  0999 V2000
  191.8740  177.4270  142.6900 N   0  0  0  0  0  0  0  0  0  0  0  0
  188.8820  176.2570  136.9680 O   0  0  0  0  0  0  0  0  0  0  0  0
  190.3080  176.0060  138.8110 C   0  0  0  0  0  2  0  0  0  0  0  0
  186.3370  177.9120  138.9050 C   0  0  1  0  0  3  0  0  0  0  0  0
  190.1830  175.8330  137.3240 C   0  0  2  0  0  3  0  0  0  0  0  0
  189.8310  177.0980  141.5040 N   0  0  0  0  0  2  0  0  0  0  0  0
  187.2150  178.9350  139.6280 C   0  0  0  0  0  2  0  0  0  0  0  0
  187.1710  176.7340  138.3820 C   0  0  0  0  0  2  0  0  0  0  0  0
  191.1530  177.6250  141.6260 C   0  0  0  0  0  3  0  0  0  0  0  0
  188.9950  177.4780  140.4080 C   0  0  0  0  0  0  0  0  0  0  0  0
  189.4880  177.2330  138.9800 C   0  0  2  0  0  3  0  0  0  0  0  0
  188.4770  177.1800  137.9030 N   0  0  1  0  0  0  0  0  0  0  0  0
  188.0180  178.2970  140.6590 N   0  0  0  0  0  0  0  0  0  0  0  0
  191.4620  176.6150  143.7910 C   0  0  0  0  0  0  0  0  0  0  0  0
  191.1660  177.2000  144.9570 C   0  0  0  0  0  3  0  0  0  0  0  0
  190.2450  177.4070  147.2420 C   0  0  0  0  0  1  0  0  0  0  0  0
  190.7020  176.4450  146.1590 C   0  0  0  0  0  2  0  0  0  0  0  0
  191.3120  175.1350  143.5890 C   0  0  0  0  0  2  0  0  0  0  0  0
  192.3730  174.4570  144.1970 O   0  0  0  0  0  1  0  0  0  0  0  0
  185.2150  177.3510  139.7920 C   0  0  0  0  0  2  0  0  0  0  0  0
  183.8380  177.9790  139.5370 C   0  0  1  0  0  3  0  0  0  0  0  0
  183.1900  178.4420  140.8050 C   0  0  0  0  0  0  0  0  0  0  0  0
  183.9430  179.1770  141.7790 N   0  0  0  0  0  2  0  0  0  0  0  0
  181.9650  178.2090  140.9910 O   0  0  0  0  0  0  0  0  0  0  0  0
  183.4220  179.5060  143.1040 C   0  0  0  0  0  2  0  0  0  0  0  0
  187.0150  178.2320  147.1530 O   0  0  0  0  0  1  0  0  0  0  0  0
  184.7520  178.3450  146.4150 C   0  0  0  0  0  0  0  0  0  0  0  0
  186.7190  178.4670  144.7760 C   0  0  1  0  0  3  0  0  0  0  0  0
  185.6330  178.5210  143.7050 C   0  0  0  0  0  2  0  0  0  0  0  0
  184.5070  179.4300  144.1780 C   0  0  2  0  0  3  0  0  0  0  0  0
  183.9740  178.9620  145.5110 C   0  0  0  0  0  3  0  0  0  0  0  0
  184.2000  177.9630  147.5950 F   0  0  0  0  0  0  0  0  0  0  0  0
  186.1640  177.9040  146.0970 C   0  0  1  0  0  3  0  0  0  0  0  0
  187.7730  177.6550  144.3310 O   0  0  0  0  0  0  0  0  0  0  0  0
  187.1580  176.5360  143.7570 C   0  0  0  0  0  2  0  0  0  0  0  0
  188.1280  175.6620  143.2850 O   0  0  0  0  0  1  0  0  0  0  0  0
  183.9120  179.0530  138.5470 N   0  0  0  0  0  2  0  0  0  0  0  0
  182.8930  178.8690  137.5940 N   0  0  0  0  0  2  0  0  0  0  0  0
  182.1860  173.1610  135.7180 C   0  0  0  0  0  3  0  0  0  0  0  0
  183.2030  173.6670  134.8490 O   0  0  0  0  0  0  0  0  0  0  0  0
  181.9370  174.2820  136.7510 C   0  0  0  0  0  3  0  0  0  0  0  0
  183.2530  176.6570  136.5660 C   0  0  0  0  0  0  0  0  0  0  0  0
  184.0420  177.1030  135.6410 N   0  0  0  0  0  0  0  0  0  0  0  0
  184.4160  175.9890  134.7560 C   0  0  0  0  0  2  0  0  0  0  0  0
  183.6200  174.8790  135.3360 C   0  0  0  0  0  0  0  0  0  0  0  0
  183.0200  175.2320  136.4130 C   0  0  0  0  0  0  0  0  0  0  0  0
  182.6200  177.4930  137.5350 N   0  0  0  0  0  2  0  0  0  0  0  0
  191.1970  176.7120  136.5890 C   0  0  0  0  0  2  0  0  0  0  0  0
  193.3410  175.5680  135.7520 C   0  0  1  0  0  0  0  0  0  0  0  0
  193.9270  176.1650  137.0470 C   0  0  0  0  0  1  0  0  0  0  0  0
  192.8510  174.1230  135.9450 C   0  0  1  0  0  3  0  0  0  0  0  0
  191.4630  174.5330  135.4670 C   0  0  0  0  0  2  0  0  0  0  0  0
  191.8900  175.9930  135.4310 C   0  0  1  0  0  3  0  0  0  0  0  0
  193.5570  173.0320  135.1230 C   0  0  2  0  0  3  0  0  0  0  0  0
  192.6650  172.0840  134.6180 O   0  0  0  0  0  1  0  0  0  0  0  0
  194.6180  172.3550  135.9800 C   0  0  0  0  0  2  0  0  0  0  0  0
  194.2990  172.5300  137.3330 O   0  0  0  0  0  0  0  0  0  0  0  0
  195.4510  172.1970  138.0700 C   0  0  1  0  0  3  0  0  0  0  0  0
  194.6380  169.9040  137.7990 O   0  0  0  0  0  0  0  0  0  0  0  0
  196.8390  170.3830  137.6000 O   0  0  0  0  0  0  0  0  0  0  0  0
  195.7040  170.7690  137.9370 N   0  0  0  0  0  0  0  0  0  0  0  0
  196.6660  172.9910  137.5550 C   0  0  0  0  0  2  0  0  0  0  0  0
  196.7150  174.4060  138.1150 C   0  0  0  0  0  2  0  0  0  0  0  0
  196.0920  174.5030  139.4760 C   0  0  0  0  0  3  0  0  0  0  0  0
  196.1520  175.5390  140.1160 O   0  0  0  0  0  0  0  0  0  0  0  0
  194.1470  175.7750  134.5980 O   0  0  0  0  0  0  0  0  0  0  0  0
  195.4450  176.1310  134.9940 C   0  0  0  0  0  1  0  0  0  0  0  0
  1 14  1  0  0  0  0
  2  5  1  0  0  0  0
  2 12  1  0  0  0  0
  4  7  1  0  0  0  0
  4 20  1  1  0  0  0
  5 48  1  6  0  0  0
  5  3  1  0  0  0  0
  6  9  1  0  0  0  0
  7 13  1  0  0  0  0
  8  4  1  0  0  0  0
  9  1  2  0  0  0  0
 10 13  2  0  0  0  0
 10  6  1  0  0  0  0
 11  3  1  1  0  0  0
 11 10  1  0  0  0  0
 12  8  1  1  0  0  0
 12 11  1  0  0  0  0
 14 15  2  0  0  0  0
 15 17  1  0  0  0  0
 17 16  1  0  0  0  0
 18 14  1  0  0  0  0
 18 19  1  0  0  0  0
 21 20  1  1  0  0  0
 21 22  1  0  0  0  0
 22 24  2  0  0  0  0
 22 23  1  0  0  0  0
 23 25  1  0  0  0  0
 27 32  1  0  0  0  0
 28 34  1  6  0  0  0
 28 33  1  0  0  0  0
 29 30  1  0  0  0  0
 29 28  1  0  0  0  0
 30 25  1  6  0  0  0
 30 31  1  0  0  0  0
 31 27  2  0  0  0  0
 33 27  1  0  0  0  0
 33 26  1  1  0  0  0
 35 34  1  0  0  0  0
 36 35  1  0  0  0  0
 37 21  1  0  0  0  0
 38 37  1  0  0  0  0
 39 41  2  0  0  0  0
 40 45  1  0  0  0  0
 40 39  1  0  0  0  0
 42 47  1  0  0  0  0
 43 42  2  0  0  0  0
 44 45  1  0  0  0  0
 44 43  1  0  0  0  0
 45 46  2  0  0  0  0
 46 42  1  0  0  0  0
 46 41  1  0  0  0  0
 47 38  1  0  0  0  0
 49 51  1  0  0  0  0
 49 50  1  1  0  0  0
 51 54  1  6  0  0  0
 52 51  1  0  0  0  0
 53 52  1  0  0  0  0
 53 49  1  0  0  0  0
 53 48  1  1  0  0  0
 54 55  1  1  0  0  0
 54 56  1  0  0  0  0
 56 57  1  0  0  0  0
 57 58  1  0  0  0  0
 58 62  1  6  0  0  0
 59 61  2  0  0  0  0
 60 61  2  0  0  0  0
 61 58  1  0  0  0  0
 62 63  1  0  0  0  0
 63 64  1  0  0  0  0
 64 65  2  0  0  0  0
 66 67  1  0  0  0  0
 66 49  1  0  0  0  0
M  END
>  <MODEL>
3

>  <REMARK>
 VINA RESULT:      -6.4      3.006     10.243
  Name = 
  24 active torsions:
  status: ('A' for Active; 'I' for Inactive)
    1  A    between atoms: C_1  and  O_51
    2  A    between atoms: N_4  and  CA_29
    3  A    between atoms: C_7  and  C_32
    4  A    between atoms: C_7  and  N_54
    5  A    between atoms: C_10  and  C_25
    6  A    between atoms: C_10  and  C_38
    7  A    between atoms: C_14  and  O_18
    8  A    between atoms: C_15  and  C_34
    9  A    between atoms: C_16  and  O_18
   10  A    between atoms: C_19  and  C_30
   11  A    between atoms: C_19  and  C_65
   12  A    between atoms: C_21  and  C_48
   13  A    between atoms: C_22  and  N_37
   14  A    between atoms: C_22  and  C_48
   15  A    between atoms: C_22  and  C_52
   16  A    between atoms: C_25  and  O_60
   17  A    between atoms: C_26  and  C_45
   18  A    between atoms: CA_29  and  C_40
   19  A    between atoms: N_37  and  N_39
   20  A    between atoms: N_39  and  N_63
   21  A    between atoms: C_44  and  C_45
   22  A    between atoms: C_44  and  C_50
   23  A    between atoms: C_50  and  O_60
   24  A    between atoms: C_50  and  N_66
                            x       y       z     vdW  Elec       q    Type
                         _______ _______ _______ _____ _____    ______ ____

>  <TORSDO>
F 24

$$$$
=
 OpenBabel11042412143D

 67 72  0  0  1  0  0  0  0  0999 V2000
  192.0560  177.3360  143.0970 N   0  0  0  0  0  0  0  0  0  0  0  0
  188.7750  176.5550  137.4670 O   0  0  0  0  0  0  0  0  0  0  0  0
  190.2600  176.1560  139.2370 C   0  0  0  0  0  2  0  0  0  0  0  0
  186.4040  178.2610  139.5730 C   0  0  1  0  0  3  0  0  0  0  0  0
  190.0650  176.0500  137.7510 C   0  0  2  0  0  3  0  0  0  0  0  0
  189.9520  177.1620  141.9870 N   0  0  0  0  0  2  0  0  0  0  0  0
  187.3640  179.2070  140.2960 C   0  0  0  0  0  2  0  0  0  0  0  0
  187.1510  177.0640  138.9700 C   0  0  0  0  0  2  0  0  0  0  0  0
  191.3040  177.6140  142.0720 C   0  0  0  0  0  3  0  0  0  0  0  0
  189.0930  177.6290  140.9430 C   0  0  0  0  0  0  0  0  0  0  0  0
  189.5140  177.4160  139.4870 C   0  0  2  0  0  3  0  0  0  0  0  0
  188.4580  177.4600  138.4530 N   0  0  1  0  0  0  0  0  0  0  0  0
  188.1730  178.4870  141.2660 N   0  0  0  0  0  0  0  0  0  0  0  0
  191.6460  176.5030  144.1820 C   0  0  0  0  0  0  0  0  0  0  0  0
  191.4590  177.0500  145.3880 C   0  0  0  0  0  3  0  0  0  0  0  0
  192.1960  175.8910  147.4440 C   0  0  0  0  0  1  0  0  0  0  0  0
  191.0060  176.2730  146.5800 C   0  0  0  0  0  2  0  0  0  0  0  0
  191.3760  175.0490  143.9230 C   0  0  0  0  0  2  0  0  0  0  0  0
  192.4220  174.2690  144.4280 O   0  0  0  0  0  1  0  0  0  0  0  0
  185.2900  177.7240  140.4850 C   0  0  0  0  0  2  0  0  0  0  0  0
  184.0370  178.6090  140.5340 C   0  0  1  0  0  3  0  0  0  0  0  0
  183.6970  179.0210  141.9330 C   0  0  0  0  0  0  0  0  0  0  0  0
  184.7360  179.2730  142.8890 N   0  0  0  0  0  2  0  0  0  0  0  0
  182.4880  179.1770  142.2520 O   0  0  0  0  0  0  0  0  0  0  0  0
  184.4720  179.5070  144.3080 C   0  0  0  0  0  2  0  0  0  0  0  0
  187.9780  176.2530  147.1430 O   0  0  0  0  0  1  0  0  0  0  0  0
  187.2690  177.1150  145.0380 C   0  0  0  0  0  0  0  0  0  0  0  0
  186.5550  178.1910  147.2530 C   0  0  1  0  0  3  0  0  0  0  0  0
  185.8570  179.2140  146.3620 C   0  0  0  0  0  2  0  0  0  0  0  0
  185.1910  178.4930  145.1970 C   0  0  2  0  0  3  0  0  0  0  0  0
  186.2030  177.6690  144.4380 C   0  0  0  0  0  3  0  0  0  0  0  0
  188.1280  176.3790  144.2880 F   0  0  0  0  0  0  0  0  0  0  0  0
  187.6410  177.4280  146.4710 C   0  0  1  0  0  3  0  0  0  0  0  0
  187.1440  178.8480  148.3430 O   0  0  0  0  0  0  0  0  0  0  0  0
  188.4990  178.9660  148.0150 C   0  0  0  0  0  2  0  0  0  0  0  0
  189.2650  178.2670  148.9390 O   0  0  0  0  0  1  0  0  0  0  0  0
  184.1600  179.7660  139.6480 N   0  0  0  0  0  2  0  0  0  0  0  0
  183.3260  179.5780  138.5300 N   0  0  0  0  0  2  0  0  0  0  0  0
  179.6360  174.7910  138.2630 C   0  0  0  0  0  3  0  0  0  0  0  0
  180.5860  174.5300  137.2250 O   0  0  0  0  0  0  0  0  0  0  0  0
  180.1540  176.0560  138.9810 C   0  0  0  0  0  3  0  0  0  0  0  0
  182.3820  177.3410  138.0940 C   0  0  0  0  0  0  0  0  0  0  0  0
  183.0970  177.1360  137.0340 N   0  0  0  0  0  0  0  0  0  0  0  0
  182.7170  175.8420  136.4470 C   0  0  0  0  0  2  0  0  0  0  0  0
  181.6140  175.4270  137.3490 C   0  0  0  0  0  0  0  0  0  0  0  0
  181.4730  176.2360  138.3340 C   0  0  0  0  0  0  0  0  0  0  0  0
  182.4230  178.5510  138.8520 N   0  0  0  0  0  2  0  0  0  0  0  0
  191.0940  176.9030  137.0060 C   0  0  0  0  0  2  0  0  0  0  0  0
  193.1040  175.8090  135.8370 C   0  0  1  0  0  0  0  0  0  0  0  0
  193.8610  176.3550  137.0640 C   0  0  0  0  0  1  0  0  0  0  0  0
  192.6460  174.3540  136.0340 C   0  0  1  0  0  3  0  0  0  0  0  0
  191.2050  174.7750  135.7670 C   0  0  0  0  0  2  0  0  0  0  0  0
  191.6230  176.2380  135.7350 C   0  0  1  0  0  3  0  0  0  0  0  0
  193.2330  173.3030  135.0770 C   0  0  2  0  0  3  0  0  0  0  0  0
  192.4050  172.1870  134.9380 O   0  0  0  0  0  1  0  0  0  0  0  0
  194.6110  172.8810  135.5690 C   0  0  0  0  0  2  0  0  0  0  0  0
  194.9580  173.6510  136.6870 O   0  0  0  0  0  0  0  0  0  0  0  0
  195.1930  172.7510  137.7440 C   0  0  1  0  0  3  0  0  0  0  0  0
  196.3080  170.6320  137.2390 O   0  0  0  0  0  0  0  0  0  0  0  0
  197.4220  172.5920  137.0780 O   0  0  0  0  0  0  0  0  0  0  0  0
  196.4020  171.9900  137.4600 N   0  0  0  0  0  0  0  0  0  0  0  0
  195.3590  173.5140  139.0720 C   0  0  0  0  0  2  0  0  0  0  0  0
  196.2820  174.7180  138.9380 C   0  0  0  0  0  2  0  0  0  0  0  0
  197.1470  174.9100  140.1480 C   0  0  0  0  0  3  0  0  0  0  0  0
  197.2320  176.0010  140.6840 O   0  0  0  0  0  0  0  0  0  0  0  0
  193.7440  176.0700  134.5940 O   0  0  0  0  0  0  0  0  0  0  0  0
  194.9820  176.6870  134.8270 C   0  0  0  0  0  1  0  0  0  0  0  0
  1 14  1  0  0  0  0
  2  5  1  0  0  0  0
  2 12  1  0  0  0  0
  4  7  1  0  0  0  0
  4 20  1  1  0  0  0
  5 48  1  6  0  0  0
  5  3  1  0  0  0  0
  6  9  1  0  0  0  0
  7 13  1  0  0  0  0
  8  4  1  0  0  0  0
  9  1  2  0  0  0  0
 10 13  2  0  0  0  0
 10  6  1  0  0  0  0
 11  3  1  1  0  0  0
 11 10  1  0  0  0  0
 12  8  1  1  0  0  0
 12 11  1  0  0  0  0
 14 15  2  0  0  0  0
 15 17  1  0  0  0  0
 17 16  1  0  0  0  0
 18 14  1  0  0  0  0
 18 19  1  0  0  0  0
 21 20  1  1  0  0  0
 21 22  1  0  0  0  0
 22 24  2  0  0  0  0
 22 23  1  0  0  0  0
 23 25  1  0  0  0  0
 27 33  1  0  0  0  0
 28 34  1  1  0  0  0
 29 28  1  0  0  0  0
 30 25  1  6  0  0  0
 30 29  1  0  0  0  0
 31 27  2  0  0  0  0
 31 30  1  0  0  0  0
 32 27  1  0  0  0  0
 33 26  1  1  0  0  0
 33 28  1  0  0  0  0
 35 34  1  0  0  0  0
 35 36  1  0  0  0  0
 37 21  1  0  0  0  0
 38 47  1  0  0  0  0
 38 37  1  0  0  0  0
 39 41  2  0  0  0  0
 40 45  1  0  0  0  0
 40 39  1  0  0  0  0
 42 46  1  0  0  0  0
 42 47  1  0  0  0  0
 43 42  2  0  0  0  0
 44 43  1  0  0  0  0
 44 45  1  0  0  0  0
 45 46  2  0  0  0  0
 46 41  1  0  0  0  0
 49 51  1  0  0  0  0
 49 50  1  1  0  0  0
 51 54  1  6  0  0  0
 52 51  1  0  0  0  0
 53 52  1  0  0  0  0
 53 49  1  0  0  0  0
 53 48  1  1  0  0  0
 54 55  1  1  0  0  0
 54 56  1  0  0  0  0
 56 57  1  0  0  0  0
 57 58  1  0  0  0  0
 58 62  1  1  0  0  0
 59 61  2  0  0  0  0
 60 61  2  0  0  0  0
 61 58  1  0  0  0  0
 63 62  1  0  0  0  0
 63 64  1  0  0  0  0
 64 65  2  0  0  0  0
 66 67  1  0  0  0  0
 66 49  1  0  0  0  0
M  END
>  <MODEL>
4

>  <REMARK>
 VINA RESULT:      -5.9      2.902     10.495
  Name = 
  24 active torsions:
  status: ('A' for Active; 'I' for Inactive)
    1  A    between atoms: C_1  and  O_51
    2  A    between atoms: N_4  and  CA_29
    3  A    between atoms: C_7  and  C_32
    4  A    between atoms: C_7  and  N_54
    5  A    between atoms: C_10  and  C_25
    6  A    between atoms: C_10  and  C_38
    7  A    between atoms: C_14  and  O_18
    8  A    between atoms: C_15  and  C_34
    9  A    between atoms: C_16  and  O_18
   10  A    between atoms: C_19  and  C_30
   11  A    between atoms: C_19  and  C_65
   12  A    between atoms: C_21  and  C_48
   13  A    between atoms: C_22  and  N_37
   14  A    between atoms: C_22  and  C_48
   15  A    between atoms: C_22  and  C_52
   16  A    between atoms: C_25  and  O_60
   17  A    between atoms: C_26  and  C_45
   18  A    between atoms: CA_29  and  C_40
   19  A    between atoms: N_37  and  N_39
   20  A    between atoms: N_39  and  N_63
   21  A    between atoms: C_44  and  C_45
   22  A    between atoms: C_44  and  C_50
   23  A    between atoms: C_50  and  O_60
   24  A    between atoms: C_50  and  N_66
                            x       y       z     vdW  Elec       q    Type
                         _______ _______ _______ _____ _____    ______ ____

>  <TORSDO>
F 24

$$$$
=
 OpenBabel11042412143D

 67 72  0  0  1  0  0  0  0  0999 V2000
  189.4720  178.5510  142.8640 N   0  0  0  0  0  0  0  0  0  0  0  0
  189.0660  175.8920  136.8780 O   0  0  0  0  0  0  0  0  0  0  0  0
  189.6210  176.1840  139.1370 C   0  0  0  0  0  2  0  0  0  0  0  0
  185.9470  177.6640  137.2070 C   0  0  1  0  0  3  0  0  0  0  0  0
  190.1110  175.6860  137.8070 C   0  0  2  0  0  3  0  0  0  0  0  0
  188.0880  177.7750  141.0830 N   0  0  0  0  0  2  0  0  0  0  0  0
  186.4530  178.9000  137.9530 C   0  0  0  0  0  2  0  0  0  0  0  0
  186.9260  176.4900  137.3480 C   0  0  0  0  0  2  0  0  0  0  0  0
  189.2440  178.4440  141.5880 C   0  0  0  0  0  3  0  0  0  0  0  0
  187.7670  177.8270  139.6910 C   0  0  0  0  0  0  0  0  0  0  0  0
  188.7980  177.3320  138.6740 C   0  0  2  0  0  3  0  0  0  0  0  0
  188.3120  176.9500  137.3310 N   0  0  1  0  0  0  0  0  0  0  0  0
  186.7700  178.5800  139.3360 N   0  0  0  0  0  0  0  0  0  0  0  0
  188.6510  177.9570  143.8710 C   0  0  0  0  0  0  0  0  0  0  0  0
  187.7330  178.7070  144.4900 C   0  0  0  0  0  3  0  0  0  0  0  0
  185.6390  177.4550  144.8890 C   0  0  0  0  0  1  0  0  0  0  0  0
  186.8090  178.1770  145.5360 C   0  0  0  0  0  2  0  0  0  0  0  0
  188.8010  176.4910  144.1620 C   0  0  0  0  0  2  0  0  0  0  0  0
  190.0650  176.2350  144.7030 O   0  0  0  0  0  1  0  0  0  0  0  0
  184.5630  177.1980  137.6850 C   0  0  0  0  0  2  0  0  0  0  0  0
  183.3990  178.0550  137.1710 C   0  0  1  0  0  3  0  0  0  0  0  0
  182.6350  177.3680  136.0820 C   0  0  0  0  0  0  0  0  0  0  0  0
  182.7590  175.9520  135.8910 N   0  0  0  0  0  2  0  0  0  0  0  0
  181.8570  178.0420  135.3560 O   0  0  0  0  0  0  0  0  0  0  0  0
  182.1800  175.2500  134.7460 C   0  0  0  0  0  2  0  0  0  0  0  0
  179.9970  170.6130  136.9030 O   0  0  0  0  0  1  0  0  0  0  0  0
  181.7880  171.6490  135.7210 C   0  0  0  0  0  0  0  0  0  0  0  0
  180.0730  173.0140  137.0500 C   0  0  1  0  0  3  0  0  0  0  0  0
  180.9220  174.2120  136.6330 C   0  0  0  0  0  2  0  0  0  0  0  0
  181.3440  174.0470  135.1790 C   0  0  2  0  0  3  0  0  0  0  0  0
  182.0680  172.7360  134.9850 C   0  0  0  0  0  3  0  0  0  0  0  0
  182.4770  170.5040  135.4790 F   0  0  0  0  0  0  0  0  0  0  0  0
  180.8690  171.7020  136.9220 C   0  0  1  0  0  3  0  0  0  0  0  0
  179.6570  173.1770  138.3790 O   0  0  0  0  0  0  0  0  0  0  0  0
  179.6620  174.5590  138.6000 C   0  0  0  0  0  2  0  0  0  0  0  0
  179.5080  174.8150  139.9560 O   0  0  0  0  0  1  0  0  0  0  0  0
  182.5190  178.4770  138.2610 N   0  0  0  0  0  2  0  0  0  0  0  0
  181.6390  177.4240  138.5730 N   0  0  0  0  0  2  0  0  0  0  0  0
  179.6010  178.7950  144.1020 C   0  0  0  0  0  3  0  0  0  0  0  0
  181.0180  178.9520  144.2270 O   0  0  0  0  0  0  0  0  0  0  0  0
  179.3530  178.5190  142.6020 C   0  0  0  0  0  3  0  0  0  0  0  0
  181.4370  178.3080  140.8660 C   0  0  0  0  0  0  0  0  0  0  0  0
  182.7120  178.2950  141.0920 N   0  0  0  0  0  0  0  0  0  0  0  0
  182.9560  178.7260  142.4760 C   0  0  0  0  0  2  0  0  0  0  0  0
  181.5680  178.9020  142.9730 C   0  0  0  0  0  0  0  0  0  0  0  0
  180.7030  178.7440  142.0390 C   0  0  0  0  0  0  0  0  0  0  0  0
  180.8460  177.8480  139.6500 N   0  0  0  0  0  2  0  0  0  0  0  0
  191.3330  176.4820  137.3450 C   0  0  0  0  0  2  0  0  0  0  0  0
  193.1320  175.2930  135.9470 C   0  0  1  0  0  0  0  0  0  0  0  0
  192.1350  175.5590  134.8020 C   0  0  0  0  0  1  0  0  0  0  0  0
  194.1970  176.3970  136.0620 C   0  0  1  0  0  3  0  0  0  0  0  0
  193.7880  176.6360  137.5120 C   0  0  0  0  0  2  0  0  0  0  0  0
  192.6260  175.6660  137.3590 C   0  0  1  0  0  3  0  0  0  0  0  0
  195.6600  175.9830  135.8300 C   0  0  2  0  0  3  0  0  0  0  0  0
  196.4980  177.0800  135.6230 O   0  0  0  0  0  1  0  0  0  0  0  0
  195.7360  175.0290  134.6450 C   0  0  0  0  0  2  0  0  0  0  0  0
  196.9330  174.3040  134.7120 O   0  0  0  0  0  0  0  0  0  0  0  0
  196.9780  173.7080  135.9860 C   0  0  1  0  0  3  0  0  0  0  0  0
  195.9050  171.6620  135.1790 O   0  0  0  0  0  0  0  0  0  0  0  0
  198.0240  171.6240  135.9680 O   0  0  0  0  0  0  0  0  0  0  0  0
  196.9620  172.2600  135.8330 N   0  0  0  0  0  0  0  0  0  0  0  0
  198.2540  174.1370  136.7350 C   0  0  0  0  0  2  0  0  0  0  0  0
  197.9680  174.5710  138.1670 C   0  0  0  0  0  2  0  0  0  0  0  0
  196.8370  173.8000  138.7810 C   0  0  0  0  0  3  0  0  0  0  0  0
  195.7600  174.3330  138.9830 O   0  0  0  0  0  0  0  0  0  0  0  0
  193.6440  173.9670  135.9780 O   0  0  0  0  0  0  0  0  0  0  0  0
  192.7190  173.1240  136.6110 C   0  0  0  0  0  1  0  0  0  0  0  0
  1 14  1  0  0  0  0
  2 12  1  0  0  0  0
  2  5  1  0  0  0  0
  4  8  1  0  0  0  0
  4 20  1  1  0  0  0
  4  7  1  0  0  0  0
  5 48  1  6  0  0  0
  5  3  1  0  0  0  0
  6  9  1  0  0  0  0
  7 13  1  0  0  0  0
  9  1  2  0  0  0  0
 10  6  1  0  0  0  0
 11  3  1  1  0  0  0
 11 10  1  0  0  0  0
 12  8  1  1  0  0  0
 12 11  1  0  0  0  0
 13 10  2  0  0  0  0
 14 18  1  0  0  0  0
 14 15  2  0  0  0  0
 15 17  1  0  0  0  0
 16 17  1  0  0  0  0
 18 19  1  0  0  0  0
 21 20  1  1  0  0  0
 21 37  1  0  0  0  0
 22 21  1  0  0  0  0
 23 22  1  0  0  0  0
 24 22  2  0  0  0  0
 25 23  1  0  0  0  0
 27 33  1  0  0  0  0
 28 34  1  1  0  0  0
 29 28  1  0  0  0  0
 30 25  1  1  0  0  0
 30 29  1  0  0  0  0
 31 30  1  0  0  0  0
 31 27  2  0  0  0  0
 32 27  1  0  0  0  0
 33 26  1  6  0  0  0
 33 28  1  0  0  0  0
 34 35  1  0  0  0  0
 35 36  1  0  0  0  0
 37 38  1  0  0  0  0
 38 47  1  0  0  0  0
 39 40  1  0  0  0  0
 41 39  2  0  0  0  0
 42 43  2  0  0  0  0
 42 46  1  0  0  0  0
 43 44  1  0  0  0  0
 44 45  1  0  0  0  0
 45 40  1  0  0  0  0
 46 41  1  0  0  0  0
 46 45  2  0  0  0  0
 47 42  1  0  0  0  0
 49 50  1  6  0  0  0
 49 66  1  0  0  0  0
 49 51  1  0  0  0  0
 49 53  1  0  0  0  0
 51 54  1  1  0  0  0
 51 52  1  0  0  0  0
 53 48  1  6  0  0  0
 53 52  1  0  0  0  0
 54 55  1  6  0  0  0
 56 57  1  0  0  0  0
 56 54  1  0  0  0  0
 57 58  1  0  0  0  0
 58 62  1  6  0  0  0
 59 61  2  0  0  0  0
 61 60  2  0  0  0  0
 61 58  1  0  0  0  0
 62 63  1  0  0  0  0
 63 64  1  0  0  0  0
 64 65  2  0  0  0  0
 66 67  1  0  0  0  0
M  END
>  <MODEL>
5

>  <REMARK>
 VINA RESULT:      -5.3      3.162     11.094
  Name = 
  24 active torsions:
  status: ('A' for Active; 'I' for Inactive)
    1  A    between atoms: C_1  and  O_51
    2  A    between atoms: N_4  and  CA_29
    3  A    between atoms: C_7  and  C_32
    4  A    between atoms: C_7  and  N_54
    5  A    between atoms: C_10  and  C_25
    6  A    between atoms: C_10  and  C_38
    7  A    between atoms: C_14  and  O_18
    8  A    between atoms: C_15  and  C_34
    9  A    between atoms: C_16  and  O_18
   10  A    between atoms: C_19  and  C_30
   11  A    between atoms: C_19  and  C_65
   12  A    between atoms: C_21  and  C_48
   13  A    between atoms: C_22  and  N_37
   14  A    between atoms: C_22  and  C_48
   15  A    between atoms: C_22  and  C_52
   16  A    between atoms: C_25  and  O_60
   17  A    between atoms: C_26  and  C_45
   18  A    between atoms: CA_29  and  C_40
   19  A    between atoms: N_37  and  N_39
   20  A    between atoms: N_39  and  N_63
   21  A    between atoms: C_44  and  C_45
   22  A    between atoms: C_44  and  C_50
   23  A    between atoms: C_50  and  O_60
   24  A    between atoms: C_50  and  N_66
                            x       y       z     vdW  Elec       q    Type
                         _______ _______ _______ _____ _____    ______ ____

>  <TORSDO>
F 24

$$$$
=
 OpenBabel11042412143D

 67 72  0  0  1  0  0  0  0  0999 V2000
  191.1060  177.8820  144.3150 N   0  0  0  0  0  0  0  0  0  0  0  0
  188.5660  176.5770  138.4060 O   0  0  0  0  0  0  0  0  0  0  0  0
  189.7240  176.3050  140.4260 C   0  0  0  0  0  2  0  0  0  0  0  0
  186.1720  178.8470  139.8490 C   0  0  1  0  0  3  0  0  0  0  0  0
  189.7260  175.9850  138.9580 C   0  0  2  0  0  3  0  0  0  0  0  0
  189.1730  177.7650  142.9230 N   0  0  0  0  0  2  0  0  0  0  0  0
  187.1390  179.7850  140.5740 C   0  0  0  0  0  2  0  0  0  0  0  0
  186.8310  177.4940  139.5470 C   0  0  0  0  0  2  0  0  0  0  0  0
  190.5470  178.0740  143.1560 C   0  0  0  0  0  3  0  0  0  0  0  0
  188.5370  178.1500  141.7010 C   0  0  0  0  0  0  0  0  0  0  0  0
  189.1240  177.6630  140.3750 C   0  0  2  0  0  3  0  0  0  0  0  0
  188.2380  177.6560  139.1920 N   0  0  1  0  0  0  0  0  0  0  0  0
  187.7030  179.1450  141.7510 N   0  0  0  0  0  0  0  0  0  0  0  0
  190.4430  177.2830  145.4290 C   0  0  0  0  0  0  0  0  0  0  0  0
  189.3080  177.8280  145.8820 C   0  0  0  0  0  3  0  0  0  0  0  0
  187.9220  178.3860  147.8520 C   0  0  0  0  0  1  0  0  0  0  0  0
  188.5250  177.2650  147.0220 C   0  0  0  0  0  2  0  0  0  0  0  0
  191.0040  176.0220  146.0200 C   0  0  0  0  0  2  0  0  0  0  0  0
  192.2640  175.7550  145.4740 O   0  0  0  0  0  1  0  0  0  0  0  0
  184.8810  178.5880  140.6410 C   0  0  0  0  0  2  0  0  0  0  0  0
  183.6010  178.6610  139.7980 C   0  0  1  0  0  3  0  0  0  0  0  0
  183.3190  177.3680  139.0960 C   0  0  0  0  0  0  0  0  0  0  0  0
  183.5200  177.2510  137.6810 N   0  0  0  0  0  2  0  0  0  0  0  0
  182.9340  176.3740  139.7680 O   0  0  0  0  0  0  0  0  0  0  0  0
  183.1020  176.0810  136.9120 C   0  0  0  0  0  2  0  0  0  0  0  0
  187.8230  174.2490  134.6120 O   0  0  0  0  0  1  0  0  0  0  0  0
  186.6800  175.9800  135.7850 C   0  0  0  0  0  0  0  0  0  0  0  0
  185.7370  173.6010  135.6250 C   0  0  1  0  0  3  0  0  0  0  0  0
  184.6200  174.1420  136.5130 C   0  0  0  0  0  2  0  0  0  0  0  0
  184.2340  175.5370  136.0400 C   0  0  2  0  0  3  0  0  0  0  0  0
  185.4430  176.4420  136.0260 C   0  0  0  0  0  3  0  0  0  0  0  0
  187.7140  176.8590  135.7790 F   0  0  0  0  0  0  0  0  0  0  0  0
  186.9860  174.5000  135.7000 C   0  0  1  0  0  3  0  0  0  0  0  0
  186.0750  172.3040  136.0370 O   0  0  0  0  0  0  0  0  0  0  0  0
  186.0730  171.5340  134.8690 C   0  0  0  0  0  2  0  0  0  0  0  0
  185.4340  170.3240  135.1090 O   0  0  0  0  0  1  0  0  0  0  0  0
  182.4560  179.1010  140.5940 N   0  0  0  0  0  2  0  0  0  0  0  0
  181.3060  179.1020  139.7810 N   0  0  0  0  0  2  0  0  0  0  0  0
  181.1730  183.9680  136.1890 C   0  0  0  0  0  3  0  0  0  0  0  0
  180.9600  182.8840  135.2790 O   0  0  0  0  0  0  0  0  0  0  0  0
  181.1630  183.3280  137.5950 C   0  0  0  0  0  3  0  0  0  0  0  0
  180.9040  180.6360  137.8930 C   0  0  0  0  0  0  0  0  0  0  0  0
  180.8850  179.6960  137.0020 N   0  0  0  0  0  0  0  0  0  0  0  0
  180.7200  180.3040  135.6730 C   0  0  0  0  0  2  0  0  0  0  0  0
  180.7290  181.7490  136.0110 C   0  0  0  0  0  0  0  0  0  0  0  0
  180.7510  181.9420  137.2790 C   0  0  0  0  0  0  0  0  0  0  0  0
  181.1510  180.4040  139.2800 N   0  0  0  0  0  2  0  0  0  0  0  0
  190.9520  176.5910  138.2720 C   0  0  0  0  0  2  0  0  0  0  0  0
  192.7660  175.9090  136.5840 C   0  0  1  0  0  0  0  0  0  0  0  0
  193.6700  176.7300  137.5250 C   0  0  0  0  0  1  0  0  0  0  0  0
  192.7700  174.4110  136.9320 C   0  0  1  0  0  3  0  0  0  0  0  0
  191.2550  174.4470  137.0930 C   0  0  0  0  0  2  0  0  0  0  0  0
  191.2570  175.9590  136.9140 C   0  0  1  0  0  3  0  0  0  0  0  0
  193.3160  173.4480  135.8640 C   0  0  2  0  0  3  0  0  0  0  0  0
  193.2630  172.1140  136.2720 O   0  0  0  0  0  1  0  0  0  0  0  0
  194.7450  173.8370  135.5120 C   0  0  0  0  0  2  0  0  0  0  0  0
  195.6340  173.0060  136.2050 O   0  0  0  0  0  0  0  0  0  0  0  0
  196.8790  173.6630  136.2200 C   0  0  1  0  0  3  0  0  0  0  0  0
  197.9380  175.3330  137.6620 O   0  0  0  0  0  0  0  0  0  0  0  0
  196.2700  174.0220  138.4420 O   0  0  0  0  0  0  0  0  0  0  0  0
  197.0910  174.2520  137.5350 N   0  0  0  0  0  0  0  0  0  0  0  0
  198.0150  172.6700  135.9070 C   0  0  0  0  0  2  0  0  0  0  0  0
  198.5230  171.9580  137.1540 C   0  0  0  0  0  2  0  0  0  0  0  0
  198.2410  170.4850  137.1240 C   0  0  0  0  0  3  0  0  0  0  0  0
  197.1040  170.0730  136.9740 O   0  0  0  0  0  0  0  0  0  0  0  0
  192.9440  176.2010  135.2030 O   0  0  0  0  0  0  0  0  0  0  0  0
  191.7020  176.5060  134.6270 C   0  0  0  0  0  1  0  0  0  0  0  0
  1 14  1  0  0  0  0
  2  5  1  0  0  0  0
  2 12  1  0  0  0  0
  4  7  1  0  0  0  0
  4 20  1  1  0  0  0
  5 48  1  6  0  0  0
  5  3  1  0  0  0  0
  6  9  1  0  0  0  0
  7 13  1  0  0  0  0
  8  4  1  0  0  0  0
  9  1  2  0  0  0  0
 10 13  2  0  0  0  0
 10  6  1  0  0  0  0
 11  3  1  1  0  0  0
 11 10  1  0  0  0  0
 12  8  1  1  0  0  0
 12 11  1  0  0  0  0
 14 15  2  0  0  0  0
 14 18  1  0  0  0  0
 15 17  1  0  0  0  0
 17 16  1  0  0  0  0
 19 18  1  0  0  0  0
 21 37  1  0  0  0  0
 21 20  1  1  0  0  0
 22 24  2  0  0  0  0
 22 21  1  0  0  0  0
 23 22  1  0  0  0  0
 25 23  1  0  0  0  0
 27 31  2  0  0  0  0
 28 33  1  0  0  0  0
 28 34  1  1  0  0  0
 28 29  1  0  0  0  0
 30 29  1  0  0  0  0
 30 25  1  1  0  0  0
 31 30  1  0  0  0  0
 32 27  1  0  0  0  0
 33 26  1  6  0  0  0
 33 27  1  0  0  0  0
 35 36  1  0  0  0  0
 35 34  1  0  0  0  0
 38 37  1  0  0  0  0
 39 41  2  0  0  0  0
 40 45  1  0  0  0  0
 40 39  1  0  0  0  0
 42 47  1  0  0  0  0
 43 42  2  0  0  0  0
 44 45  1  0  0  0  0
 44 43  1  0  0  0  0
 45 46  2  0  0  0  0
 46 41  1  0  0  0  0
 46 42  1  0  0  0  0
 47 38  1  0  0  0  0
 49 53  1  0  0  0  0
 49 51  1  0  0  0  0
 49 50  1  1  0  0  0
 51 54  1  6  0  0  0
 51 52  1  0  0  0  0
 53 52  1  0  0  0  0
 53 48  1  1  0  0  0
 54 55  1  1  0  0  0
 56 54  1  0  0  0  0
 56 57  1  0  0  0  0
 57 58  1  0  0  0  0
 58 62  1  1  0  0  0
 58 61  1  0  0  0  0
 61 59  2  0  0  0  0
 61 60  2  0  0  0  0
 62 63  1  0  0  0  0
 64 63  1  0  0  0  0
 65 64  2  0  0  0  0
 66 49  1  0  0  0  0
 67 66  1  0  0  0  0
M  END
>  <MODEL>
6

>  <REMARK>
 VINA RESULT:      -4.8      3.081     10.361
  Name = 
  24 active torsions:
  status: ('A' for Active; 'I' for Inactive)
    1  A    between atoms: C_1  and  O_51
    2  A    between atoms: N_4  and  CA_29
    3  A    between atoms: C_7  and  C_32
    4  A    between atoms: C_7  and  N_54
    5  A    between atoms: C_10  and  C_25
    6  A    between atoms: C_10  and  C_38
    7  A    between atoms: C_14  and  O_18
    8  A    between atoms: C_15  and  C_34
    9  A    between atoms: C_16  and  O_18
   10  A    between atoms: C_19  and  C_30
   11  A    between atoms: C_19  and  C_65
   12  A    between atoms: C_21  and  C_48
   13  A    between atoms: C_22  and  N_37
   14  A    between atoms: C_22  and  C_48
   15  A    between atoms: C_22  and  C_52
   16  A    between atoms: C_25  and  O_60
   17  A    between atoms: C_26  and  C_45
   18  A    between atoms: CA_29  and  C_40
   19  A    between atoms: N_37  and  N_39
   20  A    between atoms: N_39  and  N_63
   21  A    between atoms: C_44  and  C_45
   22  A    between atoms: C_44  and  C_50
   23  A    between atoms: C_50  and  O_60
   24  A    between atoms: C_50  and  N_66
                            x       y       z     vdW  Elec       q    Type
                         _______ _______ _______ _____ _____    ______ ____

>  <TORSDO>
F 24

$$$$
=
 OpenBabel11042412143D

 67 72  0  0  1  0  0  0  0  0999 V2000
  189.0970  178.4680  143.4920 N   0  0  0  0  0  0  0  0  0  0  0  0
  189.0800  176.1140  137.3670 O   0  0  0  0  0  0  0  0  0  0  0  0
  189.4760  176.2840  139.6710 C   0  0  0  0  0  2  0  0  0  0  0  0
  185.9760  177.9290  137.5610 C   0  0  1  0  0  3  0  0  0  0  0  0
  190.0530  175.8410  138.3560 C   0  0  2  0  0  3  0  0  0  0  0  0
  187.8340  177.8080  141.5810 N   0  0  0  0  0  2  0  0  0  0  0  0
  186.4460  179.1170  138.4030 C   0  0  0  0  0  2  0  0  0  0  0  0
  186.9230  176.7300  137.7120 C   0  0  0  0  0  2  0  0  0  0  0  0
  188.9610  178.4290  142.2000 C   0  0  0  0  0  3  0  0  0  0  0  0
  187.6150  177.9340  140.1730 C   0  0  0  0  0  0  0  0  0  0  0  0
  188.7080  177.4690  139.2090 C   0  0  2  0  0  3  0  0  0  0  0  0
  188.3140  177.1630  137.8180 N   0  0  1  0  0  0  0  0  0  0  0  0
  186.6580  178.7240  139.7870 N   0  0  0  0  0  0  0  0  0  0  0  0
  188.1970  177.8430  144.4070 C   0  0  0  0  0  0  0  0  0  0  0  0
  186.9400  178.2900  144.4930 C   0  0  0  0  0  3  0  0  0  0  0  0
  185.4270  178.7200  146.4010 C   0  0  0  0  0  1  0  0  0  0  0  0
  185.9150  177.6890  145.3980 C   0  0  0  0  0  2  0  0  0  0  0  0
  188.6710  176.6590  145.2010 C   0  0  0  0  0  2  0  0  0  0  0  0
  189.3240  177.0890  146.3610 O   0  0  0  0  0  1  0  0  0  0  0  0
  184.5540  177.4680  137.9160 C   0  0  0  0  0  2  0  0  0  0  0  0
  183.4430  178.2530  137.2050 C   0  0  1  0  0  3  0  0  0  0  0  0
  182.8160  177.4600  136.1000 C   0  0  0  0  0  0  0  0  0  0  0  0
  183.0710  176.0530  135.9800 N   0  0  0  0  0  2  0  0  0  0  0  0
  182.0360  178.0350  135.2950 O   0  0  0  0  0  0  0  0  0  0  0  0
  182.6340  175.2600  134.8330 C   0  0  0  0  0  2  0  0  0  0  0  0
  185.9440  170.8120  135.2530 O   0  0  0  0  0  1  0  0  0  0  0  0
  185.6800  173.1680  135.4850 C   0  0  0  0  0  0  0  0  0  0  0  0
  183.6670  171.5910  135.2980 C   0  0  1  0  0  3  0  0  0  0  0  0
  182.8410  172.8610  135.4830 C   0  0  0  0  0  2  0  0  0  0  0  0
  183.4650  173.9880  134.6700 C   0  0  2  0  0  3  0  0  0  0  0  0
  184.9100  174.1830  135.0600 C   0  0  0  0  0  3  0  0  0  0  0  0
  186.9730  173.4230  135.8070 F   0  0  0  0  0  0  0  0  0  0  0  0
  185.1140  171.7980  135.7860 C   0  0  1  0  0  3  0  0  0  0  0  0
  183.0790  170.5430  136.0210 O   0  0  0  0  0  0  0  0  0  0  0  0
  182.2720  169.8670  135.0990 C   0  0  0  0  0  2  0  0  0  0  0  0
  180.9360  170.1280  135.3700 O   0  0  0  0  0  1  0  0  0  0  0  0
  182.4400  178.7430  138.1500 N   0  0  0  0  0  2  0  0  0  0  0  0
  181.7860  177.6420  138.7350 N   0  0  0  0  0  2  0  0  0  0  0  0
  179.6900  179.2970  144.1640 C   0  0  0  0  0  3  0  0  0  0  0  0
  181.1090  179.4010  144.3160 O   0  0  0  0  0  0  0  0  0  0  0  0
  179.4620  178.9770  142.6700 C   0  0  0  0  0  3  0  0  0  0  0  0
  181.5730  178.6180  140.9900 C   0  0  0  0  0  0  0  0  0  0  0  0
  182.8410  178.5610  141.2450 N   0  0  0  0  0  0  0  0  0  0  0  0
  183.0720  179.0330  142.6180 C   0  0  0  0  0  2  0  0  0  0  0  0
  181.6840  179.2830  143.0770 C   0  0  0  0  0  0  0  0  0  0  0  0
  180.8320  179.1260  142.1310 C   0  0  0  0  0  0  0  0  0  0  0  0
  180.9880  178.1370  139.7790 N   0  0  0  0  0  2  0  0  0  0  0  0
  191.3180  176.6350  138.0230 C   0  0  0  0  0  2  0  0  0  0  0  0
  192.8440  175.4350  136.3390 C   0  0  1  0  0  0  0  0  0  0  0  0
  191.7240  175.8210  135.3520 C   0  0  0  0  0  1  0  0  0  0  0  0
  193.9790  176.4720  136.3670 C   0  0  1  0  0  3  0  0  0  0  0  0
  193.7780  176.6480  137.8680 C   0  0  0  0  0  2  0  0  0  0  0  0
  192.5490  175.7510  137.8230 C   0  0  1  0  0  3  0  0  0  0  0  0
  195.3720  175.9940  135.9200 C   0  0  2  0  0  3  0  0  0  0  0  0
  196.0730  176.9780  135.2200 O   0  0  0  0  0  1  0  0  0  0  0  0
  195.2300  174.7390  135.0700 C   0  0  0  0  0  2  0  0  0  0  0  0
  196.5000  174.3050  134.6720 O   0  0  0  0  0  0  0  0  0  0  0  0
  196.7740  173.1280  135.3940 C   0  0  1  0  0  3  0  0  0  0  0  0
  197.0070  172.9140  137.8200 O   0  0  0  0  0  0  0  0  0  0  0  0
  198.5790  173.9840  136.5970 O   0  0  0  0  0  0  0  0  0  0  0  0
  197.4420  173.4790  136.6390 N   0  0  0  0  0  0  0  0  0  0  0  0
  195.4680  172.3700  135.7000 C   0  0  0  0  0  2  0  0  0  0  0  0
  195.4650  170.9610  135.1210 C   0  0  0  0  0  2  0  0  0  0  0  0
  195.9460  169.9390  136.1080 C   0  0  0  0  0  3  0  0  0  0  0  0
  195.7510  170.0870  137.3020 O   0  0  0  0  0  0  0  0  0  0  0  0
  193.2740  174.0840  136.2330 O   0  0  0  0  0  0  0  0  0  0  0  0
  192.2160  173.2930  135.7580 C   0  0  0  0  0  1  0  0  0  0  0  0
  1 14  1  0  0  0  0
  2 12  1  0  0  0  0
  2  5  1  0  0  0  0
  4  8  1  0  0  0  0
  4 20  1  1  0  0  0
  4  7  1  0  0  0  0
  5 48  1  6  0  0  0
  5  3  1  0  0  0  0
  6  9  1  0  0  0  0
  7 13  1  0  0  0  0
  9  1  2  0  0  0  0
 10  6  1  0  0  0  0
 11  3  1  1  0  0  0
 11 10  1  0  0  0  0
 12  8  1  1  0  0  0
 12 11  1  0  0  0  0
 13 10  2  0  0  0  0
 14 15  2  0  0  0  0
 14 18  1  0  0  0  0
 15 17  1  0  0  0  0
 17 16  1  0  0  0  0
 18 19  1  0  0  0  0
 21 20  1  1  0  0  0
 21 37  1  0  0  0  0
 22 21  1  0  0  0  0
 23 22  1  0  0  0  0
 24 22  2  0  0  0  0
 25 23  1  0  0  0  0
 27 33  1  0  0  0  0
 27 32  1  0  0  0  0
 28 29  1  0  0  0  0
 28 33  1  0  0  0  0
 28 34  1  1  0  0  0
 30 25  1  1  0  0  0
 30 31  1  0  0  0  0
 30 29  1  0  0  0  0
 31 27  2  0  0  0  0
 33 26  1  6  0  0  0
 35 36  1  0  0  0  0
 35 34  1  0  0  0  0
 37 38  1  0  0  0  0
 38 47  1  0  0  0  0
 39 40  1  0  0  0  0
 41 39  2  0  0  0  0
 42 43  2  0  0  0  0
 42 46  1  0  0  0  0
 43 44  1  0  0  0  0
 44 45  1  0  0  0  0
 45 40  1  0  0  0  0
 46 41  1  0  0  0  0
 46 45  2  0  0  0  0
 47 42  1  0  0  0  0
 49 50  1  6  0  0  0
 49 51  1  0  0  0  0
 49 53  1  0  0  0  0
 51 54  1  1  0  0  0
 51 52  1  0  0  0  0
 53 52  1  0  0  0  0
 53 48  1  6  0  0  0
 54 55  1  6  0  0  0
 56 54  1  0  0  0  0
 57 56  1  0  0  0  0
 57 58  1  0  0  0  0
 58 62  1  1  0  0  0
 58 61  1  0  0  0  0
 60 61  2  0  0  0  0
 61 59  2  0  0  0  0
 63 62  1  0  0  0  0
 63 64  1  0  0  0  0
 64 65  2  0  0  0  0
 66 49  1  0  0  0  0
 67 66  1  0  0  0  0
M  END
>  <MODEL>
7

>  <REMARK>
 VINA RESULT:      -4.6      2.630     10.507
  Name = 
  24 active torsions:
  status: ('A' for Active; 'I' for Inactive)
    1  A    between atoms: C_1  and  O_51
    2  A    between atoms: N_4  and  CA_29
    3  A    between atoms: C_7  and  C_32
    4  A    between atoms: C_7  and  N_54
    5  A    between atoms: C_10  and  C_25
    6  A    between atoms: C_10  and  C_38
    7  A    between atoms: C_14  and  O_18
    8  A    between atoms: C_15  and  C_34
    9  A    between atoms: C_16  and  O_18
   10  A    between atoms: C_19  and  C_30
   11  A    between atoms: C_19  and  C_65
   12  A    between atoms: C_21  and  C_48
   13  A    between atoms: C_22  and  N_37
   14  A    between atoms: C_22  and  C_48
   15  A    between atoms: C_22  and  C_52
   16  A    between atoms: C_25  and  O_60
   17  A    between atoms: C_26  and  C_45
   18  A    between atoms: CA_29  and  C_40
   19  A    between atoms: N_37  and  N_39
   20  A    between atoms: N_39  and  N_63
   21  A    between atoms: C_44  and  C_45
   22  A    between atoms: C_44  and  C_50
   23  A    between atoms: C_50  and  O_60
   24  A    between atoms: C_50  and  N_66
                            x       y       z     vdW  Elec       q    Type
                         _______ _______ _______ _____ _____    ______ ____

>  <TORSDO>
F 24

$$$$
=
 OpenBabel11042412143D

 67 72  0  0  1  0  0  0  0  0999 V2000
  191.2760  177.7880  144.8290 N   0  0  0  0  0  0  0  0  0  0  0  0
  189.6590  176.3820  138.6260 O   0  0  0  0  0  0  0  0  0  0  0  0
  190.4840  176.1410  140.8070 C   0  0  0  0  0  2  0  0  0  0  0  0
  187.1140  178.7240  139.6310 C   0  0  1  0  0  3  0  0  0  0  0  0
  190.7070  175.7860  139.3640 C   0  0  2  0  0  3  0  0  0  0  0  0
  189.5800  177.6680  143.1570 N   0  0  0  0  0  2  0  0  0  0  0  0
  187.9750  179.6630  140.4770 C   0  0  0  0  0  2  0  0  0  0  0  0
  187.7860  177.3530  139.4640 C   0  0  0  0  0  2  0  0  0  0  0  0
  190.9080  177.9610  143.5940 C   0  0  0  0  0  3  0  0  0  0  0  0
  189.1490  178.0340  141.8430 C   0  0  0  0  0  0  0  0  0  0  0  0
  189.9250  177.5060  140.6350 C   0  0  2  0  0  3  0  0  0  0  0  0
  189.2340  177.4850  139.3280 N   0  0  1  0  0  0  0  0  0  0  0  0
  188.3360  179.0430  141.7420 N   0  0  0  0  0  0  0  0  0  0  0  0
  190.4370  177.2270  145.8390 C   0  0  0  0  0  0  0  0  0  0  0  0
  189.3190  177.8710  146.1900 C   0  0  0  0  0  3  0  0  0  0  0  0
  188.6630  177.9680  148.5720 C   0  0  0  0  0  1  0  0  0  0  0  0
  188.3610  177.3570  147.2140 C   0  0  0  0  0  2  0  0  0  0  0  0
  190.8010  175.8960  146.4330 C   0  0  0  0  0  2  0  0  0  0  0  0
  191.4300  176.0780  147.6690 O   0  0  0  0  0  1  0  0  0  0  0  0
  185.7110  178.5040  140.2180 C   0  0  0  0  0  2  0  0  0  0  0  0
  184.6430  178.1440  139.1760 C   0  0  1  0  0  3  0  0  0  0  0  0
  183.5420  177.3170  139.7650 C   0  0  0  0  0  0  0  0  0  0  0  0
  182.8890  176.3110  138.9790 N   0  0  0  0  0  2  0  0  0  0  0  0
  183.2170  177.4930  140.9700 O   0  0  0  0  0  0  0  0  0  0  0  0
  181.7000  175.5940  139.4340 C   0  0  0  0  0  2  0  0  0  0  0  0
  179.2000  174.4260  134.6050 O   0  0  0  0  0  1  0  0  0  0  0  0
  179.7940  176.0590  136.2360 C   0  0  0  0  0  0  0  0  0  0  0  0
  180.9170  173.7560  136.1540 C   0  0  1  0  0  3  0  0  0  0  0  0
  181.7600  174.2890  137.3080 C   0  0  0  0  0  2  0  0  0  0  0  0
  180.8670  175.0710  138.2630 C   0  0  2  0  0  3  0  0  0  0  0  0
  180.1440  176.1720  137.5270 C   0  0  0  0  0  3  0  0  0  0  0  0
  179.1360  177.0900  135.6470 F   0  0  0  0  0  0  0  0  0  0  0  0
  180.2620  174.9090  135.3710 C   0  0  1  0  0  3  0  0  0  0  0  0
  181.7290  173.0090  135.2880 O   0  0  0  0  0  0  0  0  0  0  0  0
  181.1620  171.7310  135.2610 C   0  0  0  0  0  2  0  0  0  0  0  0
  181.2640  171.1490  136.5170 O   0  0  0  0  0  1  0  0  0  0  0  0
  184.1220  179.3350  138.5060 N   0  0  0  0  0  2  0  0  0  0  0  0
  183.3610  180.0810  139.4260 N   0  0  0  0  0  2  0  0  0  0  0  0
  180.1710  183.8330  135.9110 C   0  0  0  0  0  3  0  0  0  0  0  0
  179.2170  182.8280  136.2670 O   0  0  0  0  0  0  0  0  0  0  0  0
  181.4360  183.5040  136.7350 C   0  0  0  0  0  3  0  0  0  0  0  0
  181.5190  181.3030  138.3320 C   0  0  0  0  0  0  0  0  0  0  0  0
  180.6640  180.3400  138.4700 N   0  0  0  0  0  0  0  0  0  0  0  0
  179.3990  180.7320  137.8300 C   0  0  0  0  0  2  0  0  0  0  0  0
  179.7590  182.0530  137.2590 C   0  0  0  0  0  0  0  0  0  0  0  0
  180.9380  182.4200  137.6090 C   0  0  0  0  0  0  0  0  0  0  0  0
  182.8820  181.2140  138.7490 N   0  0  0  0  0  2  0  0  0  0  0  0
  192.0360  176.3560  138.8650 C   0  0  0  0  0  2  0  0  0  0  0  0
  193.8690  175.3760  137.3520 C   0  0  1  0  0  0  0  0  0  0  0  0
  194.7640  175.6950  138.5670 C   0  0  0  0  0  1  0  0  0  0  0  0
  193.3520  173.9270  137.3740 C   0  0  1  0  0  3  0  0  0  0  0  0
  191.9180  174.4410  137.3160 C   0  0  0  0  0  2  0  0  0  0  0  0
  192.4100  175.8740  137.4630 C   0  0  1  0  0  3  0  0  0  0  0  0
  193.7920  173.0130  136.2170 C   0  0  2  0  0  3  0  0  0  0  0  0
  192.7870  172.1250  135.8280 O   0  0  0  0  0  1  0  0  0  0  0  0
  195.0460  172.2490  136.6210 C   0  0  0  0  0  2  0  0  0  0  0  0
  196.0000  173.1520  137.1080 O   0  0  0  0  0  0  0  0  0  0  0  0
  196.8070  173.5210  136.0150 C   0  0  1  0  0  3  0  0  0  0  0  0
  197.9600  175.5930  135.4080 O   0  0  0  0  0  0  0  0  0  0  0  0
  197.6530  175.0320  137.5770 O   0  0  0  0  0  0  0  0  0  0  0  0
  197.6030  174.6840  136.3830 N   0  0  0  0  0  0  0  0  0  0  0  0
  197.7370  172.3600  135.6180 C   0  0  0  0  0  2  0  0  0  0  0  0
  198.6710  171.9510  136.7490 C   0  0  0  0  0  2  0  0  0  0  0  0
  198.6450  170.4730  137.0050 C   0  0  0  0  0  3  0  0  0  0  0  0
  197.9590  170.0090  137.8990 O   0  0  0  0  0  0  0  0  0  0  0  0
  194.4060  175.7990  136.1050 O   0  0  0  0  0  0  0  0  0  0  0  0
  193.3940  176.3980  135.3410 C   0  0  0  0  0  1  0  0  0  0  0  0
  1 14  1  0  0  0  0
  2 12  1  0  0  0  0
  2  5  1  0  0  0  0
  4 20  1  1  0  0  0
  4  7  1  0  0  0  0
  5 48  1  6  0  0  0
  5  3  1  0  0  0  0
  6  9  1  0  0  0  0
  7 13  1  0  0  0  0
  8  4  1  0  0  0  0
  9  1  2  0  0  0  0
 10  6  1  0  0  0  0
 11  3  1  1  0  0  0
 11 10  1  0  0  0  0
 12  8  1  1  0  0  0
 12 11  1  0  0  0  0
 13 10  2  0  0  0  0
 14 15  2  0  0  0  0
 14 18  1  0  0  0  0
 15 17  1  0  0  0  0
 17 16  1  0  0  0  0
 18 19  1  0  0  0  0
 21 22  1  0  0  0  0
 21 20  1  1  0  0  0
 22 24  2  0  0  0  0
 23 25  1  0  0  0  0
 23 22  1  0  0  0  0
 27 31  2  0  0  0  0
 28 34  1  6  0  0  0
 28 29  1  0  0  0  0
 29 30  1  0  0  0  0
 30 25  1  1  0  0  0
 31 30  1  0  0  0  0
 32 27  1  0  0  0  0
 33 26  1  1  0  0  0
 33 28  1  0  0  0  0
 33 27  1  0  0  0  0
 35 34  1  0  0  0  0
 35 36  1  0  0  0  0
 37 21  1  0  0  0  0
 37 38  1  0  0  0  0
 39 40  1  0  0  0  0
 39 41  2  0  0  0  0
 40 45  1  0  0  0  0
 41 46  1  0  0  0  0
 42 43  2  0  0  0  0
 42 47  1  0  0  0  0
 44 43  1  0  0  0  0
 45 46  2  0  0  0  0
 45 44  1  0  0  0  0
 46 42  1  0  0  0  0
 47 38  1  0  0  0  0
 49 51  1  0  0  0  0
 49 53  1  0  0  0  0
 49 50  1  1  0  0  0
 51 54  1  6  0  0  0
 52 51  1  0  0  0  0
 52 53  1  0  0  0  0
 53 48  1  1  0  0  0
 54 55  1  1  0  0  0
 54 56  1  0  0  0  0
 56 57  1  0  0  0  0
 58 62  1  1  0  0  0
 58 61  1  0  0  0  0
 58 57  1  0  0  0  0
 59 61  2  0  0  0  0
 61 60  2  0  0  0  0
 62 63  1  0  0  0  0
 63 64  1  0  0  0  0
 64 65  2  0  0  0  0
 66 49  1  0  0  0  0
 67 66  1  0  0  0  0
M  END
>  <MODEL>
8

>  <REMARK>
 VINA RESULT:      -4.2      3.695     11.554
  Name = 
  24 active torsions:
  status: ('A' for Active; 'I' for Inactive)
    1  A    between atoms: C_1  and  O_51
    2  A    between atoms: N_4  and  CA_29
    3  A    between atoms: C_7  and  C_32
    4  A    between atoms: C_7  and  N_54
    5  A    between atoms: C_10  and  C_25
    6  A    between atoms: C_10  and  C_38
    7  A    between atoms: C_14  and  O_18
    8  A    between atoms: C_15  and  C_34
    9  A    between atoms: C_16  and  O_18
   10  A    between atoms: C_19  and  C_30
   11  A    between atoms: C_19  and  C_65
   12  A    between atoms: C_21  and  C_48
   13  A    between atoms: C_22  and  N_37
   14  A    between atoms: C_22  and  C_48
   15  A    between atoms: C_22  and  C_52
   16  A    between atoms: C_25  and  O_60
   17  A    between atoms: C_26  and  C_45
   18  A    between atoms: CA_29  and  C_40
   19  A    between atoms: N_37  and  N_39
   20  A    between atoms: N_39  and  N_63
   21  A    between atoms: C_44  and  C_45
   22  A    between atoms: C_44  and  C_50
   23  A    between atoms: C_50  and  O_60
   24  A    between atoms: C_50  and  N_66
                            x       y       z     vdW  Elec       q    Type
                         _______ _______ _______ _____ _____    ______ ____

>  <TORSDO>
F 24

$$$$
=
 OpenBabel11042412143D

 67 72  0  0  1  0  0  0  0  0999 V2000
  188.7610  176.3120  144.3350 N   0  0  0  0  0  0  0  0  0  0  0  0
  188.0980  178.7730  138.2880 O   0  0  0  0  0  0  0  0  0  0  0  0
  188.0770  178.6130  140.6260 C   0  0  0  0  0  2  0  0  0  0  0  0
  190.8760  176.5060  137.9550 C   0  0  1  0  0  3  0  0  0  0  0  0
  187.3600  179.1680  139.4280 C   0  0  2  0  0  3  0  0  0  0  0  0
  189.7680  176.8160  142.2330 N   0  0  0  0  0  2  0  0  0  0  0  0
  190.3800  175.3850  138.8690 C   0  0  0  0  0  2  0  0  0  0  0  0
  190.1630  177.8310  138.2610 C   0  0  0  0  0  2  0  0  0  0  0  0
  188.6800  176.3590  143.0370 C   0  0  0  0  0  3  0  0  0  0  0  0
  189.7230  176.6900  140.8090 C   0  0  0  0  0  0  0  0  0  0  0  0
  188.5660  177.3370  140.0440 C   0  0  2  0  0  3  0  0  0  0  0  0
  188.7610  177.6110  138.6050 N   0  0  1  0  0  0  0  0  0  0  0  0
  190.4680  175.7740  140.2670 N   0  0  0  0  0  0  0  0  0  0  0  0
  189.8880  176.7730  145.0800 C   0  0  0  0  0  0  0  0  0  0  0  0
  189.6940  177.3150  146.2870 C   0  0  0  0  0  3  0  0  0  0  0  0
  190.2810  178.1490  148.5390 C   0  0  0  0  0  1  0  0  0  0  0  0
  190.8060  177.8030  147.1560 C   0  0  0  0  0  2  0  0  0  0  0  0
  191.2650  176.5800  144.5130 C   0  0  0  0  0  2  0  0  0  0  0  0
  191.3650  175.3210  143.9110 O   0  0  0  0  0  1  0  0  0  0  0  0
  192.3910  176.7400  138.0590 C   0  0  0  0  0  2  0  0  0  0  0  0
  193.1800  176.3130  136.8140 C   0  0  1  0  0  3  0  0  0  0  0  0
  192.2800  176.0290  135.6510 C   0  0  0  0  0  0  0  0  0  0  0  0
  191.2720  175.0130  135.7440 N   0  0  0  0  0  2  0  0  0  0  0  0
  192.3960  176.7160  134.6010 O   0  0  0  0  0  0  0  0  0  0  0  0
  190.4820  174.5700  134.5970 C   0  0  0  0  0  2  0  0  0  0  0  0
  185.7680  173.0230  137.1090 O   0  0  0  0  0  1  0  0  0  0  0  0
  188.1400  172.8460  136.9690 C   0  0  0  0  0  0  0  0  0  0  0  0
  186.8540  174.7590  135.8440 C   0  0  1  0  0  3  0  0  0  0  0  0
  188.2400  175.2600  135.4470 C   0  0  0  0  0  2  0  0  0  0  0  0
  189.0970  174.0760  135.0160 C   0  0  2  0  0  3  0  0  0  0  0  0
  189.1560  173.0410  136.1130 C   0  0  0  0  0  3  0  0  0  0  0  0
  188.2660  171.8880  137.9220 F   0  0  0  0  0  0  0  0  0  0  0  0
  186.9430  173.7700  137.0220 C   0  0  1  0  0  3  0  0  0  0  0  0
  186.0520  175.8490  136.2120 O   0  0  0  0  0  0  0  0  0  0  0  0
  184.9890  175.8460  135.3030 C   0  0  0  0  0  2  0  0  0  0  0  0
  183.7870  175.7490  135.9920 O   0  0  0  0  0  1  0  0  0  0  0  0
  194.2120  177.2910  136.4690 N   0  0  0  0  0  2  0  0  0  0  0  0
  195.2490  176.6380  135.7770 N   0  0  0  0  0  2  0  0  0  0  0  0
  197.1370  171.0880  137.2740 C   0  0  0  0  0  3  0  0  0  0  0  0
  198.3490  171.8470  137.2390 O   0  0  0  0  0  0  0  0  0  0  0  0
  196.0040  172.1190  137.0690 C   0  0  0  0  0  3  0  0  0  0  0  0
  196.5780  174.7410  136.6260 C   0  0  0  0  0  0  0  0  0  0  0  0
  197.7180  175.3250  136.4380 N   0  0  0  0  0  0  0  0  0  0  0  0
  198.7960  174.3930  136.8000 C   0  0  0  0  0  2  0  0  0  0  0  0
  198.0220  173.1750  137.1470 C   0  0  0  0  0  0  0  0  0  0  0  0
  196.7570  173.3910  137.1270 C   0  0  0  0  0  0  0  0  0  0  0  0
  195.3230  175.3280  136.2770 N   0  0  0  0  0  2  0  0  0  0  0  0
  185.9510  178.5810  139.3190 C   0  0  0  0  0  2  0  0  0  0  0  0
  183.4790  179.2840  139.3530 C   0  0  1  0  0  0  0  0  0  0  0  0
  183.4420  178.4940  138.0300 C   0  0  0  0  0  1  0  0  0  0  0  0
  183.0720  178.4210  140.5600 C   0  0  1  0  0  3  0  0  0  0  0  0
  184.4030  178.7380  141.2320 C   0  0  0  0  0  2  0  0  0  0  0  0
  184.8830  179.4550  139.9780 C   0  0  1  0  0  3  0  0  0  0  0  0
  181.8080  178.8450  141.3260 C   0  0  2  0  0  3  0  0  0  0  0  0
  181.7190  178.2430  142.5830 O   0  0  0  0  0  1  0  0  0  0  0  0
  180.5750  178.5180  140.4940 C   0  0  0  0  0  2  0  0  0  0  0  0
  180.9000  177.5300  139.5560 O   0  0  0  0  0  0  0  0  0  0  0  0
  179.7490  177.3150  138.7750 C   0  0  1  0  0  3  0  0  0  0  0  0
  180.5280  178.2030  136.6320 O   0  0  0  0  0  0  0  0  0  0  0  0
  180.4720  175.9750  137.0090 O   0  0  0  0  0  0  0  0  0  0  0  0
  180.1460  177.1150  137.3890 N   0  0  0  0  0  0  0  0  0  0  0  0
  178.9810  176.0780  139.2790 C   0  0  0  0  0  2  0  0  0  0  0  0
  179.6860  175.3900  140.4400 C   0  0  0  0  0  2  0  0  0  0  0  0
  180.1040  173.9890  140.1040 C   0  0  0  0  0  3  0  0  0  0  0  0
  179.4070  173.2860  139.3940 O   0  0  0  0  0  0  0  0  0  0  0  0
  182.8460  180.5560  139.2900 O   0  0  0  0  0  0  0  0  0  0  0  0
  182.1580  180.6750  138.0730 C   0  0  0  0  0  1  0  0  0  0  0  0
  1 14  1  0  0  0  0
  2 12  1  0  0  0  0
  2  5  1  0  0  0  0
  4 20  1  1  0  0  0
  4  8  1  0  0  0  0
  4  7  1  0  0  0  0
  5 48  1  6  0  0  0
  5  3  1  0  0  0  0
  6  9  1  0  0  0  0
  7 13  1  0  0  0  0
  9  1  2  0  0  0  0
 10  6  1  0  0  0  0
 11  3  1  1  0  0  0
 11 10  1  0  0  0  0
 12  8  1  1  0  0  0
 12 11  1  0  0  0  0
 13 10  2  0  0  0  0
 14 15  2  0  0  0  0
 15 17  1  0  0  0  0
 17 16  1  0  0  0  0
 18 14  1  0  0  0  0
 19 18  1  0  0  0  0
 21 20  1  1  0  0  0
 22 23  1  0  0  0  0
 22 21  1  0  0  0  0
 24 22  2  0  0  0  0
 25 23  1  0  0  0  0
 27 33  1  0  0  0  0
 27 32  1  0  0  0  0
 28 34  1  1  0  0  0
 28 33  1  0  0  0  0
 29 28  1  0  0  0  0
 30 25  1  1  0  0  0
 30 29  1  0  0  0  0
 30 31  1  0  0  0  0
 31 27  2  0  0  0  0
 33 26  1  6  0  0  0
 35 36  1  0  0  0  0
 35 34  1  0  0  0  0
 37 21  1  0  0  0  0
 38 47  1  0  0  0  0
 38 37  1  0  0  0  0
 40 39  1  0  0  0  0
 41 46  1  0  0  0  0
 41 39  2  0  0  0  0
 42 46  1  0  0  0  0
 43 42  2  0  0  0  0
 43 44  1  0  0  0  0
 44 45  1  0  0  0  0
 45 40  1  0  0  0  0
 46 45  2  0  0  0  0
 47 42  1  0  0  0  0
 49 50  1  6  0  0  0
 49 53  1  0  0  0  0
 49 51  1  0  0  0  0
 51 52  1  0  0  0  0
 51 54  1  1  0  0  0
 53 48  1  6  0  0  0
 53 52  1  0  0  0  0
 54 55  1  1  0  0  0
 56 54  1  0  0  0  0
 57 56  1  0  0  0  0
 58 62  1  1  0  0  0
 58 57  1  0  0  0  0
 59 61  2  0  0  0  0
 60 61  2  0  0  0  0
 61 58  1  0  0  0  0
 62 63  1  0  0  0  0
 64 63  1  0  0  0  0
 65 64  2  0  0  0  0
 66 49  1  0  0  0  0
 67 66  1  0  0  0  0
M  END
>  <MODEL>
9

>  <REMARK>
 VINA RESULT:      -4.0      2.934      8.772
  Name = 
  24 active torsions:
  status: ('A' for Active; 'I' for Inactive)
    1  A    between atoms: C_1  and  O_51
    2  A    between atoms: N_4  and  CA_29
    3  A    between atoms: C_7  and  C_32
    4  A    between atoms: C_7  and  N_54
    5  A    between atoms: C_10  and  C_25
    6  A    between atoms: C_10  and  C_38
    7  A    between atoms: C_14  and  O_18
    8  A    between atoms: C_15  and  C_34
    9  A    between atoms: C_16  and  O_18
   10  A    between atoms: C_19  and  C_30
   11  A    between atoms: C_19  and  C_65
   12  A    between atoms: C_21  and  C_48
   13  A    between atoms: C_22  and  N_37
   14  A    between atoms: C_22  and  C_48
   15  A    between atoms: C_22  and  C_52
   16  A    between atoms: C_25  and  O_60
   17  A    between atoms: C_26  and  C_45
   18  A    between atoms: CA_29  and  C_40
   19  A    between atoms: N_37  and  N_39
   20  A    between atoms: N_39  and  N_63
   21  A    between atoms: C_44  and  C_45
   22  A    between atoms: C_44  and  C_50
   23  A    between atoms: C_50  and  O_60
   24  A    between atoms: C_50  and  N_66
                            x       y       z     vdW  Elec       q    Type
                         _______ _______ _______ _____ _____    ______ ____

>  <TORSDO>
F 24

$$$$
