=
 OpenBabel11042410083D

 54 58  0  0  1  0  0  0  0  0999 V2000
  188.2030  178.7470  140.8150 C   0  0  1  0  0  3  0  0  0  0  0  0
  189.2640  177.0960  137.6520 C   0  0  2  0  0  3  0  0  0  0  0  0
  189.4590  178.4700  138.3420 C   0  0  0  0  0  2  0  0  0  0  0  0
  188.4400  176.6350  138.8940 C   0  0  0  0  0  2  0  0  0  0  0  0
  188.6690  177.9810  139.4960 C   0  0  2  0  0  3  0  0  0  0  0  0
  190.5540  176.2710  137.3640 C   0  0  0  0  0  0  0  0  0  0  0  0
  192.9110  174.6640  137.4820 C   0  0  0  0  0  3  0  0  0  0  0  0
  191.7380  176.6760  138.0420 C   0  0  0  0  0  3  0  0  0  0  0  0
  192.8930  175.9000  138.1040 C   0  0  0  0  0  3  0  0  0  0  0  0
  190.6010  175.0380  136.6510 C   0  0  0  0  0  0  0  0  0  0  0  0
  191.7690  174.2360  136.7590 C   0  0  0  0  0  3  0  0  0  0  0  0
  189.3530  174.4100  135.4370 S   0  0  0  0  0  0  0  0  0  0  0  0
  188.4620  173.4440  136.7430 C   0  0  0  0  0  2  0  0  0  0  0  0
  187.1150  172.7020  136.5580 C   0  0  0  0  0  2  0  0  0  0  0  0
  186.0310  173.0110  137.6590 C   0  0  0  0  0  2  0  0  0  0  0  0
  184.4040  173.3520  136.7120 P   0  0  2  0  0  0  0  0  0  0  0  0
  184.3220  173.3930  135.1880 O   0  0  0  0  0  0  0  0  0  0  0  0
  183.1460  175.8150  135.8970 O   0  0  0  0  0  1  0  0  0  0  0  0
  184.2280  175.4570  137.2730 P   0  0  0  0  0  0  0  0  0  0  0  0
  183.0420  175.6140  138.5810 O   0  0  0  0  0  1  0  0  0  0  0  0
  183.4990  171.8110  136.9700 C   0  0  0  0  0  2  0  0  0  0  0  0
  182.0080  172.0040  137.0440 N   0  0  0  0  0  0  0  0  0  0  0  0
  179.2760  172.0030  135.8850 C   0  0  0  0  0  2  0  0  0  0  0  0
  179.0570  173.1800  138.0450 O   0  0  0  0  0  1  0  0  0  0  0  0
  181.6220  171.2000  135.8730 C   0  0  0  0  0  2  0  0  0  0  0  0
  181.3110  173.2980  136.8290 C   0  0  0  0  0  2  0  0  0  0  0  0
  180.1430  170.7680  136.0210 C   0  0  0  0  0  2  0  0  0  0  0  0
  179.7770  173.1130  136.7730 C   0  0  1  0  0  3  0  0  0  0  0  0
  186.7670  178.4870  141.1460 N   0  0  0  0  0  2  0  0  0  0  0  0
  185.9100  178.9670  140.2880 C   0  0  0  0  0  2  0  0  0  0  0  0
  183.5650  178.2170  141.1150 C   0  0  0  0  0  3  0  0  0  0  0  0
  183.7650  179.3210  139.0430 C   0  0  0  0  0  3  0  0  0  0  0  0
  182.4380  179.2610  138.7850 N   0  0  0  0  0  0  0  0  0  0  0  0
  181.6210  178.6710  139.7420 C   0  0  0  0  0  3  0  0  0  0  0  0
  182.1510  178.1360  140.8870 C   0  0  0  0  0  3  0  0  0  0  0  0
  184.4130  178.8300  140.1800 C   0  0  0  0  0  0  0  0  0  0  0  0
  189.0770  178.4340  141.9190 N   0  0  0  0  0  2  0  0  0  0  0  0
  189.4690  177.0430  141.7930 C   0  0  0  0  0  2  0  0  0  0  0  0
  191.0670  177.0180  141.9190 C   0  0  0  0  0  2  0  0  0  0  0  0
  191.6130  177.6840  144.2730 N   0  0  0  0  0  0  0  0  0  0  0  0
  191.3850  177.9740  143.0330 C   0  0  0  0  0  3  0  0  0  0  0  0
  191.6600  176.4390  145.0350 C   0  0  0  0  0  0  0  0  0  0  0  0
  191.9340  175.3920  144.4100 O   0  0  0  0  0  0  0  0  0  0  0  0
  191.1530  176.5170  146.7960 S   0  0  0  0  0  0  0  0  0  0  0  0
  188.6610  177.2160  145.7150 N   0  0  0  0  0  2  0  0  0  0  0  0
  189.2150  178.2850  147.7800 N   0  0  0  0  0  2  0  0  0  0  0  0
  189.5640  177.4780  146.7990 C   0  0  0  0  0  0  0  0  0  0  0  0
  185.3020  178.2120  144.3240 C   0  0  0  0  0  3  0  0  0  0  0  0
  187.2890  177.6000  145.6670 C   0  0  0  0  0  0  0  0  0  0  0  0
  185.1460  178.2620  146.7960 C   0  0  0  0  0  2  0  0  0  0  0  0
  184.7450  178.9750  145.4900 C   0  0  2  0  0  3  0  0  0  0  0  0
  186.6540  177.9220  146.7780 C   0  0  0  0  0  3  0  0  0  0  0  0
  186.5220  177.6320  144.3930 C   0  0  0  0  0  3  0  0  0  0  0  0
  183.3940  179.0860  145.3850 F   0  0  0  0  0  0  0  0  0  0  0  0
  1 29  1  1  0  0  0
  1 37  1  0  0  0  0
  2  6  1  1  0  0  0
  2  3  1  0  0  0  0
  2  4  1  0  0  0  0
  3  5  1  0  0  0  0
  4  5  1  0  0  0  0
  5  1  1  6  0  0  0
  6  8  1  0  0  0  0
  7  9  1  0  0  0  0
  8  9  2  0  0  0  0
 10 11  1  0  0  0  0
 10  6  2  0  0  0  0
 11  7  2  0  0  0  0
 12 10  1  0  0  0  0
 12 13  1  0  0  0  0
 14 13  1  0  0  0  0
 14 15  1  0  0  0  0
 16 17  2  6  0  0  0
 16 21  1  0  0  0  0
 16 19  1  0  0  0  0
 16 15  1  0  0  0  0
 18 19  1  0  0  0  0
 19 20  1  0  0  0  0
 21 22  1  0  0  0  0
 23 27  1  0  0  0  0
 23 28  1  0  0  0  0
 25 27  1  0  0  0  0
 25 22  1  0  0  0  0
 26 22  1  0  0  0  0
 28 26  1  0  0  0  0
 28 24  1  1  0  0  0
 30 29  1  0  0  0  0
 32 36  1  0  0  0  0
 33 32  2  0  0  0  0
 33 34  1  0  0  0  0
 34 35  2  0  0  0  0
 35 31  1  0  0  0  0
 36 30  1  0  0  0  0
 36 31  2  0  0  0  0
 38 37  1  0  0  0  0
 38 39  1  0  0  0  0
 39 41  1  0  0  0  0
 40 42  1  0  0  0  0
 41 40  2  0  0  0  0
 42 44  1  0  0  0  0
 43 42  2  0  0  0  0
 44 47  1  0  0  0  0
 45 47  1  0  0  0  0
 47 46  2  0  0  0  0
 48 53  2  0  0  0  0
 48 51  1  0  0  0  0
 49 45  1  0  0  0  0
 49 52  2  0  0  0  0
 51 54  1  6  0  0  0
 51 50  1  0  0  0  0
 52 50  1  0  0  0  0
 53 49  1  0  0  0  0
M  END
>  <MODEL>
1

>  <REMARK>
 VINA RESULT:      -7.6      0.000      0.000
  Name = 
  20 active torsions:
  status: ('A' for Active; 'I' for Inactive)
    1  A    between atoms: C_3  and  N_5
    2  A    between atoms: C_3  and  P_11
    3  A    between atoms: N_6  and  C_10
    4  A    between atoms: N_8  and  C_13
    5  A    between atoms: C_9  and  C_22
    6  A    between atoms: C_10  and  S_53
    7  A    between atoms: P_11  and  P_25
    8  A    between atoms: P_11  and  C_35
    9  A    between atoms: C_15  and  N_17
   10  A    between atoms: C_15  and  N_29
   11  A    between atoms: C_15  and  C_48
   12  A    between atoms: N_17  and  C_23
   13  A    between atoms: C_20  and  S_33
   14  A    between atoms: C_20  and  C_34
   15  A    between atoms: C_23  and  C_39
   16  A    between atoms: S_33  and  C_37
   17  A    between atoms: C_34  and  C_35
   18  A    between atoms: C_39  and  C_51
   19  A    between atoms: C_42  and  S_53
   20  A    between atoms: C_45  and  C_47
                            x       y       z     vdW  Elec       q    Type
                         _______ _______ _______ _____ _____    ______ ____

>  <TORSDO>
F 20

$$$$
=
 OpenBabel11042410083D

 54 58  0  0  1  0  0  0  0  0999 V2000
  185.0710  178.0270  143.4210 C   0  0  1  0  0  3  0  0  0  0  0  0
  185.2350  179.0660  139.8500 C   0  0  2  0  0  3  0  0  0  0  0  0
  186.2120  178.9370  141.0460 C   0  0  0  0  0  2  0  0  0  0  0  0
  184.1020  178.5150  140.7690 C   0  0  0  0  0  2  0  0  0  0  0  0
  185.0990  178.4190  141.8740 C   0  0  2  0  0  3  0  0  0  0  0  0
  185.5540  178.2030  138.5940 C   0  0  0  0  0  0  0  0  0  0  0  0
  185.7980  177.0810  135.9790 C   0  0  0  0  0  3  0  0  0  0  0  0
  184.4420  177.7210  137.8470 C   0  0  0  0  0  3  0  0  0  0  0  0
  184.5520  177.1710  136.5720 C   0  0  0  0  0  3  0  0  0  0  0  0
  186.8480  178.0310  138.0190 C   0  0  0  0  0  0  0  0  0  0  0  0
  186.9410  177.5100  136.7000 C   0  0  0  0  0  3  0  0  0  0  0  0
  188.4770  178.2610  138.8660 S   0  0  0  0  0  0  0  0  0  0  0  0
  189.3660  177.2560  137.5880 C   0  0  0  0  0  2  0  0  0  0  0  0
  190.8760  176.9130  137.5990 C   0  0  0  0  0  2  0  0  0  0  0  0
  191.4120  176.2430  136.2770 C   0  0  0  0  0  2  0  0  0  0  0  0
  191.3310  174.3550  136.5750 P   0  0  2  0  0  0  0  0  0  0  0  0
  190.5770  173.7300  137.7460 O   0  0  0  0  0  0  0  0  0  0  0  0
  193.9790  174.1550  135.4490 O   0  0  0  0  0  1  0  0  0  0  0  0
  193.4260  174.1050  137.1480 P   0  0  0  0  0  0  0  0  0  0  0  0
  194.0750  175.6670  137.6770 O   0  0  0  0  0  1  0  0  0  0  0  0
  190.2260  173.8200  135.2510 C   0  0  0  0  0  2  0  0  0  0  0  0
  188.9200  173.2690  135.7550 N   0  0  0  0  0  0  0  0  0  0  0  0
  186.5280  171.5230  135.5540 C   0  0  0  0  0  2  0  0  0  0  0  0
  186.0150  173.1090  137.3750 O   0  0  0  0  0  1  0  0  0  0  0  0
  188.8830  172.0290  134.9620 C   0  0  0  0  0  2  0  0  0  0  0  0
  187.5910  173.8850  135.5080 C   0  0  0  0  0  2  0  0  0  0  0  0
  187.9490  171.0100  135.6600 C   0  0  0  0  0  2  0  0  0  0  0  0
  186.4420  172.9650  135.9840 C   0  0  1  0  0  3  0  0  0  0  0  0
  186.4250  177.6570  143.9390 N   0  0  0  0  0  2  0  0  0  0  0  0
  186.6720  178.0490  145.1570 C   0  0  0  0  0  2  0  0  0  0  0  0
  187.8850  178.0640  147.4540 C   0  0  0  0  0  3  0  0  0  0  0  0
  189.0130  177.2490  145.5520 C   0  0  0  0  0  3  0  0  0  0  0  0
  190.1470  176.9740  146.2360 N   0  0  0  0  0  0  0  0  0  0  0  0
  190.1560  177.2340  147.6020 C   0  0  0  0  0  3  0  0  0  0  0  0
  189.0650  177.7830  148.2210 C   0  0  0  0  0  3  0  0  0  0  0  0
  187.8360  177.7890  146.0790 C   0  0  0  0  0  0  0  0  0  0  0  0
  184.4630  179.0780  144.1990 N   0  0  0  0  0  2  0  0  0  0  0  0
  183.1100  178.6640  144.5240 C   0  0  0  0  0  2  0  0  0  0  0  0
  182.1420  179.5290  143.5850 C   0  0  0  0  0  2  0  0  0  0  0  0
  179.9850  178.8700  142.4920 N   0  0  0  0  0  0  0  0  0  0  0  0
  181.0050  178.6090  143.2430 C   0  0  0  0  0  3  0  0  0  0  0  0
  179.5520  180.0410  141.7350 C   0  0  0  0  0  0  0  0  0  0  0  0
  179.4720  181.1260  142.3490 O   0  0  0  0  0  0  0  0  0  0  0  0
  179.0130  179.7640  140.0040 S   0  0  0  0  0  0  0  0  0  0  0  0
  180.1920  177.3420  139.2240 N   0  0  0  0  0  2  0  0  0  0  0  0
  181.4050  179.3100  138.6190 N   0  0  0  0  0  2  0  0  0  0  0  0
  180.3730  178.7650  139.2280 C   0  0  0  0  0  0  0  0  0  0  0  0
  181.3180  175.2950  136.2650 C   0  0  0  0  0  3  0  0  0  0  0  0
  180.9370  176.4130  138.4400 C   0  0  0  0  0  0  0  0  0  0  0  0
  182.7070  174.6470  138.2110 C   0  0  0  0  0  2  0  0  0  0  0  0
  181.9510  174.1320  136.9700 C   0  0  2  0  0  3  0  0  0  0  0  0
  181.8100  175.6120  139.0200 C   0  0  0  0  0  3  0  0  0  0  0  0
  180.7850  176.3230  136.9640 C   0  0  0  0  0  3  0  0  0  0  0  0
  182.7840  173.4620  136.1300 F   0  0  0  0  0  0  0  0  0  0  0  0
  1 29  1  1  0  0  0
  1 37  1  0  0  0  0
  2  6  1  6  0  0  0
  2  4  1  0  0  0  0
  2  3  1  0  0  0  0
  3  5  1  0  0  0  0
  4  5  1  0  0  0  0
  5  1  1  1  0  0  0
  7  9  2  0  0  0  0
  7 11  1  0  0  0  0
  8  6  2  0  0  0  0
  9  8  1  0  0  0  0
 10  6  1  0  0  0  0
 10 12  1  0  0  0  0
 11 10  2  0  0  0  0
 13 14  1  0  0  0  0
 13 12  1  0  0  0  0
 15 16  1  0  0  0  0
 15 14  1  0  0  0  0
 16 19  1  0  0  0  0
 16 17  2  1  0  0  0
 18 19  1  0  0  0  0
 19 20  1  0  0  0  0
 21 22  1  0  0  0  0
 21 16  1  0  0  0  0
 23 27  1  0  0  0  0
 23 28  1  0  0  0  0
 25 27  1  0  0  0  0
 25 22  1  0  0  0  0
 26 22  1  0  0  0  0
 26 28  1  0  0  0  0
 28 24  1  1  0  0  0
 29 30  1  0  0  0  0
 30 36  1  0  0  0  0
 31 35  1  0  0  0  0
 32 36  1  0  0  0  0
 32 33  2  0  0  0  0
 33 34  1  0  0  0  0
 34 35  2  0  0  0  0
 36 31  2  0  0  0  0
 37 38  1  0  0  0  0
 39 38  1  0  0  0  0
 40 41  2  0  0  0  0
 41 39  1  0  0  0  0
 42 43  2  0  0  0  0
 42 40  1  0  0  0  0
 44 42  1  0  0  0  0
 45 47  1  0  0  0  0
 46 47  2  0  0  0  0
 47 44  1  0  0  0  0
 48 53  2  0  0  0  0
 48 51  1  0  0  0  0
 49 52  2  0  0  0  0
 49 45  1  0  0  0  0
 50 52  1  0  0  0  0
 51 54  1  6  0  0  0
 51 50  1  0  0  0  0
 53 49  1  0  0  0  0
M  END
>  <MODEL>
2

>  <REMARK>
 VINA RESULT:      -7.2      4.168      8.567
  Name = 
  20 active torsions:
  status: ('A' for Active; 'I' for Inactive)
    1  A    between atoms: C_3  and  N_5
    2  A    between atoms: C_3  and  P_11
    3  A    between atoms: N_6  and  C_10
    4  A    between atoms: N_8  and  C_13
    5  A    between atoms: C_9  and  C_22
    6  A    between atoms: C_10  and  S_53
    7  A    between atoms: P_11  and  P_25
    8  A    between atoms: P_11  and  C_35
    9  A    between atoms: C_15  and  N_17
   10  A    between atoms: C_15  and  N_29
   11  A    between atoms: C_15  and  C_48
   12  A    between atoms: N_17  and  C_23
   13  A    between atoms: C_20  and  S_33
   14  A    between atoms: C_20  and  C_34
   15  A    between atoms: C_23  and  C_39
   16  A    between atoms: S_33  and  C_37
   17  A    between atoms: C_34  and  C_35
   18  A    between atoms: C_39  and  C_51
   19  A    between atoms: C_42  and  S_53
   20  A    between atoms: C_45  and  C_47
                            x       y       z     vdW  Elec       q    Type
                         _______ _______ _______ _____ _____    ______ ____

>  <TORSDO>
F 20

$$$$
=
 OpenBabel11042410083D

 54 58  0  0  1  0  0  0  0  0999 V2000
  185.3680  178.0810  137.6350 C   0  0  1  0  0  3  0  0  0  0  0  0
  188.7070  177.8070  136.0120 C   0  0  2  0  0  3  0  0  0  0  0  0
  188.0530  178.6450  137.1400 C   0  0  0  0  0  2  0  0  0  0  0  0
  187.3540  177.0490  135.8460 C   0  0  0  0  0  2  0  0  0  0  0  0
  186.7920  177.8940  136.9400 C   0  0  2  0  0  3  0  0  0  0  0  0
  189.9220  176.9210  136.4170 C   0  0  0  0  0  0  0  0  0  0  0  0
  192.4860  175.7210  136.7950 C   0  0  0  0  0  3  0  0  0  0  0  0
  190.6700  176.3330  135.3580 C   0  0  0  0  0  3  0  0  0  0  0  0
  191.9190  175.7440  135.5330 C   0  0  0  0  0  3  0  0  0  0  0  0
  190.4660  176.8200  137.7310 C   0  0  0  0  0  0  0  0  0  0  0  0
  191.7610  176.2570  137.8890 C   0  0  0  0  0  3  0  0  0  0  0  0
  189.5990  177.1980  139.3220 S   0  0  0  0  0  0  0  0  0  0  0  0
  191.1600  177.0090  140.3020 C   0  0  0  0  0  2  0  0  0  0  0  0
  191.2930  177.1930  141.8350 C   0  0  0  0  0  2  0  0  0  0  0  0
  190.3600  176.2610  142.6970 C   0  0  0  0  0  2  0  0  0  0  0  0
  189.3580  177.4280  143.8340 P   0  0  2  0  0  0  0  0  0  0  0  0
  189.5720  178.9400  143.8690 O   0  0  0  0  0  0  0  0  0  0  0  0
  191.7140  177.7500  145.4660 O   0  0  0  0  0  1  0  0  0  0  0  0
  190.2460  176.7620  145.7170 P   0  0  0  0  0  0  0  0  0  0  0  0
  189.5380  177.6860  147.0540 O   0  0  0  0  0  1  0  0  0  0  0  0
  187.7400  177.4220  143.0340 C   0  0  0  0  0  2  0  0  0  0  0  0
  186.6080  177.7190  143.9800 N   0  0  0  0  0  0  0  0  0  0  0  0
  184.2040  179.2310  144.8420 C   0  0  0  0  0  2  0  0  0  0  0  0
  184.8900  177.9290  146.8250 O   0  0  0  0  0  1  0  0  0  0  0  0
  185.7260  178.4430  143.0500 C   0  0  0  0  0  2  0  0  0  0  0  0
  186.7030  178.6260  145.1530 C   0  0  0  0  0  2  0  0  0  0  0  0
  184.2740  178.3900  143.5840 C   0  0  0  0  0  2  0  0  0  0  0  0
  185.3170  178.8730  145.7930 C   0  0  1  0  0  3  0  0  0  0  0  0
  184.7420  176.7740  138.0080 N   0  0  0  0  0  2  0  0  0  0  0  0
  184.5550  175.9510  137.0140 C   0  0  0  0  0  2  0  0  0  0  0  0
  182.7420  174.0950  136.9030 C   0  0  0  0  0  3  0  0  0  0  0  0
  185.0160  173.4890  137.0250 C   0  0  0  0  0  3  0  0  0  0  0  0
  184.7520  172.1620  137.0130 N   0  0  0  0  0  0  0  0  0  0  0  0
  183.4220  171.7690  136.9220 C   0  0  0  0  0  3  0  0  0  0  0  0
  182.4160  172.6980  136.8830 C   0  0  0  0  0  3  0  0  0  0  0  0
  184.0770  174.5230  136.9690 C   0  0  0  0  0  0  0  0  0  0  0  0
  185.4680  178.9740  138.7640 N   0  0  0  0  0  2  0  0  0  0  0  0
  184.4550  178.5840  139.7280 C   0  0  0  0  0  2  0  0  0  0  0  0
  183.1670  179.4810  139.4060 C   0  0  0  0  0  2  0  0  0  0  0  0
  181.3870  178.0360  140.4170 N   0  0  0  0  0  0  0  0  0  0  0  0
  182.1470  179.0820  140.4340 C   0  0  0  0  0  3  0  0  0  0  0  0
  181.2170  176.9150  139.4970 C   0  0  0  0  0  0  0  0  0  0  0  0
  181.9980  175.9470  139.6180 O   0  0  0  0  0  0  0  0  0  0  0  0
  179.9820  177.1160  138.1550 S   0  0  0  0  0  0  0  0  0  0  0  0
  179.8810  179.7790  137.2840 N   0  0  0  0  0  2  0  0  0  0  0  0
  181.6850  178.4840  136.4020 N   0  0  0  0  0  2  0  0  0  0  0  0
  180.5970  178.5440  137.1410 C   0  0  0  0  0  0  0  0  0  0  0  0
  181.2250  183.2990  137.4080 C   0  0  0  0  0  3  0  0  0  0  0  0
  180.3370  181.0580  136.8480 C   0  0  0  0  0  0  0  0  0  0  0  0
  180.7380  182.7540  135.0410 C   0  0  0  0  0  2  0  0  0  0  0  0
  180.6650  183.8450  136.1280 C   0  0  2  0  0  3  0  0  0  0  0  0
  180.1870  181.4170  135.5880 C   0  0  0  0  0  3  0  0  0  0  0  0
  181.0070  182.0140  137.7690 C   0  0  0  0  0  3  0  0  0  0  0  0
  181.3400  184.9620  135.7500 F   0  0  0  0  0  0  0  0  0  0  0  0
  1 29  1  1  0  0  0
  1 37  1  0  0  0  0
  2  6  1  1  0  0  0
  2  3  1  0  0  0  0
  4  2  1  0  0  0  0
  4  5  1  0  0  0  0
  5  3  1  0  0  0  0
  5  1  1  6  0  0  0
  6 10  1  0  0  0  0
  7 11  1  0  0  0  0
  8  9  1  0  0  0  0
  8  6  2  0  0  0  0
  9  7  2  0  0  0  0
 10 11  2  0  0  0  0
 10 12  1  0  0  0  0
 12 13  1  0  0  0  0
 13 14  1  0  0  0  0
 14 15  1  0  0  0  0
 15 16  1  0  0  0  0
 16 17  2  6  0  0  0
 16 19  1  0  0  0  0
 18 19  1  0  0  0  0
 19 20  1  0  0  0  0
 21 16  1  0  0  0  0
 21 22  1  0  0  0  0
 22 26  1  0  0  0  0
 23 28  1  0  0  0  0
 25 27  1  0  0  0  0
 25 22  1  0  0  0  0
 26 28  1  0  0  0  0
 27 23  1  0  0  0  0
 28 24  1  6  0  0  0
 30 29  1  0  0  0  0
 31 36  1  0  0  0  0
 33 32  1  0  0  0  0
 34 33  2  0  0  0  0
 35 31  2  0  0  0  0
 35 34  1  0  0  0  0
 36 30  1  0  0  0  0
 36 32  2  0  0  0  0
 37 38  1  0  0  0  0
 39 38  1  0  0  0  0
 39 41  1  0  0  0  0
 40 41  2  0  0  0  0
 42 43  2  0  0  0  0
 42 40  1  0  0  0  0
 44 42  1  0  0  0  0
 46 47  2  0  0  0  0
 47 45  1  0  0  0  0
 47 44  1  0  0  0  0
 48 53  2  0  0  0  0
 49 45  1  0  0  0  0
 49 53  1  0  0  0  0
 50 52  1  0  0  0  0
 50 51  1  0  0  0  0
 51 54  1  6  0  0  0
 51 48  1  0  0  0  0
 52 49  2  0  0  0  0
M  END
>  <MODEL>
3

>  <REMARK>
 VINA RESULT:      -7.1      3.968      9.069
  Name = 
  20 active torsions:
  status: ('A' for Active; 'I' for Inactive)
    1  A    between atoms: C_3  and  N_5
    2  A    between atoms: C_3  and  P_11
    3  A    between atoms: N_6  and  C_10
    4  A    between atoms: N_8  and  C_13
    5  A    between atoms: C_9  and  C_22
    6  A    between atoms: C_10  and  S_53
    7  A    between atoms: P_11  and  P_25
    8  A    between atoms: P_11  and  C_35
    9  A    between atoms: C_15  and  N_17
   10  A    between atoms: C_15  and  N_29
   11  A    between atoms: C_15  and  C_48
   12  A    between atoms: N_17  and  C_23
   13  A    between atoms: C_20  and  S_33
   14  A    between atoms: C_20  and  C_34
   15  A    between atoms: C_23  and  C_39
   16  A    between atoms: S_33  and  C_37
   17  A    between atoms: C_34  and  C_35
   18  A    between atoms: C_39  and  C_51
   19  A    between atoms: C_42  and  S_53
   20  A    between atoms: C_45  and  C_47
                            x       y       z     vdW  Elec       q    Type
                         _______ _______ _______ _____ _____    ______ ____

>  <TORSDO>
F 20

$$$$
=
 OpenBabel11042410083D

 54 58  0  0  1  0  0  0  0  0999 V2000
  189.5990  177.9450  139.8710 C   0  0  1  0  0  3  0  0  0  0  0  0
  191.0990  176.2130  136.9370 C   0  0  2  0  0  3  0  0  0  0  0  0
  191.1440  176.0870  138.4810 C   0  0  0  0  0  2  0  0  0  0  0  0
  190.0860  177.3870  137.1040 C   0  0  0  0  0  2  0  0  0  0  0  0
  190.1800  177.2070  138.5810 C   0  0  2  0  0  3  0  0  0  0  0  0
  190.5660  174.9780  136.1530 C   0  0  0  0  0  0  0  0  0  0  0  0
  190.0260  172.3900  135.0730 C   0  0  0  0  0  3  0  0  0  0  0  0
  191.5190  174.2340  135.4010 C   0  0  0  0  0  3  0  0  0  0  0  0
  191.2650  172.9720  134.8690 C   0  0  0  0  0  3  0  0  0  0  0  0
  189.2620  174.4160  136.2880 C   0  0  0  0  0  0  0  0  0  0  0  0
  189.0300  173.1090  135.7790 C   0  0  0  0  0  3  0  0  0  0  0  0
  187.7470  175.2690  136.9220 S   0  0  0  0  0  0  0  0  0  0  0  0
  186.7090  174.6150  135.5340 C   0  0  0  0  0  2  0  0  0  0  0  0
  185.3310  175.1710  135.0970 C   0  0  0  0  0  2  0  0  0  0  0  0
  184.1930  174.0890  134.9610 C   0  0  0  0  0  2  0  0  0  0  0  0
  183.3920  173.9500  136.6930 P   0  0  2  0  0  0  0  0  0  0  0  0
  184.0770  174.4390  137.9670 O   0  0  0  0  0  0  0  0  0  0  0  0
  182.2830  171.5160  135.6140 O   0  0  0  0  0  1  0  0  0  0  0  0
  183.5390  171.7750  136.8590 P   0  0  0  0  0  0  0  0  0  0  0  0
  184.9420  171.2140  135.9310 O   0  0  0  0  0  1  0  0  0  0  0  0
  182.1010  175.2080  136.6040 C   0  0  0  0  0  2  0  0  0  0  0  0
  181.3080  175.3360  137.8760 N   0  0  0  0  0  0  0  0  0  0  0  0
  178.9320  174.8250  139.5810 C   0  0  0  0  0  2  0  0  0  0  0  0
  180.1800  176.6160  140.7370 O   0  0  0  0  0  1  0  0  0  0  0  0
  180.4120  174.1830  137.6960 C   0  0  0  0  0  2  0  0  0  0  0  0
  180.3830  176.4570  138.1860 C   0  0  0  0  0  2  0  0  0  0  0  0
  179.8680  173.7440  139.0780 C   0  0  0  0  0  2  0  0  0  0  0  0
  179.5750  176.1850  139.4770 C   0  0  1  0  0  3  0  0  0  0  0  0
  188.3310  178.6840  139.5800 N   0  0  0  0  0  2  0  0  0  0  0  0
  187.3180  177.9290  139.2570 C   0  0  0  0  0  2  0  0  0  0  0  0
  185.0820  177.7870  137.9430 C   0  0  0  0  0  3  0  0  0  0  0  0
  185.2000  179.1080  139.8910 C   0  0  0  0  0  3  0  0  0  0  0  0
  183.9110  179.5080  139.8020 N   0  0  0  0  0  0  0  0  0  0  0  0
  183.1530  179.0130  138.7470 C   0  0  0  0  0  3  0  0  0  0  0  0
  183.7080  178.1800  137.8130 C   0  0  0  0  0  3  0  0  0  0  0  0
  185.8660  178.2490  139.0120 C   0  0  0  0  0  0  0  0  0  0  0  0
  189.4440  177.0140  140.9620 N   0  0  0  0  0  2  0  0  0  0  0  0
  189.6930  177.7330  142.1970 C   0  0  0  0  0  2  0  0  0  0  0  0
  190.8240  176.9050  142.9750 C   0  0  0  0  0  2  0  0  0  0  0  0
  191.7250  177.6280  145.1990 N   0  0  0  0  0  0  0  0  0  0  0  0
  191.4000  177.8710  143.9700 C   0  0  0  0  0  3  0  0  0  0  0  0
  191.6820  176.4410  146.0470 C   0  0  0  0  0  0  0  0  0  0  0  0
  192.2800  175.4210  145.6410 O   0  0  0  0  0  0  0  0  0  0  0  0
  190.6200  176.5190  147.5410 S   0  0  0  0  0  0  0  0  0  0  0  0
  188.3780  177.1310  145.9720 N   0  0  0  0  0  2  0  0  0  0  0  0
  188.8520  178.6830  147.7260 N   0  0  0  0  0  2  0  0  0  0  0  0
  189.1880  177.5980  147.0600 C   0  0  0  0  0  0  0  0  0  0  0  0
  185.5260  178.4740  143.9040 C   0  0  0  0  0  3  0  0  0  0  0  0
  187.0850  177.6240  145.6280 C   0  0  0  0  0  0  0  0  0  0  0  0
  184.7760  178.3780  146.2630 C   0  0  0  0  0  2  0  0  0  0  0  0
  184.7490  179.2020  144.9600 C   0  0  2  0  0  3  0  0  0  0  0  0
  186.2190  177.9230  146.5780 C   0  0  0  0  0  3  0  0  0  0  0  0
  186.6550  177.7970  144.2150 C   0  0  0  0  0  3  0  0  0  0  0  0
  183.4740  179.4260  144.5460 F   0  0  0  0  0  0  0  0  0  0  0  0
  1 29  1  6  0  0  0
  1 37  1  0  0  0  0
  2  6  1  6  0  0  0
  2  4  1  0  0  0  0
  2  3  1  0  0  0  0
  3  5  1  0  0  0  0
  4  5  1  0  0  0  0
  5  1  1  1  0  0  0
  6 10  1  0  0  0  0
  7 11  1  0  0  0  0
  8  6  2  0  0  0  0
  9  7  2  0  0  0  0
  9  8  1  0  0  0  0
 10 12  1  0  0  0  0
 11 10  2  0  0  0  0
 13 12  1  0  0  0  0
 14 13  1  0  0  0  0
 15 14  1  0  0  0  0
 15 16  1  0  0  0  0
 16 19  1  0  0  0  0
 16 17  2  1  0  0  0
 18 19  1  0  0  0  0
 20 19  1  0  0  0  0
 21 16  1  0  0  0  0
 21 22  1  0  0  0  0
 22 26  1  0  0  0  0
 25 22  1  0  0  0  0
 25 27  1  0  0  0  0
 26 28  1  0  0  0  0
 27 23  1  0  0  0  0
 28 23  1  0  0  0  0
 28 24  1  1  0  0  0
 30 29  1  0  0  0  0
 31 36  1  0  0  0  0
 33 32  1  0  0  0  0
 34 33  2  0  0  0  0
 35 31  2  0  0  0  0
 35 34  1  0  0  0  0
 36 30  1  0  0  0  0
 36 32  2  0  0  0  0
 37 38  1  0  0  0  0
 38 39  1  0  0  0  0
 39 41  1  0  0  0  0
 40 42  1  0  0  0  0
 41 40  2  0  0  0  0
 42 44  1  0  0  0  0
 43 42  2  0  0  0  0
 45 47  1  0  0  0  0
 47 44  1  0  0  0  0
 47 46  2  0  0  0  0
 48 53  2  0  0  0  0
 48 51  1  0  0  0  0
 49 45  1  0  0  0  0
 49 52  2  0  0  0  0
 50 52  1  0  0  0  0
 51 54  1  6  0  0  0
 51 50  1  0  0  0  0
 53 49  1  0  0  0  0
M  END
>  <MODEL>
4

>  <REMARK>
 VINA RESULT:      -7.1      1.847      2.701
  Name = 
  20 active torsions:
  status: ('A' for Active; 'I' for Inactive)
    1  A    between atoms: C_3  and  N_5
    2  A    between atoms: C_3  and  P_11
    3  A    between atoms: N_6  and  C_10
    4  A    between atoms: N_8  and  C_13
    5  A    between atoms: C_9  and  C_22
    6  A    between atoms: C_10  and  S_53
    7  A    between atoms: P_11  and  P_25
    8  A    between atoms: P_11  and  C_35
    9  A    between atoms: C_15  and  N_17
   10  A    between atoms: C_15  and  N_29
   11  A    between atoms: C_15  and  C_48
   12  A    between atoms: N_17  and  C_23
   13  A    between atoms: C_20  and  S_33
   14  A    between atoms: C_20  and  C_34
   15  A    between atoms: C_23  and  C_39
   16  A    between atoms: S_33  and  C_37
   17  A    between atoms: C_34  and  C_35
   18  A    between atoms: C_39  and  C_51
   19  A    between atoms: C_42  and  S_53
   20  A    between atoms: C_45  and  C_47
                            x       y       z     vdW  Elec       q    Type
                         _______ _______ _______ _____ _____    ______ ____

>  <TORSDO>
F 20

$$$$
=
 OpenBabel11042410083D

 54 58  0  0  1  0  0  0  0  0999 V2000
  191.3140  177.1030  140.9580 C   0  0  1  0  0  3  0  0  0  0  0  0
  190.6660  177.5820  144.5920 C   0  0  2  0  0  3  0  0  0  0  0  0
  190.6810  178.4550  143.3110 C   0  0  0  0  0  2  0  0  0  0  0  0
  191.0030  176.3450  143.7030 C   0  0  0  0  0  2  0  0  0  0  0  0
  191.0010  177.2480  142.5150 C   0  0  2  0  0  3  0  0  0  0  0  0
  189.3160  177.5000  145.3640 C   0  0  0  0  0  0  0  0  0  0  0  0
  187.0390  177.9150  147.0370 C   0  0  0  0  0  3  0  0  0  0  0  0
  189.3880  177.5150  146.7860 C   0  0  0  0  0  3  0  0  0  0  0  0
  188.2830  177.7150  147.6100 C   0  0  0  0  0  3  0  0  0  0  0  0
  188.0220  177.6190  144.7760 C   0  0  0  0  0  0  0  0  0  0  0  0
  186.9110  177.8680  145.6260 C   0  0  0  0  0  3  0  0  0  0  0  0
  187.5780  177.3220  143.0040 S   0  0  0  0  0  0  0  0  0  0  0  0
  186.0710  178.3930  143.1280 C   0  0  0  0  0  2  0  0  0  0  0  0
  185.0060  178.5860  142.0190 C   0  0  0  0  0  2  0  0  0  0  0  0
  183.5200  178.3290  142.4770 C   0  0  0  0  0  2  0  0  0  0  0  0
  182.4550  178.4480  140.8920 P   0  0  2  0  0  0  0  0  0  0  0  0
  182.6740  179.5140  139.8210 O   0  0  0  0  0  0  0  0  0  0  0  0
  179.7060  179.1230  140.3400 O   0  0  0  0  0  1  0  0  0  0  0  0
  180.6180  179.1070  141.8760 P   0  0  0  0  0  0  0  0  0  0  0  0
  179.8290  177.7110  142.6310 O   0  0  0  0  0  1  0  0  0  0  0  0
  183.0380  177.0230  139.9490 C   0  0  0  0  0  2  0  0  0  0  0  0
  182.0030  176.4690  139.0090 N   0  0  0  0  0  0  0  0  0  0  0  0
  179.8210  174.5940  138.2760 C   0  0  0  0  0  2  0  0  0  0  0  0
  180.4930  175.6600  136.1520 O   0  0  0  0  0  1  0  0  0  0  0  0
  181.1430  175.7970  139.9960 C   0  0  0  0  0  2  0  0  0  0  0  0
  182.2620  175.4160  137.9920 C   0  0  0  0  0  2  0  0  0  0  0  0
  179.7290  175.6130  139.3930 C   0  0  0  0  0  2  0  0  0  0  0  0
  180.9500  174.9290  137.3340 C   0  0  1  0  0  3  0  0  0  0  0  0
  190.3140  177.8210  140.1070 N   0  0  0  0  0  2  0  0  0  0  0  0
  189.4450  177.0520  139.5140 C   0  0  0  0  0  2  0  0  0  0  0  0
  187.9920  176.9630  137.3630 C   0  0  0  0  0  3  0  0  0  0  0  0
  187.2150  178.1600  139.2370 C   0  0  0  0  0  3  0  0  0  0  0  0
  186.0730  178.5470  138.6250 N   0  0  0  0  0  0  0  0  0  0  0  0
  185.8590  178.1100  137.3230 C   0  0  0  0  0  3  0  0  0  0  0  0
  186.7920  177.3450  136.6750 C   0  0  0  0  0  3  0  0  0  0  0  0
  188.2260  177.3670  138.6860 C   0  0  0  0  0  0  0  0  0  0  0  0
  192.6660  177.5190  140.6710 N   0  0  0  0  0  2  0  0  0  0  0  0
  193.1180  176.7830  139.5050 C   0  0  0  0  0  2  0  0  0  0  0  0
  194.7170  176.7380  139.6000 C   0  0  0  0  0  2  0  0  0  0  0  0
  196.1420  174.6780  139.6910 N   0  0  0  0  0  0  0  0  0  0  0  0
  195.0470  175.3160  139.9520 C   0  0  0  0  0  3  0  0  0  0  0  0
  197.3900  175.0310  139.0210 C   0  0  0  0  0  0  0  0  0  0  0  0
  198.1880  175.7670  139.6410 O   0  0  0  0  0  0  0  0  0  0  0  0
  197.5850  174.4920  137.2780 S   0  0  0  0  0  0  0  0  0  0  0  0
  194.9570  173.9050  136.4980 N   0  0  0  0  0  2  0  0  0  0  0  0
  195.7190  176.1030  135.9490 N   0  0  0  0  0  2  0  0  0  0  0  0
  195.9740  174.9160  136.4580 C   0  0  0  0  0  0  0  0  0  0  0  0
  191.8210  174.7740  134.5940 C   0  0  0  0  0  3  0  0  0  0  0  0
  193.5760  174.1060  136.2070 C   0  0  0  0  0  0  0  0  0  0  0  0
  191.1650  174.1750  136.9060 C   0  0  0  0  0  2  0  0  0  0  0  0
  190.9110  175.1370  135.7290 C   0  0  2  0  0  3  0  0  0  0  0  0
  192.6820  174.0510  137.1760 C   0  0  0  0  0  3  0  0  0  0  0  0
  193.0880  174.3590  134.8250 C   0  0  0  0  0  3  0  0  0  0  0  0
  189.6110  175.0940  135.3300 F   0  0  0  0  0  0  0  0  0  0  0  0
  1 29  1  6  0  0  0
  2  6  1  6  0  0  0
  3  2  1  0  0  0  0
  4  2  1  0  0  0  0
  5  1  1  1  0  0  0
  5  3  1  0  0  0  0
  5  4  1  0  0  0  0
  6  8  1  0  0  0  0
  7  9  1  0  0  0  0
  8  9  2  0  0  0  0
 10  6  2  0  0  0  0
 10 11  1  0  0  0  0
 11  7  2  0  0  0  0
 12 13  1  0  0  0  0
 12 10  1  0  0  0  0
 14 15  1  0  0  0  0
 14 13  1  0  0  0  0
 16 17  2  6  0  0  0
 16 19  1  0  0  0  0
 16 15  1  0  0  0  0
 18 19  1  0  0  0  0
 19 20  1  0  0  0  0
 21 16  1  0  0  0  0
 22 21  1  0  0  0  0
 22 25  1  0  0  0  0
 23 27  1  0  0  0  0
 26 22  1  0  0  0  0
 27 25  1  0  0  0  0
 28 24  1  6  0  0  0
 28 26  1  0  0  0  0
 28 23  1  0  0  0  0
 30 29  1  0  0  0  0
 31 36  1  0  0  0  0
 33 32  1  0  0  0  0
 34 33  2  0  0  0  0
 35 34  1  0  0  0  0
 35 31  2  0  0  0  0
 36 32  2  0  0  0  0
 36 30  1  0  0  0  0
 37  1  1  0  0  0  0
 38 39  1  0  0  0  0
 38 37  1  0  0  0  0
 39 41  1  0  0  0  0
 40 41  2  0  0  0  0
 42 43  2  0  0  0  0
 42 40  1  0  0  0  0
 44 42  1  0  0  0  0
 46 47  2  0  0  0  0
 47 45  1  0  0  0  0
 47 44  1  0  0  0  0
 48 53  2  0  0  0  0
 48 51  1  0  0  0  0
 49 45  1  0  0  0  0
 49 52  2  0  0  0  0
 50 52  1  0  0  0  0
 51 54  1  6  0  0  0
 51 50  1  0  0  0  0
 53 49  1  0  0  0  0
M  END
>  <MODEL>
5

>  <REMARK>
 VINA RESULT:      -6.9      4.013      8.033
  Name = 
  20 active torsions:
  status: ('A' for Active; 'I' for Inactive)
    1  A    between atoms: C_3  and  N_5
    2  A    between atoms: C_3  and  P_11
    3  A    between atoms: N_6  and  C_10
    4  A    between atoms: N_8  and  C_13
    5  A    between atoms: C_9  and  C_22
    6  A    between atoms: C_10  and  S_53
    7  A    between atoms: P_11  and  P_25
    8  A    between atoms: P_11  and  C_35
    9  A    between atoms: C_15  and  N_17
   10  A    between atoms: C_15  and  N_29
   11  A    between atoms: C_15  and  C_48
   12  A    between atoms: N_17  and  C_23
   13  A    between atoms: C_20  and  S_33
   14  A    between atoms: C_20  and  C_34
   15  A    between atoms: C_23  and  C_39
   16  A    between atoms: S_33  and  C_37
   17  A    between atoms: C_34  and  C_35
   18  A    between atoms: C_39  and  C_51
   19  A    between atoms: C_42  and  S_53
   20  A    between atoms: C_45  and  C_47
                            x       y       z     vdW  Elec       q    Type
                         _______ _______ _______ _____ _____    ______ ____

>  <TORSDO>
F 20

$$$$
=
 OpenBabel11042410083D

 54 58  0  0  1  0  0  0  0  0999 V2000
  184.0480  179.0690  143.4300 C   0  0  1  0  0  3  0  0  0  0  0  0
  186.9730  177.3530  144.9650 C   0  0  2  0  0  3  0  0  0  0  0  0
  186.0840  177.1860  143.7060 C   0  0  0  0  0  2  0  0  0  0  0  0
  186.1420  178.6220  145.3320 C   0  0  0  0  0  2  0  0  0  0  0  0
  185.3280  178.3960  144.1020 C   0  0  2  0  0  3  0  0  0  0  0  0
  188.4910  177.5980  144.7180 C   0  0  0  0  0  0  0  0  0  0  0  0
  191.3270  177.4200  144.4380 C   0  0  0  0  0  3  0  0  0  0  0  0
  189.3670  177.3520  145.8130 C   0  0  0  0  0  3  0  0  0  0  0  0
  190.7510  177.2650  145.6860 C   0  0  0  0  0  3  0  0  0  0  0  0
  189.0900  177.8440  143.4480 C   0  0  0  0  0  0  0  0  0  0  0  0
  190.4990  177.7070  143.3240 C   0  0  0  0  0  3  0  0  0  0  0  0
  188.2490  178.4930  141.9320 S   0  0  0  0  0  0  0  0  0  0  0  0
  189.6090  177.8860  140.8290 C   0  0  0  0  0  2  0  0  0  0  0  0
  189.4830  176.7540  139.7800 C   0  0  0  0  0  2  0  0  0  0  0  0
  188.9780  177.2190  138.3610 C   0  0  0  0  0  2  0  0  0  0  0  0
  190.0070  176.2300  137.0870 P   0  0  2  0  0  0  0  0  0  0  0  0
  190.8100  176.8960  135.9710 O   0  0  0  0  0  0  0  0  0  0  0  0
  189.3740  174.5010  134.8680 O   0  0  0  0  0  1  0  0  0  0  0  0
  188.3110  175.3580  136.0210 P   0  0  0  0  0  0  0  0  0  0  0  0
  187.7190  173.9500  136.9210 O   0  0  0  0  0  1  0  0  0  0  0  0
  191.3960  175.6680  138.0940 C   0  0  0  0  0  2  0  0  0  0  0  0
  192.6370  175.3870  137.2900 N   0  0  0  0  0  0  0  0  0  0  0  0
  194.5280  173.5850  135.8800 C   0  0  0  0  0  2  0  0  0  0  0  0
  195.7170  175.7410  136.0740 O   0  0  0  0  0  1  0  0  0  0  0  0
  192.2570  174.0720  136.7490 C   0  0  0  0  0  2  0  0  0  0  0  0
  193.9850  175.1530  137.8700 C   0  0  0  0  0  2  0  0  0  0  0  0
  193.0850  173.7920  135.4700 C   0  0  0  0  0  2  0  0  0  0  0  0
  194.9930  174.6920  136.7920 C   0  0  1  0  0  3  0  0  0  0  0  0
  183.6460  178.3860  142.1610 N   0  0  0  0  0  2  0  0  0  0  0  0
  184.1430  178.9080  141.0750 C   0  0  0  0  0  2  0  0  0  0  0  0
  182.9330  178.2170  138.8830 C   0  0  0  0  0  3  0  0  0  0  0  0
  185.2880  178.2470  138.9470 C   0  0  0  0  0  3  0  0  0  0  0  0
  185.4150  177.8350  137.6650 N   0  0  0  0  0  0  0  0  0  0  0  0
  184.2490  177.6200  136.9390 C   0  0  0  0  0  3  0  0  0  0  0  0
  183.0190  177.7850  137.5180 C   0  0  0  0  0  3  0  0  0  0  0  0
  184.0910  178.4680  139.6340 C   0  0  0  0  0  0  0  0  0  0  0  0
  182.9580  179.1410  144.3730 N   0  0  0  0  0  2  0  0  0  0  0  0
  181.7970  178.5280  143.7560 C   0  0  0  0  0  2  0  0  0  0  0  0
  181.0710  179.6890  142.9220 C   0  0  0  0  0  2  0  0  0  0  0  0
  179.1670  178.4520  141.8620 N   0  0  0  0  0  0  0  0  0  0  0  0
  179.6480  179.2320  142.7750 C   0  0  0  0  0  3  0  0  0  0  0  0
  179.7390  177.7540  140.7140 C   0  0  0  0  0  0  0  0  0  0  0  0
  180.7130  177.0000  140.9260 O   0  0  0  0  0  0  0  0  0  0  0  0
  179.0740  178.1820  139.0590 S   0  0  0  0  0  0  0  0  0  0  0  0
  180.1540  180.3450  137.6400 N   0  0  0  0  0  2  0  0  0  0  0  0
  179.0220  180.9160  139.6650 N   0  0  0  0  0  2  0  0  0  0  0  0
  179.4510  179.9860  138.8380 C   0  0  0  0  0  0  0  0  0  0  0  0
  179.9220  183.2640  135.2660 C   0  0  0  0  0  3  0  0  0  0  0  0
  180.2870  181.6660  137.1200 C   0  0  0  0  0  0  0  0  0  0  0  0
  181.1230  184.0270  137.2940 C   0  0  0  0  0  2  0  0  0  0  0  0
  181.0690  184.0990  135.7550 C   0  0  2  0  0  3  0  0  0  0  0  0
  181.0140  182.5590  137.7640 C   0  0  0  0  0  3  0  0  0  0  0  0
  179.6090  182.0950  135.8680 C   0  0  0  0  0  3  0  0  0  0  0  0
  180.9410  185.3830  135.3270 F   0  0  0  0  0  0  0  0  0  0  0  0
  1 29  1  6  0  0  0
  1 37  1  0  0  0  0
  2  6  1  6  0  0  0
  2  4  1  0  0  0  0
  3  5  1  0  0  0  0
  3  2  1  0  0  0  0
  5  1  1  1  0  0  0
  5  4  1  0  0  0  0
  6  8  1  0  0  0  0
  7  9  1  0  0  0  0
  9  8  2  0  0  0  0
 10  6  2  0  0  0  0
 11 10  1  0  0  0  0
 11  7  2  0  0  0  0
 12 10  1  0  0  0  0
 13 12  1  0  0  0  0
 14 13  1  0  0  0  0
 15 14  1  0  0  0  0
 16 17  2  6  0  0  0
 16 21  1  0  0  0  0
 16 15  1  0  0  0  0
 18 19  1  0  0  0  0
 19 20  1  0  0  0  0
 19 16  1  0  0  0  0
 22 26  1  0  0  0  0
 22 21  1  0  0  0  0
 23 28  1  0  0  0  0
 25 22  1  0  0  0  0
 27 23  1  0  0  0  0
 27 25  1  0  0  0  0
 28 24  1  6  0  0  0
 28 26  1  0  0  0  0
 30 29  1  0  0  0  0
 31 36  1  0  0  0  0
 32 36  2  0  0  0  0
 33 32  1  0  0  0  0
 34 35  1  0  0  0  0
 34 33  2  0  0  0  0
 35 31  2  0  0  0  0
 36 30  1  0  0  0  0
 38 37  1  0  0  0  0
 39 38  1  0  0  0  0
 40 41  2  0  0  0  0
 41 39  1  0  0  0  0
 42 43  2  0  0  0  0
 42 40  1  0  0  0  0
 44 42  1  0  0  0  0
 45 47  1  0  0  0  0
 47 44  1  0  0  0  0
 47 46  2  0  0  0  0
 48 51  1  0  0  0  0
 48 53  2  0  0  0  0
 49 45  1  0  0  0  0
 49 52  2  0  0  0  0
 50 52  1  0  0  0  0
 51 54  1  1  0  0  0
 51 50  1  0  0  0  0
 53 49  1  0  0  0  0
M  END
>  <MODEL>
6

>  <REMARK>
 VINA RESULT:      -6.8      4.379      9.520
  Name = 
  20 active torsions:
  status: ('A' for Active; 'I' for Inactive)
    1  A    between atoms: C_3  and  N_5
    2  A    between atoms: C_3  and  P_11
    3  A    between atoms: N_6  and  C_10
    4  A    between atoms: N_8  and  C_13
    5  A    between atoms: C_9  and  C_22
    6  A    between atoms: C_10  and  S_53
    7  A    between atoms: P_11  and  P_25
    8  A    between atoms: P_11  and  C_35
    9  A    between atoms: C_15  and  N_17
   10  A    between atoms: C_15  and  N_29
   11  A    between atoms: C_15  and  C_48
   12  A    between atoms: N_17  and  C_23
   13  A    between atoms: C_20  and  S_33
   14  A    between atoms: C_20  and  C_34
   15  A    between atoms: C_23  and  C_39
   16  A    between atoms: S_33  and  C_37
   17  A    between atoms: C_34  and  C_35
   18  A    between atoms: C_39  and  C_51
   19  A    between atoms: C_42  and  S_53
   20  A    between atoms: C_45  and  C_47
                            x       y       z     vdW  Elec       q    Type
                         _______ _______ _______ _____ _____    ______ ____

>  <TORSDO>
F 20

$$$$
=
 OpenBabel11042410083D

 54 58  0  0  1  0  0  0  0  0999 V2000
  190.3090  176.8180  140.8470 C   0  0  1  0  0  3  0  0  0  0  0  0
  190.0910  177.5480  144.4910 C   0  0  2  0  0  3  0  0  0  0  0  0
  189.9140  178.3230  143.1600 C   0  0  0  0  0  2  0  0  0  0  0  0
  190.3670  176.2590  143.6560 C   0  0  0  0  0  2  0  0  0  0  0  0
  190.1820  177.0700  142.4170 C   0  0  2  0  0  3  0  0  0  0  0  0
  188.8500  177.4820  145.4290 C   0  0  0  0  0  0  0  0  0  0  0  0
  186.8360  177.9000  147.4110 C   0  0  0  0  0  3  0  0  0  0  0  0
  189.1060  177.4040  146.8270 C   0  0  0  0  0  3  0  0  0  0  0  0
  188.1300  177.6040  147.8010 C   0  0  0  0  0  3  0  0  0  0  0  0
  187.5000  177.7000  145.0260 C   0  0  0  0  0  0  0  0  0  0  0  0
  186.5240  177.9480  146.0290 C   0  0  0  0  0  3  0  0  0  0  0  0
  186.8140  177.5390  143.3150 S   0  0  0  0  0  0  0  0  0  0  0  0
  185.2070  178.3210  143.8070 C   0  0  0  0  0  2  0  0  0  0  0  0
  184.2470  179.0850  142.8620 C   0  0  0  0  0  2  0  0  0  0  0  0
  182.7230  178.7200  143.0290 C   0  0  0  0  0  2  0  0  0  0  0  0
  182.0260  178.5560  141.2550 P   0  0  2  0  0  0  0  0  0  0  0  0
  182.5440  179.3800  140.0780 O   0  0  0  0  0  0  0  0  0  0  0  0
  179.4710  177.9740  142.4600 O   0  0  0  0  0  1  0  0  0  0  0  0
  180.0790  179.4580  141.6700 P   0  0  0  0  0  0  0  0  0  0  0  0
  180.2080  180.4830  143.1100 O   0  0  0  0  0  1  0  0  0  0  0  0
  182.6850  176.9530  140.7480 C   0  0  0  0  0  2  0  0  0  0  0  0
  182.1790  176.5010  139.4050 N   0  0  0  0  0  0  0  0  0  0  0  0
  180.6330  174.6940  137.6280 C   0  0  0  0  0  2  0  0  0  0  0  0
  182.0610  176.0200  136.1120 O   0  0  0  0  0  1  0  0  0  0  0  0
  181.0300  175.7000  139.8600 C   0  0  0  0  0  2  0  0  0  0  0  0
  182.9080  175.5830  138.4920 C   0  0  0  0  0  2  0  0  0  0  0  0
  180.0140  175.5680  138.6990 C   0  0  0  0  0  2  0  0  0  0  0  0
  182.0280  175.1590  137.2930 C   0  0  1  0  0  3  0  0  0  0  0  0
  189.1690  177.4140  140.0820 N   0  0  0  0  0  2  0  0  0  0  0  0
  188.8520  176.7820  138.9870 C   0  0  0  0  0  2  0  0  0  0  0  0
  187.6500  176.4510  136.7090 C   0  0  0  0  0  3  0  0  0  0  0  0
  186.6240  177.7540  138.3830 C   0  0  0  0  0  3  0  0  0  0  0  0
  185.5410  178.0340  137.6220 N   0  0  0  0  0  0  0  0  0  0  0  0
  185.4890  177.4850  136.3460 C   0  0  0  0  0  3  0  0  0  0  0  0
  186.5170  176.7170  135.8680 C   0  0  0  0  0  3  0  0  0  0  0  0
  187.7190  176.9700  138.0100 C   0  0  0  0  0  0  0  0  0  0  0  0
  191.5860  177.2800  140.3600 N   0  0  0  0  0  2  0  0  0  0  0  0
  191.5450  177.2460  138.9100 C   0  0  0  0  0  2  0  0  0  0  0  0
  192.4840  176.0240  138.4680 C   0  0  0  0  0  2  0  0  0  0  0  0
  191.4160  174.4300  136.8560 N   0  0  0  0  0  0  0  0  0  0  0  0
  191.5360  174.9410  138.0380 C   0  0  0  0  0  3  0  0  0  0  0  0
  192.0790  174.6580  135.5750 C   0  0  0  0  0  0  0  0  0  0  0  0
  191.8770  175.7550  135.0110 O   0  0  0  0  0  0  0  0  0  0  0  0
  193.0070  173.2520  134.8510 S   0  0  0  0  0  0  0  0  0  0  0  0
  194.9470  174.3460  136.5540 N   0  0  0  0  0  2  0  0  0  0  0  0
  195.3110  172.0710  135.9200 N   0  0  0  0  0  2  0  0  0  0  0  0
  194.5900  173.1680  135.8180 C   0  0  0  0  0  0  0  0  0  0  0  0
  196.4950  174.7600  139.9660 C   0  0  0  0  0  3  0  0  0  0  0  0
  195.9340  174.4160  137.5800 C   0  0  0  0  0  0  0  0  0  0  0  0
  198.3280  174.4060  138.3380 C   0  0  0  0  0  2  0  0  0  0  0  0
  197.8780  175.1970  139.5820 C   0  0  2  0  0  3  0  0  0  0  0  0
  197.2150  174.4190  137.2650 C   0  0  0  0  0  3  0  0  0  0  0  0
  195.5730  174.4640  139.0220 C   0  0  0  0  0  3  0  0  0  0  0  0
  198.7400  175.0170  140.6170 F   0  0  0  0  0  0  0  0  0  0  0  0
  1 29  1  6  0  0  0
  2  6  1  1  0  0  0
  3  2  1  0  0  0  0
  4  2  1  0  0  0  0
  5  1  1  6  0  0  0
  5  3  1  0  0  0  0
  5  4  1  0  0  0  0
  6  8  1  0  0  0  0
  7  9  1  0  0  0  0
  8  9  2  0  0  0  0
 10  6  2  0  0  0  0
 10 11  1  0  0  0  0
 11  7  2  0  0  0  0
 12 13  1  0  0  0  0
 12 10  1  0  0  0  0
 14 15  1  0  0  0  0
 14 13  1  0  0  0  0
 16 17  2  6  0  0  0
 16 19  1  0  0  0  0
 16 15  1  0  0  0  0
 19 18  1  0  0  0  0
 19 20  1  0  0  0  0
 21 16  1  0  0  0  0
 22 25  1  0  0  0  0
 22 21  1  0  0  0  0
 23 27  1  0  0  0  0
 26 22  1  0  0  0  0
 27 25  1  0  0  0  0
 28 24  1  6  0  0  0
 28 23  1  0  0  0  0
 28 26  1  0  0  0  0
 30 29  1  0  0  0  0
 31 36  1  0  0  0  0
 33 32  1  0  0  0  0
 34 33  2  0  0  0  0
 35 34  1  0  0  0  0
 35 31  2  0  0  0  0
 36 32  2  0  0  0  0
 36 30  1  0  0  0  0
 37  1  1  0  0  0  0
 38 37  1  0  0  0  0
 39 38  1  0  0  0  0
 40 41  2  0  0  0  0
 41 39  1  0  0  0  0
 42 40  1  0  0  0  0
 43 42  2  0  0  0  0
 44 42  1  0  0  0  0
 44 47  1  0  0  0  0
 45 49  1  0  0  0  0
 47 46  2  0  0  0  0
 47 45  1  0  0  0  0
 49 53  1  0  0  0  0
 50 51  1  0  0  0  0
 51 48  1  0  0  0  0
 51 54  1  1  0  0  0
 52 49  2  0  0  0  0
 52 50  1  0  0  0  0
 53 48  2  0  0  0  0
M  END
>  <MODEL>
7

>  <REMARK>
 VINA RESULT:      -6.7      4.461      8.724
  Name = 
  20 active torsions:
  status: ('A' for Active; 'I' for Inactive)
    1  A    between atoms: C_3  and  N_5
    2  A    between atoms: C_3  and  P_11
    3  A    between atoms: N_6  and  C_10
    4  A    between atoms: N_8  and  C_13
    5  A    between atoms: C_9  and  C_22
    6  A    between atoms: C_10  and  S_53
    7  A    between atoms: P_11  and  P_25
    8  A    between atoms: P_11  and  C_35
    9  A    between atoms: C_15  and  N_17
   10  A    between atoms: C_15  and  N_29
   11  A    between atoms: C_15  and  C_48
   12  A    between atoms: N_17  and  C_23
   13  A    between atoms: C_20  and  S_33
   14  A    between atoms: C_20  and  C_34
   15  A    between atoms: C_23  and  C_39
   16  A    between atoms: S_33  and  C_37
   17  A    between atoms: C_34  and  C_35
   18  A    between atoms: C_39  and  C_51
   19  A    between atoms: C_42  and  S_53
   20  A    between atoms: C_45  and  C_47
                            x       y       z     vdW  Elec       q    Type
                         _______ _______ _______ _____ _____    ______ ____

>  <TORSDO>
F 20

$$$$
=
 OpenBabel11042410083D

 54 58  0  0  1  0  0  0  0  0999 V2000
  184.3480  179.0490  143.8220 C   0  0  1  0  0  3  0  0  0  0  0  0
  187.1770  177.3520  145.5490 C   0  0  2  0  0  3  0  0  0  0  0  0
  186.2580  177.0830  144.3300 C   0  0  0  0  0  2  0  0  0  0  0  0
  186.4390  178.7120  145.7510 C   0  0  0  0  0  2  0  0  0  0  0  0
  185.5920  178.3840  144.5680 C   0  0  2  0  0  3  0  0  0  0  0  0
  188.7030  177.4580  145.2600 C   0  0  0  0  0  0  0  0  0  0  0  0
  191.5190  177.0580  145.0000 C   0  0  0  0  0  3  0  0  0  0  0  0
  189.5770  177.3310  146.3770 C   0  0  0  0  0  3  0  0  0  0  0  0
  190.9520  177.1380  146.2600 C   0  0  0  0  0  3  0  0  0  0  0  0
  189.2990  177.4640  143.9650 C   0  0  0  0  0  0  0  0  0  0  0  0
  190.6950  177.2200  143.8580 C   0  0  0  0  0  3  0  0  0  0  0  0
  188.4790  177.9200  142.3690 S   0  0  0  0  0  0  0  0  0  0  0  0
  189.9210  177.3200  141.3730 C   0  0  0  0  0  2  0  0  0  0  0  0
  189.8400  176.6470  139.9800 C   0  0  0  0  0  2  0  0  0  0  0  0
  190.7120  177.3340  138.8600 C   0  0  0  0  0  2  0  0  0  0  0  0
  191.3250  175.9180  137.7300 P   0  0  2  0  0  0  0  0  0  0  0  0
  190.9960  174.4480  137.9860 O   0  0  0  0  0  0  0  0  0  0  0  0
  193.8080  177.1370  136.9150 O   0  0  0  0  0  1  0  0  0  0  0  0
  193.4350  176.0540  138.2860 P   0  0  0  0  0  0  0  0  0  0  0  0
  193.6150  177.2290  139.6010 O   0  0  0  0  0  1  0  0  0  0  0  0
  190.3040  176.1520  136.2600 C   0  0  0  0  0  2  0  0  0  0  0  0
  189.0090  175.3870  136.3090 N   0  0  0  0  0  0  0  0  0  0  0  0
  186.8230  173.7970  135.0820 C   0  0  0  0  0  2  0  0  0  0  0  0
  185.9770  174.4410  137.3110 O   0  0  0  0  0  1  0  0  0  0  0  0
  189.1700  174.6000  135.0760 C   0  0  0  0  0  2  0  0  0  0  0  0
  187.6620  175.9960  136.1650 C   0  0  0  0  0  2  0  0  0  0  0  0
  188.2670  173.3440  135.1560 C   0  0  0  0  0  2  0  0  0  0  0  0
  186.5600  174.9170  136.0570 C   0  0  1  0  0  3  0  0  0  0  0  0
  184.0850  178.4250  142.4880 N   0  0  0  0  0  2  0  0  0  0  0  0
  184.7610  178.9390  141.4990 C   0  0  0  0  0  2  0  0  0  0  0  0
  186.0350  178.6370  139.2560 C   0  0  0  0  0  3  0  0  0  0  0  0
  183.7590  178.0420  139.3850 C   0  0  0  0  0  3  0  0  0  0  0  0
  183.6970  177.6570  138.0900 N   0  0  0  0  0  0  0  0  0  0  0  0
  184.8610  177.7430  137.3350 C   0  0  0  0  0  3  0  0  0  0  0  0
  186.0180  178.2340  137.8790 C   0  0  0  0  0  3  0  0  0  0  0  0
  184.8840  178.5380  140.0510 C   0  0  0  0  0  0  0  0  0  0  0  0
  183.1790  179.0280  144.6680 N   0  0  0  0  0  2  0  0  0  0  0  0
  182.0950  178.4330  143.9100 C   0  0  0  0  0  2  0  0  0  0  0  0
  181.5800  179.5680  142.9020 C   0  0  0  0  0  2  0  0  0  0  0  0
  179.3260  178.6260  142.3440 N   0  0  0  0  0  0  0  0  0  0  0  0
  180.0810  179.4830  142.9510 C   0  0  0  0  0  3  0  0  0  0  0  0
  179.5790  177.4960  141.4550 C   0  0  0  0  0  0  0  0  0  0  0  0
  179.6770  176.3640  141.9760 O   0  0  0  0  0  0  0  0  0  0  0  0
  179.8890  177.8770  139.6870 S   0  0  0  0  0  0  0  0  0  0  0  0
  180.4420  176.1900  137.5170 N   0  0  0  0  0  2  0  0  0  0  0  0
  181.0340  175.3210  139.6630 N   0  0  0  0  0  2  0  0  0  0  0  0
  180.4930  176.2840  138.9480 C   0  0  0  0  0  0  0  0  0  0  0  0
  181.6210  172.8300  136.2790 C   0  0  0  0  0  3  0  0  0  0  0  0
  181.1100  175.2100  136.7260 C   0  0  0  0  0  0  0  0  0  0  0  0
  182.6890  174.5730  134.8810 C   0  0  0  0  0  2  0  0  0  0  0  0
  182.8990  173.2280  135.6020 C   0  0  2  0  0  3  0  0  0  0  0  0
  181.9980  175.5840  135.8250 C   0  0  0  0  0  3  0  0  0  0  0  0
  180.8270  173.7560  136.8620 C   0  0  0  0  0  3  0  0  0  0  0  0
  183.3000  172.2610  134.7340 F   0  0  0  0  0  0  0  0  0  0  0  0
  1 29  1  6  0  0  0
  1 37  1  0  0  0  0
  2  6  1  6  0  0  0
  2  4  1  0  0  0  0
  3  5  1  0  0  0  0
  3  2  1  0  0  0  0
  5  1  1  1  0  0  0
  5  4  1  0  0  0  0
  6  8  1  0  0  0  0
  7  9  1  0  0  0  0
  9  8  2  0  0  0  0
 10  6  2  0  0  0  0
 11 10  1  0  0  0  0
 11  7  2  0  0  0  0
 12 10  1  0  0  0  0
 13 12  1  0  0  0  0
 14 13  1  0  0  0  0
 15 14  1  0  0  0  0
 16 17  2  1  0  0  0
 16 19  1  0  0  0  0
 16 15  1  0  0  0  0
 18 19  1  0  0  0  0
 19 20  1  0  0  0  0
 21 22  1  0  0  0  0
 21 16  1  0  0  0  0
 23 27  1  0  0  0  0
 23 28  1  0  0  0  0
 25 27  1  0  0  0  0
 25 22  1  0  0  0  0
 26 22  1  0  0  0  0
 28 26  1  0  0  0  0
 28 24  1  1  0  0  0
 30 29  1  0  0  0  0
 31 36  1  0  0  0  0
 32 36  2  0  0  0  0
 33 32  1  0  0  0  0
 34 35  1  0  0  0  0
 34 33  2  0  0  0  0
 35 31  2  0  0  0  0
 36 30  1  0  0  0  0
 38 37  1  0  0  0  0
 39 41  1  0  0  0  0
 39 38  1  0  0  0  0
 40 41  2  0  0  0  0
 42 43  2  0  0  0  0
 42 40  1  0  0  0  0
 44 42  1  0  0  0  0
 45 47  1  0  0  0  0
 47 46  2  0  0  0  0
 47 44  1  0  0  0  0
 48 53  2  0  0  0  0
 49 53  1  0  0  0  0
 49 45  1  0  0  0  0
 50 51  1  0  0  0  0
 50 52  1  0  0  0  0
 51 54  1  6  0  0  0
 51 48  1  0  0  0  0
 52 49  2  0  0  0  0
M  END
>  <MODEL>
8

>  <REMARK>
 VINA RESULT:      -6.5      4.019      8.738
  Name = 
  20 active torsions:
  status: ('A' for Active; 'I' for Inactive)
    1  A    between atoms: C_3  and  N_5
    2  A    between atoms: C_3  and  P_11
    3  A    between atoms: N_6  and  C_10
    4  A    between atoms: N_8  and  C_13
    5  A    between atoms: C_9  and  C_22
    6  A    between atoms: C_10  and  S_53
    7  A    between atoms: P_11  and  P_25
    8  A    between atoms: P_11  and  C_35
    9  A    between atoms: C_15  and  N_17
   10  A    between atoms: C_15  and  N_29
   11  A    between atoms: C_15  and  C_48
   12  A    between atoms: N_17  and  C_23
   13  A    between atoms: C_20  and  S_33
   14  A    between atoms: C_20  and  C_34
   15  A    between atoms: C_23  and  C_39
   16  A    between atoms: S_33  and  C_37
   17  A    between atoms: C_34  and  C_35
   18  A    between atoms: C_39  and  C_51
   19  A    between atoms: C_42  and  S_53
   20  A    between atoms: C_45  and  C_47
                            x       y       z     vdW  Elec       q    Type
                         _______ _______ _______ _____ _____    ______ ____

>  <TORSDO>
F 20

$$$$
=
 OpenBabel11042410083D

 54 58  0  0  1  0  0  0  0  0999 V2000
  185.7700  177.9290  144.4150 C   0  0  1  0  0  3  0  0  0  0  0  0
  187.4860  178.7970  141.2270 C   0  0  2  0  0  3  0  0  0  0  0  0
  187.6460  177.7520  142.3600 C   0  0  0  0  0  2  0  0  0  0  0  0
  186.2250  179.3430  141.9650 C   0  0  0  0  0  2  0  0  0  0  0  0
  186.4430  178.3100  143.0190 C   0  0  2  0  0  3  0  0  0  0  0  0
  187.2310  178.2390  139.7960 C   0  0  0  0  0  0  0  0  0  0  0  0
  186.5920  177.8320  137.0420 C   0  0  0  0  0  3  0  0  0  0  0  0
  185.9170  178.3970  139.2700 C   0  0  0  0  0  3  0  0  0  0  0  0
  185.5960  178.1990  137.9290 C   0  0  0  0  0  3  0  0  0  0  0  0
  188.2390  177.7760  138.9000 C   0  0  0  0  0  0  0  0  0  0  0  0
  187.9080  177.6220  137.5260 C   0  0  0  0  0  3  0  0  0  0  0  0
  189.9330  177.1820  139.3490 S   0  0  0  0  0  0  0  0  0  0  0  0
  190.4190  176.9970  137.5700 C   0  0  0  0  0  2  0  0  0  0  0  0
  191.7350  176.3650  137.0540 C   0  0  0  0  0  2  0  0  0  0  0  0
  191.6520  175.7550  135.6030 C   0  0  0  0  0  2  0  0  0  0  0  0
  191.7880  173.8590  135.8220 P   0  0  2  0  0  0  0  0  0  0  0  0
  192.5040  172.9560  134.8200 O   0  0  0  0  0  0  0  0  0  0  0  0
  189.3420  173.2200  137.2090 O   0  0  0  0  0  1  0  0  0  0  0  0
  189.6780  173.4160  135.4650 P   0  0  0  0  0  0  0  0  0  0  0  0
  188.8010  174.9350  135.2030 O   0  0  0  0  0  1  0  0  0  0  0  0
  192.9800  173.7300  137.1720 C   0  0  0  0  0  2  0  0  0  0  0  0
  194.4050  173.9120  136.7250 N   0  0  0  0  0  0  0  0  0  0  0  0
  197.3020  173.2660  136.7800 C   0  0  0  0  0  2  0  0  0  0  0  0
  197.1410  175.3970  135.5420 O   0  0  0  0  0  1  0  0  0  0  0  0
  194.9400  172.6090  137.1520 C   0  0  0  0  0  2  0  0  0  0  0  0
  195.3560  174.8920  137.3110 C   0  0  0  0  0  2  0  0  0  0  0  0
  196.2220  172.2980  136.3420 C   0  0  0  0  0  2  0  0  0  0  0  0
  196.7900  174.6840  136.7690 C   0  0  1  0  0  3  0  0  0  0  0  0
  186.7650  177.3980  145.3990 N   0  0  0  0  0  2  0  0  0  0  0  0
  188.0110  177.5130  145.0360 C   0  0  0  0  0  2  0  0  0  0  0  0
  190.5020  176.7930  145.1840 C   0  0  0  0  0  3  0  0  0  0  0  0
  189.3400  177.3600  147.1540 C   0  0  0  0  0  3  0  0  0  0  0  0
  190.4060  177.1250  147.9540 N   0  0  0  0  0  0  0  0  0  0  0  0
  191.5900  176.7210  147.3480 C   0  0  0  0  0  3  0  0  0  0  0  0
  191.6600  176.5360  145.9920 C   0  0  0  0  0  3  0  0  0  0  0  0
  189.3000  177.2250  145.7630 C   0  0  0  0  0  0  0  0  0  0  0  0
  185.0310  179.0490  144.9440 N   0  0  0  0  0  2  0  0  0  0  0  0
  183.6370  178.6570  145.0340 C   0  0  0  0  0  2  0  0  0  0  0  0
  182.8230  179.6910  144.1190 C   0  0  0  0  0  2  0  0  0  0  0  0
  181.6590  178.6530  142.1580 N   0  0  0  0  0  0  0  0  0  0  0  0
  182.7320  179.0320  142.7730 C   0  0  0  0  0  3  0  0  0  0  0  0
  180.2340  178.7030  142.4720 C   0  0  0  0  0  0  0  0  0  0  0  0
  179.9140  178.9610  143.6520 O   0  0  0  0  0  0  0  0  0  0  0  0
  179.0670  178.2210  141.1410 S   0  0  0  0  0  0  0  0  0  0  0  0
  180.8690  176.3940  140.0120 N   0  0  0  0  0  2  0  0  0  0  0  0
  180.1690  178.1650  138.5670 N   0  0  0  0  0  2  0  0  0  0  0  0
  180.1390  177.6030  139.7570 C   0  0  0  0  0  0  0  0  0  0  0  0
  183.5310  175.0470  137.7070 C   0  0  0  0  0  3  0  0  0  0  0  0
  181.5070  175.5870  139.0250 C   0  0  0  0  0  0  0  0  0  0  0  0
  181.4440  173.7840  137.2780 C   0  0  0  0  0  2  0  0  0  0  0  0
  182.6750  174.4480  136.6310 C   0  0  2  0  0  3  0  0  0  0  0  0
  180.7940  174.7450  138.3010 C   0  0  0  0  0  3  0  0  0  0  0  0
  182.9740  175.6390  138.7880 C   0  0  0  0  0  3  0  0  0  0  0  0
  183.3880  173.5520  135.8970 F   0  0  0  0  0  0  0  0  0  0  0  0
  1 37  1  1  0  0  0
  1 29  1  0  0  0  0
  2  6  1  6  0  0  0
  2  4  1  0  0  0  0
  2  3  1  0  0  0  0
  3  5  1  0  0  0  0
  4  5  1  0  0  0  0
  5  1  1  1  0  0  0
  7 11  2  0  0  0  0
  7  9  1  0  0  0  0
  8  6  1  0  0  0  0
  9  8  2  0  0  0  0
 10 12  1  0  0  0  0
 10  6  2  0  0  0  0
 11 10  1  0  0  0  0
 13 12  1  0  0  0  0
 14 13  1  0  0  0  0
 15 16  1  0  0  0  0
 15 14  1  0  0  0  0
 16 17  2  6  0  0  0
 16 21  1  0  0  0  0
 19 16  1  0  0  0  0
 19 18  1  0  0  0  0
 20 19  1  0  0  0  0
 22 25  1  0  0  0  0
 22 21  1  0  0  0  0
 22 26  1  0  0  0  0
 27 23  1  0  0  0  0
 27 25  1  0  0  0  0
 28 24  1  6  0  0  0
 28 23  1  0  0  0  0
 28 26  1  0  0  0  0
 30 29  1  0  0  0  0
 30 36  1  0  0  0  0
 31 36  2  0  0  0  0
 31 35  1  0  0  0  0
 32 33  2  0  0  0  0
 34 33  1  0  0  0  0
 35 34  2  0  0  0  0
 36 32  1  0  0  0  0
 37 38  1  0  0  0  0
 39 38  1  0  0  0  0
 40 42  1  0  0  0  0
 40 41  2  0  0  0  0
 41 39  1  0  0  0  0
 42 43  2  0  0  0  0
 44 42  1  0  0  0  0
 46 47  2  0  0  0  0
 47 45  1  0  0  0  0
 47 44  1  0  0  0  0
 48 53  2  0  0  0  0
 49 45  1  0  0  0  0
 50 52  1  0  0  0  0
 51 54  1  1  0  0  0
 51 50  1  0  0  0  0
 51 48  1  0  0  0  0
 52 49  2  0  0  0  0
 53 49  1  0  0  0  0
M  END
>  <MODEL>
9

>  <REMARK>
 VINA RESULT:      -6.4      4.213      9.720
  Name = 
  20 active torsions:
  status: ('A' for Active; 'I' for Inactive)
    1  A    between atoms: C_3  and  N_5
    2  A    between atoms: C_3  and  P_11
    3  A    between atoms: N_6  and  C_10
    4  A    between atoms: N_8  and  C_13
    5  A    between atoms: C_9  and  C_22
    6  A    between atoms: C_10  and  S_53
    7  A    between atoms: P_11  and  P_25
    8  A    between atoms: P_11  and  C_35
    9  A    between atoms: C_15  and  N_17
   10  A    between atoms: C_15  and  N_29
   11  A    between atoms: C_15  and  C_48
   12  A    between atoms: N_17  and  C_23
   13  A    between atoms: C_20  and  S_33
   14  A    between atoms: C_20  and  C_34
   15  A    between atoms: C_23  and  C_39
   16  A    between atoms: S_33  and  C_37
   17  A    between atoms: C_34  and  C_35
   18  A    between atoms: C_39  and  C_51
   19  A    between atoms: C_42  and  S_53
   20  A    between atoms: C_45  and  C_47
                            x       y       z     vdW  Elec       q    Type
                         _______ _______ _______ _____ _____    ______ ____

>  <TORSDO>
F 20

$$$$
