=
 OpenBabel11042410233D

 29 33  0  0  1  0  0  0  0  0999 V2000
  184.5960  179.0300  143.4340 C   0  0  0  0  0  3  0  0  0  0  0  0
  190.6900  177.7300  140.7080 C   0  0  0  0  0  2  0  0  0  0  0  0
  186.6460  178.1920  146.8800 C   0  0  0  0  0  0  0  0  0  0  0  0
  188.8480  176.2070  143.2370 C   0  0  0  0  0  3  0  0  0  0  0  0
  184.3360  179.0120  140.9870 N   0  0  0  0  0  0  0  0  0  0  0  0
  186.4950  178.5590  141.8630 C   0  0  0  0  0  3  0  0  0  0  0  0
  189.3930  178.8560  142.3550 O   0  0  0  0  0  1  0  0  0  0  0  0
  188.3460  176.8730  145.5630 C   0  0  2  0  0  3  0  0  0  0  0  0
  184.0040  179.0770  138.6610 F   0  0  0  0  0  0  0  0  0  0  0  0
  188.7290  177.5610  147.9000 C   0  0  0  0  0  3  0  0  0  0  0  0
  190.4110  177.6810  139.2110 C   0  0  2  0  0  3  0  0  0  0  0  0
  186.1450  178.6270  139.5190 N   0  0  0  0  0  0  0  0  0  0  0  0
  187.1150  177.7310  145.6420 C   0  0  0  0  0  0  0  0  0  0  0  0
  186.9940  178.4510  140.5690 C   0  0  0  0  0  0  0  0  0  0  0  0
  184.8270  178.9020  139.7220 C   0  0  0  0  0  0  0  0  0  0  0  0
  188.9780  178.1510  139.0250 C   0  0  0  0  0  2  0  0  0  0  0  0
  186.3950  177.9940  144.5260 N   0  0  0  0  0  0  0  0  0  0  0  0
  184.7160  179.0700  145.8100 C   0  0  0  0  0  3  0  0  0  0  0  0
  189.3450  177.8350  141.4010 C   0  0  1  0  0  0  0  0  0  0  0  0
  188.3900  178.1720  140.3500 N   0  0  0  0  0  0  0  0  0  0  0  0
  188.9940  176.5340  141.9850 N   0  0  0  0  0  0  0  0  0  0  0  0
  189.2250  177.0380  146.7720 C   0  0  0  0  0  3  0  0  0  0  0  0
  185.2280  178.6870  144.5650 C   0  0  0  0  0  0  0  0  0  0  0  0
  185.1410  178.8340  142.0680 C   0  0  0  0  0  0  0  0  0  0  0  0
  187.3860  178.0830  147.9470 N   0  0  0  0  0  0  0  0  0  0  0  0
  189.0640  177.1120  144.3200 N   0  0  0  0  0  2  0  0  0  0  0  0
  185.4380  178.8190  146.9390 N   0  0  0  0  0  0  0  0  0  0  0  0
  192.2260  176.2490  137.9570 C   0  0  0  0  0  1  0  0  0  0  0  0
  190.5640  175.9650  138.6320 S   0  0  0  0  0  0  0  0  0  0  0  0
  1 23  2  0  0  0  0
  2 19  1  0  0  0  0
  3 27  1  0  0  0  0
  3 25  2  0  0  0  0
  4 26  1  0  0  0  0
  5 24  1  0  0  0  0
  6 24  2  0  0  0  0
  8 13  1  0  0  0  0
  8 22  1  1  0  0  0
  9 15  1  0  0  0  0
 10 25  1  0  0  0  0
 11 29  1  1  0  0  0
 11  2  1  0  0  0  0
 12 15  1  0  0  0  0
 12 14  2  0  0  0  0
 13  3  1  0  0  0  0
 14  6  1  0  0  0  0
 15  5  2  0  0  0  0
 16 11  1  0  0  0  0
 16 20  1  0  0  0  0
 17 23  1  0  0  0  0
 17 13  2  0  0  0  0
 18 27  2  0  0  0  0
 19 21  1  0  0  0  0
 19  7  1  1  0  0  0
 20 14  1  0  0  0  0
 20 19  1  0  0  0  0
 21  4  2  0  0  0  0
 22 10  2  0  0  0  0
 23 18  1  0  0  0  0
 24  1  1  0  0  0  0
 26  8  1  0  0  0  0
 28 29  1  0  0  0  0
M  END
>  <MODEL>
1

>  <REMARK>
 VINA RESULT:     -10.2      0.000      0.000
  Name = 
  1 active torsions:
  status: ('A' for Active; 'I' for Inactive)
    1  A    between atoms: C_11  and  S_24
                            x       y       z     vdW  Elec       q    Type
                         _______ _______ _______ _____ _____    ______ ____

>  <TORSDO>
F 1

$$$$
=
 OpenBabel11042410233D

 29 33  0  0  1  0  0  0  0  0999 V2000
  184.9410  178.7760  144.5720 C   0  0  0  0  0  3  0  0  0  0  0  0
  190.0410  177.9600  140.1460 C   0  0  0  0  0  2  0  0  0  0  0  0
  187.9300  177.8920  147.2310 C   0  0  0  0  0  0  0  0  0  0  0  0
  189.0700  176.2140  142.9940 C   0  0  0  0  0  3  0  0  0  0  0  0
  183.9890  178.8610  142.3040 N   0  0  0  0  0  0  0  0  0  0  0  0
  186.3260  178.4910  142.4980 C   0  0  0  0  0  3  0  0  0  0  0  0
  189.2270  178.9300  142.1610 O   0  0  0  0  0  1  0  0  0  0  0  0
  189.2320  176.7370  145.4040 C   0  0  2  0  0  3  0  0  0  0  0  0
  182.9990  179.0180  140.1780 F   0  0  0  0  0  0  0  0  0  0  0  0
  190.2420  177.3330  147.5730 C   0  0  0  0  0  3  0  0  0  0  0  0
  189.3450  177.9670  138.7900 C   0  0  2  0  0  3  0  0  0  0  0  0
  185.3140  178.6510  140.3600 N   0  0  0  0  0  0  0  0  0  0  0  0
  188.0410  177.5190  145.8840 C   0  0  0  0  0  0  0  0  0  0  0  0
  186.4350  178.4740  141.1110 C   0  0  0  0  0  0  0  0  0  0  0  0
  184.0990  178.8400  140.9470 C   0  0  0  0  0  0  0  0  0  0  0  0
  187.9010  178.3630  139.0510 C   0  0  0  0  0  2  0  0  0  0  0  0
  187.0200  177.7930  145.0390 N   0  0  0  0  0  0  0  0  0  0  0  0
  185.7390  178.7080  146.8120 C   0  0  0  0  0  3  0  0  0  0  0  0
  188.9500  177.9550  141.1990 C   0  0  1  0  0  0  0  0  0  0  0  0
  187.7190  178.2870  140.4860 N   0  0  0  0  0  0  0  0  0  0  0  0
  188.8350  176.6090  141.7760 N   0  0  0  0  0  0  0  0  0  0  0  0
  190.4130  176.8950  146.3200 C   0  0  0  0  0  3  0  0  0  0  0  0
  185.8860  178.4150  145.4520 C   0  0  0  0  0  0  0  0  0  0  0  0
  185.0780  178.6770  143.0980 C   0  0  0  0  0  0  0  0  0  0  0  0
  188.9490  177.7740  148.0330 N   0  0  0  0  0  0  0  0  0  0  0  0
  189.5510  177.0770  144.0250 N   0  0  0  0  0  2  0  0  0  0  0  0
  186.7650  178.4440  147.6710 N   0  0  0  0  0  0  0  0  0  0  0  0
  191.1210  176.0390  138.5900 C   0  0  0  0  0  1  0  0  0  0  0  0
  189.3960  176.2930  138.0850 S   0  0  0  0  0  0  0  0  0  0  0  0
  1 23  2  0  0  0  0
  2 19  1  0  0  0  0
  3 27  1  0  0  0  0
  3 25  2  0  0  0  0
  4 26  1  0  0  0  0
  5 24  1  0  0  0  0
  6 24  2  0  0  0  0
  8 13  1  0  0  0  0
  8 22  1  1  0  0  0
  9 15  1  0  0  0  0
 10 25  1  0  0  0  0
 11 29  1  1  0  0  0
 11 16  1  0  0  0  0
 11  2  1  0  0  0  0
 12 15  1  0  0  0  0
 12 14  2  0  0  0  0
 13  3  1  0  0  0  0
 14  6  1  0  0  0  0
 15  5  2  0  0  0  0
 16 20  1  0  0  0  0
 17 23  1  0  0  0  0
 17 13  2  0  0  0  0
 18 27  2  0  0  0  0
 19 21  1  0  0  0  0
 19  7  1  1  0  0  0
 20 14  1  0  0  0  0
 20 19  1  0  0  0  0
 21  4  2  0  0  0  0
 22 10  2  0  0  0  0
 23 18  1  0  0  0  0
 24  1  1  0  0  0  0
 26  8  1  0  0  0  0
 29 28  1  0  0  0  0
M  END
>  <MODEL>
2

>  <REMARK>
 VINA RESULT:      -9.6      1.007      1.133
  Name = 
  1 active torsions:
  status: ('A' for Active; 'I' for Inactive)
    1  A    between atoms: C_11  and  S_24
                            x       y       z     vdW  Elec       q    Type
                         _______ _______ _______ _____ _____    ______ ____

>  <TORSDO>
F 1

$$$$
=
 OpenBabel11042410233D

 29 33  0  0  1  0  0  0  0  0999 V2000
  185.1080  178.6360  146.2600 C   0  0  0  0  0  3  0  0  0  0  0  0
  189.9700  176.3410  142.0930 C   0  0  0  0  0  2  0  0  0  0  0  0
  183.0660  178.9120  142.7180 C   0  0  0  0  0  0  0  0  0  0  0  0
  187.6840  178.9550  141.8600 C   0  0  0  0  0  3  0  0  0  0  0  0
  187.1700  178.3840  147.5780 N   0  0  0  0  0  0  0  0  0  0  0  0
  187.2780  177.8610  145.2650 C   0  0  0  0  0  3  0  0  0  0  0  0
  187.7020  176.2730  142.8110 O   0  0  0  0  0  1  0  0  0  0  0  0
  185.2470  179.0030  141.4530 C   0  0  2  0  0  3  0  0  0  0  0  0
  189.0730  178.1150  148.9320 F   0  0  0  0  0  0  0  0  0  0  0  0
  183.0860  178.6030  140.3350 C   0  0  0  0  0  3  0  0  0  0  0  0
  191.2050  176.2780  142.9840 C   0  0  2  0  0  3  0  0  0  0  0  0
  189.1900  177.5960  146.6420 N   0  0  0  0  0  0  0  0  0  0  0  0
  184.4680  178.8790  142.7320 C   0  0  0  0  0  0  0  0  0  0  0  0
  188.6140  177.5020  145.4120 C   0  0  0  0  0  0  0  0  0  0  0  0
  188.4790  178.0350  147.7180 C   0  0  0  0  0  0  0  0  0  0  0  0
  190.7270  176.5430  144.4020 C   0  0  0  0  0  2  0  0  0  0  0  0
  185.1130  178.8250  143.9210 N   0  0  0  0  0  0  0  0  0  0  0  0
  183.0540  178.9270  145.0940 C   0  0  0  0  0  3  0  0  0  0  0  0
  188.8810  177.0180  142.9030 C   0  0  1  0  0  0  0  0  0  0  0  0
  189.3660  177.0250  144.2800 N   0  0  0  0  0  0  0  0  0  0  0  0
  188.7120  178.4000  142.4350 N   0  0  0  0  0  0  0  0  0  0  0  0
  184.4220  178.6270  140.2540 C   0  0  0  0  0  3  0  0  0  0  0  0
  184.4480  178.8050  145.1050 C   0  0  0  0  0  0  0  0  0  0  0  0
  186.5530  178.3190  146.3690 C   0  0  0  0  0  0  0  0  0  0  0  0
  182.4160  178.8170  141.5940 N   0  0  0  0  0  0  0  0  0  0  0  0
  186.4880  178.2470  141.5290 N   0  0  0  0  0  2  0  0  0  0  0  0
  182.3940  178.9730  143.9020 N   0  0  0  0  0  0  0  0  0  0  0  0
  191.8450  177.5030  140.7460 C   0  0  0  0  0  1  0  0  0  0  0  0
  192.3680  177.5820  142.4830 S   0  0  0  0  0  0  0  0  0  0  0  0
  1 24  1  0  0  0  0
  2 19  1  0  0  0  0
  2 11  1  0  0  0  0
  3 13  1  0  0  0  0
  3 27  1  0  0  0  0
  4 21  2  0  0  0  0
  5 15  2  0  0  0  0
  6 14  1  0  0  0  0
  6 24  2  0  0  0  0
  8 22  1  6  0  0  0
  8 26  1  0  0  0  0
  8 13  1  0  0  0  0
 10 25  1  0  0  0  0
 11 29  1  6  0  0  0
 11 16  1  0  0  0  0
 12 15  1  0  0  0  0
 13 17  2  0  0  0  0
 14 12  2  0  0  0  0
 15  9  1  0  0  0  0
 17 23  1  0  0  0  0
 18 23  1  0  0  0  0
 19  7  1  6  0  0  0
 19 20  1  0  0  0  0
 20 16  1  0  0  0  0
 20 14  1  0  0  0  0
 21 19  1  0  0  0  0
 22 10  2  0  0  0  0
 23  1  2  0  0  0  0
 24  5  1  0  0  0  0
 25  3  2  0  0  0  0
 26  4  1  0  0  0  0
 27 18  2  0  0  0  0
 28 29  1  0  0  0  0
M  END
>  <MODEL>
3

>  <REMARK>
 VINA RESULT:      -9.4      2.792      5.466
  Name = 
  1 active torsions:
  status: ('A' for Active; 'I' for Inactive)
    1  A    between atoms: C_11  and  S_24
                            x       y       z     vdW  Elec       q    Type
                         _______ _______ _______ _____ _____    ______ ____

>  <TORSDO>
F 1

$$$$
=
 OpenBabel11042410233D

 29 33  0  0  1  0  0  0  0  0999 V2000
  184.6550  178.7850  141.0150 C   0  0  0  0  0  3  0  0  0  0  0  0
  189.4300  176.4610  145.2660 C   0  0  0  0  0  2  0  0  0  0  0  0
  187.6190  178.0670  138.2800 C   0  0  0  0  0  0  0  0  0  0  0  0
  189.5290  178.6160  142.5360 C   0  0  0  0  0  3  0  0  0  0  0  0
  183.8320  179.0980  143.3130 N   0  0  0  0  0  0  0  0  0  0  0  0
  185.9950  178.1580  143.0430 C   0  0  0  0  0  3  0  0  0  0  0  0
  188.2000  176.2020  143.2440 O   0  0  0  0  0  1  0  0  0  0  0  0
  189.3580  178.2280  140.1010 C   0  0  2  0  0  3  0  0  0  0  0  0
  182.9360  179.3780  145.4690 F   0  0  0  0  0  0  0  0  0  0  0  0
  189.8620  177.3070  137.8700 C   0  0  0  0  0  3  0  0  0  0  0  0
  188.8550  176.7530  146.6460 C   0  0  2  0  0  3  0  0  0  0  0  0
  185.0790  178.4470  145.2100 N   0  0  0  0  0  0  0  0  0  0  0  0
  187.9280  178.2420  139.6360 C   0  0  0  0  0  0  0  0  0  0  0  0
  186.1100  178.0330  144.4230 C   0  0  0  0  0  0  0  0  0  0  0  0
  183.9500  178.9780  144.6640 C   0  0  0  0  0  0  0  0  0  0  0  0
  187.4240  177.2150  146.4270 C   0  0  0  0  0  2  0  0  0  0  0  0
  186.9310  178.5150  140.5090 N   0  0  0  0  0  0  0  0  0  0  0  0
  185.3400  178.5410  138.7500 C   0  0  0  0  0  3  0  0  0  0  0  0
  188.5040  177.1160  144.2580 C   0  0  1  0  0  0  0  0  0  0  0  0
  187.2970  177.4600  145.0040 N   0  0  0  0  0  0  0  0  0  0  0  0
  189.1310  178.3400  143.7440 N   0  0  0  0  0  0  0  0  0  0  0  0
  190.2560  177.5100  139.1330 C   0  0  0  0  0  3  0  0  0  0  0  0
  185.6360  178.6290  140.1140 C   0  0  0  0  0  0  0  0  0  0  0  0
  184.8390  178.7100  142.4860 C   0  0  0  0  0  0  0  0  0  0  0  0
  188.5310  177.6620  137.4430 N   0  0  0  0  0  0  0  0  0  0  0  0
  189.4560  177.6910  141.4500 N   0  0  0  0  0  2  0  0  0  0  0  0
  186.3360  178.2580  137.8630 N   0  0  0  0  0  0  0  0  0  0  0  0
  188.6360  178.2530  148.7950 C   0  0  0  0  0  1  0  0  0  0  0  0
  189.8110  178.0910  147.4200 S   0  0  0  0  0  0  0  0  0  0  0  0
  1 24  1  0  0  0  0
  2 11  1  0  0  0  0
  3 13  1  0  0  0  0
  4 21  2  0  0  0  0
  5 15  2  0  0  0  0
  6 14  1  0  0  0  0
  8 22  1  6  0  0  0
  8 26  1  0  0  0  0
 10 22  2  0  0  0  0
 11 29  1  6  0  0  0
 13  8  1  0  0  0  0
 13 17  2  0  0  0  0
 14 20  1  0  0  0  0
 14 12  2  0  0  0  0
 15 12  1  0  0  0  0
 15  9  1  0  0  0  0
 16 11  1  0  0  0  0
 18 23  1  0  0  0  0
 19  7  1  6  0  0  0
 19 20  1  0  0  0  0
 19  2  1  0  0  0  0
 20 16  1  0  0  0  0
 21 19  1  0  0  0  0
 23 17  1  0  0  0  0
 23  1  2  0  0  0  0
 24  6  2  0  0  0  0
 24  5  1  0  0  0  0
 25 10  1  0  0  0  0
 25  3  2  0  0  0  0
 26  4  1  0  0  0  0
 27  3  1  0  0  0  0
 27 18  2  0  0  0  0
 29 28  1  0  0  0  0
M  END
>  <MODEL>
4

>  <REMARK>
 VINA RESULT:      -8.6      2.593      6.285
  Name = 
  1 active torsions:
  status: ('A' for Active; 'I' for Inactive)
    1  A    between atoms: C_11  and  S_24
                            x       y       z     vdW  Elec       q    Type
                         _______ _______ _______ _____ _____    ______ ____

>  <TORSDO>
F 1

$$$$
=
 OpenBabel11042410233D

 29 33  0  0  1  0  0  0  0  0999 V2000
  183.5890  178.7400  143.2480 C   0  0  0  0  0  3  0  0  0  0  0  0
  190.0230  176.5340  143.2190 C   0  0  0  0  0  2  0  0  0  0  0  0
  184.0750  178.3110  139.2030 C   0  0  0  0  0  0  0  0  0  0  0  0
  188.2820  178.8010  141.2330 C   0  0  0  0  0  3  0  0  0  0  0  0
  184.4510  178.9090  145.5460 N   0  0  0  0  0  0  0  0  0  0  0  0
  185.9360  178.1120  143.8750 C   0  0  0  0  0  3  0  0  0  0  0  0
  187.7800  176.2850  142.4640 O   0  0  0  0  0  1  0  0  0  0  0  0
  186.5770  178.5020  139.4700 C   0  0  2  0  0  3  0  0  0  0  0  0
  185.1660  179.0480  147.7820 F   0  0  0  0  0  0  0  0  0  0  0  0
  185.5270  177.7040  137.3870 C   0  0  0  0  0  3  0  0  0  0  0  0
  190.4780  176.7350  144.6600 C   0  0  2  0  0  3  0  0  0  0  0  0
  186.6440  178.2570  146.1330 N   0  0  0  0  0  0  0  0  0  0  0  0
  185.1890  178.4490  140.0440 C   0  0  0  0  0  0  0  0  0  0  0  0
  186.9240  177.9380  144.8390 C   0  0  0  0  0  0  0  0  0  0  0  0
  185.4210  178.7420  146.4870 C   0  0  0  0  0  0  0  0  0  0  0  0
  189.2390  177.1200  145.4520 C   0  0  0  0  0  2  0  0  0  0  0  0
  184.9930  178.6270  141.3710 N   0  0  0  0  0  0  0  0  0  0  0  0
  182.6400  178.6280  141.0690 C   0  0  0  0  0  3  0  0  0  0  0  0
  188.6520  177.1730  143.1000 C   0  0  1  0  0  0  0  0  0  0  0  0
  188.2140  177.4150  144.4710 N   0  0  0  0  0  0  0  0  0  0  0  0
  188.7710  178.4530  142.3890 N   0  0  0  0  0  0  0  0  0  0  0  0
  186.6440  177.8790  138.1040 C   0  0  0  0  0  3  0  0  0  0  0  0
  183.7510  178.6780  141.9180 C   0  0  0  0  0  0  0  0  0  0  0  0
  184.6850  178.6160  144.2390 C   0  0  0  0  0  0  0  0  0  0  0  0
  184.2320  177.9950  137.9490 N   0  0  0  0  0  0  0  0  0  0  0  0
  187.5390  177.9170  140.3930 N   0  0  0  0  0  2  0  0  0  0  0  0
  182.8270  178.4410  139.7310 N   0  0  0  0  0  0  0  0  0  0  0  0
  192.0560  177.9590  142.9490 C   0  0  0  0  0  1  0  0  0  0  0  0
  191.6820  178.0960  144.7200 S   0  0  0  0  0  0  0  0  0  0  0  0
  1 24  1  0  0  0  0
  2 11  1  0  0  0  0
  3 27  1  0  0  0  0
  3 13  1  0  0  0  0
  4 21  2  0  0  0  0
  5 15  2  0  0  0  0
  6 24  2  0  0  0  0
  6 14  1  0  0  0  0
  8 22  1  6  0  0  0
  8 13  1  0  0  0  0
  8 26  1  0  0  0  0
 10 25  1  0  0  0  0
 10 22  2  0  0  0  0
 11 29  1  6  0  0  0
 11 16  1  0  0  0  0
 12 15  1  0  0  0  0
 13 17  2  0  0  0  0
 14 12  2  0  0  0  0
 15  9  1  0  0  0  0
 17 23  1  0  0  0  0
 18 23  1  0  0  0  0
 19  7  1  6  0  0  0
 19  2  1  0  0  0  0
 19 20  1  0  0  0  0
 20 14  1  0  0  0  0
 20 16  1  0  0  0  0
 21 19  1  0  0  0  0
 23  1  2  0  0  0  0
 24  5  1  0  0  0  0
 25  3  2  0  0  0  0
 26  4  1  0  0  0  0
 27 18  2  0  0  0  0
 28 29  1  0  0  0  0
M  END
>  <MODEL>
5

>  <REMARK>
 VINA RESULT:      -8.0      2.817      5.888
  Name = 
  1 active torsions:
  status: ('A' for Active; 'I' for Inactive)
    1  A    between atoms: C_11  and  S_24
                            x       y       z     vdW  Elec       q    Type
                         _______ _______ _______ _____ _____    ______ ____

>  <TORSDO>
F 1

$$$$
=
 OpenBabel11042410233D

 29 33  0  0  1  0  0  0  0  0999 V2000
  186.2350  178.5670  140.0310 C   0  0  0  0  0  3  0  0  0  0  0  0
  189.5940  176.3770  145.5260 C   0  0  0  0  0  2  0  0  0  0  0  0
  189.7080  177.3920  138.2030 C   0  0  0  0  0  0  0  0  0  0  0  0
  190.5500  178.2390  142.7460 C   0  0  0  0  0  3  0  0  0  0  0  0
  184.9020  179.1590  142.0130 N   0  0  0  0  0  0  0  0  0  0  0  0
  186.9740  178.0600  142.3760 C   0  0  0  0  0  3  0  0  0  0  0  0
  188.8830  175.9980  143.2860 O   0  0  0  0  0  1  0  0  0  0  0  0
  190.9510  177.6220  140.3860 C   0  0  2  0  0  3  0  0  0  0  0  0
  183.5300  179.7090  143.8410 F   0  0  0  0  0  0  0  0  0  0  0  0
  191.9080  176.4540  138.4380 C   0  0  0  0  0  3  0  0  0  0  0  0
  188.7240  176.8420  146.6870 C   0  0  2  0  0  3  0  0  0  0  0  0
  185.5810  178.6220  144.2100 N   0  0  0  0  0  0  0  0  0  0  0  0
  189.6870  177.6810  139.5750 C   0  0  0  0  0  0  0  0  0  0  0  0
  186.7340  178.0670  143.7460 C   0  0  0  0  0  0  0  0  0  0  0  0
  184.6720  179.1670  143.3550 C   0  0  0  0  0  0  0  0  0  0  0  0
  187.4370  177.3700  146.0760 C   0  0  0  0  0  2  0  0  0  0  0  0
  188.5330  178.1030  140.1410 N   0  0  0  0  0  0  0  0  0  0  0  0
  187.4330  178.0550  138.0400 C   0  0  0  0  0  3  0  0  0  0  0  0
  189.0060  176.9860  144.2670 C   0  0  1  0  0  0  0  0  0  0  0  0
  187.6870  177.4800  144.6520 N   0  0  0  0  0  0  0  0  0  0  0  0
  189.8440  178.1110  143.8320 N   0  0  0  0  0  0  0  0  0  0  0  0
  191.9950  176.7560  139.7390 C   0  0  0  0  0  3  0  0  0  0  0  0
  187.3900  178.2590  139.4240 C   0  0  0  0  0  0  0  0  0  0  0  0
  186.0430  178.6270  141.5010 C   0  0  0  0  0  0  0  0  0  0  0  0
  190.7590  176.8480  137.6600 N   0  0  0  0  0  0  0  0  0  0  0  0
  190.6670  177.2170  141.7550 N   0  0  0  0  0  2  0  0  0  0  0  0
  188.5890  177.6220  137.4610 N   0  0  0  0  0  0  0  0  0  0  0  0
  188.3050  178.2530  148.8650 C   0  0  0  0  0  1  0  0  0  0  0  0
  189.5730  178.1860  147.5680 S   0  0  0  0  0  0  0  0  0  0  0  0
  1 24  1  0  0  0  0
  2 11  1  0  0  0  0
  3 13  1  0  0  0  0
  4 21  2  0  0  0  0
  5 15  2  0  0  0  0
  6 14  1  0  0  0  0
  8 22  1  6  0  0  0
  8 26  1  0  0  0  0
 10 22  2  0  0  0  0
 11 29  1  6  0  0  0
 13 17  2  0  0  0  0
 13  8  1  0  0  0  0
 14 12  2  0  0  0  0
 14 20  1  0  0  0  0
 15  9  1  0  0  0  0
 15 12  1  0  0  0  0
 16 11  1  0  0  0  0
 18 23  1  0  0  0  0
 19  7  1  6  0  0  0
 19 20  1  0  0  0  0
 19  2  1  0  0  0  0
 20 16  1  0  0  0  0
 21 19  1  0  0  0  0
 23  1  2  0  0  0  0
 23 17  1  0  0  0  0
 24  5  1  0  0  0  0
 24  6  2  0  0  0  0
 25  3  2  0  0  0  0
 25 10  1  0  0  0  0
 26  4  1  0  0  0  0
 27 18  2  0  0  0  0
 27  3  1  0  0  0  0
 29 28  1  0  0  0  0
M  END
>  <MODEL>
6

>  <REMARK>
 VINA RESULT:      -8.0      2.500      6.377
  Name = 
  1 active torsions:
  status: ('A' for Active; 'I' for Inactive)
    1  A    between atoms: C_11  and  S_24
                            x       y       z     vdW  Elec       q    Type
                         _______ _______ _______ _____ _____    ______ ____

>  <TORSDO>
F 1

$$$$
=
 OpenBabel11042410233D

 29 33  0  0  1  0  0  0  0  0999 V2000
  187.8040  178.0320  142.1890 C   0  0  0  0  0  3  0  0  0  0  0  0
  182.1760  179.6270  138.7180 C   0  0  0  0  0  2  0  0  0  0  0  0
  189.3370  177.8170  138.3960 C   0  0  0  0  0  0  0  0  0  0  0  0
  184.6760  177.2580  138.2250 C   0  0  0  0  0  3  0  0  0  0  0  0
  185.9360  178.1260  143.7880 N   0  0  0  0  0  0  0  0  0  0  0  0
  185.4420  178.5340  141.5020 C   0  0  0  0  0  3  0  0  0  0  0  0
  184.5020  179.9610  139.0930 O   0  0  0  0  0  1  0  0  0  0  0  0
  187.0210  177.4460  137.4660 C   0  0  2  0  0  3  0  0  0  0  0  0
  184.2270  178.2540  145.3980 F   0  0  0  0  0  0  0  0  0  0  0  0
  188.9430  178.0190  136.0340 C   0  0  0  0  0  3  0  0  0  0  0  0
  181.0800  179.6000  139.7770 C   0  0  2  0  0  3  0  0  0  0  0  0
  183.7290  178.6580  143.1360 N   0  0  0  0  0  0  0  0  0  0  0  0
  187.9560  177.7050  138.6140 C   0  0  0  0  0  0  0  0  0  0  0  0
  184.1100  178.7580  141.8330 C   0  0  0  0  0  0  0  0  0  0  0  0
  184.6300  178.3420  144.1080 C   0  0  0  0  0  0  0  0  0  0  0  0
  181.7820  179.4480  141.1170 C   0  0  0  0  0  2  0  0  0  0  0  0
  187.4850  177.7430  139.8820 N   0  0  0  0  0  0  0  0  0  0  0  0
  189.6890  177.9060  140.7430 C   0  0  0  0  0  3  0  0  0  0  0  0
  183.4370  179.1020  139.3780 C   0  0  1  0  0  0  0  0  0  0  0  0
  183.1570  179.1050  140.8110 N   0  0  0  0  0  0  0  0  0  0  0  0
  183.6860  177.7270  138.9290 N   0  0  0  0  0  0  0  0  0  0  0  0
  187.6210  177.8530  136.1500 C   0  0  0  0  0  3  0  0  0  0  0  0
  188.3060  177.8830  140.9550 C   0  0  0  0  0  0  0  0  0  0  0  0
  186.3630  178.2020  142.5000 C   0  0  0  0  0  0  0  0  0  0  0  0
  189.8060  177.9300  137.1860 N   0  0  0  0  0  0  0  0  0  0  0  0
  185.7280  178.0710  137.7030 N   0  0  0  0  0  2  0  0  0  0  0  0
  190.1740  177.8780  139.4690 N   0  0  0  0  0  0  0  0  0  0  0  0
  179.8120  177.8430  141.2660 C   0  0  0  0  0  1  0  0  0  0  0  0
  180.0080  178.1610  139.4890 S   0  0  0  0  0  0  0  0  0  0  0  0
  1 24  1  0  0  0  0
  2 19  1  0  0  0  0
  2 11  1  0  0  0  0
  3 13  1  0  0  0  0
  3 27  1  0  0  0  0
  4 21  2  0  0  0  0
  5 15  2  0  0  0  0
  6 14  1  0  0  0  0
  6 24  2  0  0  0  0
  8 22  1  6  0  0  0
  8 26  1  0  0  0  0
  8 13  1  0  0  0  0
 10 22  2  0  0  0  0
 10 25  1  0  0  0  0
 11 29  1  6  0  0  0
 11 16  1  0  0  0  0
 12 15  1  0  0  0  0
 13 17  2  0  0  0  0
 14 12  2  0  0  0  0
 15  9  1  0  0  0  0
 17 23  1  0  0  0  0
 18 23  1  0  0  0  0
 19  7  1  6  0  0  0
 19 20  1  0  0  0  0
 20 16  1  0  0  0  0
 20 14  1  0  0  0  0
 21 19  1  0  0  0  0
 23  1  2  0  0  0  0
 24  5  1  0  0  0  0
 25  3  2  0  0  0  0
 26  4  1  0  0  0  0
 27 18  2  0  0  0  0
 29 28  1  0  0  0  0
M  END
>  <MODEL>
7

>  <REMARK>
 VINA RESULT:      -7.6      3.595      7.501
  Name = 
  1 active torsions:
  status: ('A' for Active; 'I' for Inactive)
    1  A    between atoms: C_11  and  S_24
                            x       y       z     vdW  Elec       q    Type
                         _______ _______ _______ _____ _____    ______ ____

>  <TORSDO>
F 1

$$$$
