=
 OpenBabel11032419193D

 25 27  0  0  1  0  0  0  0  0999 V2000
  189.4010  176.3600  143.9820 C   0  0  2  0  0  3  0  0  0  0  0  0
  187.7830  178.2280  142.2100 N   0  0  0  0  0  0  0  0  0  0  0  0
  190.1200  176.2600  142.7220 N   0  0  0  0  0  2  0  0  0  0  0  0
  190.7070  176.6090  140.4200 C   0  0  0  0  0  3  0  0  0  0  0  0
  187.3910  177.6820  143.3200 C   0  0  0  0  0  0  0  0  0  0  0  0
  188.6160  178.3490  139.9590 C   0  0  0  0  0  3  0  0  0  0  0  0
  190.5270  177.1980  139.1710 C   0  0  0  0  0  0  0  0  0  0  0  0
  189.8280  176.8940  141.4700 C   0  0  0  0  0  0  0  0  0  0  0  0
  188.7380  177.7820  141.2330 C   0  0  0  0  0  0  0  0  0  0  0  0
  189.4910  178.0480  138.9660 N   0  0  0  0  0  0  0  0  0  0  0  0
  187.8950  176.3510  143.7710 C   0  0  0  0  0  2  0  0  0  0  0  0
  190.5510  176.9100  147.4020 N   0  0  0  0  0  0  0  0  0  0  0  0
  189.9990  177.4020  144.9510 C   0  0  2  0  0  0  0  0  0  0  0  0
  191.3880  176.6350  145.8720 S   0  0  0  0  0  0  0  0  0  0  0  0
  188.5930  177.7900  148.3850 N   0  0  0  0  0  1  0  0  0  0  0  0
  189.0090  177.7940  145.9420 N   0  0  0  0  0  2  0  0  0  0  0  0
  189.4110  177.4820  147.2630 C   0  0  0  0  0  0  0  0  0  0  0  0
  190.4980  178.6000  144.2590 C   0  0  0  0  0  0  0  0  0  0  0  0
  190.9120  179.5820  143.6950 C   0  0  0  0  0  3  0  0  0  0  0  0
  191.4550  176.8730  138.0520 C   0  0  0  0  0  2  0  0  0  0  0  0
  193.2770  175.6680  137.7190 C   0  0  0  0  0  1  0  0  0  0  0  0
  192.7370  176.6460  138.5540 O   0  0  0  0  0  0  0  0  0  0  0  0
  186.4620  178.3740  144.1010 O   0  0  0  0  0  0  0  0  0  0  0  0
  185.0700  178.3740  143.8170 C   0  0  0  0  0  2  0  0  0  0  0  0
  184.3070  178.8490  145.0350 C   0  0  0  0  0  1  0  0  0  0  0  0
  1 11  1  6  0  0  0
  1 13  1  0  0  0  0
  2  5  2  0  0  0  0
  3  1  1  0  0  0  0
  4  8  1  0  0  0  0
  5 11  1  0  0  0  0
  5 23  1  0  0  0  0
  6  9  1  0  0  0  0
  7  4  2  0  0  0  0
  8  3  1  0  0  0  0
  9  8  2  0  0  0  0
  9  2  1  0  0  0  0
 10  7  1  0  0  0  0
 10  6  2  0  0  0  0
 13 18  1  6  0  0  0
 13 14  1  0  0  0  0
 13 16  1  0  0  0  0
 14 12  1  0  0  0  0
 16 17  1  0  0  0  0
 17 12  2  0  0  0  0
 17 15  1  0  0  0  0
 19 18  3  0  0  0  0
 20 22  1  0  0  0  0
 20  7  1  0  0  0  0
 21 22  1  0  0  0  0
 24 23  1  0  0  0  0
 24 25  1  0  0  0  0
M  END
>  <MODEL>
1

>  <REMARK>
 VINA RESULT:      -7.5      0.000      0.000
  Name = 
  6 active torsions:
  status: ('A' for Active; 'I' for Inactive)
    1  A    between atoms: C_1  and  C_12
    2  A    between atoms: C_6  and  O_20
    3  A    between atoms: C_8  and  O_20
    4  A    between atoms: C_9  and  C_14
    5  A    between atoms: C_12  and  C_19
    6  A    between atoms: C_14  and  O_22
                            x       y       z     vdW  Elec       q    Type
                         _______ _______ _______ _____ _____    ______ ____

>  <TORSDO>
F 6

$$$$
=
 OpenBabel11032419193D

 25 27  0  0  1  0  0  0  0  0999 V2000
  188.3910  176.3400  143.9320 C   0  0  2  0  0  3  0  0  0  0  0  0
  187.4190  178.4780  142.0010 N   0  0  0  0  0  0  0  0  0  0  0  0
  189.3000  176.1550  142.8130 N   0  0  0  0  0  2  0  0  0  0  0  0
  190.3370  176.4560  140.6680 C   0  0  0  0  0  3  0  0  0  0  0  0
  186.7570  177.9770  142.9980 C   0  0  0  0  0  0  0  0  0  0  0  0
  188.6510  178.5150  139.9370 C   0  0  0  0  0  3  0  0  0  0  0  0
  190.4750  177.0930  139.4370 C   0  0  0  0  0  0  0  0  0  0  0  0
  189.3370  176.8540  141.5620 C   0  0  0  0  0  0  0  0  0  0  0  0
  188.4550  177.9080  141.1830 C   0  0  0  0  0  0  0  0  0  0  0  0
  189.6330  178.1010  139.0980 N   0  0  0  0  0  0  0  0  0  0  0  0
  186.9640  176.5740  143.4630 C   0  0  0  0  0  2  0  0  0  0  0  0
  191.3960  178.0240  145.1390 N   0  0  0  0  0  0  0  0  0  0  0  0
  188.9570  177.2530  145.0410 C   0  0  2  0  0  0  0  0  0  0  0  0
  189.9640  178.5780  144.2680 S   0  0  0  0  0  0  0  0  0  0  0  0
  192.2070  176.4240  146.6750 N   0  0  0  0  0  1  0  0  0  0  0  0
  189.8520  176.5010  145.9050 N   0  0  0  0  0  2  0  0  0  0  0  0
  191.1730  177.0080  145.8920 C   0  0  0  0  0  0  0  0  0  0  0  0
  187.9030  177.8770  145.8550 C   0  0  0  0  0  0  0  0  0  0  0  0
  187.0340  178.3870  146.5190 C   0  0  0  0  0  3  0  0  0  0  0  0
  191.5280  176.6500  138.4820 C   0  0  0  0  0  2  0  0  0  0  0  0
  190.7060  175.0430  137.2060 C   0  0  0  0  0  1  0  0  0  0  0  0
  191.4850  175.2620  138.3430 O   0  0  0  0  0  0  0  0  0  0  0  0
  185.8190  178.7910  143.6390 O   0  0  0  0  0  0  0  0  0  0  0  0
  184.4190  178.5700  143.5410 C   0  0  0  0  0  2  0  0  0  0  0  0
  183.7560  178.9540  144.8470 C   0  0  0  0  0  1  0  0  0  0  0  0
  1 11  1  6  0  0  0
  1 13  1  0  0  0  0
  2  5  2  0  0  0  0
  3  1  1  0  0  0  0
  4  8  1  0  0  0  0
  5 11  1  0  0  0  0
  5 23  1  0  0  0  0
  6  9  1  0  0  0  0
  7  4  2  0  0  0  0
  8  3  1  0  0  0  0
  9  8  2  0  0  0  0
  9  2  1  0  0  0  0
 10  7  1  0  0  0  0
 10  6  2  0  0  0  0
 12 17  2  0  0  0  0
 13 18  1  1  0  0  0
 13 16  1  0  0  0  0
 14 13  1  0  0  0  0
 14 12  1  0  0  0  0
 17 16  1  0  0  0  0
 17 15  1  0  0  0  0
 18 19  3  0  0  0  0
 20  7  1  0  0  0  0
 21 22  1  0  0  0  0
 22 20  1  0  0  0  0
 24 23  1  0  0  0  0
 24 25  1  0  0  0  0
M  END
>  <MODEL>
2

>  <REMARK>
 VINA RESULT:      -6.4      1.524      1.931
  Name = 
  6 active torsions:
  status: ('A' for Active; 'I' for Inactive)
    1  A    between atoms: C_1  and  C_12
    2  A    between atoms: C_6  and  O_20
    3  A    between atoms: C_8  and  O_20
    4  A    between atoms: C_9  and  C_14
    5  A    between atoms: C_12  and  C_19
    6  A    between atoms: C_14  and  O_22
                            x       y       z     vdW  Elec       q    Type
                         _______ _______ _______ _____ _____    ______ ____

>  <TORSDO>
F 6

$$$$
=
 OpenBabel11032419193D

 25 27  0  0  1  0  0  0  0  0999 V2000
  188.4070  176.6980  142.6950 C   0  0  2  0  0  3  0  0  0  0  0  0
  188.3510  177.7250  145.5560 N   0  0  0  0  0  0  0  0  0  0  0  0
  187.0570  177.2290  142.7850 N   0  0  0  0  0  2  0  0  0  0  0  0
  185.0880  178.2580  143.6980 C   0  0  0  0  0  3  0  0  0  0  0  0
  189.1800  176.8580  145.0620 C   0  0  0  0  0  0  0  0  0  0  0  0
  186.2350  178.6850  146.1720 C   0  0  0  0  0  3  0  0  0  0  0  0
  184.3780  178.8850  144.7190 C   0  0  0  0  0  0  0  0  0  0  0  0
  186.4050  177.8350  143.9090 C   0  0  0  0  0  0  0  0  0  0  0  0
  186.9970  178.0410  145.1890 C   0  0  0  0  0  0  0  0  0  0  0  0
  184.9600  179.0820  145.9270 N   0  0  0  0  0  0  0  0  0  0  0  0
  188.7960  175.9360  143.9520 C   0  0  0  0  0  2  0  0  0  0  0  0
  191.7610  178.0880  143.0640 N   0  0  0  0  0  0  0  0  0  0  0  0
  189.4230  177.6960  142.0990 C   0  0  2  0  0  0  0  0  0  0  0  0
  191.0630  176.8810  141.9820 S   0  0  0  0  0  0  0  0  0  0  0  0
  191.2940  180.0240  144.3350 N   0  0  0  0  0  1  0  0  0  0  0  0
  189.5880  178.8370  142.9860 N   0  0  0  0  0  2  0  0  0  0  0  0
  190.9140  178.9680  143.4610 C   0  0  0  0  0  0  0  0  0  0  0  0
  189.0370  178.1690  140.7610 C   0  0  0  0  0  0  0  0  0  0  0  0
  188.7140  178.5570  139.6660 C   0  0  0  0  0  3  0  0  0  0  0  0
  182.9690  179.3140  144.4930 C   0  0  0  0  0  2  0  0  0  0  0  0
  181.2020  179.0400  143.1950 C   0  0  0  0  0  1  0  0  0  0  0  0
  182.5970  179.0330  143.1780 O   0  0  0  0  0  0  0  0  0  0  0  0
  190.4670  176.7960  145.6030 O   0  0  0  0  0  0  0  0  0  0  0  0
  190.7110  176.8070  147.0020 C   0  0  0  0  0  2  0  0  0  0  0  0
  191.9090  175.9350  147.3110 C   0  0  0  0  0  1  0  0  0  0  0  0
  1  3  1  0  0  0  0
  1 11  1  1  0  0  0
  3  8  1  0  0  0  0
  4  8  2  0  0  0  0
  4  7  1  0  0  0  0
  5  2  2  0  0  0  0
  5 23  1  0  0  0  0
  7 10  2  0  0  0  0
  8  9  1  0  0  0  0
  9  2  1  0  0  0  0
  9  6  2  0  0  0  0
 10  6  1  0  0  0  0
 11  5  1  0  0  0  0
 12 17  2  0  0  0  0
 13 18  1  6  0  0  0
 13  1  1  0  0  0  0
 13 16  1  0  0  0  0
 14 13  1  0  0  0  0
 14 12  1  0  0  0  0
 16 17  1  0  0  0  0
 17 15  1  0  0  0  0
 19 18  3  0  0  0  0
 20  7  1  0  0  0  0
 22 21  1  0  0  0  0
 22 20  1  0  0  0  0
 23 24  1  0  0  0  0
 24 25  1  0  0  0  0
M  END
>  <MODEL>
3

>  <REMARK>
 VINA RESULT:      -6.1      2.791      6.369
  Name = 
  6 active torsions:
  status: ('A' for Active; 'I' for Inactive)
    1  A    between atoms: C_1  and  C_12
    2  A    between atoms: C_6  and  O_20
    3  A    between atoms: C_8  and  O_20
    4  A    between atoms: C_9  and  C_14
    5  A    between atoms: C_12  and  C_19
    6  A    between atoms: C_14  and  O_22
                            x       y       z     vdW  Elec       q    Type
                         _______ _______ _______ _____ _____    ______ ____

>  <TORSDO>
F 6

$$$$
=
 OpenBabel11032419193D

 25 27  0  0  1  0  0  0  0  0999 V2000
  188.7390  176.5790  142.4080 C   0  0  2  0  0  3  0  0  0  0  0  0
  189.1310  177.2300  145.3520 N   0  0  0  0  0  0  0  0  0  0  0  0
  187.4360  177.1170  142.7610 N   0  0  0  0  0  2  0  0  0  0  0  0
  185.6570  178.0540  144.0750 C   0  0  0  0  0  3  0  0  0  0  0  0
  189.8490  176.4200  144.6370 C   0  0  0  0  0  0  0  0  0  0  0  0
  187.1610  178.1400  146.3870 C   0  0  0  0  0  3  0  0  0  0  0  0
  185.1230  178.5570  145.2590 C   0  0  0  0  0  0  0  0  0  0  0  0
  186.9740  177.5850  144.0360 C   0  0  0  0  0  0  0  0  0  0  0  0
  187.7500  177.6140  145.2310 C   0  0  0  0  0  0  0  0  0  0  0  0
  185.8790  178.5870  146.3840 N   0  0  0  0  0  0  0  0  0  0  0  0
  189.2770  175.6560  143.4890 C   0  0  0  0  0  2  0  0  0  0  0  0
  189.9990  177.9780  139.2810 N   0  0  0  0  0  0  0  0  0  0  0  0
  189.6940  177.6270  141.7980 C   0  0  2  0  0  0  0  0  0  0  0  0
  188.8150  178.5340  140.4670 S   0  0  0  0  0  0  0  0  0  0  0  0
  191.9560  176.6890  138.9830 N   0  0  0  0  0  1  0  0  0  0  0  0
  190.8310  176.9700  141.1740 N   0  0  0  0  0  2  0  0  0  0  0  0
  190.9120  177.2290  139.7850 C   0  0  0  0  0  0  0  0  0  0  0  0
  190.1770  178.6000  142.7900 C   0  0  0  0  0  0  0  0  0  0  0  0
  190.5710  179.4020  143.6010 C   0  0  0  0  0  3  0  0  0  0  0  0
  183.7130  179.0350  145.2980 C   0  0  0  0  0  2  0  0  0  0  0  0
  182.1000  179.0000  143.7870 C   0  0  0  0  0  1  0  0  0  0  0  0
  183.3550  179.5490  144.0500 O   0  0  0  0  0  0  0  0  0  0  0  0
  191.1970  176.2670  144.9710 O   0  0  0  0  0  0  0  0  0  0  0  0
  191.7600  176.8150  146.1540 C   0  0  0  0  0  2  0  0  0  0  0  0
  192.1000  175.6970  147.1160 C   0  0  0  0  0  1  0  0  0  0  0  0
  1  3  1  0  0  0  0
  1 11  1  1  0  0  0
  3  8  1  0  0  0  0
  4  7  1  0  0  0  0
  5 23  1  0  0  0  0
  5  2  2  0  0  0  0
  7 20  1  0  0  0  0
  7 10  2  0  0  0  0
  8  4  2  0  0  0  0
  8  9  1  0  0  0  0
  9  2  1  0  0  0  0
  9  6  2  0  0  0  0
 10  6  1  0  0  0  0
 11  5  1  0  0  0  0
 12 17  2  0  0  0  0
 12 14  1  0  0  0  0
 13  1  1  0  0  0  0
 13 18  1  1  0  0  0
 14 13  1  0  0  0  0
 15 17  1  0  0  0  0
 16 13  1  0  0  0  0
 17 16  1  0  0  0  0
 18 19  3  0  0  0  0
 21 22  1  0  0  0  0
 22 20  1  0  0  0  0
 23 24  1  0  0  0  0
 24 25  1  0  0  0  0
M  END
>  <MODEL>
4

>  <REMARK>
 VINA RESULT:      -6.1      2.480      6.828
  Name = 
  6 active torsions:
  status: ('A' for Active; 'I' for Inactive)
    1  A    between atoms: C_1  and  C_12
    2  A    between atoms: C_6  and  O_20
    3  A    between atoms: C_8  and  O_20
    4  A    between atoms: C_9  and  C_14
    5  A    between atoms: C_12  and  C_19
    6  A    between atoms: C_14  and  O_22
                            x       y       z     vdW  Elec       q    Type
                         _______ _______ _______ _____ _____    ______ ____

>  <TORSDO>
F 6

$$$$
=
 OpenBabel11032419193D

 25 27  0  0  1  0  0  0  0  0999 V2000
  188.9660  178.7140  143.6240 C   0  0  2  0  0  3  0  0  0  0  0  0
  191.4100  177.2280  142.5920 N   0  0  0  0  0  0  0  0  0  0  0  0
  188.7140  178.7000  142.1920 N   0  0  0  0  0  2  0  0  0  0  0  0
  189.0220  178.2930  139.8450 C   0  0  0  0  0  3  0  0  0  0  0  0
  191.2910  177.8160  143.7420 C   0  0  0  0  0  0  0  0  0  0  0  0
  191.4330  176.9960  140.1990 C   0  0  0  0  0  3  0  0  0  0  0  0
  189.7240  177.7760  138.7590 C   0  0  0  0  0  0  0  0  0  0  0  0
  189.5280  178.1600  141.1430 C   0  0  0  0  0  0  0  0  0  0  0  0
  190.7790  177.5030  141.3290 C   0  0  0  0  0  0  0  0  0  0  0  0
  190.9080  177.1440  138.9560 N   0  0  0  0  0  0  0  0  0  0  0  0
  190.4230  179.0150  143.9340 C   0  0  0  0  0  2  0  0  0  0  0  0
  186.5350  177.9000  146.2210 N   0  0  0  0  0  0  0  0  0  0  0  0
  188.2800  177.5560  144.3810 C   0  0  2  0  0  0  0  0  0  0  0  0
  186.4760  177.8780  144.4570 S   0  0  0  0  0  0  0  0  0  0  0  0
  187.9550  177.6800  148.0950 N   0  0  0  0  0  1  0  0  0  0  0  0
  188.7520  177.5040  145.7560 N   0  0  0  0  0  2  0  0  0  0  0  0
  187.7120  177.7010  146.6940 C   0  0  0  0  0  0  0  0  0  0  0  0
  188.4990  176.2500  143.7400 C   0  0  0  0  0  0  0  0  0  0  0  0
  188.6780  175.1770  143.2200 C   0  0  0  0  0  3  0  0  0  0  0  0
  189.1890  177.9400  137.3790 C   0  0  0  0  0  2  0  0  0  0  0  0
  187.2020  178.5110  136.6000 C   0  0  0  0  0  1  0  0  0  0  0  0
  188.2740  178.9930  137.3500 O   0  0  0  0  0  0  0  0  0  0  0  0
  192.0100  177.2980  144.8220 O   0  0  0  0  0  0  0  0  0  0  0  0
  191.7810  175.9960  145.3430 C   0  0  0  0  0  2  0  0  0  0  0  0
  191.9190  176.0230  146.8500 C   0  0  0  0  0  1  0  0  0  0  0  0
  1 11  1  6  0  0  0
  1 13  1  0  0  0  0
  2  5  2  0  0  0  0
  3  1  1  0  0  0  0
  4  8  1  0  0  0  0
  5 11  1  0  0  0  0
  5 23  1  0  0  0  0
  6  9  1  0  0  0  0
  7 10  1  0  0  0  0
  7  4  2  0  0  0  0
  8  9  2  0  0  0  0
  8  3  1  0  0  0  0
  9  2  1  0  0  0  0
 10  6  2  0  0  0  0
 12 17  2  0  0  0  0
 13 18  1  6  0  0  0
 13 14  1  0  0  0  0
 13 16  1  0  0  0  0
 14 12  1  0  0  0  0
 16 17  1  0  0  0  0
 17 15  1  0  0  0  0
 19 18  3  0  0  0  0
 20  7  1  0  0  0  0
 21 22  1  0  0  0  0
 22 20  1  0  0  0  0
 23 24  1  0  0  0  0
 24 25  1  0  0  0  0
M  END
>  <MODEL>
5

>  <REMARK>
 VINA RESULT:      -5.5      2.513      4.028
  Name = 
  6 active torsions:
  status: ('A' for Active; 'I' for Inactive)
    1  A    between atoms: C_1  and  C_12
    2  A    between atoms: C_6  and  O_20
    3  A    between atoms: C_8  and  O_20
    4  A    between atoms: C_9  and  C_14
    5  A    between atoms: C_12  and  C_19
    6  A    between atoms: C_14  and  O_22
                            x       y       z     vdW  Elec       q    Type
                         _______ _______ _______ _____ _____    ______ ____

>  <TORSDO>
F 6

$$$$
=
 OpenBabel11032419193D

 25 27  0  0  1  0  0  0  0  0999 V2000
  183.5770  179.0140  138.8450 C   0  0  2  0  0  3  0  0  0  0  0  0
  181.2750  179.1240  140.8280 N   0  0  0  0  0  0  0  0  0  0  0  0
  184.2760  178.8540  140.1090 N   0  0  0  0  0  2  0  0  0  0  0  0
  184.6620  178.6700  142.4720 C   0  0  0  0  0  3  0  0  0  0  0  0
  181.2630  179.5550  139.6040 C   0  0  0  0  0  0  0  0  0  0  0  0
  181.9900  178.9280  143.1150 C   0  0  0  0  0  3  0  0  0  0  0  0
  184.2350  178.6210  143.7970 C   0  0  0  0  0  0  0  0  0  0  0  0
  183.7380  178.8480  141.4370 C   0  0  0  0  0  0  0  0  0  0  0  0
  182.3580  178.9960  141.7650 C   0  0  0  0  0  0  0  0  0  0  0  0
  182.9180  178.7520  144.0900 N   0  0  0  0  0  0  0  0  0  0  0  0
  182.4920  180.0750  138.9340 C   0  0  0  0  0  2  0  0  0  0  0  0
  184.0490  177.0420  135.8100 N   0  0  0  0  0  0  0  0  0  0  0  0
  183.2380  177.6760  138.1540 C   0  0  2  0  0  0  0  0  0  0  0  0
  184.7680  176.9780  137.4210 S   0  0  0  0  0  0  0  0  0  0  0  0
  182.1100  177.6350  134.5980 N   0  0  0  0  0  1  0  0  0  0  0  0
  182.3130  177.8970  137.0540 N   0  0  0  0  0  2  0  0  0  0  0  0
  182.8540  177.5110  135.8040 C   0  0  0  0  0  0  0  0  0  0  0  0
  182.6670  176.6870  139.0810 C   0  0  0  0  0  0  0  0  0  0  0  0
  182.1960  175.8740  139.8370 C   0  0  0  0  0  3  0  0  0  0  0  0
  185.2280  178.4520  144.8950 C   0  0  0  0  0  2  0  0  0  0  0  0
  185.6840  178.7330  147.0390 C   0  0  0  0  0  1  0  0  0  0  0  0
  184.6360  178.7700  146.1180 O   0  0  0  0  0  0  0  0  0  0  0  0
  180.0510  179.5300  138.9110 O   0  0  0  0  0  0  0  0  0  0  0  0
  178.9480  178.7360  139.3240 C   0  0  0  0  0  2  0  0  0  0  0  0
  178.9690  177.4170  138.5810 C   0  0  0  0  0  1  0  0  0  0  0  0
  1 11  1  1  0  0  0
  1  3  1  0  0  0  0
  2  9  1  0  0  0  0
  3  8  1  0  0  0  0
  4  7  1  0  0  0  0
  5  2  2  0  0  0  0
  6 10  1  0  0  0  0
  7 10  2  0  0  0  0
  7 20  1  0  0  0  0
  8  9  1  0  0  0  0
  8  4  2  0  0  0  0
  9  6  2  0  0  0  0
 11  5  1  0  0  0  0
 12 14  1  0  0  0  0
 13  1  1  0  0  0  0
 13 18  1  1  0  0  0
 14 13  1  0  0  0  0
 15 17  1  0  0  0  0
 16 13  1  0  0  0  0
 17 12  2  0  0  0  0
 17 16  1  0  0  0  0
 18 19  3  0  0  0  0
 20 22  1  0  0  0  0
 22 21  1  0  0  0  0
 23 24  1  0  0  0  0
 23  5  1  0  0  0  0
 25 24  1  0  0  0  0
M  END
>  <MODEL>
6

>  <REMARK>
 VINA RESULT:      -5.0      6.306      9.542
  Name = 
  6 active torsions:
  status: ('A' for Active; 'I' for Inactive)
    1  A    between atoms: C_1  and  C_12
    2  A    between atoms: C_6  and  O_20
    3  A    between atoms: C_8  and  O_20
    4  A    between atoms: C_9  and  C_14
    5  A    between atoms: C_12  and  C_19
    6  A    between atoms: C_14  and  O_22
                            x       y       z     vdW  Elec       q    Type
                         _______ _______ _______ _____ _____    ______ ____

>  <TORSDO>
F 6

$$$$
=
 OpenBabel11032419193D

 25 27  0  0  1  0  0  0  0  0999 V2000
  190.3090  177.1280  137.1850 C   0  0  2  0  0  3  0  0  0  0  0  0
  187.9360  177.6460  139.0140 N   0  0  0  0  0  0  0  0  0  0  0  0
  190.9470  177.1380  138.4910 N   0  0  0  0  0  2  0  0  0  0  0  0
  191.2260  177.3120  140.8710 C   0  0  0  0  0  3  0  0  0  0  0  0
  187.9960  177.8790  137.7390 C   0  0  0  0  0  0  0  0  0  0  0  0
  188.5460  177.7800  141.3350 C   0  0  0  0  0  3  0  0  0  0  0  0
  190.7430  177.4890  142.1650 C   0  0  0  0  0  0  0  0  0  0  0  0
  190.3540  177.3640  139.7770 C   0  0  0  0  0  0  0  0  0  0  0  0
  188.9720  177.6200  140.0110 C   0  0  0  0  0  0  0  0  0  0  0  0
  189.4220  177.7210  142.3700 N   0  0  0  0  0  0  0  0  0  0  0  0
  189.2750  178.2340  137.0570 C   0  0  0  0  0  2  0  0  0  0  0  0
  187.7850  175.1800  135.4100 N   0  0  0  0  0  0  0  0  0  0  0  0
  189.9330  175.7130  136.6950 C   0  0  2  0  0  0  0  0  0  0  0  0
  189.3670  175.8160  134.9530 S   0  0  0  0  0  0  0  0  0  0  0  0
  186.4790  174.4050  137.2190 N   0  0  0  0  0  1  0  0  0  0  0  0
  188.8150  175.1930  137.4660 N   0  0  0  0  0  2  0  0  0  0  0  0
  187.6800  174.9280  136.6640 C   0  0  0  0  0  0  0  0  0  0  0  0
  191.0590  174.7690  136.7690 C   0  0  0  0  0  0  0  0  0  0  0  0
  191.9810  173.9950  136.8360 C   0  0  0  0  0  3  0  0  0  0  0  0
  191.6800  177.4530  143.3220 C   0  0  0  0  0  2  0  0  0  0  0  0
  191.4810  176.7530  145.4090 C   0  0  0  0  0  1  0  0  0  0  0  0
  191.4400  176.3100  144.0870 O   0  0  0  0  0  0  0  0  0  0  0  0
  186.8130  177.7970  137.0000 O   0  0  0  0  0  0  0  0  0  0  0  0
  185.5280  177.8770  137.5990 C   0  0  0  0  0  2  0  0  0  0  0  0
  184.5090  177.2110  136.6990 C   0  0  0  0  0  1  0  0  0  0  0  0
  1 11  1  1  0  0  0
  1  3  1  0  0  0  0
  2  9  1  0  0  0  0
  3  8  1  0  0  0  0
  4  7  1  0  0  0  0
  5  2  2  0  0  0  0
  6 10  1  0  0  0  0
  7 10  2  0  0  0  0
  7 20  1  0  0  0  0
  8  9  1  0  0  0  0
  8  4  2  0  0  0  0
  9  6  2  0  0  0  0
 11  5  1  0  0  0  0
 12 17  2  0  0  0  0
 13 18  1  1  0  0  0
 13  1  1  0  0  0  0
 13 16  1  0  0  0  0
 14 12  1  0  0  0  0
 14 13  1  0  0  0  0
 17 15  1  0  0  0  0
 17 16  1  0  0  0  0
 18 19  3  0  0  0  0
 20 22  1  0  0  0  0
 22 21  1  0  0  0  0
 23 24  1  0  0  0  0
 23  5  1  0  0  0  0
 25 24  1  0  0  0  0
M  END
>  <MODEL>
7

>  <REMARK>
 VINA RESULT:      -4.8      3.864      7.255
  Name = 
  6 active torsions:
  status: ('A' for Active; 'I' for Inactive)
    1  A    between atoms: C_1  and  C_12
    2  A    between atoms: C_6  and  O_20
    3  A    between atoms: C_8  and  O_20
    4  A    between atoms: C_9  and  C_14
    5  A    between atoms: C_12  and  C_19
    6  A    between atoms: C_14  and  O_22
                            x       y       z     vdW  Elec       q    Type
                         _______ _______ _______ _____ _____    ______ ____

>  <TORSDO>
F 6

$$$$
=
 OpenBabel11032419193D

 25 27  0  0  1  0  0  0  0  0999 V2000
  190.0640  177.8600  137.5990 C   0  0  2  0  0  3  0  0  0  0  0  0
  187.7500  177.9660  139.5690 N   0  0  0  0  0  0  0  0  0  0  0  0
  190.7320  177.5370  138.8490 N   0  0  0  0  0  2  0  0  0  0  0  0
  191.0720  177.1170  141.1890 C   0  0  0  0  0  3  0  0  0  0  0  0
  187.7860  178.5030  138.3880 C   0  0  0  0  0  0  0  0  0  0  0  0
  188.4180  177.5160  141.8340 C   0  0  0  0  0  3  0  0  0  0  0  0
  190.6250  176.9830  142.5020 C   0  0  0  0  0  0  0  0  0  0  0  0
  190.1770  177.4540  140.1680 C   0  0  0  0  0  0  0  0  0  0  0  0
  188.8080  177.6750  140.4980 C   0  0  0  0  0  0  0  0  0  0  0  0
  189.3170  177.1860  142.7960 N   0  0  0  0  0  0  0  0  0  0  0  0
  189.0580  178.9870  137.7750 C   0  0  0  0  0  2  0  0  0  0  0  0
  190.0090  174.2110  137.5800 N   0  0  0  0  0  0  0  0  0  0  0  0
  189.6360  176.6170  136.7900 C   0  0  2  0  0  0  0  0  0  0  0  0
  188.7840  175.4390  137.9090 S   0  0  0  0  0  0  0  0  0  0  0  0
  191.9880  173.7500  136.3770 N   0  0  0  0  0  1  0  0  0  0  0  0
  190.8070  175.9260  136.2720 N   0  0  0  0  0  2  0  0  0  0  0  0
  190.9190  174.6040  136.7650 C   0  0  0  0  0  0  0  0  0  0  0  0
  188.7330  176.9470  135.6770 C   0  0  0  0  0  0  0  0  0  0  0  0
  187.9950  177.2220  134.7630 C   0  0  0  0  0  3  0  0  0  0  0  0
  191.5870  176.6440  143.5860 C   0  0  0  0  0  2  0  0  0  0  0  0
  191.6700  176.7450  145.7920 C   0  0  0  0  0  1  0  0  0  0  0  0
  191.4140  177.5190  144.6600 O   0  0  0  0  0  0  0  0  0  0  0  0
  186.5840  178.6300  137.6870 O   0  0  0  0  0  0  0  0  0  0  0  0
  185.4480  177.8220  137.9610 C   0  0  0  0  0  2  0  0  0  0  0  0
  184.7420  177.4890  136.6640 C   0  0  0  0  0  1  0  0  0  0  0  0
  1 11  1  1  0  0  0
  1  3  1  0  0  0  0
  2  9  1  0  0  0  0
  3  8  1  0  0  0  0
  4  7  1  0  0  0  0
  5  2  2  0  0  0  0
  6 10  1  0  0  0  0
  7 10  2  0  0  0  0
  7 20  1  0  0  0  0
  8  9  1  0  0  0  0
  8  4  2  0  0  0  0
  9  6  2  0  0  0  0
 11  5  1  0  0  0  0
 12 14  1  0  0  0  0
 13 18  1  6  0  0  0
 13  1  1  0  0  0  0
 13 14  1  0  0  0  0
 15 17  1  0  0  0  0
 16 17  1  0  0  0  0
 16 13  1  0  0  0  0
 17 12  2  0  0  0  0
 19 18  3  0  0  0  0
 20 22  1  0  0  0  0
 22 21  1  0  0  0  0
 23 24  1  0  0  0  0
 23  5  1  0  0  0  0
 25 24  1  0  0  0  0
M  END
>  <MODEL>
8

>  <REMARK>
 VINA RESULT:      -4.7      3.585      7.123
  Name = 
  6 active torsions:
  status: ('A' for Active; 'I' for Inactive)
    1  A    between atoms: C_1  and  C_12
    2  A    between atoms: C_6  and  O_20
    3  A    between atoms: C_8  and  O_20
    4  A    between atoms: C_9  and  C_14
    5  A    between atoms: C_12  and  C_19
    6  A    between atoms: C_14  and  O_22
                            x       y       z     vdW  Elec       q    Type
                         _______ _______ _______ _____ _____    ______ ____

>  <TORSDO>
F 6

$$$$
=
 OpenBabel11032419193D

 25 27  0  0  1  0  0  0  0  0999 V2000
  189.5420  175.7390  143.2080 C   0  0  2  0  0  3  0  0  0  0  0  0
  188.2520  178.2470  142.0720 N   0  0  0  0  0  0  0  0  0  0  0  0
  190.0500  175.7340  141.8460 N   0  0  0  0  0  2  0  0  0  0  0  0
  190.4180  176.3990  139.5680 C   0  0  0  0  0  3  0  0  0  0  0  0
  187.8730  177.5910  143.1260 C   0  0  0  0  0  0  0  0  0  0  0  0
  188.8030  178.6280  139.7630 C   0  0  0  0  0  3  0  0  0  0  0  0
  190.2430  177.2540  138.4820 C   0  0  0  0  0  0  0  0  0  0  0  0
  189.7790  176.6580  140.7840 C   0  0  0  0  0  0  0  0  0  0  0  0
  188.9330  177.8010  140.8860 C   0  0  0  0  0  0  0  0  0  0  0  0
  189.4420  178.3420  138.6010 N   0  0  0  0  0  0  0  0  0  0  0  0
  188.0710  176.1180  143.2570 C   0  0  0  0  0  2  0  0  0  0  0  0
  190.0270  178.6280  145.3850 N   0  0  0  0  0  0  0  0  0  0  0  0
  190.5030  176.3980  144.2220 C   0  0  2  0  0  0  0  0  0  0  0  0
  189.5400  176.9560  145.6800 S   0  0  0  0  0  0  0  0  0  0  0  0
  191.2850  180.0370  143.9670 N   0  0  0  0  0  1  0  0  0  0  0  0
  191.1080  177.5870  143.6420 N   0  0  0  0  0  2  0  0  0  0  0  0
  190.7880  178.7630  144.3600 C   0  0  0  0  0  0  0  0  0  0  0  0
  191.5610  175.4840  144.6780 C   0  0  0  0  0  0  0  0  0  0  0  0
  192.4310  174.7340  145.0460 C   0  0  0  0  0  3  0  0  0  0  0  0
  190.9110  176.9590  137.1840 C   0  0  0  0  0  2  0  0  0  0  0  0
  192.5870  175.9200  136.1870 C   0  0  0  0  0  1  0  0  0  0  0  0
  192.1850  176.4400  137.4180 O   0  0  0  0  0  0  0  0  0  0  0  0
  187.2570  178.3050  144.1570 O   0  0  0  0  0  0  0  0  0  0  0  0
  186.0480  177.8780  144.7680 C   0  0  0  0  0  2  0  0  0  0  0  0
  185.8190  178.6670  146.0400 C   0  0  0  0  0  1  0  0  0  0  0  0
  1 11  1  6  0  0  0
  1 13  1  0  0  0  0
  2  5  2  0  0  0  0
  3  1  1  0  0  0  0
  4  8  1  0  0  0  0
  5 11  1  0  0  0  0
  5 23  1  0  0  0  0
  6  9  1  0  0  0  0
  7 10  1  0  0  0  0
  7  4  2  0  0  0  0
  8  9  2  0  0  0  0
  8  3  1  0  0  0  0
  9  2  1  0  0  0  0
 10  6  2  0  0  0  0
 12 14  1  0  0  0  0
 13 18  1  1  0  0  0
 13 14  1  0  0  0  0
 15 17  1  0  0  0  0
 16 13  1  0  0  0  0
 16 17  1  0  0  0  0
 17 12  2  0  0  0  0
 18 19  3  0  0  0  0
 20 22  1  0  0  0  0
 20  7  1  0  0  0  0
 21 22  1  0  0  0  0
 23 24  1  0  0  0  0
 24 25  1  0  0  0  0
M  END
>  <MODEL>
9

>  <REMARK>
 VINA RESULT:      -4.7      1.556      2.208
  Name = 
  6 active torsions:
  status: ('A' for Active; 'I' for Inactive)
    1  A    between atoms: C_1  and  C_12
    2  A    between atoms: C_6  and  O_20
    3  A    between atoms: C_8  and  O_20
    4  A    between atoms: C_9  and  C_14
    5  A    between atoms: C_12  and  C_19
    6  A    between atoms: C_14  and  O_22
                            x       y       z     vdW  Elec       q    Type
                         _______ _______ _______ _____ _____    ______ ____

>  <TORSDO>
F 6

$$$$
