=
 OpenBabel11042411503D

 53 56  0  0  1  0  0  0  0  0999 V2000
  187.0330  174.9620  135.1730 C   0  0  0  0  0  2  0  0  0  0  0  0
  186.8870  176.1880  136.0720 C   0  0  2  0  0  3  0  0  0  0  0  0
  184.1110  179.3550  139.3360 C   0  0  0  0  0  2  0  0  0  0  0  0
  185.5470  176.2460  136.6970 N   0  0  2  0  0  0  0  0  0  0  0  0
  181.3720  174.4550  135.7920 C   0  0  0  0  0  3  0  0  0  0  0  0
  182.1860  177.8270  139.8710 C   0  0  2  0  0  3  0  0  0  0  0  0
  187.4470  178.5350  140.9380 C   0  0  0  0  0  0  0  0  0  0  0  0
  182.8890  175.7700  138.7990 C   0  0  0  0  0  0  0  0  0  0  0  0
  188.0250  177.6970  139.9770 C   0  0  0  0  0  3  0  0  0  0  0  0
  185.2750  177.5600  137.3190 C   0  0  0  0  0  2  0  0  0  0  0  0
  185.4060  175.1860  137.7030 C   0  0  0  0  0  2  0  0  0  0  0  0
  182.8800  176.5100  139.8730 C   0  0  0  0  0  3  0  0  0  0  0  0
  187.2400  173.6990  135.9920 C   0  0  1  0  0  3  0  0  0  0  0  0
  185.7350  171.7230  137.0330 O   0  0  0  0  0  0  0  0  0  0  0  0
  183.2120  172.8670  135.6610 C   0  0  0  0  0  2  0  0  0  0  0  0
  184.3260  173.7390  136.0120 N   0  0  1  0  0  0  0  0  0  0  0  0
  184.1990  174.2760  137.3910 C   0  0  2  0  0  3  0  0  0  0  0  0
  185.7420  172.7190  135.9050 S   0  0  0  0  0  0  0  0  0  0  0  0
  186.1700  179.0540  140.7180 C   0  0  0  0  0  3  0  0  0  0  0  0
  187.3220  177.3730  138.8160 C   0  0  0  0  0  3  0  0  0  0  0  0
  182.8810  175.0050  137.7280 C   0  0  0  0  0  0  0  0  0  0  0  0
  181.5280  174.4580  137.2840 C   0  0  1  0  0  3  0  0  0  0  0  0
  185.4520  178.7250  139.5600 C   0  0  0  0  0  0  0  0  0  0  0  0
  186.0230  177.8620  138.6030 C   0  0  0  0  0  0  0  0  0  0  0  0
  185.7300  171.9780  134.5950 O   0  0  0  0  0  0  0  0  0  0  0  0
  182.1410  173.6860  135.0280 C   0  0  0  0  0  3  0  0  0  0  0  0
  183.1070  178.9170  140.3940 C   0  0  0  0  0  2  0  0  0  0  0  0
  188.4130  177.7860  135.0210 C   0  0  0  0  0  2  0  0  0  0  0  0
  186.1190  178.0930  134.6290 O   0  0  0  0  0  1  0  0  0  0  0  0
  187.1630  177.3950  135.2230 C   0  0  0  0  0  0  0  0  0  0  0  0
  179.6830  176.1120  136.9170 C   0  0  0  0  0  1  0  0  0  0  0  0
  180.3160  175.1550  137.9100 C   0  0  0  0  0  2  0  0  0  0  0  0
  188.5140  171.6680  136.1280 O   0  0  0  0  0  1  0  0  0  0  0  0
  188.4660  172.9180  135.5070 C   0  0  2  0  0  3  0  0  0  0  0  0
  189.7720  174.8380  137.2910 C   0  0  0  0  0  1  0  0  0  0  0  0
  191.0950  172.8160  136.1260 O   0  0  0  0  0  0  0  0  0  0  0  0
  189.9850  173.7960  135.8660 S   0  0  0  0  0  0  0  0  0  0  0  0
  190.3530  174.6580  134.6900 O   0  0  0  0  0  0  0  0  0  0  0  0
  180.0700  177.6890  141.4120 N   0  0  0  0  0  0  0  0  0  0  0  0
  181.0040  177.7490  140.7310 C   0  0  0  0  0  0  0  0  0  0  0  0
  188.1460  178.8820  142.1350 N   0  0  0  0  0  2  0  0  0  0  0  0
  189.4820  178.3840  142.4430 C   0  0  0  0  0  2  0  0  0  0  0  0
  189.4570  177.4330  143.6420 C   0  0  1  0  0  0  0  0  0  0  0  0
  189.2780  176.0040  143.1110 C   0  0  0  0  0  1  0  0  0  0  0  0
  191.6150  178.4950  143.7770 F   0  0  0  0  0  0  0  0  0  0  0  0
  190.7970  177.5710  144.4070 C   0  0  2  0  0  3  0  0  0  0  0  0
  191.5570  176.2560  144.5660 C   0  0  0  0  0  2  0  0  0  0  0  0
  191.8670  175.9990  146.0270 C   0  0  0  0  0  1  0  0  0  0  0  0
  188.3630  177.8080  144.4660 O   0  0  0  0  0  0  0  0  0  0  0  0
  187.3000  176.8960  144.3130 C   0  0  0  0  0  2  0  0  0  0  0  0
  186.4130  177.5930  146.4130 O   0  0  0  0  0  1  0  0  0  0  0  0
  186.0840  177.3890  145.0730 C   0  0  1  0  0  3  0  0  0  0  0  0
  185.6060  178.6920  144.4680 C   0  0  0  0  0  1  0  0  0  0  0  0
  1 13  1  0  0  0  0
  1  2  1  0  0  0  0
  2 30  1  6  0  0  0
  2  4  1  0  0  0  0
  3 23  1  0  0  0  0
  3 27  1  0  0  0  0
  4 10  1  1  0  0  0
  4 11  1  0  0  0  0
  5 22  1  0  0  0  0
  6 12  1  0  0  0  0
  6 27  1  0  0  0  0
  6 40  1  1  0  0  0
  7 41  1  0  0  0  0
  8 12  2  0  0  0  0
  9  7  2  0  0  0  0
 10 24  1  0  0  0  0
 13 34  1  6  0  0  0
 16 15  1  1  0  0  0
 16 17  1  0  0  0  0
 17 11  1  6  0  0  0
 17 21  1  0  0  0  0
 18 13  1  0  0  0  0
 18 16  1  0  0  0  0
 18 14  2  0  0  0  0
 19  7  1  0  0  0  0
 20  9  1  0  0  0  0
 21  8  2  0  0  0  0
 22 21  1  0  0  0  0
 22 32  1  1  0  0  0
 23 19  2  0  0  0  0
 24 20  2  0  0  0  0
 24 23  1  0  0  0  0
 25 18  2  0  0  0  0
 26 15  1  0  0  0  0
 26  5  2  0  0  0  0
 28 30  2  0  0  0  0
 29 30  1  0  0  0  0
 31 32  1  0  0  0  0
 34 37  1  0  0  0  0
 34 33  1  1  0  0  0
 37 36  2  0  0  0  0
 37 35  1  0  0  0  0
 38 37  2  0  0  0  0
 40 39  3  0  0  0  0
 41 42  1  0  0  0  0
 42 43  1  0  0  0  0
 43 44  1  6  0  0  0
 43 46  1  0  0  0  0
 43 49  1  0  0  0  0
 46 45  1  6  0  0  0
 46 47  1  0  0  0  0
 47 48  1  0  0  0  0
 50 49  1  0  0  0  0
 50 52  1  0  0  0  0
 52 53  1  6  0  0  0
 52 51  1  0  0  0  0
M  END
>  <MODEL>
1

>  <REMARK>
 VINA RESULT:      -5.9      0.000      0.000
  Name = 
  13 active torsions:
  status: ('A' for Active; 'I' for Inactive)
    1  A    between atoms: C_3  and  C_38
    2  A    between atoms: C_6  and  C_43
    3  A    between atoms: C_8  and  C_38
    4  A    between atoms: C_8  and  C_42
    5  A    between atoms: C_8  and  O_49
    6  A    between atoms: C_9  and  C_27
    7  A    between atoms: C_9  and  S_28
    8  A    between atoms: C_15  and  C_44
    9  A    between atoms: C_16  and  O_49
   10  A    between atoms: C_16  and  C_50
   11  A    between atoms: N_17  and  C_19
   12  A    between atoms: N_17  and  C_42
   13  A    between atoms: C_31  and  C_41
                            x       y       z     vdW  Elec       q    Type
                         _______ _______ _______ _____ _____    ______ ____

>  <TORSDO>
F 13

$$$$
=
 OpenBabel11042411503D

 53 56  0  0  1  0  0  0  0  0999 V2000
  187.5640  175.7480  135.7610 C   0  0  0  0  0  2  0  0  0  0  0  0
  186.9310  176.8550  136.6020 C   0  0  2  0  0  3  0  0  0  0  0  0
  182.8370  179.0780  139.1880 C   0  0  0  0  0  2  0  0  0  0  0  0
  185.5210  176.5500  136.9290 N   0  0  2  0  0  0  0  0  0  0  0  0
  182.2100  173.8270  135.1730 C   0  0  0  0  0  3  0  0  0  0  0  0
  181.2920  177.0970  139.3130 C   0  0  2  0  0  3  0  0  0  0  0  0
  185.8700  179.0320  141.4620 C   0  0  0  0  0  0  0  0  0  0  0  0
  182.6950  175.3320  138.4260 C   0  0  0  0  0  0  0  0  0  0  0  0
  186.8250  178.4100  140.6500 C   0  0  0  0  0  3  0  0  0  0  0  0
  184.8060  177.7240  137.4720 C   0  0  0  0  0  2  0  0  0  0  0  0
  185.4480  175.4420  137.8880 C   0  0  0  0  0  2  0  0  0  0  0  0
  182.2800  175.9940  139.4700 C   0  0  0  0  0  3  0  0  0  0  0  0
  187.9080  174.5370  136.6120 C   0  0  1  0  0  3  0  0  0  0  0  0
  186.7700  172.2030  137.3220 O   0  0  0  0  0  0  0  0  0  0  0  0
  184.3770  172.7520  135.4430 C   0  0  0  0  0  2  0  0  0  0  0  0
  185.1390  173.8550  136.0160 N   0  0  1  0  0  0  0  0  0  0  0  0
  184.6000  174.2770  137.3340 C   0  0  2  0  0  3  0  0  0  0  0  0
  186.7570  173.2230  136.2160 S   0  0  0  0  0  0  0  0  0  0  0  0
  184.5770  179.2300  140.9750 C   0  0  0  0  0  3  0  0  0  0  0  0
  186.4800  177.9780  139.3690 C   0  0  0  0  0  3  0  0  0  0  0  0
  183.1010  174.6400  137.3810 C   0  0  0  0  0  0  0  0  0  0  0  0
  182.0500  173.7970  136.6640 C   0  0  1  0  0  3  0  0  0  0  0  0
  184.2180  178.7890  139.6930 C   0  0  0  0  0  0  0  0  0  0  0  0
  185.1730  178.1410  138.8840 C   0  0  0  0  0  0  0  0  0  0  0  0
  187.2010  172.5660  134.9370 O   0  0  0  0  0  0  0  0  0  0  0  0
  183.2890  173.3100  134.5930 C   0  0  0  0  0  3  0  0  0  0  0  0
  181.7810  178.3550  140.0130 C   0  0  0  0  0  2  0  0  0  0  0  0
  186.5760  178.2070  134.5940 C   0  0  0  0  0  2  0  0  0  0  0  0
  187.6760  179.2440  136.3900 O   0  0  0  0  0  1  0  0  0  0  0  0
  187.0640  178.1320  135.8230 C   0  0  0  0  0  0  0  0  0  0  0  0
  179.6430  173.4540  136.0600 C   0  0  0  0  0  1  0  0  0  0  0  0
  180.6000  174.1420  137.0160 C   0  0  0  0  0  2  0  0  0  0  0  0
  189.6180  172.9190  137.0870 O   0  0  0  0  0  1  0  0  0  0  0  0
  189.3650  174.1080  136.4000 C   0  0  2  0  0  3  0  0  0  0  0  0
  192.0550  174.6170  137.4400 C   0  0  0  0  0  1  0  0  0  0  0  0
  190.7430  176.3780  135.8980 O   0  0  0  0  0  0  0  0  0  0  0  0
  190.5060  175.3600  136.9800 S   0  0  0  0  0  0  0  0  0  0  0  0
  189.9250  176.0460  138.1840 O   0  0  0  0  0  0  0  0  0  0  0  0
  179.0100  176.3650  140.3750 N   0  0  0  0  0  0  0  0  0  0  0  0
  180.0170  176.6870  139.9050 C   0  0  0  0  0  0  0  0  0  0  0  0
  186.1970  179.4840  142.7780 N   0  0  0  0  0  2  0  0  0  0  0  0
  186.0010  178.6620  143.9670 C   0  0  0  0  0  2  0  0  0  0  0  0
  184.8360  179.1800  144.8140 C   0  0  1  0  0  0  0  0  0  0  0  0
  184.6130  180.6570  144.4620 C   0  0  0  0  0  1  0  0  0  0  0  0
  183.6280  177.8950  143.1740 F   0  0  0  0  0  0  0  0  0  0  0  0
  183.5760  178.3410  144.4850 C   0  0  2  0  0  3  0  0  0  0  0  0
  182.2620  179.0840  144.7090 C   0  0  0  0  0  2  0  0  0  0  0  0
  181.3590  178.9370  143.5000 C   0  0  0  0  0  1  0  0  0  0  0  0
  185.1980  179.0340  146.1800 O   0  0  0  0  0  0  0  0  0  0  0  0
  186.0110  177.8950  146.3500 C   0  0  0  0  0  2  0  0  0  0  0  0
  187.1870  177.9510  148.4230 O   0  0  0  0  0  1  0  0  0  0  0  0
  187.2900  178.2770  147.0700 C   0  0  1  0  0  3  0  0  0  0  0  0
  188.4540  177.5260  146.4590 C   0  0  0  0  0  1  0  0  0  0  0  0
  1  2  1  0  0  0  0
  1 13  1  0  0  0  0
  2 30  1  6  0  0  0
  2  4  1  0  0  0  0
  3 23  1  0  0  0  0
  3 27  1  0  0  0  0
  4 10  1  1  0  0  0
  4 11  1  0  0  0  0
  5 22  1  0  0  0  0
  6 12  1  0  0  0  0
  6 40  1  1  0  0  0
  6 27  1  0  0  0  0
  7 41  1  0  0  0  0
  8 12  2  0  0  0  0
  9  7  2  0  0  0  0
 10 24  1  0  0  0  0
 13 34  1  6  0  0  0
 16 15  1  1  0  0  0
 16 18  1  0  0  0  0
 16 17  1  0  0  0  0
 17 21  1  0  0  0  0
 17 11  1  6  0  0  0
 18 13  1  0  0  0  0
 18 14  2  0  0  0  0
 19  7  1  0  0  0  0
 20  9  1  0  0  0  0
 21  8  2  0  0  0  0
 22 32  1  6  0  0  0
 22 21  1  0  0  0  0
 23 19  2  0  0  0  0
 24 20  2  0  0  0  0
 24 23  1  0  0  0  0
 25 18  2  0  0  0  0
 26  5  2  0  0  0  0
 26 15  1  0  0  0  0
 28 30  2  0  0  0  0
 30 29  1  0  0  0  0
 31 32  1  0  0  0  0
 34 37  1  0  0  0  0
 34 33  1  1  0  0  0
 36 37  2  0  0  0  0
 37 35  1  0  0  0  0
 37 38  2  0  0  0  0
 40 39  3  0  0  0  0
 41 42  1  0  0  0  0
 42 43  1  0  0  0  0
 43 44  1  6  0  0  0
 43 49  1  0  0  0  0
 46 45  1  6  0  0  0
 46 47  1  0  0  0  0
 46 43  1  0  0  0  0
 48 47  1  0  0  0  0
 49 50  1  0  0  0  0
 50 52  1  0  0  0  0
 52 53  1  6  0  0  0
 52 51  1  0  0  0  0
M  END
>  <MODEL>
2

>  <REMARK>
 VINA RESULT:      -4.6      2.099      3.305
  Name = 
  13 active torsions:
  status: ('A' for Active; 'I' for Inactive)
    1  A    between atoms: C_3  and  C_38
    2  A    between atoms: C_6  and  C_43
    3  A    between atoms: C_8  and  C_38
    4  A    between atoms: C_8  and  C_42
    5  A    between atoms: C_8  and  O_49
    6  A    between atoms: C_9  and  C_27
    7  A    between atoms: C_9  and  S_28
    8  A    between atoms: C_15  and  C_44
    9  A    between atoms: C_16  and  O_49
   10  A    between atoms: C_16  and  C_50
   11  A    between atoms: N_17  and  C_19
   12  A    between atoms: N_17  and  C_42
   13  A    between atoms: C_31  and  C_41
                            x       y       z     vdW  Elec       q    Type
                         _______ _______ _______ _____ _____    ______ ____

>  <TORSDO>
F 13

$$$$
=
 OpenBabel11042411503D

 53 56  0  0  1  0  0  0  0  0999 V2000
  187.8410  175.9420  137.2100 C   0  0  0  0  0  2  0  0  0  0  0  0
  186.3160  175.8780  137.1440 C   0  0  2  0  0  3  0  0  0  0  0  0
  181.4580  176.6840  139.1790 C   0  0  0  0  0  2  0  0  0  0  0  0
  185.6970  176.4590  138.3560 N   0  0  2  0  0  0  0  0  0  0  0  0
  187.0490  177.3130  142.7040 C   0  0  0  0  0  3  0  0  0  0  0  0
  182.0410  178.2520  141.0560 C   0  0  2  0  0  3  0  0  0  0  0  0
  181.5850  178.0950  135.6630 C   0  0  0  0  0  0  0  0  0  0  0  0
  184.3960  178.6490  140.6410 C   0  0  0  0  0  0  0  0  0  0  0  0
  182.9080  177.8230  135.2950 C   0  0  0  0  0  3  0  0  0  0  0  0
  184.2560  176.1400  138.4570 C   0  0  0  0  0  2  0  0  0  0  0  0
  185.8810  177.9150  138.3750 C   0  0  0  0  0  2  0  0  0  0  0  0
  183.1600  179.0120  140.4340 C   0  0  0  0  0  3  0  0  0  0  0  0
  188.3470  177.3460  136.9280 C   0  0  1  0  0  3  0  0  0  0  0  0
  189.0270  179.5440  138.3280 O   0  0  0  0  0  0  0  0  0  0  0  0
  188.6220  178.0230  140.9890 C   0  0  0  0  0  2  0  0  0  0  0  0
  187.8890  177.6320  139.7920 N   0  0  1  0  0  0  0  0  0  0  0  0
  186.6070  178.3710  139.6590 C   0  0  2  0  0  3  0  0  0  0  0  0
  188.9480  178.0480  138.4640 S   0  0  0  0  0  0  0  0  0  0  0  0
  181.1350  177.7280  136.9320 C   0  0  0  0  0  3  0  0  0  0  0  0
  183.7730  177.2040  136.1980 C   0  0  0  0  0  3  0  0  0  0  0  0
  185.6470  178.3050  140.8660 C   0  0  0  0  0  0  0  0  0  0  0  0
  186.1520  178.4450  142.2990 C   0  0  1  0  0  3  0  0  0  0  0  0
  182.0000  177.1160  137.8510 C   0  0  0  0  0  0  0  0  0  0  0  0
  183.3390  176.8630  137.4900 C   0  0  0  0  0  0  0  0  0  0  0  0
  190.3260  177.5050  138.7310 O   0  0  0  0  0  0  0  0  0  0  0  0
  188.2240  177.1300  142.1110 C   0  0  0  0  0  3  0  0  0  0  0  0
  181.0050  177.8770  140.0090 C   0  0  0  0  0  2  0  0  0  0  0  0
  185.2850  174.0610  135.8700 C   0  0  0  0  0  2  0  0  0  0  0  0
  186.2950  173.4870  137.9100 O   0  0  0  0  0  1  0  0  0  0  0  0
  185.9410  174.4360  136.9580 C   0  0  0  0  0  0  0  0  0  0  0  0
  185.6590  178.6930  144.7430 C   0  0  0  0  0  1  0  0  0  0  0  0
  185.0540  178.6120  143.3530 C   0  0  0  0  0  2  0  0  0  0  0  0
  188.8520  177.6070  134.5950 O   0  0  0  0  0  1  0  0  0  0  0  0
  189.4260  177.3380  135.8390 C   0  0  2  0  0  3  0  0  0  0  0  0
  191.8290  175.9280  134.9360 C   0  0  0  0  0  1  0  0  0  0  0  0
  190.4810  175.2200  137.1450 O   0  0  0  0  0  0  0  0  0  0  0  0
  190.2610  175.7560  135.7570 S   0  0  0  0  0  0  0  0  0  0  0  0
  189.4160  174.7860  134.9820 O   0  0  0  0  0  0  0  0  0  0  0  0
  180.9020  179.7450  142.8850 N   0  0  0  0  0  0  0  0  0  0  0  0
  181.4050  179.0850  142.0780 C   0  0  0  0  0  0  0  0  0  0  0  0
  180.6790  178.7280  134.7570 N   0  0  0  0  0  2  0  0  0  0  0  0
  179.5350  179.5140  135.2040 C   0  0  0  0  0  2  0  0  0  0  0  0
  179.9770  180.8630  135.7770 C   0  0  1  0  0  0  0  0  0  0  0  0
  181.2620  180.6380  136.5850 C   0  0  0  0  0  1  0  0  0  0  0  0
  181.5550  182.2520  134.6000 F   0  0  0  0  0  0  0  0  0  0  0  0
  180.2340  181.8370  134.5980 C   0  0  2  0  0  3  0  0  0  0  0  0
  179.3240  183.0630  134.6010 C   0  0  0  0  0  2  0  0  0  0  0  0
  180.1430  184.3280  134.7620 C   0  0  0  0  0  1  0  0  0  0  0  0
  178.9320  181.3420  136.6100 O   0  0  0  0  0  0  0  0  0  0  0  0
  179.0800  180.8390  137.9180 C   0  0  0  0  0  2  0  0  0  0  0  0
  180.0540  181.5390  139.9780 O   0  0  0  0  0  1  0  0  0  0  0  0
  179.3070  181.9830  138.8870 C   0  0  1  0  0  3  0  0  0  0  0  0
  180.0550  183.0970  138.1860 C   0  0  0  0  0  1  0  0  0  0  0  0
  2 30  1  1  0  0  0
  2  1  1  0  0  0  0
  2  4  1  0  0  0  0
  3 27  1  0  0  0  0
  4 11  1  6  0  0  0
  4 10  1  0  0  0  0
  6 40  1  1  0  0  0
  7 19  1  0  0  0  0
  8 21  2  0  0  0  0
  9  7  2  0  0  0  0
  9 20  1  0  0  0  0
 12  8  2  0  0  0  0
 12  6  1  0  0  0  0
 13 34  1  6  0  0  0
 13  1  1  0  0  0  0
 13 18  1  0  0  0  0
 14 18  2  0  0  0  0
 15 26  1  0  0  0  0
 16 15  1  1  0  0  0
 17 11  1  6  0  0  0
 17 16  1  0  0  0  0
 17 21  1  0  0  0  0
 18 25  2  0  0  0  0
 18 16  1  0  0  0  0
 19 23  2  0  0  0  0
 20 24  2  0  0  0  0
 21 22  1  0  0  0  0
 22  5  1  0  0  0  0
 22 32  1  1  0  0  0
 23  3  1  0  0  0  0
 24 23  1  0  0  0  0
 24 10  1  0  0  0  0
 26  5  2  0  0  0  0
 27  6  1  0  0  0  0
 28 30  2  0  0  0  0
 30 29  1  0  0  0  0
 32 31  1  0  0  0  0
 34 33  1  6  0  0  0
 35 37  1  0  0  0  0
 37 34  1  0  0  0  0
 37 36  2  0  0  0  0
 38 37  2  0  0  0  0
 40 39  3  0  0  0  0
 41 42  1  0  0  0  0
 41  7  1  0  0  0  0
 42 43  1  0  0  0  0
 43 44  1  1  0  0  0
 43 49  1  0  0  0  0
 46 45  1  1  0  0  0
 46 47  1  0  0  0  0
 46 43  1  0  0  0  0
 47 48  1  0  0  0  0
 49 50  1  0  0  0  0
 50 52  1  0  0  0  0
 52 53  1  6  0  0  0
 52 51  1  0  0  0  0
M  END
>  <MODEL>
3

>  <REMARK>
 VINA RESULT:      -3.9      4.037      8.029
  Name = 
  13 active torsions:
  status: ('A' for Active; 'I' for Inactive)
    1  A    between atoms: C_3  and  C_38
    2  A    between atoms: C_6  and  C_43
    3  A    between atoms: C_8  and  C_38
    4  A    between atoms: C_8  and  C_42
    5  A    between atoms: C_8  and  O_49
    6  A    between atoms: C_9  and  C_27
    7  A    between atoms: C_9  and  S_28
    8  A    between atoms: C_15  and  C_44
    9  A    between atoms: C_16  and  O_49
   10  A    between atoms: C_16  and  C_50
   11  A    between atoms: N_17  and  C_19
   12  A    between atoms: N_17  and  C_42
   13  A    between atoms: C_31  and  C_41
                            x       y       z     vdW  Elec       q    Type
                         _______ _______ _______ _____ _____    ______ ____

>  <TORSDO>
F 13

$$$$
