=
 OpenBabel11032419463D

 45 48  0  0  1  0  0  0  0  0999 V2000
  188.1920  177.5540  141.0970 C   0  0  1  0  0  3  0  0  0  0  0  0
  189.0290  179.0320  139.3930 O   0  0  0  0  0  1  0  0  0  0  0  0
  189.3440  177.8850  140.1300 C   0  0  2  0  0  3  0  0  0  0  0  0
  191.0320  176.4900  139.0170 N   0  0  0  0  0  1  0  0  0  0  0  0
  189.6050  176.7100  139.1730 C   0  0  2  0  0  3  0  0  0  0  0  0
  188.9870  176.9710  137.8010 C   0  0  0  0  0  2  0  0  0  0  0  0
  187.9150  175.9370  137.4960 C   0  0  0  0  0  2  0  0  0  0  0  0
  183.5740  176.9420  137.1250 C   0  0  0  0  0  3  0  0  0  0  0  0
  184.4520  176.5770  135.9760 C   0  0  0  0  0  2  0  0  0  0  0  0
  186.4080  177.9740  137.7360 C   0  0  0  0  0  3  0  0  0  0  0  0
  183.9210  177.8280  138.0640 C   0  0  0  0  0  0  0  0  0  0  0  0
  182.9990  178.1670  138.9930 F   0  0  0  0  0  0  0  0  0  0  0  0
  185.7380  175.9720  136.4330 C   0  0  0  0  0  3  0  0  0  0  0  0
  186.6230  176.6140  137.1970 C   0  0  0  0  0  0  0  0  0  0  0  0
  185.2340  178.5010  138.1120 C   0  0  0  0  0  3  0  0  0  0  0  0
  188.6890  177.0000  142.4040 C   0  0  0  0  0  0  0  0  0  0  0  0
  188.6310  175.7950  142.6030 O   0  0  0  0  0  0  0  0  0  0  0  0
  188.6480  177.1780  147.0900 C   0  0  0  0  0  0  0  0  0  0  0  0
  192.0690  176.3840  147.6740 C   0  0  0  0  0  1  0  0  0  0  0  0
  190.4180  176.9460  145.8750 C   0  0  0  0  0  0  0  0  0  0  0  0
  189.1230  177.2540  145.8300 C   0  0  0  0  0  0  0  0  0  0  0  0
  186.5810  178.0790  146.2860 C   0  0  0  0  0  3  0  0  0  0  0  0
  187.3490  177.5850  147.3740 C   0  0  0  0  0  3  0  0  0  0  0  0
  189.2500  177.9130  143.4600 C   0  0  2  0  0  3  0  0  0  0  0  0
  189.6530  176.8200  147.9250 N   0  0  0  0  0  0  0  0  0  0  0  0
  190.7410  176.6830  147.1590 N   0  0  0  0  0  0  0  0  0  0  0  0
  190.7630  177.6470  143.6460 C   0  0  0  0  0  3  0  0  0  0  0  0
  191.2810  177.1940  144.7620 N   0  0  0  0  0  0  0  0  0  0  0  0
  188.4650  177.7810  144.7550 C   0  0  0  0  0  0  0  0  0  0  0  0
  187.1380  178.1910  144.9790 C   0  0  0  0  0  3  0  0  0  0  0  0
  187.2980  178.7610  141.3560 C   0  0  0  0  0  2  0  0  0  0  0  0
  185.8850  178.3050  141.5070 C   0  0  0  0  0  3  0  0  0  0  0  0
  185.0070  179.0690  142.1510 C   0  0  0  0  0  3  0  0  0  0  0  0
  183.5780  178.6490  142.3030 C   0  0  0  0  0  2  0  0  0  0  0  0
  183.0440  178.9950  143.6840 C   0  0  0  0  0  2  0  0  0  0  0  0
  181.5310  178.9110  143.6970 C   0  0  0  0  0  2  0  0  0  0  0  0
  180.9930  180.0240  143.0540 O   0  0  0  0  0  0  0  0  0  0  0  0
  179.7300  179.6130  142.6200 C   0  0  0  0  0  2  0  0  0  0  0  0
  180.3530  178.7980  140.4850 O   0  0  0  0  0  0  0  0  0  0  0  0
  179.3530  176.0880  141.0060 C   0  0  0  0  0  0  0  0  0  0  0  0
  178.9310  174.9790  141.4260 O   0  0  0  0  0  0  0  0  0  0  0  0
  179.8510  178.5260  141.6070 C   0  0  0  0  0  0  0  0  0  0  0  0
  179.3550  177.2130  141.8940 N   0  0  0  0  0  2  0  0  0  0  0  0
  179.8010  176.1940  139.5870 C   0  0  0  0  0  2  0  0  0  0  0  0
  181.1060  175.4460  139.4010 C   0  0  0  0  0  1  0  0  0  0  0  0
  1 31  1  1  0  0  0
  1 16  1  0  0  0  0
  3  2  1  6  0  0  0
  3  1  1  0  0  0  0
  5  4  1  6  0  0  0
  5  3  1  0  0  0  0
  6  5  1  0  0  0  0
  7  6  1  0  0  0  0
  8 11  2  0  0  0  0
  9 13  1  0  0  0  0
  9  8  1  0  0  0  0
 10 15  2  0  0  0  0
 11 15  1  0  0  0  0
 11 12  1  0  0  0  0
 13 14  2  0  0  0  0
 14  7  1  0  0  0  0
 14 10  1  0  0  0  0
 16 17  2  0  0  0  0
 18 23  1  0  0  0  0
 18 25  2  0  0  0  0
 20 26  1  0  0  0  0
 21 20  2  0  0  0  0
 21 18  1  0  0  0  0
 22 23  2  0  0  0  0
 24 16  1  6  0  0  0
 24 27  1  0  0  0  0
 24 29  1  0  0  0  0
 26 19  1  0  0  0  0
 26 25  1  0  0  0  0
 27 28  2  0  0  0  0
 28 20  1  0  0  0  0
 29 30  2  0  0  0  0
 29 21  1  0  0  0  0
 30 22  1  0  0  0  0
 31 32  1  0  0  0  0
 32 33  2  0  0  0  0
 33 34  1  0  0  0  0
 34 35  1  0  0  0  0
 35 36  1  0  0  0  0
 37 36  1  0  0  0  0
 38 37  1  0  0  0  0
 39 42  2  0  0  0  0
 40 41  2  0  0  0  0
 40 43  1  0  0  0  0
 42 43  1  0  0  0  0
 42 38  1  0  0  0  0
 44 40  1  0  0  0  0
 45 44  1  0  0  0  0
M  END
>  <MODEL>
1

>  <REMARK>
 VINA RESULT:      -8.0      0.000      0.000
  Name = 
  16 active torsions:
  status: ('A' for Active; 'I' for Inactive)
    1  A    between atoms: C_1  and  C_22
    2  A    between atoms: C_1  and  C_24
    3  A    between atoms: C_3  and  C_18
    4  A    between atoms: C_3  and  C_40
    5  A    between atoms: C_7  and  C_32
    6  A    between atoms: C_7  and  O_36
    7  A    between atoms: C_11  and  C_31
    8  A    between atoms: C_16  and  C_20
    9  A    between atoms: C_16  and  C_38
   10  A    between atoms: C_19  and  C_40
   11  A    between atoms: C_19  and  C_41
   12  A    between atoms: C_20  and  C_41
   13  A    between atoms: C_21  and  C_22
   14  A    between atoms: C_21  and  O_36
   15  A    between atoms: C_23  and  C_29
   16  A    between atoms: C_29  and  C_40
                            x       y       z     vdW  Elec       q    Type
                         _______ _______ _______ _____ _____    ______ ____

>  <TORSDO>
F 16

$$$$
=
 OpenBabel11032419463D

 45 48  0  0  1  0  0  0  0  0999 V2000
  186.2230  178.0440  138.2970 C   0  0  1  0  0  3  0  0  0  0  0  0
  184.9820  179.8440  139.2980 O   0  0  0  0  0  1  0  0  0  0  0  0
  184.8710  178.7720  138.4060 C   0  0  2  0  0  3  0  0  0  0  0  0
  182.8790  177.4720  137.7930 N   0  0  0  0  0  1  0  0  0  0  0  0
  183.7720  177.8090  138.8870 C   0  0  2  0  0  3  0  0  0  0  0  0
  182.9600  178.4260  140.0240 C   0  0  0  0  0  2  0  0  0  0  0  0
  183.0070  177.5350  141.2550 C   0  0  0  0  0  2  0  0  0  0  0  0
  184.5270  178.8430  145.2510 C   0  0  0  0  0  3  0  0  0  0  0  0
  183.6720  179.6820  144.3630 C   0  0  0  0  0  2  0  0  0  0  0  0
  185.2270  178.1510  142.3360 C   0  0  0  0  0  3  0  0  0  0  0  0
  185.6000  178.1730  144.8200 C   0  0  0  0  0  0  0  0  0  0  0  0
  186.3680  177.5400  145.7370 F   0  0  0  0  0  0  0  0  0  0  0  0
  183.0470  178.8750  143.2730 C   0  0  0  0  0  3  0  0  0  0  0  0
  183.7510  178.2150  142.3500 C   0  0  0  0  0  0  0  0  0  0  0  0
  186.0300  178.1330  143.4080 C   0  0  0  0  0  3  0  0  0  0  0  0
  186.9030  178.3030  136.9800 C   0  0  0  0  0  0  0  0  0  0  0  0
  187.3110  179.4290  136.7300 O   0  0  0  0  0  0  0  0  0  0  0  0
  189.7320  174.5950  136.4990 C   0  0  0  0  0  0  0  0  0  0  0  0
  187.3400  172.0300  137.1070 C   0  0  0  0  0  1  0  0  0  0  0  0
  187.5880  174.4940  136.7340 C   0  0  0  0  0  0  0  0  0  0  0  0
  188.5980  175.3260  136.4850 C   0  0  0  0  0  0  0  0  0  0  0  0
  190.9060  176.5390  135.7400 C   0  0  0  0  0  3  0  0  0  0  0  0
  190.9420  175.1720  136.1290 C   0  0  0  0  0  3  0  0  0  0  0  0
  187.0790  177.1970  135.9770 C   0  0  2  0  0  3  0  0  0  0  0  0
  189.4260  173.3020  136.7580 N   0  0  0  0  0  0  0  0  0  0  0  0
  188.0970  173.2550  136.8980 N   0  0  0  0  0  0  0  0  0  0  0  0
  185.9780  176.1270  136.1660 C   0  0  0  0  0  3  0  0  0  0  0  0
  186.2300  174.8900  136.5220 N   0  0  0  0  0  0  0  0  0  0  0  0
  188.4820  176.6180  136.0580 C   0  0  0  0  0  0  0  0  0  0  0  0
  189.6790  177.2610  135.6910 C   0  0  0  0  0  3  0  0  0  0  0  0
  187.1630  178.4060  139.4410 C   0  0  0  0  0  2  0  0  0  0  0  0
  188.3190  177.4620  139.4490 C   0  0  0  0  0  3  0  0  0  0  0  0
  189.5620  177.9350  139.4370 C   0  0  0  0  0  3  0  0  0  0  0  0
  190.7420  177.0140  139.4640 C   0  0  0  0  0  2  0  0  0  0  0  0
  191.7370  177.4230  140.5400 C   0  0  0  0  0  2  0  0  0  0  0  0
  191.1540  177.1670  141.9150 C   0  0  0  0  0  2  0  0  0  0  0  0
  192.0130  177.6690  142.8910 O   0  0  0  0  0  0  0  0  0  0  0  0
  191.2630  178.6350  143.5680 C   0  0  0  0  0  2  0  0  0  0  0  0
  189.2990  178.2050  144.8220 O   0  0  0  0  0  0  0  0  0  0  0  0
  190.7180  176.7010  146.9040 C   0  0  0  0  0  0  0  0  0  0  0  0
  191.4760  176.0390  147.6600 O   0  0  0  0  0  0  0  0  0  0  0  0
  190.5410  178.0250  144.7210 C   0  0  0  0  0  0  0  0  0  0  0  0
  191.2630  177.2940  145.7200 N   0  0  0  0  0  2  0  0  0  0  0  0
  189.2870  176.8700  147.2930 C   0  0  0  0  0  2  0  0  0  0  0  0
  189.1510  178.0190  148.2710 C   0  0  0  0  0  1  0  0  0  0  0  0
  1  3  1  0  0  0  0
  1 31  1  1  0  0  0
  3  5  1  0  0  0  0
  3  2  1  1  0  0  0
  5  4  1  6  0  0  0
  5  6  1  0  0  0  0
  6  7  1  0  0  0  0
  7 14  1  0  0  0  0
  9  8  1  0  0  0  0
 10 14  1  0  0  0  0
 10 15  2  0  0  0  0
 11  8  2  0  0  0  0
 11 12  1  0  0  0  0
 13  9  1  0  0  0  0
 14 13  2  0  0  0  0
 15 11  1  0  0  0  0
 16  1  1  0  0  0  0
 17 16  2  0  0  0  0
 18 25  2  0  0  0  0
 20 26  1  0  0  0  0
 21 18  1  0  0  0  0
 21 20  2  0  0  0  0
 22 23  2  0  0  0  0
 23 18  1  0  0  0  0
 24 29  1  0  0  0  0
 24 27  1  0  0  0  0
 24 16  1  1  0  0  0
 25 26  1  0  0  0  0
 26 19  1  0  0  0  0
 27 28  2  0  0  0  0
 28 20  1  0  0  0  0
 29 21  1  0  0  0  0
 30 22  1  0  0  0  0
 30 29  2  0  0  0  0
 31 32  1  0  0  0  0
 33 32  2  0  0  0  0
 33 34  1  0  0  0  0
 34 35  1  0  0  0  0
 35 36  1  0  0  0  0
 36 37  1  0  0  0  0
 37 38  1  0  0  0  0
 38 42  1  0  0  0  0
 40 44  1  0  0  0  0
 40 41  2  0  0  0  0
 42 39  2  0  0  0  0
 42 43  1  0  0  0  0
 43 40  1  0  0  0  0
 44 45  1  0  0  0  0
M  END
>  <MODEL>
2

>  <REMARK>
 VINA RESULT:      -7.9      2.909      9.118
  Name = 
  16 active torsions:
  status: ('A' for Active; 'I' for Inactive)
    1  A    between atoms: C_1  and  C_22
    2  A    between atoms: C_1  and  C_24
    3  A    between atoms: C_3  and  C_18
    4  A    between atoms: C_3  and  C_40
    5  A    between atoms: C_7  and  C_32
    6  A    between atoms: C_7  and  O_36
    7  A    between atoms: C_11  and  C_31
    8  A    between atoms: C_16  and  C_20
    9  A    between atoms: C_16  and  C_38
   10  A    between atoms: C_19  and  C_40
   11  A    between atoms: C_19  and  C_41
   12  A    between atoms: C_20  and  C_41
   13  A    between atoms: C_21  and  C_22
   14  A    between atoms: C_21  and  O_36
   15  A    between atoms: C_23  and  C_29
   16  A    between atoms: C_29  and  C_40
                            x       y       z     vdW  Elec       q    Type
                         _______ _______ _______ _____ _____    ______ ____

>  <TORSDO>
F 16

$$$$
=
 OpenBabel11032419463D

 45 48  0  0  1  0  0  0  0  0999 V2000
  184.4640  178.6840  139.6170 C   0  0  1  0  0  3  0  0  0  0  0  0
  186.5880  179.0170  140.6950 O   0  0  0  0  0  1  0  0  0  0  0  0
  185.2060  179.1270  140.8910 C   0  0  2  0  0  3  0  0  0  0  0  0
  183.8380  178.9930  142.9260 N   0  0  0  0  0  1  0  0  0  0  0  0
  184.7820  178.2690  142.0940 C   0  0  2  0  0  3  0  0  0  0  0  0
  185.9910  177.8720  142.9390 C   0  0  0  0  0  2  0  0  0  0  0  0
  185.7720  178.2570  144.3930 C   0  0  0  0  0  2  0  0  0  0  0  0
  189.6890  177.7210  146.4820 C   0  0  0  0  0  3  0  0  0  0  0  0
  189.2240  176.8800  145.3430 C   0  0  0  0  0  2  0  0  0  0  0  0
  186.6260  177.4910  146.6650 C   0  0  0  0  0  3  0  0  0  0  0  0
  188.9220  178.0230  147.5350 C   0  0  0  0  0  0  0  0  0  0  0  0
  189.4870  178.6960  148.5640 F   0  0  0  0  0  0  0  0  0  0  0  0
  188.0590  177.4940  144.6400 C   0  0  0  0  0  3  0  0  0  0  0  0
  186.8880  177.7380  145.2320 C   0  0  0  0  0  0  0  0  0  0  0  0
  187.5100  177.6140  147.6650 C   0  0  0  0  0  3  0  0  0  0  0  0
  183.4390  179.6940  139.1760 C   0  0  0  0  0  0  0  0  0  0  0  0
  183.8030  180.8210  138.8710 O   0  0  0  0  0  0  0  0  0  0  0  0
  180.9010  176.2100  137.3310 C   0  0  0  0  0  0  0  0  0  0  0  0
  179.9320  174.6080  140.3590 C   0  0  0  0  0  1  0  0  0  0  0  0
  181.0440  176.6560  139.4390 C   0  0  0  0  0  0  0  0  0  0  0  0
  181.3140  177.1310  138.2250 C   0  0  2  0  0  3  0  0  0  0  0  0
  181.3940  177.7810  135.5940 C   0  0  0  0  0  3  0  0  0  0  0  0
  180.9260  176.4930  135.9700 C   0  0  0  0  0  3  0  0  0  0  0  0
  181.9810  179.3300  139.1150 C   0  0  0  0  0  0  0  0  0  0  0  0
  180.3700  175.1540  137.9920 N   0  0  0  0  0  0  0  0  0  0  0  0
  180.4630  175.4450  139.2940 N   0  0  0  0  0  0  0  0  0  0  0  0
  181.5240  178.7290  140.4650 C   0  0  0  0  0  3  0  0  0  0  0  0
  181.1040  177.4940  140.5970 N   0  0  0  0  0  0  0  0  0  0  0  0
  181.7090  178.4070  137.9370 C   0  0  0  0  0  0  0  0  0  0  0  0
  181.7730  178.7440  136.5730 C   0  0  0  0  0  3  0  0  0  0  0  0
  185.4210  178.3900  138.4680 C   0  0  0  0  0  2  0  0  0  0  0  0
  184.9890  177.1430  137.7710 C   0  0  0  0  0  3  0  0  0  0  0  0
  184.9830  177.0930  136.4420 C   0  0  0  0  0  3  0  0  0  0  0  0
  184.5730  175.8510  135.7140 C   0  0  0  0  0  2  0  0  0  0  0  0
  184.8230  174.6100  136.5570 C   0  0  0  0  0  2  0  0  0  0  0  0
  186.1600  173.9940  136.1970 C   0  0  0  0  0  2  0  0  0  0  0  0
  187.0980  174.2960  137.1830 O   0  0  0  0  0  0  0  0  0  0  0  0
  188.1780  174.8540  136.4920 C   0  0  0  0  0  2  0  0  0  0  0  0
  189.9700  175.1070  138.0210 O   0  0  0  0  0  0  0  0  0  0  0  0
  189.4070  177.9450  138.5180 C   0  0  0  0  0  0  0  0  0  0  0  0
  189.0590  179.1530  138.5590 O   0  0  0  0  0  0  0  0  0  0  0  0
  189.0230  175.6690  137.4110 C   0  0  0  0  0  0  0  0  0  0  0  0
  188.7220  177.0530  137.6300 N   0  0  0  0  0  2  0  0  0  0  0  0
  190.4980  177.4820  139.4250 C   0  0  0  0  0  2  0  0  0  0  0  0
  189.9630  177.3170  140.8340 C   0  0  0  0  0  1  0  0  0  0  0  0
  1 31  1  6  0  0  0
  1  3  1  0  0  0  0
  3  2  1  6  0  0  0
  3  5  1  0  0  0  0
  5  4  1  1  0  0  0
  5  6  1  0  0  0  0
  6  7  1  0  0  0  0
  7 14  1  0  0  0  0
  8 11  2  0  0  0  0
  9  8  1  0  0  0  0
 10 15  2  0  0  0  0
 11 15  1  0  0  0  0
 11 12  1  0  0  0  0
 13 14  2  0  0  0  0
 13  9  1  0  0  0  0
 14 10  1  0  0  0  0
 16  1  1  0  0  0  0
 17 16  2  0  0  0  0
 18 25  2  0  0  0  0
 20 28  2  0  0  0  0
 21 18  1  6  0  0  0
 21 20  1  0  0  0  0
 22 23  2  0  0  0  0
 22 30  1  0  0  0  0
 23 18  1  0  0  0  0
 24 16  1  0  0  0  0
 24 27  2  0  0  0  0
 25 26  1  0  0  0  0
 26 20  1  0  0  0  0
 26 19  1  0  0  0  0
 27 28  1  0  0  0  0
 29 21  1  0  0  0  0
 29 24  1  0  0  0  0
 30 29  2  0  0  0  0
 32 31  1  0  0  0  0
 33 32  2  0  0  0  0
 34 33  1  0  0  0  0
 34 35  1  0  0  0  0
 36 35  1  0  0  0  0
 36 37  1  0  0  0  0
 38 37  1  0  0  0  0
 38 42  1  0  0  0  0
 40 41  2  0  0  0  0
 40 44  1  0  0  0  0
 42 43  1  0  0  0  0
 42 39  2  0  0  0  0
 43 40  1  0  0  0  0
 44 45  1  0  0  0  0
M  END
>  <MODEL>
3

>  <REMARK>
 VINA RESULT:      -7.7      3.518      9.677
  Name = 
  16 active torsions:
  status: ('A' for Active; 'I' for Inactive)
    1  A    between atoms: C_1  and  C_22
    2  A    between atoms: C_1  and  C_24
    3  A    between atoms: C_3  and  C_18
    4  A    between atoms: C_3  and  C_40
    5  A    between atoms: C_7  and  C_32
    6  A    between atoms: C_7  and  O_36
    7  A    between atoms: C_11  and  C_31
    8  A    between atoms: C_16  and  C_20
    9  A    between atoms: C_16  and  C_38
   10  A    between atoms: C_19  and  C_40
   11  A    between atoms: C_19  and  C_41
   12  A    between atoms: C_20  and  C_41
   13  A    between atoms: C_21  and  C_22
   14  A    between atoms: C_21  and  O_36
   15  A    between atoms: C_23  and  C_29
   16  A    between atoms: C_29  and  C_40
                            x       y       z     vdW  Elec       q    Type
                         _______ _______ _______ _____ _____    ______ ____

>  <TORSDO>
F 16

$$$$
=
 OpenBabel11032419463D

 45 48  0  0  1  0  0  0  0  0999 V2000
  189.0150  177.9030  140.9410 C   0  0  1  0  0  3  0  0  0  0  0  0
  188.7490  176.2730  142.6900 O   0  0  0  0  0  1  0  0  0  0  0  0
  189.7070  176.9070  141.8900 C   0  0  2  0  0  3  0  0  0  0  0  0
  191.7000  176.6800  143.3070 N   0  0  0  0  0  1  0  0  0  0  0  0
  190.7330  177.6270  142.7810 C   0  0  2  0  0  3  0  0  0  0  0  0
  190.0460  178.3390  143.9450 C   0  0  0  0  0  2  0  0  0  0  0  0
  190.4030  177.6690  145.2620 C   0  0  0  0  0  2  0  0  0  0  0  0
  187.1030  178.5570  148.1450 C   0  0  0  0  0  3  0  0  0  0  0  0
  188.2400  177.6350  148.4300 C   0  0  0  0  0  2  0  0  0  0  0  0
  187.9100  177.2100  145.5000 C   0  0  0  0  0  3  0  0  0  0  0  0
  186.3960  178.5270  147.0110 C   0  0  0  0  0  0  0  0  0  0  0  0
  185.3140  179.3320  146.9120 F   0  0  0  0  0  0  0  0  0  0  0  0
  189.3440  177.7960  147.4380 C   0  0  0  0  0  3  0  0  0  0  0  0
  189.1960  177.5750  146.1300 C   0  0  0  0  0  0  0  0  0  0  0  0
  186.6940  177.6230  145.8830 C   0  0  0  0  0  3  0  0  0  0  0  0
  189.5320  177.7970  139.5320 C   0  0  0  0  0  0  0  0  0  0  0  0
  189.4460  178.7660  138.7900 O   0  0  0  0  0  0  0  0  0  0  0  0
  189.9750  175.6480  135.3880 C   0  0  0  0  0  0  0  0  0  0  0  0
  193.4800  176.0840  134.9450 C   0  0  0  0  0  1  0  0  0  0  0  0
  191.6180  176.3560  136.5980 C   0  0  0  0  0  0  0  0  0  0  0  0
  190.3090  176.1100  136.6110 C   0  0  2  0  0  3  0  0  0  0  0  0
  187.7840  175.1950  136.2390 C   0  0  0  0  0  3  0  0  0  0  0  0
  188.6920  175.1720  135.1450 C   0  0  0  0  0  3  0  0  0  0  0  0
  190.1450  176.5170  139.0350 C   0  0  0  0  0  0  0  0  0  0  0  0
  191.0820  175.6080  134.6090 N   0  0  0  0  0  0  0  0  0  0  0  0
  192.0900  176.0450  135.3720 N   0  0  0  0  0  0  0  0  0  0  0  0
  191.6820  176.6630  138.9390 C   0  0  0  0  0  3  0  0  0  0  0  0
  192.3420  176.5940  137.8090 N   0  0  0  0  0  0  0  0  0  0  0  0
  189.5100  176.0950  137.7190 C   0  0  0  0  0  0  0  0  0  0  0  0
  188.1920  175.6420  137.5280 C   0  0  0  0  0  3  0  0  0  0  0  0
  187.5000  177.7420  140.9470 C   0  0  0  0  0  2  0  0  0  0  0  0
  186.9230  178.5260  142.0790 C   0  0  0  0  0  3  0  0  0  0  0  0
  185.6060  178.6800  142.1750 C   0  0  0  0  0  3  0  0  0  0  0  0
  184.9960  179.4450  143.3090 C   0  0  0  0  0  2  0  0  0  0  0  0
  183.8400  178.6790  143.9330 C   0  0  0  0  0  2  0  0  0  0  0  0
  182.5200  179.3000  143.5260 C   0  0  0  0  0  2  0  0  0  0  0  0
  181.6580  178.3090  143.0600 O   0  0  0  0  0  0  0  0  0  0  0  0
  181.1470  178.8120  141.8600 C   0  0  0  0  0  2  0  0  0  0  0  0
  182.0810  177.3170  140.2770 O   0  0  0  0  0  0  0  0  0  0  0  0
  183.9020  179.3280  139.1550 C   0  0  0  0  0  0  0  0  0  0  0  0
  184.5600  180.3260  138.7630 O   0  0  0  0  0  0  0  0  0  0  0  0
  182.0610  178.4930  140.7260 C   0  0  0  0  0  0  0  0  0  0  0  0
  182.9360  179.4980  140.2000 N   0  0  0  0  0  2  0  0  0  0  0  0
  184.1800  177.9980  138.5390 C   0  0  0  0  0  2  0  0  0  0  0  0
  185.4790  178.0510  137.7590 C   0  0  0  0  0  1  0  0  0  0  0  0
  1 31  1  6  0  0  0
  1  3  1  0  0  0  0
  3  2  1  1  0  0  0
  3  5  1  0  0  0  0
  5  4  1  1  0  0  0
  5  6  1  0  0  0  0
  6  7  1  0  0  0  0
  7 14  1  0  0  0  0
  8  9  1  0  0  0  0
 10 15  2  0  0  0  0
 10 14  1  0  0  0  0
 11  8  2  0  0  0  0
 12 11  1  0  0  0  0
 13  9  1  0  0  0  0
 14 13  2  0  0  0  0
 15 11  1  0  0  0  0
 16  1  1  0  0  0  0
 17 16  2  0  0  0  0
 19 26  1  0  0  0  0
 20 21  1  0  0  0  0
 20 28  2  0  0  0  0
 21 18  1  1  0  0  0
 21 29  1  0  0  0  0
 22 30  1  0  0  0  0
 23 18  1  0  0  0  0
 23 22  2  0  0  0  0
 24 16  1  0  0  0  0
 25 26  1  0  0  0  0
 25 18  2  0  0  0  0
 26 20  1  0  0  0  0
 27 24  2  0  0  0  0
 28 27  1  0  0  0  0
 29 24  1  0  0  0  0
 30 29  2  0  0  0  0
 31 32  1  0  0  0  0
 32 33  2  0  0  0  0
 33 34  1  0  0  0  0
 34 35  1  0  0  0  0
 36 35  1  0  0  0  0
 37 36  1  0  0  0  0
 38 37  1  0  0  0  0
 39 42  2  0  0  0  0
 40 43  1  0  0  0  0
 41 40  2  0  0  0  0
 42 38  1  0  0  0  0
 43 42  1  0  0  0  0
 44 40  1  0  0  0  0
 45 44  1  0  0  0  0
M  END
>  <MODEL>
4

>  <REMARK>
 VINA RESULT:      -7.7      2.380      7.454
  Name = 
  16 active torsions:
  status: ('A' for Active; 'I' for Inactive)
    1  A    between atoms: C_1  and  C_22
    2  A    between atoms: C_1  and  C_24
    3  A    between atoms: C_3  and  C_18
    4  A    between atoms: C_3  and  C_40
    5  A    between atoms: C_7  and  C_32
    6  A    between atoms: C_7  and  O_36
    7  A    between atoms: C_11  and  C_31
    8  A    between atoms: C_16  and  C_20
    9  A    between atoms: C_16  and  C_38
   10  A    between atoms: C_19  and  C_40
   11  A    between atoms: C_19  and  C_41
   12  A    between atoms: C_20  and  C_41
   13  A    between atoms: C_21  and  C_22
   14  A    between atoms: C_21  and  O_36
   15  A    between atoms: C_23  and  C_29
   16  A    between atoms: C_29  and  C_40
                            x       y       z     vdW  Elec       q    Type
                         _______ _______ _______ _____ _____    ______ ____

>  <TORSDO>
F 16

$$$$
=
 OpenBabel11032419463D

 45 48  0  0  1  0  0  0  0  0999 V2000
  189.2030  177.2670  140.1250 C   0  0  1  0  0  3  0  0  0  0  0  0
  191.5620  177.5080  140.5280 O   0  0  0  0  0  1  0  0  0  0  0  0
  190.6040  176.6430  139.9860 C   0  0  2  0  0  3  0  0  0  0  0  0
  190.4540  175.0500  138.1230 N   0  0  0  0  0  1  0  0  0  0  0  0
  190.9320  176.3660  138.5100 C   0  0  2  0  0  3  0  0  0  0  0  0
  192.4370  176.4450  138.2570 C   0  0  0  0  0  2  0  0  0  0  0  0
  192.7860  175.8020  136.9250 C   0  0  0  0  0  2  0  0  0  0  0  0
  195.4500  172.4460  138.2030 C   0  0  0  0  0  3  0  0  0  0  0  0
  195.6330  173.8660  138.6160 C   0  0  0  0  0  2  0  0  0  0  0  0
  194.5000  174.2340  135.8860 C   0  0  0  0  0  3  0  0  0  0  0  0
  195.2200  172.0700  136.9410 C   0  0  0  0  0  0  0  0  0  0  0  0
  195.1850  170.7460  136.6650 F   0  0  0  0  0  0  0  0  0  0  0  0
  194.4230  174.6890  138.3240 C   0  0  0  0  0  3  0  0  0  0  0  0
  193.9380  174.8730  137.0940 C   0  0  0  0  0  0  0  0  0  0  0  0
  195.0570  173.0170  135.8200 C   0  0  0  0  0  3  0  0  0  0  0  0
  188.9370  177.7610  141.5210 C   0  0  0  0  0  0  0  0  0  0  0  0
  189.0320  178.9560  141.7610 O   0  0  0  0  0  0  0  0  0  0  0  0
  190.1050  177.1350  146.0200 C   0  0  0  0  0  0  0  0  0  0  0  0
  187.0300  178.1420  147.5030 C   0  0  0  0  0  1  0  0  0  0  0  0
  188.1240  177.6230  145.3110 C   0  0  0  0  0  0  0  0  0  0  0  0
  189.3300  177.2180  144.9180 C   0  0  0  0  0  0  0  0  0  0  0  0
  191.8100  176.1510  144.6570 C   0  0  0  0  0  3  0  0  0  0  0  0
  191.3850  176.5990  145.9370 C   0  0  0  0  0  3  0  0  0  0  0  0
  188.5620  176.7990  142.6150 C   0  0  2  0  0  3  0  0  0  0  0  0
  189.3770  177.4910  147.1040 N   0  0  0  0  0  0  0  0  0  0  0  0
  188.1540  177.7870  146.6500 N   0  0  0  0  0  0  0  0  0  0  0  0
  187.1760  177.1670  143.1960 C   0  0  0  0  0  3  0  0  0  0  0  0
  186.9940  177.5520  144.4360 N   0  0  0  0  0  0  0  0  0  0  0  0
  189.6490  176.7440  143.6760 C   0  0  0  0  0  0  0  0  0  0  0  0
  190.9420  176.2090  143.5280 C   0  0  0  0  0  3  0  0  0  0  0  0
  188.9780  178.3980  139.1280 C   0  0  0  0  0  2  0  0  0  0  0  0
  187.7080  178.1540  138.3820 C   0  0  0  0  0  3  0  0  0  0  0  0
  187.7490  177.6770  137.1410 C   0  0  0  0  0  3  0  0  0  0  0  0
  186.4920  177.4050  136.3740 C   0  0  0  0  0  2  0  0  0  0  0  0
  185.5080  176.5900  137.1980 C   0  0  0  0  0  2  0  0  0  0  0  0
  184.2190  177.3630  137.3880 C   0  0  0  0  0  2  0  0  0  0  0  0
  183.9460  177.4960  138.7480 O   0  0  0  0  0  0  0  0  0  0  0  0
  184.2580  178.8250  139.0490 C   0  0  0  0  0  2  0  0  0  0  0  0
  185.2910  179.4280  141.0940 O   0  0  0  0  0  0  0  0  0  0  0  0
  182.8880  178.9000  142.6940 C   0  0  0  0  0  0  0  0  0  0  0  0
  181.7570  178.6850  143.2030 O   0  0  0  0  0  0  0  0  0  0  0  0
  184.2350  179.0490  140.5230 C   0  0  0  0  0  0  0  0  0  0  0  0
  183.0440  178.7840  141.2750 N   0  0  0  0  0  2  0  0  0  0  0  0
  184.0290  179.2330  143.5960 C   0  0  0  0  0  2  0  0  0  0  0  0
  183.6470  178.9560  145.0360 C   0  0  0  0  0  1  0  0  0  0  0  0
  1 31  1  6  0  0  0
  1 16  1  0  0  0  0
  3  1  1  0  0  0  0
  3  2  1  6  0  0  0
  5  4  1  1  0  0  0
  5  3  1  0  0  0  0
  6  5  1  0  0  0  0
  7 14  1  0  0  0  0
  7  6  1  0  0  0  0
  8  9  1  0  0  0  0
 10 14  1  0  0  0  0
 11  8  2  0  0  0  0
 12 11  1  0  0  0  0
 13  9  1  0  0  0  0
 14 13  2  0  0  0  0
 15 10  2  0  0  0  0
 15 11  1  0  0  0  0
 16 17  2  0  0  0  0
 18 25  2  0  0  0  0
 20 26  1  0  0  0  0
 21 20  2  0  0  0  0
 21 18  1  0  0  0  0
 22 23  2  0  0  0  0
 23 18  1  0  0  0  0
 24 16  1  6  0  0  0
 24 27  1  0  0  0  0
 24 29  1  0  0  0  0
 26 25  1  0  0  0  0
 26 19  1  0  0  0  0
 27 28  2  0  0  0  0
 28 20  1  0  0  0  0
 29 21  1  0  0  0  0
 30 29  2  0  0  0  0
 30 22  1  0  0  0  0
 32 31  1  0  0  0  0
 33 32  2  0  0  0  0
 34 33  1  0  0  0  0
 34 35  1  0  0  0  0
 35 36  1  0  0  0  0
 36 37  1  0  0  0  0
 37 38  1  0  0  0  0
 38 42  1  0  0  0  0
 40 41  2  0  0  0  0
 40 44  1  0  0  0  0
 42 39  2  0  0  0  0
 42 43  1  0  0  0  0
 43 40  1  0  0  0  0
 44 45  1  0  0  0  0
M  END
>  <MODEL>
5

>  <REMARK>
 VINA RESULT:      -7.6      3.869      6.200
  Name = 
  16 active torsions:
  status: ('A' for Active; 'I' for Inactive)
    1  A    between atoms: C_1  and  C_22
    2  A    between atoms: C_1  and  C_24
    3  A    between atoms: C_3  and  C_18
    4  A    between atoms: C_3  and  C_40
    5  A    between atoms: C_7  and  C_32
    6  A    between atoms: C_7  and  O_36
    7  A    between atoms: C_11  and  C_31
    8  A    between atoms: C_16  and  C_20
    9  A    between atoms: C_16  and  C_38
   10  A    between atoms: C_19  and  C_40
   11  A    between atoms: C_19  and  C_41
   12  A    between atoms: C_20  and  C_41
   13  A    between atoms: C_21  and  C_22
   14  A    between atoms: C_21  and  O_36
   15  A    between atoms: C_23  and  C_29
   16  A    between atoms: C_29  and  C_40
                            x       y       z     vdW  Elec       q    Type
                         _______ _______ _______ _____ _____    ______ ____

>  <TORSDO>
F 16

$$$$
=
 OpenBabel11032419463D

 45 48  0  0  1  0  0  0  0  0999 V2000
  187.0610  177.9460  138.1570 C   0  0  1  0  0  3  0  0  0  0  0  0
  185.1870  179.3720  138.6440 O   0  0  0  0  0  1  0  0  0  0  0  0
  185.6110  178.3300  137.8110 C   0  0  2  0  0  3  0  0  0  0  0  0
  184.4590  176.4690  136.6960 N   0  0  0  0  0  1  0  0  0  0  0  0
  184.6730  177.1220  137.9760 C   0  0  2  0  0  3  0  0  0  0  0  0
  183.3240  177.5470  138.5520 C   0  0  0  0  0  2  0  0  0  0  0  0
  183.0740  176.8550  139.8820 C   0  0  0  0  0  2  0  0  0  0  0  0
  181.7590  179.0050  143.5760 C   0  0  0  0  0  3  0  0  0  0  0  0
  181.3080  179.3520  142.1980 C   0  0  0  0  0  2  0  0  0  0  0  0
  184.0740  178.3970  141.6430 C   0  0  0  0  0  3  0  0  0  0  0  0
  183.0370  178.7830  143.8980 C   0  0  0  0  0  0  0  0  0  0  0  0
  183.3420  178.5910  145.2020 F   0  0  0  0  0  0  0  0  0  0  0  0
  181.6330  178.2720  141.2200 C   0  0  0  0  0  3  0  0  0  0  0  0
  182.8770  177.8690  140.9560 C   0  0  0  0  0  0  0  0  0  0  0  0
  184.1430  178.7950  142.9210 C   0  0  0  0  0  3  0  0  0  0  0  0
  188.0510  178.5350  137.1890 C   0  0  0  0  0  0  0  0  0  0  0  0
  188.2900  179.7330  137.2360 O   0  0  0  0  0  0  0  0  0  0  0  0
  190.2930  174.4170  137.2210 C   0  0  0  0  0  0  0  0  0  0  0  0
  187.8760  172.4920  135.4540 C   0  0  0  0  0  1  0  0  0  0  0  0
  188.4730  174.8270  136.1350 C   0  0  0  0  0  0  0  0  0  0  0  0
  189.4710  175.4020  136.8030 C   0  0  0  0  0  0  0  0  0  0  0  0
  191.8150  176.1070  137.9710 C   0  0  0  0  0  3  0  0  0  0  0  0
  191.5040  174.7270  137.8290 C   0  0  0  0  0  3  0  0  0  0  0  0
  188.7380  177.6670  136.1720 C   0  0  2  0  0  3  0  0  0  0  0  0
  189.8030  173.2230  136.8110 N   0  0  0  0  0  0  0  0  0  0  0  0
  188.6790  173.4930  136.1380 N   0  0  0  0  0  0  0  0  0  0  0  0
  187.6900  176.9050  135.3270 C   0  0  0  0  0  3  0  0  0  0  0  0
  187.5770  175.5980  135.3280 N   0  0  0  0  0  0  0  0  0  0  0  0
  189.7380  176.7410  136.8450 C   0  0  0  0  0  0  0  0  0  0  0  0
  190.9420  177.1150  137.4690 C   0  0  0  0  0  3  0  0  0  0  0  0
  187.4350  178.3420  139.5800 C   0  0  0  0  0  2  0  0  0  0  0  0
  188.7340  177.7040  139.9460 C   0  0  0  0  0  3  0  0  0  0  0  0
  188.8880  177.1550  141.1480 C   0  0  0  0  0  3  0  0  0  0  0  0
  190.1720  176.4900  141.5370 C   0  0  0  0  0  2  0  0  0  0  0  0
  191.3040  177.5000  141.6510 C   0  0  0  0  0  2  0  0  0  0  0  0
  191.9160  177.4460  143.0360 C   0  0  0  0  0  2  0  0  0  0  0  0
  191.1850  178.2520  143.9060 O   0  0  0  0  0  0  0  0  0  0  0  0
  191.0810  177.5090  145.0840 C   0  0  0  0  0  2  0  0  0  0  0  0
  188.7540  177.3490  144.6690 O   0  0  0  0  0  0  0  0  0  0  0  0
  188.0330  177.5240  147.5090 C   0  0  0  0  0  0  0  0  0  0  0  0
  187.9190  177.5500  148.7620 O   0  0  0  0  0  0  0  0  0  0  0  0
  189.6620  177.4380  145.5370 C   0  0  0  0  0  0  0  0  0  0  0  0
  189.3440  177.5240  146.9310 N   0  0  0  0  0  2  0  0  0  0  0  0
  186.7960  177.5320  146.6750 C   0  0  0  0  0  2  0  0  0  0  0  0
  186.0650  178.8480  146.8490 C   0  0  0  0  0  1  0  0  0  0  0  0
  1 31  1  1  0  0  0
  3  5  1  0  0  0  0
  3  1  1  0  0  0  0
  3  2  1  1  0  0  0
  5  4  1  6  0  0  0
  5  6  1  0  0  0  0
  6  7  1  0  0  0  0
  7 14  1  0  0  0  0
  8 11  2  0  0  0  0
  9  8  1  0  0  0  0
 10 15  2  0  0  0  0
 11 12  1  0  0  0  0
 13  9  1  0  0  0  0
 14 13  2  0  0  0  0
 14 10  1  0  0  0  0
 15 11  1  0  0  0  0
 16 17  2  0  0  0  0
 16  1  1  0  0  0  0
 18 23  1  0  0  0  0
 19 26  1  0  0  0  0
 20 26  1  0  0  0  0
 20 21  2  0  0  0  0
 21 29  1  0  0  0  0
 21 18  1  0  0  0  0
 23 22  2  0  0  0  0
 24 29  1  0  0  0  0
 24 16  1  1  0  0  0
 25 18  2  0  0  0  0
 26 25  1  0  0  0  0
 27 28  2  0  0  0  0
 27 24  1  0  0  0  0
 28 20  1  0  0  0  0
 29 30  2  0  0  0  0
 30 22  1  0  0  0  0
 31 32  1  0  0  0  0
 32 33  2  0  0  0  0
 33 34  1  0  0  0  0
 34 35  1  0  0  0  0
 35 36  1  0  0  0  0
 36 37  1  0  0  0  0
 37 38  1  0  0  0  0
 38 42  1  0  0  0  0
 39 42  2  0  0  0  0
 40 41  2  0  0  0  0
 42 43  1  0  0  0  0
 43 40  1  0  0  0  0
 44 45  1  0  0  0  0
 44 40  1  0  0  0  0
M  END
>  <MODEL>
6

>  <REMARK>
 VINA RESULT:      -7.5      2.813      8.428
  Name = 
  16 active torsions:
  status: ('A' for Active; 'I' for Inactive)
    1  A    between atoms: C_1  and  C_22
    2  A    between atoms: C_1  and  C_24
    3  A    between atoms: C_3  and  C_18
    4  A    between atoms: C_3  and  C_40
    5  A    between atoms: C_7  and  C_32
    6  A    between atoms: C_7  and  O_36
    7  A    between atoms: C_11  and  C_31
    8  A    between atoms: C_16  and  C_20
    9  A    between atoms: C_16  and  C_38
   10  A    between atoms: C_19  and  C_40
   11  A    between atoms: C_19  and  C_41
   12  A    between atoms: C_20  and  C_41
   13  A    between atoms: C_21  and  C_22
   14  A    between atoms: C_21  and  O_36
   15  A    between atoms: C_23  and  C_29
   16  A    between atoms: C_29  and  C_40
                            x       y       z     vdW  Elec       q    Type
                         _______ _______ _______ _____ _____    ______ ____

>  <TORSDO>
F 16

$$$$
=
 OpenBabel11032419463D

 45 48  0  0  1  0  0  0  0  0999 V2000
  189.9280  176.9280  140.6210 C   0  0  1  0  0  3  0  0  0  0  0  0
  192.1340  177.8860  140.6200 O   0  0  0  0  0  1  0  0  0  0  0  0
  191.4080  176.7530  140.2340 C   0  0  2  0  0  3  0  0  0  0  0  0
  191.0200  175.2390  138.3390 N   0  0  0  0  0  1  0  0  0  0  0  0
  191.5520  176.5360  138.7180 C   0  0  2  0  0  3  0  0  0  0  0  0
  193.0150  176.6220  138.2880 C   0  0  0  0  0  2  0  0  0  0  0  0
  193.2210  175.9070  136.9630 C   0  0  0  0  0  2  0  0  0  0  0  0
  197.5270  174.7050  136.8850 C   0  0  0  0  0  3  0  0  0  0  0  0
  196.5520  174.4020  135.7980 C   0  0  0  0  0  2  0  0  0  0  0  0
  194.7670  174.2930  138.1810 C   0  0  0  0  0  3  0  0  0  0  0  0
  197.2710  174.5040  138.1810 C   0  0  0  0  0  0  0  0  0  0  0  0
  198.2720  174.7050  139.0680 F   0  0  0  0  0  0  0  0  0  0  0  0
  195.3020  175.2060  135.9370 C   0  0  0  0  0  3  0  0  0  0  0  0
  194.4920  175.1300  136.9950 C   0  0  0  0  0  0  0  0  0  0  0  0
  195.9740  174.0210  138.6960 C   0  0  0  0  0  3  0  0  0  0  0  0
  189.7030  176.7560  142.0990 C   0  0  0  0  0  0  0  0  0  0  0  0
  189.7340  175.6330  142.5810 O   0  0  0  0  0  0  0  0  0  0  0  0
  186.7630  177.7890  145.6030 C   0  0  0  0  0  0  0  0  0  0  0  0
  189.1270  177.8690  148.2630 C   0  0  0  0  0  1  0  0  0  0  0  0
  188.9140  177.7200  145.7710 C   0  0  0  0  0  0  0  0  0  0  0  0
  187.9110  177.7290  144.8960 C   0  0  0  0  0  0  0  0  0  0  0  0
  185.5900  178.0610  143.5330 C   0  0  0  0  0  3  0  0  0  0  0  0
  185.5460  177.9540  144.9500 C   0  0  0  0  0  3  0  0  0  0  0  0
  189.4390  177.9480  142.9770 C   0  0  2  0  0  3  0  0  0  0  0  0
  187.0540  177.8160  146.9250 N   0  0  0  0  0  0  0  0  0  0  0  0
  188.3880  177.7760  147.0130 N   0  0  0  0  0  0  0  0  0  0  0  0
  190.5250  178.0520  144.0750 C   0  0  0  0  0  3  0  0  0  0  0  0
  190.2660  177.9360  145.3550 N   0  0  0  0  0  0  0  0  0  0  0  0
  188.0300  177.8940  143.5460 C   0  0  0  0  0  0  0  0  0  0  0  0
  186.8290  178.0440  142.8290 C   0  0  0  0  0  3  0  0  0  0  0  0
  189.3720  178.2730  140.1690 C   0  0  0  0  0  2  0  0  0  0  0  0
  188.5250  178.0770  138.9560 C   0  0  0  0  0  3  0  0  0  0  0  0
  188.8710  178.6470  137.8060 C   0  0  0  0  0  3  0  0  0  0  0  0
  188.0520  178.4540  136.5670 C   0  0  0  0  0  2  0  0  0  0  0  0
  187.5640  177.0180  136.4470 C   0  0  0  0  0  2  0  0  0  0  0  0
  186.1340  176.9920  135.9470 C   0  0  0  0  0  2  0  0  0  0  0  0
  185.3580  176.1910  136.7820 O   0  0  0  0  0  0  0  0  0  0  0  0
  184.0440  176.6140  136.5670 C   0  0  0  0  0  2  0  0  0  0  0  0
  182.3220  177.2350  138.0710 O   0  0  0  0  0  0  0  0  0  0  0  0
  184.0390  179.0660  139.5930 C   0  0  0  0  0  0  0  0  0  0  0  0
  184.9300  179.7510  140.1590 O   0  0  0  0  0  0  0  0  0  0  0  0
  183.5330  177.3620  137.7520 C   0  0  0  0  0  0  0  0  0  0  0  0
  184.3980  178.2460  138.4750 N   0  0  0  0  0  2  0  0  0  0  0  0
  182.6350  179.1640  140.0890 C   0  0  0  0  0  2  0  0  0  0  0  0
  182.5120  178.4740  141.4320 C   0  0  0  0  0  1  0  0  0  0  0  0
  1 31  1  1  0  0  0
  1 16  1  0  0  0  0
  3  2  1  6  0  0  0
  3  1  1  0  0  0  0
  5  4  1  1  0  0  0
  5  3  1  0  0  0  0
  6  5  1  0  0  0  0
  7 14  1  0  0  0  0
  7  6  1  0  0  0  0
  8 11  2  0  0  0  0
  9 13  1  0  0  0  0
  9  8  1  0  0  0  0
 10 15  2  0  0  0  0
 11 15  1  0  0  0  0
 11 12  1  0  0  0  0
 13 14  2  0  0  0  0
 14 10  1  0  0  0  0
 16 17  2  0  0  0  0
 18 25  2  0  0  0  0
 20 26  1  0  0  0  0
 21 18  1  0  0  0  0
 21 20  2  0  0  0  0
 22 23  2  0  0  0  0
 23 18  1  0  0  0  0
 24 16  1  1  0  0  0
 24 29  1  0  0  0  0
 24 27  1  0  0  0  0
 25 26  1  0  0  0  0
 26 19  1  0  0  0  0
 27 28  2  0  0  0  0
 28 20  1  0  0  0  0
 29 21  1  0  0  0  0
 30 22  1  0  0  0  0
 30 29  2  0  0  0  0
 32 31  1  0  0  0  0
 33 32  2  0  0  0  0
 34 33  1  0  0  0  0
 35 34  1  0  0  0  0
 36 35  1  0  0  0  0
 36 37  1  0  0  0  0
 38 37  1  0  0  0  0
 38 42  1  0  0  0  0
 40 44  1  0  0  0  0
 40 41  2  0  0  0  0
 42 39  2  0  0  0  0
 42 43  1  0  0  0  0
 43 40  1  0  0  0  0
 44 45  1  0  0  0  0
M  END
>  <MODEL>
7

>  <REMARK>
 VINA RESULT:      -7.3      4.249      6.520
  Name = 
  16 active torsions:
  status: ('A' for Active; 'I' for Inactive)
    1  A    between atoms: C_1  and  C_22
    2  A    between atoms: C_1  and  C_24
    3  A    between atoms: C_3  and  C_18
    4  A    between atoms: C_3  and  C_40
    5  A    between atoms: C_7  and  C_32
    6  A    between atoms: C_7  and  O_36
    7  A    between atoms: C_11  and  C_31
    8  A    between atoms: C_16  and  C_20
    9  A    between atoms: C_16  and  C_38
   10  A    between atoms: C_19  and  C_40
   11  A    between atoms: C_19  and  C_41
   12  A    between atoms: C_20  and  C_41
   13  A    between atoms: C_21  and  C_22
   14  A    between atoms: C_21  and  O_36
   15  A    between atoms: C_23  and  C_29
   16  A    between atoms: C_29  and  C_40
                            x       y       z     vdW  Elec       q    Type
                         _______ _______ _______ _____ _____    ______ ____

>  <TORSDO>
F 16

$$$$
=
 OpenBabel11032419463D

 45 48  0  0  1  0  0  0  0  0999 V2000
  184.0990  178.8350  139.5460 C   0  0  1  0  0  3  0  0  0  0  0  0
  185.8730  179.5740  140.9920 O   0  0  0  0  0  1  0  0  0  0  0  0
  184.4980  179.3120  140.9550 C   0  0  2  0  0  3  0  0  0  0  0  0
  182.9340  178.6240  142.7190 N   0  0  0  0  0  1  0  0  0  0  0  0
  184.1440  178.2500  142.0090 C   0  0  2  0  0  3  0  0  0  0  0  0
  185.2800  178.0750  143.0150 C   0  0  0  0  0  2  0  0  0  0  0  0
  184.7800  178.3230  144.4290 C   0  0  0  0  0  2  0  0  0  0  0  0
  187.6000  177.8850  147.8710 C   0  0  0  0  0  3  0  0  0  0  0  0
  186.7510  179.0870  147.6300 C   0  0  0  0  0  2  0  0  0  0  0  0
  187.2920  178.2290  144.8290 C   0  0  0  0  0  3  0  0  0  0  0  0
  188.3290  177.2950  146.9180 C   0  0  0  0  0  0  0  0  0  0  0  0
  189.1510  176.2830  147.2780 F   0  0  0  0  0  0  0  0  0  0  0  0
  185.6820  178.8170  146.6230 C   0  0  0  0  0  3  0  0  0  0  0  0
  185.9330  178.4610  145.3620 C   0  0  0  0  0  0  0  0  0  0  0  0
  188.3320  177.7230  145.5050 C   0  0  0  0  0  3  0  0  0  0  0  0
  182.9960  179.6720  138.9560 C   0  0  0  0  0  0  0  0  0  0  0  0
  183.1790  180.8690  138.7880 O   0  0  0  0  0  0  0  0  0  0  0  0
  181.5160  175.4100  137.6770 C   0  0  0  0  0  0  0  0  0  0  0  0
  179.6850  174.5880  140.6170 C   0  0  0  0  0  1  0  0  0  0  0  0
  180.8900  176.4550  139.4600 C   0  0  0  0  0  0  0  0  0  0  0  0
  181.5270  176.6060  138.3000 C   0  0  2  0  0  3  0  0  0  0  0  0
  182.4610  176.4850  135.7570 C   0  0  0  0  0  3  0  0  0  0  0  0
  181.9880  175.2950  136.3740 C   0  0  0  0  0  3  0  0  0  0  0  0
  181.6800  179.0490  138.5770 C   0  0  0  0  0  0  0  0  0  0  0  0
  180.8710  174.5080  138.4540 N   0  0  0  0  0  0  0  0  0  0  0  0
  180.4870  175.1700  139.5510 N   0  0  0  0  0  0  0  0  0  0  0  0
  180.8320  178.7850  139.8440 C   0  0  0  0  0  3  0  0  0  0  0  0
  180.4850  177.5840  140.2390 N   0  0  0  0  0  0  0  0  0  0  0  0
  181.9000  177.7970  137.7440 C   0  0  0  0  0  0  0  0  0  0  0  0
  182.4060  177.7380  136.4320 C   0  0  0  0  0  3  0  0  0  0  0  0
  185.2870  178.8040  138.5930 C   0  0  0  0  0  2  0  0  0  0  0  0
  185.5300  177.3990  138.1510 C   0  0  0  0  0  3  0  0  0  0  0  0
  186.2470  177.1630  137.0570 C   0  0  0  0  0  3  0  0  0  0  0  0
  186.5250  175.7640  136.5990 C   0  0  0  0  0  2  0  0  0  0  0  0
  187.8600  175.2650  137.1280 C   0  0  0  0  0  2  0  0  0  0  0  0
  188.7040  176.4300  137.6020 C   0  0  0  0  0  2  0  0  0  0  0  0
  189.7820  175.9580  138.3480 O   0  0  0  0  0  0  0  0  0  0  0  0
  190.5040  177.1020  138.7000 C   0  0  0  0  0  2  0  0  0  0  0  0
  191.9550  177.5970  140.5060 O   0  0  0  0  0  0  0  0  0  0  0  0
  190.2810  176.2250  142.4880 C   0  0  0  0  0  0  0  0  0  0  0  0
  189.4160  175.6510  143.1990 O   0  0  0  0  0  0  0  0  0  0  0  0
  190.8730  177.0650  140.1440 C   0  0  0  0  0  0  0  0  0  0  0  0
  190.0330  176.3890  141.0870 N   0  0  0  0  0  2  0  0  0  0  0  0
  191.5500  176.6800  143.1290 C   0  0  0  0  0  2  0  0  0  0  0  0
  191.3600  178.0600  143.7270 C   0  0  0  0  0  1  0  0  0  0  0  0
  1 31  1  6  0  0  0
  1  3  1  0  0  0  0
  3  2  1  6  0  0  0
  3  5  1  0  0  0  0
  5  4  1  1  0  0  0
  5  6  1  0  0  0  0
  6  7  1  0  0  0  0
  7 14  1  0  0  0  0
  9  8  1  0  0  0  0
 10 14  1  0  0  0  0
 10 15  2  0  0  0  0
 11 12  1  0  0  0  0
 11  8  2  0  0  0  0
 13  9  1  0  0  0  0
 14 13  2  0  0  0  0
 15 11  1  0  0  0  0
 16  1  1  0  0  0  0
 17 16  2  0  0  0  0
 18 25  2  0  0  0  0
 20 26  1  0  0  0  0
 20 28  2  0  0  0  0
 21 18  1  6  0  0  0
 21 20  1  0  0  0  0
 22 23  2  0  0  0  0
 22 30  1  0  0  0  0
 23 18  1  0  0  0  0
 24 16  1  0  0  0  0
 24 27  2  0  0  0  0
 25 26  1  0  0  0  0
 26 19  1  0  0  0  0
 27 28  1  0  0  0  0
 29 21  1  0  0  0  0
 29 24  1  0  0  0  0
 30 29  2  0  0  0  0
 32 31  1  0  0  0  0
 33 32  2  0  0  0  0
 34 33  1  0  0  0  0
 34 35  1  0  0  0  0
 35 36  1  0  0  0  0
 36 37  1  0  0  0  0
 37 38  1  0  0  0  0
 38 42  1  0  0  0  0
 40 44  1  0  0  0  0
 40 41  2  0  0  0  0
 42 39  2  0  0  0  0
 42 43  1  0  0  0  0
 43 40  1  0  0  0  0
 44 45  1  0  0  0  0
M  END
>  <MODEL>
8

>  <REMARK>
 VINA RESULT:      -7.3      3.100      9.849
  Name = 
  16 active torsions:
  status: ('A' for Active; 'I' for Inactive)
    1  A    between atoms: C_1  and  C_22
    2  A    between atoms: C_1  and  C_24
    3  A    between atoms: C_3  and  C_18
    4  A    between atoms: C_3  and  C_40
    5  A    between atoms: C_7  and  C_32
    6  A    between atoms: C_7  and  O_36
    7  A    between atoms: C_11  and  C_31
    8  A    between atoms: C_16  and  C_20
    9  A    between atoms: C_16  and  C_38
   10  A    between atoms: C_19  and  C_40
   11  A    between atoms: C_19  and  C_41
   12  A    between atoms: C_20  and  C_41
   13  A    between atoms: C_21  and  C_22
   14  A    between atoms: C_21  and  O_36
   15  A    between atoms: C_23  and  C_29
   16  A    between atoms: C_29  and  C_40
                            x       y       z     vdW  Elec       q    Type
                         _______ _______ _______ _____ _____    ______ ____

>  <TORSDO>
F 16

$$$$
=
 OpenBabel11032419463D

 45 48  0  0  1  0  0  0  0  0999 V2000
  184.6070  178.5480  142.5670 C   0  0  1  0  0  3  0  0  0  0  0  0
  185.0010  180.4680  143.9620 O   0  0  0  0  0  1  0  0  0  0  0  0
  184.2960  179.2600  143.8960 C   0  0  2  0  0  3  0  0  0  0  0  0
  183.7980  178.6280  146.2170 N   0  0  0  0  0  1  0  0  0  0  0  0
  184.6790  178.3710  145.0920 C   0  0  2  0  0  3  0  0  0  0  0  0
  186.1240  178.6200  145.5210 C   0  0  0  0  0  2  0  0  0  0  0  0
  186.9910  177.4160  145.1890 C   0  0  0  0  0  2  0  0  0  0  0  0
  190.8030  176.7660  147.4330 C   0  0  0  0  0  3  0  0  0  0  0  0
  189.7320  177.7130  147.8560 C   0  0  0  0  0  2  0  0  0  0  0  0
  189.4750  177.8840  144.8930 C   0  0  0  0  0  3  0  0  0  0  0  0
  191.2730  176.6960  146.1840 C   0  0  0  0  0  0  0  0  0  0  0  0
  192.3250  175.8810  145.9420 F   0  0  0  0  0  0  0  0  0  0  0  0
  188.4570  177.4720  147.1180 C   0  0  0  0  0  3  0  0  0  0  0  0
  188.3420  177.5790  145.7930 C   0  0  0  0  0  0  0  0  0  0  0  0
  190.7480  177.5010  145.0640 C   0  0  0  0  0  3  0  0  0  0  0  0
  183.4200  178.5290  141.6430 C   0  0  0  0  0  0  0  0  0  0  0  0
  182.2970  178.6520  142.1100 O   0  0  0  0  0  0  0  0  0  0  0  0
  180.6960  177.3670  138.0060 C   0  0  0  0  0  0  0  0  0  0  0  0
  180.5820  180.5430  136.4030 C   0  0  0  0  0  1  0  0  0  0  0  0
  181.6940  179.2660  138.2490 C   0  0  0  0  0  0  0  0  0  0  0  0
  181.6360  178.0220  138.7190 C   0  0  2  0  0  3  0  0  0  0  0  0
  181.3580  175.3550  139.1230 C   0  0  0  0  0  3  0  0  0  0  0  0
  180.5120  176.0000  138.1800 C   0  0  0  0  0  3  0  0  0  0  0  0
  183.6050  178.3560  140.1600 C   0  0  0  0  0  0  0  0  0  0  0  0
  180.1650  178.2090  137.0880 N   0  0  0  0  0  0  0  0  0  0  0  0
  180.7940  179.3780  137.2480 N   0  0  0  0  0  0  0  0  0  0  0  0
  183.6630  179.7380  139.4660 C   0  0  0  0  0  3  0  0  0  0  0  0
  182.7700  180.1430  138.5950 N   0  0  0  0  0  0  0  0  0  0  0  0
  182.5250  177.4540  139.5860 C   0  0  0  0  0  0  0  0  0  0  0  0
  182.3730  176.0740  139.8170 C   0  0  0  0  0  3  0  0  0  0  0  0
  185.8040  179.1640  141.8530 C   0  0  0  0  0  2  0  0  0  0  0  0
  186.9450  178.2030  141.8820 C   0  0  0  0  0  3  0  0  0  0  0  0
  188.0240  178.4310  141.1380 C   0  0  0  0  0  3  0  0  0  0  0  0
  189.1930  177.4960  141.1600 C   0  0  0  0  0  2  0  0  0  0  0  0
  190.2080  177.8560  140.0860 C   0  0  0  0  0  2  0  0  0  0  0  0
  190.9790  176.6230  139.6610 C   0  0  0  0  0  2  0  0  0  0  0  0
  191.0830  176.5880  138.2720 O   0  0  0  0  0  0  0  0  0  0  0  0
  190.1230  175.6580  137.8630 C   0  0  0  0  0  2  0  0  0  0  0  0
  189.0820  175.8770  135.7450 O   0  0  0  0  0  0  0  0  0  0  0  0
  187.3850  178.1190  136.5890 C   0  0  0  0  0  0  0  0  0  0  0  0
  186.7000  179.0190  137.1400 O   0  0  0  0  0  0  0  0  0  0  0  0
  189.1430  176.2900  136.9330 C   0  0  0  0  0  0  0  0  0  0  0  0
  188.3280  177.3810  137.3770 N   0  0  0  0  0  2  0  0  0  0  0  0
  187.2140  177.8810  135.1260 C   0  0  0  0  0  2  0  0  0  0  0  0
  185.8950  177.1800  134.8680 C   0  0  0  0  0  1  0  0  0  0  0  0
  1 31  1  6  0  0  0
  1  3  1  0  0  0  0
  3  2  1  1  0  0  0
  3  5  1  0  0  0  0
  5  6  1  0  0  0  0
  5  4  1  1  0  0  0
  7  6  1  0  0  0  0
  7 14  1  0  0  0  0
  8  9  1  0  0  0  0
 10 15  2  0  0  0  0
 10 14  1  0  0  0  0
 11  8  2  0  0  0  0
 12 11  1  0  0  0  0
 13  9  1  0  0  0  0
 14 13  2  0  0  0  0
 15 11  1  0  0  0  0
 16 17  2  0  0  0  0
 16  1  1  0  0  0  0
 18 23  1  0  0  0  0
 19 26  1  0  0  0  0
 20 28  2  0  0  0  0
 20 21  1  0  0  0  0
 21 18  1  6  0  0  0
 21 29  1  0  0  0  0
 22 30  1  0  0  0  0
 23 22  2  0  0  0  0
 24 16  1  0  0  0  0
 25 26  1  0  0  0  0
 25 18  2  0  0  0  0
 26 20  1  0  0  0  0
 27 24  2  0  0  0  0
 28 27  1  0  0  0  0
 29 30  2  0  0  0  0
 29 24  1  0  0  0  0
 31 32  1  0  0  0  0
 33 34  1  0  0  0  0
 33 32  2  0  0  0  0
 35 34  1  0  0  0  0
 36 35  1  0  0  0  0
 37 36  1  0  0  0  0
 38 37  1  0  0  0  0
 39 42  2  0  0  0  0
 40 41  2  0  0  0  0
 40 43  1  0  0  0  0
 42 43  1  0  0  0  0
 42 38  1  0  0  0  0
 44 40  1  0  0  0  0
 45 44  1  0  0  0  0
M  END
>  <MODEL>
9

>  <REMARK>
 VINA RESULT:      -7.3      3.345      9.663
  Name = 
  16 active torsions:
  status: ('A' for Active; 'I' for Inactive)
    1  A    between atoms: C_1  and  C_22
    2  A    between atoms: C_1  and  C_24
    3  A    between atoms: C_3  and  C_18
    4  A    between atoms: C_3  and  C_40
    5  A    between atoms: C_7  and  C_32
    6  A    between atoms: C_7  and  O_36
    7  A    between atoms: C_11  and  C_31
    8  A    between atoms: C_16  and  C_20
    9  A    between atoms: C_16  and  C_38
   10  A    between atoms: C_19  and  C_40
   11  A    between atoms: C_19  and  C_41
   12  A    between atoms: C_20  and  C_41
   13  A    between atoms: C_21  and  C_22
   14  A    between atoms: C_21  and  O_36
   15  A    between atoms: C_23  and  C_29
   16  A    between atoms: C_29  and  C_40
                            x       y       z     vdW  Elec       q    Type
                         _______ _______ _______ _____ _____    ______ ____

>  <TORSDO>
F 16

$$$$
