=
 OpenBabel11042412243D

 60 65  0  0  1  0  0  0  0  0999 V2000
  184.3880  178.8190  141.9910 C   0  0  0  0  0  0  0  0  0  0  0  0
  183.5430  178.6170  141.0210 N   0  0  0  0  0  0  0  0  0  0  0  0
  184.0850  178.3960  143.3290 N   0  0  0  0  0  2  0  0  0  0  0  0
  185.0010  178.3070  144.4280 C   0  0  0  0  0  0  0  0  0  0  0  0
  187.1420  177.6620  145.3770 C   0  0  0  0  0  3  0  0  0  0  0  0
  184.5830  178.7410  145.6900 C   0  0  0  0  0  3  0  0  0  0  0  0
  185.4450  178.6570  146.7880 C   0  0  0  0  0  3  0  0  0  0  0  0
  186.7360  178.1350  146.6330 C   0  0  0  0  0  0  0  0  0  0  0  0
  186.2810  177.7530  144.2820 C   0  0  0  0  0  3  0  0  0  0  0  0
  188.7690  177.0490  147.5230 C   0  0  0  0  0  2  0  0  0  0  0  0
  187.6170  176.6060  148.3930 C   0  0  0  0  0  2  0  0  0  0  0  0
  187.6370  178.0170  147.8270 C   0  0  0  0  0  3  0  0  0  0  0  0
  182.2900  177.9150  141.0910 C   0  0  0  0  0  0  0  0  0  0  0  0
  181.5380  178.0230  142.0930 O   0  0  0  0  0  0  0  0  0  0  0  0
  181.9070  177.0620  140.0170 N   0  0  0  0  0  0  0  0  0  0  0  0
  182.6960  176.9720  138.8630 N   0  0  0  0  0  0  0  0  0  0  0  0
  181.6900  176.8810  136.6470 C   0  0  0  0  0  3  0  0  0  0  0  0
  182.4870  174.8320  137.6630 C   0  0  0  0  0  3  0  0  0  0  0  0
  182.2840  176.2190  137.7250 C   0  0  0  0  0  0  0  0  0  0  0  0
  182.0960  174.1080  136.5310 C   0  0  0  0  0  0  0  0  0  0  0  0
  181.3020  176.1670  135.5120 C   0  0  0  0  0  3  0  0  0  0  0  0
  181.5100  174.7860  135.4520 C   0  0  0  0  0  3  0  0  0  0  0  0
  183.7180  170.8200  136.4860 O   0  0  0  0  0  0  0  0  0  0  0  0
  183.5940  172.0420  136.2090 C   0  0  0  0  0  0  0  0  0  0  0  0
  182.3490  172.6950  136.4930 N   0  0  0  0  0  2  0  0  0  0  0  0
  184.7510  172.7690  135.5860 C   0  0  0  0  0  2  0  0  0  0  0  0
  185.9340  173.0600  136.5290 C   0  0  0  0  0  0  0  0  0  0  0  0
  185.5780  172.6270  137.9490 C   0  0  0  0  0  1  0  0  0  0  0  0
  186.0910  174.5750  136.5500 C   0  0  0  0  0  1  0  0  0  0  0  0
  188.2460  172.5500  137.0460 O   0  0  0  0  0  1  0  0  0  0  0  0
  187.2620  172.3910  136.0580 C   0  0  0  0  0  0  0  0  0  0  0  0
  187.0480  171.0220  135.8680 O   0  0  0  0  0  1  0  0  0  0  0  0
  188.2700  174.3990  134.8190 C   0  0  0  0  0  2  0  0  0  0  0  0
  189.2230  173.2340  134.6600 C   0  0  0  0  0  2  0  0  0  0  0  0
  187.7280  172.9870  134.6990 C   0  0  0  0  0  3  0  0  0  0  0  0
  185.6420  179.5990  141.7030 C   0  0  0  0  0  2  0  0  0  0  0  0
  187.3750  176.8950  138.4680 O   0  0  0  0  0  0  0  0  0  0  0  0
  188.3370  178.3680  141.8480 C   0  0  0  0  0  3  0  0  0  0  0  0
  189.6150  177.9770  141.9380 C   0  0  0  0  0  0  0  0  0  0  0  0
  188.6590  178.9790  138.1430 O   0  0  0  0  0  0  0  0  0  0  0  0
  188.3220  177.8760  139.1090 S   0  0  0  0  0  0  0  0  0  0  0  0
  189.7980  177.0240  139.6060 C   0  0  0  0  0  2  0  0  0  0  0  0
  186.3920  179.0670  140.5160 C   0  0  0  0  0  3  0  0  0  0  0  0
  190.4900  177.8170  140.7100 C   0  0  2  0  0  3  0  0  0  0  0  0
  190.2820  177.7840  143.5500 Cl  0  0  0  0  0  0  0  0  0  0  0  0
  187.6150  178.5350  140.5710 C   0  0  0  0  0  0  0  0  0  0  0  0
  191.7540  177.1780  141.0370 N   0  0  0  0  0  2  0  0  0  0  0  0
  193.8840  177.6200  139.3010 O   0  0  0  0  0  0  0  0  0  0  0  0
  193.1530  176.6150  139.0820 C   0  0  0  0  0  0  0  0  0  0  0  0
  192.0630  176.3300  139.9640 N   0  0  0  0  0  2  0  0  0  0  0  0
  194.8470  173.9160  137.0570 C   0  0  0  0  0  0  0  0  0  0  0  0
  194.4130  172.9380  134.7940 C   0  0  0  0  0  1  0  0  0  0  0  0
  195.8840  173.0600  137.2190 F   0  0  0  0  0  0  0  0  0  0  0  0
  193.0200  174.7990  135.7340 C   0  0  0  0  0  0  0  0  0  0  0  0
  194.5360  174.8130  138.0790 C   0  0  0  0  0  3  0  0  0  0  0  0
  192.7000  175.6930  136.7620 C   0  0  0  0  0  0  0  0  0  0  0  0
  191.6580  176.5460  136.5850 F   0  0  0  0  0  0  0  0  0  0  0  0
  194.0910  173.9060  135.8820 C   0  0  0  0  0  0  0  0  0  0  0  0
  192.2850  174.8040  134.5940 F   0  0  0  0  0  0  0  0  0  0  0  0
  193.4620  175.7070  137.9530 C   0  0  0  0  0  0  0  0  0  0  0  0
  1  3  1  0  0  0  0
  2 13  1  0  0  0  0
  2  1  2  0  0  0  0
  3  4  1  0  0  0  0
  4  6  1  0  0  0  0
  5  8  2  0  0  0  0
  6  7  2  0  0  0  0
  8  7  1  0  0  0  0
  8 12  1  0  0  0  0
  9  4  2  0  0  0  0
  9  5  1  0  0  0  0
 10 12  1  0  0  0  0
 10 11  1  0  0  0  0
 12 11  1  0  0  0  0
 13 14  2  0  0  0  0
 15 13  1  0  0  0  0
 16 15  2  0  0  0  0
 17 19  1  0  0  0  0
 18 19  2  0  0  0  0
 19 16  1  0  0  0  0
 20 18  1  0  0  0  0
 21 17  2  0  0  0  0
 22 21  1  0  0  0  0
 22 20  2  0  0  0  0
 24 23  2  0  0  0  0
 24 25  1  0  0  0  0
 25 20  1  0  0  0  0
 26 24  1  0  0  0  0
 26 27  1  0  0  0  0
 27 29  1  0  0  0  0
 27 28  1  0  0  0  0
 31 27  1  0  0  0  0
 31 30  1  0  0  0  0
 32 31  1  0  0  0  0
 34 35  1  0  0  0  0
 34 33  1  0  0  0  0
 35 33  1  0  0  0  0
 35 31  1  0  0  0  0
 36  1  1  0  0  0  0
 37 41  2  0  0  0  0
 38 39  2  0  0  0  0
 39 45  1  0  0  0  0
 40 41  2  0  0  0  0
 41 42  1  0  0  0  0
 41 46  1  0  0  0  0
 42 44  1  0  0  0  0
 43 46  2  0  0  0  0
 43 36  1  0  0  0  0
 44 47  1  1  0  0  0
 44 39  1  0  0  0  0
 46 38  1  0  0  0  0
 49 48  2  0  0  0  0
 49 50  1  0  0  0  0
 50 47  1  0  0  0  0
 51 53  1  0  0  0  0
 51 55  1  0  0  0  0
 52 58  1  0  0  0  0
 54 58  1  0  0  0  0
 54 56  2  0  0  0  0
 56 60  1  0  0  0  0
 57 56  1  0  0  0  0
 58 51  2  0  0  0  0
 59 54  1  0  0  0  0
 60 55  2  0  0  0  0
 60 49  1  0  0  0  0
M  END
>  <MODEL>
1

>  <REMARK>
 VINA RESULT:      -7.1      0.000      0.000
  Name = 
  15 active torsions:
  status: ('A' for Active; 'I' for Inactive)
    1  A    between atoms: C_2  and  C_14
    2  A    between atoms: C_2  and  C_54
    3  A    between atoms: C_7  and  C_13
    4  A    between atoms: C_8  and  N_32
    5  A    between atoms: C_13  and  C_36
    6  A    between atoms: C_14  and  C_15
    7  A    between atoms: C_18  and  N_45
    8  A    between atoms: C_21  and  N_51
    9  A    between atoms: C_29  and  C_57
   10  A    between atoms: C_31  and  C_50
   11  A    between atoms: N_34  and  C_35
   12  A    between atoms: N_38  and  N_44
   13  A    between atoms: N_38  and  C_47
   14  A    between atoms: N_45  and  N_53
   15  A    between atoms: C_54  and  C_59
                            x       y       z     vdW  Elec       q    Type
                         _______ _______ _______ _____ _____    ______ ____

>  <TORSDO>
F 15

$$$$
=
 OpenBabel11042412243D

 60 65  0  0  1  0  0  0  0  0999 V2000
  183.4100  178.3690  138.9800 C   0  0  0  0  0  0  0  0  0  0  0  0
  184.5560  177.8600  139.3320 N   0  0  0  0  0  0  0  0  0  0  0  0
  183.2890  179.7700  138.6860 N   0  0  0  0  0  2  0  0  0  0  0  0
  182.1850  180.4170  138.0410 C   0  0  0  0  0  0  0  0  0  0  0  0
  180.4400  180.4880  136.3510 C   0  0  0  0  0  3  0  0  0  0  0  0
  181.8160  181.6980  138.4620 C   0  0  0  0  0  3  0  0  0  0  0  0
  180.7520  182.3660  137.8470 C   0  0  0  0  0  3  0  0  0  0  0  0
  180.0460  181.7560  136.8010 C   0  0  0  0  0  0  0  0  0  0  0  0
  181.4990  179.8230  136.9710 C   0  0  0  0  0  3  0  0  0  0  0  0
  179.1150  182.4450  134.6180 C   0  0  0  0  0  2  0  0  0  0  0  0
  179.4550  183.7100  135.3710 C   0  0  0  0  0  2  0  0  0  0  0  0
  178.9310  182.4990  136.1270 C   0  0  0  0  0  3  0  0  0  0  0  0
  185.8230  178.5350  139.4030 C   0  0  0  0  0  0  0  0  0  0  0  0
  186.0590  179.3840  140.3000 O   0  0  0  0  0  0  0  0  0  0  0  0
  186.8190  178.2570  138.4240 N   0  0  0  0  0  2  0  0  0  0  0  0
  186.6040  177.2730  137.4510 N   0  0  0  0  0  2  0  0  0  0  0  0
  188.9620  176.7490  137.1310 C   0  0  0  0  0  3  0  0  0  0  0  0
  187.3040  175.0450  136.6690 C   0  0  0  0  0  3  0  0  0  0  0  0
  187.6240  176.3500  137.0740 C   0  0  0  0  0  0  0  0  0  0  0  0
  188.3150  174.1420  136.3200 C   0  0  0  0  0  0  0  0  0  0  0  0
  189.9770  175.8530  136.7900 C   0  0  0  0  0  3  0  0  0  0  0  0
  189.6550  174.5530  136.3920 C   0  0  0  0  0  3  0  0  0  0  0  0
  186.4330  171.1020  135.5090 O   0  0  0  0  0  0  0  0  0  0  0  0
  186.6830  172.1630  136.1400 C   0  0  0  0  0  0  0  0  0  0  0  0
  187.9490  172.8070  135.9410 N   0  0  0  0  0  2  0  0  0  0  0  0
  185.6500  172.7110  137.0820 C   0  0  0  0  0  2  0  0  0  0  0  0
  184.2160  172.7820  136.5220 C   0  0  0  0  0  0  0  0  0  0  0  0
  183.3630  171.6850  137.1530 C   0  0  0  0  0  1  0  0  0  0  0  0
  184.3300  172.4610  135.0370 C   0  0  0  0  0  1  0  0  0  0  0  0
  182.1830  174.0300  136.9520 O   0  0  0  0  0  1  0  0  0  0  0  0
  183.5580  174.1830  136.7180 C   0  0  0  0  0  0  0  0  0  0  0  0
  184.1270  174.8080  137.8320 O   0  0  0  0  0  1  0  0  0  0  0  0
  182.5630  175.7470  134.9440 C   0  0  0  0  0  2  0  0  0  0  0  0
  183.5400  176.5520  135.7740 C   0  0  0  0  0  2  0  0  0  0  0  0
  183.8210  175.0920  135.4830 C   0  0  0  0  0  3  0  0  0  0  0  0
  182.1950  177.4830  138.9900 C   0  0  0  0  0  2  0  0  0  0  0  0
  179.4450  179.6110  141.9370 O   0  0  0  0  0  0  0  0  0  0  0  0
  183.0680  178.4680  141.6480 C   0  0  0  0  0  3  0  0  0  0  0  0
  183.5190  178.7470  142.8770 C   0  0  0  0  0  0  0  0  0  0  0  0
  179.7140  177.3940  142.9890 O   0  0  0  0  0  0  0  0  0  0  0  0
  180.4300  178.6300  142.5170 S   0  0  0  0  0  0  0  0  0  0  0  0
  181.2880  179.3950  143.8700 C   0  0  0  0  0  2  0  0  0  0  0  0
  181.2600  177.7990  140.1210 C   0  0  0  0  0  3  0  0  0  0  0  0
  182.6160  178.6780  144.0940 C   0  0  2  0  0  3  0  0  0  0  0  0
  185.2360  179.0670  143.0480 Cl  0  0  0  0  0  0  0  0  0  0  0  0
  181.6480  178.2170  141.3280 C   0  0  0  0  0  0  0  0  0  0  0  0
  183.2650  179.2320  145.2710 N   0  0  0  0  0  2  0  0  0  0  0  0
  184.6680  178.2210  147.4520 O   0  0  0  0  0  0  0  0  0  0  0  0
  185.2960  178.3520  146.3640 C   0  0  0  0  0  0  0  0  0  0  0  0
  184.6090  178.8410  145.2080 N   0  0  0  0  0  2  0  0  0  0  0  0
  188.5340  177.0430  144.9300 C   0  0  0  0  0  0  0  0  0  0  0  0
  190.8520  176.8180  145.8470 C   0  0  0  0  0  1  0  0  0  0  0  0
  188.9620  176.5400  143.7480 F   0  0  0  0  0  0  0  0  0  0  0  0
  188.9560  177.7200  147.2170 C   0  0  0  0  0  0  0  0  0  0  0  0
  187.1950  177.4110  145.0730 C   0  0  0  0  0  3  0  0  0  0  0  0
  187.6160  178.0990  147.3580 C   0  0  0  0  0  0  0  0  0  0  0  0
  187.2020  178.6010  148.5510 F   0  0  0  0  0  0  0  0  0  0  0  0
  189.4180  177.1970  146.0010 C   0  0  0  0  0  0  0  0  0  0  0  0
  189.8040  177.8660  148.2670 F   0  0  0  0  0  0  0  0  0  0  0  0
  186.7180  177.9460  146.2780 C   0  0  0  0  0  0  0  0  0  0  0  0
  1 36  1  0  0  0  0
  1  2  2  0  0  0  0
  2 13  1  0  0  0  0
  3  1  1  0  0  0  0
  4  6  1  0  0  0  0
  4  3  1  0  0  0  0
  5  8  2  0  0  0  0
  5  9  1  0  0  0  0
  7  6  2  0  0  0  0
  8  7  1  0  0  0  0
  9  4  2  0  0  0  0
 10 11  1  0  0  0  0
 10 12  1  0  0  0  0
 11 12  1  0  0  0  0
 12  8  1  0  0  0  0
 13 14  2  0  0  0  0
 15 13  1  0  0  0  0
 16 15  1  0  0  0  0
 18 19  2  0  0  0  0
 19 17  1  0  0  0  0
 19 16  1  0  0  0  0
 20 22  2  0  0  0  0
 20 18  1  0  0  0  0
 21 17  2  0  0  0  0
 22 21  1  0  0  0  0
 23 24  2  0  0  0  0
 24 26  1  0  0  0  0
 25 24  1  0  0  0  0
 25 20  1  0  0  0  0
 27 31  1  0  0  0  0
 27 26  1  0  0  0  0
 27 28  1  0  0  0  0
 29 27  1  0  0  0  0
 31 30  1  0  0  0  0
 31 32  1  0  0  0  0
 33 35  1  0  0  0  0
 33 34  1  0  0  0  0
 35 34  1  0  0  0  0
 35 31  1  0  0  0  0
 36 43  1  0  0  0  0
 37 41  2  0  0  0  0
 38 39  2  0  0  0  0
 39 45  1  0  0  0  0
 39 44  1  0  0  0  0
 41 40  2  0  0  0  0
 41 42  1  0  0  0  0
 42 44  1  0  0  0  0
 43 46  2  0  0  0  0
 44 47  1  1  0  0  0
 46 38  1  0  0  0  0
 46 41  1  0  0  0  0
 49 48  2  0  0  0  0
 50 47  1  0  0  0  0
 50 49  1  0  0  0  0
 51 55  2  0  0  0  0
 51 58  1  0  0  0  0
 52 58  1  0  0  0  0
 53 51  1  0  0  0  0
 54 56  1  0  0  0  0
 54 59  1  0  0  0  0
 55 60  1  0  0  0  0
 56 57  1  0  0  0  0
 58 54  2  0  0  0  0
 60 49  1  0  0  0  0
 60 56  2  0  0  0  0
M  END
>  <MODEL>
2

>  <REMARK>
 VINA RESULT:      -6.7      4.066      8.710
  Name = 
  15 active torsions:
  status: ('A' for Active; 'I' for Inactive)
    1  A    between atoms: C_2  and  C_14
    2  A    between atoms: C_2  and  C_54
    3  A    between atoms: C_7  and  C_13
    4  A    between atoms: C_8  and  N_32
    5  A    between atoms: C_13  and  C_36
    6  A    between atoms: C_14  and  C_15
    7  A    between atoms: C_18  and  N_45
    8  A    between atoms: C_21  and  N_51
    9  A    between atoms: C_29  and  C_57
   10  A    between atoms: C_31  and  C_50
   11  A    between atoms: N_34  and  C_35
   12  A    between atoms: N_38  and  N_44
   13  A    between atoms: N_38  and  C_47
   14  A    between atoms: N_45  and  N_53
   15  A    between atoms: C_54  and  C_59
                            x       y       z     vdW  Elec       q    Type
                         _______ _______ _______ _____ _____    ______ ____

>  <TORSDO>
F 15

$$$$
=
 OpenBabel11042412243D

 60 65  0  0  1  0  0  0  0  0999 V2000
  186.4400  174.6170  135.7120 C   0  0  0  0  0  0  0  0  0  0  0  0
  187.3320  173.6760  135.8370 N   0  0  0  0  0  0  0  0  0  0  0  0
  185.0870  174.4080  136.1450 N   0  0  0  0  0  2  0  0  0  0  0  0
  184.0780  175.4110  136.3180 C   0  0  0  0  0  0  0  0  0  0  0  0
  182.9740  177.1260  137.6390 C   0  0  0  0  0  3  0  0  0  0  0  0
  183.1370  175.6020  135.3010 C   0  0  0  0  0  3  0  0  0  0  0  0
  182.1300  176.5630  135.4400 C   0  0  0  0  0  3  0  0  0  0  0  0
  182.0550  177.3430  136.6020 C   0  0  0  0  0  0  0  0  0  0  0  0
  183.9800  176.1690  137.4940 C   0  0  0  0  0  3  0  0  0  0  0  0
  180.7520  178.6760  138.2250 C   0  0  0  0  0  2  0  0  0  0  0  0
  179.7780  177.7570  137.5260 C   0  0  0  0  0  2  0  0  0  0  0  0
  180.9480  178.3440  136.7540 C   0  0  0  0  0  3  0  0  0  0  0  0
  187.1600  172.3910  136.4580 C   0  0  0  0  0  0  0  0  0  0  0  0
  186.4410  172.2530  137.4800 O   0  0  0  0  0  0  0  0  0  0  0  0
  187.8370  171.2600  135.9210 N   0  0  0  0  0  2  0  0  0  0  0  0
  188.5940  171.3750  134.7480 N   0  0  0  0  0  2  0  0  0  0  0  0
  190.8490  170.4650  134.5940 C   0  0  0  0  0  3  0  0  0  0  0  0
  190.5610  172.8400  134.9670 C   0  0  0  0  0  3  0  0  0  0  0  0
  190.0070  171.5650  134.7780 C   0  0  0  0  0  0  0  0  0  0  0  0
  191.9500  173.0170  134.9740 C   0  0  0  0  0  0  0  0  0  0  0  0
  192.2350  170.6330  134.5940 C   0  0  0  0  0  3  0  0  0  0  0  0
  192.7830  171.9050  134.7780 C   0  0  0  0  0  3  0  0  0  0  0  0
  194.1600  175.8770  135.5910 O   0  0  0  0  0  0  0  0  0  0  0  0
  193.7090  174.7150  135.7720 C   0  0  0  0  0  0  0  0  0  0  0  0
  192.4770  174.3420  135.1390 N   0  0  0  0  0  2  0  0  0  0  0  0
  194.4740  173.7640  136.6480 C   0  0  0  0  0  2  0  0  0  0  0  0
  195.9510  173.5550  136.2640 C   0  0  0  0  0  0  0  0  0  0  0  0
  196.7180  174.8640  136.4330 C   0  0  0  0  0  1  0  0  0  0  0  0
  195.9550  173.2240  134.7770 C   0  0  0  0  0  1  0  0  0  0  0  0
  197.9790  172.3000  136.6990 O   0  0  0  0  0  1  0  0  0  0  0  0
  196.6290  172.4030  137.0680 C   0  0  0  0  0  0  0  0  0  0  0  0
  196.5690  172.6970  138.4340 O   0  0  0  0  0  1  0  0  0  0  0  0
  196.5180  169.8900  137.5720 C   0  0  0  0  0  2  0  0  0  0  0  0
  195.2570  170.5260  138.1170 C   0  0  0  0  0  2  0  0  0  0  0  0
  195.8810  171.0580  136.8430 C   0  0  0  0  0  3  0  0  0  0  0  0
  186.8280  175.8890  135.0090 C   0  0  0  0  0  2  0  0  0  0  0  0
  187.6130  179.9510  136.9210 O   0  0  0  0  0  0  0  0  0  0  0  0
  188.7920  176.3380  137.1860 C   0  0  0  0  0  3  0  0  0  0  0  0
  189.5920  176.4120  138.2570 C   0  0  0  0  0  0  0  0  0  0  0  0
  186.3500  178.7820  138.6910 O   0  0  0  0  0  0  0  0  0  0  0  0
  187.5930  178.7610  137.8440 S   0  0  0  0  0  0  0  0  0  0  0  0
  189.0370  178.7970  138.8750 C   0  0  0  0  0  2  0  0  0  0  0  0
  186.8170  177.0800  135.9230 C   0  0  0  0  0  3  0  0  0  0  0  0
  189.3270  177.3900  139.3850 C   0  0  2  0  0  3  0  0  0  0  0  0
  190.8910  175.2380  138.3690 Cl  0  0  0  0  0  0  0  0  0  0  0  0
  187.6810  177.2750  136.9200 C   0  0  0  0  0  0  0  0  0  0  0  0
  190.4420  177.4400  140.3180 N   0  0  0  0  0  2  0  0  0  0  0  0
  191.5750  176.3550  142.6170 O   0  0  0  0  0  0  0  0  0  0  0  0
  190.4930  176.9930  142.7450 C   0  0  0  0  0  0  0  0  0  0  0  0
  189.8880  177.5930  141.5960 N   0  0  0  0  0  2  0  0  0  0  0  0
  187.9010  177.5980  145.4240 C   0  0  0  0  0  0  0  0  0  0  0  0
  187.9820  177.5880  147.9250 C   0  0  0  0  0  1  0  0  0  0  0  0
  186.5760  177.8710  145.4760 F   0  0  0  0  0  0  0  0  0  0  0  0
  190.0170  177.1700  146.5220 C   0  0  0  0  0  0  0  0  0  0  0  0
  188.5230  177.4590  144.1820 C   0  0  0  0  0  3  0  0  0  0  0  0
  190.6400  177.0200  145.2780 C   0  0  0  0  0  0  0  0  0  0  0  0
  191.9700  176.7460  145.2420 F   0  0  0  0  0  0  0  0  0  0  0  0
  188.6460  177.4540  146.5980 C   0  0  0  0  0  0  0  0  0  0  0  0
  190.7520  177.0360  147.6550 F   0  0  0  0  0  0  0  0  0  0  0  0
  189.8900  177.1650  144.0880 C   0  0  0  0  0  0  0  0  0  0  0  0
  1  2  2  0  0  0  0
  1  3  1  0  0  0  0
  2 13  1  0  0  0  0
  3  4  1  0  0  0  0
  4  9  1  0  0  0  0
  6  7  1  0  0  0  0
  6  4  2  0  0  0  0
  7  8  2  0  0  0  0
  8 12  1  0  0  0  0
  8  5  1  0  0  0  0
  9  5  2  0  0  0  0
 11 10  1  0  0  0  0
 12 11  1  0  0  0  0
 12 10  1  0  0  0  0
 13 14  2  0  0  0  0
 15 13  1  0  0  0  0
 16 19  1  0  0  0  0
 16 15  1  0  0  0  0
 17 19  1  0  0  0  0
 18 20  1  0  0  0  0
 19 18  2  0  0  0  0
 20 25  1  0  0  0  0
 21 17  2  0  0  0  0
 21 22  1  0  0  0  0
 22 20  2  0  0  0  0
 23 24  2  0  0  0  0
 24 26  1  0  0  0  0
 25 24  1  0  0  0  0
 27 28  1  0  0  0  0
 27 26  1  0  0  0  0
 27 31  1  0  0  0  0
 29 27  1  0  0  0  0
 30 31  1  0  0  0  0
 31 32  1  0  0  0  0
 33 34  1  0  0  0  0
 35 31  1  0  0  0  0
 35 33  1  0  0  0  0
 35 34  1  0  0  0  0
 36  1  1  0  0  0  0
 36 43  1  0  0  0  0
 37 41  2  0  0  0  0
 38 39  2  0  0  0  0
 39 45  1  0  0  0  0
 39 44  1  0  0  0  0
 41 40  2  0  0  0  0
 41 42  1  0  0  0  0
 42 44  1  0  0  0  0
 43 46  2  0  0  0  0
 44 47  1  1  0  0  0
 46 38  1  0  0  0  0
 46 41  1  0  0  0  0
 47 50  1  0  0  0  0
 48 49  2  0  0  0  0
 49 60  1  0  0  0  0
 50 49  1  0  0  0  0
 51 53  1  0  0  0  0
 51 58  1  0  0  0  0
 54 58  2  0  0  0  0
 54 59  1  0  0  0  0
 55 51  2  0  0  0  0
 56 54  1  0  0  0  0
 57 56  1  0  0  0  0
 58 52  1  0  0  0  0
 60 55  1  0  0  0  0
 60 56  2  0  0  0  0
M  END
>  <MODEL>
3

>  <REMARK>
 VINA RESULT:      -6.7      3.650      9.257
  Name = 
  15 active torsions:
  status: ('A' for Active; 'I' for Inactive)
    1  A    between atoms: C_2  and  C_14
    2  A    between atoms: C_2  and  C_54
    3  A    between atoms: C_7  and  C_13
    4  A    between atoms: C_8  and  N_32
    5  A    between atoms: C_13  and  C_36
    6  A    between atoms: C_14  and  C_15
    7  A    between atoms: C_18  and  N_45
    8  A    between atoms: C_21  and  N_51
    9  A    between atoms: C_29  and  C_57
   10  A    between atoms: C_31  and  C_50
   11  A    between atoms: N_34  and  C_35
   12  A    between atoms: N_38  and  N_44
   13  A    between atoms: N_38  and  C_47
   14  A    between atoms: N_45  and  N_53
   15  A    between atoms: C_54  and  C_59
                            x       y       z     vdW  Elec       q    Type
                         _______ _______ _______ _____ _____    ______ ____

>  <TORSDO>
F 15

$$$$
=
 OpenBabel11042412243D

 60 65  0  0  1  0  0  0  0  0999 V2000
  182.9880  178.6180  138.9840 C   0  0  0  0  0  0  0  0  0  0  0  0
  184.0580  177.8830  139.0920 N   0  0  0  0  0  0  0  0  0  0  0  0
  183.0880  180.0250  138.7170 N   0  0  0  0  0  2  0  0  0  0  0  0
  182.0250  180.8980  138.3130 C   0  0  0  0  0  0  0  0  0  0  0  0
  179.7900  181.2820  137.4420 C   0  0  0  0  0  3  0  0  0  0  0  0
  182.2410  182.2800  138.3420 C   0  0  0  0  0  3  0  0  0  0  0  0
  181.2320  183.1620  137.9420 C   0  0  0  0  0  3  0  0  0  0  0  0
  179.9940  182.6680  137.5090 C   0  0  0  0  0  0  0  0  0  0  0  0
  180.7980  180.4050  137.8460 C   0  0  0  0  0  3  0  0  0  0  0  0
  179.5630  184.7280  136.2140 C   0  0  0  0  0  2  0  0  0  0  0  0
  179.1480  185.0090  137.6400 C   0  0  0  0  0  2  0  0  0  0  0  0
  178.9340  183.6240  137.0490 C   0  0  0  0  0  3  0  0  0  0  0  0
  185.4210  178.2970  138.8960 C   0  0  0  0  0  0  0  0  0  0  0  0
  186.0370  178.9470  139.7790 O   0  0  0  0  0  0  0  0  0  0  0  0
  186.0750  177.9880  137.6700 N   0  0  0  0  0  2  0  0  0  0  0  0
  185.4320  177.2140  136.6960 N   0  0  0  0  0  2  0  0  0  0  0  0
  184.7400  174.9350  137.2070 C   0  0  0  0  0  3  0  0  0  0  0  0
  186.7230  175.2890  135.8630 C   0  0  0  0  0  3  0  0  0  0  0  0
  185.6410  175.8070  136.5910 C   0  0  0  0  0  0  0  0  0  0  0  0
  186.9060  173.9060  135.7510 C   0  0  0  0  0  0  0  0  0  0  0  0
  184.9120  173.5540  137.0950 C   0  0  0  0  0  3  0  0  0  0  0  0
  185.9880  173.0420  136.3650 C   0  0  0  0  0  3  0  0  0  0  0  0
  190.0720  172.3920  134.6890 O   0  0  0  0  0  0  0  0  0  0  0  0
  189.3160  173.0620  135.4400 C   0  0  0  0  0  0  0  0  0  0  0  0
  188.0070  173.4150  134.9710 N   0  0  0  0  0  2  0  0  0  0  0  0
  189.8140  173.4730  136.7960 C   0  0  0  0  0  2  0  0  0  0  0  0
  190.7560  174.6920  136.8120 C   0  0  0  0  0  0  0  0  0  0  0  0
  190.8560  175.2840  135.4090 C   0  0  0  0  0  1  0  0  0  0  0  0
  192.1350  174.1510  137.1680 C   0  0  0  0  0  1  0  0  0  0  0  0
  188.9950  175.5590  138.2330 O   0  0  0  0  0  1  0  0  0  0  0  0
  190.3260  175.7780  137.8460 C   0  0  0  0  0  0  0  0  0  0  0  0
  191.1360  175.6800  138.9820 O   0  0  0  0  0  1  0  0  0  0  0  0
  189.2420  177.7760  136.6570 C   0  0  0  0  0  2  0  0  0  0  0  0
  189.7170  178.2490  138.0140 C   0  0  0  0  0  2  0  0  0  0  0  0
  190.5130  177.2060  137.2570 C   0  0  0  0  0  3  0  0  0  0  0  0
  181.6500  177.9850  139.2490 C   0  0  0  0  0  2  0  0  0  0  0  0
  180.0680  180.5710  142.6510 O   0  0  0  0  0  0  0  0  0  0  0  0
  183.1750  178.5720  141.7240 C   0  0  0  0  0  3  0  0  0  0  0  0
  183.8800  178.6600  142.8590 C   0  0  0  0  0  0  0  0  0  0  0  0
  179.9280  178.3040  143.6180 O   0  0  0  0  0  0  0  0  0  0  0  0
  180.8490  179.3440  143.0410 S   0  0  0  0  0  0  0  0  0  0  0  0
  182.0870  179.7930  144.2320 C   0  0  0  0  0  2  0  0  0  0  0  0
  181.0290  178.4630  140.5290 C   0  0  0  0  0  3  0  0  0  0  0  0
  183.2040  178.7550  144.2140 C   0  0  2  0  0  3  0  0  0  0  0  0
  185.6250  178.5290  142.7310 Cl  0  0  0  0  0  0  0  0  0  0  0  0
  181.7060  178.7040  141.6540 C   0  0  0  0  0  0  0  0  0  0  0  0
  184.1590  179.0620  145.2650 N   0  0  0  0  0  2  0  0  0  0  0  0
  186.1030  178.1710  147.0470 O   0  0  0  0  0  0  0  0  0  0  0  0
  186.3670  178.1040  145.8150 C   0  0  0  0  0  0  0  0  0  0  0  0
  185.3880  178.5240  144.8600 N   0  0  0  0  0  2  0  0  0  0  0  0
  188.9200  176.3600  143.6470 C   0  0  0  0  0  0  0  0  0  0  0  0
  191.3750  175.9400  143.8850 C   0  0  0  0  0  1  0  0  0  0  0  0
  188.9380  175.7400  142.4430 F   0  0  0  0  0  0  0  0  0  0  0  0
  190.0480  177.1290  145.6470 C   0  0  0  0  0  0  0  0  0  0  0  0
  187.7180  176.8810  144.1290 C   0  0  0  0  0  3  0  0  0  0  0  0
  188.8460  177.6610  146.1280 C   0  0  0  0  0  0  0  0  0  0  0  0
  188.8430  178.2790  147.3380 F   0  0  0  0  0  0  0  0  0  0  0  0
  190.0880  176.4830  144.4040 C   0  0  0  0  0  0  0  0  0  0  0  0
  191.1740  177.2460  146.3950 F   0  0  0  0  0  0  0  0  0  0  0  0
  187.6620  177.5390  145.3650 C   0  0  0  0  0  0  0  0  0  0  0  0
  1  2  2  0  0  0  0
  1 36  1  0  0  0  0
  3  1  1  0  0  0  0
  4  6  1  0  0  0  0
  4  3  1  0  0  0  0
  5  8  2  0  0  0  0
  5  9  1  0  0  0  0
  7  6  2  0  0  0  0
  8  7  1  0  0  0  0
  9  4  2  0  0  0  0
 10 12  1  0  0  0  0
 10 11  1  0  0  0  0
 12  8  1  0  0  0  0
 12 11  1  0  0  0  0
 13  2  1  0  0  0  0
 13 14  2  0  0  0  0
 15 13  1  0  0  0  0
 16 15  1  0  0  0  0
 18 19  1  0  0  0  0
 19 16  1  0  0  0  0
 19 17  2  0  0  0  0
 20 18  2  0  0  0  0
 20 22  1  0  0  0  0
 21 17  1  0  0  0  0
 22 21  2  0  0  0  0
 23 24  2  0  0  0  0
 24 26  1  0  0  0  0
 25 24  1  0  0  0  0
 25 20  1  0  0  0  0
 26 27  1  0  0  0  0
 27 29  1  0  0  0  0
 27 31  1  0  0  0  0
 28 27  1  0  0  0  0
 31 30  1  0  0  0  0
 31 32  1  0  0  0  0
 33 35  1  0  0  0  0
 33 34  1  0  0  0  0
 35 31  1  0  0  0  0
 35 34  1  0  0  0  0
 36 43  1  0  0  0  0
 37 41  2  0  0  0  0
 38 39  2  0  0  0  0
 39 44  1  0  0  0  0
 41 40  2  0  0  0  0
 41 42  1  0  0  0  0
 43 46  2  0  0  0  0
 44 42  1  0  0  0  0
 44 47  1  1  0  0  0
 45 39  1  0  0  0  0
 46 38  1  0  0  0  0
 46 41  1  0  0  0  0
 49 48  2  0  0  0  0
 50 47  1  0  0  0  0
 50 49  1  0  0  0  0
 51 55  2  0  0  0  0
 51 58  1  0  0  0  0
 52 58  1  0  0  0  0
 53 51  1  0  0  0  0
 54 56  1  0  0  0  0
 54 59  1  0  0  0  0
 55 60  1  0  0  0  0
 56 57  1  0  0  0  0
 58 54  2  0  0  0  0
 60 49  1  0  0  0  0
 60 56  2  0  0  0  0
M  END
>  <MODEL>
4

>  <REMARK>
 VINA RESULT:      -6.5      4.089      8.162
  Name = 
  15 active torsions:
  status: ('A' for Active; 'I' for Inactive)
    1  A    between atoms: C_2  and  C_14
    2  A    between atoms: C_2  and  C_54
    3  A    between atoms: C_7  and  C_13
    4  A    between atoms: C_8  and  N_32
    5  A    between atoms: C_13  and  C_36
    6  A    between atoms: C_14  and  C_15
    7  A    between atoms: C_18  and  N_45
    8  A    between atoms: C_21  and  N_51
    9  A    between atoms: C_29  and  C_57
   10  A    between atoms: C_31  and  C_50
   11  A    between atoms: N_34  and  C_35
   12  A    between atoms: N_38  and  N_44
   13  A    between atoms: N_38  and  C_47
   14  A    between atoms: N_45  and  N_53
   15  A    between atoms: C_54  and  C_59
                            x       y       z     vdW  Elec       q    Type
                         _______ _______ _______ _____ _____    ______ ____

>  <TORSDO>
F 15

$$$$
=
 OpenBabel11042412243D

 60 65  0  0  1  0  0  0  0  0999 V2000
  188.3230  177.5370  141.5620 C   0  0  0  0  0  0  0  0  0  0  0  0
  187.9880  177.9970  140.3900 N   0  0  0  0  0  0  0  0  0  0  0  0
  189.6780  177.6300  142.0270 N   0  0  0  0  0  2  0  0  0  0  0  0
  190.1410  177.4190  143.3670 C   0  0  0  0  0  0  0  0  0  0  0  0
  190.0750  177.8920  145.7490 C   0  0  0  0  0  3  0  0  0  0  0  0
  191.2060  176.5380  143.5810 C   0  0  0  0  0  3  0  0  0  0  0  0
  191.6920  176.3170  144.8730 C   0  0  0  0  0  3  0  0  0  0  0  0
  191.1170  176.9780  145.9670 C   0  0  0  0  0  0  0  0  0  0  0  0
  189.5880  178.1050  144.4590 C   0  0  0  0  0  3  0  0  0  0  0  0
  192.4520  175.4550  147.3820 C   0  0  0  0  0  2  0  0  0  0  0  0
  191.0700  175.5220  147.9880 C   0  0  0  0  0  2  0  0  0  0  0  0
  191.6720  176.7600  147.3430 C   0  0  0  0  0  3  0  0  0  0  0  0
  188.8270  178.7000  139.4590 C   0  0  0  0  0  0  0  0  0  0  0  0
  189.0390  179.9340  139.5760 O   0  0  0  0  0  0  0  0  0  0  0  0
  189.4070  177.9910  138.3690 N   0  0  0  0  0  2  0  0  0  0  0  0
  189.2360  176.6060  138.2500 N   0  0  0  0  0  2  0  0  0  0  0  0
  189.9430  174.4820  137.2890 C   0  0  0  0  0  3  0  0  0  0  0  0
  191.6020  176.1970  137.7020 C   0  0  0  0  0  3  0  0  0  0  0  0
  190.2700  175.7590  137.7530 C   0  0  0  0  0  0  0  0  0  0  0  0
  192.6050  175.3630  137.1930 C   0  0  0  0  0  0  0  0  0  0  0  0
  190.9360  173.6450  136.7750 C   0  0  0  0  0  3  0  0  0  0  0  0
  192.2600  174.0870  136.7220 C   0  0  0  0  0  3  0  0  0  0  0  0
  196.1460  175.8440  136.3760 O   0  0  0  0  0  0  0  0  0  0  0  0
  195.1040  175.1790  136.6170 C   0  0  0  0  0  0  0  0  0  0  0  0
  193.9500  175.8590  137.1300 N   0  0  0  0  0  2  0  0  0  0  0  0
  195.1100  173.6990  136.3640 C   0  0  0  0  0  2  0  0  0  0  0  0
  196.1070  172.8870  137.2130 C   0  0  0  0  0  0  0  0  0  0  0  0
  195.3850  171.7200  137.8800 C   0  0  0  0  0  1  0  0  0  0  0  0
  196.5680  173.8210  138.3250 C   0  0  0  0  0  1  0  0  0  0  0  0
  196.9020  171.8630  135.1650 O   0  0  0  0  0  1  0  0  0  0  0  0
  197.3360  172.3880  136.3920 C   0  0  0  0  0  0  0  0  0  0  0  0
  198.1870  173.4670  136.1330 O   0  0  0  0  0  1  0  0  0  0  0  0
  197.8630  169.9060  136.7720 C   0  0  0  0  0  2  0  0  0  0  0  0
  199.1420  170.5870  136.3340 C   0  0  0  0  0  2  0  0  0  0  0  0
  198.1470  171.3340  137.1990 C   0  0  0  0  0  3  0  0  0  0  0  0
  187.2850  176.8110  142.3750 C   0  0  0  0  0  2  0  0  0  0  0  0
  184.3020  178.5530  145.3480 O   0  0  0  0  0  0  0  0  0  0  0  0
  184.4830  177.5030  141.6900 C   0  0  0  0  0  3  0  0  0  0  0  0
  183.2870  177.9140  141.2510 C   0  0  0  0  0  0  0  0  0  0  0  0
  184.8270  180.5100  143.9360 O   0  0  0  0  0  0  0  0  0  0  0  0
  184.2690  179.1130  143.9500 S   0  0  0  0  0  0  0  0  0  0  0  0
  182.5940  179.1170  143.3610 C   0  0  0  0  0  2  0  0  0  0  0  0
  186.4260  177.7440  143.1780 C   0  0  0  0  0  3  0  0  0  0  0  0
  182.5960  179.1310  141.8360 C   0  0  2  0  0  3  0  0  0  0  0  0
  182.6060  177.0680  139.8730 Cl  0  0  0  0  0  0  0  0  0  0  0  0
  185.1740  178.0800  142.8610 C   0  0  0  0  0  0  0  0  0  0  0  0
  181.2280  179.2470  141.3580 N   0  0  0  0  0  2  0  0  0  0  0  0
  179.6820  179.1470  139.0460 O   0  0  0  0  0  0  0  0  0  0  0  0
  180.4360  180.1480  139.2000 C   0  0  0  0  0  0  0  0  0  0  0  0
  181.2280  180.2570  140.3860 N   0  0  0  0  0  2  0  0  0  0  0  0
  180.1560  183.5870  137.6670 C   0  0  0  0  0  0  0  0  0  0  0  0
  180.5550  184.4770  135.3620 C   0  0  0  0  0  1  0  0  0  0  0  0
  179.8450  184.8360  138.0870 F   0  0  0  0  0  0  0  0  0  0  0  0
  180.8260  182.0480  135.9200 C   0  0  0  0  0  0  0  0  0  0  0  0
  180.1250  182.5310  138.5790 C   0  0  0  0  0  3  0  0  0  0  0  0
  180.8050  180.9900  136.8360 C   0  0  0  0  0  0  0  0  0  0  0  0
  181.1190  179.7420  136.3990 F   0  0  0  0  0  0  0  0  0  0  0  0
  180.5070  183.3490  136.3350 C   0  0  0  0  0  0  0  0  0  0  0  0
  181.1600  181.8040  134.6280 F   0  0  0  0  0  0  0  0  0  0  0  0
  180.4510  181.2260  138.1840 C   0  0  0  0  0  0  0  0  0  0  0  0
  1  3  1  0  0  0  0
  1 36  1  0  0  0  0
  2  1  2  0  0  0  0
  3  4  1  0  0  0  0
  4  6  2  0  0  0  0
  4  9  1  0  0  0  0
  5  8  1  0  0  0  0
  6  7  1  0  0  0  0
  7  8  2  0  0  0  0
  8 12  1  0  0  0  0
  9  5  2  0  0  0  0
 10 11  1  0  0  0  0
 12 10  1  0  0  0  0
 12 11  1  0  0  0  0
 13 14  2  0  0  0  0
 13  2  1  0  0  0  0
 15 13  1  0  0  0  0
 16 15  1  0  0  0  0
 17 19  1  0  0  0  0
 18 19  2  0  0  0  0
 19 16  1  0  0  0  0
 20 18  1  0  0  0  0
 21 17  2  0  0  0  0
 22 21  1  0  0  0  0
 22 20  2  0  0  0  0
 23 24  2  0  0  0  0
 24 25  1  0  0  0  0
 25 20  1  0  0  0  0
 26 24  1  0  0  0  0
 26 27  1  0  0  0  0
 27 28  1  0  0  0  0
 27 29  1  0  0  0  0
 30 31  1  0  0  0  0
 31 35  1  0  0  0  0
 31 27  1  0  0  0  0
 32 31  1  0  0  0  0
 33 35  1  0  0  0  0
 34 33  1  0  0  0  0
 34 35  1  0  0  0  0
 36 43  1  0  0  0  0
 38 46  1  0  0  0  0
 39 38  2  0  0  0  0
 39 44  1  0  0  0  0
 40 41  2  0  0  0  0
 41 37  2  0  0  0  0
 42 41  1  0  0  0  0
 44 47  1  6  0  0  0
 44 42  1  0  0  0  0
 45 39  1  0  0  0  0
 46 43  2  0  0  0  0
 46 41  1  0  0  0  0
 48 49  2  0  0  0  0
 49 50  1  0  0  0  0
 50 47  1  0  0  0  0
 51 53  1  0  0  0  0
 51 55  1  0  0  0  0
 52 58  1  0  0  0  0
 54 58  1  0  0  0  0
 54 56  2  0  0  0  0
 56 60  1  0  0  0  0
 57 56  1  0  0  0  0
 58 51  2  0  0  0  0
 59 54  1  0  0  0  0
 60 55  2  0  0  0  0
 60 49  1  0  0  0  0
M  END
>  <MODEL>
5

>  <REMARK>
 VINA RESULT:      -6.2      5.052     10.094
  Name = 
  15 active torsions:
  status: ('A' for Active; 'I' for Inactive)
    1  A    between atoms: C_2  and  C_14
    2  A    between atoms: C_2  and  C_54
    3  A    between atoms: C_7  and  C_13
    4  A    between atoms: C_8  and  N_32
    5  A    between atoms: C_13  and  C_36
    6  A    between atoms: C_14  and  C_15
    7  A    between atoms: C_18  and  N_45
    8  A    between atoms: C_21  and  N_51
    9  A    between atoms: C_29  and  C_57
   10  A    between atoms: C_31  and  C_50
   11  A    between atoms: N_34  and  C_35
   12  A    between atoms: N_38  and  N_44
   13  A    between atoms: N_38  and  C_47
   14  A    between atoms: N_45  and  N_53
   15  A    between atoms: C_54  and  C_59
                            x       y       z     vdW  Elec       q    Type
                         _______ _______ _______ _____ _____    ______ ____

>  <TORSDO>
F 15

$$$$
=
 OpenBabel11042412243D

 60 65  0  0  1  0  0  0  0  0999 V2000
  183.5670  178.4680  139.1050 C   0  0  0  0  0  0  0  0  0  0  0  0
  184.7330  177.9420  139.3500 N   0  0  0  0  0  0  0  0  0  0  0  0
  183.4350  179.8760  138.8550 N   0  0  0  0  0  2  0  0  0  0  0  0
  182.2890  180.5480  138.3180 C   0  0  0  0  0  0  0  0  0  0  0  0
  180.1020  180.5270  137.2590 C   0  0  0  0  0  3  0  0  0  0  0  0
  182.2850  181.9450  138.2750 C   0  0  0  0  0  3  0  0  0  0  0  0
  181.1890  182.6340  137.7460 C   0  0  0  0  0  3  0  0  0  0  0  0
  180.0830  181.9290  137.2530 C   0  0  0  0  0  0  0  0  0  0  0  0
  181.1960  179.8430  137.7920 C   0  0  0  0  0  3  0  0  0  0  0  0
  179.0570  182.6960  135.1400 C   0  0  0  0  0  2  0  0  0  0  0  0
  179.4050  183.9330  135.9350 C   0  0  0  0  0  2  0  0  0  0  0  0
  178.9310  182.6790  136.6550 C   0  0  0  0  0  3  0  0  0  0  0  0
  186.0080  178.6060  139.3330 C   0  0  0  0  0  0  0  0  0  0  0  0
  186.4400  179.2110  140.3470 O   0  0  0  0  0  0  0  0  0  0  0  0
  186.7830  178.6000  138.1390 N   0  0  0  0  0  2  0  0  0  0  0  0
  186.3530  177.8830  137.0150 N   0  0  0  0  0  2  0  0  0  0  0  0
  188.0530  176.1810  136.6280 C   0  0  0  0  0  3  0  0  0  0  0  0
  185.7340  175.5080  136.8120 C   0  0  0  0  0  3  0  0  0  0  0  0
  186.7090  176.5170  136.8100 C   0  0  0  0  0  0  0  0  0  0  0  0
  186.0980  174.1690  136.6300 C   0  0  0  0  0  0  0  0  0  0  0  0
  188.4250  174.8470  136.4510 C   0  0  0  0  0  3  0  0  0  0  0  0
  187.4530  173.8450  136.4580 C   0  0  0  0  0  3  0  0  0  0  0  0
  182.8900  172.4000  136.4790 O   0  0  0  0  0  0  0  0  0  0  0  0
  183.6570  173.3670  136.7310 C   0  0  0  0  0  0  0  0  0  0  0  0
  185.0750  173.1630  136.6700 N   0  0  0  0  0  2  0  0  0  0  0  0
  183.0580  174.6970  137.0920 C   0  0  0  0  0  2  0  0  0  0  0  0
  182.0980  175.2950  136.0460 C   0  0  0  0  0  0  0  0  0  0  0  0
  182.3520  174.6500  134.6860 C   0  0  0  0  0  1  0  0  0  0  0  0
  182.4760  176.7650  135.9210 C   0  0  0  0  0  1  0  0  0  0  0  0
  180.0900  176.4230  136.8030 O   0  0  0  0  0  1  0  0  0  0  0  0
  180.5980  175.1620  136.4540 C   0  0  0  0  0  0  0  0  0  0  0  0
  179.8640  174.6780  135.3660 O   0  0  0  0  0  1  0  0  0  0  0  0
  179.7890  174.7530  138.8550 C   0  0  0  0  0  2  0  0  0  0  0  0
  178.9780  173.8630  137.9360 C   0  0  0  0  0  2  0  0  0  0  0  0
  180.4320  174.1470  137.6210 C   0  0  0  0  0  3  0  0  0  0  0  0
  182.3480  177.5920  139.1920 C   0  0  0  0  0  2  0  0  0  0  0  0
  179.8190  179.8460  142.2410 O   0  0  0  0  0  0  0  0  0  0  0  0
  183.3470  178.4620  141.8460 C   0  0  0  0  0  3  0  0  0  0  0  0
  183.8430  178.6840  143.0700 C   0  0  0  0  0  0  0  0  0  0  0  0
  179.9570  177.5950  143.2460 O   0  0  0  0  0  0  0  0  0  0  0  0
  180.7460  178.7880  142.7810 S   0  0  0  0  0  0  0  0  0  0  0  0
  181.6850  179.4650  144.1260 C   0  0  0  0  0  2  0  0  0  0  0  0
  181.4630  177.9490  140.3510 C   0  0  0  0  0  3  0  0  0  0  0  0
  182.9640  178.6540  144.3060 C   0  0  2  0  0  3  0  0  0  0  0  0
  185.5810  178.8820  143.2060 Cl  0  0  0  0  0  0  0  0  0  0  0  0
  181.9060  178.3150  141.5550 C   0  0  0  0  0  0  0  0  0  0  0  0
  183.6770  179.1380  145.4770 N   0  0  0  0  0  2  0  0  0  0  0  0
  185.3640  178.8220  147.6680 O   0  0  0  0  0  0  0  0  0  0  0  0
  185.8270  178.5370  146.5290 C   0  0  0  0  0  0  0  0  0  0  0  0
  184.9880  178.6560  145.3760 N   0  0  0  0  0  2  0  0  0  0  0  0
  188.9160  176.9920  145.0020 C   0  0  0  0  0  0  0  0  0  0  0  0
  191.2370  176.5950  145.8510 C   0  0  0  0  0  1  0  0  0  0  0  0
  189.2700  176.4590  143.8080 F   0  0  0  0  0  0  0  0  0  0  0  0
  189.4540  177.6350  147.2740 C   0  0  0  0  0  0  0  0  0  0  0  0
  187.6130  177.4580  145.1830 C   0  0  0  0  0  3  0  0  0  0  0  0
  188.1510  178.1120  147.4550 C   0  0  0  0  0  0  0  0  0  0  0  0
  187.8110  178.6430  148.6580 F   0  0  0  0  0  0  0  0  0  0  0  0
  189.8400  177.0790  146.0460 C   0  0  0  0  0  0  0  0  0  0  0  0
  190.3410  177.7170  148.2980 F   0  0  0  0  0  0  0  0  0  0  0  0
  187.2120  178.0260  146.4010 C   0  0  0  0  0  0  0  0  0  0  0  0
  1 36  1  0  0  0  0
  1  2  2  0  0  0  0
  3  1  1  0  0  0  0
  4  3  1  0  0  0  0
  5  9  1  0  0  0  0
  6  4  1  0  0  0  0
  7  6  2  0  0  0  0
  8  5  2  0  0  0  0
  8  7  1  0  0  0  0
  9  4  2  0  0  0  0
 10 11  1  0  0  0  0
 10 12  1  0  0  0  0
 11 12  1  0  0  0  0
 12  8  1  0  0  0  0
 13  2  1  0  0  0  0
 13 14  2  0  0  0  0
 15 13  1  0  0  0  0
 16 15  1  0  0  0  0
 17 19  1  0  0  0  0
 19 18  2  0  0  0  0
 19 16  1  0  0  0  0
 20 25  1  0  0  0  0
 20 18  1  0  0  0  0
 21 22  1  0  0  0  0
 21 17  2  0  0  0  0
 22 20  2  0  0  0  0
 23 24  2  0  0  0  0
 24 26  1  0  0  0  0
 25 24  1  0  0  0  0
 27 31  1  0  0  0  0
 27 26  1  0  0  0  0
 28 27  1  0  0  0  0
 29 27  1  0  0  0  0
 31 30  1  0  0  0  0
 31 35  1  0  0  0  0
 32 31  1  0  0  0  0
 34 33  1  0  0  0  0
 35 34  1  0  0  0  0
 35 33  1  0  0  0  0
 36 43  1  0  0  0  0
 37 41  2  0  0  0  0
 38 39  2  0  0  0  0
 39 45  1  0  0  0  0
 39 44  1  0  0  0  0
 41 40  2  0  0  0  0
 41 42  1  0  0  0  0
 42 44  1  0  0  0  0
 43 46  2  0  0  0  0
 44 47  1  1  0  0  0
 46 38  1  0  0  0  0
 46 41  1  0  0  0  0
 49 48  2  0  0  0  0
 50 47  1  0  0  0  0
 50 49  1  0  0  0  0
 51 55  2  0  0  0  0
 51 58  1  0  0  0  0
 52 58  1  0  0  0  0
 53 51  1  0  0  0  0
 54 56  1  0  0  0  0
 54 59  1  0  0  0  0
 55 60  1  0  0  0  0
 56 57  1  0  0  0  0
 58 54  2  0  0  0  0
 60 49  1  0  0  0  0
 60 56  2  0  0  0  0
M  END
>  <MODEL>
6

>  <REMARK>
 VINA RESULT:      -6.2      4.132      8.751
  Name = 
  15 active torsions:
  status: ('A' for Active; 'I' for Inactive)
    1  A    between atoms: C_2  and  C_14
    2  A    between atoms: C_2  and  C_54
    3  A    between atoms: C_7  and  C_13
    4  A    between atoms: C_8  and  N_32
    5  A    between atoms: C_13  and  C_36
    6  A    between atoms: C_14  and  C_15
    7  A    between atoms: C_18  and  N_45
    8  A    between atoms: C_21  and  N_51
    9  A    between atoms: C_29  and  C_57
   10  A    between atoms: C_31  and  C_50
   11  A    between atoms: N_34  and  C_35
   12  A    between atoms: N_38  and  N_44
   13  A    between atoms: N_38  and  C_47
   14  A    between atoms: N_45  and  N_53
   15  A    between atoms: C_54  and  C_59
                            x       y       z     vdW  Elec       q    Type
                         _______ _______ _______ _____ _____    ______ ____

>  <TORSDO>
F 15

$$$$
=
 OpenBabel11042412243D

 60 65  0  0  1  0  0  0  0  0999 V2000
  184.3730  175.5160  136.1430 C   0  0  0  0  0  0  0  0  0  0  0  0
  184.6740  174.2480  136.1380 N   0  0  0  0  0  0  0  0  0  0  0  0
  183.1680  175.9860  135.5190 N   0  0  0  0  0  2  0  0  0  0  0  0
  182.5760  177.2820  135.6680 C   0  0  0  0  0  0  0  0  0  0  0  0
  182.0450  179.2500  136.9920 C   0  0  0  0  0  3  0  0  0  0  0  0
  181.8630  177.8250  134.5940 C   0  0  0  0  0  3  0  0  0  0  0  0
  181.2610  179.0820  134.7080 C   0  0  0  0  0  3  0  0  0  0  0  0
  181.3650  179.8090  135.9010 C   0  0  0  0  0  0  0  0  0  0  0  0
  182.6500  177.9970  136.8730 C   0  0  0  0  0  3  0  0  0  0  0  0
  180.6270  181.5590  137.4820 C   0  0  0  0  0  2  0  0  0  0  0  0
  179.3860  181.0230  136.8070 C   0  0  0  0  0  2  0  0  0  0  0  0
  180.6830  181.1400  136.0210 C   0  0  0  0  0  3  0  0  0  0  0  0
  183.8790  173.1670  135.6230 C   0  0  0  0  0  0  0  0  0  0  0  0
  184.2290  172.5340  134.5940 O   0  0  0  0  0  0  0  0  0  0  0  0
  182.6600  172.8250  136.2740 N   0  0  0  0  0  2  0  0  0  0  0  0
  182.2780  173.4740  137.4550 N   0  0  0  0  0  2  0  0  0  0  0  0
  180.4640  174.6430  136.3250 C   0  0  0  0  0  3  0  0  0  0  0  0
  180.7390  174.9250  138.7140 C   0  0  0  0  0  3  0  0  0  0  0  0
  181.1600  174.3580  137.5030 C   0  0  0  0  0  0  0  0  0  0  0  0
  179.6280  175.7760  138.7510 C   0  0  0  0  0  0  0  0  0  0  0  0
  179.3510  175.4860  136.3540 C   0  0  0  0  0  3  0  0  0  0  0  0
  178.9310  176.0460  137.5630 C   0  0  0  0  0  3  0  0  0  0  0  0
  179.3680  177.7610  141.8230 O   0  0  0  0  0  0  0  0  0  0  0  0
  179.9660  177.1530  140.8970 C   0  0  0  0  0  0  0  0  0  0  0  0
  179.2090  176.3130  140.0160 N   0  0  0  0  0  2  0  0  0  0  0  0
  181.4520  177.3240  140.7540 C   0  0  0  0  0  2  0  0  0  0  0  0
  182.0250  178.6320  141.3340 C   0  0  0  0  0  0  0  0  0  0  0  0
  181.2880  178.9910  142.6200 C   0  0  0  0  0  1  0  0  0  0  0  0
  181.7030  179.7180  140.3160 C   0  0  0  0  0  1  0  0  0  0  0  0
  184.0860  177.4080  140.9730 O   0  0  0  0  0  1  0  0  0  0  0  0
  183.5650  178.5640  141.5730 C   0  0  0  0  0  0  0  0  0  0  0  0
  184.1730  179.6770  140.9840 O   0  0  0  0  0  1  0  0  0  0  0  0
  185.3740  178.7060  143.3870 C   0  0  0  0  0  2  0  0  0  0  0  0
  184.4890  179.9270  143.5220 C   0  0  0  0  0  2  0  0  0  0  0  0
  183.8890  178.6030  143.0940 C   0  0  0  0  0  3  0  0  0  0  0  0
  185.3630  176.4890  136.7220 C   0  0  0  0  0  2  0  0  0  0  0  0
  189.2240  174.1110  137.1780 O   0  0  0  0  0  0  0  0  0  0  0  0
  187.5110  177.1820  138.6460 C   0  0  0  0  0  3  0  0  0  0  0  0
  188.4800  177.6550  139.4400 C   0  0  0  0  0  0  0  0  0  0  0  0
  190.0040  176.1450  136.0170 O   0  0  0  0  0  0  0  0  0  0  0  0
  189.3400  175.6110  137.2560 S   0  0  0  0  0  0  0  0  0  0  0  0
  190.2830  176.0510  138.6940 C   0  0  0  0  0  2  0  0  0  0  0  0
  186.7790  176.0030  136.6160 C   0  0  0  0  0  3  0  0  0  0  0  0
  189.9480  177.4820  139.0980 C   0  0  2  0  0  3  0  0  0  0  0  0
  187.9850  178.6060  140.8290 Cl  0  0  0  0  0  0  0  0  0  0  0  0
  187.7560  176.3320  137.4630 C   0  0  0  0  0  0  0  0  0  0  0  0
  190.8020  177.8780  140.2060 N   0  0  0  0  0  2  0  0  0  0  0  0
  191.9020  177.9830  142.7610 O   0  0  0  0  0  0  0  0  0  0  0  0
  190.6690  177.7280  142.6660 C   0  0  0  0  0  0  0  0  0  0  0  0
  190.0530  177.6920  141.3760 N   0  0  0  0  0  2  0  0  0  0  0  0
  189.6920  177.7040  146.3140 C   0  0  0  0  0  0  0  0  0  0  0  0
  187.5900  177.0900  147.5250 C   0  0  0  0  0  1  0  0  0  0  0  0
  190.2670  178.0340  147.4950 F   0  0  0  0  0  0  0  0  0  0  0  0
  187.8020  176.8940  145.0350 C   0  0  0  0  0  0  0  0  0  0  0  0
  190.4250  177.8460  145.1340 C   0  0  0  0  0  3  0  0  0  0  0  0
  188.5310  177.0450  143.8500 C   0  0  0  0  0  0  0  0  0  0  0  0
  187.9410  176.7100  142.6730 F   0  0  0  0  0  0  0  0  0  0  0  0
  188.3790  177.2280  146.2680 C   0  0  0  0  0  0  0  0  0  0  0  0
  186.5310  176.4230  144.9790 F   0  0  0  0  0  0  0  0  0  0  0  0
  189.8600  177.5260  143.8920 C   0  0  0  0  0  0  0  0  0  0  0  0
  1 36  1  0  0  0  0
  2  1  2  0  0  0  0
  3  4  1  0  0  0  0
  3  1  1  0  0  0  0
  4  9  1  0  0  0  0
  6  7  1  0  0  0  0
  6  4  2  0  0  0  0
  7  8  2  0  0  0  0
  8 12  1  0  0  0  0
  8  5  1  0  0  0  0
  9  5  2  0  0  0  0
 11 10  1  0  0  0  0
 12 11  1  0  0  0  0
 12 10  1  0  0  0  0
 13  2  1  0  0  0  0
 13 15  1  0  0  0  0
 14 13  2  0  0  0  0
 15 16  1  0  0  0  0
 16 19  1  0  0  0  0
 17 21  2  0  0  0  0
 17 19  1  0  0  0  0
 18 20  1  0  0  0  0
 19 18  2  0  0  0  0
 20 25  1  0  0  0  0
 21 22  1  0  0  0  0
 22 20  2  0  0  0  0
 24 23  2  0  0  0  0
 25 24  1  0  0  0  0
 26 24  1  0  0  0  0
 26 27  1  0  0  0  0
 27 31  1  0  0  0  0
 27 28  1  0  0  0  0
 29 27  1  0  0  0  0
 30 31  1  0  0  0  0
 31 35  1  0  0  0  0
 32 31  1  0  0  0  0
 33 34  1  0  0  0  0
 35 33  1  0  0  0  0
 35 34  1  0  0  0  0
 37 41  2  0  0  0  0
 38 39  2  0  0  0  0
 39 45  1  0  0  0  0
 40 41  2  0  0  0  0
 41 46  1  0  0  0  0
 41 42  1  0  0  0  0
 42 44  1  0  0  0  0
 43 36  1  0  0  0  0
 43 46  2  0  0  0  0
 44 39  1  0  0  0  0
 44 47  1  1  0  0  0
 46 38  1  0  0  0  0
 47 50  1  0  0  0  0
 49 48  2  0  0  0  0
 49 60  1  0  0  0  0
 50 49  1  0  0  0  0
 51 53  1  0  0  0  0
 54 58  2  0  0  0  0
 55 51  2  0  0  0  0
 56 60  2  0  0  0  0
 56 54  1  0  0  0  0
 57 56  1  0  0  0  0
 58 51  1  0  0  0  0
 58 52  1  0  0  0  0
 59 54  1  0  0  0  0
 60 55  1  0  0  0  0
M  END
>  <MODEL>
7

>  <REMARK>
 VINA RESULT:      -6.0      3.485      8.307
  Name = 
  15 active torsions:
  status: ('A' for Active; 'I' for Inactive)
    1  A    between atoms: C_2  and  C_14
    2  A    between atoms: C_2  and  C_54
    3  A    between atoms: C_7  and  C_13
    4  A    between atoms: C_8  and  N_32
    5  A    between atoms: C_13  and  C_36
    6  A    between atoms: C_14  and  C_15
    7  A    between atoms: C_18  and  N_45
    8  A    between atoms: C_21  and  N_51
    9  A    between atoms: C_29  and  C_57
   10  A    between atoms: C_31  and  C_50
   11  A    between atoms: N_34  and  C_35
   12  A    between atoms: N_38  and  N_44
   13  A    between atoms: N_38  and  C_47
   14  A    between atoms: N_45  and  N_53
   15  A    between atoms: C_54  and  C_59
                            x       y       z     vdW  Elec       q    Type
                         _______ _______ _______ _____ _____    ______ ____

>  <TORSDO>
F 15

$$$$
=
 OpenBabel11042412243D

 60 65  0  0  1  0  0  0  0  0999 V2000
  185.2830  177.9460  138.3760 C   0  0  0  0  0  0  0  0  0  0  0  0
  186.3030  178.3380  139.0850 N   0  0  0  0  0  0  0  0  0  0  0  0
  183.9560  177.9660  138.9240 N   0  0  0  0  0  2  0  0  0  0  0  0
  182.7270  177.8250  138.2000 C   0  0  0  0  0  0  0  0  0  0  0  0
  180.4630  178.5330  137.6740 C   0  0  0  0  0  3  0  0  0  0  0  0
  182.5830  176.7440  137.3250 C   0  0  0  0  0  3  0  0  0  0  0  0
  181.3930  176.5660  136.6110 C   0  0  0  0  0  3  0  0  0  0  0  0
  180.3340  177.4710  136.7670 C   0  0  0  0  0  0  0  0  0  0  0  0
  181.6540  178.7100  138.3810 C   0  0  0  0  0  3  0  0  0  0  0  0
  179.3120  176.3980  134.7900 C   0  0  0  0  0  2  0  0  0  0  0  0
  179.0970  177.8870  134.6440 C   0  0  0  0  0  2  0  0  0  0  0  0
  179.0510  177.2480  136.0240 C   0  0  0  0  0  3  0  0  0  0  0  0
  186.2780  178.8970  140.4100 C   0  0  0  0  0  0  0  0  0  0  0  0
  185.3850  179.7110  140.7560 O   0  0  0  0  0  0  0  0  0  0  0  0
  187.2990  178.5420  141.3360 N   0  0  0  0  0  0  0  0  0  0  0  0
  188.2700  177.5910  140.9960 N   0  0  0  0  0  0  0  0  0  0  0  0
  190.7040  177.5040  140.9510 C   0  0  0  0  0  3  0  0  0  0  0  0
  189.5630  177.4420  143.0860 C   0  0  0  0  0  3  0  0  0  0  0  0
  189.5150  177.5040  141.6850 C   0  0  0  0  0  0  0  0  0  0  0  0
  190.7930  177.3760  143.7520 C   0  0  0  0  0  0  0  0  0  0  0  0
  191.9350  177.4440  141.6070 C   0  0  0  0  0  3  0  0  0  0  0  0
  191.9790  177.3870  143.0020 C   0  0  0  0  0  3  0  0  0  0  0  0
  189.7950  177.2670  147.2780 O   0  0  0  0  0  0  0  0  0  0  0  0
  189.7000  177.6040  146.0690 C   0  0  0  0  0  0  0  0  0  0  0  0
  190.8010  177.3450  145.1870 N   0  0  0  0  0  2  0  0  0  0  0  0
  188.4400  178.2720  145.5950 C   0  0  0  0  0  2  0  0  0  0  0  0
  187.1320  177.5320  145.9360 C   0  0  0  0  0  0  0  0  0  0  0  0
  187.2700  176.8400  147.2890 C   0  0  0  0  0  1  0  0  0  0  0  0
  186.9850  176.4370  144.8880 C   0  0  0  0  0  1  0  0  0  0  0  0
  184.8900  177.9480  146.7560 O   0  0  0  0  0  1  0  0  0  0  0  0
  185.8830  178.4660  145.9110 C   0  0  0  0  0  0  0  0  0  0  0  0
  186.2450  179.7320  146.3840 O   0  0  0  0  0  1  0  0  0  0  0  0
  183.8390  178.6140  144.3680 C   0  0  0  0  0  2  0  0  0  0  0  0
  184.5800  179.9310  144.2790 C   0  0  0  0  0  2  0  0  0  0  0  0
  185.3530  178.6410  144.4590 C   0  0  0  0  0  3  0  0  0  0  0  0
  185.5340  177.3710  137.0090 C   0  0  0  0  0  2  0  0  0  0  0  0
  186.2230  173.0060  138.1230 O   0  0  0  0  0  0  0  0  0  0  0  0
  187.8080  175.7500  136.0090 C   0  0  0  0  0  3  0  0  0  0  0  0
  188.7810  175.0640  135.3940 C   0  0  0  0  0  0  0  0  0  0  0  0
  185.4410  172.8260  135.7880 O   0  0  0  0  0  0  0  0  0  0  0  0
  186.5010  173.3910  136.6940 S   0  0  0  0  0  0  0  0  0  0  0  0
  188.0990  172.7780  136.2230 C   0  0  0  0  0  2  0  0  0  0  0  0
  185.5660  175.8700  137.0110 C   0  0  0  0  0  3  0  0  0  0  0  0
  188.6260  173.5950  135.0490 C   0  0  2  0  0  3  0  0  0  0  0  0
  190.1950  175.9660  134.8800 Cl  0  0  0  0  0  0  0  0  0  0  0  0
  186.5750  175.1350  136.5390 C   0  0  0  0  0  0  0  0  0  0  0  0
  189.8820  173.0210  134.5940 N   0  0  0  0  0  2  0  0  0  0  0  0
  192.1990  171.5930  135.1740 O   0  0  0  0  0  0  0  0  0  0  0  0
  192.0370  172.7010  135.7560 C   0  0  0  0  0  0  0  0  0  0  0  0
  190.8750  173.4850  135.4680 N   0  0  0  0  0  2  0  0  0  0  0  0
  195.2540  172.8950  137.7230 C   0  0  0  0  0  0  0  0  0  0  0  0
  196.2180  174.6070  139.2730 C   0  0  0  0  0  1  0  0  0  0  0  0
  196.3640  172.1360  137.8820 F   0  0  0  0  0  0  0  0  0  0  0  0
  193.9670  174.8890  138.2080 C   0  0  0  0  0  0  0  0  0  0  0  0
  194.2330  172.4450  136.8830 C   0  0  0  0  0  3  0  0  0  0  0  0
  192.9470  174.4450  137.3580 C   0  0  0  0  0  0  0  0  0  0  0  0
  191.8390  175.2160  137.2090 F   0  0  0  0  0  0  0  0  0  0  0  0
  195.1240  174.1180  138.3870 C   0  0  0  0  0  0  0  0  0  0  0  0
  193.8260  176.0730  138.8550 F   0  0  0  0  0  0  0  0  0  0  0  0
  193.0740  173.2080  136.6840 C   0  0  0  0  0  0  0  0  0  0  0  0
  1  3  1  0  0  0  0
  1  2  2  0  0  0  0
  2 13  1  0  0  0  0
  4  9  1  0  0  0  0
  4  3  1  0  0  0  0
  5  9  2  0  0  0  0
  6  4  2  0  0  0  0
  7  8  2  0  0  0  0
  7  6  1  0  0  0  0
  8  5  1  0  0  0  0
 10 12  1  0  0  0  0
 11 10  1  0  0  0  0
 11 12  1  0  0  0  0
 12  8  1  0  0  0  0
 13 14  2  0  0  0  0
 13 15  1  0  0  0  0
 16 15  2  0  0  0  0
 16 19  1  0  0  0  0
 17 21  2  0  0  0  0
 17 19  1  0  0  0  0
 18 20  1  0  0  0  0
 19 18  2  0  0  0  0
 20 25  1  0  0  0  0
 21 22  1  0  0  0  0
 22 20  2  0  0  0  0
 24 23  2  0  0  0  0
 25 24  1  0  0  0  0
 26 27  1  0  0  0  0
 26 24  1  0  0  0  0
 27 28  1  0  0  0  0
 29 27  1  0  0  0  0
 31 27  1  0  0  0  0
 31 32  1  0  0  0  0
 31 30  1  0  0  0  0
 33 35  1  0  0  0  0
 34 33  1  0  0  0  0
 34 35  1  0  0  0  0
 35 31  1  0  0  0  0
 36 43  1  0  0  0  0
 36  1  1  0  0  0  0
 38 46  1  0  0  0  0
 39 38  2  0  0  0  0
 40 41  2  0  0  0  0
 41 37  2  0  0  0  0
 42 41  1  0  0  0  0
 44 47  1  1  0  0  0
 44 39  1  0  0  0  0
 44 42  1  0  0  0  0
 45 39  1  0  0  0  0
 46 41  1  0  0  0  0
 46 43  2  0  0  0  0
 47 50  1  0  0  0  0
 48 49  2  0  0  0  0
 49 60  1  0  0  0  0
 50 49  1  0  0  0  0
 51 53  1  0  0  0  0
 51 58  1  0  0  0  0
 54 58  2  0  0  0  0
 54 59  1  0  0  0  0
 55 51  2  0  0  0  0
 56 54  1  0  0  0  0
 57 56  1  0  0  0  0
 58 52  1  0  0  0  0
 60 55  1  0  0  0  0
 60 56  2  0  0  0  0
M  END
>  <MODEL>
8

>  <REMARK>
 VINA RESULT:      -5.8      3.088      8.838
  Name = 
  15 active torsions:
  status: ('A' for Active; 'I' for Inactive)
    1  A    between atoms: C_2  and  C_14
    2  A    between atoms: C_2  and  C_54
    3  A    between atoms: C_7  and  C_13
    4  A    between atoms: C_8  and  N_32
    5  A    between atoms: C_13  and  C_36
    6  A    between atoms: C_14  and  C_15
    7  A    between atoms: C_18  and  N_45
    8  A    between atoms: C_21  and  N_51
    9  A    between atoms: C_29  and  C_57
   10  A    between atoms: C_31  and  C_50
   11  A    between atoms: N_34  and  C_35
   12  A    between atoms: N_38  and  N_44
   13  A    between atoms: N_38  and  C_47
   14  A    between atoms: N_45  and  N_53
   15  A    between atoms: C_54  and  C_59
                            x       y       z     vdW  Elec       q    Type
                         _______ _______ _______ _____ _____    ______ ____

>  <TORSDO>
F 15

$$$$
=
 OpenBabel11042412243D

 60 65  0  0  1  0  0  0  0  0999 V2000
  184.9060  178.6390  139.0190 C   0  0  0  0  0  0  0  0  0  0  0  0
  185.8570  178.3930  139.8750 N   0  0  0  0  0  0  0  0  0  0  0  0
  183.6820  179.2610  139.4410 N   0  0  0  0  0  2  0  0  0  0  0  0
  182.6740  179.8280  138.5960 C   0  0  0  0  0  0  0  0  0  0  0  0
  181.3890  181.7210  137.7760 C   0  0  0  0  0  3  0  0  0  0  0  0
  181.9190  178.9760  137.7830 C   0  0  0  0  0  3  0  0  0  0  0  0
  180.9180  179.4930  136.9550 C   0  0  0  0  0  3  0  0  0  0  0  0
  180.6610  180.8700  136.9330 C   0  0  0  0  0  0  0  0  0  0  0  0
  182.3920  181.2020  138.5980 C   0  0  0  0  0  3  0  0  0  0  0  0
  180.1520  182.1200  134.8620 C   0  0  0  0  0  2  0  0  0  0  0  0
  179.5940  182.9260  136.0120 C   0  0  0  0  0  2  0  0  0  0  0  0
  179.5590  181.4060  136.0670 C   0  0  0  0  0  3  0  0  0  0  0  0
  185.8880  178.7460  141.2680 C   0  0  0  0  0  0  0  0  0  0  0  0
  184.9540  179.4030  141.7930 O   0  0  0  0  0  0  0  0  0  0  0  0
  187.0090  178.3670  142.0590 N   0  0  0  0  0  0  0  0  0  0  0  0
  188.0330  177.5830  141.5140 N   0  0  0  0  0  0  0  0  0  0  0  0
  190.4530  177.3510  141.3560 C   0  0  0  0  0  3  0  0  0  0  0  0
  189.4220  177.4620  143.5440 C   0  0  0  0  0  3  0  0  0  0  0  0
  189.3050  177.4580  142.1460 C   0  0  0  0  0  0  0  0  0  0  0  0
  190.6780  177.3580  144.1520 C   0  0  0  0  0  0  0  0  0  0  0  0
  191.7110  177.2520  141.9540 C   0  0  0  0  0  3  0  0  0  0  0  0
  191.8230  177.2620  143.3470 C   0  0  0  0  0  3  0  0  0  0  0  0
  189.8800  177.2410  147.7290 O   0  0  0  0  0  0  0  0  0  0  0  0
  189.6700  177.4970  146.5140 C   0  0  0  0  0  0  0  0  0  0  0  0
  190.7580  177.3970  145.5850 N   0  0  0  0  0  2  0  0  0  0  0  0
  188.2900  177.9050  146.0840 C   0  0  0  0  0  2  0  0  0  0  0  0
  187.2410  177.9790  147.2100 C   0  0  0  0  0  0  0  0  0  0  0  0
  187.8590  178.6280  148.4460 C   0  0  0  0  0  1  0  0  0  0  0  0
  186.9170  176.5370  147.5770 C   0  0  0  0  0  1  0  0  0  0  0  0
  184.8440  178.2080  147.4840 O   0  0  0  0  0  1  0  0  0  0  0  0
  185.9410  178.7260  146.7790 C   0  0  0  0  0  0  0  0  0  0  0  0
  186.0630  180.0840  147.0920 O   0  0  0  0  0  1  0  0  0  0  0  0
  184.2700  178.4300  144.8550 C   0  0  0  0  0  2  0  0  0  0  0  0
  184.9320  179.7810  144.6880 C   0  0  0  0  0  2  0  0  0  0  0  0
  185.7250  178.6160  145.2430 C   0  0  0  0  0  3  0  0  0  0  0  0
  185.0710  178.1640  137.6020 C   0  0  0  0  0  2  0  0  0  0  0  0
  185.3600  173.6710  138.3080 O   0  0  0  0  0  0  0  0  0  0  0  0
  187.1270  176.4250  136.3570 C   0  0  0  0  0  3  0  0  0  0  0  0
  188.0000  175.7060  135.6400 C   0  0  0  0  0  0  0  0  0  0  0  0
  184.4700  173.7760  136.0080 O   0  0  0  0  0  0  0  0  0  0  0  0
  185.6180  174.1530  136.9050 S   0  0  0  0  0  0  0  0  0  0  0  0
  187.1250  173.4320  136.3050 C   0  0  0  0  0  2  0  0  0  0  0  0
  184.9510  176.6730  137.4750 C   0  0  0  0  0  3  0  0  0  0  0  0
  187.6840  174.2950  135.1800 C   0  0  2  0  0  3  0  0  0  0  0  0
  189.4760  176.5090  135.1350 Cl  0  0  0  0  0  0  0  0  0  0  0  0
  185.8600  175.8880  136.8940 C   0  0  0  0  0  0  0  0  0  0  0  0
  188.8560  173.6450  134.6160 N   0  0  0  0  0  2  0  0  0  0  0  0
  191.2050  172.1580  134.7510 O   0  0  0  0  0  0  0  0  0  0  0  0
  191.1150  173.1750  135.4940 C   0  0  0  0  0  0  0  0  0  0  0  0
  189.9380  173.9870  135.4390 N   0  0  0  0  0  2  0  0  0  0  0  0
  193.2460  175.1880  137.8740 C   0  0  0  0  0  0  0  0  0  0  0  0
  195.4190  174.7390  139.0330 C   0  0  0  0  0  1  0  0  0  0  0  0
  193.1800  176.3960  138.4820 F   0  0  0  0  0  0  0  0  0  0  0  0
  194.3770  173.0850  137.4630 C   0  0  0  0  0  0  0  0  0  0  0  0
  192.2200  174.7990  137.0120 C   0  0  0  0  0  3  0  0  0  0  0  0
  193.3430  172.6900  136.6070 C   0  0  0  0  0  0  0  0  0  0  0  0
  193.4240  171.4750  136.0030 F   0  0  0  0  0  0  0  0  0  0  0  0
  194.3280  174.3320  138.1020 C   0  0  0  0  0  0  0  0  0  0  0  0
  195.4260  172.2500  137.6710 F   0  0  0  0  0  0  0  0  0  0  0  0
  192.2480  173.5520  136.3730 C   0  0  0  0  0  0  0  0  0  0  0  0
  1  3  1  0  0  0  0
  1  2  2  0  0  0  0
  2 13  1  0  0  0  0
  4  9  1  0  0  0  0
  4  3  1  0  0  0  0
  5  9  2  0  0  0  0
  6  4  2  0  0  0  0
  7  6  1  0  0  0  0
  8  7  2  0  0  0  0
  8  5  1  0  0  0  0
 10 11  1  0  0  0  0
 10 12  1  0  0  0  0
 11 12  1  0  0  0  0
 12  8  1  0  0  0  0
 13 14  2  0  0  0  0
 13 15  1  0  0  0  0
 16 15  2  0  0  0  0
 16 19  1  0  0  0  0
 17 21  2  0  0  0  0
 17 19  1  0  0  0  0
 18 20  1  0  0  0  0
 19 18  2  0  0  0  0
 20 25  1  0  0  0  0
 21 22  1  0  0  0  0
 22 20  2  0  0  0  0
 24 23  2  0  0  0  0
 25 24  1  0  0  0  0
 26 24  1  0  0  0  0
 26 27  1  0  0  0  0
 27 29  1  0  0  0  0
 27 28  1  0  0  0  0
 31 32  1  0  0  0  0
 31 27  1  0  0  0  0
 31 30  1  0  0  0  0
 33 35  1  0  0  0  0
 34 33  1  0  0  0  0
 34 35  1  0  0  0  0
 35 31  1  0  0  0  0
 36  1  1  0  0  0  0
 38 46  1  0  0  0  0
 39 38  2  0  0  0  0
 40 41  2  0  0  0  0
 41 37  2  0  0  0  0
 42 41  1  0  0  0  0
 43 36  1  0  0  0  0
 44 47  1  1  0  0  0
 44 39  1  0  0  0  0
 44 42  1  0  0  0  0
 45 39  1  0  0  0  0
 46 41  1  0  0  0  0
 46 43  2  0  0  0  0
 47 50  1  0  0  0  0
 48 49  2  0  0  0  0
 49 60  1  0  0  0  0
 50 49  1  0  0  0  0
 51 58  1  0  0  0  0
 51 53  1  0  0  0  0
 54 59  1  0  0  0  0
 54 58  2  0  0  0  0
 55 51  2  0  0  0  0
 56 54  1  0  0  0  0
 57 56  1  0  0  0  0
 58 52  1  0  0  0  0
 60 56  2  0  0  0  0
 60 55  1  0  0  0  0
M  END
>  <MODEL>
9

>  <REMARK>
 VINA RESULT:      -5.8      3.501      9.045
  Name = 
  15 active torsions:
  status: ('A' for Active; 'I' for Inactive)
    1  A    between atoms: C_2  and  C_14
    2  A    between atoms: C_2  and  C_54
    3  A    between atoms: C_7  and  C_13
    4  A    between atoms: C_8  and  N_32
    5  A    between atoms: C_13  and  C_36
    6  A    between atoms: C_14  and  C_15
    7  A    between atoms: C_18  and  N_45
    8  A    between atoms: C_21  and  N_51
    9  A    between atoms: C_29  and  C_57
   10  A    between atoms: C_31  and  C_50
   11  A    between atoms: N_34  and  C_35
   12  A    between atoms: N_38  and  N_44
   13  A    between atoms: N_38  and  C_47
   14  A    between atoms: N_45  and  N_53
   15  A    between atoms: C_54  and  C_59
                            x       y       z     vdW  Elec       q    Type
                         _______ _______ _______ _____ _____    ______ ____

>  <TORSDO>
F 15

$$$$
