=
 OpenBabel11042410143D

 65 68  0  0  1  0  0  0  0  0999 V2000
  193.3890  175.9270  136.2960 C   0  0  0  0  0  0  0  0  0  0  0  0
  192.2130  175.5380  136.8230 C   0  0  0  0  0  0  0  0  0  0  0  0
  194.2280  176.7610  137.0310 O   0  0  0  0  0  1  0  0  0  0  0  0
  194.6380  174.4450  134.6890 C   0  0  0  0  0  3  0  0  0  0  0  0
  193.8350  175.4790  134.9680 C   0  0  0  0  0  3  0  0  0  0  0  0
  194.7800  173.2490  136.7070 O   0  0  0  0  0  0  0  0  0  0  0  0
  196.6570  173.0580  135.3360 N   0  0  0  0  0  2  0  0  0  0  0  0
  195.3630  173.5860  135.6410 C   0  0  0  0  0  0  0  0  0  0  0  0
  197.3320  172.1150  136.2160 C   0  0  0  0  0  2  0  0  0  0  0  0
  198.1990  172.8780  137.2010 C   0  0  0  0  0  2  0  0  0  0  0  0
  198.6400  174.1950  136.5860 C   0  0  0  0  0  2  0  0  0  0  0  0
  198.8980  174.3740  138.7640 C   0  0  0  0  0  1  0  0  0  0  0  0
  199.1810  175.0240  137.5640 O   0  0  0  0  0  0  0  0  0  0  0  0
  191.2780  174.7390  136.1470 O   0  0  0  0  0  0  0  0  0  0  0  0
  190.8150  173.4790  136.6050 C   0  0  0  0  0  2  0  0  0  0  0  0
  189.3520  173.5770  136.9880 C   0  0  0  0  0  2  0  0  0  0  0  0
  188.9430  174.0520  134.5940 C   0  0  0  0  0  1  0  0  0  0  0  0
  188.4810  173.2540  135.7920 C   0  0  2  0  0  3  0  0  0  0  0  0
  187.0340  173.5810  136.0920 C   0  0  0  0  0  2  0  0  0  0  0  0
  186.1100  172.4640  135.6340 C   0  0  1  0  0  3  0  0  0  0  0  0
  186.8880  171.1610  135.6220 C   0  0  0  0  0  1  0  0  0  0  0  0
  183.9370  171.8800  136.1990 N   0  0  0  0  0  0  0  0  0  0  0  0
  185.0200  172.3640  136.5670 N   0  0  0  0  0  0  0  0  0  0  0  0
  182.8030  171.8580  137.0910 C   0  0  0  0  0  2  0  0  0  0  0  0
  180.4670  171.5590  137.1610 C   0  0  0  0  0  2  0  0  0  0  0  0
  179.5850  172.6520  137.5500 N   0  0  0  0  0  0  0  0  0  0  0  0
  181.3060  173.5190  136.4210 N   0  0  0  0  0  2  0  0  0  0  0  0
  180.1070  173.7420  137.1240 C   0  0  0  0  0  0  0  0  0  0  0  0
  181.5640  172.1420  136.3650 N   0  0  0  0  0  0  0  0  0  0  0  0
  180.8310  177.6410  138.0520 C   0  0  2  0  0  3  0  0  0  0  0  0
  180.7390  176.4260  139.0000 C   0  0  2  0  0  0  0  0  0  0  0  0
  179.7720  175.9060  134.9610 N   0  0  0  0  0  2  0  0  0  0  0  0
  181.8810  175.6260  138.8940 O   0  0  0  0  0  1  0  0  0  0  0  0
  179.9880  176.0880  136.2240 C   0  0  0  0  0  0  0  0  0  0  0  0
  179.4870  175.6110  138.6580 C   0  0  0  0  0  2  0  0  0  0  0  0
  180.7440  177.2280  136.6540 N   0  0  0  0  0  2  0  0  0  0  0  0
  179.4560  175.0910  137.2210 C   0  0  2  0  0  3  0  0  0  0  0  0
  180.5950  176.8890  140.4380 C   0  0  0  0  0  1  0  0  0  0  0  0
  182.1060  178.4450  138.2730 C   0  0  0  0  0  2  0  0  0  0  0  0
  181.9700  179.7350  137.7560 O   0  0  0  0  0  1  0  0  0  0  0  0
  191.7580  176.0720  138.4790 S   0  0  0  0  0  0  0  0  0  0  0  0
  189.3290  177.3340  138.8210 C   0  0  0  0  0  3  0  0  0  0  0  0
  187.9500  178.1910  137.0130 C   0  0  0  0  0  0  0  0  0  0  0  0
  188.9120  177.7510  136.0910 C   0  0  0  0  0  3  0  0  0  0  0  0
  190.2910  176.9230  137.9000 C   0  0  0  0  0  0  0  0  0  0  0  0
  188.1570  177.9730  138.3910 C   0  0  0  0  0  0  0  0  0  0  0  0
  190.0790  177.1210  136.5330 C   0  0  0  0  0  3  0  0  0  0  0  0
  186.8300  180.2220  136.2860 N   0  0  0  0  0  1  0  0  0  0  0  0
  186.6720  178.7910  136.5150 C   0  0  0  0  0  2  0  0  0  0  0  0
  187.1280  178.3550  139.4120 C   0  0  0  0  0  2  0  0  0  0  0  0
  187.6490  178.0880  140.8080 C   0  0  0  0  0  2  0  0  0  0  0  0
  186.5130  178.1960  141.8040 C   0  0  0  0  0  2  0  0  0  0  0  0
  186.8350  179.1460  142.7860 O   0  0  0  0  0  0  0  0  0  0  0  0
  184.6080  178.3870  145.7540 C   0  0  0  0  0  1  0  0  0  0  0  0
  185.1470  179.0060  144.5050 C   0  0  0  0  0  0  0  0  0  0  0  0
  184.4760  179.9060  143.9320 O   0  0  0  0  0  0  0  0  0  0  0  0
  186.4160  178.6040  143.9590 N   0  0  0  0  0  0  0  0  0  0  0  0
  187.2960  177.7200  144.7340 C   0  0  0  0  0  2  0  0  0  0  0  0
  188.7640  175.9530  143.6860 C   0  0  0  0  0  1  0  0  0  0  0  0
  188.6400  177.4280  144.0550 C   0  0  2  0  0  3  0  0  0  0  0  0
  191.5920  178.5180  143.1970 C   0  0  0  0  0  2  0  0  0  0  0  0
  190.5340  179.0750  144.1440 C   0  0  0  0  0  2  0  0  0  0  0  0
  191.7090  177.0160  143.3980 C   0  0  0  0  0  2  0  0  0  0  0  0
  189.8420  177.9290  144.8640 C   0  0  2  0  0  3  0  0  0  0  0  0
  191.0910  176.6190  145.0530 S   0  0  0  0  0  0  0  0  0  0  0  0
  1  2  2  0  0  0  0
  1  3  1  0  0  0  0
  2 41  1  0  0  0  0
  4  5  2  0  0  0  0
  4  8  1  0  0  0  0
  5  1  1  0  0  0  0
  7  8  1  0  0  0  0
  7  9  1  0  0  0  0
  8  6  2  0  0  0  0
  9 10  1  0  0  0  0
 11 10  1  0  0  0  0
 11 13  1  0  0  0  0
 13 12  1  0  0  0  0
 14 15  1  0  0  0  0
 14  2  1  0  0  0  0
 15 16  1  0  0  0  0
 18 17  1  6  0  0  0
 18 19  1  0  0  0  0
 18 16  1  0  0  0  0
 20 21  1  1  0  0  0
 20 19  1  0  0  0  0
 20 23  1  0  0  0  0
 22 23  2  0  0  0  0
 22 24  1  0  0  0  0
 25 26  1  0  0  0  0
 27 28  1  0  0  0  0
 28 26  2  0  0  0  0
 29 27  1  0  0  0  0
 29 24  1  0  0  0  0
 29 25  1  0  0  0  0
 30 39  1  6  0  0  0
 30 31  1  0  0  0  0
 31 38  1  1  0  0  0
 32 34  2  0  0  0  0
 33 31  1  0  0  0  0
 34 36  1  0  0  0  0
 34 37  1  0  0  0  0
 35 31  1  0  0  0  0
 36 30  1  0  0  0  0
 37 28  1  1  0  0  0
 37 35  1  0  0  0  0
 40 39  1  0  0  0  0
 43 46  2  0  0  0  0
 44 47  2  0  0  0  0
 44 43  1  0  0  0  0
 45 41  1  0  0  0  0
 45 42  2  0  0  0  0
 46 42  1  0  0  0  0
 46 50  1  0  0  0  0
 47 45  1  0  0  0  0
 48 49  1  0  0  0  0
 49 43  1  0  0  0  0
 50 51  1  0  0  0  0
 51 52  1  0  0  0  0
 52 53  1  0  0  0  0
 53 57  1  0  0  0  0
 55 54  1  0  0  0  0
 56 55  2  0  0  0  0
 57 55  1  0  0  0  0
 57 58  1  0  0  0  0
 60 59  1  1  0  0  0
 60 58  1  0  0  0  0
 61 63  1  0  0  0  0
 61 62  1  0  0  0  0
 62 64  1  0  0  0  0
 63 65  1  0  0  0  0
 64 60  1  6  0  0  0
 64 65  1  0  0  0  0
M  END
>  <MODEL>
1

>  <REMARK>
 VINA RESULT:      -4.1      0.000      0.000
  Name = 
  28 active torsions:
  status: ('A' for Active; 'I' for Inactive)
    1  A    between atoms: C_3  and  CA_18
    2  A    between atoms: N_6  and  C_13
    3  A    between atoms: C_7  and  N_57
    4  A    between atoms: C_7  and  C_65
    5  A    between atoms: C_10  and  C_46
    6  A    between atoms: C_13  and  N_53
    7  A    between atoms: C_14  and  C_56
    8  A    between atoms: C_15  and  C_19
    9  A    between atoms: C_20  and  S_23
   10  A    between atoms: C_21  and  C_33
   11  A    between atoms: C_21  and  C_52
   12  A    between atoms: S_23  and  C_61
   13  A    between atoms: O_24  and  C_47
   14  A    between atoms: O_24  and  C_61
   15  A    between atoms: N_27  and  C_33
   16  A    between atoms: C_30  and  C_32
   17  A    between atoms: C_30  and  C_35
   18  A    between atoms: C_32  and  C_40
   19  A    between atoms: C_34  and  C_37
   20  A    between atoms: C_34  and  C_42
   21  A    between atoms: C_35  and  C_47
   22  A    between atoms: C_37  and  C_51
   23  A    between atoms: C_38  and  C_58
   24  A    between atoms: C_40  and  N_49
   25  A    between atoms: O_48  and  C_52
   26  A    between atoms: C_50  and  C_65
   27  A    between atoms: C_51  and  O_60
   28  A    between atoms: N_57  and  O_60
                            x       y       z     vdW  Elec       q    Type
                         _______ _______ _______ _____ _____    ______ ____

>  <TORSDO>
F 28

$$$$
=
 OpenBabel11042410143D

 65 68  0  0  1  0  0  0  0  0999 V2000
  192.7970  176.3810  137.5160 C   0  0  0  0  0  0  0  0  0  0  0  0
  191.4750  176.2280  137.3140 C   0  0  0  0  0  0  0  0  0  0  0  0
  193.4320  175.6290  138.5010 O   0  0  0  0  0  1  0  0  0  0  0  0
  194.5460  176.9870  135.8090 C   0  0  0  0  0  3  0  0  0  0  0  0
  193.6080  177.3050  136.7090 C   0  0  0  0  0  3  0  0  0  0  0  0
  196.2460  175.3660  135.8760 O   0  0  0  0  0  0  0  0  0  0  0  0
  194.2670  174.6500  134.8700 N   0  0  0  0  0  2  0  0  0  0  0  0
  195.0760  175.6490  135.4980 C   0  0  0  0  0  0  0  0  0  0  0  0
  194.7430  173.2900  134.6640 C   0  0  0  0  0  2  0  0  0  0  0  0
  193.7150  172.3100  135.2020 C   0  0  0  0  0  2  0  0  0  0  0  0
  193.7590  172.3000  136.7200 C   0  0  0  0  0  2  0  0  0  0  0  0
  194.5480  170.2690  136.4210 C   0  0  0  0  0  1  0  0  0  0  0  0
  194.7480  171.4290  137.1650 O   0  0  0  0  0  0  0  0  0  0  0  0
  190.7350  176.9710  136.3800 O   0  0  0  0  0  0  0  0  0  0  0  0
  190.3810  176.5110  135.0860 C   0  0  0  0  0  2  0  0  0  0  0  0
  189.0790  175.7370  135.1530 C   0  0  0  0  0  2  0  0  0  0  0  0
  190.1520  173.5420  134.7590 C   0  0  0  0  0  1  0  0  0  0  0  0
  189.3260  174.3580  135.7280 C   0  0  2  0  0  3  0  0  0  0  0  0
  188.0110  173.6550  135.9890 C   0  0  0  0  0  2  0  0  0  0  0  0
  187.0310  173.8780  134.8480 C   0  0  1  0  0  3  0  0  0  0  0  0
  186.0780  172.6980  134.7850 C   0  0  0  0  0  1  0  0  0  0  0  0
  185.1670  175.0100  135.6390 N   0  0  0  0  0  0  0  0  0  0  0  0
  186.2900  175.0810  135.1130 N   0  0  0  0  0  0  0  0  0  0  0  0
  184.3690  176.1960  135.8260 C   0  0  0  0  0  2  0  0  0  0  0  0
  183.7540  177.0090  137.9510 C   0  0  0  0  0  2  0  0  0  0  0  0
  182.5980  177.8830  138.1120 N   0  0  0  0  0  0  0  0  0  0  0  0
  182.1400  176.4220  136.4860 N   0  0  0  0  0  2  0  0  0  0  0  0
  181.7180  177.5240  137.2530 C   0  0  0  0  0  0  0  0  0  0  0  0
  183.4110  176.0130  136.9180 N   0  0  0  0  0  0  0  0  0  0  0  0
  179.6360  181.0190  137.4360 C   0  0  2  0  0  3  0  0  0  0  0  0
  180.3100  180.2370  138.5850 C   0  0  2  0  0  0  0  0  0  0  0  0
  180.1710  178.5030  134.7780 N   0  0  0  0  0  2  0  0  0  0  0  0
  181.6990  180.3840  138.5360 O   0  0  0  0  0  1  0  0  0  0  0  0
  180.1370  179.0020  135.9710 C   0  0  0  0  0  0  0  0  0  0  0  0
  179.9290  178.7570  138.4810 C   0  0  0  0  0  2  0  0  0  0  0  0
  179.9270  180.4100  136.1410 N   0  0  0  0  0  2  0  0  0  0  0  0
  180.3350  178.1000  137.1620 C   0  0  2  0  0  3  0  0  0  0  0  0
  179.8100  180.7370  139.9280 C   0  0  0  0  0  1  0  0  0  0  0  0
  180.0480  182.4850  137.4220 C   0  0  0  0  0  2  0  0  0  0  0  0
  181.2640  182.6480  136.7550 O   0  0  0  0  0  1  0  0  0  0  0  0
  190.5550  175.0330  138.2930 S   0  0  0  0  0  0  0  0  0  0  0  0
  189.7340  176.8050  140.2410 C   0  0  0  0  0  3  0  0  0  0  0  0
  187.7500  178.2000  140.0930 C   0  0  0  0  0  0  0  0  0  0  0  0
  187.4800  177.6560  138.8290 C   0  0  0  0  0  3  0  0  0  0  0  0
  189.4720  176.2880  138.9740 C   0  0  0  0  0  0  0  0  0  0  0  0
  188.8830  177.7650  140.8100 C   0  0  0  0  0  0  0  0  0  0  0  0
  188.3380  176.7050  138.2700 C   0  0  0  0  0  3  0  0  0  0  0  0
  185.4770  178.5230  140.8910 N   0  0  0  0  0  1  0  0  0  0  0  0
  186.7760  179.1580  140.7070 C   0  0  0  0  0  2  0  0  0  0  0  0
  189.1770  178.2580  142.1950 C   0  0  0  0  0  2  0  0  0  0  0  0
  190.4370  177.6080  142.7280 C   0  0  0  0  0  2  0  0  0  0  0  0
  190.9170  178.3590  143.9520 C   0  0  0  0  0  2  0  0  0  0  0  0
  189.8740  178.4590  144.8850 O   0  0  0  0  0  0  0  0  0  0  0  0
  191.7830  175.9820  147.0220 C   0  0  0  0  0  1  0  0  0  0  0  0
  191.4580  177.0050  145.9830 C   0  0  0  0  0  0  0  0  0  0  0  0
  192.3840  177.4490  145.2510 O   0  0  0  0  0  0  0  0  0  0  0  0
  190.1120  177.4790  145.7950 N   0  0  0  0  0  0  0  0  0  0  0  0
  189.0010  176.8140  146.4900 C   0  0  0  0  0  2  0  0  0  0  0  0
  188.1760  177.9320  148.5980 C   0  0  0  0  0  1  0  0  0  0  0  0
  187.9760  177.7810  147.0940 C   0  0  2  0  0  3  0  0  0  0  0  0
  186.1070  178.4460  144.5040 C   0  0  0  0  0  2  0  0  0  0  0  0
  186.4010  177.1450  145.2430 C   0  0  0  0  0  2  0  0  0  0  0  0
  185.8900  179.5630  145.5130 C   0  0  0  0  0  2  0  0  0  0  0  0
  186.5290  177.4240  146.7320 C   0  0  2  0  0  3  0  0  0  0  0  0
  185.4080  178.8120  147.0890 S   0  0  0  0  0  0  0  0  0  0  0  0
  1  3  1  0  0  0  0
  2  1  2  0  0  0  0
  2 41  1  0  0  0  0
  4  5  2  0  0  0  0
  5  1  1  0  0  0  0
  7  8  1  0  0  0  0
  8  4  1  0  0  0  0
  8  6  2  0  0  0  0
  9  7  1  0  0  0  0
  9 10  1  0  0  0  0
 10 11  1  0  0  0  0
 11 13  1  0  0  0  0
 12 13  1  0  0  0  0
 14  2  1  0  0  0  0
 15 16  1  0  0  0  0
 15 14  1  0  0  0  0
 16 18  1  0  0  0  0
 18 17  1  6  0  0  0
 18 19  1  0  0  0  0
 20 21  1  1  0  0  0
 20 23  1  0  0  0  0
 20 19  1  0  0  0  0
 22 24  1  0  0  0  0
 23 22  2  0  0  0  0
 24 29  1  0  0  0  0
 25 26  1  0  0  0  0
 27 29  1  0  0  0  0
 27 28  1  0  0  0  0
 28 26  2  0  0  0  0
 29 25  1  0  0  0  0
 30 39  1  6  0  0  0
 30 31  1  0  0  0  0
 31 38  1  1  0  0  0
 32 34  2  0  0  0  0
 33 31  1  0  0  0  0
 34 36  1  0  0  0  0
 34 37  1  0  0  0  0
 35 31  1  0  0  0  0
 36 30  1  0  0  0  0
 37 28  1  1  0  0  0
 37 35  1  0  0  0  0
 40 39  1  0  0  0  0
 41 45  1  0  0  0  0
 42 46  1  0  0  0  0
 43 49  1  0  0  0  0
 43 46  2  0  0  0  0
 44 43  1  0  0  0  0
 45 42  2  0  0  0  0
 46 50  1  0  0  0  0
 47 44  2  0  0  0  0
 47 45  1  0  0  0  0
 49 48  1  0  0  0  0
 50 51  1  0  0  0  0
 51 52  1  0  0  0  0
 52 53  1  0  0  0  0
 53 57  1  0  0  0  0
 55 54  1  0  0  0  0
 56 55  2  0  0  0  0
 57 55  1  0  0  0  0
 57 58  1  0  0  0  0
 58 60  1  0  0  0  0
 60 59  1  1  0  0  0
 61 62  1  0  0  0  0
 61 63  1  0  0  0  0
 62 64  1  0  0  0  0
 63 65  1  0  0  0  0
 64 65  1  0  0  0  0
 64 60  1  6  0  0  0
M  END
>  <MODEL>
2

>  <REMARK>
 VINA RESULT:      -3.2      2.816      4.048
  Name = 
  28 active torsions:
  status: ('A' for Active; 'I' for Inactive)
    1  A    between atoms: C_3  and  CA_18
    2  A    between atoms: N_6  and  C_13
    3  A    between atoms: C_7  and  N_57
    4  A    between atoms: C_7  and  C_65
    5  A    between atoms: C_10  and  C_46
    6  A    between atoms: C_13  and  N_53
    7  A    between atoms: C_14  and  C_56
    8  A    between atoms: C_15  and  C_19
    9  A    between atoms: C_20  and  S_23
   10  A    between atoms: C_21  and  C_33
   11  A    between atoms: C_21  and  C_52
   12  A    between atoms: S_23  and  C_61
   13  A    between atoms: O_24  and  C_47
   14  A    between atoms: O_24  and  C_61
   15  A    between atoms: N_27  and  C_33
   16  A    between atoms: C_30  and  C_32
   17  A    between atoms: C_30  and  C_35
   18  A    between atoms: C_32  and  C_40
   19  A    between atoms: C_34  and  C_37
   20  A    between atoms: C_34  and  C_42
   21  A    between atoms: C_35  and  C_47
   22  A    between atoms: C_37  and  C_51
   23  A    between atoms: C_38  and  C_58
   24  A    between atoms: C_40  and  N_49
   25  A    between atoms: O_48  and  C_52
   26  A    between atoms: C_50  and  C_65
   27  A    between atoms: C_51  and  O_60
   28  A    between atoms: N_57  and  O_60
                            x       y       z     vdW  Elec       q    Type
                         _______ _______ _______ _____ _____    ______ ____

>  <TORSDO>
F 28

$$$$
=
 OpenBabel11042410143D

 65 68  0  0  1  0  0  0  0  0999 V2000
  190.4000  178.1770  144.3170 C   0  0  0  0  0  0  0  0  0  0  0  0
  190.1100  177.3550  143.2900 C   0  0  0  0  0  0  0  0  0  0  0  0
  191.7230  178.5450  144.5480 O   0  0  0  0  0  1  0  0  0  0  0  0
  188.9890  178.2640  146.3990 C   0  0  0  0  0  3  0  0  0  0  0  0
  189.3570  178.7230  145.1970 C   0  0  0  0  0  3  0  0  0  0  0  0
  188.5800  176.2330  147.5080 O   0  0  0  0  0  0  0  0  0  0  0  0
  190.8370  176.7050  147.1560 N   0  0  0  0  0  2  0  0  0  0  0  0
  189.4480  177.0380  147.0740 C   0  0  0  0  0  0  0  0  0  0  0  0
  191.2950  175.4420  147.7160 C   0  0  0  0  0  2  0  0  0  0  0  0
  192.7730  175.5440  148.0450 C   0  0  0  0  0  2  0  0  0  0  0  0
  192.9960  176.6310  149.0830 C   0  0  0  0  0  2  0  0  0  0  0  0
  194.4090  177.0820  150.7080 C   0  0  0  0  0  1  0  0  0  0  0  0
  193.5580  176.0860  150.2340 O   0  0  0  0  0  0  0  0  0  0  0  0
  188.8180  176.8880  143.0030 O   0  0  0  0  0  0  0  0  0  0  0  0
  187.8070  176.6700  143.9730 C   0  0  0  0  0  2  0  0  0  0  0  0
  186.4790  176.4220  143.2860 C   0  0  0  0  0  2  0  0  0  0  0  0
  186.4840  178.8210  142.6780 C   0  0  0  0  0  1  0  0  0  0  0  0
  185.6610  177.6960  143.2640 C   0  0  2  0  0  3  0  0  0  0  0  0
  185.2260  178.0640  144.6660 C   0  0  0  0  0  2  0  0  0  0  0  0
  184.5820  179.4410  144.6990 C   0  0  1  0  0  3  0  0  0  0  0  0
  184.9040  180.1620  143.4020 C   0  0  0  0  0  1  0  0  0  0  0  0
  182.5330  178.6720  143.9280 N   0  0  0  0  0  0  0  0  0  0  0  0
  183.1580  179.2750  144.8160 N   0  0  0  0  0  0  0  0  0  0  0  0
  181.0950  178.5780  143.9800 C   0  0  0  0  0  2  0  0  0  0  0  0
  179.3550  179.1860  142.5100 C   0  0  0  0  0  2  0  0  0  0  0  0
  179.6040  180.0840  141.3890 N   0  0  0  0  0  0  0  0  0  0  0  0
  181.4230  178.8220  141.6810 N   0  0  0  0  0  2  0  0  0  0  0  0
  180.7900  179.8530  140.9630 C   0  0  0  0  0  0  0  0  0  0  0  0
  180.5410  178.3190  142.6490 N   0  0  0  0  0  0  0  0  0  0  0  0
  181.1260  179.4720  136.9230 C   0  0  2  0  0  3  0  0  0  0  0  0
  181.7900  178.6240  138.0290 C   0  0  2  0  0  0  0  0  0  0  0  0
  179.6340  182.0380  139.1290 N   0  0  0  0  0  2  0  0  0  0  0  0
  180.8580  177.7680  138.6240 O   0  0  0  0  0  1  0  0  0  0  0  0
  180.3710  181.0330  138.7810 C   0  0  0  0  0  0  0  0  0  0  0  0
  182.4020  179.5540  139.0810 C   0  0  0  0  0  2  0  0  0  0  0  0
  180.1920  180.4400  137.4880 N   0  0  0  0  0  2  0  0  0  0  0  0
  181.3940  180.4910  139.7460 C   0  0  2  0  0  3  0  0  0  0  0  0
  182.9210  177.7930  137.4500 C   0  0  0  0  0  1  0  0  0  0  0  0
  180.4130  178.6090  135.8890 C   0  0  0  0  0  2  0  0  0  0  0  0
  179.9020  179.3990  134.8570 O   0  0  0  0  0  1  0  0  0  0  0  0
  191.4280  176.7740  142.2130 S   0  0  0  0  0  0  0  0  0  0  0  0
  190.9090  176.6570  139.5060 C   0  0  0  0  0  3  0  0  0  0  0  0
  189.1830  177.9380  138.3720 C   0  0  0  0  0  0  0  0  0  0  0  0
  188.8230  178.5120  139.6000 C   0  0  0  0  0  3  0  0  0  0  0  0
  190.5280  177.2130  140.7260 C   0  0  0  0  0  0  0  0  0  0  0  0
  190.2420  177.0080  138.3230 C   0  0  0  0  0  0  0  0  0  0  0  0
  189.4910  178.1490  140.7730 C   0  0  0  0  0  3  0  0  0  0  0  0
  187.0870  178.6200  137.3480 N   0  0  0  0  0  1  0  0  0  0  0  0
  188.5090  178.3990  137.1170 C   0  0  0  0  0  2  0  0  0  0  0  0
  190.7170  176.4220  137.0270 C   0  0  0  0  0  2  0  0  0  0  0  0
  190.8650  174.9200  137.1520 C   0  0  0  0  0  2  0  0  0  0  0  0
  191.9900  174.4440  136.2560 C   0  0  0  0  0  2  0  0  0  0  0  0
  192.6580  173.3720  136.8670 O   0  0  0  0  0  0  0  0  0  0  0  0
  194.8260  170.9710  134.8980 C   0  0  0  0  0  1  0  0  0  0  0  0
  193.9200  171.5330  135.9450 C   0  0  0  0  0  0  0  0  0  0  0  0
  193.4960  170.7730  136.8580 O   0  0  0  0  0  0  0  0  0  0  0  0
  193.5370  172.9200  135.9360 N   0  0  0  0  0  0  0  0  0  0  0  0
  194.1940  173.8520  135.0090 C   0  0  0  0  0  2  0  0  0  0  0  0
  195.1920  175.9090  136.0800 C   0  0  0  0  0  1  0  0  0  0  0  0
  195.4660  174.4970  135.5730 C   0  0  2  0  0  3  0  0  0  0  0  0
  198.3690  173.0130  135.6740 C   0  0  0  0  0  2  0  0  0  0  0  0
  197.2900  173.0710  134.5980 C   0  0  0  0  0  2  0  0  0  0  0  0
  198.5490  174.3950  136.2830 C   0  0  0  0  0  2  0  0  0  0  0  0
  196.6470  174.4490  134.5960 C   0  0  2  0  0  3  0  0  0  0  0  0
  197.9500  175.6180  135.0920 S   0  0  0  0  0  0  0  0  0  0  0  0
  1  3  1  0  0  0  0
  1  5  1  0  0  0  0
  2  1  2  0  0  0  0
  4  8  1  0  0  0  0
  5  4  2  0  0  0  0
  7  9  1  0  0  0  0
  8  7  1  0  0  0  0
  8  6  2  0  0  0  0
  9 10  1  0  0  0  0
 10 11  1  0  0  0  0
 11 13  1  0  0  0  0
 13 12  1  0  0  0  0
 14  2  1  0  0  0  0
 14 15  1  0  0  0  0
 16 15  1  0  0  0  0
 18 17  1  1  0  0  0
 18 16  1  0  0  0  0
 18 19  1  0  0  0  0
 19 20  1  0  0  0  0
 20 21  1  6  0  0  0
 20 23  1  0  0  0  0
 22 24  1  0  0  0  0
 22 23  2  0  0  0  0
 25 29  1  0  0  0  0
 26 25  1  0  0  0  0
 27 29  1  0  0  0  0
 28 26  2  0  0  0  0
 28 27  1  0  0  0  0
 29 24  1  0  0  0  0
 30 39  1  6  0  0  0
 30 36  1  0  0  0  0
 30 31  1  0  0  0  0
 31 38  1  6  0  0  0
 31 33  1  0  0  0  0
 31 35  1  0  0  0  0
 34 32  2  0  0  0  0
 34 37  1  0  0  0  0
 35 37  1  0  0  0  0
 36 34  1  0  0  0  0
 37 28  1  1  0  0  0
 40 39  1  0  0  0  0
 41  2  1  0  0  0  0
 42 45  1  0  0  0  0
 43 44  2  0  0  0  0
 44 47  1  0  0  0  0
 45 47  2  0  0  0  0
 45 41  1  0  0  0  0
 46 43  1  0  0  0  0
 46 42  2  0  0  0  0
 49 48  1  0  0  0  0
 49 43  1  0  0  0  0
 50 51  1  0  0  0  0
 50 46  1  0  0  0  0
 52 53  1  0  0  0  0
 52 51  1  0  0  0  0
 54 55  1  0  0  0  0
 55 56  2  0  0  0  0
 57 55  1  0  0  0  0
 57 53  1  0  0  0  0
 58 60  1  0  0  0  0
 58 57  1  0  0  0  0
 60 59  1  6  0  0  0
 61 63  1  0  0  0  0
 62 61  1  0  0  0  0
 64 62  1  0  0  0  0
 64 65  1  0  0  0  0
 64 60  1  1  0  0  0
 65 63  1  0  0  0  0
M  END
>  <MODEL>
3

>  <REMARK>
 VINA RESULT:      -2.9      3.518      9.457
  Name = 
  28 active torsions:
  status: ('A' for Active; 'I' for Inactive)
    1  A    between atoms: C_3  and  CA_18
    2  A    between atoms: N_6  and  C_13
    3  A    between atoms: C_7  and  N_57
    4  A    between atoms: C_7  and  C_65
    5  A    between atoms: C_10  and  C_46
    6  A    between atoms: C_13  and  N_53
    7  A    between atoms: C_14  and  C_56
    8  A    between atoms: C_15  and  C_19
    9  A    between atoms: C_20  and  S_23
   10  A    between atoms: C_21  and  C_33
   11  A    between atoms: C_21  and  C_52
   12  A    between atoms: S_23  and  C_61
   13  A    between atoms: O_24  and  C_47
   14  A    between atoms: O_24  and  C_61
   15  A    between atoms: N_27  and  C_33
   16  A    between atoms: C_30  and  C_32
   17  A    between atoms: C_30  and  C_35
   18  A    between atoms: C_32  and  C_40
   19  A    between atoms: C_34  and  C_37
   20  A    between atoms: C_34  and  C_42
   21  A    between atoms: C_35  and  C_47
   22  A    between atoms: C_37  and  C_51
   23  A    between atoms: C_38  and  C_58
   24  A    between atoms: C_40  and  N_49
   25  A    between atoms: O_48  and  C_52
   26  A    between atoms: C_50  and  C_65
   27  A    between atoms: C_51  and  O_60
   28  A    between atoms: N_57  and  O_60
                            x       y       z     vdW  Elec       q    Type
                         _______ _______ _______ _____ _____    ______ ____

>  <TORSDO>
F 28

$$$$
=
 OpenBabel11042410143D

 65 69  0  0  1  0  0  0  0  0999 V2000
  190.5510  178.3010  144.2360 C   0  0  0  0  0  0  0  0  0  0  0  0
  190.1140  177.6250  143.1570 C   0  0  0  0  0  0  0  0  0  0  0  0
  191.9010  178.6240  144.3440 O   0  0  0  0  0  1  0  0  0  0  0  0
  189.5190  178.2080  146.5310 C   0  0  0  0  0  3  0  0  0  0  0  0
  189.6400  178.7350  145.3060 C   0  0  0  0  0  3  0  0  0  0  0  0
  189.4480  176.0370  147.4260 O   0  0  0  0  0  0  0  0  0  0  0  0
  191.5980  176.8680  147.0740 N   0  0  0  0  0  2  0  0  0  0  0  0
  190.1740  177.0000  147.0600 C   0  0  0  0  0  0  0  0  0  0  0  0
  192.2540  175.6340  147.4850 C   0  0  0  0  0  2  0  0  0  0  0  0
  192.8290  175.8100  148.8790 C   0  0  0  0  0  2  0  0  0  0  0  0
  192.9040  177.2880  149.2220 C   0  0  0  0  0  2  0  0  0  0  0  0
  194.3540  176.7070  150.7720 C   0  0  0  0  0  1  0  0  0  0  0  0
  193.1940  177.4520  150.5730 O   0  0  0  0  0  0  0  0  0  0  0  0
  188.7850  177.2110  142.9770 O   0  0  0  0  0  0  0  0  0  0  0  0
  187.6920  177.6530  143.7650 C   0  0  0  0  0  2  0  0  0  0  0  0
  186.5010  176.7380  143.5520 C   0  0  0  0  0  2  0  0  0  0  0  0
  185.6510  178.5750  142.1270 C   0  0  0  0  0  2  0  0  0  0  0  0
  185.2810  177.5540  143.1810 C   0  0  2  0  0  3  0  0  0  0  0  0
  184.7320  178.2620  144.4010 C   0  0  0  0  0  2  0  0  0  0  0  0
  184.4190  179.7180  144.0970 C   0  0  1  0  0  3  0  0  0  0  0  0
  185.0230  180.0790  142.7520 C   0  0  0  0  0  2  0  0  0  0  0  0
  182.2590  178.8720  144.0770 N   0  0  0  0  0  0  0  0  0  0  0  0
  182.9900  179.8750  144.0400 N   0  0  0  0  0  0  0  0  0  0  0  0
  180.8300  179.0000  143.9250 C   0  0  0  0  0  2  0  0  0  0  0  0
  180.2160  179.6460  141.7430 C   0  0  0  0  0  2  0  0  0  0  0  0
  181.1430  179.4910  140.6290 N   0  0  0  0  0  0  0  0  0  0  0  0
  181.4580  177.7830  142.0340 N   0  0  0  0  0  2  0  0  0  0  0  0
  181.8350  178.4340  140.8440 C   0  0  0  0  0  0  0  0  0  0  0  0
  180.3940  178.4790  142.6280 N   0  0  0  0  0  0  0  0  0  0  0  0
  182.2660  177.1530  137.0030 C   0  0  2  0  0  3  0  0  0  0  0  0
  181.5080  176.4760  138.1650 C   0  0  2  0  0  0  0  0  0  0  0  0
  183.7990  179.8850  138.9700 N   0  0  0  0  0  2  0  0  0  0  0  0
  180.3080  177.1440  138.4300 O   0  0  0  0  0  1  0  0  0  0  0  0
  183.1620  178.7830  138.7360 C   0  0  0  0  0  0  0  0  0  0  0  0
  182.3970  176.4680  139.4130 C   0  0  0  0  0  2  0  0  0  0  0  0
  182.7680  178.4670  137.3940 N   0  0  0  0  0  2  0  0  0  0  0  0
  182.8290  177.8590  139.8780 C   0  0  2  0  0  3  0  0  0  0  0  0
  181.2000  175.0290  137.8230 C   0  0  0  0  0  1  0  0  0  0  0  0
  181.4040  177.2810  135.7530 C   0  0  0  0  0  2  0  0  0  0  0  0
  181.2040  178.6240  135.4280 O   0  0  0  0  0  1  0  0  0  0  0  0
  191.2720  177.1810  141.8550 S   0  0  0  0  0  0  0  0  0  0  0  0
  190.1780  176.6280  139.3830 C   0  0  0  0  0  3  0  0  0  0  0  0
  188.1400  177.6310  138.5180 C   0  0  0  0  0  0  0  0  0  0  0  0
  188.0140  178.3640  139.7070 C   0  0  0  0  0  3  0  0  0  0  0  0
  190.0310  177.3420  140.5720 C   0  0  0  0  0  0  0  0  0  0  0  0
  189.2370  176.7610  138.3510 C   0  0  0  0  0  0  0  0  0  0  0  0
  188.9540  178.2180  140.7310 C   0  0  0  0  0  3  0  0  0  0  0  0
  187.7370  178.7500  136.3980 N   0  0  0  0  0  1  0  0  0  0  0  0
  187.1670  177.8610  137.4030 C   0  0  0  0  0  2  0  0  0  0  0  0
  189.4620  176.0120  137.0710 C   0  0  0  0  0  2  0  0  0  0  0  0
  190.1050  174.6710  137.3530 C   0  0  0  0  0  2  0  0  0  0  0  0
  191.2390  174.4360  136.3760 C   0  0  0  0  0  2  0  0  0  0  0  0
  192.4660  174.6900  137.0070 O   0  0  0  0  0  0  0  0  0  0  0  0
  195.3790  175.6610  134.7900 C   0  0  0  0  0  1  0  0  0  0  0  0
  194.2900  175.7240  135.8110 C   0  0  0  0  0  0  0  0  0  0  0  0
  194.1470  176.7780  136.4880 O   0  0  0  0  0  0  0  0  0  0  0  0
  193.3980  174.6140  136.0220 N   0  0  0  0  0  0  0  0  0  0  0  0
  193.4200  173.4750  135.0950 C   0  0  0  0  0  2  0  0  0  0  0  0
  194.2510  171.1380  134.6290 C   0  0  0  0  0  1  0  0  0  0  0  0
  194.4650  172.4080  135.4440 C   0  0  2  0  0  3  0  0  0  0  0  0
  196.9470  172.4310  137.5610 C   0  0  0  0  0  2  0  0  0  0  0  0
  195.5570  173.0580  137.6110 C   0  0  0  0  0  2  0  0  0  0  0  0
  196.8440  171.0200  137.0030 C   0  0  0  0  0  2  0  0  0  0  0  0
  194.5550  172.1260  136.9490 C   0  0  2  0  0  3  0  0  0  0  0  0
  195.1500  170.4350  137.2590 S   0  0  0  0  0  0  0  0  0  0  0  0
  1  3  1  0  0  0  0
  1  5  1  0  0  0  0
  2  1  2  0  0  0  0
  4  8  1  0  0  0  0
  5  4  2  0  0  0  0
  7  9  1  0  0  0  0
  8  7  1  0  0  0  0
  8  6  2  0  0  0  0
  9 10  1  0  0  0  0
 10 11  1  0  0  0  0
 11 13  1  0  0  0  0
 13 12  1  0  0  0  0
 14  2  1  0  0  0  0
 14 15  1  0  0  0  0
 16 15  1  0  0  0  0
 17 21  1  0  0  0  0
 17 18  1  0  0  0  0
 18 16  1  1  0  0  0
 18 19  1  0  0  0  0
 20 23  1  6  0  0  0
 20 19  1  0  0  0  0
 21 20  1  0  0  0  0
 23 22  2  0  0  0  0
 24 22  1  0  0  0  0
 25 29  1  0  0  0  0
 26 28  2  0  0  0  0
 26 25  1  0  0  0  0
 27 29  1  0  0  0  0
 28 27  1  0  0  0  0
 29 24  1  0  0  0  0
 30 39  1  6  0  0  0
 30 36  1  0  0  0  0
 30 31  1  0  0  0  0
 31 38  1  6  0  0  0
 31 33  1  0  0  0  0
 31 35  1  0  0  0  0
 34 32  2  0  0  0  0
 34 37  1  0  0  0  0
 35 37  1  0  0  0  0
 36 34  1  0  0  0  0
 37 28  1  6  0  0  0
 40 39  1  0  0  0  0
 41  2  1  0  0  0  0
 42 45  1  0  0  0  0
 43 44  2  0  0  0  0
 44 47  1  0  0  0  0
 45 47  2  0  0  0  0
 45 41  1  0  0  0  0
 46 43  1  0  0  0  0
 46 42  2  0  0  0  0
 48 49  1  0  0  0  0
 49 43  1  0  0  0  0
 50 51  1  0  0  0  0
 50 46  1  0  0  0  0
 52 53  1  0  0  0  0
 52 51  1  0  0  0  0
 54 55  1  0  0  0  0
 55 57  1  0  0  0  0
 55 56  2  0  0  0  0
 57 53  1  0  0  0  0
 58 60  1  0  0  0  0
 58 57  1  0  0  0  0
 60 59  1  6  0  0  0
 61 62  1  0  0  0  0
 63 65  1  0  0  0  0
 63 61  1  0  0  0  0
 64 60  1  6  0  0  0
 64 65  1  0  0  0  0
 64 62  1  0  0  0  0
M  END
>  <MODEL>
4

>  <REMARK>
 VINA RESULT:      -2.9      3.279      9.086
  Name = 
  28 active torsions:
  status: ('A' for Active; 'I' for Inactive)
    1  A    between atoms: C_3  and  CA_18
    2  A    between atoms: N_6  and  C_13
    3  A    between atoms: C_7  and  N_57
    4  A    between atoms: C_7  and  C_65
    5  A    between atoms: C_10  and  C_46
    6  A    between atoms: C_13  and  N_53
    7  A    between atoms: C_14  and  C_56
    8  A    between atoms: C_15  and  C_19
    9  A    between atoms: C_20  and  S_23
   10  A    between atoms: C_21  and  C_33
   11  A    between atoms: C_21  and  C_52
   12  A    between atoms: S_23  and  C_61
   13  A    between atoms: O_24  and  C_47
   14  A    between atoms: O_24  and  C_61
   15  A    between atoms: N_27  and  C_33
   16  A    between atoms: C_30  and  C_32
   17  A    between atoms: C_30  and  C_35
   18  A    between atoms: C_32  and  C_40
   19  A    between atoms: C_34  and  C_37
   20  A    between atoms: C_34  and  C_42
   21  A    between atoms: C_35  and  C_47
   22  A    between atoms: C_37  and  C_51
   23  A    between atoms: C_38  and  C_58
   24  A    between atoms: C_40  and  N_49
   25  A    between atoms: O_48  and  C_52
   26  A    between atoms: C_50  and  C_65
   27  A    between atoms: C_51  and  O_60
   28  A    between atoms: N_57  and  O_60
                            x       y       z     vdW  Elec       q    Type
                         _______ _______ _______ _____ _____    ______ ____

>  <TORSDO>
F 28

$$$$
=
 OpenBabel11042410143D

 65 68  0  0  1  0  0  0  0  0999 V2000
  188.8570  177.2670  141.4240 C   0  0  0  0  0  0  0  0  0  0  0  0
  189.4580  177.6250  140.2730 C   0  0  0  0  0  0  0  0  0  0  0  0
  189.5840  176.5800  142.3930 O   0  0  0  0  0  1  0  0  0  0  0  0
  186.9220  177.9360  142.8890 C   0  0  0  0  0  3  0  0  0  0  0  0
  187.4530  177.6010  141.7070 C   0  0  0  0  0  3  0  0  0  0  0  0
  187.4490  178.9470  144.9440 O   0  0  0  0  0  0  0  0  0  0  0  0
  188.2790  176.7820  144.6910 N   0  0  0  0  0  2  0  0  0  0  0  0
  187.5820  177.9340  144.2050 C   0  0  0  0  0  0  0  0  0  0  0  0
  188.8340  176.7270  146.0350 C   0  0  0  0  0  2  0  0  0  0  0  0
  190.3060  177.0980  145.9880 C   0  0  0  0  0  2  0  0  0  0  0  0
  190.9570  176.7900  147.3250 C   0  0  0  0  0  2  0  0  0  0  0  0
  192.7040  175.7840  148.2060 C   0  0  0  0  0  1  0  0  0  0  0  0
  191.7240  175.6330  147.2290 O   0  0  0  0  0  0  0  0  0  0  0  0
  188.8020  178.2760  139.2170 O   0  0  0  0  0  0  0  0  0  0  0  0
  187.3980  178.4530  139.1300 C   0  0  0  0  0  2  0  0  0  0  0  0
  186.7820  177.3020  138.3580 C   0  0  0  0  0  2  0  0  0  0  0  0
  184.8710  177.9450  136.9220 C   0  0  0  0  0  1  0  0  0  0  0  0
  185.2780  177.4650  138.2980 C   0  0  2  0  0  3  0  0  0  0  0  0
  184.8150  178.4620  139.3390 C   0  0  0  0  0  2  0  0  0  0  0  0
  183.3110  178.3830  139.5470 C   0  0  1  0  0  3  0  0  0  0  0  0
  182.6320  179.3030  138.5490 C   0  0  0  0  0  1  0  0  0  0  0  0
  181.8850  176.5880  139.8960 N   0  0  0  0  0  0  0  0  0  0  0  0
  182.8900  177.0280  139.3150 N   0  0  0  0  0  0  0  0  0  0  0  0
  181.5010  175.2040  139.7500 C   0  0  0  0  0  2  0  0  0  0  0  0
  180.5370  176.3420  137.9260 C   0  0  0  0  0  2  0  0  0  0  0  0
  181.1290  176.2600  136.5960 N   0  0  0  0  0  0  0  0  0  0  0  0
  181.4160  174.2880  137.6040 N   0  0  0  0  0  2  0  0  0  0  0  0
  181.6270  175.0870  136.4650 C   0  0  0  0  0  0  0  0  0  0  0  0
  180.6810  175.0140  138.5530 N   0  0  0  0  0  0  0  0  0  0  0  0
  184.5170  172.5970  135.0390 C   0  0  2  0  0  3  0  0  0  0  0  0
  184.6800  173.9750  135.7150 C   0  0  2  0  0  0  0  0  0  0  0  0
  180.8260  172.6280  134.7970 N   0  0  0  0  0  2  0  0  0  0  0  0
  184.4520  173.8820  137.0920 O   0  0  0  0  0  1  0  0  0  0  0  0
  182.0210  173.0790  135.0010 C   0  0  0  0  0  0  0  0  0  0  0  0
  183.7010  174.9690  135.0820 C   0  0  0  0  0  2  0  0  0  0  0  0
  183.1230  172.1630  135.0530 N   0  0  0  0  0  2  0  0  0  0  0  0
  182.2340  174.5580  135.1980 C   0  0  2  0  0  3  0  0  0  0  0  0
  186.0810  174.5130  135.4840 C   0  0  0  0  0  1  0  0  0  0  0  0
  185.3950  171.5330  135.6850 C   0  0  0  0  0  2  0  0  0  0  0  0
  185.5750  170.4510  134.8200 O   0  0  0  0  0  1  0  0  0  0  0  0
  191.1960  177.2410  140.0190 S   0  0  0  0  0  0  0  0  0  0  0  0
  191.7820  176.5340  137.4170 C   0  0  0  0  0  3  0  0  0  0  0  0
  190.3640  175.1540  136.0080 C   0  0  0  0  0  0  0  0  0  0  0  0
  189.4460  175.0450  137.0630 C   0  0  0  0  0  3  0  0  0  0  0  0
  190.8770  176.4000  138.4690 C   0  0  0  0  0  0  0  0  0  0  0  0
  191.5400  175.9130  136.1830 C   0  0  0  0  0  0  0  0  0  0  0  0
  189.7030  175.6640  138.2890 C   0  0  0  0  0  3  0  0  0  0  0  0
  189.8270  173.1120  134.8010 N   0  0  0  0  0  1  0  0  0  0  0  0
  190.0340  174.5500  134.6770 C   0  0  0  0  0  2  0  0  0  0  0  0
  192.5160  176.1240  135.0660 C   0  0  0  0  0  2  0  0  0  0  0  0
  193.1350  174.8060  134.6520 C   0  0  0  0  0  2  0  0  0  0  0  0
  193.7490  174.1310  135.8610 C   0  0  0  0  0  2  0  0  0  0  0  0
  193.3560  172.7840  135.9010 O   0  0  0  0  0  0  0  0  0  0  0  0
  195.5910  169.8180  135.1550 C   0  0  0  0  0  1  0  0  0  0  0  0
  194.4030  170.6390  135.5410 C   0  0  0  0  0  0  0  0  0  0  0  0
  193.3210  170.0550  135.8200 O   0  0  0  0  0  0  0  0  0  0  0  0
  194.4780  172.0750  135.6120 N   0  0  0  0  0  0  0  0  0  0  0  0
  195.7810  172.7430  135.5010 C   0  0  0  0  0  2  0  0  0  0  0  0
  196.1640  173.0200  137.9800 C   0  0  0  0  0  1  0  0  0  0  0  0
  196.7260  172.4650  136.6760 C   0  0  2  0  0  3  0  0  0  0  0  0
  198.0090  175.3680  135.9230 C   0  0  0  0  0  2  0  0  0  0  0  0
  198.3810  174.3300  136.9760 C   0  0  0  0  0  2  0  0  0  0  0  0
  197.6880  174.6650  134.6130 C   0  0  0  0  0  2  0  0  0  0  0  0
  198.1620  172.9350  136.4150 C   0  0  2  0  0  3  0  0  0  0  0  0
  198.4960  173.0460  134.6300 S   0  0  0  0  0  0  0  0  0  0  0  0
  1  5  1  0  0  0  0
  1  3  1  0  0  0  0
  2  1  2  0  0  0  0
  4  8  1  0  0  0  0
  5  4  2  0  0  0  0
  7  9  1  0  0  0  0
  8  7  1  0  0  0  0
  8  6  2  0  0  0  0
 10  9  1  0  0  0  0
 10 11  1  0  0  0  0
 13 11  1  0  0  0  0
 13 12  1  0  0  0  0
 14  2  1  0  0  0  0
 15 14  1  0  0  0  0
 16 15  1  0  0  0  0
 18 17  1  6  0  0  0
 18 16  1  0  0  0  0
 18 19  1  0  0  0  0
 19 20  1  0  0  0  0
 20 21  1  6  0  0  0
 23 20  1  0  0  0  0
 23 22  2  0  0  0  0
 24 22  1  0  0  0  0
 25 29  1  0  0  0  0
 26 25  1  0  0  0  0
 27 29  1  0  0  0  0
 28 26  2  0  0  0  0
 28 27  1  0  0  0  0
 29 24  1  0  0  0  0
 30 36  1  0  0  0  0
 30 39  1  1  0  0  0
 30 31  1  0  0  0  0
 31 38  1  6  0  0  0
 31 33  1  0  0  0  0
 32 34  2  0  0  0  0
 34 36  1  0  0  0  0
 34 37  1  0  0  0  0
 35 37  1  0  0  0  0
 35 31  1  0  0  0  0
 37 28  1  1  0  0  0
 40 39  1  0  0  0  0
 41  2  1  0  0  0  0
 42 45  1  0  0  0  0
 43 46  1  0  0  0  0
 43 44  2  0  0  0  0
 44 47  1  0  0  0  0
 45 41  1  0  0  0  0
 46 42  2  0  0  0  0
 47 45  2  0  0  0  0
 49 48  1  0  0  0  0
 49 43  1  0  0  0  0
 50 46  1  0  0  0  0
 51 50  1  0  0  0  0
 51 52  1  0  0  0  0
 52 53  1  0  0  0  0
 54 55  1  0  0  0  0
 55 57  1  0  0  0  0
 55 56  2  0  0  0  0
 57 53  1  0  0  0  0
 58 57  1  0  0  0  0
 58 60  1  0  0  0  0
 60 59  1  1  0  0  0
 61 62  1  0  0  0  0
 63 65  1  0  0  0  0
 63 61  1  0  0  0  0
 64 60  1  6  0  0  0
 64 62  1  0  0  0  0
 65 64  1  0  0  0  0
M  END
>  <MODEL>
5

>  <REMARK>
 VINA RESULT:      -2.9      2.752      8.932
  Name = 
  28 active torsions:
  status: ('A' for Active; 'I' for Inactive)
    1  A    between atoms: C_3  and  CA_18
    2  A    between atoms: N_6  and  C_13
    3  A    between atoms: C_7  and  N_57
    4  A    between atoms: C_7  and  C_65
    5  A    between atoms: C_10  and  C_46
    6  A    between atoms: C_13  and  N_53
    7  A    between atoms: C_14  and  C_56
    8  A    between atoms: C_15  and  C_19
    9  A    between atoms: C_20  and  S_23
   10  A    between atoms: C_21  and  C_33
   11  A    between atoms: C_21  and  C_52
   12  A    between atoms: S_23  and  C_61
   13  A    between atoms: O_24  and  C_47
   14  A    between atoms: O_24  and  C_61
   15  A    between atoms: N_27  and  C_33
   16  A    between atoms: C_30  and  C_32
   17  A    between atoms: C_30  and  C_35
   18  A    between atoms: C_32  and  C_40
   19  A    between atoms: C_34  and  C_37
   20  A    between atoms: C_34  and  C_42
   21  A    between atoms: C_35  and  C_47
   22  A    between atoms: C_37  and  C_51
   23  A    between atoms: C_38  and  C_58
   24  A    between atoms: C_40  and  N_49
   25  A    between atoms: O_48  and  C_52
   26  A    between atoms: C_50  and  C_65
   27  A    between atoms: C_51  and  O_60
   28  A    between atoms: N_57  and  O_60
                            x       y       z     vdW  Elec       q    Type
                         _______ _______ _______ _____ _____    ______ ____

>  <TORSDO>
F 28

$$$$
=
 OpenBabel11042410143D

 65 68  0  0  1  0  0  0  0  0999 V2000
  185.5050  178.0360  143.8670 C   0  0  0  0  0  0  0  0  0  0  0  0
  185.5620  178.1370  142.5260 C   0  0  0  0  0  0  0  0  0  0  0  0
  186.0290  176.9080  144.4940 O   0  0  0  0  0  1  0  0  0  0  0  0
  185.1020  179.2790  146.0190 C   0  0  0  0  0  3  0  0  0  0  0  0
  184.9240  179.0950  144.7050 C   0  0  0  0  0  3  0  0  0  0  0  0
  185.1410  177.6280  147.6910 O   0  0  0  0  0  0  0  0  0  0  0  0
  187.2470  178.3480  146.9930 N   0  0  0  0  0  2  0  0  0  0  0  0
  185.8180  178.4030  146.9610 C   0  0  0  0  0  0  0  0  0  0  0  0
  187.9640  177.4020  147.8360 C   0  0  0  0  0  2  0  0  0  0  0  0
  189.4550  177.6740  147.7430 C   0  0  0  0  0  2  0  0  0  0  0  0
  190.0850  176.7450  146.7200 C   0  0  0  0  0  2  0  0  0  0  0  0
  191.9960  176.3320  147.7280 C   0  0  0  0  0  1  0  0  0  0  0  0
  191.4510  176.9900  146.6280 O   0  0  0  0  0  0  0  0  0  0  0  0
  185.0220  179.2080  141.7980 O   0  0  0  0  0  0  0  0  0  0  0  0
  184.9660  179.2710  140.3820 C   0  0  0  0  0  2  0  0  0  0  0  0
  183.5220  179.3670  139.9280 C   0  0  0  0  0  2  0  0  0  0  0  0
  183.5540  177.4710  138.3380 C   0  0  0  0  0  1  0  0  0  0  0  0
  182.9770  177.9850  139.6380 C   0  0  2  0  0  3  0  0  0  0  0  0
  181.4670  178.0260  139.5410 C   0  0  0  0  0  2  0  0  0  0  0  0
  180.8290  176.9690  140.4290 C   0  0  1  0  0  3  0  0  0  0  0  0
  179.9170  177.6570  141.4290 C   0  0  0  0  0  1  0  0  0  0  0  0
  180.4120  174.9040  139.4570 N   0  0  0  0  0  0  0  0  0  0  0  0
  180.0550  176.0850  139.6010 N   0  0  0  0  0  0  0  0  0  0  0  0
  179.7040  174.0280  138.5560 C   0  0  0  0  0  2  0  0  0  0  0  0
  180.8590  175.5630  137.1900 C   0  0  0  0  0  2  0  0  0  0  0  0
  182.0320  175.1500  136.4290 N   0  0  0  0  0  0  0  0  0  0  0  0
  180.6050  173.4330  136.4860 N   0  0  0  0  0  2  0  0  0  0  0  0
  181.8510  173.9350  136.0650 C   0  0  0  0  0  0  0  0  0  0  0  0
  179.9030  174.4390  137.1650 N   0  0  0  0  0  0  0  0  0  0  0  0
  185.6500  172.4970  135.7840 C   0  0  2  0  0  3  0  0  0  0  0  0
  185.1640  173.9600  135.6920 C   0  0  2  0  0  0  0  0  0  0  0  0
  182.3160  170.8990  135.8710 N   0  0  0  0  0  2  0  0  0  0  0  0
  184.8130  174.4460  136.9550 O   0  0  0  0  0  1  0  0  0  0  0  0
  183.1960  171.8360  135.7290 C   0  0  0  0  0  0  0  0  0  0  0  0
  183.9650  174.0350  134.7420 C   0  0  0  0  0  2  0  0  0  0  0  0
  184.5530  171.5960  136.1250 N   0  0  0  0  0  2  0  0  0  0  0  0
  182.7780  173.1700  135.1670 C   0  0  2  0  0  3  0  0  0  0  0  0
  186.2540  174.8420  135.1120 C   0  0  0  0  0  1  0  0  0  0  0  0
  186.7850  172.3320  136.7880 C   0  0  0  0  0  2  0  0  0  0  0  0
  187.5360  173.5050  136.8790 O   0  0  0  0  0  1  0  0  0  0  0  0
  186.3450  176.8330  141.5660 S   0  0  0  0  0  0  0  0  0  0  0  0
  189.0630  177.1240  141.1900 C   0  0  0  0  0  3  0  0  0  0  0  0
  190.5950  178.0470  142.8340 C   0  0  0  0  0  0  0  0  0  0  0  0
  189.5170  178.2330  143.7120 C   0  0  0  0  0  3  0  0  0  0  0  0
  187.9940  177.3360  142.0590 C   0  0  0  0  0  0  0  0  0  0  0  0
  190.3670  177.4790  141.5640 C   0  0  0  0  0  0  0  0  0  0  0  0
  188.2210  177.8820  143.3250 C   0  0  0  0  0  3  0  0  0  0  0  0
  191.9680  179.3930  144.3220 N   0  0  0  0  0  1  0  0  0  0  0  0
  191.9850  178.3570  143.2970 C   0  0  0  0  0  2  0  0  0  0  0  0
  191.4930  177.1890  140.6170 C   0  0  0  0  0  2  0  0  0  0  0  0
  190.9580  176.9630  139.2190 C   0  0  0  0  0  2  0  0  0  0  0  0
  191.8380  175.9660  138.4930 C   0  0  0  0  0  2  0  0  0  0  0  0
  191.8930  176.2900  137.1290 O   0  0  0  0  0  0  0  0  0  0  0  0
  192.2170  172.6850  136.0150 C   0  0  0  0  0  1  0  0  0  0  0  0
  191.7490  173.9150  136.7220 C   0  0  0  0  0  0  0  0  0  0  0  0
  190.7770  173.8290  137.5210 O   0  0  0  0  0  0  0  0  0  0  0  0
  192.3940  175.1860  136.5170 N   0  0  0  0  0  0  0  0  0  0  0  0
  193.6520  175.2510  135.7620 C   0  0  0  0  0  2  0  0  0  0  0  0
  196.1700  175.4190  135.8010 C   0  0  0  0  0  1  0  0  0  0  0  0
  194.9070  175.2740  136.6430 C   0  0  2  0  0  3  0  0  0  0  0  0
  196.7640  174.6500  139.2510 C   0  0  0  0  0  2  0  0  0  0  0  0
  195.2580  174.5590  139.0250 C   0  0  0  0  0  2  0  0  0  0  0  0
  197.4910  174.0910  138.0380 C   0  0  0  0  0  2  0  0  0  0  0  0
  194.9840  174.0840  137.6080 C   0  0  2  0  0  3  0  0  0  0  0  0
  196.3590  172.9770  137.1670 S   0  0  0  0  0  0  0  0  0  0  0  0
  1  3  1  0  0  0  0
  1  5  1  0  0  0  0
  2  1  2  0  0  0  0
  4  8  1  0  0  0  0
  5  4  2  0  0  0  0
  7  9  1  0  0  0  0
  8  7  1  0  0  0  0
  8  6  2  0  0  0  0
 10  9  1  0  0  0  0
 11 10  1  0  0  0  0
 13 11  1  0  0  0  0
 13 12  1  0  0  0  0
 14  2  1  0  0  0  0
 15 14  1  0  0  0  0
 16 15  1  0  0  0  0
 18 17  1  6  0  0  0
 18 16  1  0  0  0  0
 19 18  1  0  0  0  0
 19 20  1  0  0  0  0
 20 21  1  1  0  0  0
 22 23  2  0  0  0  0
 23 20  1  0  0  0  0
 24 22  1  0  0  0  0
 26 25  1  0  0  0  0
 27 29  1  0  0  0  0
 28 26  2  0  0  0  0
 28 27  1  0  0  0  0
 29 25  1  0  0  0  0
 29 24  1  0  0  0  0
 30 36  1  0  0  0  0
 30 39  1  1  0  0  0
 31 38  1  6  0  0  0
 31 30  1  0  0  0  0
 31 33  1  0  0  0  0
 34 32  2  0  0  0  0
 34 36  1  0  0  0  0
 35 37  1  0  0  0  0
 35 31  1  0  0  0  0
 37 34  1  0  0  0  0
 37 28  1  1  0  0  0
 39 40  1  0  0  0  0
 41 45  1  0  0  0  0
 41  2  1  0  0  0  0
 42 46  2  0  0  0  0
 42 45  1  0  0  0  0
 43 49  1  0  0  0  0
 43 44  2  0  0  0  0
 45 47  2  0  0  0  0
 46 43  1  0  0  0  0
 47 44  1  0  0  0  0
 49 48  1  0  0  0  0
 50 46  1  0  0  0  0
 51 50  1  0  0  0  0
 52 51  1  0  0  0  0
 53 52  1  0  0  0  0
 54 55  1  0  0  0  0
 55 56  2  0  0  0  0
 57 55  1  0  0  0  0
 57 53  1  0  0  0  0
 58 57  1  0  0  0  0
 58 60  1  0  0  0  0
 60 59  1  6  0  0  0
 62 61  1  0  0  0  0
 63 61  1  0  0  0  0
 64 60  1  6  0  0  0
 64 62  1  0  0  0  0
 65 64  1  0  0  0  0
 65 63  1  0  0  0  0
M  END
>  <MODEL>
6

>  <REMARK>
 VINA RESULT:      -2.1      2.693      9.168
  Name = 
  28 active torsions:
  status: ('A' for Active; 'I' for Inactive)
    1  A    between atoms: C_3  and  CA_18
    2  A    between atoms: N_6  and  C_13
    3  A    between atoms: C_7  and  N_57
    4  A    between atoms: C_7  and  C_65
    5  A    between atoms: C_10  and  C_46
    6  A    between atoms: C_13  and  N_53
    7  A    between atoms: C_14  and  C_56
    8  A    between atoms: C_15  and  C_19
    9  A    between atoms: C_20  and  S_23
   10  A    between atoms: C_21  and  C_33
   11  A    between atoms: C_21  and  C_52
   12  A    between atoms: S_23  and  C_61
   13  A    between atoms: O_24  and  C_47
   14  A    between atoms: O_24  and  C_61
   15  A    between atoms: N_27  and  C_33
   16  A    between atoms: C_30  and  C_32
   17  A    between atoms: C_30  and  C_35
   18  A    between atoms: C_32  and  C_40
   19  A    between atoms: C_34  and  C_37
   20  A    between atoms: C_34  and  C_42
   21  A    between atoms: C_35  and  C_47
   22  A    between atoms: C_37  and  C_51
   23  A    between atoms: C_38  and  C_58
   24  A    between atoms: C_40  and  N_49
   25  A    between atoms: O_48  and  C_52
   26  A    between atoms: C_50  and  C_65
   27  A    between atoms: C_51  and  O_60
   28  A    between atoms: N_57  and  O_60
                            x       y       z     vdW  Elec       q    Type
                         _______ _______ _______ _____ _____    ______ ____

>  <TORSDO>
F 28

$$$$
=
 OpenBabel11042410143D

 65 68  0  0  1  0  0  0  0  0999 V2000
  185.5540  177.8520  143.9810 C   0  0  0  0  0  0  0  0  0  0  0  0
  185.6290  178.2040  142.6840 C   0  0  0  0  0  0  0  0  0  0  0  0
  186.1720  176.6810  144.4120 O   0  0  0  0  0  1  0  0  0  0  0  0
  185.3110  179.0680  146.1720 C   0  0  0  0  0  3  0  0  0  0  0  0
  184.8550  178.6820  144.9750 C   0  0  0  0  0  3  0  0  0  0  0  0
  187.0750  179.4430  147.6790 O   0  0  0  0  0  0  0  0  0  0  0  0
  187.1420  177.3720  146.6080 N   0  0  0  0  0  2  0  0  0  0  0  0
  186.5620  178.6600  146.8330 C   0  0  0  0  0  0  0  0  0  0  0  0
  188.3120  176.9140  147.3430 C   0  0  0  0  0  2  0  0  0  0  0  0
  189.3340  176.3590  146.3670 C   0  0  0  0  0  2  0  0  0  0  0  0
  190.6790  177.0270  146.5950 C   0  0  0  0  0  2  0  0  0  0  0  0
  191.7550  177.0640  148.5130 C   0  0  0  0  0  1  0  0  0  0  0  0
  191.4700  176.2410  147.4260 O   0  0  0  0  0  0  0  0  0  0  0  0
  185.0020  179.3360  142.1420 O   0  0  0  0  0  0  0  0  0  0  0  0
  184.4180  179.3920  140.8500 C   0  0  0  0  0  2  0  0  0  0  0  0
  182.9070  179.3500  140.9660 C   0  0  0  0  0  2  0  0  0  0  0  0
  183.1470  177.4390  139.4120 C   0  0  0  0  0  1  0  0  0  0  0  0
  182.3990  177.9680  140.6160 C   0  0  2  0  0  3  0  0  0  0  0  0
  180.9170  178.0150  140.3100 C   0  0  0  0  0  2  0  0  0  0  0  0
  180.0960  177.5100  141.4860 C   0  0  1  0  0  3  0  0  0  0  0  0
  179.1290  178.6000  141.9120 C   0  0  0  0  0  1  0  0  0  0  0  0
  179.9450  175.4250  140.4800 N   0  0  0  0  0  0  0  0  0  0  0  0
  179.3580  176.3510  141.0620 N   0  0  0  0  0  0  0  0  0  0  0  0
  179.2070  174.2980  139.9620 C   0  0  0  0  0  2  0  0  0  0  0  0
  179.4060  175.8140  138.1690 C   0  0  0  0  0  2  0  0  0  0  0  0
  180.4590  175.6590  137.1730 N   0  0  0  0  0  0  0  0  0  0  0  0
  179.8040  173.6210  137.8090 N   0  0  0  0  0  2  0  0  0  0  0  0
  180.6610  174.4040  137.0130 C   0  0  0  0  0  0  0  0  0  0  0  0
  178.9430  174.4610  138.5320 N   0  0  0  0  0  0  0  0  0  0  0  0
  184.4300  172.9460  136.5090 C   0  0  2  0  0  3  0  0  0  0  0  0
  183.9820  174.4090  136.7150 C   0  0  2  0  0  0  0  0  0  0  0  0
  181.0550  171.4620  136.1990 N   0  0  0  0  0  2  0  0  0  0  0  0
  183.6120  174.6320  138.0450 O   0  0  0  0  0  1  0  0  0  0  0  0
  181.9620  172.3820  136.2720 C   0  0  0  0  0  0  0  0  0  0  0  0
  182.8080  174.7160  135.7800 C   0  0  0  0  0  2  0  0  0  0  0  0
  183.3030  172.0260  136.6340 N   0  0  0  0  0  2  0  0  0  0  0  0
  181.5910  173.8160  135.9920 C   0  0  2  0  0  3  0  0  0  0  0  0
  185.1070  175.3610  136.3520 C   0  0  0  0  0  1  0  0  0  0  0  0
  185.5350  172.5420  137.4770 C   0  0  0  0  0  2  0  0  0  0  0  0
  186.7090  173.2490  137.2070 O   0  0  0  0  0  1  0  0  0  0  0  0
  186.5540  177.1760  141.5340 S   0  0  0  0  0  0  0  0  0  0  0  0
  189.3100  177.1980  141.6430 C   0  0  0  0  0  3  0  0  0  0  0  0
  190.6170  178.3780  143.3180 C   0  0  0  0  0  0  0  0  0  0  0  0
  189.4280  178.8310  143.9060 C   0  0  0  0  0  3  0  0  0  0  0  0
  188.1330  177.6740  142.2190 C   0  0  0  0  0  0  0  0  0  0  0  0
  190.5590  177.5470  142.1800 C   0  0  0  0  0  0  0  0  0  0  0  0
  188.1900  178.4820  143.3580 C   0  0  0  0  0  3  0  0  0  0  0  0
  191.9690  180.0930  144.3860 N   0  0  0  0  0  1  0  0  0  0  0  0
  191.9290  178.6980  143.9660 C   0  0  0  0  0  2  0  0  0  0  0  0
  191.7960  176.9740  141.5570 C   0  0  0  0  0  2  0  0  0  0  0  0
  191.8710  177.3520  140.0930 C   0  0  0  0  0  2  0  0  0  0  0  0
  190.5760  176.9740  139.4040 C   0  0  0  0  0  2  0  0  0  0  0  0
  190.7570  175.7860  138.6790 O   0  0  0  0  0  0  0  0  0  0  0  0
  188.4700  176.8710  135.8620 C   0  0  0  0  0  1  0  0  0  0  0  0
  188.9680  176.4820  137.2160 C   0  0  0  0  0  0  0  0  0  0  0  0
  188.1690  176.5110  138.1920 O   0  0  0  0  0  0  0  0  0  0  0  0
  190.3300  176.0650  137.4200 N   0  0  0  0  0  0  0  0  0  0  0  0
  191.1990  175.8230  136.2620 C   0  0  0  0  0  2  0  0  0  0  0  0
  190.5070  173.4570  136.8050 C   0  0  0  0  0  1  0  0  0  0  0  0
  191.3730  174.3400  135.9130 C   0  0  2  0  0  3  0  0  0  0  0  0
  193.9420  175.1150  137.7670 C   0  0  0  0  0  2  0  0  0  0  0  0
  193.3760  173.7710  137.3180 C   0  0  0  0  0  2  0  0  0  0  0  0
  193.9220  176.0870  136.5980 C   0  0  0  0  0  2  0  0  0  0  0  0
  192.8400  173.8940  135.9010 C   0  0  2  0  0  3  0  0  0  0  0  0
  193.8870  175.1250  135.0650 S   0  0  0  0  0  0  0  0  0  0  0  0
  1  3  1  0  0  0  0
  1  5  1  0  0  0  0
  2  1  2  0  0  0  0
  4  8  1  0  0  0  0
  5  4  2  0  0  0  0
  7  8  1  0  0  0  0
  7  9  1  0  0  0  0
  8  6  2  0  0  0  0
 10 11  1  0  0  0  0
 10  9  1  0  0  0  0
 11 13  1  0  0  0  0
 13 12  1  0  0  0  0
 14  2  1  0  0  0  0
 15 16  1  0  0  0  0
 15 14  1  0  0  0  0
 18 17  1  6  0  0  0
 18 16  1  0  0  0  0
 19 18  1  0  0  0  0
 19 20  1  0  0  0  0
 20 21  1  6  0  0  0
 22 23  2  0  0  0  0
 23 20  1  0  0  0  0
 24 22  1  0  0  0  0
 25 29  1  0  0  0  0
 26 25  1  0  0  0  0
 27 29  1  0  0  0  0
 28 26  2  0  0  0  0
 28 27  1  0  0  0  0
 29 24  1  0  0  0  0
 30 36  1  0  0  0  0
 30 31  1  0  0  0  0
 30 39  1  1  0  0  0
 31 38  1  6  0  0  0
 31 33  1  0  0  0  0
 32 34  2  0  0  0  0
 34 36  1  0  0  0  0
 35 37  1  0  0  0  0
 35 31  1  0  0  0  0
 37 34  1  0  0  0  0
 37 28  1  1  0  0  0
 40 39  1  0  0  0  0
 41 45  1  0  0  0  0
 41  2  1  0  0  0  0
 42 46  2  0  0  0  0
 42 45  1  0  0  0  0
 43 44  2  0  0  0  0
 43 49  1  0  0  0  0
 45 47  2  0  0  0  0
 46 43  1  0  0  0  0
 47 44  1  0  0  0  0
 49 48  1  0  0  0  0
 50 46  1  0  0  0  0
 51 50  1  0  0  0  0
 52 51  1  0  0  0  0
 53 52  1  0  0  0  0
 54 55  1  0  0  0  0
 55 57  1  0  0  0  0
 55 56  2  0  0  0  0
 57 53  1  0  0  0  0
 58 57  1  0  0  0  0
 60 58  1  0  0  0  0
 60 59  1  1  0  0  0
 62 61  1  0  0  0  0
 63 61  1  0  0  0  0
 64 60  1  1  0  0  0
 64 62  1  0  0  0  0
 65 64  1  0  0  0  0
 65 63  1  0  0  0  0
M  END
>  <MODEL>
7

>  <REMARK>
 VINA RESULT:      -1.9      2.895      8.837
  Name = 
  28 active torsions:
  status: ('A' for Active; 'I' for Inactive)
    1  A    between atoms: C_3  and  CA_18
    2  A    between atoms: N_6  and  C_13
    3  A    between atoms: C_7  and  N_57
    4  A    between atoms: C_7  and  C_65
    5  A    between atoms: C_10  and  C_46
    6  A    between atoms: C_13  and  N_53
    7  A    between atoms: C_14  and  C_56
    8  A    between atoms: C_15  and  C_19
    9  A    between atoms: C_20  and  S_23
   10  A    between atoms: C_21  and  C_33
   11  A    between atoms: C_21  and  C_52
   12  A    between atoms: S_23  and  C_61
   13  A    between atoms: O_24  and  C_47
   14  A    between atoms: O_24  and  C_61
   15  A    between atoms: N_27  and  C_33
   16  A    between atoms: C_30  and  C_32
   17  A    between atoms: C_30  and  C_35
   18  A    between atoms: C_32  and  C_40
   19  A    between atoms: C_34  and  C_37
   20  A    between atoms: C_34  and  C_42
   21  A    between atoms: C_35  and  C_47
   22  A    between atoms: C_37  and  C_51
   23  A    between atoms: C_38  and  C_58
   24  A    between atoms: C_40  and  N_49
   25  A    between atoms: O_48  and  C_52
   26  A    between atoms: C_50  and  C_65
   27  A    between atoms: C_51  and  O_60
   28  A    between atoms: N_57  and  O_60
                            x       y       z     vdW  Elec       q    Type
                         _______ _______ _______ _____ _____    ______ ____

>  <TORSDO>
F 28

$$$$
=
 OpenBabel11042410143D

 65 68  0  0  1  0  0  0  0  0999 V2000
  191.0010  176.7240  140.7420 C   0  0  0  0  0  0  0  0  0  0  0  0
  189.9450  176.8940  141.5590 C   0  0  0  0  0  0  0  0  0  0  0  0
  191.8120  175.6020  140.8920 O   0  0  0  0  0  1  0  0  0  0  0  0
  192.2930  177.5790  138.7580 C   0  0  0  0  0  3  0  0  0  0  0  0
  191.3180  177.6790  139.6690 C   0  0  0  0  0  3  0  0  0  0  0  0
  194.2960  176.6150  139.5200 O   0  0  0  0  0  0  0  0  0  0  0  0
  193.2840  175.4750  137.7540 N   0  0  0  0  0  2  0  0  0  0  0  0
  193.3540  176.5610  138.6830 C   0  0  0  0  0  0  0  0  0  0  0  0
  194.2650  174.3990  137.7500 C   0  0  0  0  0  2  0  0  0  0  0  0
  193.9890  173.4700  136.5820 C   0  0  0  0  0  2  0  0  0  0  0  0
  195.1320  173.5410  135.5850 C   0  0  0  0  0  2  0  0  0  0  0  0
  195.9360  175.3870  134.6970 C   0  0  0  0  0  1  0  0  0  0  0  0
  195.9470  174.6330  135.8680 O   0  0  0  0  0  0  0  0  0  0  0  0
  189.0960  178.0110  141.5200 O   0  0  0  0  0  0  0  0  0  0  0  0
  187.9750  178.1400  140.6610 C   0  0  0  0  0  2  0  0  0  0  0  0
  188.0430  177.0910  139.5670 C   0  0  0  0  0  2  0  0  0  0  0  0
  188.8410  178.8360  138.0040 C   0  0  0  0  0  1  0  0  0  0  0  0
  187.8230  177.7380  138.2160 C   0  0  2  0  0  3  0  0  0  0  0  0
  186.4280  178.3180  138.1320 C   0  0  0  0  0  2  0  0  0  0  0  0
  185.6290  177.6700  137.0120 C   0  0  1  0  0  3  0  0  0  0  0  0
  184.4350  178.5510  136.6910 C   0  0  0  0  0  1  0  0  0  0  0  0
  187.1950  176.5650  135.7060 N   0  0  0  0  0  0  0  0  0  0  0  0
  186.4730  177.5640  135.8530 N   0  0  0  0  0  0  0  0  0  0  0  0
  188.1180  176.4830  134.6000 C   0  0  0  0  0  2  0  0  0  0  0  0
  189.7060  175.3790  135.9460 C   0  0  0  0  0  2  0  0  0  0  0  0
  189.3190  174.2550  136.7900 N   0  0  0  0  0  0  0  0  0  0  0  0
  188.0990  174.1700  134.9210 N   0  0  0  0  0  2  0  0  0  0  0  0
  188.3970  173.6090  136.1770 C   0  0  0  0  0  0  0  0  0  0  0  0
  188.9360  175.2720  134.6930 N   0  0  0  0  0  0  0  0  0  0  0  0
  185.0700  171.2750  135.9260 C   0  0  2  0  0  3  0  0  0  0  0  0
  185.2510  172.6180  136.6650 C   0  0  2  0  0  0  0  0  0  0  0  0
  188.6070  170.7910  134.9570 N   0  0  0  0  0  2  0  0  0  0  0  0
  185.2910  173.6820  135.7590 O   0  0  0  0  0  1  0  0  0  0  0  0
  187.5850  171.3100  135.5570 C   0  0  0  0  0  0  0  0  0  0  0  0
  186.5430  172.5730  137.4870 C   0  0  0  0  0  2  0  0  0  0  0  0
  186.2620  170.9300  135.1560 N   0  0  0  0  0  2  0  0  0  0  0  0
  187.8010  172.3180  136.6570 C   0  0  2  0  0  3  0  0  0  0  0  0
  184.1070  172.8430  137.6380 C   0  0  0  0  0  1  0  0  0  0  0  0
  183.8510  171.2840  135.0120 C   0  0  0  0  0  2  0  0  0  0  0  0
  183.3550  169.9890  134.8400 O   0  0  0  0  0  1  0  0  0  0  0  0
  189.5770  175.6540  142.8090 S   0  0  0  0  0  0  0  0  0  0  0  0
  187.0990  176.7400  143.3510 C   0  0  0  0  0  3  0  0  0  0  0  0
  186.6840  178.4850  144.9910 C   0  0  0  0  0  0  0  0  0  0  0  0
  188.0510  178.4970  145.3020 C   0  0  0  0  0  3  0  0  0  0  0  0
  188.4520  176.7400  143.6850 C   0  0  0  0  0  0  0  0  0  0  0  0
  186.2040  177.6040  143.9990 C   0  0  0  0  0  0  0  0  0  0  0  0
  188.9320  177.6260  144.6540 C   0  0  0  0  0  3  0  0  0  0  0  0
  185.4520  179.0720  147.0020 N   0  0  0  0  0  1  0  0  0  0  0  0
  185.7700  179.4790  145.6390 C   0  0  0  0  0  2  0  0  0  0  0  0
  184.7660  177.6030  143.5740 C   0  0  0  0  0  2  0  0  0  0  0  0
  184.6560  177.9010  142.0930 C   0  0  0  0  0  2  0  0  0  0  0  0
  184.1430  179.3130  141.8960 C   0  0  0  0  0  2  0  0  0  0  0  0
  183.1110  179.5720  142.8100 O   0  0  0  0  0  0  0  0  0  0  0  0
  179.5220  178.4590  142.3360 C   0  0  0  0  0  1  0  0  0  0  0  0
  180.8200  178.8290  142.9760 C   0  0  0  0  0  0  0  0  0  0  0  0
  180.9050  178.8210  144.2340 O   0  0  0  0  0  0  0  0  0  0  0  0
  181.9710  179.1770  142.1850 N   0  0  0  0  0  0  0  0  0  0  0  0
  181.9430  178.9800  140.7300 C   0  0  0  0  0  2  0  0  0  0  0  0
  183.0020  177.1660  139.3310 C   0  0  0  0  0  1  0  0  0  0  0  0
  181.8780  177.5090  140.3020 C   0  0  2  0  0  3  0  0  0  0  0  0
  180.8960  175.1390  138.2880 C   0  0  0  0  0  2  0  0  0  0  0  0
  180.3950  175.5880  139.6570 C   0  0  0  0  0  2  0  0  0  0  0  0
  181.1910  176.3610  137.4330 C   0  0  0  0  0  2  0  0  0  0  0  0
  180.5010  177.1000  139.7660 C   0  0  2  0  0  3  0  0  0  0  0  0
  180.2350  177.7520  138.0890 S   0  0  0  0  0  0  0  0  0  0  0  0
  1  3  1  0  0  0  0
  1  2  2  0  0  0  0
  2 41  1  0  0  0  0
  4  5  2  0  0  0  0
  5  1  1  0  0  0  0
  7  8  1  0  0  0  0
  8  4  1  0  0  0  0
  8  6  2  0  0  0  0
  9  7  1  0  0  0  0
 10  9  1  0  0  0  0
 11 13  1  0  0  0  0
 11 10  1  0  0  0  0
 12 13  1  0  0  0  0
 14  2  1  0  0  0  0
 15 14  1  0  0  0  0
 16 15  1  0  0  0  0
 18 17  1  1  0  0  0
 18 16  1  0  0  0  0
 19 18  1  0  0  0  0
 20 21  1  6  0  0  0
 20 19  1  0  0  0  0
 22 23  2  0  0  0  0
 23 20  1  0  0  0  0
 24 29  1  0  0  0  0
 24 22  1  0  0  0  0
 25 26  1  0  0  0  0
 27 28  1  0  0  0  0
 28 26  2  0  0  0  0
 29 27  1  0  0  0  0
 29 25  1  0  0  0  0
 30 39  1  6  0  0  0
 30 31  1  0  0  0  0
 31 35  1  0  0  0  0
 31 38  1  1  0  0  0
 32 34  2  0  0  0  0
 33 31  1  0  0  0  0
 34 37  1  0  0  0  0
 36 34  1  0  0  0  0
 36 30  1  0  0  0  0
 37 28  1  6  0  0  0
 37 35  1  0  0  0  0
 40 39  1  0  0  0  0
 41 45  1  0  0  0  0
 42 45  2  0  0  0  0
 42 46  1  0  0  0  0
 43 44  1  0  0  0  0
 43 49  1  0  0  0  0
 45 47  1  0  0  0  0
 46 43  2  0  0  0  0
 47 44  2  0  0  0  0
 49 48  1  0  0  0  0
 50 46  1  0  0  0  0
 51 50  1  0  0  0  0
 52 51  1  0  0  0  0
 52 53  1  0  0  0  0
 54 55  1  0  0  0  0
 55 56  2  0  0  0  0
 57 53  1  0  0  0  0
 57 55  1  0  0  0  0
 58 57  1  0  0  0  0
 60 59  1  6  0  0  0
 60 58  1  0  0  0  0
 61 62  1  0  0  0  0
 62 64  1  0  0  0  0
 63 65  1  0  0  0  0
 63 61  1  0  0  0  0
 64 60  1  6  0  0  0
 65 64  1  0  0  0  0
M  END
>  <MODEL>
8

>  <REMARK>
 VINA RESULT:      -1.8      2.995      7.220
  Name = 
  28 active torsions:
  status: ('A' for Active; 'I' for Inactive)
    1  A    between atoms: C_3  and  CA_18
    2  A    between atoms: N_6  and  C_13
    3  A    between atoms: C_7  and  N_57
    4  A    between atoms: C_7  and  C_65
    5  A    between atoms: C_10  and  C_46
    6  A    between atoms: C_13  and  N_53
    7  A    between atoms: C_14  and  C_56
    8  A    between atoms: C_15  and  C_19
    9  A    between atoms: C_20  and  S_23
   10  A    between atoms: C_21  and  C_33
   11  A    between atoms: C_21  and  C_52
   12  A    between atoms: S_23  and  C_61
   13  A    between atoms: O_24  and  C_47
   14  A    between atoms: O_24  and  C_61
   15  A    between atoms: N_27  and  C_33
   16  A    between atoms: C_30  and  C_32
   17  A    between atoms: C_30  and  C_35
   18  A    between atoms: C_32  and  C_40
   19  A    between atoms: C_34  and  C_37
   20  A    between atoms: C_34  and  C_42
   21  A    between atoms: C_35  and  C_47
   22  A    between atoms: C_37  and  C_51
   23  A    between atoms: C_38  and  C_58
   24  A    between atoms: C_40  and  N_49
   25  A    between atoms: O_48  and  C_52
   26  A    between atoms: C_50  and  C_65
   27  A    between atoms: C_51  and  O_60
   28  A    between atoms: N_57  and  O_60
                            x       y       z     vdW  Elec       q    Type
                         _______ _______ _______ _____ _____    ______ ____

>  <TORSDO>
F 28

$$$$
=
 OpenBabel11042410143D

 65 68  0  0  1  0  0  0  0  0999 V2000
  191.1520  175.6080  136.5510 C   0  0  0  0  0  0  0  0  0  0  0  0
  190.3120  174.9860  137.3990 C   0  0  0  0  0  0  0  0  0  0  0  0
  191.1290  175.2800  135.1980 O   0  0  0  0  0  1  0  0  0  0  0  0
  193.3930  176.7430  136.7240 C   0  0  0  0  0  3  0  0  0  0  0  0
  192.0870  176.6500  137.0030 C   0  0  0  0  0  3  0  0  0  0  0  0
  194.3630  175.9010  134.7560 O   0  0  0  0  0  0  0  0  0  0  0  0
  194.9620  174.7540  136.6970 N   0  0  0  0  0  2  0  0  0  0  0  0
  194.2310  175.7700  136.0040 C   0  0  0  0  0  0  0  0  0  0  0  0
  195.8840  173.8620  136.0090 C   0  0  0  0  0  2  0  0  0  0  0  0
  196.8560  173.2720  137.0140 C   0  0  0  0  0  2  0  0  0  0  0  0
  198.2380  173.8660  136.8040 C   0  0  0  0  0  2  0  0  0  0  0  0
  197.9270  174.9440  138.6970 C   0  0  0  0  0  1  0  0  0  0  0  0
  198.3050  175.1350  137.3700 O   0  0  0  0  0  0  0  0  0  0  0  0
  190.2900  175.2110  138.7850 O   0  0  0  0  0  0  0  0  0  0  0  0
  190.2770  176.4930  139.3910 C   0  0  0  0  0  2  0  0  0  0  0  0
  189.8550  176.3710  140.8430 C   0  0  0  0  0  2  0  0  0  0  0  0
  190.7640  175.6170  143.0180 C   0  0  0  0  0  1  0  0  0  0  0  0
  191.0760  176.3600  141.7380 C   0  0  2  0  0  3  0  0  0  0  0  0
  191.4990  177.7760  142.0650 C   0  0  0  0  0  2  0  0  0  0  0  0
  190.6070  178.3840  143.1360 C   0  0  1  0  0  3  0  0  0  0  0  0
  191.4740  179.1510  144.1170 C   0  0  0  0  0  1  0  0  0  0  0  0
  188.5700  178.8760  142.1390 N   0  0  0  0  0  0  0  0  0  0  0  0
  189.6850  179.2870  142.5010 N   0  0  0  0  0  0  0  0  0  0  0  0
  187.6690  179.7400  141.4170 C   0  0  0  0  0  2  0  0  0  0  0  0
  186.0760  178.0100  141.2660 C   0  0  0  0  0  2  0  0  0  0  0  0
  185.7080  177.2290  142.4400 N   0  0  0  0  0  0  0  0  0  0  0  0
  186.1070  179.3240  143.1020 N   0  0  0  0  0  2  0  0  0  0  0  0
  185.7550  178.0080  143.4550 C   0  0  0  0  0  0  0  0  0  0  0  0
  186.2750  179.4030  141.7110 N   0  0  0  0  0  0  0  0  0  0  0  0
  186.7400  178.4410  147.3830 C   0  0  2  0  0  3  0  0  0  0  0  0
  187.4560  177.6120  146.2960 C   0  0  2  0  0  0  0  0  0  0  0  0
  183.7930  179.4110  145.3680 N   0  0  0  0  0  2  0  0  0  0  0  0
  188.1580  178.4450  145.4190 O   0  0  0  0  0  1  0  0  0  0  0  0
  184.8810  178.7860  145.6830 C   0  0  0  0  0  0  0  0  0  0  0  0
  186.4220  176.7850  145.5260 C   0  0  0  0  0  2  0  0  0  0  0  0
  185.6440  179.2220  146.8160 N   0  0  0  0  0  2  0  0  0  0  0  0
  185.3380  177.6200  144.8440 C   0  0  2  0  0  3  0  0  0  0  0  0
  188.4300  176.6370  146.9320 C   0  0  0  0  0  1  0  0  0  0  0  0
  187.6980  179.3630  148.1270 C   0  0  0  0  0  2  0  0  0  0  0  0
  188.5090  178.6300  148.9970 O   0  0  0  0  0  1  0  0  0  0  0  0
  189.1490  173.7680  136.7690 S   0  0  0  0  0  0  0  0  0  0  0  0
  186.5120  174.5410  137.0090 C   0  0  0  0  0  3  0  0  0  0  0  0
  185.6760  176.7710  136.5230 C   0  0  0  0  0  0  0  0  0  0  0  0
  186.9770  177.1700  136.1860 C   0  0  0  0  0  3  0  0  0  0  0  0
  187.8060  174.9530  136.6970 C   0  0  0  0  0  0  0  0  0  0  0  0
  185.4380  175.4410  136.9300 C   0  0  0  0  0  0  0  0  0  0  0  0
  188.0390  176.2650  136.2760 C   0  0  0  0  0  3  0  0  0  0  0  0
  184.1030  178.2560  137.6320 N   0  0  0  0  0  1  0  0  0  0  0  0
  184.5400  177.7310  136.3440 C   0  0  0  0  0  2  0  0  0  0  0  0
  184.0560  174.9420  137.2270 C   0  0  0  0  0  2  0  0  0  0  0  0
  183.5800  174.0230  136.1220 C   0  0  0  0  0  2  0  0  0  0  0  0
  182.0680  174.0610  136.0460 C   0  0  0  0  0  2  0  0  0  0  0  0
  181.5970  175.2580  136.6080 O   0  0  0  0  0  0  0  0  0  0  0  0
  178.9310  173.0840  138.1930 C   0  0  0  0  0  1  0  0  0  0  0  0
  180.0960  173.5270  137.3680 C   0  0  0  0  0  0  0  0  0  0  0  0
  180.7310  172.6690  136.6970 O   0  0  0  0  0  0  0  0  0  0  0  0
  180.4920  174.9100  137.3170 N   0  0  0  0  0  0  0  0  0  0  0  0
  179.6310  175.9370  137.9180 C   0  0  0  0  0  2  0  0  0  0  0  0
  180.0820  178.2070  138.9270 C   0  0  0  0  0  1  0  0  0  0  0  0
  180.0970  177.3740  137.6500 C   0  0  2  0  0  3  0  0  0  0  0  0
  181.0480  179.1880  135.1110 C   0  0  0  0  0  2  0  0  0  0  0  0
  180.1260  177.9770  135.2120 C   0  0  0  0  0  2  0  0  0  0  0  0
  180.7570  180.1400  136.2610 C   0  0  0  0  0  2  0  0  0  0  0  0
  179.3310  178.0490  136.5060 C   0  0  2  0  0  3  0  0  0  0  0  0
  179.0760  179.8170  136.8480 S   0  0  0  0  0  0  0  0  0  0  0  0
  1  5  1  0  0  0  0
  1  2  2  0  0  0  0
  2 14  1  0  0  0  0
  3  1  1  0  0  0  0
  4  5  2  0  0  0  0
  6  8  2  0  0  0  0
  8  7  1  0  0  0  0
  8  4  1  0  0  0  0
  9  7  1  0  0  0  0
  9 10  1  0  0  0  0
 11 10  1  0  0  0  0
 11 13  1  0  0  0  0
 13 12  1  0  0  0  0
 14 15  1  0  0  0  0
 15 16  1  0  0  0  0
 16 18  1  0  0  0  0
 18 19  1  0  0  0  0
 18 17  1  1  0  0  0
 19 20  1  0  0  0  0
 20 21  1  1  0  0  0
 22 23  2  0  0  0  0
 23 20  1  0  0  0  0
 24 29  1  0  0  0  0
 24 22  1  0  0  0  0
 25 29  1  0  0  0  0
 25 26  1  0  0  0  0
 26 28  2  0  0  0  0
 27 28  1  0  0  0  0
 29 27  1  0  0  0  0
 30 39  1  6  0  0  0
 31 38  1  1  0  0  0
 31 30  1  0  0  0  0
 32 34  2  0  0  0  0
 33 31  1  0  0  0  0
 34 36  1  0  0  0  0
 35 31  1  0  0  0  0
 36 30  1  0  0  0  0
 37 28  1  6  0  0  0
 37 35  1  0  0  0  0
 37 34  1  0  0  0  0
 39 40  1  0  0  0  0
 41  2  1  0  0  0  0
 43 46  2  0  0  0  0
 44 47  2  0  0  0  0
 44 43  1  0  0  0  0
 45 41  1  0  0  0  0
 45 42  2  0  0  0  0
 46 42  1  0  0  0  0
 46 50  1  0  0  0  0
 47 45  1  0  0  0  0
 49 43  1  0  0  0  0
 49 48  1  0  0  0  0
 51 50  1  0  0  0  0
 52 51  1  0  0  0  0
 52 53  1  0  0  0  0
 53 57  1  0  0  0  0
 55 54  1  0  0  0  0
 56 55  2  0  0  0  0
 57 55  1  0  0  0  0
 57 58  1  0  0  0  0
 60 58  1  0  0  0  0
 60 59  1  1  0  0  0
 61 62  1  0  0  0  0
 61 63  1  0  0  0  0
 62 64  1  0  0  0  0
 63 65  1  0  0  0  0
 64 65  1  0  0  0  0
 64 60  1  1  0  0  0
M  END
>  <MODEL>
9

>  <REMARK>
 VINA RESULT:      -1.8      2.806      8.520
  Name = 
  28 active torsions:
  status: ('A' for Active; 'I' for Inactive)
    1  A    between atoms: C_3  and  CA_18
    2  A    between atoms: N_6  and  C_13
    3  A    between atoms: C_7  and  N_57
    4  A    between atoms: C_7  and  C_65
    5  A    between atoms: C_10  and  C_46
    6  A    between atoms: C_13  and  N_53
    7  A    between atoms: C_14  and  C_56
    8  A    between atoms: C_15  and  C_19
    9  A    between atoms: C_20  and  S_23
   10  A    between atoms: C_21  and  C_33
   11  A    between atoms: C_21  and  C_52
   12  A    between atoms: S_23  and  C_61
   13  A    between atoms: O_24  and  C_47
   14  A    between atoms: O_24  and  C_61
   15  A    between atoms: N_27  and  C_33
   16  A    between atoms: C_30  and  C_32
   17  A    between atoms: C_30  and  C_35
   18  A    between atoms: C_32  and  C_40
   19  A    between atoms: C_34  and  C_37
   20  A    between atoms: C_34  and  C_42
   21  A    between atoms: C_35  and  C_47
   22  A    between atoms: C_37  and  C_51
   23  A    between atoms: C_38  and  C_58
   24  A    between atoms: C_40  and  N_49
   25  A    between atoms: O_48  and  C_52
   26  A    between atoms: C_50  and  C_65
   27  A    between atoms: C_51  and  O_60
   28  A    between atoms: N_57  and  O_60
                            x       y       z     vdW  Elec       q    Type
                         _______ _______ _______ _____ _____    ______ ____

>  <TORSDO>
F 28

$$$$
