=
 OpenBabel11042412053D

 30 31  0  0  1  0  0  0  0  0999 V2000
  190.6820  177.1190  141.9000 C   0  0  0  0  0  0  0  0  0  0  0  0
  191.6840  176.6200  142.5740 N   0  0  0  0  0  0  0  0  0  0  0  0
  189.3130  177.2370  142.4480 C   0  0  0  0  0  0  0  0  0  0  0  0
  188.5800  176.1510  143.1710 C   0  0  0  0  0  2  0  0  0  0  0  0
  187.2390  177.9820  142.8260 C   0  0  0  0  0  0  0  0  0  0  0  0
  188.5250  178.2780  142.2240 C   0  0  0  0  0  3  0  0  0  0  0  0
  187.2450  176.7780  143.3840 C   0  0  0  0  0  3  0  0  0  0  0  0
  186.0900  178.9480  142.8450 C   0  0  2  0  0  3  0  0  0  0  0  0
  183.4310  178.9240  140.5900 N   0  0  0  0  0  2  0  0  0  0  0  0
  184.5040  178.9080  141.5330 C   0  0  0  0  0  0  0  0  0  0  0  0
  184.6420  178.1680  143.2000 S   0  0  0  0  0  0  0  0  0  0  0  0
  182.4050  179.5120  138.4290 N   0  0  0  0  0  1  0  0  0  0  0  0
  183.5200  179.5540  139.3110 C   0  0  0  0  0  0  0  0  0  0  0  0
  184.5740  180.1470  138.9560 O   0  0  0  0  0  0  0  0  0  0  0  0
  185.7570  179.3930  141.5130 N   0  0  0  0  0  0  0  0  0  0  0  0
  190.8980  177.4870  140.4640 C   0  0  1  0  0  3  0  0  0  0  0  0
  192.2630  177.6090  140.1930 O   0  0  0  0  0  1  0  0  0  0  0  0
  190.2700  176.4420  139.5510 C   0  0  0  0  0  2  0  0  0  0  0  0
  190.4020  177.0440  137.1200 C   0  0  0  0  0  1  0  0  0  0  0  0
  189.5510  177.0980  138.3790 C   0  0  2  0  0  3  0  0  0  0  0  0
  187.7930  178.6900  138.7890 O   0  0  0  0  0  1  0  0  0  0  0  0
  189.1790  178.5370  138.7130 C   0  0  0  0  0  2  0  0  0  0  0  0
  191.8570  175.1110  144.3650 O   0  0  0  0  0  0  0  0  0  0  0  0
  191.7330  176.3000  143.9710 C   0  0  0  0  0  0  0  0  0  0  0  0
  191.5000  177.3790  144.9740 C   0  0  0  0  0  2  0  0  0  0  0  0
  190.6150  176.8740  146.1040 C   0  0  2  0  0  3  0  0  0  0  0  0
  189.6190  177.8100  146.3920 O   0  0  0  0  0  1  0  0  0  0  0  0
  191.4320  176.6140  147.3250 C   0  0  0  0  0  0  0  0  0  0  0  0
  191.9300  175.3390  147.5600 O   0  0  0  0  0  0  0  0  0  0  0  0
  191.6730  177.5400  148.1440 O   0  0  0  0  0  1  0  0  0  0  0  0
  1  3  1  0  0  0  0
  1  2  2  0  0  0  0
  2 24  1  0  0  0  0
  3  4  1  0  0  0  0
  4  7  1  0  0  0  0
  5  7  2  0  0  0  0
  6  3  2  0  0  0  0
  6  5  1  0  0  0  0
  8  5  1  6  0  0  0
  8 11  1  0  0  0  0
  9 10  1  0  0  0  0
 10 11  1  0  0  0  0
 12 13  1  0  0  0  0
 13  9  1  0  0  0  0
 14 13  2  0  0  0  0
 15 10  2  0  0  0  0
 15  8  1  0  0  0  0
 16 17  1  6  0  0  0
 16  1  1  0  0  0  0
 18 16  1  0  0  0  0
 20 19  1  6  0  0  0
 20 22  1  0  0  0  0
 20 18  1  0  0  0  0
 22 21  1  0  0  0  0
 24 23  2  0  0  0  0
 24 25  1  0  0  0  0
 25 26  1  0  0  0  0
 26 27  1  1  0  0  0
 26 28  1  0  0  0  0
 28 29  2  0  0  0  0
 28 30  1  0  0  0  0
M  END
>  <MODEL>
1

>  <REMARK>
 VINA RESULT:      -7.4      0.000      0.000
  Name = 
  10 active torsions:
  status: ('A' for Active; 'I' for Inactive)
    1  A    between atoms: C_2  and  C_25
    2  A    between atoms: C_3  and  C_7
    3  A    between atoms: C_3  and  C_11
    4  A    between atoms: C_4  and  C_8
    5  A    between atoms: C_6  and  C_7
    6  A    between atoms: C_8  and  C_27
    7  A    between atoms: C_11  and  C_30
    8  A    between atoms: N_13  and  C_22
    9  A    between atoms: C_22  and  C_27
   10  A    between atoms: C_24  and  C_30
                            x       y       z     vdW  Elec       q    Type
                         _______ _______ _______ _____ _____    ______ ____

>  <TORSDO>
F 10

$$$$
=
 OpenBabel11042412053D

 30 31  0  0  1  0  0  0  0  0999 V2000
  190.7150  177.2670  142.4170 C   0  0  0  0  0  0  0  0  0  0  0  0
  191.1630  177.2150  141.1920 N   0  0  0  0  0  0  0  0  0  0  0  0
  189.2750  177.3190  142.7530 C   0  0  0  0  0  0  0  0  0  0  0  0
  188.4430  176.1420  143.1550 C   0  0  0  0  0  2  0  0  0  0  0  0
  187.1610  178.0320  142.9170 C   0  0  0  0  0  0  0  0  0  0  0  0
  188.5250  178.3990  142.5860 C   0  0  0  0  0  3  0  0  0  0  0  0
  187.0870  176.7510  143.2560 C   0  0  0  0  0  3  0  0  0  0  0  0
  186.0170  179.0030  142.9170 C   0  0  2  0  0  3  0  0  0  0  0  0
  183.3900  178.9850  140.6270 N   0  0  0  0  0  2  0  0  0  0  0  0
  184.4490  178.9670  141.5840 C   0  0  0  0  0  0  0  0  0  0  0  0
  184.5620  178.2330  143.2550 S   0  0  0  0  0  0  0  0  0  0  0  0
  182.3960  179.5690  138.4490 N   0  0  0  0  0  1  0  0  0  0  0  0
  183.4990  179.6090  139.3470 C   0  0  0  0  0  0  0  0  0  0  0  0
  184.5600  180.1950  139.0030 O   0  0  0  0  0  0  0  0  0  0  0  0
  185.7050  179.4450  141.5790 N   0  0  0  0  0  0  0  0  0  0  0  0
  191.7030  177.3920  143.5370 C   0  0  1  0  0  3  0  0  0  0  0  0
  191.6160  178.6560  144.1230 O   0  0  0  0  0  1  0  0  0  0  0  0
  191.4580  176.3090  144.5790 C   0  0  0  0  0  2  0  0  0  0  0  0
  192.0880  176.1850  147.0040 C   0  0  0  0  0  1  0  0  0  0  0  0
  191.2540  176.9130  145.9620 C   0  0  2  0  0  3  0  0  0  0  0  0
  189.1980  178.1490  146.1720 O   0  0  0  0  0  1  0  0  0  0  0  0
  189.7790  176.8910  146.3450 C   0  0  0  0  0  2  0  0  0  0  0  0
  190.4710  175.8910  139.3800 O   0  0  0  0  0  0  0  0  0  0  0  0
  190.4160  176.9920  139.9880 C   0  0  0  0  0  0  0  0  0  0  0  0
  189.6650  178.1260  139.3770 C   0  0  0  0  0  2  0  0  0  0  0  0
  189.1960  177.7620  137.9760 C   0  0  2  0  0  3  0  0  0  0  0  0
  189.3820  178.8410  137.1090 O   0  0  0  0  0  1  0  0  0  0  0  0
  187.7570  177.3710  137.9970 C   0  0  0  0  0  0  0  0  0  0  0  0
  186.8360  178.1770  138.6550 O   0  0  0  0  0  1  0  0  0  0  0  0
  187.3700  176.3180  137.4250 O   0  0  0  0  0  0  0  0  0  0  0  0
  1  3  1  0  0  0  0
  1 16  1  0  0  0  0
  2  1  2  0  0  0  0
  3  4  1  0  0  0  0
  4  7  1  0  0  0  0
  5  7  2  0  0  0  0
  6  3  2  0  0  0  0
  6  5  1  0  0  0  0
  8  5  1  6  0  0  0
  8 11  1  0  0  0  0
  9 10  1  0  0  0  0
 10 11  1  0  0  0  0
 12 13  1  0  0  0  0
 13  9  1  0  0  0  0
 14 13  2  0  0  0  0
 15 10  2  0  0  0  0
 15  8  1  0  0  0  0
 16 17  1  1  0  0  0
 16 18  1  0  0  0  0
 18 20  1  0  0  0  0
 20 22  1  0  0  0  0
 20 19  1  1  0  0  0
 21 22  1  0  0  0  0
 23 24  2  0  0  0  0
 24  2  1  0  0  0  0
 25 24  1  0  0  0  0
 26 27  1  6  0  0  0
 26 28  1  0  0  0  0
 26 25  1  0  0  0  0
 28 29  1  0  0  0  0
 30 28  2  0  0  0  0
M  END
>  <MODEL>
2

>  <REMARK>
 VINA RESULT:      -7.3      1.417      5.547
  Name = 
  10 active torsions:
  status: ('A' for Active; 'I' for Inactive)
    1  A    between atoms: C_2  and  C_25
    2  A    between atoms: C_3  and  C_7
    3  A    between atoms: C_3  and  C_11
    4  A    between atoms: C_4  and  C_8
    5  A    between atoms: C_6  and  C_7
    6  A    between atoms: C_8  and  C_27
    7  A    between atoms: C_11  and  C_30
    8  A    between atoms: N_13  and  C_22
    9  A    between atoms: C_22  and  C_27
   10  A    between atoms: C_24  and  C_30
                            x       y       z     vdW  Elec       q    Type
                         _______ _______ _______ _____ _____    ______ ____

>  <TORSDO>
F 10

$$$$
=
 OpenBabel11042412053D

 30 31  0  0  1  0  0  0  0  0999 V2000
  186.6860  178.6490  140.9890 C   0  0  0  0  0  0  0  0  0  0  0  0
  186.9370  178.6230  139.7070 N   0  0  0  0  0  0  0  0  0  0  0  0
  187.5860  178.0610  142.0040 C   0  0  0  0  0  0  0  0  0  0  0  0
  187.1480  177.1970  143.1450 C   0  0  0  0  0  2  0  0  0  0  0  0
  189.3880  177.6800  143.2730 C   0  0  0  0  0  0  0  0  0  0  0  0
  188.8730  178.3630  142.1010 C   0  0  0  0  0  3  0  0  0  0  0  0
  188.4270  176.9980  143.8820 C   0  0  0  0  0  3  0  0  0  0  0  0
  190.8310  177.7170  143.6870 C   0  0  2  0  0  3  0  0  0  0  0  0
  192.2380  175.7300  146.1820 N   0  0  0  0  0  2  0  0  0  0  0  0
  191.6650  176.5170  145.1370 C   0  0  0  0  0  0  0  0  0  0  0  0
  191.6080  176.2700  143.3260 S   0  0  0  0  0  0  0  0  0  0  0  0
  192.7550  175.2380  148.5400 N   0  0  0  0  0  1  0  0  0  0  0  0
  192.1660  176.0880  147.5630 C   0  0  0  0  0  0  0  0  0  0  0  0
  191.5870  177.1470  147.9260 O   0  0  0  0  0  0  0  0  0  0  0  0
  190.9640  177.6640  145.1230 N   0  0  0  0  0  0  0  0  0  0  0  0
  185.3710  179.2000  141.4500 C   0  0  1  0  0  3  0  0  0  0  0  0
  184.7000  179.8110  140.3880 O   0  0  0  0  0  1  0  0  0  0  0  0
  184.5150  178.0920  142.0480 C   0  0  0  0  0  2  0  0  0  0  0  0
  182.3490  178.9530  142.9740 C   0  0  0  0  0  1  0  0  0  0  0  0
  183.7860  178.5740  143.2960 C   0  0  2  0  0  3  0  0  0  0  0  0
  185.1510  179.3650  145.1140 O   0  0  0  0  0  1  0  0  0  0  0  0
  184.5210  179.7490  143.9280 C   0  0  0  0  0  2  0  0  0  0  0  0
  189.0650  179.0840  138.8270 O   0  0  0  0  0  0  0  0  0  0  0  0
  188.1560  178.2420  139.0560 C   0  0  0  0  0  0  0  0  0  0  0  0
  188.2950  176.8570  138.5220 C   0  0  0  0  0  2  0  0  0  0  0  0
  189.6170  176.6980  137.7860 C   0  0  2  0  0  3  0  0  0  0  0  0
  189.4060  176.1220  136.5320 O   0  0  0  0  0  1  0  0  0  0  0  0
  190.5540  175.8520  138.5810 C   0  0  0  0  0  0  0  0  0  0  0  0
  191.0600  174.6830  138.0270 O   0  0  0  0  0  0  0  0  0  0  0  0
  190.8880  176.1870  139.7480 O   0  0  0  0  0  1  0  0  0  0  0  0
  1 16  1  0  0  0  0
  1  3  1  0  0  0  0
  2  1  2  0  0  0  0
  3  6  2  0  0  0  0
  3  4  1  0  0  0  0
  4  7  1  0  0  0  0
  5  7  2  0  0  0  0
  6  5  1  0  0  0  0
  8  5  1  1  0  0  0
  8 15  1  0  0  0  0
  9 13  1  0  0  0  0
 10  9  1  0  0  0  0
 11  8  1  0  0  0  0
 11 10  1  0  0  0  0
 13 14  2  0  0  0  0
 13 12  1  0  0  0  0
 15 10  2  0  0  0  0
 16 17  1  6  0  0  0
 16 18  1  0  0  0  0
 18 20  1  0  0  0  0
 20 19  1  6  0  0  0
 20 22  1  0  0  0  0
 22 21  1  0  0  0  0
 23 24  2  0  0  0  0
 24  2  1  0  0  0  0
 25 24  1  0  0  0  0
 26 27  1  6  0  0  0
 26 25  1  0  0  0  0
 26 28  1  0  0  0  0
 28 30  1  0  0  0  0
 29 28  2  0  0  0  0
M  END
>  <MODEL>
3

>  <REMARK>
 VINA RESULT:      -7.3      2.658      7.867
  Name = 
  10 active torsions:
  status: ('A' for Active; 'I' for Inactive)
    1  A    between atoms: C_2  and  C_25
    2  A    between atoms: C_3  and  C_7
    3  A    between atoms: C_3  and  C_11
    4  A    between atoms: C_4  and  C_8
    5  A    between atoms: C_6  and  C_7
    6  A    between atoms: C_8  and  C_27
    7  A    between atoms: C_11  and  C_30
    8  A    between atoms: N_13  and  C_22
    9  A    between atoms: C_22  and  C_27
   10  A    between atoms: C_24  and  C_30
                            x       y       z     vdW  Elec       q    Type
                         _______ _______ _______ _____ _____    ______ ____

>  <TORSDO>
F 10

$$$$
=
 OpenBabel11042412053D

 30 31  0  0  1  0  0  0  0  0999 V2000
  186.8630  177.9130  145.2940 C   0  0  0  0  0  0  0  0  0  0  0  0
  187.4410  177.9680  146.4640 N   0  0  0  0  0  0  0  0  0  0  0  0
  187.5440  177.4260  144.0750 C   0  0  0  0  0  0  0  0  0  0  0  0
  187.8820  175.9950  143.7920 C   0  0  0  0  0  2  0  0  0  0  0  0
  188.7400  177.3920  142.1850 C   0  0  0  0  0  0  0  0  0  0  0  0
  188.0700  178.2300  143.1620 C   0  0  0  0  0  3  0  0  0  0  0  0
  188.6390  176.1110  142.5140 C   0  0  0  0  0  3  0  0  0  0  0  0
  189.4050  177.9280  140.9510 C   0  0  2  0  0  3  0  0  0  0  0  0
  189.3800  176.3620  137.8360 N   0  0  0  0  0  2  0  0  0  0  0  0
  189.3580  177.0170  139.1050 C   0  0  0  0  0  0  0  0  0  0  0  0
  188.2750  178.3300  139.7730 S   0  0  0  0  0  0  0  0  0  0  0  0
  190.2540  174.7240  136.2160 N   0  0  0  0  0  1  0  0  0  0  0  0
  190.3120  175.3320  137.5010 C   0  0  0  0  0  0  0  0  0  0  0  0
  191.1820  174.9540  138.3300 O   0  0  0  0  0  0  0  0  0  0  0  0
  190.0860  176.8810  140.2270 N   0  0  0  0  0  0  0  0  0  0  0  0
  185.4800  178.4720  145.1510 C   0  0  1  0  0  3  0  0  0  0  0  0
  185.2550  179.4640  146.1090 O   0  0  0  0  0  1  0  0  0  0  0  0
  185.2820  179.0360  143.7510 C   0  0  0  0  0  2  0  0  0  0  0  0
  184.2970  178.3980  141.5340 C   0  0  0  0  0  1  0  0  0  0  0  0
  184.1180  178.3550  143.0430 C   0  0  2  0  0  3  0  0  0  0  0  0
  181.8780  178.9500  142.3920 O   0  0  0  0  0  1  0  0  0  0  0  0
  182.7960  178.9960  143.4440 C   0  0  0  0  0  2  0  0  0  0  0  0
  188.7800  176.5500  147.7720 O   0  0  0  0  0  0  0  0  0  0  0  0
  188.7020  177.4060  146.8520 C   0  0  0  0  0  0  0  0  0  0  0  0
  189.9550  177.9420  146.2460 C   0  0  0  0  0  2  0  0  0  0  0  0
  190.9480  176.8180  145.9940 C   0  0  2  0  0  3  0  0  0  0  0  0
  191.9830  176.8700  146.9300 O   0  0  0  0  0  1  0  0  0  0  0  0
  191.5080  176.9220  144.6150 C   0  0  0  0  0  0  0  0  0  0  0  0
  191.8190  175.7650  143.9110 O   0  0  0  0  0  0  0  0  0  0  0  0
  191.7010  178.0470  144.0840 O   0  0  0  0  0  1  0  0  0  0  0  0
  1  2  2  0  0  0  0
  2 24  1  0  0  0  0
  3  1  1  0  0  0  0
  4  3  1  0  0  0  0
  5  7  2  0  0  0  0
  5  6  1  0  0  0  0
  6  3  2  0  0  0  0
  7  4  1  0  0  0  0
  8  5  1  1  0  0  0
  9 10  1  0  0  0  0
 10 11  1  0  0  0  0
 10 15  2  0  0  0  0
 11  8  1  0  0  0  0
 12 13  1  0  0  0  0
 13  9  1  0  0  0  0
 13 14  2  0  0  0  0
 15  8  1  0  0  0  0
 16  1  1  0  0  0  0
 16 17  1  1  0  0  0
 18 16  1  0  0  0  0
 20 19  1  6  0  0  0
 20 22  1  0  0  0  0
 20 18  1  0  0  0  0
 21 22  1  0  0  0  0
 24 23  2  0  0  0  0
 25 24  1  0  0  0  0
 26 25  1  0  0  0  0
 26 27  1  1  0  0  0
 28 26  1  0  0  0  0
 29 28  2  0  0  0  0
 30 28  1  0  0  0  0
M  END
>  <MODEL>
4

>  <REMARK>
 VINA RESULT:      -7.2      2.965      5.645
  Name = 
  10 active torsions:
  status: ('A' for Active; 'I' for Inactive)
    1  A    between atoms: C_2  and  C_25
    2  A    between atoms: C_3  and  C_7
    3  A    between atoms: C_3  and  C_11
    4  A    between atoms: C_4  and  C_8
    5  A    between atoms: C_6  and  C_7
    6  A    between atoms: C_8  and  C_27
    7  A    between atoms: C_11  and  C_30
    8  A    between atoms: N_13  and  C_22
    9  A    between atoms: C_22  and  C_27
   10  A    between atoms: C_24  and  C_30
                            x       y       z     vdW  Elec       q    Type
                         _______ _______ _______ _____ _____    ______ ____

>  <TORSDO>
F 10

$$$$
=
 OpenBabel11042412053D

 30 31  0  0  1  0  0  0  0  0999 V2000
  190.0810  177.4060  141.3920 C   0  0  0  0  0  0  0  0  0  0  0  0
  191.2050  177.3950  142.0570 N   0  0  0  0  0  0  0  0  0  0  0  0
  188.7590  177.5750  142.0350 C   0  0  0  0  0  0  0  0  0  0  0  0
  188.1400  176.6080  142.9950 C   0  0  0  0  0  2  0  0  0  0  0  0
  186.6920  178.3100  142.4680 C   0  0  0  0  0  0  0  0  0  0  0  0
  187.9070  178.5380  141.7100 C   0  0  0  0  0  3  0  0  0  0  0  0
  186.8010  177.2220  143.2190 C   0  0  0  0  0  3  0  0  0  0  0  0
  185.5050  179.2290  142.4280 C   0  0  2  0  0  3  0  0  0  0  0  0
  182.5280  178.5630  140.7410 N   0  0  0  0  0  2  0  0  0  0  0  0
  183.7360  178.8160  141.4600 C   0  0  0  0  0  0  0  0  0  0  0  0
  184.1820  178.5520  143.2130 S   0  0  0  0  0  0  0  0  0  0  0  0
  181.1380  178.5350  138.7070 N   0  0  0  0  0  1  0  0  0  0  0  0
  182.3750  178.8290  139.3460 C   0  0  0  0  0  0  0  0  0  0  0  0
  183.3220  179.3190  138.6740 O   0  0  0  0  0  0  0  0  0  0  0  0
  184.9400  179.2960  141.1020 N   0  0  0  0  0  0  0  0  0  0  0  0
  190.1160  177.1220  139.9210 C   0  0  1  0  0  3  0  0  0  0  0  0
  189.6470  178.2240  139.2020 O   0  0  0  0  0  1  0  0  0  0  0  0
  191.5320  176.7710  139.4850 C   0  0  0  0  0  2  0  0  0  0  0  0
  190.8600  175.2070  137.6430 C   0  0  0  0  0  1  0  0  0  0  0  0
  191.5930  176.4930  137.9890 C   0  0  2  0  0  3  0  0  0  0  0  0
  193.9120  176.2500  138.5890 O   0  0  0  0  0  1  0  0  0  0  0  0
  193.0390  176.4290  137.5130 C   0  0  0  0  0  2  0  0  0  0  0  0
  191.7320  178.9110  143.7720 O   0  0  0  0  0  0  0  0  0  0  0  0
  191.4180  177.7390  143.4320 C   0  0  0  0  0  0  0  0  0  0  0  0
  191.3980  176.6630  144.4640 C   0  0  0  0  0  2  0  0  0  0  0  0
  191.3300  177.2620  145.8600 C   0  0  2  0  0  3  0  0  0  0  0  0
  192.1320  176.5310  146.7390 O   0  0  0  0  0  1  0  0  0  0  0  0
  189.9210  177.2740  146.3510 C   0  0  0  0  0  0  0  0  0  0  0  0
  189.5260  176.3650  147.3240 O   0  0  0  0  0  1  0  0  0  0  0  0
  189.0890  178.0990  145.8900 O   0  0  0  0  0  0  0  0  0  0  0  0
  1  3  1  0  0  0  0
  1  2  2  0  0  0  0
  2 24  1  0  0  0  0
  3  4  1  0  0  0  0
  4  7  1  0  0  0  0
  5  7  2  0  0  0  0
  6  3  2  0  0  0  0
  6  5  1  0  0  0  0
  8  5  1  6  0  0  0
  8 11  1  0  0  0  0
  9 10  1  0  0  0  0
 10 11  1  0  0  0  0
 12 13  1  0  0  0  0
 13  9  1  0  0  0  0
 14 13  2  0  0  0  0
 15 10  2  0  0  0  0
 15  8  1  0  0  0  0
 16 17  1  6  0  0  0
 16  1  1  0  0  0  0
 18 16  1  0  0  0  0
 20 19  1  1  0  0  0
 20 18  1  0  0  0  0
 22 20  1  0  0  0  0
 22 21  1  0  0  0  0
 24 23  2  0  0  0  0
 24 25  1  0  0  0  0
 25 26  1  0  0  0  0
 26 28  1  0  0  0  0
 26 27  1  1  0  0  0
 28 29  1  0  0  0  0
 30 28  2  0  0  0  0
M  END
>  <MODEL>
5

>  <REMARK>
 VINA RESULT:      -7.0      1.465      2.220
  Name = 
  10 active torsions:
  status: ('A' for Active; 'I' for Inactive)
    1  A    between atoms: C_2  and  C_25
    2  A    between atoms: C_3  and  C_7
    3  A    between atoms: C_3  and  C_11
    4  A    between atoms: C_4  and  C_8
    5  A    between atoms: C_6  and  C_7
    6  A    between atoms: C_8  and  C_27
    7  A    between atoms: C_11  and  C_30
    8  A    between atoms: N_13  and  C_22
    9  A    between atoms: C_22  and  C_27
   10  A    between atoms: C_24  and  C_30
                            x       y       z     vdW  Elec       q    Type
                         _______ _______ _______ _____ _____    ______ ____

>  <TORSDO>
F 10

$$$$
=
 OpenBabel11042412053D

 30 31  0  0  1  0  0  0  0  0999 V2000
  185.5750  178.8860  141.3620 C   0  0  0  0  0  0  0  0  0  0  0  0
  186.6960  178.6520  140.7330 N   0  0  0  0  0  0  0  0  0  0  0  0
  185.4400  178.8190  142.8330 C   0  0  0  0  0  0  0  0  0  0  0  0
  184.7220  179.8250  143.6770 C   0  0  0  0  0  2  0  0  0  0  0  0
  185.7820  178.2520  144.9690 C   0  0  0  0  0  0  0  0  0  0  0  0
  186.0770  177.9320  143.5850 C   0  0  0  0  0  3  0  0  0  0  0  0
  185.0010  179.3210  145.0510 C   0  0  0  0  0  3  0  0  0  0  0  0
  186.2670  177.4330  146.1300 C   0  0  2  0  0  3  0  0  0  0  0  0
  189.4350  177.6900  147.5620 N   0  0  0  0  0  2  0  0  0  0  0  0
  188.1260  177.6130  146.9950 C   0  0  0  0  0  0  0  0  0  0  0  0
  186.5470  178.3950  147.4810 S   0  0  0  0  0  0  0  0  0  0  0  0
  191.8370  177.1470  147.6450 N   0  0  0  0  0  1  0  0  0  0  0  0
  190.5660  177.0050  147.0220 C   0  0  0  0  0  0  0  0  0  0  0  0
  190.4510  176.2760  146.0000 O   0  0  0  0  0  0  0  0  0  0  0  0
  187.6210  176.9800  145.9230 N   0  0  0  0  0  0  0  0  0  0  0  0
  184.3370  179.1240  140.5520 C   0  0  1  0  0  3  0  0  0  0  0  0
  184.6450  179.8340  139.3900 O   0  0  0  0  0  1  0  0  0  0  0  0
  183.6740  177.7990  140.2010 C   0  0  0  0  0  2  0  0  0  0  0  0
  181.4740  178.3540  139.1310 C   0  0  0  0  0  1  0  0  0  0  0  0
  182.1650  177.8710  140.3960 C   0  0  2  0  0  3  0  0  0  0  0  0
  180.7980  179.6660  141.2360 O   0  0  0  0  0  1  0  0  0  0  0  0
  181.8180  178.7730  141.5730 C   0  0  0  0  0  2  0  0  0  0  0  0
  188.6890  179.5070  141.6340 O   0  0  0  0  0  0  0  0  0  0  0  0
  188.0070  178.5040  141.2960 C   0  0  0  0  0  0  0  0  0  0  0  0
  188.6250  177.1480  141.3570 C   0  0  0  0  0  2  0  0  0  0  0  0
  190.1370  177.2440  141.2190 C   0  0  2  0  0  3  0  0  0  0  0  0
  190.5460  176.6870  140.0050 O   0  0  0  0  0  1  0  0  0  0  0  0
  190.8060  176.5390  142.3510 C   0  0  0  0  0  0  0  0  0  0  0  0
  190.3000  175.3260  142.8000 O   0  0  0  0  0  0  0  0  0  0  0  0
  191.8240  177.0350  142.9020 O   0  0  0  0  0  1  0  0  0  0  0  0
  1  3  1  0  0  0  0
  2 24  1  0  0  0  0
  2  1  2  0  0  0  0
  3  6  2  0  0  0  0
  3  4  1  0  0  0  0
  4  7  1  0  0  0  0
  5  7  2  0  0  0  0
  6  5  1  0  0  0  0
  8  5  1  6  0  0  0
  8 11  1  0  0  0  0
 10 11  1  0  0  0  0
 10  9  1  0  0  0  0
 13  9  1  0  0  0  0
 13 12  1  0  0  0  0
 14 13  2  0  0  0  0
 15  8  1  0  0  0  0
 15 10  2  0  0  0  0
 16 17  1  6  0  0  0
 16  1  1  0  0  0  0
 18 20  1  0  0  0  0
 18 16  1  0  0  0  0
 20 19  1  6  0  0  0
 20 22  1  0  0  0  0
 21 22  1  0  0  0  0
 24 25  1  0  0  0  0
 24 23  2  0  0  0  0
 26 27  1  6  0  0  0
 26 25  1  0  0  0  0
 26 28  1  0  0  0  0
 28 29  2  0  0  0  0
 28 30  1  0  0  0  0
M  END
>  <MODEL>
6

>  <REMARK>
 VINA RESULT:      -6.9      2.703      6.767
  Name = 
  10 active torsions:
  status: ('A' for Active; 'I' for Inactive)
    1  A    between atoms: C_2  and  C_25
    2  A    between atoms: C_3  and  C_7
    3  A    between atoms: C_3  and  C_11
    4  A    between atoms: C_4  and  C_8
    5  A    between atoms: C_6  and  C_7
    6  A    between atoms: C_8  and  C_27
    7  A    between atoms: C_11  and  C_30
    8  A    between atoms: N_13  and  C_22
    9  A    between atoms: C_22  and  C_27
   10  A    between atoms: C_24  and  C_30
                            x       y       z     vdW  Elec       q    Type
                         _______ _______ _______ _____ _____    ______ ____

>  <TORSDO>
F 10

$$$$
=
 OpenBabel11042412053D

 30 31  0  0  1  0  0  0  0  0999 V2000
  190.7210  177.3970  142.4410 C   0  0  0  0  0  0  0  0  0  0  0  0
  191.1900  177.4870  141.2250 N   0  0  0  0  0  0  0  0  0  0  0  0
  189.2770  177.4240  142.7590 C   0  0  0  0  0  0  0  0  0  0  0  0
  188.4630  176.2340  143.1620 C   0  0  0  0  0  2  0  0  0  0  0  0
  187.1480  178.0960  142.8910 C   0  0  0  0  0  0  0  0  0  0  0  0
  188.5080  178.4880  142.5720 C   0  0  0  0  0  3  0  0  0  0  0  0
  187.0950  176.8180  143.2410 C   0  0  0  0  0  3  0  0  0  0  0  0
  185.9850  179.0450  142.8670 C   0  0  2  0  0  3  0  0  0  0  0  0
  183.3690  178.9310  140.5660 N   0  0  0  0  0  2  0  0  0  0  0  0
  184.4240  178.9520  141.5280 C   0  0  0  0  0  0  0  0  0  0  0  0
  184.5430  178.2530  143.2130 S   0  0  0  0  0  0  0  0  0  0  0  0
  182.3740  179.4540  138.3740 N   0  0  0  0  0  1  0  0  0  0  0  0
  183.4720  179.5330  139.2750 C   0  0  0  0  0  0  0  0  0  0  0  0
  184.5230  180.1330  138.9240 O   0  0  0  0  0  0  0  0  0  0  0  0
  185.6710  179.4540  141.5200 N   0  0  0  0  0  0  0  0  0  0  0  0
  191.6920  177.3780  143.5830 C   0  0  1  0  0  3  0  0  0  0  0  0
  191.7490  178.6320  144.1950 O   0  0  0  0  0  1  0  0  0  0  0  0
  191.2930  176.3140  144.5960 C   0  0  0  0  0  2  0  0  0  0  0  0
  192.0510  176.0470  146.9720 C   0  0  0  0  0  1  0  0  0  0  0  0
  191.2360  176.8900  146.0050 C   0  0  2  0  0  3  0  0  0  0  0  0
  189.2200  178.2060  146.0530 O   0  0  0  0  0  1  0  0  0  0  0  0
  189.7930  177.0050  146.4800 C   0  0  0  0  0  2  0  0  0  0  0  0
  189.5810  178.2720  139.7040 O   0  0  0  0  0  0  0  0  0  0  0  0
  190.4600  177.4170  139.9930 C   0  0  0  0  0  0  0  0  0  0  0  0
  190.6500  176.2380  139.1000 C   0  0  0  0  0  2  0  0  0  0  0  0
  191.3010  176.6600  137.7910 C   0  0  2  0  0  3  0  0  0  0  0  0
  190.6340  176.0780  136.7110 O   0  0  0  0  0  1  0  0  0  0  0  0
  192.7380  176.2580  137.7750 C   0  0  0  0  0  0  0  0  0  0  0  0
  193.1760  175.3140  136.8560 O   0  0  0  0  0  0  0  0  0  0  0  0
  193.5550  176.7670  138.5860 O   0  0  0  0  0  1  0  0  0  0  0  0
  1  3  1  0  0  0  0
  1 16  1  0  0  0  0
  2  1  2  0  0  0  0
  3  4  1  0  0  0  0
  4  7  1  0  0  0  0
  5  7  2  0  0  0  0
  6  3  2  0  0  0  0
  6  5  1  0  0  0  0
  8  5  1  6  0  0  0
  8 11  1  0  0  0  0
  9 10  1  0  0  0  0
 10 11  1  0  0  0  0
 12 13  1  0  0  0  0
 13  9  1  0  0  0  0
 14 13  2  0  0  0  0
 15 10  2  0  0  0  0
 15  8  1  0  0  0  0
 16 17  1  1  0  0  0
 16 18  1  0  0  0  0
 18 20  1  0  0  0  0
 20 22  1  0  0  0  0
 20 19  1  1  0  0  0
 21 22  1  0  0  0  0
 23 24  2  0  0  0  0
 24  2  1  0  0  0  0
 25 24  1  0  0  0  0
 26 27  1  6  0  0  0
 26 25  1  0  0  0  0
 28 26  1  0  0  0  0
 28 30  1  0  0  0  0
 29 28  2  0  0  0  0
M  END
>  <MODEL>
7

>  <REMARK>
 VINA RESULT:      -6.8      1.531      5.483
  Name = 
  10 active torsions:
  status: ('A' for Active; 'I' for Inactive)
    1  A    between atoms: C_2  and  C_25
    2  A    between atoms: C_3  and  C_7
    3  A    between atoms: C_3  and  C_11
    4  A    between atoms: C_4  and  C_8
    5  A    between atoms: C_6  and  C_7
    6  A    between atoms: C_8  and  C_27
    7  A    between atoms: C_11  and  C_30
    8  A    between atoms: N_13  and  C_22
    9  A    between atoms: C_22  and  C_27
   10  A    between atoms: C_24  and  C_30
                            x       y       z     vdW  Elec       q    Type
                         _______ _______ _______ _____ _____    ______ ____

>  <TORSDO>
F 10

$$$$
=
 OpenBabel11042412053D

 30 31  0  0  1  0  0  0  0  0999 V2000
  186.5270  178.6380  140.6210 C   0  0  0  0  0  0  0  0  0  0  0  0
  186.8990  178.5150  139.3750 N   0  0  0  0  0  0  0  0  0  0  0  0
  187.3730  178.2360  141.7650 C   0  0  0  0  0  0  0  0  0  0  0  0
  186.8850  177.5240  142.9880 C   0  0  0  0  0  2  0  0  0  0  0  0
  189.0950  178.1130  143.1870 C   0  0  0  0  0  0  0  0  0  0  0  0
  188.6400  178.6020  141.9000 C   0  0  0  0  0  3  0  0  0  0  0  0
  188.1170  177.4840  143.8260 C   0  0  0  0  0  3  0  0  0  0  0  0
  190.5040  178.2680  143.6830 C   0  0  2  0  0  3  0  0  0  0  0  0
  192.0750  176.1090  145.9230 N   0  0  0  0  0  2  0  0  0  0  0  0
  191.4390  176.9710  144.9790 C   0  0  0  0  0  0  0  0  0  0  0  0
  191.4810  177.0070  143.1510 S   0  0  0  0  0  0  0  0  0  0  0  0
  192.5700  175.3230  148.2060 N   0  0  0  0  0  1  0  0  0  0  0  0
  191.9070  176.2330  147.3370 C   0  0  0  0  0  0  0  0  0  0  0  0
  191.1780  177.1390  147.8230 O   0  0  0  0  0  0  0  0  0  0  0  0
  190.5920  178.0070  145.0990 N   0  0  0  0  0  0  0  0  0  0  0  0
  185.1320  179.1040  140.9080 C   0  0  1  0  0  3  0  0  0  0  0  0
  184.6400  179.8550  139.8390 O   0  0  0  0  0  1  0  0  0  0  0  0
  184.2230  177.9120  141.1790 C   0  0  0  0  0  2  0  0  0  0  0  0
  181.7670  178.4240  141.1850 C   0  0  0  0  0  1  0  0  0  0  0  0
  182.9530  177.9880  140.3400 C   0  0  2  0  0  3  0  0  0  0  0  0
  182.3410  176.8210  138.3250 O   0  0  0  0  0  1  0  0  0  0  0  0
  182.6710  176.6480  139.6720 C   0  0  0  0  0  2  0  0  0  0  0  0
  188.9960  179.0900  138.4880 O   0  0  0  0  0  0  0  0  0  0  0  0
  188.2030  178.1910  138.8740 C   0  0  0  0  0  0  0  0  0  0  0  0
  188.5760  176.7600  138.6830 C   0  0  0  0  0  2  0  0  0  0  0  0
  189.6300  176.6240  137.5950 C   0  0  2  0  0  3  0  0  0  0  0  0
  189.0680  176.0630  136.4450 O   0  0  0  0  0  1  0  0  0  0  0  0
  190.7600  175.7750  138.0720 C   0  0  0  0  0  0  0  0  0  0  0  0
  191.8740  176.3730  138.6450 O   0  0  0  0  0  1  0  0  0  0  0  0
  190.7120  174.5220  137.9580 O   0  0  0  0  0  0  0  0  0  0  0  0
  1 16  1  0  0  0  0
  1  3  1  0  0  0  0
  2  1  2  0  0  0  0
  3  6  2  0  0  0  0
  3  4  1  0  0  0  0
  4  7  1  0  0  0  0
  5  7  2  0  0  0  0
  6  5  1  0  0  0  0
  8  5  1  6  0  0  0
  8 15  1  0  0  0  0
  9 13  1  0  0  0  0
 10 15  2  0  0  0  0
 10  9  1  0  0  0  0
 11  8  1  0  0  0  0
 11 10  1  0  0  0  0
 13 14  2  0  0  0  0
 13 12  1  0  0  0  0
 16 17  1  6  0  0  0
 16 18  1  0  0  0  0
 20 18  1  0  0  0  0
 20 19  1  1  0  0  0
 21 22  1  0  0  0  0
 22 20  1  0  0  0  0
 23 24  2  0  0  0  0
 24  2  1  0  0  0  0
 25 24  1  0  0  0  0
 26 27  1  6  0  0  0
 26 28  1  0  0  0  0
 26 25  1  0  0  0  0
 28 29  1  0  0  0  0
 30 28  2  0  0  0  0
M  END
>  <MODEL>
8

>  <REMARK>
 VINA RESULT:      -6.6      2.626      7.781
  Name = 
  10 active torsions:
  status: ('A' for Active; 'I' for Inactive)
    1  A    between atoms: C_2  and  C_25
    2  A    between atoms: C_3  and  C_7
    3  A    between atoms: C_3  and  C_11
    4  A    between atoms: C_4  and  C_8
    5  A    between atoms: C_6  and  C_7
    6  A    between atoms: C_8  and  C_27
    7  A    between atoms: C_11  and  C_30
    8  A    between atoms: N_13  and  C_22
    9  A    between atoms: C_22  and  C_27
   10  A    between atoms: C_24  and  C_30
                            x       y       z     vdW  Elec       q    Type
                         _______ _______ _______ _____ _____    ______ ____

>  <TORSDO>
F 10

$$$$
=
 OpenBabel11042412053D

 30 31  0  0  1  0  0  0  0  0999 V2000
  186.6010  178.6790  141.1060 C   0  0  0  0  0  0  0  0  0  0  0  0
  186.7740  178.6450  139.8120 N   0  0  0  0  0  0  0  0  0  0  0  0
  187.5300  178.0460  142.0670 C   0  0  0  0  0  0  0  0  0  0  0  0
  187.1360  177.0610  143.1230 C   0  0  0  0  0  2  0  0  0  0  0  0
  189.3510  177.6400  143.3010 C   0  0  0  0  0  0  0  0  0  0  0  0
  188.8010  178.4010  142.1950 C   0  0  0  0  0  3  0  0  0  0  0  0
  188.4250  176.8590  143.8430 C   0  0  0  0  0  3  0  0  0  0  0  0
  190.7900  177.7100  143.7210 C   0  0  2  0  0  3  0  0  0  0  0  0
  192.2190  175.7950  146.2590 N   0  0  0  0  0  2  0  0  0  0  0  0
  191.6380  176.5520  145.1970 C   0  0  0  0  0  0  0  0  0  0  0  0
  191.5940  176.2710  143.3900 S   0  0  0  0  0  0  0  0  0  0  0  0
  192.7330  175.3550  148.6280 N   0  0  0  0  0  1  0  0  0  0  0  0
  192.1340  176.1760  147.6330 C   0  0  0  0  0  0  0  0  0  0  0  0
  191.5350  177.2310  147.9740 O   0  0  0  0  0  0  0  0  0  0  0  0
  190.9180  177.6860  145.1590 N   0  0  0  0  0  0  0  0  0  0  0  0
  185.3440  179.2920  141.6450 C   0  0  1  0  0  3  0  0  0  0  0  0
  184.4380  179.5320  140.6090 O   0  0  0  0  0  1  0  0  0  0  0  0
  184.7190  178.3790  142.6910 C   0  0  0  0  0  2  0  0  0  0  0  0
  184.9490  179.0780  145.0890 C   0  0  0  0  0  1  0  0  0  0  0  0
  184.1060  179.1870  143.8290 C   0  0  2  0  0  3  0  0  0  0  0  0
  181.7750  179.4040  143.2690 O   0  0  0  0  0  1  0  0  0  0  0  0
  182.6770  178.7350  144.1000 C   0  0  0  0  0  2  0  0  0  0  0  0
  188.9390  178.9540  138.9560 O   0  0  0  0  0  0  0  0  0  0  0  0
  187.9330  178.2080  139.0900 C   0  0  0  0  0  0  0  0  0  0  0  0
  187.8950  176.9010  138.3730 C   0  0  0  0  0  2  0  0  0  0  0  0
  187.2190  177.0550  137.0190 C   0  0  2  0  0  3  0  0  0  0  0  0
  187.2270  178.3950  136.6240 O   0  0  0  0  0  1  0  0  0  0  0  0
  185.8150  176.5550  137.0810 C   0  0  0  0  0  0  0  0  0  0  0  0
  185.5760  175.1890  137.1660 O   0  0  0  0  0  1  0  0  0  0  0  0
  184.8460  177.3590  137.0550 O   0  0  0  0  0  0  0  0  0  0  0  0
  1 16  1  0  0  0  0
  1  3  1  0  0  0  0
  2  1  2  0  0  0  0
  3  6  2  0  0  0  0
  3  4  1  0  0  0  0
  4  7  1  0  0  0  0
  5  7  2  0  0  0  0
  6  5  1  0  0  0  0
  8  5  1  1  0  0  0
  8 15  1  0  0  0  0
  9 13  1  0  0  0  0
 10  9  1  0  0  0  0
 11  8  1  0  0  0  0
 11 10  1  0  0  0  0
 13 14  2  0  0  0  0
 13 12  1  0  0  0  0
 15 10  2  0  0  0  0
 16 17  1  6  0  0  0
 16 18  1  0  0  0  0
 18 20  1  0  0  0  0
 20 22  1  0  0  0  0
 20 19  1  1  0  0  0
 21 22  1  0  0  0  0
 23 24  2  0  0  0  0
 24  2  1  0  0  0  0
 25 24  1  0  0  0  0
 26 27  1  1  0  0  0
 26 28  1  0  0  0  0
 26 25  1  0  0  0  0
 28 29  1  0  0  0  0
 30 28  2  0  0  0  0
M  END
>  <MODEL>
9

>  <REMARK>
 VINA RESULT:      -6.6      2.877      8.434
  Name = 
  10 active torsions:
  status: ('A' for Active; 'I' for Inactive)
    1  A    between atoms: C_2  and  C_25
    2  A    between atoms: C_3  and  C_7
    3  A    between atoms: C_3  and  C_11
    4  A    between atoms: C_4  and  C_8
    5  A    between atoms: C_6  and  C_7
    6  A    between atoms: C_8  and  C_27
    7  A    between atoms: C_11  and  C_30
    8  A    between atoms: N_13  and  C_22
    9  A    between atoms: C_22  and  C_27
   10  A    between atoms: C_24  and  C_30
                            x       y       z     vdW  Elec       q    Type
                         _______ _______ _______ _____ _____    ______ ____

>  <TORSDO>
F 10

$$$$
