=
 OpenBabel11042410173D

 55 60  0  0  1  0  0  0  0  0999 V2000
  189.3870  177.0980  136.4410 C   0  0  2  0  0  3  0  0  0  0  0  0
  190.5530  177.1300  137.4830 C   0  0  1  0  0  3  0  0  0  0  0  0
  189.5410  177.9580  141.0940 C   0  0  0  0  0  3  0  0  0  0  0  0
  187.6540  178.0590  139.5590 C   0  0  0  0  0  3  0  0  0  0  0  0
  189.8520  177.4670  138.7600 C   0  0  0  0  0  0  0  0  0  0  0  0
  190.3950  177.6000  140.0380 C   0  0  0  0  0  3  0  0  0  0  0  0
  188.5220  177.6990  138.5310 C   0  0  0  0  0  0  0  0  0  0  0  0
  188.1900  177.5170  137.1720 N   0  0  0  0  0  0  0  0  0  0  0  0
  188.1720  178.1920  140.8610 C   0  0  0  0  0  0  0  0  0  0  0  0
  193.2830  174.4720  137.8450 N   0  0  0  0  0  2  0  0  0  0  0  0
  193.3920  176.7990  137.6870 O   0  0  0  0  0  0  0  0  0  0  0  0
  192.6760  175.7550  137.7030 C   0  0  0  0  0  0  0  0  0  0  0  0
  191.2560  175.8540  137.5900 N   0  0  0  0  0  2  0  0  0  0  0  0
  194.7280  174.2950  137.8990 C   0  0  1  0  0  3  0  0  0  0  0  0
  194.7110  171.6060  136.3600 O   0  0  0  0  0  1  0  0  0  0  0  0
  196.4920  174.8160  136.2260 C   0  0  0  0  0  1  0  0  0  0  0  0
  195.0520  172.8800  138.3680 C   0  0  0  0  0  2  0  0  0  0  0  0
  195.5540  172.5370  136.9770 C   0  0  2  0  0  0  0  0  0  0  0  0
  195.2540  173.9660  136.5070 C   0  0  1  0  0  3  0  0  0  0  0  0
  197.0130  172.0760  136.9890 C   0  0  0  0  0  2  0  0  0  0  0  0
  197.1820  170.9300  136.1350 N   0  0  0  0  0  0  0  0  0  0  0  0
  198.2620  170.2430  136.1940 C   0  0  0  0  0  2  0  0  0  0  0  0
  187.3330  178.5490  141.9650 N   0  0  0  0  0  2  0  0  0  0  0  0
  185.3910  177.9740  143.1850 O   0  0  0  0  0  1  0  0  0  0  0  0
  186.7160  177.6240  142.9210 C   0  0  2  0  0  3  0  0  0  0  0  0
  191.0160  176.7710  145.2010 C   0  0  0  0  0  0  0  0  0  0  0  0
  191.7300  176.7170  146.3560 N   0  0  0  0  0  0  0  0  0  0  0  0
  189.6520  177.0880  145.2510 C   0  0  0  0  0  0  0  0  0  0  0  0
  191.8350  176.4520  143.6780 Cl  0  0  0  0  0  0  0  0  0  0  0  0
  189.0630  177.3200  146.5100 C   0  0  0  0  0  0  0  0  0  0  0  0
  186.9320  177.7200  145.4430 C   0  0  0  0  0  3  0  0  0  0  0  0
  191.1480  176.9540  147.5620 C   0  0  0  0  0  3  0  0  0  0  0  0
  189.8250  177.2510  147.6350 N   0  0  0  0  0  0  0  0  0  0  0  0
  187.7050  177.6290  146.6030 C   0  0  0  0  0  3  0  0  0  0  0  0
  188.8710  177.1850  144.0940 C   0  0  0  0  0  3  0  0  0  0  0  0
  187.5140  177.5090  144.1840 C   0  0  0  0  0  0  0  0  0  0  0  0
  186.8860  177.7910  136.5780 C   0  0  0  0  0  2  0  0  0  0  0  0
  185.8440  176.8020  137.0960 C   0  0  0  0  0  2  0  0  0  0  0  0
  184.4920  177.4930  137.3390 C   0  0  2  0  0  3  0  0  0  0  0  0
  183.4920  179.0560  140.6340 O   0  0  0  0  0  0  0  0  0  0  0  0
  182.1190  178.7380  140.6020 C   0  0  1  0  0  3  0  0  0  0  0  0
  181.9100  177.3610  140.0050 C   0  0  0  0  0  0  0  0  0  0  0  0
  180.8530  176.7090  140.2170 O   0  0  0  0  0  0  0  0  0  0  0  0
  182.8770  176.8640  139.0690 N   0  0  0  0  0  2  0  0  0  0  0  0
  183.9590  179.0540  139.3020 C   0  0  0  0  0  2  0  0  0  0  0  0
  184.1100  177.6020  138.8220 C   0  0  2  0  0  3  0  0  0  0  0  0
  181.5620  178.8310  142.0210 C   0  0  0  0  0  2  0  0  0  0  0  0
  180.6610  179.9650  142.1370 N   0  0  0  0  0  1  0  0  0  0  0  0
  183.4460  176.9910  136.5360 O   0  0  0  0  0  0  0  0  0  0  0  0
  183.8460  175.8250  136.0610 O   0  0  0  0  0  1  0  0  0  0  0  0
  189.1570  175.7530  135.7290 C   0  0  0  0  0  2  0  0  0  0  0  0
  188.1420  173.5540  136.1190 C   0  0  0  0  0  3  0  0  0  0  0  0
  188.4750  174.7510  136.6080 C   0  0  0  0  0  3  0  0  0  0  0  0
  187.4680  172.5640  137.0020 C   0  0  0  0  0  2  0  0  0  0  0  0
  185.9930  172.5130  136.6610 C   0  0  0  0  0  1  0  0  0  0  0  0
  1 51  1  1  0  0  0
  1  8  1  0  0  0  0
  1  2  1  0  0  0  0
  2 13  1  1  0  0  0
  2  5  1  0  0  0  0
  4  9  2  0  0  0  0
  5  6  1  0  0  0  0
  6  3  2  0  0  0  0
  7  5  2  0  0  0  0
  7  4  1  0  0  0  0
  8  7  1  0  0  0  0
  9  3  1  0  0  0  0
  9 23  1  0  0  0  0
 11 12  2  0  0  0  0
 12 10  1  0  0  0  0
 13 12  1  0  0  0  0
 14 10  1  6  0  0  0
 14 17  1  0  0  0  0
 18 15  1  6  0  0  0
 18 20  1  0  0  0  0
 18 17  1  0  0  0  0
 19 16  1  1  0  0  0
 19 18  1  0  0  0  0
 19 14  1  0  0  0  0
 21 22  2  0  0  0  0
 21 20  1  0  0  0  0
 23 25  1  0  0  0  0
 25 24  1  1  0  0  0
 25 36  1  0  0  0  0
 26 28  2  0  0  0  0
 26 27  1  0  0  0  0
 27 32  2  0  0  0  0
 28 30  1  0  0  0  0
 29 26  1  0  0  0  0
 30 34  1  0  0  0  0
 30 33  2  0  0  0  0
 31 34  2  0  0  0  0
 32 33  1  0  0  0  0
 35 36  2  0  0  0  0
 35 28  1  0  0  0  0
 36 31  1  0  0  0  0
 37 38  1  0  0  0  0
 37  8  1  0  0  0  0
 39 38  1  1  0  0  0
 41 40  1  0  0  0  0
 41 47  1  1  0  0  0
 42 43  2  0  0  0  0
 42 41  1  0  0  0  0
 44 42  1  0  0  0  0
 45 40  1  0  0  0  0
 46 39  1  6  0  0  0
 46 44  1  0  0  0  0
 46 45  1  0  0  0  0
 47 48  1  0  0  0  0
 49 39  1  0  0  0  0
 50 49  1  0  0  0  0
 51 53  1  0  0  0  0
 52 53  2  0  0  0  0
 52 54  1  0  0  0  0
 55 54  1  0  0  0  0
M  END
>  <MODEL>
1

>  <REMARK>
 VINA RESULT:      -8.4      0.000      0.000
  Name = 
  16 active torsions:
  status: ('A' for Active; 'I' for Inactive)
    1  A    between atoms: N_2  and  C_16
    2  A    between atoms: C_3  and  N_7
    3  A    between atoms: C_4  and  C_27
    4  A    between atoms: C_5  and  C_35
    5  A    between atoms: C_6  and  N_52
    6  A    between atoms: C_10  and  C_26
    7  A    between atoms: C_16  and  C_42
    8  A    between atoms: O_18  and  C_30
    9  A    between atoms: C_27  and  C_49
   10  A    between atoms: C_30  and  C_44
   11  A    between atoms: C_30  and  C_48
   12  A    between atoms: C_36  and  C_54
   13  A    between atoms: C_36  and  N_55
   14  A    between atoms: C_43  and  C_44
   15  A    between atoms: C_43  and  N_50
   16  A    between atoms: C_53  and  N_55
                            x       y       z     vdW  Elec       q    Type
                         _______ _______ _______ _____ _____    ______ ____

>  <TORSDO>
F 16

$$$$
=
 OpenBabel11042410173D

 55 60  0  0  1  0  0  0  0  0999 V2000
  187.3480  177.4850  136.8280 C   0  0  2  0  0  3  0  0  0  0  0  0
  188.5420  177.7490  137.8020 C   0  0  1  0  0  3  0  0  0  0  0  0
  187.5840  178.7850  141.3730 C   0  0  0  0  0  3  0  0  0  0  0  0
  185.6390  178.5240  139.9340 C   0  0  0  0  0  3  0  0  0  0  0  0
  187.8580  178.1190  139.0790 C   0  0  0  0  0  0  0  0  0  0  0  0
  188.4320  178.4320  140.3110 C   0  0  0  0  0  3  0  0  0  0  0  0
  186.5020  178.1740  138.8980 C   0  0  0  0  0  0  0  0  0  0  0  0
  186.1400  177.8280  137.5790 N   0  0  0  0  0  0  0  0  0  0  0  0
  186.1890  178.8370  141.1910 C   0  0  0  0  0  0  0  0  0  0  0  0
  191.3430  175.1660  137.4320 N   0  0  0  0  0  2  0  0  0  0  0  0
  190.8300  177.0870  136.2080 O   0  0  0  0  0  0  0  0  0  0  0  0
  190.5350  176.3110  137.1630 C   0  0  0  0  0  0  0  0  0  0  0  0
  189.3970  176.5780  137.9840 N   0  0  0  0  0  2  0  0  0  0  0  0
  192.4760  174.7980  136.5950 C   0  0  1  0  0  3  0  0  0  0  0  0
  194.6110  175.6080  138.6890 O   0  0  0  0  0  1  0  0  0  0  0  0
  193.8520  172.7280  136.5390 C   0  0  0  0  0  1  0  0  0  0  0  0
  193.4940  175.9340  136.5860 C   0  0  0  0  0  2  0  0  0  0  0  0
  194.4480  175.0810  137.4030 C   0  0  2  0  0  0  0  0  0  0  0  0
  193.4390  173.9260  137.3920 C   0  0  1  0  0  3  0  0  0  0  0  0
  195.7870  174.8710  136.6900 C   0  0  0  0  0  2  0  0  0  0  0  0
  196.8650  174.8660  137.6450 N   0  0  0  0  0  0  0  0  0  0  0  0
  197.7590  173.9490  137.5930 C   0  0  0  0  0  2  0  0  0  0  0  0
  185.3580  179.1940  142.3010 N   0  0  0  0  0  2  0  0  0  0  0  0
  183.3800  178.5440  143.4210 O   0  0  0  0  0  1  0  0  0  0  0  0
  184.7390  178.2690  143.2550 C   0  0  2  0  0  3  0  0  0  0  0  0
  188.8410  177.4270  145.8760 C   0  0  0  0  0  0  0  0  0  0  0  0
  189.4880  177.4650  147.0720 N   0  0  0  0  0  0  0  0  0  0  0  0
  187.5020  177.8310  145.8070 C   0  0  0  0  0  0  0  0  0  0  0  0
  189.7170  176.8830  144.4530 Cl  0  0  0  0  0  0  0  0  0  0  0  0
  186.8630  178.2450  146.9930 C   0  0  0  0  0  0  0  0  0  0  0  0
  184.8250  178.6470  145.7580 C   0  0  0  0  0  3  0  0  0  0  0  0
  188.8590  177.8780  148.2050 C   0  0  0  0  0  3  0  0  0  0  0  0
  187.5570  178.2620  148.1620 N   0  0  0  0  0  0  0  0  0  0  0  0
  185.5260  178.6460  146.9660 C   0  0  0  0  0  3  0  0  0  0  0  0
  186.7920  177.8400  144.6010 C   0  0  0  0  0  3  0  0  0  0  0  0
  185.4580  178.2540  144.5700 C   0  0  0  0  0  0  0  0  0  0  0  0
  184.7890  177.8930  137.0300 C   0  0  0  0  0  2  0  0  0  0  0  0
  183.7990  177.1970  137.9620 C   0  0  0  0  0  2  0  0  0  0  0  0
  182.3490  177.4100  137.4950 C   0  0  2  0  0  3  0  0  0  0  0  0
  181.0240  177.7290  141.0220 O   0  0  0  0  0  0  0  0  0  0  0  0
  181.0280  179.1360  141.1150 C   0  0  1  0  0  3  0  0  0  0  0  0
  180.6130  179.7530  139.7950 C   0  0  0  0  0  0  0  0  0  0  0  0
  180.1760  180.9320  139.7320 O   0  0  0  0  0  0  0  0  0  0  0  0
  180.8630  179.0210  138.5860 N   0  0  0  0  0  2  0  0  0  0  0  0
  181.9590  177.3660  140.0290 C   0  0  0  0  0  2  0  0  0  0  0  0
  181.3590  177.6510  138.6430 C   0  0  2  0  0  3  0  0  0  0  0  0
  180.0990  179.5530  142.2530 C   0  0  0  0  0  2  0  0  0  0  0  0
  179.7830  178.4100  143.0930 N   0  0  0  0  0  1  0  0  0  0  0  0
  181.9020  176.4390  136.5760 O   0  0  0  0  0  0  0  0  0  0  0  0
  181.7810  177.0390  135.4050 O   0  0  0  0  0  1  0  0  0  0  0  0
  187.2520  176.0630  136.2480 C   0  0  0  0  0  2  0  0  0  0  0  0
  186.0490  173.9690  136.6810 C   0  0  0  0  0  3  0  0  0  0  0  0
  186.5200  175.1250  137.1560 C   0  0  0  0  0  3  0  0  0  0  0  0
  185.3250  173.0430  137.5930 C   0  0  0  0  0  2  0  0  0  0  0  0
  183.8410  173.1120  137.3010 C   0  0  0  0  0  1  0  0  0  0  0  0
  1 51  1  1  0  0  0
  1  8  1  0  0  0  0
  1  2  1  0  0  0  0
  2 13  1  1  0  0  0
  2  5  1  0  0  0  0
  4  9  2  0  0  0  0
  5  6  1  0  0  0  0
  6  3  2  0  0  0  0
  7  5  2  0  0  0  0
  7  4  1  0  0  0  0
  8  7  1  0  0  0  0
  9  3  1  0  0  0  0
  9 23  1  0  0  0  0
 11 12  2  0  0  0  0
 12 10  1  0  0  0  0
 12 13  1  0  0  0  0
 14 19  1  0  0  0  0
 14 10  1  1  0  0  0
 17 14  1  0  0  0  0
 17 18  1  0  0  0  0
 18 15  1  1  0  0  0
 19 16  1  6  0  0  0
 19 18  1  0  0  0  0
 20 18  1  0  0  0  0
 20 21  1  0  0  0  0
 22 21  2  0  0  0  0
 23 25  1  0  0  0  0
 25 24  1  1  0  0  0
 25 36  1  0  0  0  0
 26 27  1  0  0  0  0
 27 32  2  0  0  0  0
 28 26  2  0  0  0  0
 28 30  1  0  0  0  0
 29 26  1  0  0  0  0
 30 33  2  0  0  0  0
 31 34  2  0  0  0  0
 33 32  1  0  0  0  0
 34 30  1  0  0  0  0
 35 28  1  0  0  0  0
 36 35  2  0  0  0  0
 36 31  1  0  0  0  0
 37  8  1  0  0  0  0
 37 38  1  0  0  0  0
 39 38  1  1  0  0  0
 40 41  1  0  0  0  0
 41 47  1  1  0  0  0
 42 41  1  0  0  0  0
 43 42  2  0  0  0  0
 44 46  1  0  0  0  0
 44 42  1  0  0  0  0
 45 40  1  0  0  0  0
 46 39  1  6  0  0  0
 46 45  1  0  0  0  0
 47 48  1  0  0  0  0
 49 39  1  0  0  0  0
 50 49  1  0  0  0  0
 51 53  1  0  0  0  0
 52 53  2  0  0  0  0
 52 54  1  0  0  0  0
 55 54  1  0  0  0  0
M  END
>  <MODEL>
2

>  <REMARK>
 VINA RESULT:      -8.2      1.900      2.566
  Name = 
  16 active torsions:
  status: ('A' for Active; 'I' for Inactive)
    1  A    between atoms: N_2  and  C_16
    2  A    between atoms: C_3  and  N_7
    3  A    between atoms: C_4  and  C_27
    4  A    between atoms: C_5  and  C_35
    5  A    between atoms: C_6  and  N_52
    6  A    between atoms: C_10  and  C_26
    7  A    between atoms: C_16  and  C_42
    8  A    between atoms: O_18  and  C_30
    9  A    between atoms: C_27  and  C_49
   10  A    between atoms: C_30  and  C_44
   11  A    between atoms: C_30  and  C_48
   12  A    between atoms: C_36  and  C_54
   13  A    between atoms: C_36  and  N_55
   14  A    between atoms: C_43  and  C_44
   15  A    between atoms: C_43  and  N_50
   16  A    between atoms: C_53  and  N_55
                            x       y       z     vdW  Elec       q    Type
                         _______ _______ _______ _____ _____    ______ ____

>  <TORSDO>
F 16

$$$$
=
 OpenBabel11042410173D

 55 60  0  0  1  0  0  0  0  0999 V2000
  190.1880  176.7200  140.1900 C   0  0  2  0  0  3  0  0  0  0  0  0
  190.4250  175.8280  138.9290 C   0  0  1  0  0  3  0  0  0  0  0  0
  187.9180  176.3000  136.0580 C   0  0  0  0  0  3  0  0  0  0  0  0
  187.3660  177.6590  138.0000 C   0  0  0  0  0  3  0  0  0  0  0  0
  189.3160  176.2400  138.0140 C   0  0  0  0  0  0  0  0  0  0  0  0
  189.0460  175.7910  136.7210 C   0  0  0  0  0  3  0  0  0  0  0  0
  188.4920  177.1400  138.6340 C   0  0  0  0  0  0  0  0  0  0  0  0
  188.9450  177.4490  139.9340 N   0  0  0  0  0  0  0  0  0  0  0  0
  187.0730  177.2310  136.6920 C   0  0  0  0  0  0  0  0  0  0  0  0
  193.6520  175.3760  136.9210 N   0  0  0  0  0  2  0  0  0  0  0  0
  191.8830  173.9190  137.3670 O   0  0  0  0  0  0  0  0  0  0  0  0
  192.3990  175.0630  137.5280 C   0  0  0  0  0  0  0  0  0  0  0  0
  191.7280  176.0530  138.3090 N   0  0  0  0  0  2  0  0  0  0  0  0
  194.4200  174.3940  136.1690 C   0  0  1  0  0  3  0  0  0  0  0  0
  197.1610  175.3000  137.2940 O   0  0  0  0  0  1  0  0  0  0  0  0
  195.3020  172.1660  136.8330 C   0  0  0  0  0  1  0  0  0  0  0  0
  195.5970  175.0810  135.4830 C   0  0  0  0  0  2  0  0  0  0  0  0
  196.5550  174.3810  136.4310 C   0  0  2  0  0  0  0  0  0  0  0  0
  195.3780  173.6660  137.1060 C   0  0  1  0  0  3  0  0  0  0  0  0
  197.5800  173.5260  135.6830 C   0  0  0  0  0  2  0  0  0  0  0  0
  198.8180  173.4750  136.4170 N   0  0  0  0  0  0  0  0  0  0  0  0
  199.0570  172.4860  137.1970 C   0  0  0  0  0  2  0  0  0  0  0  0
  185.9370  177.7320  135.9790 N   0  0  0  0  0  2  0  0  0  0  0  0
  183.9840  177.5720  134.6570 O   0  0  0  0  0  1  0  0  0  0  0  0
  184.6830  177.0150  135.7290 C   0  0  2  0  0  3  0  0  0  0  0  0
  181.8330  179.2270  139.1060 C   0  0  0  0  0  0  0  0  0  0  0  0
  181.0240  179.1250  140.1940 N   0  0  0  0  0  0  0  0  0  0  0  0
  182.4320  178.0730  138.5850 C   0  0  0  0  0  0  0  0  0  0  0  0
  182.0880  180.8080  138.3810 Cl  0  0  0  0  0  0  0  0  0  0  0  0
  182.1880  176.8420  139.2270 C   0  0  0  0  0  0  0  0  0  0  0  0
  183.5950  175.7190  137.6140 C   0  0  0  0  0  3  0  0  0  0  0  0
  180.7920  177.9270  140.7950 C   0  0  0  0  0  3  0  0  0  0  0  0
  181.3720  176.7970  140.3130 N   0  0  0  0  0  0  0  0  0  0  0  0
  182.7750  175.6710  138.7440 C   0  0  0  0  0  3  0  0  0  0  0  0
  183.2520  178.1100  137.4510 C   0  0  0  0  0  3  0  0  0  0  0  0
  183.8280  176.9370  136.9570 C   0  0  0  0  0  0  0  0  0  0  0  0
  188.2380  178.2860  140.8980 C   0  0  0  0  0  2  0  0  0  0  0  0
  187.1340  177.4890  141.5900 C   0  0  0  0  0  2  0  0  0  0  0  0
  186.4480  178.3220  142.6860 C   0  0  2  0  0  3  0  0  0  0  0  0
  187.9740  177.1650  145.9460 O   0  0  0  0  0  0  0  0  0  0  0  0
  187.5440  178.2310  146.7630 C   0  0  1  0  0  3  0  0  0  0  0  0
  186.1450  178.6640  146.3720 C   0  0  0  0  0  0  0  0  0  0  0  0
  185.4120  179.3070  147.1680 O   0  0  0  0  0  0  0  0  0  0  0  0
  185.7150  178.4570  145.0180 N   0  0  0  0  0  2  0  0  0  0  0  0
  187.9900  177.6300  144.6140 C   0  0  0  0  0  2  0  0  0  0  0  0
  186.5490  177.7040  144.0870 C   0  0  2  0  0  3  0  0  0  0  0  0
  187.6130  177.7880  148.2230 C   0  0  0  0  0  2  0  0  0  0  0  0
  188.9160  178.1010  148.7840 N   0  0  0  0  0  1  0  0  0  0  0  0
  185.1390  178.7270  142.3530 O   0  0  0  0  0  0  0  0  0  0  0  0
  184.8400  178.1630  141.1970 O   0  0  0  0  0  1  0  0  0  0  0  0
  191.3290  177.6860  140.5570 C   0  0  0  0  0  2  0  0  0  0  0  0
  191.2020  176.6670  142.7850 C   0  0  0  0  0  3  0  0  0  0  0  0
  191.6430  177.6690  142.0200 C   0  0  0  0  0  3  0  0  0  0  0  0
  191.5220  176.6590  144.2380 C   0  0  0  0  0  2  0  0  0  0  0  0
  191.5740  178.0840  144.7470 C   0  0  0  0  0  1  0  0  0  0  0  0
  1 51  1  6  0  0  0
  2 13  1  6  0  0  0
  2  1  1  0  0  0  0
  3  9  2  0  0  0  0
  3  6  1  0  0  0  0
  4  7  2  0  0  0  0
  5  7  1  0  0  0  0
  5  2  1  0  0  0  0
  6  5  2  0  0  0  0
  7  8  1  0  0  0  0
  8  1  1  0  0  0  0
  8 37  1  0  0  0  0
  9  4  1  0  0  0  0
 10 12  1  0  0  0  0
 11 12  2  0  0  0  0
 12 13  1  0  0  0  0
 14 10  1  1  0  0  0
 14 19  1  0  0  0  0
 17 14  1  0  0  0  0
 17 18  1  0  0  0  0
 18 19  1  0  0  0  0
 18 15  1  1  0  0  0
 19 16  1  6  0  0  0
 20 21  1  0  0  0  0
 20 18  1  0  0  0  0
 21 22  2  0  0  0  0
 23  9  1  0  0  0  0
 25 24  1  6  0  0  0
 25 23  1  0  0  0  0
 25 36  1  0  0  0  0
 26 27  1  0  0  0  0
 27 32  2  0  0  0  0
 28 26  2  0  0  0  0
 28 30  1  0  0  0  0
 29 26  1  0  0  0  0
 30 33  2  0  0  0  0
 31 34  2  0  0  0  0
 33 32  1  0  0  0  0
 34 30  1  0  0  0  0
 35 28  1  0  0  0  0
 36 35  2  0  0  0  0
 36 31  1  0  0  0  0
 37 38  1  0  0  0  0
 39 38  1  6  0  0  0
 40 41  1  0  0  0  0
 41 47  1  1  0  0  0
 42 41  1  0  0  0  0
 42 43  2  0  0  0  0
 44 42  1  0  0  0  0
 45 40  1  0  0  0  0
 46 39  1  6  0  0  0
 46 45  1  0  0  0  0
 46 44  1  0  0  0  0
 47 48  1  0  0  0  0
 49 39  1  0  0  0  0
 50 49  1  0  0  0  0
 51 53  1  0  0  0  0
 52 54  1  0  0  0  0
 53 52  2  0  0  0  0
 54 55  1  0  0  0  0
M  END
>  <MODEL>
3

>  <REMARK>
 VINA RESULT:      -7.7      2.543      6.936
  Name = 
  16 active torsions:
  status: ('A' for Active; 'I' for Inactive)
    1  A    between atoms: N_2  and  C_16
    2  A    between atoms: C_3  and  N_7
    3  A    between atoms: C_4  and  C_27
    4  A    between atoms: C_5  and  C_35
    5  A    between atoms: C_6  and  N_52
    6  A    between atoms: C_10  and  C_26
    7  A    between atoms: C_16  and  C_42
    8  A    between atoms: O_18  and  C_30
    9  A    between atoms: C_27  and  C_49
   10  A    between atoms: C_30  and  C_44
   11  A    between atoms: C_30  and  C_48
   12  A    between atoms: C_36  and  C_54
   13  A    between atoms: C_36  and  N_55
   14  A    between atoms: C_43  and  C_44
   15  A    between atoms: C_43  and  N_50
   16  A    between atoms: C_53  and  N_55
                            x       y       z     vdW  Elec       q    Type
                         _______ _______ _______ _____ _____    ______ ____

>  <TORSDO>
F 16

$$$$
=
 OpenBabel11042410173D

 55 60  0  0  1  0  0  0  0  0999 V2000
  189.0090  176.4140  135.4190 C   0  0  2  0  0  3  0  0  0  0  0  0
  190.2540  176.5710  136.3520 C   0  0  1  0  0  3  0  0  0  0  0  0
  189.5350  177.8970  139.8830 C   0  0  0  0  0  3  0  0  0  0  0  0
  187.5330  177.8140  138.5020 C   0  0  0  0  0  3  0  0  0  0  0  0
  189.6580  177.0890  137.6220 C   0  0  0  0  0  0  0  0  0  0  0  0
  190.3010  177.3870  138.8230 C   0  0  0  0  0  3  0  0  0  0  0  0
  188.3150  177.3060  137.4680 C   0  0  0  0  0  0  0  0  0  0  0  0
  187.8760  176.9450  136.1770 N   0  0  0  0  0  0  0  0  0  0  0  0
  188.1530  178.1160  139.7290 C   0  0  0  0  0  0  0  0  0  0  0  0
  192.9850  173.9060  136.6520 N   0  0  0  0  0  2  0  0  0  0  0  0
  193.0560  176.1310  135.9460 O   0  0  0  0  0  0  0  0  0  0  0  0
  192.3650  175.1590  136.3690 C   0  0  0  0  0  0  0  0  0  0  0  0
  190.9590  175.3120  136.5770 N   0  0  0  0  0  2  0  0  0  0  0  0
  194.3990  173.6630  136.4000 C   0  0  1  0  0  3  0  0  0  0  0  0
  195.3400  174.7950  139.1260 O   0  0  0  0  0  1  0  0  0  0  0  0
  195.8730  171.7840  137.0920 C   0  0  0  0  0  1  0  0  0  0  0  0
  195.2000  174.9180  136.7300 C   0  0  0  0  0  2  0  0  0  0  0  0
  195.7970  174.2160  137.9370 C   0  0  2  0  0  0  0  0  0  0  0  0
  195.0140  172.9420  137.5940 C   0  0  1  0  0  3  0  0  0  0  0  0
  197.3250  174.1590  137.8710 C   0  0  0  0  0  2  0  0  0  0  0  0
  197.8940  175.3510  138.4460 N   0  0  0  0  0  0  0  0  0  0  0  0
  198.7230  175.2570  139.4190 C   0  0  0  0  0  2  0  0  0  0  0  0
  187.4050  178.6310  140.8360 N   0  0  0  0  0  2  0  0  0  0  0  0
  185.3010  179.5750  140.3170 O   0  0  0  0  0  1  0  0  0  0  0  0
  185.9520  178.5550  141.0130 C   0  0  2  0  0  3  0  0  0  0  0  0
  187.1290  177.8100  145.7530 C   0  0  0  0  0  0  0  0  0  0  0  0
  186.7680  177.8530  147.0630 N   0  0  0  0  0  0  0  0  0  0  0  0
  186.1980  178.1710  144.7720 C   0  0  0  0  0  0  0  0  0  0  0  0
  188.7630  177.3110  145.3370 Cl  0  0  0  0  0  0  0  0  0  0  0  0
  184.9040  178.5500  145.1830 C   0  0  0  0  0  0  0  0  0  0  0  0
  184.2720  178.9030  142.8770 C   0  0  0  0  0  3  0  0  0  0  0  0
  185.5180  178.2300  147.4430 C   0  0  0  0  0  3  0  0  0  0  0  0
  184.5950  178.5740  146.5070 N   0  0  0  0  0  0  0  0  0  0  0  0
  183.9440  178.9080  144.2350 C   0  0  0  0  0  3  0  0  0  0  0  0
  186.5190  178.1730  143.4100 C   0  0  0  0  0  3  0  0  0  0  0  0
  185.5630  178.5460  142.4600 C   0  0  0  0  0  0  0  0  0  0  0  0
  186.5290  177.1540  135.6550 C   0  0  0  0  0  2  0  0  0  0  0  0
  185.5060  176.3890  136.4920 C   0  0  0  0  0  2  0  0  0  0  0  0
  184.1610  177.1320  136.5440 C   0  0  2  0  0  3  0  0  0  0  0  0
  182.2020  178.6990  139.3740 O   0  0  0  0  0  0  0  0  0  0  0  0
  181.2250  177.6950  139.5270 C   0  0  1  0  0  3  0  0  0  0  0  0
  181.8410  176.3240  139.3310 C   0  0  0  0  0  0  0  0  0  0  0  0
  181.2880  175.2870  139.7830 O   0  0  0  0  0  0  0  0  0  0  0  0
  182.9990  176.2060  138.4910 N   0  0  0  0  0  2  0  0  0  0  0  0
  182.7080  178.6040  138.0600 C   0  0  0  0  0  2  0  0  0  0  0  0
  183.6570  177.3990  137.9700 C   0  0  2  0  0  3  0  0  0  0  0  0
  180.5880  177.8380  140.9070 C   0  0  0  0  0  2  0  0  0  0  0  0
  179.1390  177.7940  140.8020 N   0  0  0  0  0  1  0  0  0  0  0  0
  183.1730  176.5750  135.7050 O   0  0  0  0  0  0  0  0  0  0  0  0
  183.1460  177.3020  134.6030 O   0  0  0  0  0  1  0  0  0  0  0  0
  188.7190  174.9880  134.9170 C   0  0  0  0  0  2  0  0  0  0  0  0
  188.3250  173.1540  136.4990 C   0  0  0  0  0  3  0  0  0  0  0  0
  187.8420  174.2210  135.8560 C   0  0  0  0  0  3  0  0  0  0  0  0
  187.4450  172.4010  137.4320 C   0  0  0  0  0  2  0  0  0  0  0  0
  186.0050  172.8110  137.2050 C   0  0  0  0  0  1  0  0  0  0  0  0
  1 51  1  1  0  0  0
  1  8  1  0  0  0  0
  1  2  1  0  0  0  0
  2 13  1  1  0  0  0
  2  5  1  0  0  0  0
  4  9  2  0  0  0  0
  5  6  1  0  0  0  0
  6  3  2  0  0  0  0
  7  5  2  0  0  0  0
  7  4  1  0  0  0  0
  8  7  1  0  0  0  0
  9  3  1  0  0  0  0
  9 23  1  0  0  0  0
 11 12  2  0  0  0  0
 12 13  1  0  0  0  0
 12 10  1  0  0  0  0
 14 10  1  1  0  0  0
 14 17  1  0  0  0  0
 14 19  1  0  0  0  0
 17 18  1  0  0  0  0
 18 15  1  1  0  0  0
 19 16  1  6  0  0  0
 19 18  1  0  0  0  0
 20 18  1  0  0  0  0
 20 21  1  0  0  0  0
 21 22  2  0  0  0  0
 23 25  1  0  0  0  0
 25 24  1  6  0  0  0
 25 36  1  0  0  0  0
 26 27  1  0  0  0  0
 27 32  2  0  0  0  0
 28 30  1  0  0  0  0
 28 26  2  0  0  0  0
 29 26  1  0  0  0  0
 30 33  2  0  0  0  0
 31 34  2  0  0  0  0
 33 32  1  0  0  0  0
 34 30  1  0  0  0  0
 35 28  1  0  0  0  0
 36 31  1  0  0  0  0
 36 35  2  0  0  0  0
 37  8  1  0  0  0  0
 37 38  1  0  0  0  0
 39 38  1  1  0  0  0
 40 41  1  0  0  0  0
 41 47  1  1  0  0  0
 42 41  1  0  0  0  0
 42 43  2  0  0  0  0
 44 42  1  0  0  0  0
 45 40  1  0  0  0  0
 46 39  1  6  0  0  0
 46 45  1  0  0  0  0
 46 44  1  0  0  0  0
 48 47  1  0  0  0  0
 49 39  1  0  0  0  0
 50 49  1  0  0  0  0
 51 53  1  0  0  0  0
 52 54  1  0  0  0  0
 53 52  2  0  0  0  0
 55 54  1  0  0  0  0
M  END
>  <MODEL>
4

>  <REMARK>
 VINA RESULT:      -7.7      2.048      2.677
  Name = 
  16 active torsions:
  status: ('A' for Active; 'I' for Inactive)
    1  A    between atoms: N_2  and  C_16
    2  A    between atoms: C_3  and  N_7
    3  A    between atoms: C_4  and  C_27
    4  A    between atoms: C_5  and  C_35
    5  A    between atoms: C_6  and  N_52
    6  A    between atoms: C_10  and  C_26
    7  A    between atoms: C_16  and  C_42
    8  A    between atoms: O_18  and  C_30
    9  A    between atoms: C_27  and  C_49
   10  A    between atoms: C_30  and  C_44
   11  A    between atoms: C_30  and  C_48
   12  A    between atoms: C_36  and  C_54
   13  A    between atoms: C_36  and  N_55
   14  A    between atoms: C_43  and  C_44
   15  A    between atoms: C_43  and  N_50
   16  A    between atoms: C_53  and  N_55
                            x       y       z     vdW  Elec       q    Type
                         _______ _______ _______ _____ _____    ______ ____

>  <TORSDO>
F 16

$$$$
=
 OpenBabel11042410173D

 55 60  0  0  1  0  0  0  0  0999 V2000
  187.2090  178.6630  140.5880 C   0  0  2  0  0  3  0  0  0  0  0  0
  186.7990  178.7730  139.0830 C   0  0  1  0  0  3  0  0  0  0  0  0
  189.2110  177.1490  136.5740 C   0  0  0  0  0  3  0  0  0  0  0  0
  190.0270  177.0100  138.8630 C   0  0  0  0  0  3  0  0  0  0  0  0
  187.9100  178.0590  138.3800 C   0  0  0  0  0  0  0  0  0  0  0  0
  188.0580  177.8180  137.0140 C   0  0  0  0  0  3  0  0  0  0  0  0
  188.8730  177.6730  139.2730 C   0  0  0  0  0  0  0  0  0  0  0  0
  188.5250  178.0210  140.5950 N   0  0  0  0  0  0  0  0  0  0  0  0
  190.2000  176.7460  137.4910 C   0  0  0  0  0  0  0  0  0  0  0  0
  183.0710  178.2030  138.4270 N   0  0  0  0  0  2  0  0  0  0  0  0
  184.2740  180.1240  138.9910 O   0  0  0  0  0  0  0  0  0  0  0  0
  184.2840  178.8810  138.7530 C   0  0  0  0  0  0  0  0  0  0  0  0
  185.5100  178.1480  138.7980 N   0  0  0  0  0  2  0  0  0  0  0  0
  181.7800  178.8750  138.4280 C   0  0  1  0  0  3  0  0  0  0  0  0
  181.7130  179.2890  141.4970 O   0  0  0  0  0  1  0  0  0  0  0  0
  181.2060  181.2940  138.4620 C   0  0  0  0  0  1  0  0  0  0  0  0
  180.8820  178.2550  139.4940 C   0  0  0  0  0  2  0  0  0  0  0  0
  180.9930  179.5230  140.3210 C   0  0  2  0  0  0  0  0  0  0  0  0
  181.8730  180.1620  139.2400 C   0  0  1  0  0  3  0  0  0  0  0  0
  179.6240  180.1520  140.5960 C   0  0  0  0  0  2  0  0  0  0  0  0
  179.4040  180.2660  142.0140 N   0  0  0  0  0  0  0  0  0  0  0  0
  178.9800  179.2550  142.6780 C   0  0  0  0  0  2  0  0  0  0  0  0
  191.3580  176.0600  137.0030 N   0  0  0  0  0  2  0  0  0  0  0  0
  190.5600  173.9070  137.5670 O   0  0  0  0  0  1  0  0  0  0  0  0
  191.4900  174.6140  136.8030 C   0  0  2  0  0  3  0  0  0  0  0  0
  195.0070  171.1850  136.2670 C   0  0  0  0  0  0  0  0  0  0  0  0
  196.2920  170.7930  136.4740 N   0  0  0  0  0  0  0  0  0  0  0  0
  194.5790  172.4230  136.7620 C   0  0  0  0  0  0  0  0  0  0  0  0
  193.9280  170.1250  135.3710 Cl  0  0  0  0  0  0  0  0  0  0  0  0
  195.4980  173.2130  137.4800 C   0  0  0  0  0  0  0  0  0  0  0  0
  193.8040  174.9080  137.7920 C   0  0  0  0  0  3  0  0  0  0  0  0
  197.1700  171.5730  137.1620 C   0  0  0  0  0  3  0  0  0  0  0  0
  196.7710  172.7720  137.6600 N   0  0  0  0  0  0  0  0  0  0  0  0
  195.1070  174.4490  137.9980 C   0  0  0  0  0  3  0  0  0  0  0  0
  193.2770  172.8930  136.5570 C   0  0  0  0  0  3  0  0  0  0  0  0
  192.8870  174.1370  137.0610 C   0  0  0  0  0  0  0  0  0  0  0  0
  189.3800  177.8510  141.7650 C   0  0  0  0  0  2  0  0  0  0  0  0
  189.4090  176.3870  142.1980 C   0  0  0  0  0  2  0  0  0  0  0  0
  190.3340  176.1820  143.4090 C   0  0  2  0  0  3  0  0  0  0  0  0
  188.5990  177.9700  146.2530 O   0  0  0  0  0  0  0  0  0  0  0  0
  189.2810  177.3580  147.3250 C   0  0  1  0  0  3  0  0  0  0  0  0
  190.7400  177.1500  146.9720 C   0  0  0  0  0  0  0  0  0  0  0  0
  191.6130  176.9880  147.8650 O   0  0  0  0  0  0  0  0  0  0  0  0
  191.0960  176.9920  145.5910 N   0  0  0  0  0  2  0  0  0  0  0  0
  188.6860  177.1010  145.1440 C   0  0  0  0  0  2  0  0  0  0  0  0
  190.0980  177.1870  144.5450 C   0  0  2  0  0  3  0  0  0  0  0  0
  189.1180  178.2290  148.5690 C   0  0  0  0  0  2  0  0  0  0  0  0
  187.9090  177.8620  149.2880 N   0  0  0  0  0  1  0  0  0  0  0  0
  191.6960  176.0470  143.0660 O   0  0  0  0  0  0  0  0  0  0  0  0
  192.0440  177.1460  142.4200 O   0  0  0  0  0  1  0  0  0  0  0  0
  186.2240  177.9140  141.5020 C   0  0  0  0  0  2  0  0  0  0  0  0
  185.4440  178.1730  143.8140 C   0  0  0  0  0  3  0  0  0  0  0  0
  185.7650  178.7520  142.6540 C   0  0  0  0  0  3  0  0  0  0  0  0
  184.9920  179.0160  144.9530 C   0  0  0  0  0  2  0  0  0  0  0  0
  183.4800  178.9810  145.0320 C   0  0  0  0  0  1  0  0  0  0  0  0
  1  8  1  0  0  0  0
  1 51  1  1  0  0  0
  2 13  1  1  0  0  0
  2  1  1  0  0  0  0
  3  6  2  0  0  0  0
  3  9  1  0  0  0  0
  4  7  1  0  0  0  0
  5  2  1  0  0  0  0
  5  7  2  0  0  0  0
  6  5  1  0  0  0  0
  7  8  1  0  0  0  0
  8 37  1  0  0  0  0
  9  4  2  0  0  0  0
 10 12  1  0  0  0  0
 12 13  1  0  0  0  0
 12 11  2  0  0  0  0
 14 10  1  1  0  0  0
 14 19  1  0  0  0  0
 14 17  1  0  0  0  0
 17 18  1  0  0  0  0
 18 20  1  0  0  0  0
 18 15  1  1  0  0  0
 19 16  1  6  0  0  0
 19 18  1  0  0  0  0
 20 21  1  0  0  0  0
 21 22  2  0  0  0  0
 23  9  1  0  0  0  0
 25 23  1  0  0  0  0
 25 36  1  0  0  0  0
 25 24  1  1  0  0  0
 26 27  2  0  0  0  0
 26 28  1  0  0  0  0
 27 32  1  0  0  0  0
 28 30  1  0  0  0  0
 29 26  1  0  0  0  0
 30 33  1  0  0  0  0
 30 34  2  0  0  0  0
 31 34  1  0  0  0  0
 32 33  2  0  0  0  0
 35 28  2  0  0  0  0
 35 36  1  0  0  0  0
 36 31  2  0  0  0  0
 37 38  1  0  0  0  0
 39 38  1  6  0  0  0
 40 41  1  0  0  0  0
 41 47  1  1  0  0  0
 42 41  1  0  0  0  0
 42 43  2  0  0  0  0
 44 42  1  0  0  0  0
 45 40  1  0  0  0  0
 46 39  1  6  0  0  0
 46 45  1  0  0  0  0
 46 44  1  0  0  0  0
 47 48  1  0  0  0  0
 49 39  1  0  0  0  0
 50 49  1  0  0  0  0
 51 53  1  0  0  0  0
 52 54  1  0  0  0  0
 53 52  2  0  0  0  0
 54 55  1  0  0  0  0
M  END
>  <MODEL>
5

>  <REMARK>
 VINA RESULT:      -7.2      2.740     10.904
  Name = 
  16 active torsions:
  status: ('A' for Active; 'I' for Inactive)
    1  A    between atoms: N_2  and  C_16
    2  A    between atoms: C_3  and  N_7
    3  A    between atoms: C_4  and  C_27
    4  A    between atoms: C_5  and  C_35
    5  A    between atoms: C_6  and  N_52
    6  A    between atoms: C_10  and  C_26
    7  A    between atoms: C_16  and  C_42
    8  A    between atoms: O_18  and  C_30
    9  A    between atoms: C_27  and  C_49
   10  A    between atoms: C_30  and  C_44
   11  A    between atoms: C_30  and  C_48
   12  A    between atoms: C_36  and  C_54
   13  A    between atoms: C_36  and  N_55
   14  A    between atoms: C_43  and  C_44
   15  A    between atoms: C_43  and  N_50
   16  A    between atoms: C_53  and  N_55
                            x       y       z     vdW  Elec       q    Type
                         _______ _______ _______ _____ _____    ______ ____

>  <TORSDO>
F 16

$$$$
=
 OpenBabel11042410173D

 55 60  0  0  1  0  0  0  0  0999 V2000
  186.6160  178.7600  141.5060 C   0  0  2  0  0  3  0  0  0  0  0  0
  185.7010  178.7550  140.2380 C   0  0  1  0  0  3  0  0  0  0  0  0
  187.3750  177.6100  136.9770 C   0  0  0  0  0  3  0  0  0  0  0  0
  188.9380  177.6850  138.8420 C   0  0  0  0  0  3  0  0  0  0  0  0
  186.6200  178.2690  139.1630 C   0  0  0  0  0  0  0  0  0  0  0  0
  186.3350  178.0380  137.8170 C   0  0  0  0  0  3  0  0  0  0  0  0
  187.8880  178.1050  139.6540 C   0  0  0  0  0  0  0  0  0  0  0  0
  187.9530  178.4000  141.0320 N   0  0  0  0  0  0  0  0  0  0  0  0
  188.6780  177.4350  137.4810 C   0  0  0  0  0  0  0  0  0  0  0  0
  182.3050  177.0630  139.7280 N   0  0  0  0  0  2  0  0  0  0  0  0
  183.2990  178.9000  138.6830 O   0  0  0  0  0  0  0  0  0  0  0  0
  183.3770  177.9890  139.5580 C   0  0  0  0  0  0  0  0  0  0  0  0
  184.5430  177.8740  140.3760 N   0  0  0  0  0  2  0  0  0  0  0  0
  181.0630  177.1640  138.9750 C   0  0  1  0  0  3  0  0  0  0  0  0
  181.7530  174.8470  137.0380 O   0  0  0  0  0  1  0  0  0  0  0  0
  178.9400  175.8820  139.1630 C   0  0  0  0  0  1  0  0  0  0  0  0
  181.3700  177.1770  137.4810 C   0  0  0  0  0  2  0  0  0  0  0  0
  180.7670  175.7900  137.3480 C   0  0  2  0  0  0  0  0  0  0  0  0
  180.4310  175.7830  138.8440 C   0  0  1  0  0  3  0  0  0  0  0  0
  179.6060  175.7620  136.3510 C   0  0  0  0  0  2  0  0  0  0  0  0
  179.5160  174.4670  135.7260 N   0  0  0  0  0  0  0  0  0  0  0  0
  179.2320  173.4360  136.4330 C   0  0  0  0  0  2  0  0  0  0  0  0
  189.7100  176.9910  136.5930 N   0  0  0  0  0  2  0  0  0  0  0  0
  189.2900  174.6940  136.9610 O   0  0  0  0  0  1  0  0  0  0  0  0
  190.2070  175.6180  136.4570 C   0  0  2  0  0  3  0  0  0  0  0  0
  194.3380  172.9750  137.0520 C   0  0  0  0  0  0  0  0  0  0  0  0
  195.5800  172.8620  137.5930 N   0  0  0  0  0  0  0  0  0  0  0  0
  193.5680  174.1110  137.3320 C   0  0  0  0  0  0  0  0  0  0  0  0
  193.7470  171.6940  136.0040 Cl  0  0  0  0  0  0  0  0  0  0  0  0
  194.1060  175.0910  138.1900 C   0  0  0  0  0  0  0  0  0  0  0  0
  192.0930  176.4080  137.9520 C   0  0  0  0  0  3  0  0  0  0  0  0
  196.0880  173.8230  138.4110 C   0  0  0  0  0  3  0  0  0  0  0  0
  195.3530  174.9260  138.7060 N   0  0  0  0  0  0  0  0  0  0  0  0
  193.3650  176.2330  138.5020 C   0  0  0  0  0  3  0  0  0  0  0  0
  192.2950  174.2970  136.7830 C   0  0  0  0  0  3  0  0  0  0  0  0
  191.5570  175.4460  137.0820 C   0  0  0  0  0  0  0  0  0  0  0  0
  189.1740  178.4310  141.8310 C   0  0  0  0  0  2  0  0  0  0  0  0
  189.8160  177.0460  141.8800 C   0  0  0  0  0  2  0  0  0  0  0  0
  190.3610  176.7340  143.2840 C   0  0  2  0  0  3  0  0  0  0  0  0
  187.7820  177.7320  145.8630 O   0  0  0  0  0  0  0  0  0  0  0  0
  188.4380  177.2380  147.0090 C   0  0  1  0  0  3  0  0  0  0  0  0
  189.9330  177.4640  146.9000 C   0  0  0  0  0  0  0  0  0  0  0  0
  190.6700  177.4680  147.9210 O   0  0  0  0  0  0  0  0  0  0  0  0
  190.5240  177.5290  145.5940 N   0  0  0  0  0  2  0  0  0  0  0  0
  188.2770  177.0190  144.7500 C   0  0  0  0  0  2  0  0  0  0  0  0
  189.6820  177.5350  144.4030 C   0  0  2  0  0  3  0  0  0  0  0  0
  187.8500  177.9210  148.2420 C   0  0  0  0  0  2  0  0  0  0  0  0
  186.7030  178.7320  147.8710 N   0  0  0  0  0  1  0  0  0  0  0  0
  191.7690  176.7580  143.3630 O   0  0  0  0  0  0  0  0  0  0  0  0
  192.1600  175.5420  143.6990 O   0  0  0  0  0  1  0  0  0  0  0  0
  186.1740  177.8420  142.6600 C   0  0  0  0  0  2  0  0  0  0  0  0
  184.7520  178.7020  144.4650 C   0  0  0  0  0  3  0  0  0  0  0  0
  184.8410  178.2310  143.2190 C   0  0  0  0  0  3  0  0  0  0  0  0
  183.4230  179.0890  145.0100 C   0  0  0  0  0  2  0  0  0  0  0  0
  182.3820  178.9780  143.9150 C   0  0  0  0  0  1  0  0  0  0  0  0
  1 51  1  1  0  0  0
  2 13  1  1  0  0  0
  2  1  1  0  0  0  0
  3  9  2  0  0  0  0
  3  6  1  0  0  0  0
  4  7  2  0  0  0  0
  5  7  1  0  0  0  0
  5  2  1  0  0  0  0
  6  5  2  0  0  0  0
  7  8  1  0  0  0  0
  8  1  1  0  0  0  0
  8 37  1  0  0  0  0
  9  4  1  0  0  0  0
 11 12  2  0  0  0  0
 12 10  1  0  0  0  0
 12 13  1  0  0  0  0
 14 10  1  1  0  0  0
 17 14  1  0  0  0  0
 18 15  1  6  0  0  0
 18 17  1  0  0  0  0
 18 19  1  0  0  0  0
 19 14  1  0  0  0  0
 19 16  1  6  0  0  0
 20 18  1  0  0  0  0
 21 20  1  0  0  0  0
 21 22  2  0  0  0  0
 23  9  1  0  0  0  0
 25 23  1  0  0  0  0
 25 24  1  1  0  0  0
 25 36  1  0  0  0  0
 26 28  2  0  0  0  0
 26 27  1  0  0  0  0
 27 32  2  0  0  0  0
 28 30  1  0  0  0  0
 29 26  1  0  0  0  0
 30 34  1  0  0  0  0
 30 33  2  0  0  0  0
 31 34  2  0  0  0  0
 32 33  1  0  0  0  0
 35 36  2  0  0  0  0
 35 28  1  0  0  0  0
 36 31  1  0  0  0  0
 37 38  1  0  0  0  0
 39 38  1  6  0  0  0
 39 49  1  0  0  0  0
 40 41  1  0  0  0  0
 41 47  1  1  0  0  0
 42 41  1  0  0  0  0
 42 43  2  0  0  0  0
 44 42  1  0  0  0  0
 45 40  1  0  0  0  0
 46 39  1  6  0  0  0
 46 45  1  0  0  0  0
 46 44  1  0  0  0  0
 48 47  1  0  0  0  0
 49 50  1  0  0  0  0
 51 53  1  0  0  0  0
 52 54  1  0  0  0  0
 53 52  2  0  0  0  0
 55 54  1  0  0  0  0
M  END
>  <MODEL>
6

>  <REMARK>
 VINA RESULT:      -7.0      2.963     10.206
  Name = 
  16 active torsions:
  status: ('A' for Active; 'I' for Inactive)
    1  A    between atoms: N_2  and  C_16
    2  A    between atoms: C_3  and  N_7
    3  A    between atoms: C_4  and  C_27
    4  A    between atoms: C_5  and  C_35
    5  A    between atoms: C_6  and  N_52
    6  A    between atoms: C_10  and  C_26
    7  A    between atoms: C_16  and  C_42
    8  A    between atoms: O_18  and  C_30
    9  A    between atoms: C_27  and  C_49
   10  A    between atoms: C_30  and  C_44
   11  A    between atoms: C_30  and  C_48
   12  A    between atoms: C_36  and  C_54
   13  A    between atoms: C_36  and  N_55
   14  A    between atoms: C_43  and  C_44
   15  A    between atoms: C_43  and  N_50
   16  A    between atoms: C_53  and  N_55
                            x       y       z     vdW  Elec       q    Type
                         _______ _______ _______ _____ _____    ______ ____

>  <TORSDO>
F 16

$$$$
=
 OpenBabel11042410173D

 55 60  0  0  1  0  0  0  0  0999 V2000
  183.6100  178.0100  139.8770 C   0  0  2  0  0  3  0  0  0  0  0  0
  182.4250  178.4010  140.8200 C   0  0  1  0  0  3  0  0  0  0  0  0
  183.3860  179.2730  144.4340 C   0  0  0  0  0  3  0  0  0  0  0  0
  185.3050  178.5690  143.1120 C   0  0  0  0  0  3  0  0  0  0  0  0
  183.1090  178.6810  142.1200 C   0  0  0  0  0  0  0  0  0  0  0  0
  182.5450  179.1050  143.3230 C   0  0  0  0  0  3  0  0  0  0  0  0
  184.4480  178.4140  142.0250 C   0  0  0  0  0  0  0  0  0  0  0  0
  184.8030  177.9920  140.7260 N   0  0  0  0  0  0  0  0  0  0  0  0
  184.7650  179.0040  144.3370 C   0  0  0  0  0  0  0  0  0  0  0  0
  180.1750  180.7430  138.7930 N   0  0  0  0  0  2  0  0  0  0  0  0
  180.8320  178.5300  138.4420 O   0  0  0  0  0  0  0  0  0  0  0  0
  180.8980  179.5690  139.1610 C   0  0  0  0  0  0  0  0  0  0  0  0
  181.6890  179.5730  140.3510 N   0  0  0  0  0  2  0  0  0  0  0  0
  179.4050  180.8290  137.5600 C   0  0  1  0  0  3  0  0  0  0  0  0
  180.9260  183.3050  136.4840 O   0  0  0  0  0  1  0  0  0  0  0  0
  179.9020  179.9920  135.2720 C   0  0  0  0  0  1  0  0  0  0  0  0
  178.9390  182.2660  137.3480 C   0  0  0  0  0  2  0  0  0  0  0  0
  179.9000  182.4030  136.1810 C   0  0  2  0  0  0  0  0  0  0  0  0
  180.3530  180.9500  136.3720 C   0  0  1  0  0  3  0  0  0  0  0  0
  179.1780  182.7640  134.8810 C   0  0  0  0  0  2  0  0  0  0  0  0
  179.3110  184.1720  134.6100 N   0  0  0  0  0  0  0  0  0  0  0  0
  178.9310  185.0280  135.4850 C   0  0  0  0  0  2  0  0  0  0  0  0
  185.5900  179.1950  145.4910 N   0  0  0  0  0  2  0  0  0  0  0  0
  185.3530  178.7240  147.7960 O   0  0  0  0  0  1  0  0  0  0  0  0
  185.8080  178.2290  146.5720 C   0  0  2  0  0  3  0  0  0  0  0  0
  189.9740  176.7780  144.3480 C   0  0  0  0  0  0  0  0  0  0  0  0
  191.2850  176.4300  144.4430 N   0  0  0  0  0  0  0  0  0  0  0  0
  189.2610  177.0920  145.5110 C   0  0  0  0  0  0  0  0  0  0  0  0
  189.2220  176.8330  142.7590 Cl  0  0  0  0  0  0  0  0  0  0  0  0
  189.9290  177.0150  146.7490 C   0  0  0  0  0  0  0  0  0  0  0  0
  187.9080  177.6970  147.8850 C   0  0  0  0  0  3  0  0  0  0  0  0
  191.9170  176.3710  145.6460 C   0  0  0  0  0  3  0  0  0  0  0  0
  191.2410  176.6600  146.7880 N   0  0  0  0  0  0  0  0  0  0  0  0
  189.2500  177.3120  147.9330 C   0  0  0  0  0  3  0  0  0  0  0  0
  187.9170  177.4830  145.4740 C   0  0  0  0  0  3  0  0  0  0  0  0
  187.2400  177.7940  146.6560 C   0  0  0  0  0  0  0  0  0  0  0  0
  186.1250  177.5260  140.3210 C   0  0  0  0  0  2  0  0  0  0  0  0
  187.0450  178.7110  140.0350 C   0  0  0  0  0  2  0  0  0  0  0  0
  187.9030  178.4620  138.7840 C   0  0  2  0  0  3  0  0  0  0  0  0
  188.4880  175.1760  137.0060 O   0  0  0  0  0  0  0  0  0  0  0  0
  189.8940  175.2430  136.9110 C   0  0  1  0  0  3  0  0  0  0  0  0
  190.4790  175.8580  138.1660 C   0  0  0  0  0  0  0  0  0  0  0  0
  191.6840  175.6770  138.4830 O   0  0  0  0  0  0  0  0  0  0  0  0
  189.6740  176.7760  138.9210 N   0  0  0  0  0  2  0  0  0  0  0  0
  188.0090  176.4970  137.1400 C   0  0  0  0  0  2  0  0  0  0  0  0
  188.2740  176.9870  138.5720 C   0  0  2  0  0  3  0  0  0  0  0  0
  190.4350  173.8360  136.6630 C   0  0  0  0  0  2  0  0  0  0  0  0
  189.4270  173.0140  136.0150 N   0  0  0  0  0  1  0  0  0  0  0  0
  189.0090  179.3300  138.6720 O   0  0  0  0  0  0  0  0  0  0  0  0
  188.9960  179.8200  137.4460 O   0  0  0  0  0  1  0  0  0  0  0  0
  183.8200  178.9120  138.6490 C   0  0  0  0  0  2  0  0  0  0  0  0
  183.9230  176.8130  137.3830 C   0  0  0  0  0  3  0  0  0  0  0  0
  183.7970  178.1420  137.3650 C   0  0  0  0  0  3  0  0  0  0  0  0
  183.8960  176.0570  136.1020 C   0  0  0  0  0  2  0  0  0  0  0  0
  184.2430  176.9910  134.9620 C   0  0  0  0  0  1  0  0  0  0  0  0
  1 51  1  6  0  0  0
  1  8  1  0  0  0  0
  1  2  1  0  0  0  0
  2 13  1  6  0  0  0
  2  5  1  0  0  0  0
  4  9  2  0  0  0  0
  5  6  1  0  0  0  0
  6  3  2  0  0  0  0
  7  5  2  0  0  0  0
  7  4  1  0  0  0  0
  8  7  1  0  0  0  0
  9  3  1  0  0  0  0
  9 23  1  0  0  0  0
 10 12  1  0  0  0  0
 11 12  2  0  0  0  0
 12 13  1  0  0  0  0
 14 10  1  1  0  0  0
 17 14  1  0  0  0  0
 18 19  1  0  0  0  0
 18 15  1  1  0  0  0
 18 17  1  0  0  0  0
 19 16  1  6  0  0  0
 19 14  1  0  0  0  0
 20 18  1  0  0  0  0
 21 20  1  0  0  0  0
 21 22  2  0  0  0  0
 23 25  1  0  0  0  0
 25 36  1  0  0  0  0
 25 24  1  1  0  0  0
 26 27  2  0  0  0  0
 26 28  1  0  0  0  0
 27 32  1  0  0  0  0
 28 30  1  0  0  0  0
 29 26  1  0  0  0  0
 30 33  1  0  0  0  0
 30 34  2  0  0  0  0
 31 34  1  0  0  0  0
 32 33  2  0  0  0  0
 35 28  2  0  0  0  0
 35 36  1  0  0  0  0
 36 31  2  0  0  0  0
 37  8  1  0  0  0  0
 38 37  1  0  0  0  0
 39 38  1  1  0  0  0
 40 45  1  0  0  0  0
 41 47  1  1  0  0  0
 41 40  1  0  0  0  0
 41 42  1  0  0  0  0
 42 43  2  0  0  0  0
 42 44  1  0  0  0  0
 45 46  1  0  0  0  0
 46 39  1  6  0  0  0
 46 44  1  0  0  0  0
 48 47  1  0  0  0  0
 49 39  1  0  0  0  0
 50 49  1  0  0  0  0
 53 52  2  0  0  0  0
 53 51  1  0  0  0  0
 54 52  1  0  0  0  0
 55 54  1  0  0  0  0
M  END
>  <MODEL>
7

>  <REMARK>
 VINA RESULT:      -6.9      3.460     10.051
  Name = 
  16 active torsions:
  status: ('A' for Active; 'I' for Inactive)
    1  A    between atoms: N_2  and  C_16
    2  A    between atoms: C_3  and  N_7
    3  A    between atoms: C_4  and  C_27
    4  A    between atoms: C_5  and  C_35
    5  A    between atoms: C_6  and  N_52
    6  A    between atoms: C_10  and  C_26
    7  A    between atoms: C_16  and  C_42
    8  A    between atoms: O_18  and  C_30
    9  A    between atoms: C_27  and  C_49
   10  A    between atoms: C_30  and  C_44
   11  A    between atoms: C_30  and  C_48
   12  A    between atoms: C_36  and  C_54
   13  A    between atoms: C_36  and  N_55
   14  A    between atoms: C_43  and  C_44
   15  A    between atoms: C_43  and  N_50
   16  A    between atoms: C_53  and  N_55
                            x       y       z     vdW  Elec       q    Type
                         _______ _______ _______ _____ _____    ______ ____

>  <TORSDO>
F 16

$$$$
=
 OpenBabel11042410173D

 55 60  0  0  1  0  0  0  0  0999 V2000
  187.4940  177.5980  139.5630 C   0  0  2  0  0  3  0  0  0  0  0  0
  187.4960  176.6860  138.2930 C   0  0  1  0  0  3  0  0  0  0  0  0
  184.3850  176.9360  136.0550 C   0  0  0  0  0  3  0  0  0  0  0  0
  184.1990  178.3140  138.0530 C   0  0  0  0  0  3  0  0  0  0  0  0
  186.1870  177.0090  137.6460 C   0  0  0  0  0  0  0  0  0  0  0  0
  185.6620  176.5100  136.4540 C   0  0  0  0  0  3  0  0  0  0  0  0
  185.4690  177.8780  138.4230 C   0  0  0  0  0  0  0  0  0  0  0  0
  186.1820  178.2470  139.5830 N   0  0  0  0  0  0  0  0  0  0  0  0
  183.6480  177.8330  136.8500 C   0  0  0  0  0  0  0  0  0  0  0  0
  190.5740  176.3170  136.0470 N   0  0  0  0  0  2  0  0  0  0  0  0
  189.4300  174.7790  137.3800 O   0  0  0  0  0  0  0  0  0  0  0  0
  189.5360  175.9680  136.9610 C   0  0  0  0  0  0  0  0  0  0  0  0
  188.6110  176.9690  137.3920 N   0  0  0  0  0  2  0  0  0  0  0  0
  191.5880  175.3640  135.6200 C   0  0  1  0  0  3  0  0  0  0  0  0
  193.9380  176.8790  136.9530 O   0  0  0  0  0  1  0  0  0  0  0  0
  192.6280  173.4500  136.8200 C   0  0  0  0  0  1  0  0  0  0  0  0
  192.7650  176.1120  135.0020 C   0  0  0  0  0  2  0  0  0  0  0  0
  193.6240  175.7440  136.1990 C   0  0  2  0  0  0  0  0  0  0  0  0
  192.4520  174.9670  136.8120 C   0  0  1  0  0  3  0  0  0  0  0  0
  194.8710  174.9560  135.7910 C   0  0  0  0  0  2  0  0  0  0  0  0
  195.9630  175.2560  136.6800 N   0  0  0  0  0  0  0  0  0  0  0  0
  196.3130  174.4030  137.5710 C   0  0  0  0  0  2  0  0  0  0  0  0
  182.3520  178.2490  136.4050 N   0  0  0  0  0  2  0  0  0  0  0  0
  180.0300  178.0920  135.9900 O   0  0  0  0  0  1  0  0  0  0  0  0
  181.0660  177.6940  136.8360 C   0  0  2  0  0  3  0  0  0  0  0  0
  179.6960  180.9760  140.2660 C   0  0  0  0  0  0  0  0  0  0  0  0
  179.3810  181.2440  141.5610 N   0  0  0  0  0  0  0  0  0  0  0  0
  180.0800  179.6780  139.9070 C   0  0  0  0  0  0  0  0  0  0  0  0
  179.5960  182.2700  139.0810 Cl  0  0  0  0  0  0  0  0  0  0  0  0
  180.1460  178.6950  140.9150 C   0  0  0  0  0  0  0  0  0  0  0  0
  180.8450  177.0600  139.2790 C   0  0  0  0  0  3  0  0  0  0  0  0
  179.4410  180.2800  142.5200 C   0  0  0  0  0  3  0  0  0  0  0  0
  179.8230  179.0180  142.1950 N   0  0  0  0  0  0  0  0  0  0  0  0
  180.5340  177.3910  140.5990 C   0  0  0  0  0  3  0  0  0  0  0  0
  180.3890  179.3350  138.5860 C   0  0  0  0  0  3  0  0  0  0  0  0
  180.7630  178.0260  138.2660 C   0  0  0  0  0  0  0  0  0  0  0  0
  185.6590  179.0690  140.6700 C   0  0  0  0  0  2  0  0  0  0  0  0
  184.9830  178.1940  141.7240 C   0  0  0  0  0  2  0  0  0  0  0  0
  184.7520  178.9730  143.0300 C   0  0  2  0  0  3  0  0  0  0  0  0
  186.9490  177.0380  145.4230 O   0  0  0  0  0  0  0  0  0  0  0  0
  187.2680  178.0910  146.3040 C   0  0  1  0  0  3  0  0  0  0  0  0
  186.0670  178.9950  146.5030 C   0  0  0  0  0  0  0  0  0  0  0  0
  185.9760  179.7520  147.5050 O   0  0  0  0  0  0  0  0  0  0  0  0
  185.0950  179.0860  145.4520 N   0  0  0  0  0  2  0  0  0  0  0  0
  186.5940  177.6140  144.1840 C   0  0  0  0  0  2  0  0  0  0  0  0
  185.1810  178.2090  144.2900 C   0  0  2  0  0  3  0  0  0  0  0  0
  187.7530  177.4950  147.6240 C   0  0  0  0  0  2  0  0  0  0  0  0
  188.8650  178.2700  148.1500 N   0  0  0  0  0  1  0  0  0  0  0  0
  183.4610  179.5310  143.1360 O   0  0  0  0  0  0  0  0  0  0  0  0
  182.6830  178.6100  143.6730 O   0  0  0  0  0  1  0  0  0  0  0  0
  188.6260  178.6380  139.6490 C   0  0  0  0  0  2  0  0  0  0  0  0
  190.1180  177.2900  141.0540 C   0  0  0  0  0  3  0  0  0  0  0  0
  189.4830  178.4490  140.8610 C   0  0  0  0  0  3  0  0  0  0  0  0
  190.9700  177.1140  142.2610 C   0  0  0  0  0  2  0  0  0  0  0  0
  190.2970  177.7690  143.4490 C   0  0  0  0  0  1  0  0  0  0  0  0
  1  8  1  0  0  0  0
  1 51  1  6  0  0  0
  2 13  1  6  0  0  0
  2  1  1  0  0  0  0
  3  6  2  0  0  0  0
  3  9  1  0  0  0  0
  4  7  1  0  0  0  0
  5  2  1  0  0  0  0
  5  7  2  0  0  0  0
  6  5  1  0  0  0  0
  7  8  1  0  0  0  0
  8 37  1  0  0  0  0
  9  4  2  0  0  0  0
 10 12  1  0  0  0  0
 12 11  2  0  0  0  0
 12 13  1  0  0  0  0
 14 10  1  1  0  0  0
 14 19  1  0  0  0  0
 17 14  1  0  0  0  0
 17 18  1  0  0  0  0
 18 19  1  0  0  0  0
 18 15  1  1  0  0  0
 19 16  1  6  0  0  0
 20 18  1  0  0  0  0
 20 21  1  0  0  0  0
 21 22  2  0  0  0  0
 23 25  1  0  0  0  0
 23  9  1  0  0  0  0
 25 24  1  6  0  0  0
 25 36  1  0  0  0  0
 26 27  1  0  0  0  0
 27 32  2  0  0  0  0
 28 26  2  0  0  0  0
 28 30  1  0  0  0  0
 29 26  1  0  0  0  0
 30 33  2  0  0  0  0
 31 34  2  0  0  0  0
 33 32  1  0  0  0  0
 34 30  1  0  0  0  0
 35 28  1  0  0  0  0
 36 35  2  0  0  0  0
 36 31  1  0  0  0  0
 37 38  1  0  0  0  0
 39 38  1  6  0  0  0
 39 49  1  0  0  0  0
 40 41  1  0  0  0  0
 41 42  1  0  0  0  0
 41 47  1  1  0  0  0
 42 43  2  0  0  0  0
 44 42  1  0  0  0  0
 45 46  1  0  0  0  0
 45 40  1  0  0  0  0
 46 39  1  6  0  0  0
 46 44  1  0  0  0  0
 47 48  1  0  0  0  0
 49 50  1  0  0  0  0
 51 53  1  0  0  0  0
 52 54  1  0  0  0  0
 53 52  2  0  0  0  0
 54 55  1  0  0  0  0
M  END
>  <MODEL>
8

>  <REMARK>
 VINA RESULT:      -6.9      3.065      7.488
  Name = 
  16 active torsions:
  status: ('A' for Active; 'I' for Inactive)
    1  A    between atoms: N_2  and  C_16
    2  A    between atoms: C_3  and  N_7
    3  A    between atoms: C_4  and  C_27
    4  A    between atoms: C_5  and  C_35
    5  A    between atoms: C_6  and  N_52
    6  A    between atoms: C_10  and  C_26
    7  A    between atoms: C_16  and  C_42
    8  A    between atoms: O_18  and  C_30
    9  A    between atoms: C_27  and  C_49
   10  A    between atoms: C_30  and  C_44
   11  A    between atoms: C_30  and  C_48
   12  A    between atoms: C_36  and  C_54
   13  A    between atoms: C_36  and  N_55
   14  A    between atoms: C_43  and  C_44
   15  A    between atoms: C_43  and  N_50
   16  A    between atoms: C_53  and  N_55
                            x       y       z     vdW  Elec       q    Type
                         _______ _______ _______ _____ _____    ______ ____

>  <TORSDO>
F 16

$$$$
=
 OpenBabel11042410173D

 55 60  0  0  1  0  0  0  0  0999 V2000
  183.5490  178.9880  138.9290 C   0  0  2  0  0  3  0  0  0  0  0  0
  185.1040  179.0000  139.0900 C   0  0  1  0  0  3  0  0  0  0  0  0
  186.4220  178.2330  142.6140 C   0  0  0  0  0  3  0  0  0  0  0  0
  183.9900  178.3000  142.5320 C   0  0  0  0  0  3  0  0  0  0  0  0
  185.2940  178.6700  140.5360 C   0  0  0  0  0  0  0  0  0  0  0  0
  186.4880  178.5130  141.2400 C   0  0  0  0  0  3  0  0  0  0  0  0
  184.0840  178.5740  141.1690 C   0  0  0  0  0  0  0  0  0  0  0  0
  183.0120  178.7740  140.2740 N   0  0  0  0  0  0  0  0  0  0  0  0
  185.1790  178.1290  143.2670 C   0  0  0  0  0  0  0  0  0  0  0  0
  187.7510  177.0560  137.1240 N   0  0  0  0  0  2  0  0  0  0  0  0
  187.8820  179.0140  138.3890 O   0  0  0  0  0  0  0  0  0  0  0  0
  187.1670  178.0750  137.9340 C   0  0  0  0  0  0  0  0  0  0  0  0
  185.7710  178.0210  138.2350 N   0  0  0  0  0  2  0  0  0  0  0  0
  189.1510  177.0870  136.7240 C   0  0  1  0  0  3  0  0  0  0  0  0
  189.7080  174.1470  137.5290 O   0  0  0  0  0  1  0  0  0  0  0  0
  190.2600  176.3340  134.6300 C   0  0  0  0  0  1  0  0  0  0  0  0
  190.0140  176.5100  137.8420 C   0  0  0  0  0  2  0  0  0  0  0  0
  190.3040  175.2910  136.9850 C   0  0  2  0  0  0  0  0  0  0  0  0
  189.4590  175.8780  135.8480 C   0  0  1  0  0  3  0  0  0  0  0  0
  191.8030  175.1010  136.7420 C   0  0  0  0  0  2  0  0  0  0  0  0
  192.0380  173.8990  135.9850 N   0  0  0  0  0  0  0  0  0  0  0  0
  192.8450  173.0100  136.4330 C   0  0  0  0  0  2  0  0  0  0  0  0
  185.1540  177.8350  144.6680 N   0  0  0  0  0  2  0  0  0  0  0  0
  185.6480  180.0470  145.3400 O   0  0  0  0  0  1  0  0  0  0  0  0
  185.6180  178.7120  145.7470 C   0  0  2  0  0  3  0  0  0  0  0  0
  190.2150  177.0630  145.0060 C   0  0  0  0  0  0  0  0  0  0  0  0
  191.4250  176.7160  145.5210 N   0  0  0  0  0  0  0  0  0  0  0  0
  189.1930  177.4730  145.8710 C   0  0  0  0  0  0  0  0  0  0  0  0
  189.9810  176.9970  143.2650 Cl  0  0  0  0  0  0  0  0  0  0  0  0
  189.4530  177.4900  147.2560 C   0  0  0  0  0  0  0  0  0  0  0  0
  187.2050  178.2720  147.6710 C   0  0  0  0  0  3  0  0  0  0  0  0
  191.6620  176.7480  146.8600 C   0  0  0  0  0  3  0  0  0  0  0  0
  190.6810  177.1310  147.7170 N   0  0  0  0  0  0  0  0  0  0  0  0
  188.4570  177.8830  148.1520 C   0  0  0  0  0  3  0  0  0  0  0  0
  187.9370  177.8680  145.3990 C   0  0  0  0  0  3  0  0  0  0  0  0
  186.9430  178.2760  146.2930 C   0  0  0  0  0  0  0  0  0  0  0  0
  181.6030  178.8460  140.6470 C   0  0  0  0  0  2  0  0  0  0  0  0
  180.7380  178.1340  139.6090 C   0  0  0  0  0  2  0  0  0  0  0  0
  179.8910  177.0250  140.2560 C   0  0  2  0  0  3  0  0  0  0  0  0
  178.9330  175.5120  136.9260 O   0  0  0  0  0  0  0  0  0  0  0  0
  179.7780  174.3840  136.9630 C   0  0  1  0  0  3  0  0  0  0  0  0
  179.8510  173.8250  138.3700 C   0  0  0  0  0  0  0  0  0  0  0  0
  180.2110  172.6380  138.5850 O   0  0  0  0  0  0  0  0  0  0  0  0
  179.6420  174.7170  139.4750 N   0  0  0  0  0  2  0  0  0  0  0  0
  179.4880  176.4870  137.7810 C   0  0  0  0  0  2  0  0  0  0  0  0
  179.2150  176.0920  139.2410 C   0  0  2  0  0  3  0  0  0  0  0  0
  179.2570  173.3490  135.9680 C   0  0  0  0  0  2  0  0  0  0  0  0
  180.3440  172.8490  135.1430 N   0  0  0  0  0  1  0  0  0  0  0  0
  179.0070  177.4930  141.2500 O   0  0  0  0  0  0  0  0  0  0  0  0
  179.5970  177.3000  142.4160 O   0  0  0  0  0  1  0  0  0  0  0  0
  182.9810  177.9570  137.9370 C   0  0  0  0  0  2  0  0  0  0  0  0
  183.1010  175.5230  137.6530 C   0  0  0  0  0  3  0  0  0  0  0  0
  183.7250  176.6590  137.9760 C   0  0  0  0  0  3  0  0  0  0  0  0
  183.8500  174.2390  137.6920 C   0  0  0  0  0  2  0  0  0  0  0  0
  184.2510  173.8500  136.2840 C   0  0  0  0  0  1  0  0  0  0  0  0
  1 51  1  6  0  0  0
  1  2  1  0  0  0  0
  1  8  1  0  0  0  0
  2 13  1  6  0  0  0
  2  5  1  0  0  0  0
  3  9  1  0  0  0  0
  4  9  2  0  0  0  0
  5  7  2  0  0  0  0
  5  6  1  0  0  0  0
  6  3  2  0  0  0  0
  7  4  1  0  0  0  0
  8 37  1  0  0  0  0
  8  7  1  0  0  0  0
  9 23  1  0  0  0  0
 10 12  1  0  0  0  0
 12 13  1  0  0  0  0
 12 11  2  0  0  0  0
 14 10  1  1  0  0  0
 14 17  1  0  0  0  0
 18 15  1  1  0  0  0
 18 17  1  0  0  0  0
 19 16  1  6  0  0  0
 19 14  1  0  0  0  0
 19 18  1  0  0  0  0
 20 18  1  0  0  0  0
 21 22  2  0  0  0  0
 21 20  1  0  0  0  0
 23 25  1  0  0  0  0
 25 24  1  6  0  0  0
 25 36  1  0  0  0  0
 26 27  2  0  0  0  0
 26 28  1  0  0  0  0
 27 32  1  0  0  0  0
 28 30  1  0  0  0  0
 29 26  1  0  0  0  0
 30 33  1  0  0  0  0
 30 34  2  0  0  0  0
 31 34  1  0  0  0  0
 32 33  2  0  0  0  0
 35 28  2  0  0  0  0
 35 36  1  0  0  0  0
 36 31  2  0  0  0  0
 38 37  1  0  0  0  0
 39 38  1  6  0  0  0
 39 49  1  0  0  0  0
 40 41  1  0  0  0  0
 40 45  1  0  0  0  0
 41 47  1  6  0  0  0
 41 42  1  0  0  0  0
 42 43  2  0  0  0  0
 42 44  1  0  0  0  0
 45 46  1  0  0  0  0
 46 44  1  0  0  0  0
 46 39  1  1  0  0  0
 48 47  1  0  0  0  0
 49 50  1  0  0  0  0
 51 53  1  0  0  0  0
 52 54  1  0  0  0  0
 52 53  2  0  0  0  0
 55 54  1  0  0  0  0
M  END
>  <MODEL>
9

>  <REMARK>
 VINA RESULT:      -6.7      2.701      5.193
  Name = 
  16 active torsions:
  status: ('A' for Active; 'I' for Inactive)
    1  A    between atoms: N_2  and  C_16
    2  A    between atoms: C_3  and  N_7
    3  A    between atoms: C_4  and  C_27
    4  A    between atoms: C_5  and  C_35
    5  A    between atoms: C_6  and  N_52
    6  A    between atoms: C_10  and  C_26
    7  A    between atoms: C_16  and  C_42
    8  A    between atoms: O_18  and  C_30
    9  A    between atoms: C_27  and  C_49
   10  A    between atoms: C_30  and  C_44
   11  A    between atoms: C_30  and  C_48
   12  A    between atoms: C_36  and  C_54
   13  A    between atoms: C_36  and  N_55
   14  A    between atoms: C_43  and  C_44
   15  A    between atoms: C_43  and  N_50
   16  A    between atoms: C_53  and  N_55
                            x       y       z     vdW  Elec       q    Type
                         _______ _______ _______ _____ _____    ______ ____

>  <TORSDO>
F 16

$$$$
