=
 OpenBabel11032419183D

 25 26  0  0  1  0  0  0  0  0999 V2000
  190.9970  177.1270  146.1880 C   0  0  1  0  0  3  0  0  0  0  0  0
  189.5630  176.6590  144.2110 C   0  0  1  0  0  3  0  0  0  0  0  0
  191.0020  176.5770  144.7450 C   0  0  0  0  0  2  0  0  0  0  0  0
  189.5750  177.4670  146.4380 C   0  0  0  0  0  0  0  0  0  0  0  0
  187.4030  177.4560  145.3700 C   0  0  0  0  0  0  0  0  0  0  0  0
  186.8370  177.9960  146.5570 C   0  0  0  0  0  0  0  0  0  0  0  0
  188.7830  177.2110  145.3470 C   0  0  0  0  0  0  0  0  0  0  0  0
  187.6720  178.2660  147.6610 C   0  0  0  0  0  3  0  0  0  0  0  0
  189.0450  178.0030  147.6080 C   0  0  0  0  0  3  0  0  0  0  0  0
  192.2650  176.8470  148.1070 N   0  0  0  0  0  1  0  0  0  0  0  0
  192.3030  175.2610  146.5580 O   0  0  0  0  0  1  0  0  0  0  0  0
  191.4850  176.1520  147.1720 N   0  0  0  0  0  0  0  0  0  0  0  0
  189.7810  177.1700  141.7450 C   0  0  0  0  0  0  0  0  0  0  0  0
  190.0640  175.9680  141.4910 O   0  0  0  0  0  0  0  0  0  0  0  0
  189.5090  177.5810  143.0850 N   0  0  0  0  0  2  0  0  0  0  0  0
  189.6690  178.1740  140.6350 C   0  0  1  0  0  3  0  0  0  0  0  0
  190.4810  177.8450  139.5400 O   0  0  0  0  0  1  0  0  0  0  0  0
  188.3320  178.4180  140.2510 O   0  0  0  0  0  0  0  0  0  0  0  0
  186.7100  178.0780  138.5380 C   0  0  0  0  0  1  0  0  0  0  0  0
  188.1820  178.0930  138.8920 C   0  0  0  0  0  2  0  0  0  0  0  0
  185.4010  178.2880  146.6700 C   0  0  0  0  0  3  0  0  0  0  0  0
  184.9000  179.3320  146.1750 O   0  0  0  0  0  0  0  0  0  0  0  0
  186.6600  177.1560  144.2170 O   0  0  0  0  0  0  0  0  0  0  0  0
  186.4500  178.0350  143.2300 O   0  0  0  0  0  0  0  0  0  0  0  0
  185.0760  177.9790  143.0000 C   0  0  0  0  0  1  0  0  0  0  0  0
  1  4  1  0  0  0  0
  1 12  1  1  0  0  0
  2 15  1  6  0  0  0
  2  3  1  0  0  0  0
  2  7  1  0  0  0  0
  3  1  1  0  0  0  0
  4  9  1  0  0  0  0
  5  6  2  0  0  0  0
  6 21  1  0  0  0  0
  6  8  1  0  0  0  0
  7  5  1  0  0  0  0
  7  4  2  0  0  0  0
  9  8  2  0  0  0  0
 11 12  1  0  0  0  0
 12 10  1  0  0  0  0
 13 15  1  0  0  0  0
 14 13  2  0  0  0  0
 16 17  1  6  0  0  0
 16 13  1  0  0  0  0
 18 16  1  0  0  0  0
 19 20  1  0  0  0  0
 20 18  1  0  0  0  0
 22 21  2  0  0  0  0
 23  5  1  0  0  0  0
 24 23  1  0  0  0  0
 25 24  1  0  0  0  0
M  END
>  <MODEL>
1

>  <REMARK>
 VINA RESULT:      -7.4      0.000      0.000
  Name = 
  8 active torsions:
  status: ('A' for Active; 'I' for Inactive)
    1  A    between atoms: C_1  and  C_7
    2  A    between atoms: C_1  and  O_8
    3  A    between atoms: C_2  and  N_12
    4  A    between atoms: C_4  and  N_24
    5  A    between atoms: O_8  and  C_19
    6  A    between atoms: O_11  and  O_17
    7  A    between atoms: C_13  and  O_17
    8  A    between atoms: C_15  and  C_18
                            x       y       z     vdW  Elec       q    Type
                         _______ _______ _______ _____ _____    ______ ____

>  <TORSDO>
F 8

$$$$
=
 OpenBabel11032419183D

 25 26  0  0  1  0  0  0  0  0999 V2000
  186.3230  177.9210  143.2380 C   0  0  1  0  0  3  0  0  0  0  0  0
  188.2810  178.3680  141.7720 C   0  0  1  0  0  3  0  0  0  0  0  0
  186.7450  178.3930  141.8300 C   0  0  0  0  0  2  0  0  0  0  0  0
  187.6080  177.6780  143.9360 C   0  0  0  0  0  0  0  0  0  0  0  0
  190.0030  177.7620  143.5920 C   0  0  0  0  0  0  0  0  0  0  0  0
  190.1920  177.3190  144.9300 C   0  0  0  0  0  0  0  0  0  0  0  0
  188.6900  177.9240  143.1290 C   0  0  0  0  0  0  0  0  0  0  0  0
  189.0660  177.0580  145.7380 C   0  0  0  0  0  3  0  0  0  0  0  0
  187.7690  177.2360  145.2460 C   0  0  0  0  0  3  0  0  0  0  0  0
  184.3990  178.2510  144.4860 N   0  0  0  0  0  1  0  0  0  0  0  0
  185.0450  179.8360  143.0750 O   0  0  0  0  0  1  0  0  0  0  0  0
  185.5130  178.9150  143.9540 N   0  0  0  0  0  0  0  0  0  0  0  0
  188.9830  177.7470  139.4250 C   0  0  0  0  0  0  0  0  0  0  0  0
  188.8580  178.9410  139.0400 O   0  0  0  0  0  0  0  0  0  0  0  0
  188.7190  177.3940  140.7830 N   0  0  0  0  0  2  0  0  0  0  0  0
  189.4670  176.6900  138.4750 C   0  0  1  0  0  3  0  0  0  0  0  0
  188.4660  176.2820  137.5830 O   0  0  0  0  0  1  0  0  0  0  0  0
  190.6570  177.0560  137.8090 O   0  0  0  0  0  0  0  0  0  0  0  0
  192.9060  176.3600  137.4380 C   0  0  0  0  0  1  0  0  0  0  0  0
  191.4790  175.9230  137.6900 C   0  0  0  0  0  2  0  0  0  0  0  0
  191.5320  177.1190  145.5000 C   0  0  0  0  0  3  0  0  0  0  0  0
  191.7170  177.0660  146.7450 O   0  0  0  0  0  0  0  0  0  0  0  0
  191.0550  178.0450  142.7080 O   0  0  0  0  0  0  0  0  0  0  0  0
  191.8750  177.1060  142.2190 O   0  0  0  0  0  0  0  0  0  0  0  0
  192.2440  177.5860  140.9620 C   0  0  0  0  0  1  0  0  0  0  0  0
  1  4  1  0  0  0  0
  1 12  1  1  0  0  0
  2 15  1  6  0  0  0
  2  3  1  0  0  0  0
  2  7  1  0  0  0  0
  3  1  1  0  0  0  0
  4  9  1  0  0  0  0
  5  6  2  0  0  0  0
  6 21  1  0  0  0  0
  6  8  1  0  0  0  0
  7  5  1  0  0  0  0
  7  4  2  0  0  0  0
  9  8  2  0  0  0  0
 11 12  1  0  0  0  0
 12 10  1  0  0  0  0
 13 15  1  0  0  0  0
 14 13  2  0  0  0  0
 16 17  1  6  0  0  0
 16 13  1  0  0  0  0
 18 16  1  0  0  0  0
 19 20  1  0  0  0  0
 20 18  1  0  0  0  0
 21 22  2  0  0  0  0
 23  5  1  0  0  0  0
 24 23  1  0  0  0  0
 25 24  1  0  0  0  0
M  END
>  <MODEL>
2

>  <REMARK>
 VINA RESULT:      -6.9      2.867      5.150
  Name = 
  8 active torsions:
  status: ('A' for Active; 'I' for Inactive)
    1  A    between atoms: C_1  and  C_7
    2  A    between atoms: C_1  and  O_8
    3  A    between atoms: C_2  and  N_12
    4  A    between atoms: C_4  and  N_24
    5  A    between atoms: O_8  and  C_19
    6  A    between atoms: O_11  and  O_17
    7  A    between atoms: C_13  and  O_17
    8  A    between atoms: C_15  and  C_18
                            x       y       z     vdW  Elec       q    Type
                         _______ _______ _______ _____ _____    ______ ____

>  <TORSDO>
F 8

$$$$
=
 OpenBabel11032419183D

 25 26  0  0  1  0  0  0  0  0999 V2000
  188.5920  177.8510  146.1400 C   0  0  1  0  0  3  0  0  0  0  0  0
  187.9030  177.1550  143.8540 C   0  0  1  0  0  3  0  0  0  0  0  0
  189.0810  177.1740  144.8420 C   0  0  0  0  0  2  0  0  0  0  0  0
  187.1670  178.1610  145.8690 C   0  0  0  0  0  0  0  0  0  0  0  0
  185.4770  177.9740  144.1460 C   0  0  0  0  0  0  0  0  0  0  0  0
  184.5440  178.5980  145.0200 C   0  0  0  0  0  0  0  0  0  0  0  0
  186.7860  177.7780  144.6080 C   0  0  0  0  0  0  0  0  0  0  0  0
  184.9610  178.9970  146.3070 C   0  0  0  0  0  3  0  0  0  0  0  0
  186.2740  178.7810  146.7380 C   0  0  0  0  0  3  0  0  0  0  0  0
  188.8900  177.8190  148.4370 N   0  0  0  0  0  1  0  0  0  0  0  0
  189.8580  176.2460  147.2100 O   0  0  0  0  0  1  0  0  0  0  0  0
  188.7280  176.9880  147.3200 N   0  0  0  0  0  0  0  0  0  0  0  0
  188.9590  177.4580  141.5780 C   0  0  0  0  0  0  0  0  0  0  0  0
  189.3420  176.2570  141.5630 O   0  0  0  0  0  0  0  0  0  0  0  0
  188.2250  177.9690  142.6910 N   0  0  0  0  0  2  0  0  0  0  0  0
  189.2180  178.3510  140.4000 C   0  0  1  0  0  3  0  0  0  0  0  0
  190.2460  177.8630  139.5810 O   0  0  0  0  0  1  0  0  0  0  0  0
  188.0480  178.6440  139.6670 O   0  0  0  0  0  0  0  0  0  0  0  0
  186.9780  177.5650  137.8300 C   0  0  0  0  0  1  0  0  0  0  0  0
  188.2340  178.2440  138.3320 C   0  0  0  0  0  2  0  0  0  0  0  0
  183.1520  178.8460  144.6210 C   0  0  0  0  0  3  0  0  0  0  0  0
  182.8470  179.7930  143.8490 O   0  0  0  0  0  0  0  0  0  0  0  0
  185.1620  177.5440  142.8480 O   0  0  0  0  0  0  0  0  0  0  0  0
  185.0990  178.3710  141.7970 O   0  0  0  0  0  0  0  0  0  0  0  0
  183.9340  177.9960  141.1290 C   0  0  0  0  0  1  0  0  0  0  0  0
  1 12  1  1  0  0  0
  2 15  1  6  0  0  0
  2  7  1  0  0  0  0
  2  3  1  0  0  0  0
  3  1  1  0  0  0  0
  4  1  1  0  0  0  0
  4  9  1  0  0  0  0
  5  7  1  0  0  0  0
  5  6  2  0  0  0  0
  6  8  1  0  0  0  0
  7  4  2  0  0  0  0
  8  9  2  0  0  0  0
 11 12  1  0  0  0  0
 12 10  1  0  0  0  0
 13 15  1  0  0  0  0
 14 13  2  0  0  0  0
 16 17  1  6  0  0  0
 16 13  1  0  0  0  0
 18 16  1  0  0  0  0
 19 20  1  0  0  0  0
 20 18  1  0  0  0  0
 21  6  1  0  0  0  0
 22 21  2  0  0  0  0
 23  5  1  0  0  0  0
 24 23  1  0  0  0  0
 25 24  1  0  0  0  0
M  END
>  <MODEL>
3

>  <REMARK>
 VINA RESULT:      -6.8      1.703      2.219
  Name = 
  8 active torsions:
  status: ('A' for Active; 'I' for Inactive)
    1  A    between atoms: C_1  and  C_7
    2  A    between atoms: C_1  and  O_8
    3  A    between atoms: C_2  and  N_12
    4  A    between atoms: C_4  and  N_24
    5  A    between atoms: O_8  and  C_19
    6  A    between atoms: O_11  and  O_17
    7  A    between atoms: C_13  and  O_17
    8  A    between atoms: C_15  and  C_18
                            x       y       z     vdW  Elec       q    Type
                         _______ _______ _______ _____ _____    ______ ____

>  <TORSDO>
F 8

$$$$
=
 OpenBabel11032419183D

 25 26  0  0  1  0  0  0  0  0999 V2000
  185.1780  178.1660  143.8620 C   0  0  1  0  0  3  0  0  0  0  0  0
  185.5060  179.0650  141.5670 C   0  0  1  0  0  3  0  0  0  0  0  0
  184.5020  178.9640  142.7270 C   0  0  0  0  0  2  0  0  0  0  0  0
  186.5330  177.8710  143.3370 C   0  0  0  0  0  0  0  0  0  0  0  0
  187.9290  178.2030  141.3870 C   0  0  0  0  0  0  0  0  0  0  0  0
  188.9750  177.4940  142.0380 C   0  0  0  0  0  0  0  0  0  0  0  0
  186.7160  178.3660  142.0700 C   0  0  0  0  0  0  0  0  0  0  0  0
  188.7610  176.9800  143.3350 C   0  0  0  0  0  3  0  0  0  0  0  0
  187.5400  177.1660  143.9910 C   0  0  0  0  0  3  0  0  0  0  0  0
  185.5360  178.0020  146.1450 N   0  0  0  0  0  1  0  0  0  0  0  0
  184.0400  179.4590  145.3980 O   0  0  0  0  0  1  0  0  0  0  0  0
  185.2530  178.9160  145.1220 N   0  0  0  0  0  0  0  0  0  0  0  0
  184.4780  179.0540  139.2580 C   0  0  0  0  0  0  0  0  0  0  0  0
  184.4860  180.3140  139.2170 O   0  0  0  0  0  0  0  0  0  0  0  0
  184.9830  178.3650  140.4020 N   0  0  0  0  0  2  0  0  0  0  0  0
  183.9900  178.2590  138.0820 C   0  0  1  0  0  3  0  0  0  0  0  0
  184.8800  177.2350  137.7300 O   0  0  0  0  0  1  0  0  0  0  0  0
  182.6720  177.7830  138.2530 O   0  0  0  0  0  0  0  0  0  0  0  0
  182.2220  175.8950  139.6380 C   0  0  0  0  0  1  0  0  0  0  0  0
  182.6950  176.3780  138.2830 C   0  0  0  0  0  2  0  0  0  0  0  0
  190.2790  177.2730  141.3980 C   0  0  0  0  0  3  0  0  0  0  0  0
  190.4590  176.3350  140.5770 O   0  0  0  0  0  0  0  0  0  0  0  0
  188.0400  178.7500  140.0990 O   0  0  0  0  0  0  0  0  0  0  0  0
  187.9770  178.0140  138.9830 O   0  0  0  0  0  0  0  0  0  0  0  0
  188.9590  178.5530  138.1530 C   0  0  0  0  0  1  0  0  0  0  0  0
  1 12  1  1  0  0  0
  2 15  1  6  0  0  0
  2  7  1  0  0  0  0
  2  3  1  0  0  0  0
  3  1  1  0  0  0  0
  4  1  1  0  0  0  0
  4  9  1  0  0  0  0
  5  6  2  0  0  0  0
  5  7  1  0  0  0  0
  6  8  1  0  0  0  0
  7  4  2  0  0  0  0
  8  9  2  0  0  0  0
 12 11  1  0  0  0  0
 12 10  1  0  0  0  0
 13 15  1  0  0  0  0
 14 13  2  0  0  0  0
 16 17  1  1  0  0  0
 16 18  1  0  0  0  0
 16 13  1  0  0  0  0
 18 20  1  0  0  0  0
 20 19  1  0  0  0  0
 21  6  1  0  0  0  0
 22 21  2  0  0  0  0
 23  5  1  0  0  0  0
 24 23  1  0  0  0  0
 25 24  1  0  0  0  0
M  END
>  <MODEL>
4

>  <REMARK>
 VINA RESULT:      -6.7      3.350      6.068
  Name = 
  8 active torsions:
  status: ('A' for Active; 'I' for Inactive)
    1  A    between atoms: C_1  and  C_7
    2  A    between atoms: C_1  and  O_8
    3  A    between atoms: C_2  and  N_12
    4  A    between atoms: C_4  and  N_24
    5  A    between atoms: O_8  and  C_19
    6  A    between atoms: O_11  and  O_17
    7  A    between atoms: C_13  and  O_17
    8  A    between atoms: C_15  and  C_18
                            x       y       z     vdW  Elec       q    Type
                         _______ _______ _______ _____ _____    ______ ____

>  <TORSDO>
F 8

$$$$
=
 OpenBabel11032419183D

 25 26  0  0  1  0  0  0  0  0999 V2000
  185.1430  178.2490  143.9640 C   0  0  1  0  0  3  0  0  0  0  0  0
  185.4000  179.0330  141.6180 C   0  0  1  0  0  3  0  0  0  0  0  0
  184.4280  178.9810  142.8080 C   0  0  0  0  0  2  0  0  0  0  0  0
  186.4870  177.9420  143.4180 C   0  0  0  0  0  0  0  0  0  0  0  0
  187.8270  178.1880  141.4170 C   0  0  0  0  0  0  0  0  0  0  0  0
  188.8980  177.5230  142.0750 C   0  0  0  0  0  0  0  0  0  0  0  0
  186.6300  178.3730  142.1230 C   0  0  0  0  0  0  0  0  0  0  0  0
  188.7240  177.0750  143.4010 C   0  0  0  0  0  3  0  0  0  0  0  0
  187.5190  177.2810  144.0790 C   0  0  0  0  0  3  0  0  0  0  0  0
  184.2010  178.6780  146.0360 N   0  0  0  0  0  1  0  0  0  0  0  0
  185.0390  180.3690  144.8700 O   0  0  0  0  0  1  0  0  0  0  0  0
  185.2420  179.0640  145.1810 N   0  0  0  0  0  0  0  0  0  0  0  0
  184.4410  178.8850  139.2840 C   0  0  0  0  0  0  0  0  0  0  0  0
  184.5550  180.1300  139.1260 O   0  0  0  0  0  0  0  0  0  0  0  0
  184.8550  178.2700  140.5050 N   0  0  0  0  0  2  0  0  0  0  0  0
  183.9230  178.0230  138.1700 C   0  0  1  0  0  3  0  0  0  0  0  0
  182.6920  178.4780  137.6770 O   0  0  0  0  0  1  0  0  0  0  0  0
  184.8700  177.8320  137.1410 O   0  0  0  0  0  0  0  0  0  0  0  0
  185.7400  175.6180  136.9820 C   0  0  0  0  0  1  0  0  0  0  0  0
  184.6520  176.5760  136.5480 C   0  0  0  0  0  2  0  0  0  0  0  0
  190.1870  177.2830  141.4120 C   0  0  0  0  0  3  0  0  0  0  0  0
  190.3590  176.3010  140.6420 O   0  0  0  0  0  0  0  0  0  0  0  0
  187.8980  178.6690  140.1000 O   0  0  0  0  0  0  0  0  0  0  0  0
  187.8130  177.8770  139.0240 O   0  0  0  0  0  0  0  0  0  0  0  0
  188.7370  178.4080  138.1260 C   0  0  0  0  0  1  0  0  0  0  0  0
  1 12  1  1  0  0  0
  2 15  1  6  0  0  0
  2  7  1  0  0  0  0
  2  3  1  0  0  0  0
  3  1  1  0  0  0  0
  4  1  1  0  0  0  0
  4  9  1  0  0  0  0
  5  6  2  0  0  0  0
  5  7  1  0  0  0  0
  6  8  1  0  0  0  0
  7  4  2  0  0  0  0
  8  9  2  0  0  0  0
 11 12  1  0  0  0  0
 12 10  1  0  0  0  0
 13 15  1  0  0  0  0
 14 13  2  0  0  0  0
 16 17  1  6  0  0  0
 16 13  1  0  0  0  0
 18 16  1  0  0  0  0
 20 19  1  0  0  0  0
 20 18  1  0  0  0  0
 21  6  1  0  0  0  0
 22 21  2  0  0  0  0
 23  5  1  0  0  0  0
 24 23  1  0  0  0  0
 25 24  1  0  0  0  0
M  END
>  <MODEL>
5

>  <REMARK>
 VINA RESULT:      -6.5      3.455      6.048
  Name = 
  8 active torsions:
  status: ('A' for Active; 'I' for Inactive)
    1  A    between atoms: C_1  and  C_7
    2  A    between atoms: C_1  and  O_8
    3  A    between atoms: C_2  and  N_12
    4  A    between atoms: C_4  and  N_24
    5  A    between atoms: O_8  and  C_19
    6  A    between atoms: O_11  and  O_17
    7  A    between atoms: C_13  and  O_17
    8  A    between atoms: C_15  and  C_18
                            x       y       z     vdW  Elec       q    Type
                         _______ _______ _______ _____ _____    ______ ____

>  <TORSDO>
F 8

$$$$
=
 OpenBabel11032419183D

 25 26  0  0  1  0  0  0  0  0999 V2000
  185.3090  177.9050  143.7250 C   0  0  1  0  0  3  0  0  0  0  0  0
  187.4430  178.4170  142.5570 C   0  0  1  0  0  3  0  0  0  0  0  0
  185.9150  178.3910  142.3910 C   0  0  0  0  0  2  0  0  0  0  0  0
  186.4860  177.7060  144.6040 C   0  0  0  0  0  0  0  0  0  0  0  0
  188.9010  177.8690  144.6100 C   0  0  0  0  0  0  0  0  0  0  0  0
  188.9090  177.4330  145.9640 C   0  0  0  0  0  0  0  0  0  0  0  0
  187.6650  177.9870  143.9600 C   0  0  0  0  0  0  0  0  0  0  0  0
  187.6860  177.1350  146.6020 C   0  0  0  0  0  3  0  0  0  0  0  0
  186.4690  177.2700  145.9250 C   0  0  0  0  0  3  0  0  0  0  0  0
  183.1050  178.6210  143.7640 N   0  0  0  0  0  1  0  0  0  0  0  0
  184.7240  180.1280  143.9380 O   0  0  0  0  0  1  0  0  0  0  0  0
  184.3720  178.8720  144.3110 N   0  0  0  0  0  0  0  0  0  0  0  0
  188.5270  177.8250  140.3510 C   0  0  0  0  0  0  0  0  0  0  0  0
  188.4460  179.0190  139.9570 O   0  0  0  0  0  0  0  0  0  0  0  0
  188.0520  177.4570  141.6470 N   0  0  0  0  0  2  0  0  0  0  0  0
  189.1760  176.7830  139.4870 C   0  0  1  0  0  3  0  0  0  0  0  0
  188.5720  176.6900  138.2260 O   0  0  0  0  0  1  0  0  0  0  0  0
  190.5760  176.9420  139.3960 O   0  0  0  0  0  0  0  0  0  0  0  0
  192.5120  176.3770  138.1250 C   0  0  0  0  0  1  0  0  0  0  0  0
  191.0030  176.5010  138.1320 C   0  0  0  0  0  2  0  0  0  0  0  0
  190.1570  177.2780  146.7230 C   0  0  0  0  0  3  0  0  0  0  0  0
  190.2990  176.3630  147.5770 O   0  0  0  0  0  0  0  0  0  0  0  0
  190.0610  178.1870  143.8870 O   0  0  0  0  0  0  0  0  0  0  0  0
  190.6390  179.3940  143.9210 O   0  0  0  0  0  0  0  0  0  0  0  0
  191.9840  179.1300  144.1770 C   0  0  0  0  0  1  0  0  0  0  0  0
  1 12  1  1  0  0  0
  1  4  1  0  0  0  0
  2 15  1  6  0  0  0
  2  7  1  0  0  0  0
  3  2  1  0  0  0  0
  3  1  1  0  0  0  0
  4  9  1  0  0  0  0
  5  6  2  0  0  0  0
  6  8  1  0  0  0  0
  6 21  1  0  0  0  0
  7  4  2  0  0  0  0
  7  5  1  0  0  0  0
  9  8  2  0  0  0  0
 10 12  1  0  0  0  0
 11 12  1  0  0  0  0
 13 15  1  0  0  0  0
 14 13  2  0  0  0  0
 16 17  1  6  0  0  0
 16 13  1  0  0  0  0
 18 16  1  0  0  0  0
 19 20  1  0  0  0  0
 20 18  1  0  0  0  0
 21 22  2  0  0  0  0
 23 24  1  0  0  0  0
 23  5  1  0  0  0  0
 24 25  1  0  0  0  0
M  END
>  <MODEL>
6

>  <REMARK>
 VINA RESULT:      -6.4      2.697      4.965
  Name = 
  8 active torsions:
  status: ('A' for Active; 'I' for Inactive)
    1  A    between atoms: C_1  and  C_7
    2  A    between atoms: C_1  and  O_8
    3  A    between atoms: C_2  and  N_12
    4  A    between atoms: C_4  and  N_24
    5  A    between atoms: O_8  and  C_19
    6  A    between atoms: O_11  and  O_17
    7  A    between atoms: C_13  and  O_17
    8  A    between atoms: C_15  and  C_18
                            x       y       z     vdW  Elec       q    Type
                         _______ _______ _______ _____ _____    ______ ____

>  <TORSDO>
F 8

$$$$
=
 OpenBabel11032419183D

 25 26  0  0  1  0  0  0  0  0999 V2000
  189.4100  178.1320  142.1420 C   0  0  1  0  0  3  0  0  0  0  0  0
  187.6580  177.2520  143.6720 C   0  0  1  0  0  3  0  0  0  0  0  0
  187.9250  177.7190  142.2320 C   0  0  0  0  0  2  0  0  0  0  0  0
  189.9410  177.8610  143.5000 C   0  0  0  0  0  0  0  0  0  0  0  0
  189.2650  177.0490  145.6780 C   0  0  0  0  0  0  0  0  0  0  0  0
  190.5940  177.2460  146.1430 C   0  0  0  0  0  0  0  0  0  0  0  0
  188.9760  177.3770  144.3460 C   0  0  0  0  0  0  0  0  0  0  0  0
  191.5680  177.7600  145.2610 C   0  0  0  0  0  3  0  0  0  0  0  0
  191.2460  178.0700  143.9350 C   0  0  0  0  0  3  0  0  0  0  0  0
  189.4030  177.4070  139.9420 N   0  0  0  0  0  1  0  0  0  0  0  0
  190.2440  176.0770  141.5050 O   0  0  0  0  0  1  0  0  0  0  0  0
  190.1520  177.3770  141.1260 N   0  0  0  0  0  0  0  0  0  0  0  0
  185.3500  178.2670  143.8470 C   0  0  0  0  0  0  0  0  0  0  0  0
  184.9430  177.5830  142.8690 O   0  0  0  0  0  0  0  0  0  0  0  0
  186.6960  178.1420  144.3060 N   0  0  0  0  0  2  0  0  0  0  0  0
  184.4090  179.1800  144.5780 C   0  0  1  0  0  3  0  0  0  0  0  0
  184.3910  180.4700  144.0300 O   0  0  0  0  0  1  0  0  0  0  0  0
  183.1120  178.6380  144.7080 O   0  0  0  0  0  0  0  0  0  0  0  0
  180.8730  178.6820  143.8910 C   0  0  0  0  0  1  0  0  0  0  0  0
  182.2890  179.1830  143.7070 C   0  0  0  0  0  2  0  0  0  0  0  0
  190.9880  176.9330  147.5240 C   0  0  0  0  0  3  0  0  0  0  0  0
  192.1890  176.7110  147.8320 O   0  0  0  0  0  0  0  0  0  0  0  0
  188.2250  176.5470  146.4750 O   0  0  0  0  0  0  0  0  0  0  0  0
  188.0320  176.9180  147.7480 O   0  0  0  0  0  0  0  0  0  0  0  0
  187.2900  178.0950  147.6590 C   0  0  0  0  0  1  0  0  0  0  0  0
  1 12  1  6  0  0  0
  1  3  1  0  0  0  0
  1  4  1  0  0  0  0
  2 15  1  1  0  0  0
  2  7  1  0  0  0  0
  3  2  1  0  0  0  0
  4  9  2  0  0  0  0
  4  7  1  0  0  0  0
  5  6  1  0  0  0  0
  5 23  1  0  0  0  0
  6 21  1  0  0  0  0
  7  5  2  0  0  0  0
  8  6  2  0  0  0  0
  9  8  1  0  0  0  0
 10 12  1  0  0  0  0
 12 11  1  0  0  0  0
 13 15  1  0  0  0  0
 13 16  1  0  0  0  0
 14 13  2  0  0  0  0
 16 17  1  6  0  0  0
 16 18  1  0  0  0  0
 20 19  1  0  0  0  0
 20 18  1  0  0  0  0
 21 22  2  0  0  0  0
 23 24  1  0  0  0  0
 25 24  1  0  0  0  0
M  END
>  <MODEL>
7

>  <REMARK>
 VINA RESULT:      -6.1      2.600      5.490
  Name = 
  8 active torsions:
  status: ('A' for Active; 'I' for Inactive)
    1  A    between atoms: C_1  and  C_7
    2  A    between atoms: C_1  and  O_8
    3  A    between atoms: C_2  and  N_12
    4  A    between atoms: C_4  and  N_24
    5  A    between atoms: O_8  and  C_19
    6  A    between atoms: O_11  and  O_17
    7  A    between atoms: C_13  and  O_17
    8  A    between atoms: C_15  and  C_18
                            x       y       z     vdW  Elec       q    Type
                         _______ _______ _______ _____ _____    ______ ____

>  <TORSDO>
F 8

$$$$
=
 OpenBabel11032419183D

 25 26  0  0  1  0  0  0  0  0999 V2000
  187.8350  177.9060  138.4100 C   0  0  1  0  0  3  0  0  0  0  0  0
  187.7610  178.6790  140.7720 C   0  0  1  0  0  3  0  0  0  0  0  0
  188.7050  178.2320  139.6440 C   0  0  0  0  0  2  0  0  0  0  0  0
  186.4530  178.2040  138.8560 C   0  0  0  0  0  0  0  0  0  0  0  0
  185.2000  178.9700  140.7800 C   0  0  0  0  0  0  0  0  0  0  0  0
  184.0020  178.8500  140.0250 C   0  0  0  0  0  0  0  0  0  0  0  0
  186.4100  178.6300  140.1590 C   0  0  0  0  0  0  0  0  0  0  0  0
  184.0670  178.3970  138.6900 C   0  0  0  0  0  3  0  0  0  0  0  0
  185.2920  178.0710  138.0990 C   0  0  0  0  0  3  0  0  0  0  0  0
  188.9420  177.8890  136.3750 N   0  0  0  0  0  1  0  0  0  0  0  0
  188.9990  179.7310  137.6090 O   0  0  0  0  0  1  0  0  0  0  0  0
  188.1930  178.7070  137.2320 N   0  0  0  0  0  0  0  0  0  0  0  0
  188.8920  177.7540  142.8350 C   0  0  0  0  0  0  0  0  0  0  0  0
  189.8030  178.6230  142.7610 O   0  0  0  0  0  0  0  0  0  0  0  0
  187.8340  177.7320  141.8760 N   0  0  0  0  0  2  0  0  0  0  0  0
  188.8760  176.7670  143.9660 C   0  0  1  0  0  3  0  0  0  0  0  0
  189.9960  176.8970  144.7980 O   0  0  0  0  0  1  0  0  0  0  0  0
  187.6670  176.7890  144.6940 O   0  0  0  0  0  0  0  0  0  0  0  0
  186.4430  177.8460  146.4450 C   0  0  0  0  0  1  0  0  0  0  0  0
  187.7500  177.7820  145.6840 C   0  0  0  0  0  2  0  0  0  0  0  0
  182.6880  179.1820  140.5940 C   0  0  0  0  0  3  0  0  0  0  0  0
  182.0870  178.3910  141.3680 O   0  0  0  0  0  0  0  0  0  0  0  0
  185.2420  179.4080  142.1130 O   0  0  0  0  0  0  0  0  0  0  0  0
  184.9540  178.6170  143.1540 O   0  0  0  0  0  0  0  0  0  0  0  0
  184.2220  179.4310  144.0180 C   0  0  0  0  0  1  0  0  0  0  0  0
  1 12  1  6  0  0  0
  1  4  1  0  0  0  0
  1  3  1  0  0  0  0
  2 15  1  1  0  0  0
  3  2  1  0  0  0  0
  4  7  1  0  0  0  0
  5 23  1  0  0  0  0
  6 21  1  0  0  0  0
  6  5  1  0  0  0  0
  7  2  1  0  0  0  0
  7  5  2  0  0  0  0
  8  6  2  0  0  0  0
  9  8  1  0  0  0  0
  9  4  2  0  0  0  0
 10 12  1  0  0  0  0
 12 11  1  0  0  0  0
 13 16  1  0  0  0  0
 14 13  2  0  0  0  0
 15 13  1  0  0  0  0
 16 18  1  0  0  0  0
 16 17  1  1  0  0  0
 18 20  1  0  0  0  0
 20 19  1  0  0  0  0
 21 22  2  0  0  0  0
 23 24  1  0  0  0  0
 24 25  1  0  0  0  0
M  END
>  <MODEL>
8

>  <REMARK>
 VINA RESULT:      -6.1      2.834      6.829
  Name = 
  8 active torsions:
  status: ('A' for Active; 'I' for Inactive)
    1  A    between atoms: C_1  and  C_7
    2  A    between atoms: C_1  and  O_8
    3  A    between atoms: C_2  and  N_12
    4  A    between atoms: C_4  and  N_24
    5  A    between atoms: O_8  and  C_19
    6  A    between atoms: O_11  and  O_17
    7  A    between atoms: C_13  and  O_17
    8  A    between atoms: C_15  and  C_18
                            x       y       z     vdW  Elec       q    Type
                         _______ _______ _______ _____ _____    ______ ____

>  <TORSDO>
F 8

$$$$
=
 OpenBabel11032419183D

 25 26  0  0  1  0  0  0  0  0999 V2000
  191.8860  176.6100  139.9260 C   0  0  1  0  0  3  0  0  0  0  0  0
  190.4790  177.9390  141.4870 C   0  0  1  0  0  3  0  0  0  0  0  0
  191.8680  177.3070  141.3040 C   0  0  0  0  0  2  0  0  0  0  0  0
  190.5430  176.8900  139.3640 C   0  0  0  0  0  0  0  0  0  0  0  0
  188.4580  178.0020  139.8890 C   0  0  0  0  0  0  0  0  0  0  0  0
  187.9450  177.5960  138.6270 C   0  0  0  0  0  0  0  0  0  0  0  0
  189.7650  177.6230  140.2250 C   0  0  0  0  0  0  0  0  0  0  0  0
  188.7560  176.8310  137.7630 C   0  0  0  0  0  3  0  0  0  0  0  0
  190.0590  176.4740  138.1270 C   0  0  0  0  0  3  0  0  0  0  0  0
  193.4970  176.0220  138.3680 N   0  0  0  0  0  1  0  0  0  0  0  0
  193.9340  177.6660  139.7920 O   0  0  0  0  0  1  0  0  0  0  0  0
  192.9430  177.1180  139.0430 N   0  0  0  0  0  0  0  0  0  0  0  0
  189.8410  177.8440  143.9320 C   0  0  0  0  0  0  0  0  0  0  0  0
  190.4710  178.9100  144.1670 O   0  0  0  0  0  0  0  0  0  0  0  0
  189.7970  177.3080  142.6080 N   0  0  0  0  0  2  0  0  0  0  0  0
  189.0810  177.1530  145.0260 C   0  0  1  0  0  3  0  0  0  0  0  0
  189.4140  177.6470  146.2950 O   0  0  0  0  0  1  0  0  0  0  0  0
  187.6860  177.1510  144.8060 O   0  0  0  0  0  0  0  0  0  0  0  0
  185.7050  178.3340  145.4040 C   0  0  0  0  0  1  0  0  0  0  0  0
  187.0570  177.8320  145.8620 C   0  0  0  0  0  2  0  0  0  0  0  0
  186.5850  177.9460  138.1910 C   0  0  0  0  0  3  0  0  0  0  0  0
  186.3520  179.0000  137.5430 O   0  0  0  0  0  0  0  0  0  0  0  0
  187.7310  178.7620  140.8190 O   0  0  0  0  0  0  0  0  0  0  0  0
  186.9140  178.2190  141.7310 O   0  0  0  0  0  0  0  0  0  0  0  0
  185.7600  178.9990  141.6740 C   0  0  0  0  0  1  0  0  0  0  0  0
  1 12  1  6  0  0  0
  1  3  1  0  0  0  0
  2 15  1  1  0  0  0
  3  2  1  0  0  0  0
  4  1  1  0  0  0  0
  4  7  1  0  0  0  0
  5  7  2  0  0  0  0
  5 23  1  0  0  0  0
  6  5  1  0  0  0  0
  7  2  1  0  0  0  0
  8  9  1  0  0  0  0
  8  6  2  0  0  0  0
  9  4  2  0  0  0  0
 10 12  1  0  0  0  0
 12 11  1  0  0  0  0
 13 14  2  0  0  0  0
 13 16  1  0  0  0  0
 15 13  1  0  0  0  0
 16 17  1  1  0  0  0
 18 16  1  0  0  0  0
 18 20  1  0  0  0  0
 19 20  1  0  0  0  0
 21  6  1  0  0  0  0
 22 21  2  0  0  0  0
 23 24  1  0  0  0  0
 25 24  1  0  0  0  0
M  END
>  <MODEL>
9

>  <REMARK>
 VINA RESULT:      -6.0      2.550      6.430
  Name = 
  8 active torsions:
  status: ('A' for Active; 'I' for Inactive)
    1  A    between atoms: C_1  and  C_7
    2  A    between atoms: C_1  and  O_8
    3  A    between atoms: C_2  and  N_12
    4  A    between atoms: C_4  and  N_24
    5  A    between atoms: O_8  and  C_19
    6  A    between atoms: O_11  and  O_17
    7  A    between atoms: C_13  and  O_17
    8  A    between atoms: C_15  and  C_18
                            x       y       z     vdW  Elec       q    Type
                         _______ _______ _______ _____ _____    ______ ____

>  <TORSDO>
F 8

$$$$
