=
 OpenBabel11032419223D

 51 53  0  0  1  0  0  0  0  0999 V2000
  184.4900  178.6310  142.6600 C   0  0  0  0  0  0  0  0  0  0  0  0
  186.2660  178.2500  141.1380 O   0  0  0  0  0  0  0  0  0  0  0  0
  185.0240  178.3730  141.3140 C   0  0  0  0  0  0  0  0  0  0  0  0
  180.7880  178.7360  141.8690 N   0  0  0  0  0  2  0  0  0  0  0  0
  184.0950  178.2140  140.1400 C   0  0  1  0  0  3  0  0  0  0  0  0
  183.1030  178.7380  142.8420 C   0  0  0  0  0  0  0  0  0  0  0  0
  185.3500  178.7590  143.7620 C   0  0  0  0  0  3  0  0  0  0  0  0
  184.8300  178.9910  145.0390 C   0  0  0  0  0  3  0  0  0  0  0  0
  183.4480  179.0950  145.2210 C   0  0  0  0  0  3  0  0  0  0  0  0
  182.6760  178.3750  140.4940 N   0  0  0  0  0  0  0  0  0  0  0  0
  182.2000  178.6050  141.6840 C   0  0  0  0  0  0  0  0  0  0  0  0
  182.5880  178.9720  144.1270 C   0  0  0  0  0  3  0  0  0  0  0  0
  179.8400  178.5730  140.7820 C   0  0  0  0  0  2  0  0  0  0  0  0
  179.0880  179.8670  140.5500 C   0  0  0  0  0  2  0  0  0  0  0  0
  179.9310  180.9560  140.7880 O   0  0  0  0  0  0  0  0  0  0  0  0
  180.3800  181.3470  139.5230 C   0  0  0  0  0  2  0  0  0  0  0  0
  179.3220  182.1840  138.8180 C   0  0  0  0  0  2  0  0  0  0  0  0
  180.1120  182.0510  136.4080 C   0  0  0  0  0  0  0  0  0  0  0  0
  180.1350  184.1830  137.5670 C   0  0  0  0  0  3  0  0  0  0  0  0
  180.8770  184.0490  135.2650 C   0  0  0  0  0  3  0  0  0  0  0  0
  180.6390  184.8020  136.4190 C   0  0  0  0  0  3  0  0  0  0  0  0
  180.6120  182.6790  135.2600 C   0  0  0  0  0  3  0  0  0  0  0  0
  179.8690  182.8090  137.5710 C   0  0  0  0  0  0  0  0  0  0  0  0
  179.8140  180.5890  136.3540 C   0  0  0  0  0  2  0  0  0  0  0  0
  180.9480  179.8910  135.9410 O   0  0  0  0  0  0  0  0  0  0  0  0
  181.9980  177.8770  136.6480 C   0  0  0  0  0  1  0  0  0  0  0  0
  181.3600  179.1840  137.0690 C   0  0  0  0  0  2  0  0  0  0  0  0
  184.4730  179.1870  139.0310 C   0  0  0  0  0  2  0  0  0  0  0  0
  186.2350  178.1030  137.3430 C   0  0  0  0  0  0  0  0  0  0  0  0
  185.4310  178.5750  138.1070 C   0  0  0  0  0  0  0  0  0  0  0  0
  187.2390  177.5620  136.4150 C   0  0  0  0  0  2  0  0  0  0  0  0
  187.4770  176.0660  136.6310 C   0  0  2  0  0  3  0  0  0  0  0  0
  189.6010  176.9130  139.4200 C   0  0  0  0  0  3  0  0  0  0  0  0
  188.8410  175.8140  137.1850 C   0  0  0  0  0  3  0  0  0  0  0  0
  189.2160  176.3690  138.3020 C   0  0  0  0  0  0  0  0  0  0  0  0
  190.9730  176.6550  139.9370 C   0  0  0  0  0  2  0  0  0  0  0  0
  191.3650  177.6990  140.9690 C   0  0  0  0  0  2  0  0  0  0  0  0
  191.4370  177.0870  142.3660 C   0  0  0  0  0  2  0  0  0  0  0  0
  190.5770  177.8370  143.3880 C   0  0  0  0  0  0  0  0  0  0  0  0
  189.4100  178.5080  142.6880 C   0  0  0  0  0  1  0  0  0  0  0  0
  191.4180  178.9270  144.0230 C   0  0  0  0  0  1  0  0  0  0  0  0
  190.0240  176.8920  144.4620 C   0  0  0  0  0  2  0  0  0  0  0  0
  189.7670  177.5780  145.8040 C   0  0  1  0  0  3  0  0  0  0  0  0
  188.2730  177.6600  146.0560 C   0  0  0  0  0  1  0  0  0  0  0  0
  190.4120  176.7840  146.9240 C   0  0  0  0  0  2  0  0  0  0  0  0
  192.5160  175.7130  147.6590 C   0  0  0  0  0  1  0  0  0  0  0  0
  191.7360  176.2050  146.4630 C   0  0  0  0  0  2  0  0  0  0  0  0
  187.2570  175.2810  135.3420 C   0  0  0  0  0  2  0  0  0  0  0  0
  186.6800  173.9030  135.6250 C   0  0  1  0  0  3  0  0  0  0  0  0
  187.7140  172.9670  135.7130 O   0  0  0  0  0  1  0  0  0  0  0  0
  185.9180  173.9360  136.9350 C   0  0  0  0  0  1  0  0  0  0  0  0
  1  6  2  0  0  0  0
  1  7  1  0  0  0  0
  2  3  2  0  0  0  0
  3  1  1  0  0  0  0
  5 28  1  6  0  0  0
  5 10  1  0  0  0  0
  5  3  1  0  0  0  0
  6 12  1  0  0  0  0
  7  8  2  0  0  0  0
  8  9  1  0  0  0  0
 10 11  2  0  0  0  0
 11  4  1  0  0  0  0
 11  6  1  0  0  0  0
 12  9  2  0  0  0  0
 13  4  1  0  0  0  0
 14 13  1  0  0  0  0
 14 15  1  0  0  0  0
 16 15  1  0  0  0  0
 17 16  1  0  0  0  0
 18 23  1  0  0  0  0
 19 23  2  0  0  0  0
 20 21  2  0  0  0  0
 21 19  1  0  0  0  0
 22 20  1  0  0  0  0
 22 18  2  0  0  0  0
 23 17  1  0  0  0  0
 24 18  1  0  0  0  0
 25 24  1  0  0  0  0
 25 27  1  0  0  0  0
 26 27  1  0  0  0  0
 29 30  3  0  0  0  0
 30 28  1  0  0  0  0
 31 32  1  0  0  0  0
 31 29  1  0  0  0  0
 32 48  1  6  0  0  0
 32 34  1  0  0  0  0
 33 36  1  0  0  0  0
 34 35  2  0  0  0  0
 35 33  2  0  0  0  0
 36 37  1  0  0  0  0
 37 38  1  0  0  0  0
 38 39  1  0  0  0  0
 39 41  1  0  0  0  0
 39 42  1  0  0  0  0
 40 39  1  0  0  0  0
 42 43  1  0  0  0  0
 43 44  1  1  0  0  0
 43 45  1  0  0  0  0
 47 45  1  0  0  0  0
 47 46  1  0  0  0  0
 48 49  1  0  0  0  0
 49 50  1  0  0  0  0
 49 51  1  1  0  0  0
M  END
>  <MODEL>
1

>  <REMARK>
 VINA RESULT:      -7.3      0.000      0.000
  Name = 
  24 active torsions:
  status: ('A' for Active; 'I' for Inactive)
    1  A    between atoms: C_1  and  C_45
    2  A    between atoms: C_1  and  C_46
    3  A    between atoms: C_2  and  C_14
    4  A    between atoms: C_2  and  C_46
    5  A    between atoms: C_5  and  O_8
    6  A    between atoms: C_5  and  C_24
    7  A    between atoms: O_8  and  C_44
    8  A    between atoms: C_9  and  C_23
    9  A    between atoms: C_9  and  C_35
   10  A    between atoms: C_9  and  C_47
   11  A    between atoms: C_11  and  C_23
   12  A    between atoms: O_12  and  C_29
   13  A    between atoms: O_12  and  C_51
   14  A    between atoms: C_14  and  C_36
   15  A    between atoms: N_16  and  C_24
   16  A    between atoms: C_17  and  C_18
   17  A    between atoms: C_17  and  C_40
   18  A    between atoms: C_19  and  C_34
   19  A    between atoms: C_19  and  C_36
   20  A    between atoms: C_22  and  C_47
   21  A    between atoms: C_26  and  C_29
   22  A    between atoms: C_43  and  C_45
   23  A    between atoms: C_44  and  C_48
   24  A    between atoms: C_48  and  C_49
                            x       y       z     vdW  Elec       q    Type
                         _______ _______ _______ _____ _____    ______ ____

>  <TORSDO>
F 24

$$$$
=
 OpenBabel11032419223D

 51 53  0  0  1  0  0  0  0  0999 V2000
  189.1810  177.7700  139.3830 C   0  0  0  0  0  0  0  0  0  0  0  0
  188.2410  178.7090  141.3460 O   0  0  0  0  0  0  0  0  0  0  0  0
  188.0740  178.3730  140.1420 C   0  0  0  0  0  0  0  0  0  0  0  0
  187.4730  177.2870  136.0380 N   0  0  0  0  0  2  0  0  0  0  0  0
  186.7450  178.6290  139.4840 C   0  0  1  0  0  3  0  0  0  0  0  0
  188.9860  177.4250  138.0370 C   0  0  0  0  0  0  0  0  0  0  0  0
  190.4290  177.5470  139.9860 C   0  0  0  0  0  3  0  0  0  0  0  0
  191.4770  176.9860  139.2510 C   0  0  0  0  0  3  0  0  0  0  0  0
  191.2830  176.6450  137.9090 C   0  0  0  0  0  3  0  0  0  0  0  0
  186.6980  178.1930  138.0790 N   0  0  0  0  0  0  0  0  0  0  0  0
  187.6750  177.6580  137.4050 C   0  0  0  0  0  0  0  0  0  0  0  0
  190.0420  176.8620  137.3050 C   0  0  0  0  0  3  0  0  0  0  0  0
  186.2220  177.5270  135.3410 C   0  0  0  0  0  2  0  0  0  0  0  0
  185.4450  176.2340  135.2080 C   0  0  0  0  0  2  0  0  0  0  0  0
  184.0740  176.5050  135.1650 O   0  0  0  0  0  0  0  0  0  0  0  0
  183.7990  177.1590  136.3700 C   0  0  0  0  0  2  0  0  0  0  0  0
  183.7580  176.1610  137.5190 C   0  0  0  0  0  2  0  0  0  0  0  0
  181.2780  175.6450  137.7060 C   0  0  0  0  0  0  0  0  0  0  0  0
  182.8120  173.9290  136.9350 C   0  0  0  0  0  3  0  0  0  0  0  0
  180.4440  173.4470  137.1070 C   0  0  0  0  0  3  0  0  0  0  0  0
  181.7440  173.0370  136.7950 C   0  0  0  0  0  3  0  0  0  0  0  0
  180.2130  174.7480  137.5580 C   0  0  0  0  0  3  0  0  0  0  0  0
  182.5890  175.2330  137.3890 C   0  0  0  0  0  0  0  0  0  0  0  0
  180.9880  177.0360  138.1630 C   0  0  0  0  0  2  0  0  0  0  0  0
  180.4750  177.0080  139.4600 O   0  0  0  0  0  0  0  0  0  0  0  0
  182.0030  178.8200  139.6750 C   0  0  0  0  0  1  0  0  0  0  0  0
  181.4990  177.5160  140.2570 C   0  0  0  0  0  2  0  0  0  0  0  0
  185.6250  177.9690  140.2760 C   0  0  0  0  0  2  0  0  0  0  0  0
  185.0870  179.3510  142.4960 C   0  0  0  0  0  0  0  0  0  0  0  0
  185.3200  178.7410  141.4840 C   0  0  0  0  0  0  0  0  0  0  0  0
  184.8350  180.0760  143.7510 C   0  0  0  0  0  2  0  0  0  0  0  0
  183.6250  179.5200  144.5040 C   0  0  2  0  0  3  0  0  0  0  0  0
  186.5540  178.4000  146.2860 C   0  0  0  0  0  3  0  0  0  0  0  0
  184.0510  178.5940  145.5960 C   0  0  0  0  0  3  0  0  0  0  0  0
  185.3050  178.4990  145.9340 C   0  0  0  0  0  0  0  0  0  0  0  0
  186.9480  177.4550  147.3660 C   0  0  0  0  0  2  0  0  0  0  0  0
  188.3280  177.7970  147.9030 C   0  0  0  0  0  2  0  0  0  0  0  0
  189.3330  177.9560  146.7660 C   0  0  0  0  0  2  0  0  0  0  0  0
  190.5730  177.0740  146.9400 C   0  0  0  0  0  0  0  0  0  0  0  0
  190.1530  175.6440  147.2250 C   0  0  0  0  0  1  0  0  0  0  0  0
  191.3570  177.5690  148.1400 C   0  0  0  0  0  1  0  0  0  0  0  0
  191.4530  177.0830  145.6850 C   0  0  0  0  0  2  0  0  0  0  0  0
  190.6790  177.3760  144.3990 C   0  0  1  0  0  3  0  0  0  0  0  0
  191.2340  178.6260  143.7430 C   0  0  0  0  0  1  0  0  0  0  0  0
  190.8170  176.2120  143.4350 C   0  0  0  0  0  2  0  0  0  0  0  0
  188.3770  176.4510  143.7560 C   0  0  0  0  0  1  0  0  0  0  0  0
  189.4530  175.7800  142.9340 C   0  0  0  0  0  2  0  0  0  0  0  0
  182.6500  178.8330  143.5530 C   0  0  0  0  0  2  0  0  0  0  0  0
  181.2300  179.3370  143.7560 C   0  0  1  0  0  3  0  0  0  0  0  0
  180.8270  180.0770  142.6420 O   0  0  0  0  0  1  0  0  0  0  0  0
  180.3000  178.1560  143.9410 C   0  0  0  0  0  1  0  0  0  0  0  0
  1  7  1  0  0  0  0
  1  3  1  0  0  0  0
  3  2  2  0  0  0  0
  4 11  1  0  0  0  0
  5  3  1  0  0  0  0
  5 28  1  1  0  0  0
  6  1  2  0  0  0  0
  8  7  2  0  0  0  0
  9  8  1  0  0  0  0
 10  5  1  0  0  0  0
 11  6  1  0  0  0  0
 11 10  2  0  0  0  0
 12  9  2  0  0  0  0
 12  6  1  0  0  0  0
 13  4  1  0  0  0  0
 14 13  1  0  0  0  0
 15 14  1  0  0  0  0
 15 16  1  0  0  0  0
 16 17  1  0  0  0  0
 18 24  1  0  0  0  0
 19 23  1  0  0  0  0
 20 22  2  0  0  0  0
 21 19  2  0  0  0  0
 21 20  1  0  0  0  0
 22 18  1  0  0  0  0
 23 17  1  0  0  0  0
 23 18  2  0  0  0  0
 24 25  1  0  0  0  0
 25 27  1  0  0  0  0
 26 27  1  0  0  0  0
 28 30  1  0  0  0  0
 29 31  1  0  0  0  0
 30 29  3  0  0  0  0
 31 32  1  0  0  0  0
 32 48  1  6  0  0  0
 32 34  1  0  0  0  0
 33 36  1  0  0  0  0
 34 35  2  0  0  0  0
 35 33  2  0  0  0  0
 36 37  1  0  0  0  0
 38 39  1  0  0  0  0
 38 37  1  0  0  0  0
 39 40  1  0  0  0  0
 39 41  1  0  0  0  0
 42 39  1  0  0  0  0
 43 44  1  6  0  0  0
 43 42  1  0  0  0  0
 45 43  1  0  0  0  0
 47 45  1  0  0  0  0
 47 46  1  0  0  0  0
 48 49  1  0  0  0  0
 49 51  1  6  0  0  0
 50 49  1  0  0  0  0
M  END
>  <MODEL>
2

>  <REMARK>
 VINA RESULT:      -6.7      3.096      7.347
  Name = 
  24 active torsions:
  status: ('A' for Active; 'I' for Inactive)
    1  A    between atoms: C_1  and  C_45
    2  A    between atoms: C_1  and  C_46
    3  A    between atoms: C_2  and  C_14
    4  A    between atoms: C_2  and  C_46
    5  A    between atoms: C_5  and  O_8
    6  A    between atoms: C_5  and  C_24
    7  A    between atoms: O_8  and  C_44
    8  A    between atoms: C_9  and  C_23
    9  A    between atoms: C_9  and  C_35
   10  A    between atoms: C_9  and  C_47
   11  A    between atoms: C_11  and  C_23
   12  A    between atoms: O_12  and  C_29
   13  A    between atoms: O_12  and  C_51
   14  A    between atoms: C_14  and  C_36
   15  A    between atoms: N_16  and  C_24
   16  A    between atoms: C_17  and  C_18
   17  A    between atoms: C_17  and  C_40
   18  A    between atoms: C_19  and  C_34
   19  A    between atoms: C_19  and  C_36
   20  A    between atoms: C_22  and  C_47
   21  A    between atoms: C_26  and  C_29
   22  A    between atoms: C_43  and  C_45
   23  A    between atoms: C_44  and  C_48
   24  A    between atoms: C_48  and  C_49
                            x       y       z     vdW  Elec       q    Type
                         _______ _______ _______ _____ _____    ______ ____

>  <TORSDO>
F 24

$$$$
=
 OpenBabel11032419223D

 51 53  0  0  1  0  0  0  0  0999 V2000
  189.4170  177.2350  146.1540 C   0  0  0  0  0  0  0  0  0  0  0  0
  187.4760  178.0940  147.2090 O   0  0  0  0  0  0  0  0  0  0  0  0
  188.0780  177.8460  146.1300 C   0  0  0  0  0  0  0  0  0  0  0  0
  190.1070  177.0640  142.4340 N   0  0  0  0  0  2  0  0  0  0  0  0
  187.4300  178.2160  144.8230 C   0  0  1  0  0  3  0  0  0  0  0  0
  190.0830  176.9900  144.9440 C   0  0  0  0  0  0  0  0  0  0  0  0
  190.0350  176.9060  147.3700 C   0  0  0  0  0  3  0  0  0  0  0  0
  191.3120  176.3380  147.3800 C   0  0  0  0  0  3  0  0  0  0  0  0
  191.9780  176.0970  146.1750 C   0  0  0  0  0  3  0  0  0  0  0  0
  188.2490  177.8760  143.6490 N   0  0  0  0  0  0  0  0  0  0  0  0
  189.4330  177.3340  143.6670 C   0  0  0  0  0  0  0  0  0  0  0  0
  191.3650  176.4190  144.9620 C   0  0  0  0  0  3  0  0  0  0  0  0
  189.5430  177.4160  141.1430 C   0  0  0  0  0  2  0  0  0  0  0  0
  190.6460  177.5510  140.1140 C   0  0  0  0  0  2  0  0  0  0  0  0
  190.1180  178.0310  138.9120 O   0  0  0  0  0  0  0  0  0  0  0  0
  189.8100  176.8860  138.1720 C   0  0  0  0  0  2  0  0  0  0  0  0
  191.0770  176.2640  137.6020 C   0  0  0  0  0  2  0  0  0  0  0  0
  191.7750  174.2800  136.1780 C   0  0  0  0  0  0  0  0  0  0  0  0
  189.4690  174.4890  136.9070 C   0  0  0  0  0  3  0  0  0  0  0  0
  190.1440  172.5950  135.5560 C   0  0  0  0  0  3  0  0  0  0  0  0
  189.1520  173.2970  136.2480 C   0  0  0  0  0  3  0  0  0  0  0  0
  191.4510  173.0850  135.5240 C   0  0  0  0  0  3  0  0  0  0  0  0
  190.7760  174.9880  136.8770 C   0  0  0  0  0  0  0  0  0  0  0  0
  193.1880  174.7570  136.1440 C   0  0  0  0  0  2  0  0  0  0  0  0
  193.8090  174.4790  137.3620 O   0  0  0  0  0  0  0  0  0  0  0  0
  195.2590  172.8320  138.2810 C   0  0  0  0  0  1  0  0  0  0  0  0
  194.8380  173.5960  137.0430 C   0  0  0  0  0  2  0  0  0  0  0  0
  186.0570  177.5670  144.7100 C   0  0  0  0  0  2  0  0  0  0  0  0
  184.7990  178.3800  142.5000 C   0  0  0  0  0  0  0  0  0  0  0  0
  185.3610  178.0300  143.5060 C   0  0  0  0  0  0  0  0  0  0  0  0
  184.1120  178.7670  141.2580 C   0  0  0  0  0  2  0  0  0  0  0  0
  182.8670  177.9170  140.9990 C   0  0  2  0  0  3  0  0  0  0  0  0
  184.8770  177.6850  138.0140 C   0  0  0  0  0  3  0  0  0  0  0  0
  183.0070  177.1290  139.7380 C   0  0  0  0  0  3  0  0  0  0  0  0
  183.9420  177.4140  138.8780 C   0  0  0  0  0  0  0  0  0  0  0  0
  184.9800  176.8910  136.7590 C   0  0  0  0  0  2  0  0  0  0  0  0
  185.9080  175.7020  136.9470 C   0  0  0  0  0  2  0  0  0  0  0  0
  185.7450  174.6980  135.8100 C   0  0  0  0  0  2  0  0  0  0  0  0
  185.0060  173.4280  136.2410 C   0  0  0  0  0  0  0  0  0  0  0  0
  185.0330  173.3020  137.7540 C   0  0  0  0  0  1  0  0  0  0  0  0
  185.7310  172.2250  135.6690 C   0  0  0  0  0  1  0  0  0  0  0  0
  183.5440  173.4410  135.7790 C   0  0  0  0  0  2  0  0  0  0  0  0
  182.5410  173.2760  136.9220 C   0  0  1  0  0  3  0  0  0  0  0  0
  181.6610  174.5090  137.0100 C   0  0  0  0  0  1  0  0  0  0  0  0
  181.6660  172.0630  136.6720 C   0  0  0  0  0  2  0  0  0  0  0  0
  179.2350  171.7900  137.0360 C   0  0  0  0  0  1  0  0  0  0  0  0
  180.5700  171.9810  137.7170 C   0  0  0  0  0  2  0  0  0  0  0  0
  181.6080  178.7790  140.9690 C   0  0  0  0  0  2  0  0  0  0  0  0
  180.9280  178.8140  142.3280 C   0  0  1  0  0  3  0  0  0  0  0  0
  180.7980  180.1370  142.7580 O   0  0  0  0  0  1  0  0  0  0  0  0
  179.5550  178.1820  142.2200 C   0  0  0  0  0  1  0  0  0  0  0  0
  1  7  1  0  0  0  0
  3  1  1  0  0  0  0
  3  2  2  0  0  0  0
  4 11  1  0  0  0  0
  5 28  1  6  0  0  0
  5  3  1  0  0  0  0
  6 12  1  0  0  0  0
  6  1  2  0  0  0  0
  7  8  2  0  0  0  0
  9  8  1  0  0  0  0
 10 11  2  0  0  0  0
 10  5  1  0  0  0  0
 11  6  1  0  0  0  0
 12  9  2  0  0  0  0
 13  4  1  0  0  0  0
 14 13  1  0  0  0  0
 15 14  1  0  0  0  0
 16 15  1  0  0  0  0
 17 16  1  0  0  0  0
 18 23  1  0  0  0  0
 20 21  2  0  0  0  0
 21 19  1  0  0  0  0
 22 20  1  0  0  0  0
 22 18  2  0  0  0  0
 23 19  2  0  0  0  0
 23 17  1  0  0  0  0
 24 18  1  0  0  0  0
 24 25  1  0  0  0  0
 27 25  1  0  0  0  0
 27 26  1  0  0  0  0
 29 30  3  0  0  0  0
 30 28  1  0  0  0  0
 31 29  1  0  0  0  0
 32 34  1  6  0  0  0
 32 31  1  0  0  0  0
 33 35  2  0  0  0  0
 35 34  2  0  0  0  0
 36 37  1  0  0  0  0
 36 33  1  0  0  0  0
 38 39  1  0  0  0  0
 38 37  1  0  0  0  0
 39 40  1  0  0  0  0
 41 39  1  0  0  0  0
 42 39  1  0  0  0  0
 42 43  1  0  0  0  0
 43 44  1  6  0  0  0
 45 43  1  0  0  0  0
 45 47  1  0  0  0  0
 46 47  1  0  0  0  0
 48 32  1  0  0  0  0
 48 49  1  0  0  0  0
 49 51  1  6  0  0  0
 49 50  1  0  0  0  0
M  END
>  <MODEL>
3

>  <REMARK>
 VINA RESULT:      -6.7      3.570     10.500
  Name = 
  24 active torsions:
  status: ('A' for Active; 'I' for Inactive)
    1  A    between atoms: C_1  and  C_45
    2  A    between atoms: C_1  and  C_46
    3  A    between atoms: C_2  and  C_14
    4  A    between atoms: C_2  and  C_46
    5  A    between atoms: C_5  and  O_8
    6  A    between atoms: C_5  and  C_24
    7  A    between atoms: O_8  and  C_44
    8  A    between atoms: C_9  and  C_23
    9  A    between atoms: C_9  and  C_35
   10  A    between atoms: C_9  and  C_47
   11  A    between atoms: C_11  and  C_23
   12  A    between atoms: O_12  and  C_29
   13  A    between atoms: O_12  and  C_51
   14  A    between atoms: C_14  and  C_36
   15  A    between atoms: N_16  and  C_24
   16  A    between atoms: C_17  and  C_18
   17  A    between atoms: C_17  and  C_40
   18  A    between atoms: C_19  and  C_34
   19  A    between atoms: C_19  and  C_36
   20  A    between atoms: C_22  and  C_47
   21  A    between atoms: C_26  and  C_29
   22  A    between atoms: C_43  and  C_45
   23  A    between atoms: C_44  and  C_48
   24  A    between atoms: C_48  and  C_49
                            x       y       z     vdW  Elec       q    Type
                         _______ _______ _______ _____ _____    ______ ____

>  <TORSDO>
F 24

$$$$
=
 OpenBabel11032419223D

 51 53  0  0  1  0  0  0  0  0999 V2000
  187.1160  178.0950  146.4630 C   0  0  0  0  0  0  0  0  0  0  0  0
  185.0290  179.0950  146.9750 O   0  0  0  0  0  0  0  0  0  0  0  0
  185.8430  178.7290  146.0840 C   0  0  0  0  0  0  0  0  0  0  0  0
  188.6000  177.5420  143.0230 N   0  0  0  0  0  2  0  0  0  0  0  0
  185.5140  178.9810  144.6380 C   0  0  1  0  0  3  0  0  0  0  0  0
  188.0210  177.7170  145.4610 C   0  0  0  0  0  0  0  0  0  0  0  0
  187.4370  177.8750  147.8110 C   0  0  0  0  0  3  0  0  0  0  0  0
  188.6550  177.2850  148.1590 C   0  0  0  0  0  3  0  0  0  0  0  0
  189.5590  176.9110  147.1600 C   0  0  0  0  0  3  0  0  0  0  0  0
  186.5570  178.5090  143.7130 N   0  0  0  0  0  0  0  0  0  0  0  0
  187.6830  177.9460  144.0440 C   0  0  0  0  0  0  0  0  0  0  0  0
  189.2430  177.1240  145.8160 C   0  0  0  0  0  3  0  0  0  0  0  0
  188.3490  177.7760  141.6120 C   0  0  0  0  0  2  0  0  0  0  0  0
  189.3100  176.9610  140.7710 C   0  0  0  0  0  2  0  0  0  0  0  0
  189.9870  177.7960  139.8790 O   0  0  0  0  0  0  0  0  0  0  0  0
  188.9820  178.3980  139.1160 C   0  0  0  0  0  2  0  0  0  0  0  0
  189.3820  178.4420  137.6480 C   0  0  0  0  0  2  0  0  0  0  0  0
  188.5990  176.2660  136.5990 C   0  0  0  0  0  0  0  0  0  0  0  0
  187.3480  178.3100  136.2120 C   0  0  0  0  0  3  0  0  0  0  0  0
  186.6010  176.2280  135.2230 C   0  0  0  0  0  3  0  0  0  0  0  0
  186.4350  177.6020  135.4230 C   0  0  0  0  0  3  0  0  0  0  0  0
  187.6780  175.5630  135.8120 C   0  0  0  0  0  3  0  0  0  0  0  0
  188.4310  177.6510  136.8040 C   0  0  0  0  0  0  0  0  0  0  0  0
  189.7210  175.5150  137.2350 C   0  0  0  0  0  2  0  0  0  0  0  0
  190.7280  175.2870  136.2970 O   0  0  0  0  0  0  0  0  0  0  0  0
  192.9150  176.1180  136.7310 C   0  0  0  0  0  1  0  0  0  0  0  0
  191.8750  175.0650  137.0560 C   0  0  0  0  0  2  0  0  0  0  0  0
  184.1730  178.3540  144.2820 C   0  0  0  0  0  2  0  0  0  0  0  0
  183.6640  178.6530  141.6780 C   0  0  0  0  0  0  0  0  0  0  0  0
  183.8960  178.4990  142.8500 C   0  0  0  0  0  0  0  0  0  0  0  0
  183.3890  178.8840  140.2510 C   0  0  0  0  0  2  0  0  0  0  0  0
  182.0800  178.2320  139.8040 C   0  0  2  0  0  3  0  0  0  0  0  0
  180.1840  177.9020  136.7550 C   0  0  0  0  0  3  0  0  0  0  0  0
  182.1870  177.7150  138.4070 C   0  0  0  0  0  3  0  0  0  0  0  0
  181.1810  177.8080  137.5860 C   0  0  0  0  0  0  0  0  0  0  0  0
  180.3160  177.3620  135.3740 C   0  0  0  0  0  2  0  0  0  0  0  0
  180.0560  175.8640  135.3540 C   0  0  0  0  0  2  0  0  0  0  0  0
  181.2440  175.1120  134.7590 C   0  0  0  0  0  2  0  0  0  0  0  0
  181.9820  174.2560  135.7920 C   0  0  0  0  0  0  0  0  0  0  0  0
  181.1120  174.0660  137.0220 C   0  0  0  0  0  1  0  0  0  0  0  0
  183.2350  174.9920  136.2270 C   0  0  0  0  0  1  0  0  0  0  0  0
  182.3400  172.8750  135.2300 C   0  0  0  0  0  2  0  0  0  0  0  0
  182.1810  171.7430  136.2450 C   0  0  1  0  0  3  0  0  0  0  0  0
  181.6080  170.5180  135.5570 C   0  0  0  0  0  1  0  0  0  0  0  0
  183.5310  171.3870  136.8400 C   0  0  0  0  0  2  0  0  0  0  0  0
  185.7880  172.2710  136.3550 C   0  0  0  0  0  1  0  0  0  0  0  0
  184.6160  171.5060  135.7870 C   0  0  0  0  0  2  0  0  0  0  0  0
  180.9070  179.1980  139.9410 C   0  0  0  0  0  2  0  0  0  0  0  0
  179.9230  178.7280  141.0010 C   0  0  1  0  0  3  0  0  0  0  0  0
  180.1300  177.3730  141.2690 O   0  0  0  0  0  1  0  0  0  0  0  0
  180.1280  179.5310  142.2690 C   0  0  0  0  0  1  0  0  0  0  0  0
  1  7  1  0  0  0  0
  3  1  1  0  0  0  0
  3  2  2  0  0  0  0
  4 11  1  0  0  0  0
  5 28  1  6  0  0  0
  5  3  1  0  0  0  0
  6 12  1  0  0  0  0
  6  1  2  0  0  0  0
  7  8  2  0  0  0  0
  9  8  1  0  0  0  0
 10 11  2  0  0  0  0
 10  5  1  0  0  0  0
 11  6  1  0  0  0  0
 12  9  2  0  0  0  0
 13  4  1  0  0  0  0
 14 13  1  0  0  0  0
 15 14  1  0  0  0  0
 16 15  1  0  0  0  0
 17 16  1  0  0  0  0
 18 23  1  0  0  0  0
 18 24  1  0  0  0  0
 19 23  2  0  0  0  0
 20 21  2  0  0  0  0
 20 22  1  0  0  0  0
 21 19  1  0  0  0  0
 22 18  2  0  0  0  0
 23 17  1  0  0  0  0
 25 27  1  0  0  0  0
 25 24  1  0  0  0  0
 26 27  1  0  0  0  0
 29 30  3  0  0  0  0
 30 28  1  0  0  0  0
 31 29  1  0  0  0  0
 32 34  1  6  0  0  0
 32 48  1  0  0  0  0
 32 31  1  0  0  0  0
 33 35  2  0  0  0  0
 35 34  2  0  0  0  0
 36 33  1  0  0  0  0
 37 36  1  0  0  0  0
 38 37  1  0  0  0  0
 38 39  1  0  0  0  0
 39 41  1  0  0  0  0
 39 40  1  0  0  0  0
 42 39  1  0  0  0  0
 42 43  1  0  0  0  0
 43 44  1  6  0  0  0
 43 45  1  0  0  0  0
 47 46  1  0  0  0  0
 47 45  1  0  0  0  0
 48 49  1  0  0  0  0
 49 50  1  0  0  0  0
 49 51  1  1  0  0  0
M  END
>  <MODEL>
4

>  <REMARK>
 VINA RESULT:      -6.5      2.960      9.585
  Name = 
  24 active torsions:
  status: ('A' for Active; 'I' for Inactive)
    1  A    between atoms: C_1  and  C_45
    2  A    between atoms: C_1  and  C_46
    3  A    between atoms: C_2  and  C_14
    4  A    between atoms: C_2  and  C_46
    5  A    between atoms: C_5  and  O_8
    6  A    between atoms: C_5  and  C_24
    7  A    between atoms: O_8  and  C_44
    8  A    between atoms: C_9  and  C_23
    9  A    between atoms: C_9  and  C_35
   10  A    between atoms: C_9  and  C_47
   11  A    between atoms: C_11  and  C_23
   12  A    between atoms: O_12  and  C_29
   13  A    between atoms: O_12  and  C_51
   14  A    between atoms: C_14  and  C_36
   15  A    between atoms: N_16  and  C_24
   16  A    between atoms: C_17  and  C_18
   17  A    between atoms: C_17  and  C_40
   18  A    between atoms: C_19  and  C_34
   19  A    between atoms: C_19  and  C_36
   20  A    between atoms: C_22  and  C_47
   21  A    between atoms: C_26  and  C_29
   22  A    between atoms: C_43  and  C_45
   23  A    between atoms: C_44  and  C_48
   24  A    between atoms: C_48  and  C_49
                            x       y       z     vdW  Elec       q    Type
                         _______ _______ _______ _____ _____    ______ ____

>  <TORSDO>
F 24

$$$$
=
 OpenBabel11032419223D

 51 53  0  0  1  0  0  0  0  0999 V2000
  188.6490  177.5610  145.3930 C   0  0  0  0  0  0  0  0  0  0  0  0
  190.4550  176.9710  143.9750 O   0  0  0  0  0  0  0  0  0  0  0  0
  189.2340  177.2680  144.0740 C   0  0  0  0  0  0  0  0  0  0  0  0
  185.0650  178.2270  144.3680 N   0  0  0  0  0  2  0  0  0  0  0  0
  188.3760  177.2810  142.8370 C   0  0  1  0  0  3  0  0  0  0  0  0
  187.2830  177.8640  145.4880 C   0  0  0  0  0  0  0  0  0  0  0  0
  189.4390  177.5310  146.5520 C   0  0  0  0  0  3  0  0  0  0  0  0
  188.8700  177.7980  147.8000 C   0  0  0  0  0  3  0  0  0  0  0  0
  187.5080  178.0970  147.8960 C   0  0  0  0  0  3  0  0  0  0  0  0
  186.9730  177.6360  143.1050 N   0  0  0  0  0  0  0  0  0  0  0  0
  186.4540  177.8980  144.2700 C   0  0  0  0  0  0  0  0  0  0  0  0
  186.7170  178.1320  146.7450 C   0  0  0  0  0  3  0  0  0  0  0  0
  184.1820  178.2360  143.2150 C   0  0  0  0  0  2  0  0  0  0  0  0
  184.8720  178.8910  142.0370 C   0  0  0  0  0  2  0  0  0  0  0  0
  183.9710  179.0370  140.9790 O   0  0  0  0  0  0  0  0  0  0  0  0
  184.7700  179.1260  139.8350 C   0  0  0  0  0  2  0  0  0  0  0  0
  183.9830  178.7040  138.6020 C   0  0  0  0  0  2  0  0  0  0  0  0
  181.4730  178.4060  138.8530 C   0  0  0  0  0  0  0  0  0  0  0  0
  182.9690  176.5930  139.4570 C   0  0  0  0  0  3  0  0  0  0  0  0
  180.5740  176.3120  139.6850 C   0  0  0  0  0  3  0  0  0  0  0  0
  181.8700  175.8030  139.8110 C   0  0  0  0  0  3  0  0  0  0  0  0
  180.3770  177.6080  139.2050 C   0  0  0  0  0  3  0  0  0  0  0  0
  182.7810  177.8930  138.9780 C   0  0  0  0  0  0  0  0  0  0  0  0
  181.2210  179.7750  138.3170 C   0  0  0  0  0  2  0  0  0  0  0  0
  180.3250  179.7080  137.2500 O   0  0  0  0  0  0  0  0  0  0  0  0
  180.5880  180.5530  135.0420 C   0  0  0  0  0  1  0  0  0  0  0  0
  181.1300  179.6320  136.1150 C   0  0  0  0  0  2  0  0  0  0  0  0
  188.9660  178.2210  141.7940 C   0  0  0  0  0  2  0  0  0  0  0  0
  190.1570  176.8460  139.8400 C   0  0  0  0  0  0  0  0  0  0  0  0
  189.6350  177.4640  140.7330 C   0  0  0  0  0  0  0  0  0  0  0  0
  190.7650  176.1080  138.7230 C   0  0  0  0  0  2  0  0  0  0  0  0
  190.2380  176.5770  137.3660 C   0  0  2  0  0  3  0  0  0  0  0  0
  187.0630  177.6580  136.0420 C   0  0  0  0  0  3  0  0  0  0  0  0
  188.8390  176.1040  137.1410 C   0  0  0  0  0  3  0  0  0  0  0  0
  187.9540  176.8870  136.5940 C   0  0  0  0  0  0  0  0  0  0  0  0
  185.6730  177.1640  135.8470 C   0  0  0  0  0  2  0  0  0  0  0  0
  185.4590  175.8500  136.5810 C   0  0  0  0  0  2  0  0  0  0  0  0
  185.2750  174.6980  135.5970 C   0  0  0  0  0  2  0  0  0  0  0  0
  184.4090  173.5680  136.1620 C   0  0  0  0  0  0  0  0  0  0  0  0
  184.3910  173.6390  137.6780 C   0  0  0  0  0  1  0  0  0  0  0  0
  185.0290  172.2400  135.7730 C   0  0  0  0  0  1  0  0  0  0  0  0
  182.9650  173.6550  135.6530 C   0  0  0  0  0  2  0  0  0  0  0  0
  182.0300  174.4120  136.5960 C   0  0  1  0  0  3  0  0  0  0  0  0
  181.6990  175.7700  136.0050 C   0  0  0  0  0  1  0  0  0  0  0  0
  180.7430  173.6320  136.7870 C   0  0  0  0  0  2  0  0  0  0  0  0
  179.8670  171.3220  136.6740 C   0  0  0  0  0  1  0  0  0  0  0  0
  180.8110  172.3150  136.0370 C   0  0  0  0  0  2  0  0  0  0  0  0
  191.1550  176.1300  136.2320 C   0  0  0  0  0  2  0  0  0  0  0  0
  192.3500  175.3520  136.7610 C   0  0  1  0  0  3  0  0  0  0  0  0
  192.3100  174.0400  136.2810 O   0  0  0  0  0  1  0  0  0  0  0  0
  193.6290  176.0190  136.2970 C   0  0  0  0  0  1  0  0  0  0  0  0
  1  6  2  0  0  0  0
  1  7  1  0  0  0  0
  2  3  2  0  0  0  0
  3  1  1  0  0  0  0
  5 28  1  6  0  0  0
  5 10  1  0  0  0  0
  5  3  1  0  0  0  0
  6 12  1  0  0  0  0
  7  8  2  0  0  0  0
  8  9  1  0  0  0  0
 10 11  2  0  0  0  0
 11  4  1  0  0  0  0
 11  6  1  0  0  0  0
 12  9  2  0  0  0  0
 13  4  1  0  0  0  0
 14 13  1  0  0  0  0
 15 14  1  0  0  0  0
 16 15  1  0  0  0  0
 17 23  1  0  0  0  0
 17 16  1  0  0  0  0
 18 23  2  0  0  0  0
 18 22  1  0  0  0  0
 19 21  2  0  0  0  0
 20 21  1  0  0  0  0
 22 20  2  0  0  0  0
 23 19  1  0  0  0  0
 24 18  1  0  0  0  0
 25 24  1  0  0  0  0
 26 27  1  0  0  0  0
 27 25  1  0  0  0  0
 29 30  3  0  0  0  0
 30 28  1  0  0  0  0
 31 29  1  0  0  0  0
 32 48  1  6  0  0  0
 32 31  1  0  0  0  0
 33 35  2  0  0  0  0
 34 32  1  0  0  0  0
 35 34  2  0  0  0  0
 36 33  1  0  0  0  0
 36 37  1  0  0  0  0
 38 39  1  0  0  0  0
 38 37  1  0  0  0  0
 39 40  1  0  0  0  0
 41 39  1  0  0  0  0
 42 39  1  0  0  0  0
 42 43  1  0  0  0  0
 43 44  1  6  0  0  0
 43 45  1  0  0  0  0
 47 46  1  0  0  0  0
 47 45  1  0  0  0  0
 48 49  1  0  0  0  0
 49 51  1  6  0  0  0
 50 49  1  0  0  0  0
M  END
>  <MODEL>
5

>  <REMARK>
 VINA RESULT:      -6.4      2.631      7.403
  Name = 
  24 active torsions:
  status: ('A' for Active; 'I' for Inactive)
    1  A    between atoms: C_1  and  C_45
    2  A    between atoms: C_1  and  C_46
    3  A    between atoms: C_2  and  C_14
    4  A    between atoms: C_2  and  C_46
    5  A    between atoms: C_5  and  O_8
    6  A    between atoms: C_5  and  C_24
    7  A    between atoms: O_8  and  C_44
    8  A    between atoms: C_9  and  C_23
    9  A    between atoms: C_9  and  C_35
   10  A    between atoms: C_9  and  C_47
   11  A    between atoms: C_11  and  C_23
   12  A    between atoms: O_12  and  C_29
   13  A    between atoms: O_12  and  C_51
   14  A    between atoms: C_14  and  C_36
   15  A    between atoms: N_16  and  C_24
   16  A    between atoms: C_17  and  C_18
   17  A    between atoms: C_17  and  C_40
   18  A    between atoms: C_19  and  C_34
   19  A    between atoms: C_19  and  C_36
   20  A    between atoms: C_22  and  C_47
   21  A    between atoms: C_26  and  C_29
   22  A    between atoms: C_43  and  C_45
   23  A    between atoms: C_44  and  C_48
   24  A    between atoms: C_48  and  C_49
                            x       y       z     vdW  Elec       q    Type
                         _______ _______ _______ _____ _____    ______ ____

>  <TORSDO>
F 24

$$$$
=
 OpenBabel11032419223D

 51 53  0  0  1  0  0  0  0  0999 V2000
  188.1750  177.3000  135.7580 C   0  0  0  0  0  0  0  0  0  0  0  0
  187.5390  179.4620  136.4890 O   0  0  0  0  0  0  0  0  0  0  0  0
  187.2020  178.2630  136.2970 C   0  0  0  0  0  0  0  0  0  0  0  0
  185.9970  174.2040  135.6180 N   0  0  0  0  0  2  0  0  0  0  0  0
  185.7870  177.8390  136.5900 C   0  0  1  0  0  3  0  0  0  0  0  0
  187.7760  175.9750  135.5260 C   0  0  0  0  0  0  0  0  0  0  0  0
  189.4890  177.6940  135.4630 C   0  0  0  0  0  3  0  0  0  0  0  0
  190.4000  176.7730  134.9390 C   0  0  0  0  0  3  0  0  0  0  0  0
  190.0020  175.4530  134.7050 C   0  0  0  0  0  3  0  0  0  0  0  0
  185.5360  176.4160  136.3120 N   0  0  0  0  0  0  0  0  0  0  0  0
  186.3950  175.5610  135.8360 C   0  0  0  0  0  0  0  0  0  0  0  0
  188.6960  175.0550  134.9990 C   0  0  0  0  0  3  0  0  0  0  0  0
  184.6430  173.7400  135.8610 C   0  0  0  0  0  2  0  0  0  0  0  0
  184.5550  173.0890  137.2260 C   0  0  0  0  0  2  0  0  0  0  0  0
  183.3470  173.4340  137.8400 O   0  0  0  0  0  0  0  0  0  0  0  0
  183.1590  174.7840  137.5290 C   0  0  0  0  0  2  0  0  0  0  0  0
  181.8300  175.2780  138.0850 C   0  0  0  0  0  2  0  0  0  0  0  0
  181.3950  177.7710  138.2940 C   0  0  0  0  0  0  0  0  0  0  0  0
  182.7480  176.6390  139.9620 C   0  0  0  0  0  3  0  0  0  0  0  0
  182.3210  179.0150  140.1600 C   0  0  0  0  0  3  0  0  0  0  0  0
  182.9140  177.8470  140.6470 C   0  0  0  0  0  3  0  0  0  0  0  0
  181.5620  178.9760  138.9890 C   0  0  0  0  0  3  0  0  0  0  0  0
  181.9910  176.5920  138.7860 C   0  0  0  0  0  0  0  0  0  0  0  0
  180.5540  177.7640  137.0620 C   0  0  0  0  0  2  0  0  0  0  0  0
  179.5710  176.7800  137.1680 O   0  0  0  0  0  0  0  0  0  0  0  0
  180.1600  175.8400  135.0620 C   0  0  0  0  0  1  0  0  0  0  0  0
  179.1170  176.5910  135.8640 C   0  0  0  0  0  2  0  0  0  0  0  0
  185.4250  178.1640  138.0330 C   0  0  0  0  0  2  0  0  0  0  0  0
  187.5970  178.1770  139.5850 C   0  0  0  0  0  0  0  0  0  0  0  0
  186.6240  178.1870  138.8760 C   0  0  0  0  0  0  0  0  0  0  0  0
  188.7780  178.1240  140.4610 C   0  0  0  0  0  2  0  0  0  0  0  0
  189.6260  176.8770  140.2110 C   0  0  2  0  0  3  0  0  0  0  0  0
  190.2190  176.7280  143.7650 C   0  0  0  0  0  3  0  0  0  0  0  0
  190.7290  176.7670  141.2120 C   0  0  0  0  0  3  0  0  0  0  0  0
  190.4680  176.7510  142.4880 C   0  0  0  0  0  0  0  0  0  0  0  0
  191.3410  176.6350  144.7380 C   0  0  0  0  0  2  0  0  0  0  0  0
  190.9600  177.2730  146.0640 C   0  0  0  0  0  2  0  0  0  0  0  0
  189.5790  177.9190  145.9810 C   0  0  0  0  0  2  0  0  0  0  0  0
  188.6570  177.4980  147.1290 C   0  0  0  0  0  0  0  0  0  0  0  0
  188.7100  178.5320  148.2400 C   0  0  0  0  0  1  0  0  0  0  0  0
  189.1600  176.1860  147.7010 C   0  0  0  0  0  1  0  0  0  0  0  0
  187.2030  177.3560  146.6640 C   0  0  0  0  0  2  0  0  0  0  0  0
  186.9240  178.0330  145.3210 C   0  0  1  0  0  3  0  0  0  0  0  0
  186.7940  176.9800  144.2370 C   0  0  0  0  0  1  0  0  0  0  0  0
  185.6310  178.8230  145.3990 C   0  0  0  0  0  2  0  0  0  0  0  0
  183.4560  179.2470  144.3020 C   0  0  0  0  0  1  0  0  0  0  0  0
  184.8310  178.6480  144.1220 C   0  0  0  0  0  2  0  0  0  0  0  0
  190.1760  176.8590  138.7880 C   0  0  0  0  0  2  0  0  0  0  0  0
  191.3270  175.8760  138.6510 C   0  0  1  0  0  3  0  0  0  0  0  0
  190.8960  174.7350  137.9690 O   0  0  0  0  0  1  0  0  0  0  0  0
  192.4560  176.5280  137.8780 C   0  0  0  0  0  1  0  0  0  0  0  0
  1  3  1  0  0  0  0
  3  2  2  0  0  0  0
  3  5  1  0  0  0  0
  4 11  1  0  0  0  0
  4 13  1  0  0  0  0
  5 28  1  1  0  0  0
  6  1  1  0  0  0  0
  6 11  1  0  0  0  0
  7  1  2  0  0  0  0
  8  7  1  0  0  0  0
  9  8  2  0  0  0  0
  9 12  1  0  0  0  0
 10  5  1  0  0  0  0
 11 10  2  0  0  0  0
 12  6  2  0  0  0  0
 13 14  1  0  0  0  0
 14 15  1  0  0  0  0
 16 15  1  0  0  0  0
 16 17  1  0  0  0  0
 17 23  1  0  0  0  0
 18 23  2  0  0  0  0
 18 22  1  0  0  0  0
 19 21  2  0  0  0  0
 20 21  1  0  0  0  0
 22 20  2  0  0  0  0
 23 19  1  0  0  0  0
 24 25  1  0  0  0  0
 24 18  1  0  0  0  0
 26 27  1  0  0  0  0
 27 25  1  0  0  0  0
 28 30  1  0  0  0  0
 29 31  1  0  0  0  0
 30 29  3  0  0  0  0
 32 48  1  6  0  0  0
 32 31  1  0  0  0  0
 32 34  1  0  0  0  0
 33 36  1  0  0  0  0
 34 35  2  0  0  0  0
 35 33  2  0  0  0  0
 36 37  1  0  0  0  0
 38 37  1  0  0  0  0
 38 39  1  0  0  0  0
 39 41  1  0  0  0  0
 39 40  1  0  0  0  0
 42 39  1  0  0  0  0
 43 44  1  6  0  0  0
 43 45  1  0  0  0  0
 43 42  1  0  0  0  0
 47 46  1  0  0  0  0
 47 45  1  0  0  0  0
 49 51  1  6  0  0  0
 49 48  1  0  0  0  0
 50 49  1  0  0  0  0
M  END
>  <MODEL>
6

>  <REMARK>
 VINA RESULT:      -6.4      3.031      6.565
  Name = 
  24 active torsions:
  status: ('A' for Active; 'I' for Inactive)
    1  A    between atoms: C_1  and  C_45
    2  A    between atoms: C_1  and  C_46
    3  A    between atoms: C_2  and  C_14
    4  A    between atoms: C_2  and  C_46
    5  A    between atoms: C_5  and  O_8
    6  A    between atoms: C_5  and  C_24
    7  A    between atoms: O_8  and  C_44
    8  A    between atoms: C_9  and  C_23
    9  A    between atoms: C_9  and  C_35
   10  A    between atoms: C_9  and  C_47
   11  A    between atoms: C_11  and  C_23
   12  A    between atoms: O_12  and  C_29
   13  A    between atoms: O_12  and  C_51
   14  A    between atoms: C_14  and  C_36
   15  A    between atoms: N_16  and  C_24
   16  A    between atoms: C_17  and  C_18
   17  A    between atoms: C_17  and  C_40
   18  A    between atoms: C_19  and  C_34
   19  A    between atoms: C_19  and  C_36
   20  A    between atoms: C_22  and  C_47
   21  A    between atoms: C_26  and  C_29
   22  A    between atoms: C_43  and  C_45
   23  A    between atoms: C_44  and  C_48
   24  A    between atoms: C_48  and  C_49
                            x       y       z     vdW  Elec       q    Type
                         _______ _______ _______ _____ _____    ______ ____

>  <TORSDO>
F 24

$$$$
=
 OpenBabel11032419223D

 51 53  0  0  1  0  0  0  0  0999 V2000
  190.1120  176.9140  144.9900 C   0  0  0  0  0  0  0  0  0  0  0  0
  191.6770  176.3730  143.2950 O   0  0  0  0  0  0  0  0  0  0  0  0
  190.5000  176.7200  143.5840 C   0  0  0  0  0  0  0  0  0  0  0  0
  186.4740  177.8560  144.5230 N   0  0  0  0  0  2  0  0  0  0  0  0
  189.4920  176.8960  142.4810 C   0  0  1  0  0  3  0  0  0  0  0  0
  188.7910  177.2750  145.2960 C   0  0  0  0  0  0  0  0  0  0  0  0
  191.0420  176.7320  146.0250 C   0  0  0  0  0  3  0  0  0  0  0  0
  190.6580  176.9060  147.3570 C   0  0  0  0  0  3  0  0  0  0  0  0
  189.3410  177.2630  147.6630 C   0  0  0  0  0  3  0  0  0  0  0  0
  188.1610  177.2940  142.9660 N   0  0  0  0  0  0  0  0  0  0  0  0
  187.8140  177.4680  144.2090 C   0  0  0  0  0  0  0  0  0  0  0  0
  188.4120  177.4490  146.6360 C   0  0  0  0  0  3  0  0  0  0  0  0
  185.4510  178.0210  143.5060 C   0  0  0  0  0  2  0  0  0  0  0  0
  186.0290  178.7260  142.2970 C   0  0  0  0  0  2  0  0  0  0  0  0
  185.0130  179.3900  141.6030 O   0  0  0  0  0  0  0  0  0  0  0  0
  185.1700  178.9960  140.2710 C   0  0  0  0  0  2  0  0  0  0  0  0
  183.9650  179.4230  139.4450 C   0  0  0  0  0  2  0  0  0  0  0  0
  181.5980  178.5580  139.1250 C   0  0  0  0  0  0  0  0  0  0  0  0
  183.4310  176.9880  139.3850 C   0  0  0  0  0  3  0  0  0  0  0  0
  181.1730  176.1700  139.0710 C   0  0  0  0  0  3  0  0  0  0  0  0
  182.5350  175.9210  139.2640 C   0  0  0  0  0  3  0  0  0  0  0  0
  180.7080  177.4850  138.9990 C   0  0  0  0  0  3  0  0  0  0  0  0
  182.9730  178.3080  139.3180 C   0  0  0  0  0  0  0  0  0  0  0  0
  181.0680  179.9480  139.0150 C   0  0  0  0  0  2  0  0  0  0  0  0
  180.5830  180.1680  137.7260 O   0  0  0  0  0  0  0  0  0  0  0  0
  180.0750  182.4220  138.2940 C   0  0  0  0  0  1  0  0  0  0  0  0
  180.9140  181.4920  137.4430 C   0  0  0  0  0  2  0  0  0  0  0  0
  189.9990  177.9010  141.4550 C   0  0  0  0  0  2  0  0  0  0  0  0
  188.5260  177.7970  139.2310 C   0  0  0  0  0  0  0  0  0  0  0  0
  189.1800  177.8590  140.2400 C   0  0  0  0  0  0  0  0  0  0  0  0
  187.7400  177.6800  137.9930 C   0  0  0  0  0  2  0  0  0  0  0  0
  188.2940  176.6050  137.0570 C   0  0  2  0  0  3  0  0  0  0  0  0
  184.8060  176.7220  136.1500 C   0  0  0  0  0  3  0  0  0  0  0  0
  187.1970  175.7550  136.5050 C   0  0  0  0  0  3  0  0  0  0  0  0
  186.0020  176.2440  136.3330 C   0  0  0  0  0  0  0  0  0  0  0  0
  183.7300  175.8450  135.6150 C   0  0  0  0  0  2  0  0  0  0  0  0
  184.1550  174.3860  135.6510 C   0  0  0  0  0  2  0  0  0  0  0  0
  183.0150  173.4740  135.2060 C   0  0  0  0  0  2  0  0  0  0  0  0
  182.5960  172.4750  136.2890 C   0  0  0  0  0  0  0  0  0  0  0  0
  183.7780  172.1650  137.1900 C   0  0  0  0  0  1  0  0  0  0  0  0
  182.1790  171.1790  135.6200 C   0  0  0  0  0  1  0  0  0  0  0  0
  181.4550  173.0230  137.1530 C   0  0  0  0  0  2  0  0  0  0  0  0
  180.0860  172.9450  136.4770 C   0  0  1  0  0  3  0  0  0  0  0  0
  179.1910  171.9920  137.2460 C   0  0  0  0  0  1  0  0  0  0  0  0
  179.4400  174.3180  136.4540 C   0  0  0  0  0  2  0  0  0  0  0  0
  179.5650  176.6010  135.5130 C   0  0  0  0  0  1  0  0  0  0  0  0
  180.0980  175.1910  135.4050 C   0  0  0  0  0  2  0  0  0  0  0  0
  189.3470  175.7520  137.7580 C   0  0  0  0  0  2  0  0  0  0  0  0
  190.3600  175.1990  136.7690 C   0  0  1  0  0  3  0  0  0  0  0  0
  191.6490  175.5810  137.1490 O   0  0  0  0  0  1  0  0  0  0  0  0
  190.2680  173.6870  136.7470 C   0  0  0  0  0  1  0  0  0  0  0  0
  1  6  2  0  0  0  0
  1  7  1  0  0  0  0
  2  3  2  0  0  0  0
  3  1  1  0  0  0  0
  5 28  1  6  0  0  0
  5 10  1  0  0  0  0
  5  3  1  0  0  0  0
  6 12  1  0  0  0  0
  7  8  2  0  0  0  0
  8  9  1  0  0  0  0
 10 11  2  0  0  0  0
 11  4  1  0  0  0  0
 11  6  1  0  0  0  0
 12  9  2  0  0  0  0
 13  4  1  0  0  0  0
 14 13  1  0  0  0  0
 15 14  1  0  0  0  0
 16 15  1  0  0  0  0
 17 16  1  0  0  0  0
 18 23  1  0  0  0  0
 20 21  2  0  0  0  0
 21 19  1  0  0  0  0
 22 20  1  0  0  0  0
 22 18  2  0  0  0  0
 23 19  2  0  0  0  0
 23 17  1  0  0  0  0
 24 18  1  0  0  0  0
 25 24  1  0  0  0  0
 27 25  1  0  0  0  0
 27 26  1  0  0  0  0
 29 30  3  0  0  0  0
 30 28  1  0  0  0  0
 31 29  1  0  0  0  0
 32 34  1  1  0  0  0
 32 48  1  0  0  0  0
 32 31  1  0  0  0  0
 33 35  2  0  0  0  0
 35 34  2  0  0  0  0
 36 37  1  0  0  0  0
 36 33  1  0  0  0  0
 38 37  1  0  0  0  0
 38 39  1  0  0  0  0
 39 42  1  0  0  0  0
 39 40  1  0  0  0  0
 41 39  1  0  0  0  0
 43 42  1  0  0  0  0
 43 44  1  1  0  0  0
 45 43  1  0  0  0  0
 47 46  1  0  0  0  0
 47 45  1  0  0  0  0
 49 51  1  1  0  0  0
 49 50  1  0  0  0  0
 49 48  1  0  0  0  0
M  END
>  <MODEL>
7

>  <REMARK>
 VINA RESULT:      -6.2      2.871      8.083
  Name = 
  24 active torsions:
  status: ('A' for Active; 'I' for Inactive)
    1  A    between atoms: C_1  and  C_45
    2  A    between atoms: C_1  and  C_46
    3  A    between atoms: C_2  and  C_14
    4  A    between atoms: C_2  and  C_46
    5  A    between atoms: C_5  and  O_8
    6  A    between atoms: C_5  and  C_24
    7  A    between atoms: O_8  and  C_44
    8  A    between atoms: C_9  and  C_23
    9  A    between atoms: C_9  and  C_35
   10  A    between atoms: C_9  and  C_47
   11  A    between atoms: C_11  and  C_23
   12  A    between atoms: O_12  and  C_29
   13  A    between atoms: O_12  and  C_51
   14  A    between atoms: C_14  and  C_36
   15  A    between atoms: N_16  and  C_24
   16  A    between atoms: C_17  and  C_18
   17  A    between atoms: C_17  and  C_40
   18  A    between atoms: C_19  and  C_34
   19  A    between atoms: C_19  and  C_36
   20  A    between atoms: C_22  and  C_47
   21  A    between atoms: C_26  and  C_29
   22  A    between atoms: C_43  and  C_45
   23  A    between atoms: C_44  and  C_48
   24  A    between atoms: C_48  and  C_49
                            x       y       z     vdW  Elec       q    Type
                         _______ _______ _______ _____ _____    ______ ____

>  <TORSDO>
F 24

$$$$
=
 OpenBabel11032419223D

 51 53  0  0  1  0  0  0  0  0999 V2000
  188.8180  177.4940  145.5370 C   0  0  0  0  0  0  0  0  0  0  0  0
  190.6900  176.8750  144.2220 O   0  0  0  0  0  0  0  0  0  0  0  0
  189.4710  177.1960  144.2530 C   0  0  0  0  0  0  0  0  0  0  0  0
  185.3130  178.2400  144.3120 N   0  0  0  0  0  2  0  0  0  0  0  0
  188.6870  177.2350  142.9690 C   0  0  1  0  0  3  0  0  0  0  0  0
  187.4540  177.8250  145.5560 C   0  0  0  0  0  0  0  0  0  0  0  0
  189.5390  177.4410  146.7400 C   0  0  0  0  0  3  0  0  0  0  0  0
  188.9030  177.7120  147.9550 C   0  0  0  0  0  3  0  0  0  0  0  0
  187.5440  178.0380  147.9740 C   0  0  0  0  0  3  0  0  0  0  0  0
  187.2780  177.6170  143.1580 N   0  0  0  0  0  0  0  0  0  0  0  0
  186.6980  177.8830  144.2920 C   0  0  0  0  0  0  0  0  0  0  0  0
  186.8230  178.0970  146.7790 C   0  0  0  0  0  3  0  0  0  0  0  0
  184.4980  178.2750  143.1110 C   0  0  0  0  0  2  0  0  0  0  0  0
  185.2660  178.9280  141.9810 C   0  0  0  0  0  2  0  0  0  0  0  0
  184.3740  179.4540  141.0420 O   0  0  0  0  0  0  0  0  0  0  0  0
  184.5170  178.6400  139.9140 C   0  0  0  0  0  2  0  0  0  0  0  0
  183.3440  177.6760  139.8020 C   0  0  0  0  0  2  0  0  0  0  0  0
  181.3760  177.3190  138.2370 C   0  0  0  0  0  0  0  0  0  0  0  0
  182.2990  179.5460  138.5260 C   0  0  0  0  0  3  0  0  0  0  0  0
  180.4150  179.2000  137.0420 C   0  0  0  0  0  3  0  0  0  0  0  0
  181.3510  180.0550  137.6320 C   0  0  0  0  0  3  0  0  0  0  0  0
  180.4270  177.8370  137.3470 C   0  0  0  0  0  3  0  0  0  0  0  0
  182.3190  178.1810  138.8340 C   0  0  0  0  0  0  0  0  0  0  0  0
  181.3390  175.8630  138.5590 C   0  0  0  0  0  2  0  0  0  0  0  0
  180.0410  175.4900  138.9100 O   0  0  0  0  0  0  0  0  0  0  0  0
  179.8840  173.7860  140.5640 C   0  0  0  0  0  1  0  0  0  0  0  0
  180.0980  175.2590  140.2830 C   0  0  0  0  0  2  0  0  0  0  0  0
  189.3550  178.1680  141.9680 C   0  0  0  0  0  2  0  0  0  0  0  0
  190.9250  176.7960  140.3010 C   0  0  0  0  0  0  0  0  0  0  0  0
  190.2320  177.4190  141.0650 C   0  0  0  0  0  0  0  0  0  0  0  0
  191.7410  176.0390  139.3400 C   0  0  0  0  0  2  0  0  0  0  0  0
  191.4850  176.4750  137.8960 C   0  0  2  0  0  3  0  0  0  0  0  0
  189.0250  178.9470  136.9770 C   0  0  0  0  0  3  0  0  0  0  0  0
  190.0230  176.6340  137.6340 C   0  0  0  0  0  3  0  0  0  0  0  0
  189.5300  177.7940  137.3090 C   0  0  0  0  0  0  0  0  0  0  0  0
  187.5620  179.0760  136.7390 C   0  0  0  0  0  2  0  0  0  0  0  0
  187.0350  177.8800  135.9630 C   0  0  0  0  0  2  0  0  0  0  0  0
  186.0540  177.0700  136.8070 C   0  0  0  0  0  2  0  0  0  0  0  0
  185.3210  175.9960  135.9990 C   0  0  0  0  0  0  0  0  0  0  0  0
  184.0590  176.5800  135.3900 C   0  0  0  0  0  1  0  0  0  0  0  0
  184.9020  174.8820  136.9390 C   0  0  0  0  0  1  0  0  0  0  0  0
  186.1970  175.4420  134.8700 C   0  0  0  0  0  2  0  0  0  0  0  0
  186.9280  174.1520  135.2400 C   0  0  1  0  0  3  0  0  0  0  0  0
  186.2330  172.9680  134.5940 C   0  0  0  0  0  1  0  0  0  0  0  0
  188.3620  174.2090  134.7490 C   0  0  0  0  0  2  0  0  0  0  0  0
  188.5620  173.5160  137.1140 C   0  0  0  0  0  1  0  0  0  0  0  0
  189.3020  173.6590  135.8040 C   0  0  0  0  0  2  0  0  0  0  0  0
  192.1170  175.5030  136.9050 C   0  0  0  0  0  2  0  0  0  0  0  0
  193.5990  175.7850  136.7200 C   0  0  1  0  0  3  0  0  0  0  0  0
  193.9260  177.0050  137.3160 O   0  0  0  0  0  1  0  0  0  0  0  0
  194.4060  174.6770  137.3650 C   0  0  0  0  0  1  0  0  0  0  0  0
  1  6  2  0  0  0  0
  1  7  1  0  0  0  0
  2  3  2  0  0  0  0
  3  1  1  0  0  0  0
  5 28  1  6  0  0  0
  5 10  1  0  0  0  0
  5  3  1  0  0  0  0
  6 12  1  0  0  0  0
  7  8  2  0  0  0  0
  8  9  1  0  0  0  0
 10 11  2  0  0  0  0
 11  4  1  0  0  0  0
 11  6  1  0  0  0  0
 12  9  2  0  0  0  0
 13  4  1  0  0  0  0
 14 13  1  0  0  0  0
 15 14  1  0  0  0  0
 16 15  1  0  0  0  0
 17 16  1  0  0  0  0
 18 24  1  0  0  0  0
 18 23  1  0  0  0  0
 19 23  2  0  0  0  0
 20 22  1  0  0  0  0
 20 21  2  0  0  0  0
 21 19  1  0  0  0  0
 22 18  2  0  0  0  0
 23 17  1  0  0  0  0
 24 25  1  0  0  0  0
 25 27  1  0  0  0  0
 27 26  1  0  0  0  0
 29 30  3  0  0  0  0
 30 28  1  0  0  0  0
 31 29  1  0  0  0  0
 32 48  1  6  0  0  0
 32 31  1  0  0  0  0
 33 35  2  0  0  0  0
 34 32  1  0  0  0  0
 35 34  2  0  0  0  0
 36 33  1  0  0  0  0
 37 36  1  0  0  0  0
 37 38  1  0  0  0  0
 39 38  1  0  0  0  0
 39 41  1  0  0  0  0
 40 39  1  0  0  0  0
 42 43  1  0  0  0  0
 42 39  1  0  0  0  0
 43 44  1  6  0  0  0
 45 43  1  0  0  0  0
 45 47  1  0  0  0  0
 47 46  1  0  0  0  0
 49 48  1  0  0  0  0
 49 50  1  0  0  0  0
 49 51  1  1  0  0  0
M  END
>  <MODEL>
8

>  <REMARK>
 VINA RESULT:      -6.0      2.752      6.820
  Name = 
  24 active torsions:
  status: ('A' for Active; 'I' for Inactive)
    1  A    between atoms: C_1  and  C_45
    2  A    between atoms: C_1  and  C_46
    3  A    between atoms: C_2  and  C_14
    4  A    between atoms: C_2  and  C_46
    5  A    between atoms: C_5  and  O_8
    6  A    between atoms: C_5  and  C_24
    7  A    between atoms: O_8  and  C_44
    8  A    between atoms: C_9  and  C_23
    9  A    between atoms: C_9  and  C_35
   10  A    between atoms: C_9  and  C_47
   11  A    between atoms: C_11  and  C_23
   12  A    between atoms: O_12  and  C_29
   13  A    between atoms: O_12  and  C_51
   14  A    between atoms: C_14  and  C_36
   15  A    between atoms: N_16  and  C_24
   16  A    between atoms: C_17  and  C_18
   17  A    between atoms: C_17  and  C_40
   18  A    between atoms: C_19  and  C_34
   19  A    between atoms: C_19  and  C_36
   20  A    between atoms: C_22  and  C_47
   21  A    between atoms: C_26  and  C_29
   22  A    between atoms: C_43  and  C_45
   23  A    between atoms: C_44  and  C_48
   24  A    between atoms: C_48  and  C_49
                            x       y       z     vdW  Elec       q    Type
                         _______ _______ _______ _____ _____    ______ ____

>  <TORSDO>
F 24

$$$$
=
 OpenBabel11032419223D

 51 53  0  0  1  0  0  0  0  0999 V2000
  187.8030  177.4990  138.1970 C   0  0  0  0  0  0  0  0  0  0  0  0
  187.2190  178.6290  140.1970 O   0  0  0  0  0  0  0  0  0  0  0  0
  186.8480  178.1970  139.0720 C   0  0  0  0  0  0  0  0  0  0  0  0
  185.5520  176.7870  135.2350 N   0  0  0  0  0  2  0  0  0  0  0  0
  185.4320  178.4370  138.6220 C   0  0  1  0  0  3  0  0  0  0  0  0
  187.3810  177.0480  136.9370 C   0  0  0  0  0  0  0  0  0  0  0  0
  189.1300  177.2900  138.6030 C   0  0  0  0  0  3  0  0  0  0  0  0
  190.0320  176.6380  137.7570 C   0  0  0  0  0  3  0  0  0  0  0  0
  189.6110  176.1910  136.5010 C   0  0  0  0  0  3  0  0  0  0  0  0
  185.1440  177.8860  137.2880 N   0  0  0  0  0  0  0  0  0  0  0  0
  185.9860  177.2660  136.5120 C   0  0  0  0  0  0  0  0  0  0  0  0
  188.2910  176.3940  136.0930 C   0  0  0  0  0  3  0  0  0  0  0  0
  184.2070  177.0050  134.7360 C   0  0  0  0  0  2  0  0  0  0  0  0
  183.4280  175.7060  134.7570 C   0  0  0  0  0  2  0  0  0  0  0  0
  182.0570  175.9750  134.8140 O   0  0  0  0  0  0  0  0  0  0  0  0
  181.7750  176.1140  136.1760 C   0  0  0  0  0  2  0  0  0  0  0  0
  181.3960  177.5540  136.4960 C   0  0  0  0  0  2  0  0  0  0  0  0
  181.2190  179.0270  138.5570 C   0  0  0  0  0  0  0  0  0  0  0  0
  180.9730  176.6220  138.7700 C   0  0  0  0  0  3  0  0  0  0  0  0
  180.7960  178.0350  140.7300 C   0  0  0  0  0  3  0  0  0  0  0  0
  180.7750  176.7640  140.1480 C   0  0  0  0  0  3  0  0  0  0  0  0
  181.0150  179.1620  139.9360 C   0  0  0  0  0  3  0  0  0  0  0  0
  181.1960  177.7470  137.9680 C   0  0  0  0  0  0  0  0  0  0  0  0
  181.4210  180.2580  137.7380 C   0  0  0  0  0  2  0  0  0  0  0  0
  180.3330  180.4420  136.8850 O   0  0  0  0  0  0  0  0  0  0  0  0
  180.8920  182.6150  137.6760 C   0  0  0  0  0  1  0  0  0  0  0  0
  179.7860  181.6650  137.2680 C   0  0  0  0  0  2  0  0  0  0  0  0
  184.4500  177.8800  139.6430 C   0  0  0  0  0  2  0  0  0  0  0  0
  184.7520  179.1150  141.9910 C   0  0  0  0  0  0  0  0  0  0  0  0
  184.5970  178.5640  140.9310 C   0  0  0  0  0  0  0  0  0  0  0  0
  184.9820  179.7840  143.2800 C   0  0  0  0  0  2  0  0  0  0  0  0
  184.2110  179.1190  144.4220 C   0  0  2  0  0  3  0  0  0  0  0  0
  186.3160  178.9900  147.3470 C   0  0  0  0  0  3  0  0  0  0  0  0
  185.0900  178.1910  145.1940 C   0  0  0  0  0  3  0  0  0  0  0  0
  185.7020  178.5970  146.2680 C   0  0  0  0  0  0  0  0  0  0  0  0
  187.1970  178.0450  148.0850 C   0  0  0  0  0  2  0  0  0  0  0  0
  188.6270  178.1330  147.5770 C   0  0  0  0  0  2  0  0  0  0  0  0
  189.1270  176.7670  147.1150 C   0  0  0  0  0  2  0  0  0  0  0  0
  190.6390  176.7390  146.8730 C   0  0  0  0  0  0  0  0  0  0  0  0
  191.2110  175.4110  147.3390 C   0  0  0  0  0  1  0  0  0  0  0  0
  191.2850  177.8320  147.7030 C   0  0  0  0  0  1  0  0  0  0  0  0
  190.9770  176.9210  145.3890 C   0  0  0  0  0  2  0  0  0  0  0  0
  190.4760  178.2440  144.8070 C   0  0  1  0  0  3  0  0  0  0  0  0
  191.6500  179.0430  144.2730 C   0  0  0  0  0  1  0  0  0  0  0  0
  189.5050  177.9750  143.6730 C   0  0  0  0  0  2  0  0  0  0  0  0
  187.4230  176.7300  143.1970 C   0  0  0  0  0  1  0  0  0  0  0  0
  188.7470  176.6870  143.9240 C   0  0  0  0  0  2  0  0  0  0  0  0
  182.9720  178.3960  143.9020 C   0  0  0  0  0  2  0  0  0  0  0  0
  181.7060  179.1820  144.2010 C   0  0  1  0  0  3  0  0  0  0  0  0
  181.5340  180.1830  143.2410 O   0  0  0  0  0  1  0  0  0  0  0  0
  180.5150  178.2470  144.1720 C   0  0  0  0  0  1  0  0  0  0  0  0
  1  7  1  0  0  0  0
  1  3  1  0  0  0  0
  3  2  2  0  0  0  0
  4 11  1  0  0  0  0
  5  3  1  0  0  0  0
  5 28  1  1  0  0  0
  6  1  2  0  0  0  0
  8  7  2  0  0  0  0
  9  8  1  0  0  0  0
 10  5  1  0  0  0  0
 11  6  1  0  0  0  0
 11 10  2  0  0  0  0
 12  9  2  0  0  0  0
 12  6  1  0  0  0  0
 13 14  1  0  0  0  0
 13  4  1  0  0  0  0
 14 15  1  0  0  0  0
 15 16  1  0  0  0  0
 16 17  1  0  0  0  0
 17 23  1  0  0  0  0
 18 22  1  0  0  0  0
 19 21  2  0  0  0  0
 21 20  1  0  0  0  0
 22 20  2  0  0  0  0
 23 18  2  0  0  0  0
 23 19  1  0  0  0  0
 24 18  1  0  0  0  0
 25 27  1  0  0  0  0
 25 24  1  0  0  0  0
 27 26  1  0  0  0  0
 28 30  1  0  0  0  0
 29 31  1  0  0  0  0
 30 29  3  0  0  0  0
 32 31  1  6  0  0  0
 32 34  1  0  0  0  0
 33 36  1  0  0  0  0
 34 35  2  0  0  0  0
 35 33  2  0  0  0  0
 37 36  1  0  0  0  0
 38 37  1  0  0  0  0
 39 38  1  0  0  0  0
 39 40  1  0  0  0  0
 39 41  1  0  0  0  0
 42 39  1  0  0  0  0
 43 44  1  6  0  0  0
 43 42  1  0  0  0  0
 45 47  1  0  0  0  0
 45 43  1  0  0  0  0
 46 47  1  0  0  0  0
 48 49  1  0  0  0  0
 48 32  1  0  0  0  0
 49 51  1  6  0  0  0
 50 49  1  0  0  0  0
M  END
>  <MODEL>
9

>  <REMARK>
 VINA RESULT:      -6.0      2.131      6.836
  Name = 
  24 active torsions:
  status: ('A' for Active; 'I' for Inactive)
    1  A    between atoms: C_1  and  C_45
    2  A    between atoms: C_1  and  C_46
    3  A    between atoms: C_2  and  C_14
    4  A    between atoms: C_2  and  C_46
    5  A    between atoms: C_5  and  O_8
    6  A    between atoms: C_5  and  C_24
    7  A    between atoms: O_8  and  C_44
    8  A    between atoms: C_9  and  C_23
    9  A    between atoms: C_9  and  C_35
   10  A    between atoms: C_9  and  C_47
   11  A    between atoms: C_11  and  C_23
   12  A    between atoms: O_12  and  C_29
   13  A    between atoms: O_12  and  C_51
   14  A    between atoms: C_14  and  C_36
   15  A    between atoms: N_16  and  C_24
   16  A    between atoms: C_17  and  C_18
   17  A    between atoms: C_17  and  C_40
   18  A    between atoms: C_19  and  C_34
   19  A    between atoms: C_19  and  C_36
   20  A    between atoms: C_22  and  C_47
   21  A    between atoms: C_26  and  C_29
   22  A    between atoms: C_43  and  C_45
   23  A    between atoms: C_44  and  C_48
   24  A    between atoms: C_48  and  C_49
                            x       y       z     vdW  Elec       q    Type
                         _______ _______ _______ _____ _____    ______ ____

>  <TORSDO>
F 24

$$$$
