=
 OpenBabel11042410123D

 32 34  0  0  1  0  0  0  0  0999 V2000
  184.1500  178.6080  144.0550 C   0  0  0  0  0  3  0  0  0  0  0  0
  186.7630  178.8390  139.8450 N   0  0  0  0  0  2  0  0  0  0  0  0
  183.1230  178.9560  140.5270 C   0  0  0  0  0  0  0  0  0  0  0  0
  179.5600  179.3250  139.5120 N   0  0  0  0  0  1  0  0  0  0  0  0
  185.5280  178.7580  140.5620 C   0  0  0  0  0  0  0  0  0  0  0  0
  184.2170  178.5870  142.7180 C   0  0  0  0  0  0  0  0  0  0  0  0
  185.5260  178.3300  142.0120 C   0  0  0  0  0  2  0  0  0  0  0  0
  182.9920  178.7690  141.9120 C   0  0  0  0  0  0  0  0  0  0  0  0
  180.5780  178.9570  141.6980 C   0  0  0  0  0  3  0  0  0  0  0  0
  181.7120  178.7750  142.4940 C   0  0  0  0  0  3  0  0  0  0  0  0
  181.9850  179.1440  139.7360 C   0  0  0  0  0  3  0  0  0  0  0  0
  180.7150  179.1400  140.3200 C   0  0  0  0  0  0  0  0  0  0  0  0
  184.4200  178.9960  139.9210 N   0  0  0  0  0  0  0  0  0  0  0  0
  186.2460  178.2670  145.6350 C   0  0  0  0  0  0  0  0  0  0  0  0
  185.2930  178.4340  144.9150 C   0  0  0  0  0  0  0  0  0  0  0  0
  189.6900  177.3620  146.7760 C   0  0  0  0  0  0  0  0  0  0  0  0
  187.3770  178.0520  146.4900 C   0  0  0  0  0  0  0  0  0  0  0  0
  189.5830  177.6150  148.1530 C   0  0  0  0  0  3  0  0  0  0  0  0
  188.5810  177.5820  145.9500 C   0  0  0  0  0  3  0  0  0  0  0  0
  187.2790  178.3050  147.8610 C   0  0  0  0  0  3  0  0  0  0  0  0
  188.3810  178.0860  148.6930 C   0  0  0  0  0  3  0  0  0  0  0  0
  191.8510  176.1650  146.9400 C   0  0  0  0  0  1  0  0  0  0  0  0
  190.8770  176.8930  146.2040 O   0  0  0  0  0  0  0  0  0  0  0  0
  187.9990  178.5210  140.4290 N   0  0  0  0  0  2  0  0  0  0  0  0
  188.5570  177.3940  139.6960 C   0  0  0  0  0  2  0  0  0  0  0  0
  189.7670  176.8780  140.4100 C   0  0  0  0  0  0  0  0  0  0  0  0
  190.5780  176.1960  139.8020 O   0  0  0  0  0  0  0  0  0  0  0  0
  189.9970  177.1690  141.8630 C   0  0  1  0  0  3  0  0  0  0  0  0
  188.2550  175.9630  142.9720 O   0  0  0  0  0  1  0  0  0  0  0  0
  189.6310  175.9780  142.7400 C   0  0  0  0  0  2  0  0  0  0  0  0
  192.0190  177.1670  143.0760 O   0  0  0  0  0  0  0  0  0  0  0  0
  191.4180  177.5690  142.0920 C   0  0  0  0  0  3  0  0  0  0  0  0
  1 15  1  0  0  0  0
  2 24  1  0  0  0  0
  2  5  1  0  0  0  0
  3  8  1  0  0  0  0
  4 12  1  0  0  0  0
  5  7  1  0  0  0  0
  6  1  2  0  0  0  0
  7  6  1  0  0  0  0
  8 10  2  0  0  0  0
  8  6  1  0  0  0  0
  9 10  1  0  0  0  0
 11 12  1  0  0  0  0
 11  3  2  0  0  0  0
 12  9  2  0  0  0  0
 13  3  1  0  0  0  0
 13  5  2  0  0  0  0
 14 17  1  0  0  0  0
 15 14  3  0  0  0  0
 16 18  1  0  0  0  0
 17 20  2  0  0  0  0
 18 21  2  0  0  0  0
 19 17  1  0  0  0  0
 19 16  2  0  0  0  0
 20 21  1  0  0  0  0
 23 16  1  0  0  0  0
 23 22  1  0  0  0  0
 25 26  1  0  0  0  0
 25 24  1  0  0  0  0
 26 28  1  0  0  0  0
 27 26  2  0  0  0  0
 28 32  1  6  0  0  0
 28 30  1  0  0  0  0
 30 29  1  0  0  0  0
 32 31  2  0  0  0  0
M  END
>  <MODEL>
1

>  <REMARK>
 VINA RESULT:      -9.2      0.000      0.000
  Name = 
  9 active torsions:
  status: ('A' for Active; 'I' for Inactive)
    1  A    between atoms: C_1  and  C_17
    2  A    between atoms: C_1  and  C_20
    3  A    between atoms: C_3  and  C_19
    4  A    between atoms: N_5  and  N_22
    5  A    between atoms: C_7  and  C_16
    6  A    between atoms: C_11  and  O_15
    7  A    between atoms: C_12  and  C_20
    8  A    between atoms: C_17  and  N_22
    9  A    between atoms: C_20  and  C_27
                            x       y       z     vdW  Elec       q    Type
                         _______ _______ _______ _____ _____    ______ ____

>  <TORSDO>
F 9

$$$$
=
 OpenBabel11042410123D

 32 34  0  0  1  0  0  0  0  0999 V2000
  186.9970  177.6740  145.2370 C   0  0  0  0  0  3  0  0  0  0  0  0
  189.8490  176.9060  141.2520 N   0  0  0  0  0  2  0  0  0  0  0  0
  190.5580  176.7740  144.8870 C   0  0  0  0  0  0  0  0  0  0  0  0
  192.7570  176.1440  147.8250 N   0  0  0  0  0  1  0  0  0  0  0  0
  189.6640  177.0520  142.6630 C   0  0  0  0  0  0  0  0  0  0  0  0
  188.1990  177.4990  144.6770 C   0  0  0  0  0  0  0  0  0  0  0  0
  188.4000  177.6900  143.1930 C   0  0  0  0  0  2  0  0  0  0  0  0
  189.3660  177.1600  145.5190 C   0  0  0  0  0  0  0  0  0  0  0  0
  190.4310  176.8650  147.6840 C   0  0  0  0  0  3  0  0  0  0  0  0
  189.3080  177.1990  146.9230 C   0  0  0  0  0  3  0  0  0  0  0  0
  191.6780  176.4340  145.6540 C   0  0  0  0  0  3  0  0  0  0  0  0
  191.6150  176.4840  147.0490 C   0  0  0  0  0  0  0  0  0  0  0  0
  190.6270  176.6860  143.4590 N   0  0  0  0  0  0  0  0  0  0  0  0
  184.8100  178.2730  143.8720 C   0  0  0  0  0  0  0  0  0  0  0  0
  185.8100  178.0100  144.4920 C   0  0  0  0  0  0  0  0  0  0  0  0
  182.4520  178.7940  141.0170 C   0  0  0  0  0  0  0  0  0  0  0  0
  183.6120  178.5700  143.1400 C   0  0  0  0  0  0  0  0  0  0  0  0
  181.2850  179.1620  141.7070 C   0  0  0  0  0  3  0  0  0  0  0  0
  183.6120  178.4990  141.7420 C   0  0  0  0  0  3  0  0  0  0  0  0
  182.4470  178.9350  143.8200 C   0  0  0  0  0  3  0  0  0  0  0  0
  181.2830  179.2320  143.1040 C   0  0  0  0  0  3  0  0  0  0  0  0
  182.4180  179.8560  138.7810 C   0  0  0  0  0  1  0  0  0  0  0  0
  182.4860  178.7120  139.6210 O   0  0  0  0  0  0  0  0  0  0  0  0
  188.9030  177.3460  140.3150 N   0  0  0  0  0  2  0  0  0  0  0  0
  189.6190  178.0530  139.2630 C   0  0  0  0  0  2  0  0  0  0  0  0
  188.6820  178.3700  138.1400 C   0  0  0  0  0  0  0  0  0  0  0  0
  188.8760  179.3640  137.4580 O   0  0  0  0  0  0  0  0  0  0  0  0
  187.4960  177.4990  137.8470 C   0  0  1  0  0  3  0  0  0  0  0  0
  185.8080  178.7810  138.9540 O   0  0  0  0  0  1  0  0  0  0  0  0
  186.2190  178.3170  137.7040 C   0  0  0  0  0  2  0  0  0  0  0  0
  188.4070  175.6700  136.6700 O   0  0  0  0  0  0  0  0  0  0  0  0
  187.7410  176.6920  136.6140 C   0  0  0  0  0  3  0  0  0  0  0  0
  2  5  1  0  0  0  0
  3  8  2  0  0  0  0
  3 11  1  0  0  0  0
  5  7  1  0  0  0  0
  5 13  2  0  0  0  0
  6  1  2  0  0  0  0
  6  8  1  0  0  0  0
  7  6  1  0  0  0  0
  8 10  1  0  0  0  0
 10  9  2  0  0  0  0
 11 12  2  0  0  0  0
 12  9  1  0  0  0  0
 12  4  1  0  0  0  0
 13  3  1  0  0  0  0
 14 15  3  0  0  0  0
 15  1  1  0  0  0  0
 16 18  2  0  0  0  0
 16 19  1  0  0  0  0
 17 20  1  0  0  0  0
 17 14  1  0  0  0  0
 18 21  1  0  0  0  0
 19 17  2  0  0  0  0
 21 20  2  0  0  0  0
 22 23  1  0  0  0  0
 23 16  1  0  0  0  0
 24  2  1  0  0  0  0
 25 24  1  0  0  0  0
 26 25  1  0  0  0  0
 27 26  2  0  0  0  0
 28 32  1  6  0  0  0
 28 26  1  0  0  0  0
 30 28  1  0  0  0  0
 30 29  1  0  0  0  0
 32 31  2  0  0  0  0
M  END
>  <MODEL>
2

>  <REMARK>
 VINA RESULT:      -9.1      3.264      7.829
  Name = 
  9 active torsions:
  status: ('A' for Active; 'I' for Inactive)
    1  A    between atoms: C_1  and  C_17
    2  A    between atoms: C_1  and  C_20
    3  A    between atoms: C_3  and  C_19
    4  A    between atoms: N_5  and  N_22
    5  A    between atoms: C_7  and  C_16
    6  A    between atoms: C_11  and  O_15
    7  A    between atoms: C_12  and  C_20
    8  A    between atoms: C_17  and  N_22
    9  A    between atoms: C_20  and  C_27
                            x       y       z     vdW  Elec       q    Type
                         _______ _______ _______ _____ _____    ______ ____

>  <TORSDO>
F 9

$$$$
=
 OpenBabel11042410123D

 32 34  0  0  1  0  0  0  0  0999 V2000
  186.9500  177.6920  145.1070 C   0  0  0  0  0  3  0  0  0  0  0  0
  189.9170  177.0130  141.1900 N   0  0  0  0  0  2  0  0  0  0  0  0
  190.5310  176.8390  144.8400 C   0  0  0  0  0  0  0  0  0  0  0  0
  192.6580  176.1950  147.8270 N   0  0  0  0  0  1  0  0  0  0  0  0
  189.6920  177.1370  142.5970 C   0  0  0  0  0  0  0  0  0  0  0  0
  188.1690  177.5390  144.5770 C   0  0  0  0  0  0  0  0  0  0  0  0
  188.4070  177.7530  143.1020 C   0  0  0  0  0  2  0  0  0  0  0  0
  189.3170  177.2020  145.4450 C   0  0  0  0  0  0  0  0  0  0  0  0
  190.3280  176.8900  147.6340 C   0  0  0  0  0  3  0  0  0  0  0  0
  189.2210  177.2220  146.8480 C   0  0  0  0  0  3  0  0  0  0  0  0
  191.6340  176.5030  145.6320 C   0  0  0  0  0  3  0  0  0  0  0  0
  191.5330  176.5330  147.0260 C   0  0  0  0  0  0  0  0  0  0  0  0
  190.6380  176.7720  143.4130 N   0  0  0  0  0  0  0  0  0  0  0  0
  184.7980  178.2830  143.6840 C   0  0  0  0  0  0  0  0  0  0  0  0
  185.7800  178.0240  144.3350 C   0  0  0  0  0  0  0  0  0  0  0  0
  181.3100  179.2960  142.7950 C   0  0  0  0  0  0  0  0  0  0  0  0
  183.6270  178.5730  142.9070 C   0  0  0  0  0  0  0  0  0  0  0  0
  181.3370  179.1260  141.4010 C   0  0  0  0  0  3  0  0  0  0  0  0
  182.4610  179.0170  143.5420 C   0  0  0  0  0  3  0  0  0  0  0  0
  183.6480  178.4080  141.5190 C   0  0  0  0  0  3  0  0  0  0  0  0
  182.5030  178.6840  140.7660 C   0  0  0  0  0  3  0  0  0  0  0  0
  179.3280  178.8710  144.2160 C   0  0  0  0  0  1  0  0  0  0  0  0
  180.1620  179.7380  143.4600 O   0  0  0  0  0  0  0  0  0  0  0  0
  188.9910  177.4550  140.2340 N   0  0  0  0  0  2  0  0  0  0  0  0
  189.7380  177.8870  139.0620 C   0  0  0  0  0  2  0  0  0  0  0  0
  188.7910  178.3880  138.0170 C   0  0  0  0  0  0  0  0  0  0  0  0
  188.9110  179.5270  137.5930 O   0  0  0  0  0  0  0  0  0  0  0  0
  187.6830  177.5230  137.4910 C   0  0  1  0  0  3  0  0  0  0  0  0
  186.1010  178.5700  138.9470 O   0  0  0  0  0  1  0  0  0  0  0  0
  186.3280  178.2050  137.6190 C   0  0  0  0  0  2  0  0  0  0  0  0
  187.2840  177.6430  135.1700 O   0  0  0  0  0  0  0  0  0  0  0  0
  187.9490  177.1510  136.0690 C   0  0  0  0  0  3  0  0  0  0  0  0
  2  5  1  0  0  0  0
  3  8  2  0  0  0  0
  3 11  1  0  0  0  0
  5  7  1  0  0  0  0
  5 13  2  0  0  0  0
  6  1  2  0  0  0  0
  6  8  1  0  0  0  0
  7  6  1  0  0  0  0
  8 10  1  0  0  0  0
 10  9  2  0  0  0  0
 11 12  2  0  0  0  0
 12  9  1  0  0  0  0
 12  4  1  0  0  0  0
 13  3  1  0  0  0  0
 14 15  3  0  0  0  0
 15  1  1  0  0  0  0
 16 23  1  0  0  0  0
 16 19  1  0  0  0  0
 17 19  2  0  0  0  0
 17 14  1  0  0  0  0
 18 16  2  0  0  0  0
 20 17  1  0  0  0  0
 21 18  1  0  0  0  0
 21 20  2  0  0  0  0
 23 22  1  0  0  0  0
 24  2  1  0  0  0  0
 25 24  1  0  0  0  0
 26 25  1  0  0  0  0
 27 26  2  0  0  0  0
 28 32  1  6  0  0  0
 28 30  1  0  0  0  0
 28 26  1  0  0  0  0
 30 29  1  0  0  0  0
 31 32  2  0  0  0  0
M  END
>  <MODEL>
3

>  <REMARK>
 VINA RESULT:      -9.0      3.250      7.969
  Name = 
  9 active torsions:
  status: ('A' for Active; 'I' for Inactive)
    1  A    between atoms: C_1  and  C_17
    2  A    between atoms: C_1  and  C_20
    3  A    between atoms: C_3  and  C_19
    4  A    between atoms: N_5  and  N_22
    5  A    between atoms: C_7  and  C_16
    6  A    between atoms: C_11  and  O_15
    7  A    between atoms: C_12  and  C_20
    8  A    between atoms: C_17  and  N_22
    9  A    between atoms: C_20  and  C_27
                            x       y       z     vdW  Elec       q    Type
                         _______ _______ _______ _____ _____    ______ ____

>  <TORSDO>
F 9

$$$$
=
 OpenBabel11042410123D

 32 34  0  0  1  0  0  0  0  0999 V2000
  186.7190  177.7100  145.1530 C   0  0  0  0  0  3  0  0  0  0  0  0
  189.5430  177.3580  141.0910 N   0  0  0  0  0  2  0  0  0  0  0  0
  190.3090  176.9890  144.6970 C   0  0  0  0  0  0  0  0  0  0  0  0
  192.5740  176.2380  147.5550 N   0  0  0  0  0  1  0  0  0  0  0  0
  189.3720  177.3920  142.5110 C   0  0  0  0  0  0  0  0  0  0  0  0
  187.9200  177.6280  144.5680 C   0  0  0  0  0  0  0  0  0  0  0  0
  188.0910  177.9360  143.1000 C   0  0  0  0  0  2  0  0  0  0  0  0
  189.1110  177.2770  145.3700 C   0  0  0  0  0  0  0  0  0  0  0  0
  190.2180  176.8690  147.4950 C   0  0  0  0  0  3  0  0  0  0  0  0
  189.0720  177.2110  146.7740 C   0  0  0  0  0  3  0  0  0  0  0  0
  191.4530  176.6420  145.4240 C   0  0  0  0  0  3  0  0  0  0  0  0
  191.4080  176.5860  146.8200 C   0  0  0  0  0  0  0  0  0  0  0  0
  190.3610  177.0100  143.2660 N   0  0  0  0  0  0  0  0  0  0  0  0
  184.5020  178.3220  143.8440 C   0  0  0  0  0  0  0  0  0  0  0  0
  185.5090  178.0510  144.4480 C   0  0  0  0  0  0  0  0  0  0  0  0
  182.1700  178.9480  140.9880 C   0  0  0  0  0  0  0  0  0  0  0  0
  183.3070  178.6330  143.1120 C   0  0  0  0  0  0  0  0  0  0  0  0
  180.9860  179.2510  141.6810 C   0  0  0  0  0  3  0  0  0  0  0  0
  183.3280  178.6400  141.7120 C   0  0  0  0  0  3  0  0  0  0  0  0
  182.1250  178.9320  143.7950 C   0  0  0  0  0  3  0  0  0  0  0  0
  180.9640  179.2410  143.0800 C   0  0  0  0  0  3  0  0  0  0  0  0
  182.2630  177.7500  138.8240 C   0  0  0  0  0  1  0  0  0  0  0  0
  182.2250  178.9460  139.5910 O   0  0  0  0  0  0  0  0  0  0  0  0
  188.5660  177.8270  140.1990 N   0  0  0  0  0  2  0  0  0  0  0  0
  188.9140  177.3450  138.8700 C   0  0  0  0  0  2  0  0  0  0  0  0
  188.4380  178.3210  137.8400 C   0  0  0  0  0  0  0  0  0  0  0  0
  189.0160  179.3900  137.7130 O   0  0  0  0  0  0  0  0  0  0  0  0
  187.2530  178.0200  136.9720 C   0  0  1  0  0  3  0  0  0  0  0  0
  186.9290  175.6510  137.0090 O   0  0  0  0  0  1  0  0  0  0  0  0
  187.4200  176.6990  136.2310 C   0  0  0  0  0  2  0  0  0  0  0  0
  185.6750  178.9940  138.4280 O   0  0  0  0  0  0  0  0  0  0  0  0
  186.0030  178.0050  137.7910 C   0  0  0  0  0  3  0  0  0  0  0  0
  2  5  1  0  0  0  0
  3  8  2  0  0  0  0
  3 11  1  0  0  0  0
  5  7  1  0  0  0  0
  5 13  2  0  0  0  0
  6  1  2  0  0  0  0
  6  8  1  0  0  0  0
  7  6  1  0  0  0  0
  8 10  1  0  0  0  0
 10  9  2  0  0  0  0
 11 12  2  0  0  0  0
 12  9  1  0  0  0  0
 12  4  1  0  0  0  0
 13  3  1  0  0  0  0
 14 15  3  0  0  0  0
 15  1  1  0  0  0  0
 16 18  2  0  0  0  0
 16 19  1  0  0  0  0
 17 20  1  0  0  0  0
 17 14  1  0  0  0  0
 18 21  1  0  0  0  0
 19 17  2  0  0  0  0
 21 20  2  0  0  0  0
 22 23  1  0  0  0  0
 23 16  1  0  0  0  0
 24  2  1  0  0  0  0
 25 24  1  0  0  0  0
 26 25  1  0  0  0  0
 27 26  2  0  0  0  0
 28 30  1  1  0  0  0
 28 32  1  0  0  0  0
 28 26  1  0  0  0  0
 30 29  1  0  0  0  0
 32 31  2  0  0  0  0
M  END
>  <MODEL>
4

>  <REMARK>
 VINA RESULT:      -8.7      3.222      7.804
  Name = 
  9 active torsions:
  status: ('A' for Active; 'I' for Inactive)
    1  A    between atoms: C_1  and  C_17
    2  A    between atoms: C_1  and  C_20
    3  A    between atoms: C_3  and  C_19
    4  A    between atoms: N_5  and  N_22
    5  A    between atoms: C_7  and  C_16
    6  A    between atoms: C_11  and  O_15
    7  A    between atoms: C_12  and  C_20
    8  A    between atoms: C_17  and  N_22
    9  A    between atoms: C_20  and  C_27
                            x       y       z     vdW  Elec       q    Type
                         _______ _______ _______ _____ _____    ______ ____

>  <TORSDO>
F 9

$$$$
=
 OpenBabel11042410123D

 32 34  0  0  1  0  0  0  0  0999 V2000
  190.1560  176.7670  141.1410 C   0  0  0  0  0  3  0  0  0  0  0  0
  185.8870  179.0710  140.1120 N   0  0  0  0  0  2  0  0  0  0  0  0
  188.5150  177.6120  137.9460 C   0  0  0  0  0  0  0  0  0  0  0  0
  189.9540  176.6570  134.6470 N   0  0  0  0  0  1  0  0  0  0  0  0
  187.1290  178.4800  139.7200 C   0  0  0  0  0  0  0  0  0  0  0  0
  189.3260  177.3540  140.2720 C   0  0  0  0  0  0  0  0  0  0  0  0
  188.2120  178.2530  140.7510 C   0  0  0  0  0  2  0  0  0  0  0  0
  189.5200  177.1650  138.8190 C   0  0  0  0  0  0  0  0  0  0  0  0
  190.8090  176.3770  136.9150 C   0  0  0  0  0  3  0  0  0  0  0  0
  190.6660  176.5430  138.2950 C   0  0  0  0  0  3  0  0  0  0  0  0
  188.6610  177.4390  136.5660 C   0  0  0  0  0  3  0  0  0  0  0  0
  189.8070  176.8260  136.0510 C   0  0  0  0  0  0  0  0  0  0  0  0
  187.3200  178.2110  138.4610 N   0  0  0  0  0  0  0  0  0  0  0  0
  189.9640  177.0280  143.7680 C   0  0  0  0  0  0  0  0  0  0  0  0
  190.0430  176.9020  142.5710 C   0  0  0  0  0  0  0  0  0  0  0  0
  190.9420  177.0930  147.3770 C   0  0  0  0  0  0  0  0  0  0  0  0
  189.8840  177.1890  145.1910 C   0  0  0  0  0  0  0  0  0  0  0  0
  189.7310  177.4890  147.9670 C   0  0  0  0  0  3  0  0  0  0  0  0
  191.0100  176.9460  145.9860 C   0  0  0  0  0  3  0  0  0  0  0  0
  188.6820  177.5850  145.7860 C   0  0  0  0  0  3  0  0  0  0  0  0
  188.6050  177.7350  147.1740 C   0  0  0  0  0  3  0  0  0  0  0  0
  192.8100  175.6220  148.0660 C   0  0  0  0  0  1  0  0  0  0  0  0
  192.0860  176.8420  148.1410 O   0  0  0  0  0  0  0  0  0  0  0  0
  185.6210  179.4710  141.4300 N   0  0  0  0  0  2  0  0  0  0  0  0
  184.7800  178.4520  142.0400 C   0  0  0  0  0  2  0  0  0  0  0  0
  185.1760  178.2620  143.4710 C   0  0  0  0  0  0  0  0  0  0  0  0
  186.1040  177.5150  143.7430 O   0  0  0  0  0  0  0  0  0  0  0  0
  184.4440  178.9570  144.5800 C   0  0  1  0  0  3  0  0  0  0  0  0
  182.3120  179.3860  143.5860 O   0  0  0  0  0  1  0  0  0  0  0  0
  182.9570  178.6290  144.5650 C   0  0  0  0  0  2  0  0  0  0  0  0
  185.5820  179.4540  146.5850 O   0  0  0  0  0  0  0  0  0  0  0  0
  185.0450  178.5970  145.9000 C   0  0  0  0  0  3  0  0  0  0  0  0
  1 15  1  0  0  0  0
  2 24  1  0  0  0  0
  3 13  1  0  0  0  0
  3  8  1  0  0  0  0
  4 12  1  0  0  0  0
  5  2  1  0  0  0  0
  5  7  1  0  0  0  0
  6  7  1  0  0  0  0
  6  1  2  0  0  0  0
  8  6  1  0  0  0  0
  9 10  1  0  0  0  0
 10  8  2  0  0  0  0
 11  3  2  0  0  0  0
 12 11  1  0  0  0  0
 12  9  2  0  0  0  0
 13  5  2  0  0  0  0
 14 17  1  0  0  0  0
 15 14  3  0  0  0  0
 16 18  1  0  0  0  0
 16 23  1  0  0  0  0
 17 20  2  0  0  0  0
 17 19  1  0  0  0  0
 19 16  2  0  0  0  0
 20 21  1  0  0  0  0
 21 18  2  0  0  0  0
 22 23  1  0  0  0  0
 24 25  1  0  0  0  0
 25 26  1  0  0  0  0
 26 27  2  0  0  0  0
 26 28  1  0  0  0  0
 28 30  1  1  0  0  0
 28 32  1  0  0  0  0
 29 30  1  0  0  0  0
 32 31  2  0  0  0  0
M  END
>  <MODEL>
5

>  <REMARK>
 VINA RESULT:      -8.6      2.590      6.067
  Name = 
  9 active torsions:
  status: ('A' for Active; 'I' for Inactive)
    1  A    between atoms: C_1  and  C_17
    2  A    between atoms: C_1  and  C_20
    3  A    between atoms: C_3  and  C_19
    4  A    between atoms: N_5  and  N_22
    5  A    between atoms: C_7  and  C_16
    6  A    between atoms: C_11  and  O_15
    7  A    between atoms: C_12  and  C_20
    8  A    between atoms: C_17  and  N_22
    9  A    between atoms: C_20  and  C_27
                            x       y       z     vdW  Elec       q    Type
                         _______ _______ _______ _____ _____    ______ ____

>  <TORSDO>
F 9

$$$$
=
 OpenBabel11042410123D

 32 34  0  0  1  0  0  0  0  0999 V2000
  184.6260  178.3070  144.7760 C   0  0  0  0  0  3  0  0  0  0  0  0
  185.9620  179.0040  140.0500 N   0  0  0  0  0  2  0  0  0  0  0  0
  182.6630  179.0320  141.7370 C   0  0  0  0  0  0  0  0  0  0  0  0
  178.9690  179.4950  141.8080 N   0  0  0  0  0  1  0  0  0  0  0  0
  184.9740  178.8420  141.0720 C   0  0  0  0  0  0  0  0  0  0  0  0
  184.3160  178.4320  143.4800 C   0  0  0  0  0  0  0  0  0  0  0  0
  185.3670  178.2580  142.4110 C   0  0  0  0  0  2  0  0  0  0  0  0
  182.9190  178.6950  143.0750 C   0  0  0  0  0  0  0  0  0  0  0  0
  180.5470  178.8950  143.5690 C   0  0  0  0  0  3  0  0  0  0  0  0
  181.8530  178.6320  143.9900 C   0  0  0  0  0  3  0  0  0  0  0  0
  181.3540  179.3000  141.3220 C   0  0  0  0  0  3  0  0  0  0  0  0
  180.2980  179.2270  142.2350 C   0  0  0  0  0  0  0  0  0  0  0  0
  183.7390  179.1430  140.7970 N   0  0  0  0  0  0  0  0  0  0  0  0
  187.0720  177.8420  145.6720 C   0  0  0  0  0  0  0  0  0  0  0  0
  185.9590  178.0450  145.2560 C   0  0  0  0  0  0  0  0  0  0  0  0
  190.7200  177.0280  145.7850 C   0  0  0  0  0  0  0  0  0  0  0  0
  188.3950  177.6130  146.1790 C   0  0  0  0  0  0  0  0  0  0  0  0
  190.9720  177.1500  147.1610 C   0  0  0  0  0  3  0  0  0  0  0  0
  189.4280  177.2610  145.3010 C   0  0  0  0  0  3  0  0  0  0  0  0
  188.6530  177.7350  147.5470 C   0  0  0  0  0  3  0  0  0  0  0  0
  189.9410  177.5040  148.0390 C   0  0  0  0  0  3  0  0  0  0  0  0
  191.5120  175.7940  143.7900 C   0  0  0  0  0  1  0  0  0  0  0  0
  191.7290  176.6780  144.8810 O   0  0  0  0  0  0  0  0  0  0  0  0
  187.3020  178.6300  140.2260 N   0  0  0  0  0  2  0  0  0  0  0  0
  187.7000  177.8510  139.0630 C   0  0  0  0  0  2  0  0  0  0  0  0
  189.0050  178.3610  138.5370 C   0  0  0  0  0  0  0  0  0  0  0  0
  189.0680  179.4930  138.0820 O   0  0  0  0  0  0  0  0  0  0  0  0
  190.2340  177.5010  138.5390 C   0  0  1  0  0  3  0  0  0  0  0  0
  191.0910  177.5460  140.7710 O   0  0  0  0  0  1  0  0  0  0  0  0
  190.3950  176.7540  139.8570 C   0  0  0  0  0  2  0  0  0  0  0  0
  189.7720  176.8980  136.3070 O   0  0  0  0  0  0  0  0  0  0  0  0
  190.1950  176.5410  137.3960 C   0  0  0  0  0  3  0  0  0  0  0  0
  1 15  1  0  0  0  0
  2 24  1  0  0  0  0
  2  5  1  0  0  0  0
  3  8  1  0  0  0  0
  4 12  1  0  0  0  0
  5  7  1  0  0  0  0
  6  1  2  0  0  0  0
  7  6  1  0  0  0  0
  8  6  1  0  0  0  0
  8 10  2  0  0  0  0
  9 10  1  0  0  0  0
 11  3  2  0  0  0  0
 11 12  1  0  0  0  0
 12  9  2  0  0  0  0
 13  5  2  0  0  0  0
 13  3  1  0  0  0  0
 14 17  1  0  0  0  0
 15 14  3  0  0  0  0
 16 18  1  0  0  0  0
 17 20  2  0  0  0  0
 18 21  2  0  0  0  0
 19 16  2  0  0  0  0
 19 17  1  0  0  0  0
 20 21  1  0  0  0  0
 22 23  1  0  0  0  0
 23 16  1  0  0  0  0
 25 24  1  0  0  0  0
 26 28  1  0  0  0  0
 26 25  1  0  0  0  0
 27 26  2  0  0  0  0
 28 32  1  6  0  0  0
 28 30  1  0  0  0  0
 30 29  1  0  0  0  0
 31 32  2  0  0  0  0
M  END
>  <MODEL>
6

>  <REMARK>
 VINA RESULT:      -8.6      1.603      2.430
  Name = 
  9 active torsions:
  status: ('A' for Active; 'I' for Inactive)
    1  A    between atoms: C_1  and  C_17
    2  A    between atoms: C_1  and  C_20
    3  A    between atoms: C_3  and  C_19
    4  A    between atoms: N_5  and  N_22
    5  A    between atoms: C_7  and  C_16
    6  A    between atoms: C_11  and  O_15
    7  A    between atoms: C_12  and  C_20
    8  A    between atoms: C_17  and  N_22
    9  A    between atoms: C_20  and  C_27
                            x       y       z     vdW  Elec       q    Type
                         _______ _______ _______ _____ _____    ______ ____

>  <TORSDO>
F 9

$$$$
=
 OpenBabel11042410123D

 32 34  0  0  1  0  0  0  0  0999 V2000
  183.9540  178.6320  143.9540 C   0  0  0  0  0  3  0  0  0  0  0  0
  186.5240  178.6470  139.7110 N   0  0  0  0  0  2  0  0  0  0  0  0
  182.9070  179.0010  140.4350 C   0  0  0  0  0  0  0  0  0  0  0  0
  179.3610  179.5800  139.4570 N   0  0  0  0  0  1  0  0  0  0  0  0
  185.2950  178.6530  140.4430 C   0  0  0  0  0  0  0  0  0  0  0  0
  184.0030  178.5900  142.6170 C   0  0  0  0  0  0  0  0  0  0  0  0
  185.2850  178.2440  141.8980 C   0  0  0  0  0  2  0  0  0  0  0  0
  182.7810  178.8390  141.8230 C   0  0  0  0  0  0  0  0  0  0  0  0
  180.3810  179.1750  141.6350 C   0  0  0  0  0  3  0  0  0  0  0  0
  181.5110  178.9310  142.4200 C   0  0  0  0  0  3  0  0  0  0  0  0
  181.7730  179.2500  139.6550 C   0  0  0  0  0  3  0  0  0  0  0  0
  180.5120  179.3320  140.2530 C   0  0  0  0  0  0  0  0  0  0  0  0
  184.1960  178.9520  139.8120 N   0  0  0  0  0  0  0  0  0  0  0  0
  186.0620  178.2040  145.4970 C   0  0  0  0  0  0  0  0  0  0  0  0
  185.0950  178.3970  144.8020 C   0  0  0  0  0  0  0  0  0  0  0  0
  189.5310  177.2490  146.5140 C   0  0  0  0  0  0  0  0  0  0  0  0
  187.2230  177.9790  146.3090 C   0  0  0  0  0  0  0  0  0  0  0  0
  189.4850  177.5260  147.8900 C   0  0  0  0  0  3  0  0  0  0  0  0
  188.3940  177.4780  145.7290 C   0  0  0  0  0  3  0  0  0  0  0  0
  187.1840  178.2550  147.6790 C   0  0  0  0  0  3  0  0  0  0  0  0
  188.3150  178.0280  148.4700 C   0  0  0  0  0  3  0  0  0  0  0  0
  191.5370  177.5490  145.0940 C   0  0  0  0  0  1  0  0  0  0  0  0
  190.6860  176.7480  145.9020 O   0  0  0  0  0  0  0  0  0  0  0  0
  187.7440  178.2600  140.2840 N   0  0  0  0  0  2  0  0  0  0  0  0
  188.7870  178.4810  139.2940 C   0  0  0  0  0  2  0  0  0  0  0  0
  189.2420  177.1670  138.7390 C   0  0  0  0  0  0  0  0  0  0  0  0
  188.5550  176.5970  137.9050 O   0  0  0  0  0  0  0  0  0  0  0  0
  190.5180  176.5270  139.2010 C   0  0  1  0  0  3  0  0  0  0  0  0
  191.3300  174.5870  138.0630 O   0  0  0  0  0  1  0  0  0  0  0  0
  191.3280  175.9820  138.0330 C   0  0  0  0  0  2  0  0  0  0  0  0
  191.9310  177.1370  140.9870 O   0  0  0  0  0  0  0  0  0  0  0  0
  191.3280  177.5030  139.9900 C   0  0  0  0  0  3  0  0  0  0  0  0
  1 15  1  0  0  0  0
  2 24  1  0  0  0  0
  2  5  1  0  0  0  0
  3  8  1  0  0  0  0
  4 12  1  0  0  0  0
  5  7  1  0  0  0  0
  6  1  2  0  0  0  0
  7  6  1  0  0  0  0
  8 10  2  0  0  0  0
  8  6  1  0  0  0  0
  9 10  1  0  0  0  0
 11 12  1  0  0  0  0
 11  3  2  0  0  0  0
 12  9  2  0  0  0  0
 13  3  1  0  0  0  0
 13  5  2  0  0  0  0
 14 17  1  0  0  0  0
 15 14  3  0  0  0  0
 16 18  1  0  0  0  0
 17 20  2  0  0  0  0
 18 21  2  0  0  0  0
 19 17  1  0  0  0  0
 19 16  2  0  0  0  0
 20 21  1  0  0  0  0
 22 23  1  0  0  0  0
 23 16  1  0  0  0  0
 25 24  1  0  0  0  0
 26 28  1  0  0  0  0
 26 25  1  0  0  0  0
 27 26  2  0  0  0  0
 28 30  1  6  0  0  0
 28 32  1  0  0  0  0
 30 29  1  0  0  0  0
 32 31  2  0  0  0  0
M  END
>  <MODEL>
7

>  <REMARK>
 VINA RESULT:      -8.4      1.321      1.738
  Name = 
  9 active torsions:
  status: ('A' for Active; 'I' for Inactive)
    1  A    between atoms: C_1  and  C_17
    2  A    between atoms: C_1  and  C_20
    3  A    between atoms: C_3  and  C_19
    4  A    between atoms: N_5  and  N_22
    5  A    between atoms: C_7  and  C_16
    6  A    between atoms: C_11  and  O_15
    7  A    between atoms: C_12  and  C_20
    8  A    between atoms: C_17  and  N_22
    9  A    between atoms: C_20  and  C_27
                            x       y       z     vdW  Elec       q    Type
                         _______ _______ _______ _____ _____    ______ ____

>  <TORSDO>
F 9

$$$$
=
 OpenBabel11042410123D

 32 34  0  0  1  0  0  0  0  0999 V2000
  187.0330  177.7190  145.0790 C   0  0  0  0  0  3  0  0  0  0  0  0
  190.0530  176.5120  141.3340 N   0  0  0  0  0  2  0  0  0  0  0  0
  190.5910  176.7440  144.9920 C   0  0  0  0  0  0  0  0  0  0  0  0
  192.6410  176.3920  148.0810 N   0  0  0  0  0  1  0  0  0  0  0  0
  189.8050  176.8040  142.7120 C   0  0  0  0  0  0  0  0  0  0  0  0
  188.2570  177.4730  144.5980 C   0  0  0  0  0  0  0  0  0  0  0  0
  188.5290  177.5090  143.1130 C   0  0  0  0  0  2  0  0  0  0  0  0
  189.3780  177.2080  145.5250 C   0  0  0  0  0  0  0  0  0  0  0  0
  190.3370  177.1230  147.7570 C   0  0  0  0  0  3  0  0  0  0  0  0
  189.2560  177.3920  146.9130 C   0  0  0  0  0  3  0  0  0  0  0  0
  191.6690  176.4720  145.8420 C   0  0  0  0  0  3  0  0  0  0  0  0
  191.5420  176.6650  147.2210 C   0  0  0  0  0  0  0  0  0  0  0  0
  190.7240  176.5100  143.5850 N   0  0  0  0  0  0  0  0  0  0  0  0
  184.9180  178.2220  143.5700 C   0  0  0  0  0  0  0  0  0  0  0  0
  185.8880  177.9920  144.2480 C   0  0  0  0  0  0  0  0  0  0  0  0
  181.4550  179.2710  142.6250 C   0  0  0  0  0  0  0  0  0  0  0  0
  183.7550  178.5000  142.7770 C   0  0  0  0  0  0  0  0  0  0  0  0
  181.4780  179.0300  141.2420 C   0  0  0  0  0  3  0  0  0  0  0  0
  182.5990  179.0030  143.3870 C   0  0  0  0  0  3  0  0  0  0  0  0
  183.7720  178.2650  141.4000 C   0  0  0  0  0  3  0  0  0  0  0  0
  182.6340  178.5290  140.6310 C   0  0  0  0  0  3  0  0  0  0  0  0
  179.1210  179.0210  143.4100 C   0  0  0  0  0  1  0  0  0  0  0  0
  180.3180  179.7730  143.2660 O   0  0  0  0  0  0  0  0  0  0  0  0
  189.1590  176.8660  140.3120 N   0  0  0  0  0  2  0  0  0  0  0  0
  189.8040  177.8800  139.4920 C   0  0  0  0  0  2  0  0  0  0  0  0
  190.0980  177.3200  138.1360 C   0  0  0  0  0  0  0  0  0  0  0  0
  191.1380  176.7060  137.9520 O   0  0  0  0  0  0  0  0  0  0  0  0
  189.1480  177.5120  136.9910 C   0  0  1  0  0  3  0  0  0  0  0  0
  188.4390  175.2320  136.8610 O   0  0  0  0  0  1  0  0  0  0  0  0
  189.0410  176.2590  136.1320 C   0  0  0  0  0  2  0  0  0  0  0  0
  187.3230  178.9930  137.1850 O   0  0  0  0  0  0  0  0  0  0  0  0
  187.8020  177.9140  137.4990 C   0  0  0  0  0  3  0  0  0  0  0  0
  2  5  1  0  0  0  0
  3  8  2  0  0  0  0
  3 11  1  0  0  0  0
  5  7  1  0  0  0  0
  5 13  2  0  0  0  0
  6  1  2  0  0  0  0
  6  8  1  0  0  0  0
  7  6  1  0  0  0  0
  8 10  1  0  0  0  0
 10  9  2  0  0  0  0
 11 12  2  0  0  0  0
 12  9  1  0  0  0  0
 12  4  1  0  0  0  0
 13  3  1  0  0  0  0
 14 15  3  0  0  0  0
 15  1  1  0  0  0  0
 16 23  1  0  0  0  0
 16 19  1  0  0  0  0
 17 19  2  0  0  0  0
 17 14  1  0  0  0  0
 18 16  2  0  0  0  0
 20 17  1  0  0  0  0
 21 18  1  0  0  0  0
 21 20  2  0  0  0  0
 23 22  1  0  0  0  0
 24  2  1  0  0  0  0
 25 24  1  0  0  0  0
 26 25  1  0  0  0  0
 27 26  2  0  0  0  0
 28 30  1  1  0  0  0
 28 32  1  0  0  0  0
 28 26  1  0  0  0  0
 30 29  1  0  0  0  0
 31 32  2  0  0  0  0
M  END
>  <MODEL>
8

>  <REMARK>
 VINA RESULT:      -8.3      3.129      7.949
  Name = 
  9 active torsions:
  status: ('A' for Active; 'I' for Inactive)
    1  A    between atoms: C_1  and  C_17
    2  A    between atoms: C_1  and  C_20
    3  A    between atoms: C_3  and  C_19
    4  A    between atoms: N_5  and  N_22
    5  A    between atoms: C_7  and  C_16
    6  A    between atoms: C_11  and  O_15
    7  A    between atoms: C_12  and  C_20
    8  A    between atoms: C_17  and  N_22
    9  A    between atoms: C_20  and  C_27
                            x       y       z     vdW  Elec       q    Type
                         _______ _______ _______ _____ _____    ______ ____

>  <TORSDO>
F 9

$$$$
=
 OpenBabel11042410123D

 32 34  0  0  1  0  0  0  0  0999 V2000
  189.8920  176.8340  141.7260 C   0  0  0  0  0  3  0  0  0  0  0  0
  186.0350  178.7470  139.2650 N   0  0  0  0  0  2  0  0  0  0  0  0
  189.2330  177.2660  138.1210 C   0  0  0  0  0  0  0  0  0  0  0  0
  191.6090  176.1010  135.5020 N   0  0  0  0  0  1  0  0  0  0  0  0
  187.3570  178.2040  139.3150 C   0  0  0  0  0  0  0  0  0  0  0  0
  189.3330  177.2810  140.5960 C   0  0  0  0  0  0  0  0  0  0  0  0
  188.0970  178.1470  140.6320 C   0  0  0  0  0  2  0  0  0  0  0  0
  189.9520  176.9700  139.2900 C   0  0  0  0  0  0  0  0  0  0  0  0
  191.7700  176.0920  137.9360 C   0  0  0  0  0  3  0  0  0  0  0  0
  191.2230  176.3770  139.1900 C   0  0  0  0  0  3  0  0  0  0  0  0
  189.7830  176.9730  136.8690 C   0  0  0  0  0  3  0  0  0  0  0  0
  191.0510  176.3920  136.7770 C   0  0  0  0  0  0  0  0  0  0  0  0
  187.9190  177.8310  138.2020 N   0  0  0  0  0  0  0  0  0  0  0  0
  188.9330  177.3140  144.1460 C   0  0  0  0  0  0  0  0  0  0  0  0
  189.3600  177.0950  143.0390 C   0  0  0  0  0  0  0  0  0  0  0  0
  186.6350  178.2730  146.9350 C   0  0  0  0  0  0  0  0  0  0  0  0
  188.4420  177.5750  145.4680 C   0  0  0  0  0  0  0  0  0  0  0  0
  187.4820  178.1000  148.0420 C   0  0  0  0  0  3  0  0  0  0  0  0
  187.1230  178.0080  145.6500 C   0  0  0  0  0  3  0  0  0  0  0  0
  189.2790  177.4030  146.5740 C   0  0  0  0  0  3  0  0  0  0  0  0
  188.8000  177.6660  147.8610 C   0  0  0  0  0  3  0  0  0  0  0  0
  184.3920  178.7450  146.0000 C   0  0  0  0  0  1  0  0  0  0  0  0
  185.3120  178.7030  147.0820 O   0  0  0  0  0  0  0  0  0  0  0  0
  185.3800  179.2510  140.3990 N   0  0  0  0  0  2  0  0  0  0  0  0
  183.9580  178.9830  140.2440 C   0  0  0  0  0  2  0  0  0  0  0  0
  183.3710  178.5950  141.5650 C   0  0  0  0  0  0  0  0  0  0  0  0
  184.1090  178.2240  142.4650 O   0  0  0  0  0  0  0  0  0  0  0  0
  181.8900  178.6360  141.8010 C   0  0  1  0  0  3  0  0  0  0  0  0
  181.2240  178.4800  144.0920 O   0  0  0  0  0  1  0  0  0  0  0  0
  181.5450  179.3860  143.0810 C   0  0  0  0  0  2  0  0  0  0  0  0
  180.0580  179.6770  140.7420 O   0  0  0  0  0  0  0  0  0  0  0  0
  181.1980  179.2540  140.6300 C   0  0  0  0  0  3  0  0  0  0  0  0
  1 15  1  0  0  0  0
  2  5  1  0  0  0  0
  2 24  1  0  0  0  0
  3 13  1  0  0  0  0
  3  8  1  0  0  0  0
  4 12  1  0  0  0  0
  5  7  1  0  0  0  0
  6  7  1  0  0  0  0
  6  1  2  0  0  0  0
  8  6  1  0  0  0  0
  9 10  1  0  0  0  0
 10  8  2  0  0  0  0
 11  3  2  0  0  0  0
 12 11  1  0  0  0  0
 12  9  2  0  0  0  0
 13  5  2  0  0  0  0
 14 17  1  0  0  0  0
 15 14  3  0  0  0  0
 16 23  1  0  0  0  0
 16 18  1  0  0  0  0
 17 19  1  0  0  0  0
 17 20  2  0  0  0  0
 19 16  2  0  0  0  0
 20 21  1  0  0  0  0
 21 18  2  0  0  0  0
 22 23  1  0  0  0  0
 25 24  1  0  0  0  0
 25 26  1  0  0  0  0
 26 28  1  0  0  0  0
 26 27  2  0  0  0  0
 28 32  1  6  0  0  0
 28 30  1  0  0  0  0
 30 29  1  0  0  0  0
 32 31  2  0  0  0  0
M  END
>  <MODEL>
9

>  <REMARK>
 VINA RESULT:      -8.2      3.110      7.049
  Name = 
  9 active torsions:
  status: ('A' for Active; 'I' for Inactive)
    1  A    between atoms: C_1  and  C_17
    2  A    between atoms: C_1  and  C_20
    3  A    between atoms: C_3  and  C_19
    4  A    between atoms: N_5  and  N_22
    5  A    between atoms: C_7  and  C_16
    6  A    between atoms: C_11  and  O_15
    7  A    between atoms: C_12  and  C_20
    8  A    between atoms: C_17  and  N_22
    9  A    between atoms: C_20  and  C_27
                            x       y       z     vdW  Elec       q    Type
                         _______ _______ _______ _____ _____    ______ ____

>  <TORSDO>
F 9

$$$$
