=
 OpenBabel11042412003D

 28 32  0  0  1  0  0  0  0  0999 V2000
  188.4390  177.1510  142.5050 C   0  0  2  0  0  3  0  0  0  0  0  0
  187.9190  177.7130  143.7810 N   0  0  0  0  0  0  0  0  0  0  0  0
  190.2810  176.4470  143.8080 C   0  0  1  0  0  3  0  0  0  0  0  0
  192.4010  175.9100  147.2810 C   0  0  0  0  0  0  0  0  0  0  0  0
  191.2280  175.8820  144.8110 C   0  0  0  0  0  0  0  0  0  0  0  0
  189.4940  176.1160  142.8020 C   0  0  0  0  0  2  0  0  0  0  0  0
  191.6180  177.0390  146.9300 C   0  0  0  0  0  3  0  0  0  0  0  0
  186.5070  177.9250  143.9430 C   0  0  0  0  0  0  0  0  0  0  0  0
  191.0450  176.9660  145.6770 C   0  0  0  0  0  0  0  0  0  0  0  0
  188.8010  177.9230  144.9600 C   0  0  0  0  0  2  0  0  0  0  0  0
  186.0630  178.4560  144.9970 O   0  0  0  0  0  0  0  0  0  0  0  0
  191.9840  174.7870  145.1680 C   0  0  0  0  0  3  0  0  0  0  0  0
  193.0390  175.8770  148.5520 N   0  0  0  0  0  1  0  0  0  0  0  0
  192.5630  174.8450  146.4110 N   0  0  0  0  0  0  0  0  0  0  0  0
  190.2720  177.6220  144.6320 C   0  0  2  0  0  3  0  0  0  0  0  0
  189.9560  177.7320  140.7190 O   0  0  0  0  0  0  0  0  0  0  0  0
  189.0230  178.2650  141.6260 C   0  0  1  0  0  3  0  0  0  0  0  0
  189.1350  178.0790  139.6340 C   0  0  0  0  0  2  0  0  0  0  0  0
  188.0750  178.6580  140.5270 C   0  0  0  0  0  2  0  0  0  0  0  0
  185.5350  177.5120  142.8820 C   0  0  0  0  0  2  0  0  0  0  0  0
  184.2690  178.2060  143.0600 N   0  0  0  0  0  2  0  0  0  0  0  0
  183.7210  177.9200  140.7240 C   0  0  1  0  0  3  0  0  0  0  0  0
  183.9950  178.9230  141.8270 C   0  0  1  0  0  3  0  0  0  0  0  0
  182.5710  178.6450  141.3880 C   0  0  0  0  0  2  0  0  0  0  0  0
  184.0940  178.6750  139.1130 P   0  0  0  0  0  0  0  0  0  0  0  0
  182.7240  178.5740  138.1260 O   0  0  0  0  0  0  0  0  0  0  0  0
  184.4520  180.1280  139.3170 O   0  0  0  0  0  1  0  0  0  0  0  0
  185.3850  177.8830  138.3560 O   0  0  0  0  0  1  0  0  0  0  0  0
  1  6  1  1  0  0  0
  1  2  1  0  0  0  0
  2  8  1  0  0  0  0
  2 10  1  0  0  0  0
  3  6  1  1  0  0  0
  3 15  1  0  0  0  0
  3  5  1  0  0  0  0
  4 13  1  0  0  0  0
  5 12  2  0  0  0  0
  5  9  1  0  0  0  0
  7  4  1  0  0  0  0
  8 11  2  0  0  0  0
  9  7  2  0  0  0  0
 12 14  1  0  0  0  0
 14  4  2  0  0  0  0
 15 10  1  1  0  0  0
 15  9  1  0  0  0  0
 16 17  1  0  0  0  0
 17 19  1  6  0  0  0
 17  1  1  0  0  0  0
 18 19  1  0  0  0  0
 18 16  1  0  0  0  0
 20 21  1  0  0  0  0
 20  8  1  0  0  0  0
 22 25  1  6  0  0  0
 22 24  1  0  0  0  0
 22 23  1  0  0  0  0
 23 21  1  1  0  0  0
 24 23  1  0  0  0  0
 25 27  1  0  0  0  0
 26 25  2  0  0  0  0
 28 25  1  0  0  0  0
M  END
>  <MODEL>
1

>  <REMARK>
 VINA RESULT:      -7.1      0.000      0.000
  Name = 
  5 active torsions:
  status: ('A' for Active; 'I' for Inactive)
    1  A    between atoms: C_1  and  C_13
    2  A    between atoms: C_7  and  P_11
    3  A    between atoms: N_10  and  C_16
    4  A    between atoms: N_10  and  C_24
    5  A    between atoms: C_12  and  C_24
                            x       y       z     vdW  Elec       q    Type
                         _______ _______ _______ _____ _____    ______ ____

>  <TORSDO>
F 5

$$$$
=
 OpenBabel11042412003D

 28 32  0  0  1  0  0  0  0  0999 V2000
  188.7920  177.1920  141.3740 C   0  0  2  0  0  3  0  0  0  0  0  0
  190.0900  177.3400  142.0880 N   0  0  0  0  0  0  0  0  0  0  0  0
  190.1220  176.5890  139.5160 C   0  0  1  0  0  3  0  0  0  0  0  0
  193.6250  175.7120  137.5660 C   0  0  0  0  0  0  0  0  0  0  0  0
  191.0860  176.0100  138.5380 C   0  0  0  0  0  0  0  0  0  0  0  0
  188.9870  176.3440  140.1440 C   0  0  0  0  0  2  0  0  0  0  0  0
  193.4280  176.7150  138.5490 C   0  0  0  0  0  3  0  0  0  0  0  0
  190.1330  177.2290  143.5200 C   0  0  0  0  0  0  0  0  0  0  0  0
  192.1310  176.8140  139.0070 C   0  0  0  0  0  0  0  0  0  0  0  0
  191.3780  177.4490  141.3520 C   0  0  0  0  0  2  0  0  0  0  0  0
  191.2170  177.4120  144.1370 O   0  0  0  0  0  0  0  0  0  0  0  0
  191.2930  175.0320  137.5890 C   0  0  0  0  0  3  0  0  0  0  0  0
  194.9250  175.5200  137.0220 N   0  0  0  0  0  1  0  0  0  0  0  0
  192.5790  174.9220  137.1200 N   0  0  0  0  0  0  0  0  0  0  0  0
  191.1630  177.5240  139.8330 C   0  0  2  0  0  3  0  0  0  0  0  0
  187.5060  178.4770  139.7880 O   0  0  0  0  0  0  0  0  0  0  0  0
  188.2320  178.5670  140.9870 C   0  0  1  0  0  3  0  0  0  0  0  0
  186.3160  178.8070  140.4550 C   0  0  0  0  0  2  0  0  0  0  0  0
  187.0050  178.9110  141.7860 C   0  0  0  0  0  2  0  0  0  0  0  0
  188.9070  176.8820  144.3060 C   0  0  0  0  0  2  0  0  0  0  0  0
  189.1740  176.9960  145.7320 N   0  0  0  0  0  2  0  0  0  0  0  0
  186.9370  177.4460  146.5250 C   0  0  1  0  0  3  0  0  0  0  0  0
  188.3060  178.0380  146.2510 C   0  0  1  0  0  3  0  0  0  0  0  0
  187.8960  177.6920  147.6690 C   0  0  0  0  0  2  0  0  0  0  0  0
  185.6860  178.7630  146.4600 P   0  0  0  0  0  0  0  0  0  0  0  0
  184.1950  178.1330  146.9550 O   0  0  0  0  0  1  0  0  0  0  0  0
  186.0890  179.8770  147.3970 O   0  0  0  0  0  1  0  0  0  0  0  0
  185.5350  179.3800  144.8900 O   0  0  0  0  0  0  0  0  0  0  0  0
  1  6  1  6  0  0  0
  1  2  1  0  0  0  0
  2  8  1  0  0  0  0
  3 15  1  0  0  0  0
  3  6  1  1  0  0  0
  4  7  1  0  0  0  0
  5  9  1  0  0  0  0
  5  3  1  0  0  0  0
  7  9  2  0  0  0  0
  8 11  2  0  0  0  0
  8 20  1  0  0  0  0
  9 15  1  0  0  0  0
 10  2  1  0  0  0  0
 12  5  2  0  0  0  0
 13  4  1  0  0  0  0
 14  4  2  0  0  0  0
 14 12  1  0  0  0  0
 15 10  1  1  0  0  0
 16 18  1  0  0  0  0
 16 17  1  0  0  0  0
 17  1  1  0  0  0  0
 17 19  1  1  0  0  0
 18 19  1  0  0  0  0
 20 21  1  0  0  0  0
 22 25  1  1  0  0  0
 22 24  1  0  0  0  0
 23 21  1  6  0  0  0
 23 22  1  0  0  0  0
 23 24  1  0  0  0  0
 25 26  1  0  0  0  0
 25 27  1  0  0  0  0
 28 25  2  0  0  0  0
M  END
>  <MODEL>
2

>  <REMARK>
 VINA RESULT:      -6.7      3.817      6.339
  Name = 
  5 active torsions:
  status: ('A' for Active; 'I' for Inactive)
    1  A    between atoms: C_1  and  C_13
    2  A    between atoms: C_7  and  P_11
    3  A    between atoms: N_10  and  C_16
    4  A    between atoms: N_10  and  C_24
    5  A    between atoms: C_12  and  C_24
                            x       y       z     vdW  Elec       q    Type
                         _______ _______ _______ _____ _____    ______ ____

>  <TORSDO>
F 5

$$$$
=
 OpenBabel11042412003D

 28 32  0  0  1  0  0  0  0  0999 V2000
  181.9990  178.5240  140.8980 C   0  0  2  0  0  3  0  0  0  0  0  0
  181.3020  178.5850  142.2110 N   0  0  0  0  0  0  0  0  0  0  0  0
  183.9790  178.4570  142.1880 C   0  0  1  0  0  3  0  0  0  0  0  0
  186.1630  178.2870  145.6580 C   0  0  0  0  0  0  0  0  0  0  0  0
  185.0870  178.1850  143.1450 C   0  0  0  0  0  0  0  0  0  0  0  0
  183.3990  177.9990  141.0940 C   0  0  0  0  0  2  0  0  0  0  0  0
  184.9670  179.0190  145.4410 C   0  0  0  0  0  3  0  0  0  0  0  0
  179.9370  178.1480  142.3150 C   0  0  0  0  0  0  0  0  0  0  0  0
  184.4680  178.9240  144.1590 C   0  0  0  0  0  0  0  0  0  0  0  0
  182.0220  178.9460  143.4620 C   0  0  0  0  0  2  0  0  0  0  0  0
  179.3210  178.2520  143.4100 O   0  0  0  0  0  0  0  0  0  0  0  0
  186.2440  177.4700  143.3720 C   0  0  0  0  0  3  0  0  0  0  0  0
  186.7670  178.3120  146.9450 N   0  0  0  0  0  1  0  0  0  0  0  0
  186.7560  177.5560  144.6430 N   0  0  0  0  0  0  0  0  0  0  0  0
  183.4760  179.3580  143.1840 C   0  0  2  0  0  3  0  0  0  0  0  0
  182.9510  179.9200  139.1750 O   0  0  0  0  0  0  0  0  0  0  0  0
  182.0400  179.9110  140.2450 C   0  0  1  0  0  3  0  0  0  0  0  0
  181.9100  180.1400  138.2590 C   0  0  0  0  0  2  0  0  0  0  0  0
  180.8620  180.1310  139.3350 C   0  0  0  0  0  2  0  0  0  0  0  0
  179.2250  177.5490  141.1430 C   0  0  0  0  0  2  0  0  0  0  0  0
  179.1110  176.1080  141.3050 N   0  0  0  0  0  2  0  0  0  0  0  0
  180.6790  175.2410  139.6850 C   0  0  1  0  0  3  0  0  0  0  0  0
  179.2190  175.5160  139.9830 C   0  0  1  0  0  3  0  0  0  0  0  0
  179.7680  174.1090  140.1040 C   0  0  0  0  0  2  0  0  0  0  0  0
  180.9340  175.2100  137.8850 P   0  0  0  0  0  0  0  0  0  0  0  0
  181.5050  176.7200  137.3810 O   0  0  0  0  0  1  0  0  0  0  0  0
  181.9600  174.1530  137.5470 O   0  0  0  0  0  1  0  0  0  0  0  0
  179.4880  174.8640  137.0750 O   0  0  0  0  0  0  0  0  0  0  0  0
  1  6  1  1  0  0  0
  1  2  1  0  0  0  0
  2  8  1  0  0  0  0
  2 10  1  0  0  0  0
  3  6  1  1  0  0  0
  3  5  1  0  0  0  0
  3 15  1  0  0  0  0
  4 13  1  0  0  0  0
  5 12  2  0  0  0  0
  5  9  1  0  0  0  0
  7  4  1  0  0  0  0
  8 11  2  0  0  0  0
  9  7  2  0  0  0  0
 12 14  1  0  0  0  0
 14  4  2  0  0  0  0
 15 10  1  1  0  0  0
 15  9  1  0  0  0  0
 16 17  1  0  0  0  0
 17 19  1  6  0  0  0
 17  1  1  0  0  0  0
 18 16  1  0  0  0  0
 18 19  1  0  0  0  0
 20 21  1  0  0  0  0
 20  8  1  0  0  0  0
 22 25  1  6  0  0  0
 22 23  1  0  0  0  0
 22 24  1  0  0  0  0
 23 24  1  0  0  0  0
 23 21  1  1  0  0  0
 26 25  1  0  0  0  0
 27 25  1  0  0  0  0
 28 25  2  0  0  0  0
M  END
>  <MODEL>
3

>  <REMARK>
 VINA RESULT:      -6.5      4.368      6.576
  Name = 
  5 active torsions:
  status: ('A' for Active; 'I' for Inactive)
    1  A    between atoms: C_1  and  C_13
    2  A    between atoms: C_7  and  P_11
    3  A    between atoms: N_10  and  C_16
    4  A    between atoms: N_10  and  C_24
    5  A    between atoms: C_12  and  C_24
                            x       y       z     vdW  Elec       q    Type
                         _______ _______ _______ _____ _____    ______ ____

>  <TORSDO>
F 5

$$$$
=
 OpenBabel11042412003D

 28 32  0  0  1  0  0  0  0  0999 V2000
  189.7810  177.4730  141.3050 C   0  0  2  0  0  3  0  0  0  0  0  0
  188.8400  177.5000  140.1520 N   0  0  0  0  0  0  0  0  0  0  0  0
  191.3840  176.7840  139.7110 C   0  0  1  0  0  3  0  0  0  0  0  0
  192.7570  175.9040  135.9440 C   0  0  0  0  0  0  0  0  0  0  0  0
  192.3010  176.5940  138.5510 C   0  0  0  0  0  0  0  0  0  0  0  0
  191.2000  177.5090  140.7980 C   0  0  0  0  0  2  0  0  0  0  0  0
  191.4730  175.6100  136.4710 C   0  0  0  0  0  3  0  0  0  0  0  0
  187.6680  178.3300  140.2070 C   0  0  0  0  0  0  0  0  0  0  0  0
  191.2980  175.9880  137.7860 C   0  0  0  0  0  0  0  0  0  0  0  0
  189.1500  176.8060  138.8740 C   0  0  0  0  0  2  0  0  0  0  0  0
  186.8360  178.3130  139.2610 O   0  0  0  0  0  0  0  0  0  0  0  0
  193.5410  176.8830  138.0250 C   0  0  0  0  0  3  0  0  0  0  0  0
  193.0490  175.5600  134.5960 N   0  0  0  0  0  1  0  0  0  0  0  0
  193.7320  176.5120  136.7170 N   0  0  0  0  0  0  0  0  0  0  0  0
  190.4480  175.9890  138.9690 C   0  0  2  0  0  3  0  0  0  0  0  0
  190.6200  176.0370  143.0520 O   0  0  0  0  0  0  0  0  0  0  0  0
  189.5540  176.2170  142.1560 C   0  0  1  0  0  3  0  0  0  0  0  0
  189.7670  176.2470  144.1470 C   0  0  0  0  0  2  0  0  0  0  0  0
  188.5710  176.4700  143.2660 C   0  0  0  0  0  2  0  0  0  0  0  0
  187.4180  179.2390  141.3700 C   0  0  0  0  0  2  0  0  0  0  0  0
  185.9890  179.4410  141.5530 N   0  0  0  0  0  2  0  0  0  0  0  0
  184.8800  179.5660  143.6950 C   0  0  1  0  0  3  0  0  0  0  0  0
  185.5880  178.6590  142.7090 C   0  0  1  0  0  3  0  0  0  0  0  0
  184.0750  178.6430  142.8070 C   0  0  0  0  0  2  0  0  0  0  0  0
  185.0180  178.8670  145.3670 P   0  0  0  0  0  0  0  0  0  0  0  0
  185.8340  179.9660  146.3610 O   0  0  0  0  0  1  0  0  0  0  0  0
  183.6330  178.6300  145.9220 O   0  0  0  0  0  1  0  0  0  0  0  0
  185.8670  177.4020  145.3430 O   0  0  0  0  0  0  0  0  0  0  0  0
  1  6  1  6  0  0  0
  1 17  1  0  0  0  0
  2  8  1  0  0  0  0
  2  1  1  0  0  0  0
  3  6  1  6  0  0  0
  4  7  2  0  0  0  0
  4 14  1  0  0  0  0
  5  3  1  0  0  0  0
  7  9  1  0  0  0  0
  8 20  1  0  0  0  0
  9  5  2  0  0  0  0
  9 15  1  0  0  0  0
 10  2  1  0  0  0  0
 11  8  2  0  0  0  0
 12  5  1  0  0  0  0
 13  4  1  0  0  0  0
 14 12  2  0  0  0  0
 15 10  1  6  0  0  0
 15  3  1  0  0  0  0
 16 18  1  0  0  0  0
 17 16  1  0  0  0  0
 17 19  1  1  0  0  0
 19 18  1  0  0  0  0
 20 21  1  0  0  0  0
 22 25  1  1  0  0  0
 23 21  1  6  0  0  0
 23 24  1  0  0  0  0
 23 22  1  0  0  0  0
 24 22  1  0  0  0  0
 25 27  1  0  0  0  0
 25 26  1  0  0  0  0
 28 25  2  0  0  0  0
M  END
>  <MODEL>
4

>  <REMARK>
 VINA RESULT:      -6.5      3.879      6.445
  Name = 
  5 active torsions:
  status: ('A' for Active; 'I' for Inactive)
    1  A    between atoms: C_1  and  C_13
    2  A    between atoms: C_7  and  P_11
    3  A    between atoms: N_10  and  C_16
    4  A    between atoms: N_10  and  C_24
    5  A    between atoms: C_12  and  C_24
                            x       y       z     vdW  Elec       q    Type
                         _______ _______ _______ _____ _____    ______ ____

>  <TORSDO>
F 5

$$$$
=
 OpenBabel11042412003D

 28 32  0  0  1  0  0  0  0  0999 V2000
  183.6890  178.2970  141.5260 C   0  0  2  0  0  3  0  0  0  0  0  0
  182.8350  178.8660  142.6030 N   0  0  0  0  0  0  0  0  0  0  0  0
  185.3380  178.1280  143.2100 C   0  0  1  0  0  3  0  0  0  0  0  0
  186.8010  178.4000  147.0350 C   0  0  0  0  0  0  0  0  0  0  0  0
  186.1590  177.8770  144.4290 C   0  0  0  0  0  0  0  0  0  0  0  0
  184.8380  177.5390  142.1400 C   0  0  0  0  0  2  0  0  0  0  0  0
  185.9070  179.3000  146.4020 C   0  0  0  0  0  3  0  0  0  0  0  0
  181.4040  178.7950  142.4900 C   0  0  0  0  0  0  0  0  0  0  0  0
  185.6140  178.9820  145.0920 C   0  0  0  0  0  0  0  0  0  0  0  0
  183.4160  179.3740  143.8750 C   0  0  0  0  0  2  0  0  0  0  0  0
  180.6730  179.3270  143.3690 O   0  0  0  0  0  0  0  0  0  0  0  0
  187.0200  177.0040  145.0590 C   0  0  0  0  0  3  0  0  0  0  0  0
  187.1740  178.6300  148.3880 N   0  0  0  0  0  1  0  0  0  0  0  0
  187.3240  177.3080  146.3630 N   0  0  0  0  0  0  0  0  0  0  0  0
  184.9520  179.3530  143.8490 C   0  0  2  0  0  3  0  0  0  0  0  0
  185.4750  179.0610  140.0940 O   0  0  0  0  0  0  0  0  0  0  0  0
  184.2170  179.4110  140.6140 C   0  0  1  0  0  3  0  0  0  0  0  0
  184.9520  179.0160  138.7920 C   0  0  0  0  0  2  0  0  0  0  0  0
  183.5690  179.3720  139.2570 C   0  0  0  0  0  2  0  0  0  0  0  0
  180.7520  178.0840  141.3460 C   0  0  0  0  0  2  0  0  0  0  0  0
  179.6950  178.9060  140.7770 N   0  0  0  0  0  2  0  0  0  0  0  0
  179.4310  180.4340  138.9250 C   0  0  1  0  0  3  0  0  0  0  0  0
  180.3360  179.9930  140.0590 C   0  0  1  0  0  3  0  0  0  0  0  0
  179.5000  181.2500  140.1980 C   0  0  0  0  0  2  0  0  0  0  0  0
  180.4310  181.2160  137.6230 P   0  0  0  0  0  0  0  0  0  0  0  0
  181.5770  182.2320  138.3410 O   0  0  0  0  0  1  0  0  0  0  0  0
  181.1450  180.1430  136.8340 O   0  0  0  0  0  1  0  0  0  0  0  0
  179.4590  182.1250  136.5770 O   0  0  0  0  0  0  0  0  0  0  0  0
  1  6  1  1  0  0  0
  1  2  1  0  0  0  0
  2 10  1  0  0  0  0
  3  6  1  1  0  0  0
  3 15  1  0  0  0  0
  3  5  1  0  0  0  0
  4 13  1  0  0  0  0
  5 12  2  0  0  0  0
  5  9  1  0  0  0  0
  7  4  1  0  0  0  0
  8  2  1  0  0  0  0
  8 11  2  0  0  0  0
  9  7  2  0  0  0  0
 12 14  1  0  0  0  0
 14  4  2  0  0  0  0
 15 10  1  1  0  0  0
 15  9  1  0  0  0  0
 16 17  1  0  0  0  0
 17 19  1  6  0  0  0
 17  1  1  0  0  0  0
 18 19  1  0  0  0  0
 18 16  1  0  0  0  0
 20  8  1  0  0  0  0
 21 20  1  0  0  0  0
 22 25  1  6  0  0  0
 22 23  1  0  0  0  0
 22 24  1  0  0  0  0
 23 24  1  0  0  0  0
 23 21  1  1  0  0  0
 25 26  1  0  0  0  0
 27 25  1  0  0  0  0
 28 25  2  0  0  0  0
M  END
>  <MODEL>
5

>  <REMARK>
 VINA RESULT:      -6.2      3.735      5.312
  Name = 
  5 active torsions:
  status: ('A' for Active; 'I' for Inactive)
    1  A    between atoms: C_1  and  C_13
    2  A    between atoms: C_7  and  P_11
    3  A    between atoms: N_10  and  C_16
    4  A    between atoms: N_10  and  C_24
    5  A    between atoms: C_12  and  C_24
                            x       y       z     vdW  Elec       q    Type
                         _______ _______ _______ _____ _____    ______ ____

>  <TORSDO>
F 5

$$$$
=
 OpenBabel11042412003D

 28 32  0  0  1  0  0  0  0  0999 V2000
  188.2170  177.8040  139.7820 C   0  0  2  0  0  3  0  0  0  0  0  0
  187.5910  178.6260  140.8530 N   0  0  0  0  0  0  0  0  0  0  0  0
  189.7460  177.1550  141.4630 C   0  0  1  0  0  3  0  0  0  0  0  0
  191.2540  177.0150  145.2770 C   0  0  0  0  0  0  0  0  0  0  0  0
  190.4590  176.6790  142.6820 C   0  0  0  0  0  0  0  0  0  0  0  0
  189.0780  176.7360  140.4040 C   0  0  0  0  0  2  0  0  0  0  0  0
  190.6790  178.1390  144.6320 C   0  0  0  0  0  3  0  0  0  0  0  0
  186.2080  179.0030  140.7460 C   0  0  0  0  0  0  0  0  0  0  0  0
  190.2900  177.9090  143.3290 C   0  0  0  0  0  0  0  0  0  0  0  0
  188.3120  178.9470  142.1140 C   0  0  0  0  0  2  0  0  0  0  0  0
  185.6870  179.7490  141.6180 O   0  0  0  0  0  0  0  0  0  0  0  0
  191.0110  175.5920  143.3240 C   0  0  0  0  0  3  0  0  0  0  0  0
  191.6920  177.1370  146.6250 N   0  0  0  0  0  1  0  0  0  0  0  0
  191.4060  175.8050  144.6210 N   0  0  0  0  0  0  0  0  0  0  0  0
  189.7650  178.4490  142.0820 C   0  0  2  0  0  3  0  0  0  0  0  0
  190.0160  177.9090  138.1760 O   0  0  0  0  0  0  0  0  0  0  0  0
  189.0580  178.6860  138.8490 C   0  0  1  0  0  3  0  0  0  0  0  0
  189.3970  178.1700  136.9430 C   0  0  0  0  0  2  0  0  0  0  0  0
  188.3220  179.0070  137.5770 C   0  0  0  0  0  2  0  0  0  0  0  0
  185.3570  178.5130  139.6170 C   0  0  0  0  0  2  0  0  0  0  0  0
  184.5630  179.6040  139.0740 N   0  0  0  0  0  2  0  0  0  0  0  0
  182.4390  178.9360  140.0100 C   0  0  1  0  0  3  0  0  0  0  0  0
  183.2570  179.0610  138.7410 C   0  0  1  0  0  3  0  0  0  0  0  0
  182.1890  180.0870  139.0610 C   0  0  0  0  0  2  0  0  0  0  0  0
  181.1710  177.6520  139.7870 P   0  0  0  0  0  0  0  0  0  0  0  0
  180.1500  177.6430  141.1360 O   0  0  0  0  0  1  0  0  0  0  0  0
  180.3590  177.9650  138.5520 O   0  0  0  0  0  0  0  0  0  0  0  0
  181.8800  176.1230  139.6170 O   0  0  0  0  0  1  0  0  0  0  0  0
  1  6  1  1  0  0  0
  1  2  1  0  0  0  0
  2 10  1  0  0  0  0
  3  6  1  1  0  0  0
  3 15  1  0  0  0  0
  3  5  1  0  0  0  0
  4 13  1  0  0  0  0
  5 12  2  0  0  0  0
  5  9  1  0  0  0  0
  7  4  1  0  0  0  0
  8  2  1  0  0  0  0
  8 11  2  0  0  0  0
  9  7  2  0  0  0  0
 12 14  1  0  0  0  0
 14  4  2  0  0  0  0
 15 10  1  1  0  0  0
 15  9  1  0  0  0  0
 16 17  1  0  0  0  0
 17 19  1  6  0  0  0
 17  1  1  0  0  0  0
 18 19  1  0  0  0  0
 18 16  1  0  0  0  0
 20  8  1  0  0  0  0
 21 20  1  0  0  0  0
 22 25  1  6  0  0  0
 23 24  1  0  0  0  0
 23 21  1  1  0  0  0
 23 22  1  0  0  0  0
 24 22  1  0  0  0  0
 25 26  1  0  0  0  0
 27 25  2  0  0  0  0
 28 25  1  0  0  0  0
M  END
>  <MODEL>
6

>  <REMARK>
 VINA RESULT:      -6.1      2.313      3.062
  Name = 
  5 active torsions:
  status: ('A' for Active; 'I' for Inactive)
    1  A    between atoms: C_1  and  C_13
    2  A    between atoms: C_7  and  P_11
    3  A    between atoms: N_10  and  C_16
    4  A    between atoms: N_10  and  C_24
    5  A    between atoms: C_12  and  C_24
                            x       y       z     vdW  Elec       q    Type
                         _______ _______ _______ _____ _____    ______ ____

>  <TORSDO>
F 5

$$$$
=
 OpenBabel11042412003D

 28 32  0  0  1  0  0  0  0  0999 V2000
  182.7610  177.8060  140.8180 C   0  0  2  0  0  3  0  0  0  0  0  0
  184.0410  178.5650  140.7820 N   0  0  0  0  0  0  0  0  0  0  0  0
  183.4690  176.9240  138.7420 C   0  0  1  0  0  3  0  0  0  0  0  0
  186.0810  176.3600  135.6270 C   0  0  0  0  0  0  0  0  0  0  0  0
  184.1720  176.3020  137.5850 C   0  0  0  0  0  0  0  0  0  0  0  0
  182.8410  176.6380  139.8680 C   0  0  0  0  0  2  0  0  0  0  0  0
  185.8470  177.5680  136.3320 C   0  0  0  0  0  3  0  0  0  0  0  0
  184.6290  179.0290  142.0080 C   0  0  0  0  0  0  0  0  0  0  0  0
  184.8810  177.4770  137.3120 C   0  0  0  0  0  0  0  0  0  0  0  0
  184.8160  178.7310  139.5230 C   0  0  0  0  0  2  0  0  0  0  0  0
  185.6810  179.7230  141.9830 O   0  0  0  0  0  0  0  0  0  0  0  0
  184.4150  175.1320  136.8980 C   0  0  0  0  0  3  0  0  0  0  0  0
  187.0580  176.3380  134.5940 N   0  0  0  0  0  1  0  0  0  0  0  0
  185.3730  175.2060  135.9180 N   0  0  0  0  0  0  0  0  0  0  0  0
  184.0670  178.1550  138.3120 C   0  0  2  0  0  3  0  0  0  0  0  0
  180.4630  177.9440  140.0960 O   0  0  0  0  0  0  0  0  0  0  0  0
  181.5850  178.7160  140.4420 C   0  0  1  0  0  3  0  0  0  0  0  0
  179.7550  178.4340  141.2050 C   0  0  0  0  0  2  0  0  0  0  0  0
  180.9090  179.2800  141.6610 C   0  0  0  0  0  2  0  0  0  0  0  0
  184.0230  178.6900  143.3340 C   0  0  0  0  0  2  0  0  0  0  0  0
  184.9960  178.8840  144.3980 N   0  0  0  0  0  2  0  0  0  0  0  0
  187.3100  178.2740  144.7310 C   0  0  1  0  0  3  0  0  0  0  0  0
  185.9360  177.7780  144.3280 C   0  0  1  0  0  3  0  0  0  0  0  0
  186.4730  177.4850  145.7150 C   0  0  0  0  0  2  0  0  0  0  0  0
  188.5800  177.2070  143.9890 P   0  0  0  0  0  0  0  0  0  0  0  0
  189.6840  176.7480  145.1850 O   0  0  0  0  0  1  0  0  0  0  0  0
  187.9210  175.9710  143.4220 O   0  0  0  0  0  1  0  0  0  0  0  0
  189.4060  178.0170  142.7520 O   0  0  0  0  0  0  0  0  0  0  0  0
  1  6  1  6  0  0  0
  2  1  1  0  0  0  0
  2  8  1  0  0  0  0
  3  6  1  1  0  0  0
  4 14  2  0  0  0  0
  4  7  1  0  0  0  0
  5  3  1  0  0  0  0
  7  9  2  0  0  0  0
  8 20  1  0  0  0  0
  9  5  1  0  0  0  0
  9 15  1  0  0  0  0
 10  2  1  0  0  0  0
 11  8  2  0  0  0  0
 12  5  2  0  0  0  0
 13  4  1  0  0  0  0
 14 12  1  0  0  0  0
 15  3  1  0  0  0  0
 15 10  1  1  0  0  0
 16 17  1  0  0  0  0
 16 18  1  0  0  0  0
 17  1  1  0  0  0  0
 17 19  1  1  0  0  0
 18 19  1  0  0  0  0
 20 21  1  0  0  0  0
 22 25  1  6  0  0  0
 22 24  1  0  0  0  0
 23 21  1  1  0  0  0
 23 22  1  0  0  0  0
 23 24  1  0  0  0  0
 25 26  1  0  0  0  0
 27 25  1  0  0  0  0
 28 25  2  0  0  0  0
M  END
>  <MODEL>
7

>  <REMARK>
 VINA RESULT:      -6.1      4.253      8.416
  Name = 
  5 active torsions:
  status: ('A' for Active; 'I' for Inactive)
    1  A    between atoms: C_1  and  C_13
    2  A    between atoms: C_7  and  P_11
    3  A    between atoms: N_10  and  C_16
    4  A    between atoms: N_10  and  C_24
    5  A    between atoms: C_12  and  C_24
                            x       y       z     vdW  Elec       q    Type
                         _______ _______ _______ _____ _____    ______ ____

>  <TORSDO>
F 5

$$$$
=
 OpenBabel11042412003D

 28 32  0  0  1  0  0  0  0  0999 V2000
  189.9480  176.4730  138.3410 C   0  0  2  0  0  3  0  0  0  0  0  0
  190.9760  176.7840  139.3710 N   0  0  0  0  0  0  0  0  0  0  0  0
  191.6550  175.1920  137.3250 C   0  0  1  0  0  3  0  0  0  0  0  0
  195.3840  173.5000  137.0520 C   0  0  0  0  0  0  0  0  0  0  0  0
  192.7580  174.2580  136.9610 C   0  0  0  0  0  0  0  0  0  0  0  0
  190.3600  175.2430  137.5730 C   0  0  0  0  0  2  0  0  0  0  0  0
  195.0710  174.7900  137.5510 C   0  0  0  0  0  3  0  0  0  0  0  0
  190.5660  177.1710  140.6930 C   0  0  0  0  0  0  0  0  0  0  0  0
  193.7320  175.1140  137.4880 C   0  0  0  0  0  0  0  0  0  0  0  0
  192.4260  176.5590  139.1220 C   0  0  0  0  0  2  0  0  0  0  0  0
  191.4290  177.4940  141.5540 O   0  0  0  0  0  0  0  0  0  0  0  0
  193.0750  173.0030  136.4880 C   0  0  0  0  0  3  0  0  0  0  0  0
  196.7360  173.0590  137.0690 N   0  0  0  0  0  1  0  0  0  0  0  0
  194.4040  172.6660  136.5420 N   0  0  0  0  0  0  0  0  0  0  0  0
  192.6940  176.1180  137.6750 C   0  0  2  0  0  3  0  0  0  0  0  0
  188.9790  177.2850  136.2860 O   0  0  0  0  0  0  0  0  0  0  0  0
  189.7700  177.6600  137.3850 C   0  0  1  0  0  3  0  0  0  0  0  0
  187.9670  178.1750  136.6790 C   0  0  0  0  0  2  0  0  0  0  0  0
  188.7340  178.6270  137.8890 C   0  0  0  0  0  2  0  0  0  0  0  0
  189.1210  177.1870  141.0820 C   0  0  0  0  0  2  0  0  0  0  0  0
  188.9880  177.1270  142.5290 N   0  0  0  0  0  2  0  0  0  0  0  0
  186.6580  177.4310  143.0900 C   0  0  1  0  0  3  0  0  0  0  0  0
  187.9970  178.1180  142.9110 C   0  0  1  0  0  3  0  0  0  0  0  0
  187.4820  177.8060  144.3020 C   0  0  0  0  0  2  0  0  0  0  0  0
  185.3210  178.6380  142.8420 P   0  0  0  0  0  0  0  0  0  0  0  0
  185.7940  179.7510  141.6590 O   0  0  0  0  0  0  0  0  0  0  0  0
  184.0790  177.9150  142.3750 O   0  0  0  0  0  1  0  0  0  0  0  0
  184.9780  179.4660  144.2790 O   0  0  0  0  0  1  0  0  0  0  0  0
  1  6  1  6  0  0  0
  1  2  1  0  0  0  0
  2  8  1  0  0  0  0
  3  6  1  1  0  0  0
  3 15  1  0  0  0  0
  4 13  1  0  0  0  0
  4  7  1  0  0  0  0
  5  3  1  0  0  0  0
  5  9  1  0  0  0  0
  8 20  1  0  0  0  0
  8 11  2  0  0  0  0
  9  7  2  0  0  0  0
  9 15  1  0  0  0  0
 10  2  1  0  0  0  0
 12 14  1  0  0  0  0
 12  5  2  0  0  0  0
 14  4  2  0  0  0  0
 15 10  1  1  0  0  0
 16 18  1  0  0  0  0
 16 17  1  0  0  0  0
 17 19  1  1  0  0  0
 17  1  1  0  0  0  0
 18 19  1  0  0  0  0
 20 21  1  0  0  0  0
 22 25  1  1  0  0  0
 22 24  1  0  0  0  0
 23 21  1  6  0  0  0
 23 22  1  0  0  0  0
 23 24  1  0  0  0  0
 25 28  1  0  0  0  0
 26 25  2  0  0  0  0
 27 25  1  0  0  0  0
M  END
>  <MODEL>
8

>  <REMARK>
 VINA RESULT:      -6.1      4.786      6.708
  Name = 
  5 active torsions:
  status: ('A' for Active; 'I' for Inactive)
    1  A    between atoms: C_1  and  C_13
    2  A    between atoms: C_7  and  P_11
    3  A    between atoms: N_10  and  C_16
    4  A    between atoms: N_10  and  C_24
    5  A    between atoms: C_12  and  C_24
                            x       y       z     vdW  Elec       q    Type
                         _______ _______ _______ _____ _____    ______ ____

>  <TORSDO>
F 5

$$$$
=
 OpenBabel11042412003D

 28 32  0  0  1  0  0  0  0  0999 V2000
  190.1930  176.6120  140.1200 C   0  0  2  0  0  3  0  0  0  0  0  0
  189.1120  176.9860  139.1670 N   0  0  0  0  0  0  0  0  0  0  0  0
  188.7060  177.3880  141.7850 C   0  0  1  0  0  3  0  0  0  0  0  0
  185.1540  178.8670  143.2160 C   0  0  0  0  0  0  0  0  0  0  0  0
  187.5690  177.6900  142.7000 C   0  0  0  0  0  0  0  0  0  0  0  0
  189.6170  176.4750  141.5060 C   0  0  0  0  0  2  0  0  0  0  0  0
  185.7980  179.2270  142.0040 C   0  0  0  0  0  3  0  0  0  0  0  0
  189.0460  176.3520  137.8790 C   0  0  0  0  0  0  0  0  0  0  0  0
  187.0070  178.5970  141.7940 C   0  0  0  0  0  0  0  0  0  0  0  0
  188.0010  177.8930  139.5620 C   0  0  0  0  0  2  0  0  0  0  0  0
  188.1710  176.7050  137.0440 O   0  0  0  0  0  0  0  0  0  0  0  0
  186.9280  177.3420  143.8690 C   0  0  0  0  0  3  0  0  0  0  0  0
  183.9000  179.4550  143.5360 N   0  0  0  0  0  1  0  0  0  0  0  0
  185.7250  177.9620  144.0950 N   0  0  0  0  0  0  0  0  0  0  0  0
  188.2040  178.4610  140.9750 C   0  0  2  0  0  3  0  0  0  0  0  0
  192.1090  177.5370  141.2570 O   0  0  0  0  0  0  0  0  0  0  0  0
  191.3070  177.6660  140.1100 C   0  0  1  0  0  3  0  0  0  0  0  0
  193.2160  177.1770  140.4710 C   0  0  0  0  0  2  0  0  0  0  0  0
  192.4330  177.2750  139.1930 C   0  0  0  0  0  2  0  0  0  0  0  0
  189.9950  175.2560  137.5070 C   0  0  0  0  0  2  0  0  0  0  0  0
  190.3300  175.3380  136.0940 N   0  0  0  0  0  2  0  0  0  0  0  0
  192.6500  174.7320  135.7960 C   0  0  1  0  0  3  0  0  0  0  0  0
  191.6770  175.8750  136.0020 C   0  0  1  0  0  3  0  0  0  0  0  0
  192.2380  175.5940  134.6220 C   0  0  0  0  0  2  0  0  0  0  0  0
  194.2960  175.2240  136.3900 P   0  0  0  0  0  0  0  0  0  0  0  0
  195.4730  174.5420  135.3850 O   0  0  0  0  0  0  0  0  0  0  0  0
  194.4120  176.7300  136.3400 O   0  0  0  0  0  1  0  0  0  0  0  0
  194.5490  174.6980  137.9800 O   0  0  0  0  0  1  0  0  0  0  0  0
  1  6  1  1  0  0  0
  2 10  1  0  0  0  0
  2  1  1  0  0  0  0
  3  6  1  6  0  0  0
  3  5  1  0  0  0  0
  4 13  1  0  0  0  0
  4 14  1  0  0  0  0
  5 12  1  0  0  0  0
  7  4  2  0  0  0  0
  8  2  1  0  0  0  0
  9  7  1  0  0  0  0
  9  5  2  0  0  0  0
 11  8  2  0  0  0  0
 12 14  2  0  0  0  0
 15 10  1  6  0  0  0
 15  3  1  0  0  0  0
 15  9  1  0  0  0  0
 17 19  1  6  0  0  0
 17  1  1  0  0  0  0
 17 16  1  0  0  0  0
 18 16  1  0  0  0  0
 19 18  1  0  0  0  0
 20  8  1  0  0  0  0
 21 20  1  0  0  0  0
 22 23  1  0  0  0  0
 22 25  1  1  0  0  0
 23 21  1  6  0  0  0
 24 22  1  0  0  0  0
 24 23  1  0  0  0  0
 25 28  1  0  0  0  0
 26 25  2  0  0  0  0
 27 25  1  0  0  0  0
M  END
>  <MODEL>
9

>  <REMARK>
 VINA RESULT:      -6.0      4.553      7.812
  Name = 
  5 active torsions:
  status: ('A' for Active; 'I' for Inactive)
    1  A    between atoms: C_1  and  C_13
    2  A    between atoms: C_7  and  P_11
    3  A    between atoms: N_10  and  C_16
    4  A    between atoms: N_10  and  C_24
    5  A    between atoms: C_12  and  C_24
                            x       y       z     vdW  Elec       q    Type
                         _______ _______ _______ _____ _____    ______ ____

>  <TORSDO>
F 5

$$$$
