=
 OpenBabel11032419403D

 49 54  0  0  1  0  0  0  0  0999 V2000
  183.4110  177.9420  140.6330 C   0  0  2  0  0  3  0  0  0  0  0  0
  184.2700  178.9370  139.8480 C   0  0  0  0  0  2  0  0  0  0  0  0
  188.3020  177.7090  139.0180 C   0  0  1  0  0  3  0  0  0  0  0  0
  188.1600  178.7820  140.0950 C   0  0  0  0  0  2  0  0  0  0  0  0
  186.7160  178.8790  140.6000 C   0  0  0  0  0  2  0  0  0  0  0  0
  185.6820  178.4250  139.5580 C   0  0  2  0  0  3  0  0  0  0  0  0
  187.4380  178.0190  137.7850 C   0  0  0  0  0  2  0  0  0  0  0  0
  186.1240  178.7390  138.1260 C   0  0  0  0  0  2  0  0  0  0  0  0
  189.7620  177.5130  138.6370 C   0  0  0  0  0  2  0  0  0  0  0  0
  190.4420  176.4520  139.4580 C   0  0  0  0  0  0  0  0  0  0  0  0
  190.9200  175.4260  138.8980 O   0  0  0  0  0  0  0  0  0  0  0  0
  189.6680  175.9640  143.0680 C   0  0  0  0  0  3  0  0  0  0  0  0
  189.6240  175.8940  141.7110 N   0  0  0  0  0  0  0  0  0  0  0  0
  191.5400  177.4640  142.9180 C   0  0  0  0  0  3  0  0  0  0  0  0
  190.5020  176.5790  140.9250 C   0  0  0  0  0  0  0  0  0  0  0  0
  191.4760  177.3890  141.5260 C   0  0  0  0  0  3  0  0  0  0  0  0
  190.6310  176.7520  143.7120 C   0  0  0  0  0  0  0  0  0  0  0  0
  190.6970  176.8180  145.1490 N   0  0  0  0  0  0  0  0  0  0  0  0
  190.9450  177.2130  147.8600 O   0  0  0  0  0  0  0  0  0  0  0  0
  191.9570  176.4580  145.8270 C   0  0  0  0  0  2  0  0  0  0  0  0
  191.7140  176.1800  147.3110 C   0  0  0  0  0  2  0  0  0  0  0  0
  189.6400  176.9790  147.3980 C   0  0  0  0  0  2  0  0  0  0  0  0
  189.5420  177.3330  145.9080 C   0  0  0  0  0  2  0  0  0  0  0  0
  184.0050  177.6480  141.9390 N   0  0  0  0  0  2  0  0  0  0  0  0
  183.5730  178.6830  142.8740 C   0  0  0  0  0  2  0  0  0  0  0  0
  185.7210  178.2440  144.1060 C   0  0  0  0  0  3  0  0  0  0  0  0
  184.5130  178.9300  146.4920 N   0  0  0  0  0  0  0  0  0  0  0  0
  183.7780  178.9510  145.3480 C   0  0  0  0  0  3  0  0  0  0  0  0
  184.3690  178.6050  144.1300 C   0  0  0  0  0  0  0  0  0  0  0  0
  186.4570  178.2250  145.2920 C   0  0  0  0  0  3  0  0  0  0  0  0
  185.8270  178.5800  146.4890 C   0  0  0  0  0  0  0  0  0  0  0  0
  186.5650  178.5740  147.7060 N   0  0  0  0  0  1  0  0  0  0  0  0
  183.1950  176.7010  139.8740 N   0  0  0  0  0  2  0  0  0  0  0  0
  181.8330  176.5890  139.5240 N   0  0  0  0  0  2  0  0  0  0  0  0
  180.2240  176.4050  137.8610 O   0  0  0  0  0  0  0  0  0  0  0  0
  181.4130  176.7040  138.1620 C   0  0  0  0  0  0  0  0  0  0  0  0
  182.5580  176.4060  135.9220 N   0  0  0  0  0  0  0  0  0  0  0  0
  180.9900  177.7500  134.5940 C   0  0  0  0  0  2  0  0  0  0  0  0
  182.3760  177.2520  137.1230 C   0  0  1  0  0  3  0  0  0  0  0  0
  181.9410  178.6310  136.7200 C   0  0  0  0  0  3  0  0  0  0  0  0
  181.2560  178.8500  135.5940 C   0  0  0  0  0  0  0  0  0  0  0  0
  181.3170  176.3580  135.1470 C   0  0  0  0  0  2  0  0  0  0  0  0
  180.8140  180.1830  135.2890 C   0  0  0  0  0  0  0  0  0  0  0  0
  180.4260  181.2980  135.0300 C   0  0  0  0  0  3  0  0  0  0  0  0
  182.9430  175.0470  136.3020 C   0  0  0  0  0  2  0  0  0  0  0  0
  184.4600  174.9210  136.2720 C   0  0  0  0  0  2  0  0  0  0  0  0
  184.9720  172.7060  137.2300 C   0  0  0  0  0  2  0  0  0  0  0  0
  184.9630  174.1960  137.5130 C   0  0  0  0  0  3  0  0  0  0  0  0
  186.2660  173.4890  137.1890 C   0  0  0  0  0  2  0  0  0  0  0  0
  1  2  1  6  0  0  0
  1 24  1  0  0  0  0
  3  9  1  6  0  0  0
  3  4  1  0  0  0  0
  4  5  1  0  0  0  0
  6  2  1  1  0  0  0
  6  5  1  0  0  0  0
  7  8  1  0  0  0  0
  7  3  1  0  0  0  0
  8  6  1  0  0  0  0
  9 10  1  0  0  0  0
 10 15  1  0  0  0  0
 11 10  2  0  0  0  0
 12 17  1  0  0  0  0
 13 12  2  0  0  0  0
 14 17  2  0  0  0  0
 15 16  2  0  0  0  0
 15 13  1  0  0  0  0
 16 14  1  0  0  0  0
 17 18  1  0  0  0  0
 18 20  1  0  0  0  0
 18 23  1  0  0  0  0
 20 21  1  0  0  0  0
 21 19  1  0  0  0  0
 22 19  1  0  0  0  0
 23 22  1  0  0  0  0
 24 25  1  0  0  0  0
 25 29  1  0  0  0  0
 26 29  2  0  0  0  0
 26 30  1  0  0  0  0
 28 27  2  0  0  0  0
 29 28  1  0  0  0  0
 30 31  2  0  0  0  0
 31 27  1  0  0  0  0
 31 32  1  0  0  0  0
 33  1  1  0  0  0  0
 34 33  1  0  0  0  0
 35 36  2  0  0  0  0
 36 34  1  0  0  0  0
 37 45  1  0  0  0  0
 37 39  1  0  0  0  0
 38 42  1  0  0  0  0
 38 41  1  0  0  0  0
 39 36  1  1  0  0  0
 40 39  1  0  0  0  0
 41 40  2  0  0  0  0
 42 37  1  0  0  0  0
 43 41  1  0  0  0  0
 44 43  3  0  0  0  0
 46 45  1  0  0  0  0
 46 48  1  0  0  0  0
 47 48  1  0  0  0  0
 49 47  1  0  0  0  0
 49 48  1  0  0  0  0
M  END
>  <MODEL>
1

>  <REMARK>
 VINA RESULT:      -7.4      0.000      0.000
  Name = 
  16 active torsions:
  status: ('A' for Active; 'I' for Inactive)
    1  A    between atoms: C_1  and  C_46
    2  A    between atoms: N_3  and  C_44
    3  A    between atoms: N_6  and  N_16
    4  A    between atoms: N_6  and  C_18
    5  A    between atoms: N_7  and  C_25
    6  A    between atoms: C_11  and  C_23
    7  A    between atoms: C_11  and  N_28
    8  A    between atoms: C_12  and  C_45
    9  A    between atoms: C_18  and  C_22
   10  A    between atoms: C_18  and  N_28
   11  A    between atoms: C_20  and  C_48
   12  A    between atoms: C_22  and  C_40
   13  A    between atoms: C_24  and  C_37
   14  A    between atoms: C_25  and  C_48
   15  A    between atoms: C_29  and  C_33
   16  A    between atoms: C_33  and  C_46
                            x       y       z     vdW  Elec       q    Type
                         _______ _______ _______ _____ _____    ______ ____

>  <TORSDO>
F 16

$$$$
=
 OpenBabel11032419403D

 49 54  0  0  1  0  0  0  0  0999 V2000
  189.7810  177.8660  139.8760 C   0  0  2  0  0  3  0  0  0  0  0  0
  190.2440  177.1600  141.1530 C   0  0  0  0  0  2  0  0  0  0  0  0
  187.7940  177.7150  144.6380 C   0  0  1  0  0  3  0  0  0  0  0  0
  189.2730  178.0410  144.8260 C   0  0  0  0  0  2  0  0  0  0  0  0
  189.9880  178.1960  143.4790 C   0  0  0  0  0  2  0  0  0  0  0  0
  189.3200  177.3970  142.3490 C   0  0  2  0  0  3  0  0  0  0  0  0
  187.5920  176.3860  143.8920 C   0  0  0  0  0  2  0  0  0  0  0  0
  188.6850  176.0990  142.8510 C   0  0  0  0  0  2  0  0  0  0  0  0
  187.0620  177.7200  145.9720 C   0  0  0  0  0  2  0  0  0  0  0  0
  185.9780  178.7600  146.0400 C   0  0  0  0  0  0  0  0  0  0  0  0
  185.9600  179.5960  146.9850 O   0  0  0  0  0  0  0  0  0  0  0  0
  182.5860  178.9780  144.5190 C   0  0  0  0  0  3  0  0  0  0  0  0
  183.6030  178.9360  145.4200 N   0  0  0  0  0  0  0  0  0  0  0  0
  184.1680  178.6750  142.7350 C   0  0  0  0  0  3  0  0  0  0  0  0
  184.9000  178.7680  145.0360 C   0  0  0  0  0  0  0  0  0  0  0  0
  185.2000  178.6250  143.6730 C   0  0  0  0  0  3  0  0  0  0  0  0
  182.8400  178.8500  143.1470 C   0  0  0  0  0  0  0  0  0  0  0  0
  181.7720  178.9110  142.1840 N   0  0  0  0  0  0  0  0  0  0  0  0
  179.7750  179.3210  140.3360 O   0  0  0  0  0  0  0  0  0  0  0  0
  180.4110  179.2540  142.6420 C   0  0  0  0  0  2  0  0  0  0  0  0
  179.3710  178.8590  141.5940 C   0  0  0  0  0  2  0  0  0  0  0  0
  180.7980  178.4450  139.9400 C   0  0  0  0  0  2  0  0  0  0  0  0
  182.0700  178.7260  140.7520 C   0  0  0  0  0  2  0  0  0  0  0  0
  188.3560  177.6300  139.6300 N   0  0  0  0  0  2  0  0  0  0  0  0
  187.9890  178.3310  138.4030 C   0  0  0  0  0  2  0  0  0  0  0  0
  186.5710  176.8820  136.9140 C   0  0  0  0  0  3  0  0  0  0  0  0
  184.2830  177.8760  138.0970 N   0  0  0  0  0  0  0  0  0  0  0  0
  185.4930  178.3420  138.5040 C   0  0  0  0  0  3  0  0  0  0  0  0
  186.6640  177.8550  137.9160 C   0  0  0  0  0  0  0  0  0  0  0  0
  185.3190  176.4180  136.5100 C   0  0  0  0  0  3  0  0  0  0  0  0
  184.1720  176.9320  137.1240 C   0  0  0  0  0  0  0  0  0  0  0  0
  182.8870  176.4640  136.7290 N   0  0  0  0  0  1  0  0  0  0  0  0
  190.5790  177.4530  138.7120 N   0  0  0  0  0  2  0  0  0  0  0  0
  191.0830  176.1520  138.9180 N   0  0  0  0  0  2  0  0  0  0  0  0
  191.7500  174.1190  138.0150 O   0  0  0  0  0  0  0  0  0  0  0  0
  191.1170  175.2000  137.8510 C   0  0  0  0  0  0  0  0  0  0  0  0
  191.0820  175.2540  135.3190 N   0  0  0  0  0  0  0  0  0  0  0  0
  190.0930  173.0320  134.9780 C   0  0  0  0  0  2  0  0  0  0  0  0
  190.3340  175.4710  136.5770 C   0  0  1  0  0  3  0  0  0  0  0  0
  189.0800  174.6470  136.5800 C   0  0  0  0  0  3  0  0  0  0  0  0
  188.9910  173.5020  135.8970 C   0  0  0  0  0  0  0  0  0  0  0  0
  191.3900  173.8320  135.1550 C   0  0  0  0  0  2  0  0  0  0  0  0
  187.7860  172.7240  135.9840 C   0  0  0  0  0  0  0  0  0  0  0  0
  186.7820  172.0560  136.0620 C   0  0  0  0  0  3  0  0  0  0  0  0
  192.3280  176.0200  135.3210 C   0  0  0  0  0  2  0  0  0  0  0  0
  193.5050  175.0750  135.1140 C   0  0  0  0  0  2  0  0  0  0  0  0
  195.9280  174.7660  135.4570 C   0  0  0  0  0  2  0  0  0  0  0  0
  194.7060  175.5260  135.9340 C   0  0  0  0  0  3  0  0  0  0  0  0
  195.7140  176.1990  135.0210 C   0  0  0  0  0  2  0  0  0  0  0  0
  1  2  1  1  0  0  0
  3  4  1  0  0  0  0
  3  9  1  1  0  0  0
  5  4  1  0  0  0  0
  6  2  1  6  0  0  0
  6  8  1  0  0  0  0
  6  5  1  0  0  0  0
  7  3  1  0  0  0  0
  8  7  1  0  0  0  0
  9 10  1  0  0  0  0
 10 11  2  0  0  0  0
 12 13  1  0  0  0  0
 14 17  1  0  0  0  0
 14 16  2  0  0  0  0
 15 13  2  0  0  0  0
 15 10  1  0  0  0  0
 16 15  1  0  0  0  0
 17 12  2  0  0  0  0
 18 20  1  0  0  0  0
 18 17  1  0  0  0  0
 19 21  1  0  0  0  0
 21 20  1  0  0  0  0
 22 19  1  0  0  0  0
 22 23  1  0  0  0  0
 23 18  1  0  0  0  0
 24  1  1  0  0  0  0
 25 24  1  0  0  0  0
 26 29  1  0  0  0  0
 27 28  1  0  0  0  0
 29 25  1  0  0  0  0
 29 28  2  0  0  0  0
 30 26  2  0  0  0  0
 30 31  1  0  0  0  0
 31 27  2  0  0  0  0
 32 31  1  0  0  0  0
 33 34  1  0  0  0  0
 33  1  1  0  0  0  0
 36 35  2  0  0  0  0
 36 34  1  0  0  0  0
 37 45  1  0  0  0  0
 37 39  1  0  0  0  0
 38 42  1  0  0  0  0
 38 41  1  0  0  0  0
 39 40  1  0  0  0  0
 39 36  1  1  0  0  0
 41 43  1  0  0  0  0
 41 40  2  0  0  0  0
 42 37  1  0  0  0  0
 43 44  3  0  0  0  0
 46 45  1  0  0  0  0
 46 48  1  0  0  0  0
 47 48  1  0  0  0  0
 49 47  1  0  0  0  0
 49 48  1  0  0  0  0
M  END
>  <MODEL>
2

>  <REMARK>
 VINA RESULT:      -7.2      3.116      8.913
  Name = 
  16 active torsions:
  status: ('A' for Active; 'I' for Inactive)
    1  A    between atoms: C_1  and  C_46
    2  A    between atoms: N_3  and  C_44
    3  A    between atoms: N_6  and  N_16
    4  A    between atoms: N_6  and  C_18
    5  A    between atoms: N_7  and  C_25
    6  A    between atoms: C_11  and  C_23
    7  A    between atoms: C_11  and  N_28
    8  A    between atoms: C_12  and  C_45
    9  A    between atoms: C_18  and  C_22
   10  A    between atoms: C_18  and  N_28
   11  A    between atoms: C_20  and  C_48
   12  A    between atoms: C_22  and  C_40
   13  A    between atoms: C_24  and  C_37
   14  A    between atoms: C_25  and  C_48
   15  A    between atoms: C_29  and  C_33
   16  A    between atoms: C_33  and  C_46
                            x       y       z     vdW  Elec       q    Type
                         _______ _______ _______ _____ _____    ______ ____

>  <TORSDO>
F 16

$$$$
=
 OpenBabel11032419403D

 49 54  0  0  1  0  0  0  0  0999 V2000
  186.9550  178.5880  141.8550 C   0  0  2  0  0  3  0  0  0  0  0  0
  188.3380  178.8990  141.2770 C   0  0  0  0  0  2  0  0  0  0  0  0
  189.5870  176.5170  137.9280 C   0  0  1  0  0  3  0  0  0  0  0  0
  190.5380  176.5050  139.1230 C   0  0  0  0  0  2  0  0  0  0  0  0
  189.8540  177.0400  140.3860 C   0  0  0  0  0  2  0  0  0  0  0  0
  188.7100  178.0200  140.0820 C   0  0  2  0  0  3  0  0  0  0  0  0
  189.1150  177.9390  137.5880 C   0  0  0  0  0  2  0  0  0  0  0  0
  188.9730  178.8460  138.8200 C   0  0  0  0  0  2  0  0  0  0  0  0
  190.2220  175.8400  136.7220 C   0  0  0  0  0  2  0  0  0  0  0  0
  190.7990  174.4900  137.0470 C   0  0  0  0  0  0  0  0  0  0  0  0
  190.0520  173.5700  137.4840 O   0  0  0  0  0  0  0  0  0  0  0  0
  194.4260  174.2970  137.8660 C   0  0  0  0  0  3  0  0  0  0  0  0
  193.0890  174.5300  137.9450 N   0  0  0  0  0  0  0  0  0  0  0  0
  194.1380  173.4680  135.6280 C   0  0  0  0  0  3  0  0  0  0  0  0
  192.2470  174.2530  136.9110 C   0  0  0  0  0  0  0  0  0  0  0  0
  192.7680  173.7220  135.7220 C   0  0  0  0  0  3  0  0  0  0  0  0
  194.9900  173.7570  136.7030 C   0  0  0  0  0  0  0  0  0  0  0  0
  196.4020  173.4900  136.6160 N   0  0  0  0  0  0  0  0  0  0  0  0
  199.0670  172.9830  136.1550 O   0  0  0  0  0  0  0  0  0  0  0  0
  196.8610  172.0980  136.4350 C   0  0  0  0  0  2  0  0  0  0  0  0
  198.3420  171.9660  136.7880 C   0  0  0  0  0  2  0  0  0  0  0  0
  198.7890  174.1420  136.8970 C   0  0  0  0  0  2  0  0  0  0  0  0
  197.3570  174.6150  136.6120 C   0  0  0  0  0  2  0  0  0  0  0  0
  186.9900  177.3810  142.6850 N   0  0  0  0  0  2  0  0  0  0  0  0
  186.6180  177.7590  144.0450 C   0  0  0  0  0  2  0  0  0  0  0  0
  187.6080  177.6610  146.3550 C   0  0  0  0  0  3  0  0  0  0  0  0
  190.0560  176.9500  145.2940 N   0  0  0  0  0  0  0  0  0  0  0  0
  189.0150  177.1880  144.4530 C   0  0  0  0  0  3  0  0  0  0  0  0
  187.7680  177.5520  144.9690 C   0  0  0  0  0  0  0  0  0  0  0  0
  188.6900  177.4150  147.2010 C   0  0  0  0  0  3  0  0  0  0  0  0
  189.9200  177.0520  146.6440 C   0  0  0  0  0  0  0  0  0  0  0  0
  191.0320  176.7900  147.4930 N   0  0  0  0  0  1  0  0  0  0  0  0
  185.9450  178.4540  140.7940 N   0  0  0  0  0  2  0  0  0  0  0  0
  184.6540  178.5360  141.3540 N   0  0  0  0  0  2  0  0  0  0  0  0
  182.3530  178.5130  141.0410 O   0  0  0  0  0  0  0  0  0  0  0  0
  183.4970  178.6390  140.5200 C   0  0  0  0  0  0  0  0  0  0  0  0
  183.1130  177.9660  138.1080 N   0  0  0  0  0  0  0  0  0  0  0  0
  181.0480  179.2480  137.7570 C   0  0  0  0  0  2  0  0  0  0  0  0
  183.6600  178.9710  139.0460 C   0  0  1  0  0  3  0  0  0  0  0  0
  183.0550  180.3160  138.7700 C   0  0  0  0  0  3  0  0  0  0  0  0
  181.8370  180.4420  138.2360 C   0  0  0  0  0  0  0  0  0  0  0  0
  181.6540  177.9160  138.2180 C   0  0  0  0  0  2  0  0  0  0  0  0
  181.2850  181.7560  138.0480 C   0  0  0  0  0  0  0  0  0  0  0  0
  180.8050  182.8540  137.8970 C   0  0  0  0  0  3  0  0  0  0  0  0
  183.6630  176.6410  138.3930 C   0  0  0  0  0  2  0  0  0  0  0  0
  184.3220  176.0840  137.1390 C   0  0  0  0  0  2  0  0  0  0  0  0
  186.5020  175.6610  136.0630 C   0  0  0  0  0  2  0  0  0  0  0  0
  185.7630  176.5650  137.0320 C   0  0  0  0  0  3  0  0  0  0  0  0
  186.0350  177.0280  135.6120 C   0  0  0  0  0  2  0  0  0  0  0  0
  1  2  1  6  0  0  0
  1 24  1  0  0  0  0
  3  9  1  6  0  0  0
  3  4  1  0  0  0  0
  4  5  1  0  0  0  0
  6  5  1  0  0  0  0
  6  2  1  1  0  0  0
  7  3  1  0  0  0  0
  7  8  1  0  0  0  0
  8  6  1  0  0  0  0
  9 10  1  0  0  0  0
 10 11  2  0  0  0  0
 12 13  1  0  0  0  0
 14 16  2  0  0  0  0
 14 17  1  0  0  0  0
 15 10  1  0  0  0  0
 15 13  2  0  0  0  0
 16 15  1  0  0  0  0
 17 12  2  0  0  0  0
 18 17  1  0  0  0  0
 19 21  1  0  0  0  0
 19 22  1  0  0  0  0
 20 18  1  0  0  0  0
 20 21  1  0  0  0  0
 23 18  1  0  0  0  0
 23 22  1  0  0  0  0
 24 25  1  0  0  0  0
 25 29  1  0  0  0  0
 26 30  1  0  0  0  0
 27 31  1  0  0  0  0
 28 29  1  0  0  0  0
 28 27  2  0  0  0  0
 29 26  2  0  0  0  0
 31 30  2  0  0  0  0
 31 32  1  0  0  0  0
 33 34  1  0  0  0  0
 33  1  1  0  0  0  0
 36 35  2  0  0  0  0
 36 34  1  0  0  0  0
 37 42  1  0  0  0  0
 37 45  1  0  0  0  0
 37 39  1  0  0  0  0
 38 42  1  0  0  0  0
 38 41  1  0  0  0  0
 39 36  1  1  0  0  0
 40 39  1  0  0  0  0
 41 40  2  0  0  0  0
 43 41  1  0  0  0  0
 44 43  3  0  0  0  0
 46 45  1  0  0  0  0
 47 48  1  0  0  0  0
 48 46  1  0  0  0  0
 49 47  1  0  0  0  0
 49 48  1  0  0  0  0
M  END
>  <MODEL>
3

>  <REMARK>
 VINA RESULT:      -7.1      3.968      5.985
  Name = 
  16 active torsions:
  status: ('A' for Active; 'I' for Inactive)
    1  A    between atoms: C_1  and  C_46
    2  A    between atoms: N_3  and  C_44
    3  A    between atoms: N_6  and  N_16
    4  A    between atoms: N_6  and  C_18
    5  A    between atoms: N_7  and  C_25
    6  A    between atoms: C_11  and  C_23
    7  A    between atoms: C_11  and  N_28
    8  A    between atoms: C_12  and  C_45
    9  A    between atoms: C_18  and  C_22
   10  A    between atoms: C_18  and  N_28
   11  A    between atoms: C_20  and  C_48
   12  A    between atoms: C_22  and  C_40
   13  A    between atoms: C_24  and  C_37
   14  A    between atoms: C_25  and  C_48
   15  A    between atoms: C_29  and  C_33
   16  A    between atoms: C_33  and  C_46
                            x       y       z     vdW  Elec       q    Type
                         _______ _______ _______ _____ _____    ______ ____

>  <TORSDO>
F 16

$$$$
=
 OpenBabel11032419403D

 49 54  0  0  1  0  0  0  0  0999 V2000
  184.7530  177.0460  136.8410 C   0  0  2  0  0  3  0  0  0  0  0  0
  186.0210  177.8350  136.5090 C   0  0  0  0  0  2  0  0  0  0  0  0
  189.5850  176.6460  138.5930 C   0  0  1  0  0  3  0  0  0  0  0  0
  189.6170  178.0550  138.0050 C   0  0  0  0  0  2  0  0  0  0  0  0
  188.2100  178.5380  137.6330 C   0  0  0  0  0  2  0  0  0  0  0  0
  187.2450  177.3870  137.3110 C   0  0  2  0  0  3  0  0  0  0  0  0
  189.0320  175.6210  137.5900 C   0  0  0  0  0  2  0  0  0  0  0  0
  187.9550  176.1980  136.6580 C   0  0  0  0  0  2  0  0  0  0  0  0
  190.9600  176.2390  139.1020 C   0  0  0  0  0  2  0  0  0  0  0  0
  191.4690  177.1390  140.1940 C   0  0  0  0  0  0  0  0  0  0  0  0
  192.5320  177.7980  140.0270 O   0  0  0  0  0  0  0  0  0  0  0  0
  190.8250  177.1460  143.8610 C   0  0  0  0  0  3  0  0  0  0  0  0
  191.4420  177.0590  142.6530 N   0  0  0  0  0  0  0  0  0  0  0  0
  188.7320  177.5520  142.7510 C   0  0  0  0  0  3  0  0  0  0  0  0
  190.7590  177.2090  141.4830 C   0  0  0  0  0  0  0  0  0  0  0  0
  189.3780  177.4500  141.5190 C   0  0  0  0  0  3  0  0  0  0  0  0
  189.4490  177.3980  143.9450 C   0  0  0  0  0  0  0  0  0  0  0  0
  188.7910  177.5100  145.2210 N   0  0  0  0  0  0  0  0  0  0  0  0
  187.6360  178.0010  147.6690 O   0  0  0  0  0  0  0  0  0  0  0  0
  189.5740  177.2950  146.4540 C   0  0  0  0  0  2  0  0  0  0  0  0
  188.6490  177.0360  147.6440 C   0  0  0  0  0  2  0  0  0  0  0  0
  186.7520  177.6260  146.6450 C   0  0  0  0  0  2  0  0  0  0  0  0
  187.3780  177.9280  145.2770 C   0  0  0  0  0  2  0  0  0  0  0  0
  184.0210  176.6860  135.6240 N   0  0  0  0  0  2  0  0  0  0  0  0
  183.5600  175.3080  135.7660 C   0  0  0  0  0  2  0  0  0  0  0  0
  184.9740  173.8430  137.2430 C   0  0  0  0  0  3  0  0  0  0  0  0
  186.5670  173.1780  135.0890 N   0  0  0  0  0  0  0  0  0  0  0  0
  185.5370  174.0470  134.9060 C   0  0  0  0  0  3  0  0  0  0  0  0
  184.7190  174.3990  135.9840 C   0  0  0  0  0  0  0  0  0  0  0  0
  186.0380  172.9560  137.4100 C   0  0  0  0  0  3  0  0  0  0  0  0
  186.8310  172.6300  136.3050 C   0  0  0  0  0  0  0  0  0  0  0  0
  187.9150  171.7200  136.4560 N   0  0  0  0  0  1  0  0  0  0  0  0
  183.8810  177.7890  137.7650 N   0  0  0  0  0  2  0  0  0  0  0  0
  183.1980  176.8850  138.6040 N   0  0  0  0  0  2  0  0  0  0  0  0
  181.6820  176.5430  140.3290 O   0  0  0  0  0  0  0  0  0  0  0  0
  182.4360  177.3530  139.7200 C   0  0  0  0  0  0  0  0  0  0  0  0
  181.3720  179.6060  140.1760 N   0  0  0  0  0  0  0  0  0  0  0  0
  180.9740  179.2770  142.5770 C   0  0  0  0  0  2  0  0  0  0  0  0
  182.6040  178.7860  140.1970 C   0  0  1  0  0  3  0  0  0  0  0  0
  183.1990  178.7850  141.5750 C   0  0  0  0  0  3  0  0  0  0  0  0
  182.4450  178.9490  142.6650 C   0  0  0  0  0  0  0  0  0  0  0  0
  180.4130  179.1000  141.1600 C   0  0  0  0  0  2  0  0  0  0  0  0
  183.0610  178.8810  143.9610 C   0  0  0  0  0  0  0  0  0  0  0  0
  183.5870  178.8400  145.0490 C   0  0  0  0  0  3  0  0  0  0  0  0
  180.7580  179.5820  138.8490 C   0  0  0  0  0  2  0  0  0  0  0  0
  179.8700  180.8070  138.6780 C   0  0  0  0  0  2  0  0  0  0  0  0
  180.6450  182.1300  136.7450 C   0  0  0  0  0  2  0  0  0  0  0  0
  180.6980  182.0140  138.2570 C   0  0  0  0  0  3  0  0  0  0  0  0
  179.7920  183.0410  137.6020 C   0  0  0  0  0  2  0  0  0  0  0  0
  1  2  1  6  0  0  0
  1 33  1  0  0  0  0
  3  9  1  6  0  0  0
  4  3  1  0  0  0  0
  5  4  1  0  0  0  0
  6  2  1  6  0  0  0
  6  5  1  0  0  0  0
  7  3  1  0  0  0  0
  8  6  1  0  0  0  0
  8  7  1  0  0  0  0
  9 10  1  0  0  0  0
 10 15  1  0  0  0  0
 11 10  2  0  0  0  0
 12 17  1  0  0  0  0
 13 12  2  0  0  0  0
 14 17  2  0  0  0  0
 15 16  2  0  0  0  0
 15 13  1  0  0  0  0
 16 14  1  0  0  0  0
 17 18  1  0  0  0  0
 18 23  1  0  0  0  0
 18 20  1  0  0  0  0
 20 21  1  0  0  0  0
 21 19  1  0  0  0  0
 22 19  1  0  0  0  0
 23 22  1  0  0  0  0
 24 25  1  0  0  0  0
 24  1  1  0  0  0  0
 25 29  1  0  0  0  0
 26 30  1  0  0  0  0
 27 31  1  0  0  0  0
 28 27  2  0  0  0  0
 28 29  1  0  0  0  0
 29 26  2  0  0  0  0
 31 32  1  0  0  0  0
 31 30  2  0  0  0  0
 33 34  1  0  0  0  0
 34 36  1  0  0  0  0
 36 35  2  0  0  0  0
 37 39  1  0  0  0  0
 37 42  1  0  0  0  0
 38 41  1  0  0  0  0
 39 36  1  1  0  0  0
 39 40  1  0  0  0  0
 40 41  2  0  0  0  0
 41 43  1  0  0  0  0
 42 38  1  0  0  0  0
 43 44  3  0  0  0  0
 45 37  1  0  0  0  0
 46 45  1  0  0  0  0
 47 49  1  0  0  0  0
 47 48  1  0  0  0  0
 48 46  1  0  0  0  0
 49 48  1  0  0  0  0
M  END
>  <MODEL>
4

>  <REMARK>
 VINA RESULT:      -7.0      2.250      6.379
  Name = 
  16 active torsions:
  status: ('A' for Active; 'I' for Inactive)
    1  A    between atoms: C_1  and  C_46
    2  A    between atoms: N_3  and  C_44
    3  A    between atoms: N_6  and  N_16
    4  A    between atoms: N_6  and  C_18
    5  A    between atoms: N_7  and  C_25
    6  A    between atoms: C_11  and  C_23
    7  A    between atoms: C_11  and  N_28
    8  A    between atoms: C_12  and  C_45
    9  A    between atoms: C_18  and  C_22
   10  A    between atoms: C_18  and  N_28
   11  A    between atoms: C_20  and  C_48
   12  A    between atoms: C_22  and  C_40
   13  A    between atoms: C_24  and  C_37
   14  A    between atoms: C_25  and  C_48
   15  A    between atoms: C_29  and  C_33
   16  A    between atoms: C_33  and  C_46
                            x       y       z     vdW  Elec       q    Type
                         _______ _______ _______ _____ _____    ______ ____

>  <TORSDO>
F 16

$$$$
=
 OpenBabel11032419403D

 49 54  0  0  1  0  0  0  0  0999 V2000
  184.9050  176.9740  136.6830 C   0  0  2  0  0  3  0  0  0  0  0  0
  186.1200  177.8800  136.4700 C   0  0  0  0  0  2  0  0  0  0  0  0
  189.6610  176.7450  138.6220 C   0  0  1  0  0  3  0  0  0  0  0  0
  189.8150  177.9660  137.7180 C   0  0  0  0  0  2  0  0  0  0  0  0
  188.4510  178.5300  137.3040 C   0  0  0  0  0  2  0  0  0  0  0  0
  187.3370  177.4710  137.3020 C   0  0  2  0  0  3  0  0  0  0  0  0
  188.9220  175.5990  137.9130 C   0  0  0  0  0  2  0  0  0  0  0  0
  187.8550  176.0830  136.9180 C   0  0  0  0  0  2  0  0  0  0  0  0
  191.0120  176.2900  139.1530 C   0  0  0  0  0  2  0  0  0  0  0  0
  191.5570  177.2000  140.2190 C   0  0  0  0  0  0  0  0  0  0  0  0
  192.6390  177.8230  140.0290 O   0  0  0  0  0  0  0  0  0  0  0  0
  188.8550  177.7250  142.7270 C   0  0  0  0  0  3  0  0  0  0  0  0
  189.5360  177.6320  141.5540 N   0  0  0  0  0  0  0  0  0  0  0  0
  190.8670  177.1800  143.9240 C   0  0  0  0  0  3  0  0  0  0  0  0
  190.8620  177.3220  141.5120 C   0  0  0  0  0  0  0  0  0  0  0  0
  191.5530  177.0990  142.7120 C   0  0  0  0  0  3  0  0  0  0  0  0
  189.5020  177.4990  143.9480 C   0  0  0  0  0  0  0  0  0  0  0  0
  188.7860  177.5770  145.1950 N   0  0  0  0  0  0  0  0  0  0  0  0
  187.5090  178.0070  147.5940 O   0  0  0  0  0  0  0  0  0  0  0  0
  189.5210  177.3780  146.4600 C   0  0  0  0  0  2  0  0  0  0  0  0
  188.5550  177.0760  147.6050 C   0  0  0  0  0  2  0  0  0  0  0  0
  186.6840  177.6110  146.5300 C   0  0  0  0  0  2  0  0  0  0  0  0
  187.3580  177.9470  145.1920 C   0  0  0  0  0  2  0  0  0  0  0  0
  184.3440  176.5350  135.4030 N   0  0  0  0  0  2  0  0  0  0  0  0
  184.7590  175.1540  135.1790 C   0  0  0  0  0  2  0  0  0  0  0  0
  184.1440  173.0340  136.3850 C   0  0  0  0  0  3  0  0  0  0  0  0
  181.4710  173.7140  136.2560 N   0  0  0  0  0  0  0  0  0  0  0  0
  182.3930  174.5430  135.6960 C   0  0  0  0  0  3  0  0  0  0  0  0
  183.7510  174.2160  135.7470 C   0  0  0  0  0  0  0  0  0  0  0  0
  183.1820  172.1960  136.9510 C   0  0  0  0  0  3  0  0  0  0  0  0
  181.8350  172.5610  136.8780 C   0  0  0  0  0  0  0  0  0  0  0  0
  180.8420  171.7210  137.4570 N   0  0  0  0  0  1  0  0  0  0  0  0
  183.8740  177.6360  137.4970 N   0  0  0  0  0  2  0  0  0  0  0  0
  183.3230  176.7120  138.4090 N   0  0  0  0  0  2  0  0  0  0  0  0
  181.9710  176.3170  140.2550 O   0  0  0  0  0  0  0  0  0  0  0  0
  182.6170  177.1590  139.5700 C   0  0  0  0  0  0  0  0  0  0  0  0
  181.4600  179.3850  139.9150 N   0  0  0  0  0  0  0  0  0  0  0  0
  181.0070  179.1270  142.3150 C   0  0  0  0  0  2  0  0  0  0  0  0
  182.7190  178.6130  139.9980 C   0  0  1  0  0  3  0  0  0  0  0  0
  183.2760  178.6830  141.3900 C   0  0  0  0  0  3  0  0  0  0  0  0
  182.4860  178.8580  142.4540 C   0  0  0  0  0  0  0  0  0  0  0  0
  180.4930  178.8790  140.8910 C   0  0  0  0  0  2  0  0  0  0  0  0
  183.0680  178.8580  143.7680 C   0  0  0  0  0  0  0  0  0  0  0  0
  183.5550  178.8770  144.8730 C   0  0  0  0  0  3  0  0  0  0  0  0
  180.8850  179.2910  138.5740 C   0  0  0  0  0  2  0  0  0  0  0  0
  181.3750  180.4590  137.7270 C   0  0  0  0  0  2  0  0  0  0  0  0
  180.6770  182.6740  136.8950 C   0  0  0  0  0  2  0  0  0  0  0  0
  180.1990  181.2660  137.1930 C   0  0  0  0  0  3  0  0  0  0  0  0
  180.4860  181.6870  135.7640 C   0  0  0  0  0  2  0  0  0  0  0  0
  1  2  1  6  0  0  0
  1 33  1  0  0  0  0
  3  9  1  6  0  0  0
  4  3  1  0  0  0  0
  5  4  1  0  0  0  0
  6  2  1  6  0  0  0
  6  5  1  0  0  0  0
  7  3  1  0  0  0  0
  8  6  1  0  0  0  0
  8  7  1  0  0  0  0
  9 10  1  0  0  0  0
 10 15  1  0  0  0  0
 11 10  2  0  0  0  0
 12 17  1  0  0  0  0
 13 12  2  0  0  0  0
 14 17  2  0  0  0  0
 15 13  1  0  0  0  0
 15 16  2  0  0  0  0
 16 14  1  0  0  0  0
 17 18  1  0  0  0  0
 18 20  1  0  0  0  0
 19 21  1  0  0  0  0
 20 21  1  0  0  0  0
 22 19  1  0  0  0  0
 23 18  1  0  0  0  0
 23 22  1  0  0  0  0
 24  1  1  0  0  0  0
 25 24  1  0  0  0  0
 25 29  1  0  0  0  0
 26 30  1  0  0  0  0
 27 31  1  0  0  0  0
 28 29  1  0  0  0  0
 28 27  2  0  0  0  0
 29 26  2  0  0  0  0
 31 30  2  0  0  0  0
 31 32  1  0  0  0  0
 33 34  1  0  0  0  0
 34 36  1  0  0  0  0
 36 35  2  0  0  0  0
 37 39  1  0  0  0  0
 37 42  1  0  0  0  0
 38 41  1  0  0  0  0
 39 36  1  1  0  0  0
 39 40  1  0  0  0  0
 40 41  2  0  0  0  0
 41 43  1  0  0  0  0
 42 38  1  0  0  0  0
 43 44  3  0  0  0  0
 45 37  1  0  0  0  0
 46 45  1  0  0  0  0
 47 48  1  0  0  0  0
 48 46  1  0  0  0  0
 49 47  1  0  0  0  0
 49 48  1  0  0  0  0
M  END
>  <MODEL>
5

>  <REMARK>
 VINA RESULT:      -7.0      2.106      6.313
  Name = 
  16 active torsions:
  status: ('A' for Active; 'I' for Inactive)
    1  A    between atoms: C_1  and  C_46
    2  A    between atoms: N_3  and  C_44
    3  A    between atoms: N_6  and  N_16
    4  A    between atoms: N_6  and  C_18
    5  A    between atoms: N_7  and  C_25
    6  A    between atoms: C_11  and  C_23
    7  A    between atoms: C_11  and  N_28
    8  A    between atoms: C_12  and  C_45
    9  A    between atoms: C_18  and  C_22
   10  A    between atoms: C_18  and  N_28
   11  A    between atoms: C_20  and  C_48
   12  A    between atoms: C_22  and  C_40
   13  A    between atoms: C_24  and  C_37
   14  A    between atoms: C_25  and  C_48
   15  A    between atoms: C_29  and  C_33
   16  A    between atoms: C_33  and  C_46
                            x       y       z     vdW  Elec       q    Type
                         _______ _______ _______ _____ _____    ______ ____

>  <TORSDO>
F 16

$$$$
=
 OpenBabel11032419403D

 49 54  0  0  1  0  0  0  0  0999 V2000
  191.0260  177.3650  139.7820 C   0  0  2  0  0  3  0  0  0  0  0  0
  190.0230  176.4090  140.4330 C   0  0  0  0  0  2  0  0  0  0  0  0
  189.3300  177.4800  144.5350 C   0  0  1  0  0  3  0  0  0  0  0  0
  189.9330  178.5840  143.6690 C   0  0  0  0  0  2  0  0  0  0  0  0
  189.7870  178.2670  142.1770 C   0  0  0  0  0  2  0  0  0  0  0  0
  189.7030  176.7600  141.8870 C   0  0  2  0  0  3  0  0  0  0  0  0
  190.0330  176.1310  144.3130 C   0  0  0  0  0  2  0  0  0  0  0  0
  190.5310  175.9320  142.8730 C   0  0  0  0  0  2  0  0  0  0  0  0
  189.3390  177.8760  146.0040 C   0  0  0  0  0  2  0  0  0  0  0  0
  187.9660  177.8790  146.6170 C   0  0  0  0  0  0  0  0  0  0  0  0
  187.8200  177.6240  147.8450 O   0  0  0  0  0  0  0  0  0  0  0  0
  185.6770  177.8800  143.6800 C   0  0  0  0  0  3  0  0  0  0  0  0
  186.7620  177.7000  144.4780 N   0  0  0  0  0  0  0  0  0  0  0  0
  184.5300  178.9520  145.5010 C   0  0  0  0  0  3  0  0  0  0  0  0
  186.7820  178.1210  145.7740 C   0  0  0  0  0  0  0  0  0  0  0  0
  185.6570  178.7680  146.3040 C   0  0  0  0  0  3  0  0  0  0  0  0
  184.5260  178.5110  144.1710 C   0  0  0  0  0  0  0  0  0  0  0  0
  183.3650  178.6910  143.3380 N   0  0  0  0  0  0  0  0  0  0  0  0
  181.1980  179.3240  141.7660 O   0  0  0  0  0  0  0  0  0  0  0  0
  182.0680  179.0030  143.9720 C   0  0  0  0  0  2  0  0  0  0  0  0
  180.9150  178.7380  143.0050 C   0  0  0  0  0  2  0  0  0  0  0  0
  182.1510  178.4800  141.1740 C   0  0  0  0  0  2  0  0  0  0  0  0
  183.5080  178.6540  141.8710 C   0  0  0  0  0  2  0  0  0  0  0  0
  190.6240  177.7000  138.4140 N   0  0  0  0  0  2  0  0  0  0  0  0
  189.4300  178.5360  138.4870 C   0  0  0  0  0  2  0  0  0  0  0  0
  188.6300  178.1100  136.1410 C   0  0  0  0  0  3  0  0  0  0  0  0
  186.3000  176.9980  137.1200 N   0  0  0  0  0  0  0  0  0  0  0  0
  187.2190  177.4850  137.9960 C   0  0  0  0  0  3  0  0  0  0  0  0
  188.4040  178.0540  137.5220 C   0  0  0  0  0  0  0  0  0  0  0  0
  187.6730  177.6070  135.2590 C   0  0  0  0  0  3  0  0  0  0  0  0
  186.5010  177.0450  135.7750 C   0  0  0  0  0  0  0  0  0  0  0  0
  185.5180  176.5210  134.8890 N   0  0  0  0  0  1  0  0  0  0  0  0
  192.3880  176.8090  139.7970 N   0  0  0  0  0  2  0  0  0  0  0  0
  193.0910  177.2430  138.6540 N   0  0  0  0  0  2  0  0  0  0  0  0
  193.9720  176.7480  136.5640 O   0  0  0  0  0  0  0  0  0  0  0  0
  193.5230  176.3100  137.6610 C   0  0  0  0  0  0  0  0  0  0  0  0
  192.5760  174.0170  137.1460 N   0  0  0  0  0  0  0  0  0  0  0  0
  194.3660  173.2770  135.6370 C   0  0  0  0  0  2  0  0  0  0  0  0
  193.5070  174.8220  137.9680 C   0  0  1  0  0  3  0  0  0  0  0  0
  194.8990  174.2750  137.8540 C   0  0  0  0  0  3  0  0  0  0  0  0
  195.3090  173.6210  136.7630 C   0  0  0  0  0  0  0  0  0  0  0  0
  193.0190  174.0040  135.7510 C   0  0  0  0  0  2  0  0  0  0  0  0
  196.6720  173.1720  136.6860 C   0  0  0  0  0  0  0  0  0  0  0  0
  197.8180  172.7910  136.6390 C   0  0  0  0  0  3  0  0  0  0  0  0
  191.2210  174.5650  137.2160 C   0  0  0  0  0  2  0  0  0  0  0  0
  190.2160  173.4820  136.8440 C   0  0  0  0  0  2  0  0  0  0  0  0
  188.5430  174.0790  135.1320 C   0  0  0  0  0  2  0  0  0  0  0  0
  188.8360  174.0850  136.6210 C   0  0  0  0  0  3  0  0  0  0  0  0
  187.9170  173.0330  136.0290 C   0  0  0  0  0  2  0  0  0  0  0  0
  1 33  1  0  0  0  0
  1  2  1  6  0  0  0
  3  9  1  1  0  0  0
  4  3  1  0  0  0  0
  5  4  1  0  0  0  0
  6  2  1  6  0  0  0
  6  5  1  0  0  0  0
  6  8  1  0  0  0  0
  7  3  1  0  0  0  0
  8  7  1  0  0  0  0
  9 10  1  0  0  0  0
 10 11  2  0  0  0  0
 12 17  2  0  0  0  0
 12 13  1  0  0  0  0
 13 15  2  0  0  0  0
 14 16  2  0  0  0  0
 15 16  1  0  0  0  0
 15 10  1  0  0  0  0
 17 14  1  0  0  0  0
 18 20  1  0  0  0  0
 18 17  1  0  0  0  0
 19 21  1  0  0  0  0
 21 20  1  0  0  0  0
 22 19  1  0  0  0  0
 22 23  1  0  0  0  0
 23 18  1  0  0  0  0
 24 25  1  0  0  0  0
 24  1  1  0  0  0  0
 26 29  1  0  0  0  0
 27 28  1  0  0  0  0
 29 28  2  0  0  0  0
 29 25  1  0  0  0  0
 30 31  1  0  0  0  0
 30 26  2  0  0  0  0
 31 27  2  0  0  0  0
 32 31  1  0  0  0  0
 34 33  1  0  0  0  0
 35 36  2  0  0  0  0
 36 34  1  0  0  0  0
 37 45  1  0  0  0  0
 37 39  1  0  0  0  0
 38 42  1  0  0  0  0
 38 41  1  0  0  0  0
 39 36  1  6  0  0  0
 40 39  1  0  0  0  0
 41 40  2  0  0  0  0
 42 37  1  0  0  0  0
 43 41  1  0  0  0  0
 44 43  3  0  0  0  0
 46 45  1  0  0  0  0
 47 49  1  0  0  0  0
 47 48  1  0  0  0  0
 48 46  1  0  0  0  0
 49 48  1  0  0  0  0
M  END
>  <MODEL>
6

>  <REMARK>
 VINA RESULT:      -6.8      3.400      9.575
  Name = 
  16 active torsions:
  status: ('A' for Active; 'I' for Inactive)
    1  A    between atoms: C_1  and  C_46
    2  A    between atoms: N_3  and  C_44
    3  A    between atoms: N_6  and  N_16
    4  A    between atoms: N_6  and  C_18
    5  A    between atoms: N_7  and  C_25
    6  A    between atoms: C_11  and  C_23
    7  A    between atoms: C_11  and  N_28
    8  A    between atoms: C_12  and  C_45
    9  A    between atoms: C_18  and  C_22
   10  A    between atoms: C_18  and  N_28
   11  A    between atoms: C_20  and  C_48
   12  A    between atoms: C_22  and  C_40
   13  A    between atoms: C_24  and  C_37
   14  A    between atoms: C_25  and  C_48
   15  A    between atoms: C_29  and  C_33
   16  A    between atoms: C_33  and  C_46
                            x       y       z     vdW  Elec       q    Type
                         _______ _______ _______ _____ _____    ______ ____

>  <TORSDO>
F 16

$$$$
=
 OpenBabel11032419403D

 49 54  0  0  1  0  0  0  0  0999 V2000
  189.8670  177.1480  139.0000 C   0  0  2  0  0  3  0  0  0  0  0  0
  189.1670  177.1550  137.6390 C   0  0  0  0  0  2  0  0  0  0  0  0
  184.8880  176.7680  137.6890 C   0  0  1  0  0  3  0  0  0  0  0  0
  185.6070  175.8910  136.6660 C   0  0  0  0  0  2  0  0  0  0  0  0
  187.1060  175.7920  136.9700 C   0  0  0  0  0  2  0  0  0  0  0  0
  187.6470  177.0100  137.7350 C   0  0  2  0  0  3  0  0  0  0  0  0
  185.4220  178.2100  137.6810 C   0  0  0  0  0  2  0  0  0  0  0  0
  186.9220  178.3040  137.3570 C   0  0  0  0  0  2  0  0  0  0  0  0
  183.3830  176.7320  137.4720 C   0  0  0  0  0  2  0  0  0  0  0  0
  182.6290  177.5680  138.4700 C   0  0  0  0  0  0  0  0  0  0  0  0
  182.3650  177.1030  139.6140 O   0  0  0  0  0  0  0  0  0  0  0  0
  181.0120  180.3160  136.5470 C   0  0  0  0  0  3  0  0  0  0  0  0
  181.4970  179.1000  136.9130 N   0  0  0  0  0  0  0  0  0  0  0  0
  181.8320  181.2480  138.6060 C   0  0  0  0  0  3  0  0  0  0  0  0
  182.1460  178.9080  138.0950 C   0  0  0  0  0  0  0  0  0  0  0  0
  182.3320  179.9950  138.9620 C   0  0  0  0  0  3  0  0  0  0  0  0
  181.1650  181.4280  137.3870 C   0  0  0  0  0  0  0  0  0  0  0  0
  180.6390  182.7160  137.0170 N   0  0  0  0  0  0  0  0  0  0  0  0
  179.3930  185.0350  136.2140 O   0  0  0  0  0  0  0  0  0  0  0  0
  180.7760  183.1730  135.6190 C   0  0  0  0  0  2  0  0  0  0  0  0
  180.5570  184.6830  135.5200 C   0  0  0  0  0  2  0  0  0  0  0  0
  179.7490  184.9750  137.5710 C   0  0  0  0  0  2  0  0  0  0  0  0
  179.8930  183.5110  138.0100 C   0  0  0  0  0  2  0  0  0  0  0  0
  190.8030  176.0260  139.1060 N   0  0  0  0  0  2  0  0  0  0  0  0
  192.0670  176.4350  138.5000 C   0  0  0  0  0  2  0  0  0  0  0  0
  194.0950  175.0720  137.9070 C   0  0  0  0  0  3  0  0  0  0  0  0
  192.5040  173.2540  136.5700 N   0  0  0  0  0  0  0  0  0  0  0  0
  191.9260  174.3410  137.1470 C   0  0  0  0  0  3  0  0  0  0  0  0
  192.7130  175.2750  137.8260 C   0  0  0  0  0  0  0  0  0  0  0  0
  194.6700  173.9500  137.3070 C   0  0  0  0  0  3  0  0  0  0  0  0
  193.8460  173.0400  136.6380 C   0  0  0  0  0  0  0  0  0  0  0  0
  194.4150  171.8870  136.0260 N   0  0  0  0  0  1  0  0  0  0  0  0
  188.8970  177.1150  140.1050 N   0  0  0  0  0  2  0  0  0  0  0  0
  188.8920  178.3580  140.7700 N   0  0  0  0  0  2  0  0  0  0  0  0
  188.5040  179.5620  142.7170 O   0  0  0  0  0  0  0  0  0  0  0  0
  188.3180  178.4910  142.0730 C   0  0  0  0  0  0  0  0  0  0  0  0
  187.8510  176.8430  143.9390 N   0  0  0  0  0  0  0  0  0  0  0  0
  186.1990  178.2040  145.1440 C   0  0  0  0  0  2  0  0  0  0  0  0
  187.4380  177.3820  142.6240 C   0  0  1  0  0  3  0  0  0  0  0  0
  186.0170  177.8580  142.6850 C   0  0  0  0  0  3  0  0  0  0  0  0
  185.4700  178.2900  143.8250 C   0  0  0  0  0  0  0  0  0  0  0  0
  187.6850  177.8640  144.9760 C   0  0  0  0  0  2  0  0  0  0  0  0
  184.1220  178.7900  143.8110 C   0  0  0  0  0  0  0  0  0  0  0  0
  182.9840  179.1950  143.7920 C   0  0  0  0  0  3  0  0  0  0  0  0
  189.2480  176.4130  143.9060 C   0  0  0  0  0  2  0  0  0  0  0  0
  190.0010  177.0430  145.0700 C   0  0  0  0  0  2  0  0  0  0  0  0
  191.6710  176.8820  143.2610 C   0  0  0  0  0  2  0  0  0  0  0  0
  191.4780  177.2010  144.7310 C   0  0  0  0  0  3  0  0  0  0  0  0
  191.6450  178.3230  143.7230 C   0  0  0  0  0  2  0  0  0  0  0  0
  1  2  1  6  0  0  0
  1 24  1  0  0  0  0
  1 33  1  0  0  0  0
  3  9  1  6  0  0  0
  4  5  1  0  0  0  0
  4  3  1  0  0  0  0
  5  6  1  0  0  0  0
  6  2  1  6  0  0  0
  7  3  1  0  0  0  0
  8  7  1  0  0  0  0
  8  6  1  0  0  0  0
  9 10  1  0  0  0  0
 10 11  2  0  0  0  0
 12 13  2  0  0  0  0
 12 17  1  0  0  0  0
 13 15  1  0  0  0  0
 14 16  1  0  0  0  0
 15 10  1  0  0  0  0
 15 16  2  0  0  0  0
 17 14  2  0  0  0  0
 18 17  1  0  0  0  0
 18 23  1  0  0  0  0
 19 22  1  0  0  0  0
 20 18  1  0  0  0  0
 21 20  1  0  0  0  0
 21 19  1  0  0  0  0
 22 23  1  0  0  0  0
 25 24  1  0  0  0  0
 27 31  2  0  0  0  0
 27 28  1  0  0  0  0
 28 29  2  0  0  0  0
 29 26  1  0  0  0  0
 29 25  1  0  0  0  0
 30 26  2  0  0  0  0
 31 30  1  0  0  0  0
 32 31  1  0  0  0  0
 33 34  1  0  0  0  0
 34 36  1  0  0  0  0
 36 35  2  0  0  0  0
 37 42  1  0  0  0  0
 39 36  1  1  0  0  0
 39 40  1  0  0  0  0
 39 37  1  0  0  0  0
 40 41  2  0  0  0  0
 41 38  1  0  0  0  0
 42 38  1  0  0  0  0
 43 41  1  0  0  0  0
 44 43  3  0  0  0  0
 45 37  1  0  0  0  0
 45 46  1  0  0  0  0
 47 49  1  0  0  0  0
 47 48  1  0  0  0  0
 48 46  1  0  0  0  0
 49 48  1  0  0  0  0
M  END
>  <MODEL>
7

>  <REMARK>
 VINA RESULT:      -6.7      3.324     10.552
  Name = 
  16 active torsions:
  status: ('A' for Active; 'I' for Inactive)
    1  A    between atoms: C_1  and  C_46
    2  A    between atoms: N_3  and  C_44
    3  A    between atoms: N_6  and  N_16
    4  A    between atoms: N_6  and  C_18
    5  A    between atoms: N_7  and  C_25
    6  A    between atoms: C_11  and  C_23
    7  A    between atoms: C_11  and  N_28
    8  A    between atoms: C_12  and  C_45
    9  A    between atoms: C_18  and  C_22
   10  A    between atoms: C_18  and  N_28
   11  A    between atoms: C_20  and  C_48
   12  A    between atoms: C_22  and  C_40
   13  A    between atoms: C_24  and  C_37
   14  A    between atoms: C_25  and  C_48
   15  A    between atoms: C_29  and  C_33
   16  A    between atoms: C_33  and  C_46
                            x       y       z     vdW  Elec       q    Type
                         _______ _______ _______ _____ _____    ______ ____

>  <TORSDO>
F 16

$$$$
=
 OpenBabel11032419403D

 49 54  0  0  1  0  0  0  0  0999 V2000
  184.6370  178.5730  142.0070 C   0  0  2  0  0  3  0  0  0  0  0  0
  185.5070  179.3760  141.0360 C   0  0  0  0  0  2  0  0  0  0  0  0
  187.5510  177.1290  137.9980 C   0  0  1  0  0  3  0  0  0  0  0  0
  188.4390  178.0470  138.8340 C   0  0  0  0  0  2  0  0  0  0  0  0
  187.7280  178.5000  140.1140 C   0  0  0  0  0  2  0  0  0  0  0  0
  186.1970  178.5110  139.9800 C   0  0  2  0  0  3  0  0  0  0  0  0
  186.2650  177.8370  137.5440 C   0  0  0  0  0  2  0  0  0  0  0  0
  185.7410  178.8630  138.5620 C   0  0  0  0  0  2  0  0  0  0  0  0
  188.3190  176.5600  136.8150 C   0  0  0  0  0  2  0  0  0  0  0  0
  188.9970  175.2560  137.1300 C   0  0  0  0  0  0  0  0  0  0  0  0
  188.3090  174.2250  137.3700 O   0  0  0  0  0  0  0  0  0  0  0  0
  192.4600  173.8900  137.2330 C   0  0  0  0  0  3  0  0  0  0  0  0
  191.1050  173.9870  137.1830 N   0  0  0  0  0  0  0  0  0  0  0  0
  192.6150  176.2850  137.3610 C   0  0  0  0  0  3  0  0  0  0  0  0
  190.4670  175.1900  137.2180 C   0  0  0  0  0  0  0  0  0  0  0  0
  191.2220  176.3670  137.3190 C   0  0  0  0  0  3  0  0  0  0  0  0
  193.2560  175.0390  137.3220 C   0  0  0  0  0  0  0  0  0  0  0  0
  194.6920  174.9480  137.3570 N   0  0  0  0  0  0  0  0  0  0  0  0
  197.4380  175.0620  137.4900 O   0  0  0  0  0  0  0  0  0  0  0  0
  195.4660  175.3380  136.1620 C   0  0  0  0  0  2  0  0  0  0  0  0
  196.8890  174.7830  136.2330 C   0  0  0  0  0  2  0  0  0  0  0  0
  196.8260  174.1500  138.3640 C   0  0  0  0  0  2  0  0  0  0  0  0
  195.3670  174.5600  138.6100 C   0  0  0  0  0  2  0  0  0  0  0  0
  185.4610  177.7660  142.9100 N   0  0  0  0  0  2  0  0  0  0  0  0
  185.2870  178.2840  144.2630 C   0  0  0  0  0  2  0  0  0  0  0  0
  186.4980  178.2140  146.4660 C   0  0  0  0  0  3  0  0  0  0  0  0
  188.7220  177.1420  145.2290 N   0  0  0  0  0  0  0  0  0  0  0  0
  187.6310  177.4520  144.4780 C   0  0  0  0  0  3  0  0  0  0  0  0
  186.4960  177.9970  145.0830 C   0  0  0  0  0  0  0  0  0  0  0  0
  187.6280  177.8910  147.2190 C   0  0  0  0  0  3  0  0  0  0  0  0
  188.7420  177.3460  146.5740 C   0  0  0  0  0  0  0  0  0  0  0  0
  189.9000  177.0050  147.3280 N   0  0  0  0  0  1  0  0  0  0  0  0
  183.6740  177.7230  141.2910 N   0  0  0  0  0  2  0  0  0  0  0  0
  182.3730  178.2470  141.4430 N   0  0  0  0  0  2  0  0  0  0  0  0
  180.4550  179.1050  140.4550 O   0  0  0  0  0  0  0  0  0  0  0  0
  181.6820  178.8270  140.3340 C   0  0  0  0  0  0  0  0  0  0  0  0
  182.1360  178.3170  137.8940 N   0  0  0  0  0  0  0  0  0  0  0  0
  180.6080  179.9860  136.9420 C   0  0  0  0  0  2  0  0  0  0  0  0
  182.4460  179.1670  139.0650 C   0  0  1  0  0  3  0  0  0  0  0  0
  182.2280  180.6120  138.7250 C   0  0  0  0  0  3  0  0  0  0  0  0
  181.3450  180.9890  137.7970 C   0  0  0  0  0  0  0  0  0  0  0  0
  180.7590  178.5490  137.4550 C   0  0  0  0  0  2  0  0  0  0  0  0
  181.1360  182.3900  137.5550 C   0  0  0  0  0  0  0  0  0  0  0  0
  180.9690  183.5660  137.3340 C   0  0  0  0  0  3  0  0  0  0  0  0
  182.3040  176.9020  138.2250 C   0  0  0  0  0  2  0  0  0  0  0  0
  182.0670  176.0580  136.9790 C   0  0  0  0  0  2  0  0  0  0  0  0
  182.9270  174.2410  135.5480 C   0  0  0  0  0  2  0  0  0  0  0  0
  183.1030  174.9460  136.8800 C   0  0  0  0  0  3  0  0  0  0  0  0
  184.0490  175.2400  135.7300 C   0  0  0  0  0  2  0  0  0  0  0  0
  1  2  1  6  0  0  0
  1 24  1  0  0  0  0
  3  9  1  6  0  0  0
  3  4  1  0  0  0  0
  4  5  1  0  0  0  0
  6  5  1  0  0  0  0
  6  2  1  1  0  0  0
  7  3  1  0  0  0  0
  7  8  1  0  0  0  0
  8  6  1  0  0  0  0
  9 10  1  0  0  0  0
 10 15  1  0  0  0  0
 10 11  2  0  0  0  0
 12 17  1  0  0  0  0
 13 15  1  0  0  0  0
 13 12  2  0  0  0  0
 15 16  2  0  0  0  0
 16 14  1  0  0  0  0
 17 18  1  0  0  0  0
 17 14  2  0  0  0  0
 18 23  1  0  0  0  0
 19 22  1  0  0  0  0
 20 21  1  0  0  0  0
 20 18  1  0  0  0  0
 21 19  1  0  0  0  0
 22 23  1  0  0  0  0
 24 25  1  0  0  0  0
 25 29  1  0  0  0  0
 26 30  1  0  0  0  0
 27 31  1  0  0  0  0
 28 29  1  0  0  0  0
 28 27  2  0  0  0  0
 29 26  2  0  0  0  0
 31 30  2  0  0  0  0
 31 32  1  0  0  0  0
 33 34  1  0  0  0  0
 33  1  1  0  0  0  0
 36 35  2  0  0  0  0
 36 34  1  0  0  0  0
 37 45  1  0  0  0  0
 37 39  1  0  0  0  0
 38 42  1  0  0  0  0
 38 41  1  0  0  0  0
 39 36  1  1  0  0  0
 40 39  1  0  0  0  0
 41 40  2  0  0  0  0
 42 37  1  0  0  0  0
 43 41  1  0  0  0  0
 44 43  3  0  0  0  0
 46 45  1  0  0  0  0
 47 49  1  0  0  0  0
 47 48  1  0  0  0  0
 48 46  1  0  0  0  0
 49 48  1  0  0  0  0
M  END
>  <MODEL>
8

>  <REMARK>
 VINA RESULT:      -6.7      3.067      4.943
  Name = 
  16 active torsions:
  status: ('A' for Active; 'I' for Inactive)
    1  A    between atoms: C_1  and  C_46
    2  A    between atoms: N_3  and  C_44
    3  A    between atoms: N_6  and  N_16
    4  A    between atoms: N_6  and  C_18
    5  A    between atoms: N_7  and  C_25
    6  A    between atoms: C_11  and  C_23
    7  A    between atoms: C_11  and  N_28
    8  A    between atoms: C_12  and  C_45
    9  A    between atoms: C_18  and  C_22
   10  A    between atoms: C_18  and  N_28
   11  A    between atoms: C_20  and  C_48
   12  A    between atoms: C_22  and  C_40
   13  A    between atoms: C_24  and  C_37
   14  A    between atoms: C_25  and  C_48
   15  A    between atoms: C_29  and  C_33
   16  A    between atoms: C_33  and  C_46
                            x       y       z     vdW  Elec       q    Type
                         _______ _______ _______ _____ _____    ______ ____

>  <TORSDO>
F 16

$$$$
=
 OpenBabel11032419403D

 49 54  0  0  1  0  0  0  0  0999 V2000
  186.7420  179.0050  141.6640 C   0  0  2  0  0  3  0  0  0  0  0  0
  187.9930  178.3050  141.1260 C   0  0  0  0  0  2  0  0  0  0  0  0
  188.2440  177.9580  136.8510 C   0  0  1  0  0  3  0  0  0  0  0  0
  187.6040  176.7680  137.5620 C   0  0  0  0  0  2  0  0  0  0  0  0
  187.2010  177.1250  138.9970 C   0  0  0  0  0  2  0  0  0  0  0  0
  188.0530  178.2550  139.5980 C   0  0  2  0  0  3  0  0  0  0  0  0
  189.5310  178.4190  137.5540 C   0  0  0  0  0  2  0  0  0  0  0  0
  189.4920  178.2360  139.0800 C   0  0  0  0  0  2  0  0  0  0  0  0
  188.4950  177.6440  135.3840 C   0  0  0  0  0  2  0  0  0  0  0  0
  188.9270  176.2210  135.1570 C   0  0  0  0  0  0  0  0  0  0  0  0
  188.1200  175.3840  134.6650 O   0  0  0  0  0  0  0  0  0  0  0  0
  192.6270  175.8030  135.2010 C   0  0  0  0  0  3  0  0  0  0  0  0
  191.3660  176.1620  134.8400 N   0  0  0  0  0  0  0  0  0  0  0  0
  191.7360  174.6260  137.0980 C   0  0  0  0  0  3  0  0  0  0  0  0
  190.2750  175.7850  135.5630 C   0  0  0  0  0  0  0  0  0  0  0  0
  190.4480  174.9960  136.7090 C   0  0  0  0  0  3  0  0  0  0  0  0
  192.8490  175.0240  136.3440 C   0  0  0  0  0  0  0  0  0  0  0  0
  194.1810  174.6540  136.7440 N   0  0  0  0  0  0  0  0  0  0  0  0
  196.6790  173.6870  137.3740 O   0  0  0  0  0  0  0  0  0  0  0  0
  194.3660  173.8470  137.9670 C   0  0  0  0  0  2  0  0  0  0  0  0
  195.8150  173.9190  138.4500 C   0  0  0  0  0  2  0  0  0  0  0  0
  196.6590  174.8770  136.6280 C   0  0  0  0  0  2  0  0  0  0  0  0
  195.3250  175.0030  135.8800 C   0  0  0  0  0  2  0  0  0  0  0  0
  186.2410  178.3380  142.8680 N   0  0  0  0  0  2  0  0  0  0  0  0
  187.2080  177.3130  143.2500 C   0  0  0  0  0  2  0  0  0  0  0  0
  188.8060  177.1830  145.1880 C   0  0  0  0  0  3  0  0  0  0  0  0
  186.7920  177.9330  146.9220 N   0  0  0  0  0  0  0  0  0  0  0  0
  186.5090  177.7940  145.5990 C   0  0  0  0  0  3  0  0  0  0  0  0
  187.5130  177.4120  144.7050 C   0  0  0  0  0  0  0  0  0  0  0  0
  189.0760  177.3290  146.5500 C   0  0  0  0  0  3  0  0  0  0  0  0
  188.0430  177.7140  147.4100 C   0  0  0  0  0  0  0  0  0  0  0  0
  188.3030  177.8750  148.8000 N   0  0  0  0  0  1  0  0  0  0  0  0
  185.6870  179.0840  140.6420 N   0  0  0  0  0  2  0  0  0  0  0  0
  184.4210  179.0110  141.2590 N   0  0  0  0  0  2  0  0  0  0  0  0
  182.1350  178.6580  141.0560 O   0  0  0  0  0  0  0  0  0  0  0  0
  183.2280  178.9180  140.4770 C   0  0  0  0  0  0  0  0  0  0  0  0
  182.7110  178.1530  138.1180 N   0  0  0  0  0  0  0  0  0  0  0  0
  180.5820  179.3510  137.8660 C   0  0  0  0  0  2  0  0  0  0  0  0
  183.2810  179.2070  138.9860 C   0  0  1  0  0  3  0  0  0  0  0  0
  182.6110  180.5210  138.7100 C   0  0  0  0  0  3  0  0  0  0  0  0
  181.3570  180.5870  138.2550 C   0  0  0  0  0  0  0  0  0  0  0  0
  181.2650  178.0570  138.3270 C   0  0  0  0  0  2  0  0  0  0  0  0
  180.7460  181.8740  138.0640 C   0  0  0  0  0  0  0  0  0  0  0  0
  180.2360  182.9550  137.8850 C   0  0  0  0  0  3  0  0  0  0  0  0
  183.3260  176.8580  138.4060 C   0  0  0  0  0  2  0  0  0  0  0  0
  183.9790  176.3130  137.1420 C   0  0  0  0  0  2  0  0  0  0  0  0
  184.8850  177.0870  134.9830 C   0  0  0  0  0  2  0  0  0  0  0  0
  183.7460  177.2560  135.9690 C   0  0  0  0  0  3  0  0  0  0  0  0
  183.5440  176.4430  134.7040 C   0  0  0  0  0  2  0  0  0  0  0  0
  1  2  1  6  0  0  0
  1 24  1  0  0  0  0
  3  9  1  6  0  0  0
  3  7  1  0  0  0  0
  3  4  1  0  0  0  0
  4  5  1  0  0  0  0
  5  6  1  0  0  0  0
  6  2  1  1  0  0  0
  7  8  1  0  0  0  0
  8  6  1  0  0  0  0
 10  9  1  0  0  0  0
 10 15  1  0  0  0  0
 11 10  2  0  0  0  0
 12 17  1  0  0  0  0
 13 12  2  0  0  0  0
 13 15  1  0  0  0  0
 15 16  2  0  0  0  0
 16 14  1  0  0  0  0
 17 18  1  0  0  0  0
 17 14  2  0  0  0  0
 18 20  1  0  0  0  0
 19 21  1  0  0  0  0
 20 21  1  0  0  0  0
 22 19  1  0  0  0  0
 23 22  1  0  0  0  0
 23 18  1  0  0  0  0
 24 25  1  0  0  0  0
 25 29  1  0  0  0  0
 26 30  1  0  0  0  0
 27 31  1  0  0  0  0
 28 27  2  0  0  0  0
 29 26  2  0  0  0  0
 29 28  1  0  0  0  0
 30 31  2  0  0  0  0
 31 32  1  0  0  0  0
 33 34  1  0  0  0  0
 33  1  1  0  0  0  0
 36 35  2  0  0  0  0
 36 34  1  0  0  0  0
 37 42  1  0  0  0  0
 37 45  1  0  0  0  0
 37 39  1  0  0  0  0
 38 41  1  0  0  0  0
 38 42  1  0  0  0  0
 39 36  1  1  0  0  0
 40 39  1  0  0  0  0
 41 40  2  0  0  0  0
 43 41  1  0  0  0  0
 44 43  3  0  0  0  0
 46 45  1  0  0  0  0
 47 48  1  0  0  0  0
 48 46  1  0  0  0  0
 49 47  1  0  0  0  0
 49 48  1  0  0  0  0
M  END
>  <MODEL>
9

>  <REMARK>
 VINA RESULT:      -6.6      3.295      5.416
  Name = 
  16 active torsions:
  status: ('A' for Active; 'I' for Inactive)
    1  A    between atoms: C_1  and  C_46
    2  A    between atoms: N_3  and  C_44
    3  A    between atoms: N_6  and  N_16
    4  A    between atoms: N_6  and  C_18
    5  A    between atoms: N_7  and  C_25
    6  A    between atoms: C_11  and  C_23
    7  A    between atoms: C_11  and  N_28
    8  A    between atoms: C_12  and  C_45
    9  A    between atoms: C_18  and  C_22
   10  A    between atoms: C_18  and  N_28
   11  A    between atoms: C_20  and  C_48
   12  A    between atoms: C_22  and  C_40
   13  A    between atoms: C_24  and  C_37
   14  A    between atoms: C_25  and  C_48
   15  A    between atoms: C_29  and  C_33
   16  A    between atoms: C_33  and  C_46
                            x       y       z     vdW  Elec       q    Type
                         _______ _______ _______ _____ _____    ______ ____

>  <TORSDO>
F 16

$$$$
