=
 OpenBabel11042412433D

 57 62  0  0  1  0  0  0  0  0999 V2000
  188.4710  179.4360  137.5210 N   0  0  0  0  0  2  0  0  0  0  0  0
  189.2090  177.2200  137.3060 C   0  0  1  0  0  3  0  0  0  0  0  0
  190.1280  176.3020  136.6440 N   0  0  0  0  0  0  0  0  0  0  0  0
  189.9200  177.9210  138.3910 C   0  0  1  0  0  3  0  0  0  0  0  0
  190.8910  175.5430  137.3870 C   0  0  0  0  0  0  0  0  0  0  0  0
  189.0210  178.9960  138.7510 N   0  0  0  0  0  2  0  0  0  0  0  0
  190.9610  175.7830  138.8150 N   0  0  0  0  0  2  0  0  0  0  0  0
  190.2020  176.8740  139.4550 C   0  0  1  0  0  3  0  0  0  0  0  0
  188.7330  178.3930  136.5110 C   0  0  1  0  0  3  0  0  0  0  0  0
  186.4730  177.3170  136.6610 C   0  0  0  0  0  2  0  0  0  0  0  0
  187.2030  175.9010  134.9350 N   0  0  0  0  0  0  0  0  0  0  0  0
  186.4770  175.8730  136.1720 C   0  0  2  0  0  3  0  0  0  0  0  0
  187.4530  178.0510  135.7490 C   0  0  2  0  0  3  0  0  0  0  0  0
  187.7320  177.0380  134.6940 C   0  0  0  0  0  3  0  0  0  0  0  0
  185.0580  175.3840  135.9300 C   0  0  0  0  0  2  0  0  0  0  0  0
  183.4420  172.6530  136.4970 N   0  0  0  0  0  0  0  0  0  0  0  0
  185.8110  173.0380  136.2110 C   0  0  0  0  0  2  0  0  0  0  0  0
  183.6750  173.3620  135.2400 C   0  0  2  0  0  3  0  0  0  0  0  0
  184.7500  172.4480  137.1200 C   0  0  0  0  0  2  0  0  0  0  0  0
  185.0650  173.9870  135.3060 C   0  0  1  0  0  3  0  0  0  0  0  0
  183.8020  170.3450  136.0940 O   0  0  0  0  0  1  0  0  0  0  0  0
  182.8350  171.3500  136.2140 C   0  0  0  0  0  2  0  0  0  0  0  0
  182.5330  174.3450  134.9510 C   0  0  0  0  0  2  0  0  0  0  0  0
  181.6030  176.0570  136.4420 O   0  0  0  0  0  0  0  0  0  0  0  0
  181.6800  174.6830  136.1810 C   0  0  1  0  0  3  0  0  0  0  0  0
  180.2810  174.0910  136.2300 C   0  0  1  0  0  3  0  0  0  0  0  0
  179.5900  175.0090  137.1940 C   0  0  2  0  0  3  0  0  0  0  0  0
  180.5290  176.1950  137.3400 C   0  0  0  0  0  2  0  0  0  0  0  0
  179.4520  174.3730  138.4280 O   0  0  0  0  0  1  0  0  0  0  0  0
  179.5510  174.1650  134.8960 C   0  0  0  0  0  1  0  0  0  0  0  0
  192.8390  174.0610  137.7160 C   0  0  0  0  0  3  0  0  0  0  0  0
  192.7010  175.2310  135.7120 C   0  0  0  0  0  3  0  0  0  0  0  0
  194.0490  174.3940  137.3010 C   0  0  0  0  0  0  0  0  0  0  0  0
  193.9770  175.1250  136.0490 C   0  0  0  0  0  3  0  0  0  0  0  0
  191.8290  174.5650  136.7340 C   0  0  2  0  0  3  0  0  0  0  0  0
  196.2160  174.9250  138.0850 O   0  0  0  0  0  0  0  0  0  0  0  0
  195.2900  174.0740  138.0180 C   0  0  0  0  0  0  0  0  0  0  0  0
  195.4530  172.8080  138.6510 N   0  0  0  0  0  1  0  0  0  0  0  0
  191.0100  177.4790  140.5870 C   0  0  0  0  0  2  0  0  0  0  0  0
  190.5450  176.9200  141.9180 C   0  0  0  0  0  2  0  0  0  0  0  0
  191.7180  176.8740  142.8790 C   0  0  0  0  0  2  0  0  0  0  0  0
  191.2540  176.5090  144.2820 C   0  0  0  0  0  2  0  0  0  0  0  0
  190.4110  178.6860  144.7510 O   0  0  0  0  0  0  0  0  0  0  0  0
  188.9510  176.9320  145.2510 N   0  0  0  0  0  2  0  0  0  0  0  0
  190.1990  177.4440  144.7800 C   0  0  0  0  0  0  0  0  0  0  0  0
  187.8880  177.8090  145.7110 C   0  0  0  0  0  2  0  0  0  0  0  0
  186.6620  177.6180  144.8320 C   0  0  0  0  0  2  0  0  0  0  0  0
  185.5930  178.6860  145.0670 C   0  0  2  0  0  3  0  0  0  0  0  0
  185.2840  178.9070  146.5170 C   0  0  0  0  0  0  0  0  0  0  0  0
  185.8670  179.9560  147.2220 O   0  0  0  0  0  1  0  0  0  0  0  0
  184.4810  178.1360  147.1030 O   0  0  0  0  0  0  0  0  0  0  0  0
  184.3700  178.5440  144.1430 C   0  0  2  0  0  3  0  0  0  0  0  0
  184.6580  178.7830  142.6900 C   0  0  0  0  0  0  0  0  0  0  0  0
  183.7530  178.5910  141.8380 O   0  0  0  0  0  0  0  0  0  0  0  0
  185.9030  179.2440  142.2790 O   0  0  0  0  0  1  0  0  0  0  0  0
  183.1950  179.1690  144.6150 O   0  0  0  0  0  0  0  0  0  0  0  0
  182.1710  178.5780  144.0280 O   0  0  0  0  0  1  0  0  0  0  0  0
  1  6  1  0  0  0  0
  2  3  1  6  0  0  0
  2  4  1  0  0  0  0
  3  5  2  0  0  0  0
  4  6  1  1  0  0  0
  4  8  1  0  0  0  0
  5  7  1  0  0  0  0
  7  8  1  0  0  0  0
  8 39  1  1  0  0  0
  9  2  1  0  0  0  0
  9  1  1  1  0  0  0
 11 12  1  0  0  0  0
 12 15  1  6  0  0  0
 12 10  1  0  0  0  0
 13 14  1  6  0  0  0
 13  9  1  0  0  0  0
 13 10  1  0  0  0  0
 14 11  2  0  0  0  0
 16 19  1  0  0  0  0
 17 19  1  0  0  0  0
 18 23  1  1  0  0  0
 18 20  1  0  0  0  0
 18 16  1  0  0  0  0
 20 15  1  1  0  0  0
 20 17  1  0  0  0  0
 21 22  1  0  0  0  0
 22 16  1  0  0  0  0
 24 28  1  0  0  0  0
 25 23  1  6  0  0  0
 25 26  1  0  0  0  0
 25 24  1  0  0  0  0
 26 30  1  6  0  0  0
 26 27  1  0  0  0  0
 27 28  1  0  0  0  0
 27 29  1  1  0  0  0
 32 34  2  0  0  0  0
 32 35  1  0  0  0  0
 33 31  2  0  0  0  0
 33 37  1  0  0  0  0
 34 33  1  0  0  0  0
 35  5  1  1  0  0  0
 35 31  1  0  0  0  0
 37 36  2  0  0  0  0
 37 38  1  0  0  0  0
 39 40  1  0  0  0  0
 40 41  1  0  0  0  0
 41 42  1  0  0  0  0
 42 45  1  0  0  0  0
 43 45  2  0  0  0  0
 44 46  1  0  0  0  0
 45 44  1  0  0  0  0
 47 46  1  0  0  0  0
 48 47  1  1  0  0  0
 48 49  1  0  0  0  0
 49 51  2  0  0  0  0
 49 50  1  0  0  0  0
 52 53  1  6  0  0  0
 52 56  1  0  0  0  0
 52 48  1  0  0  0  0
 54 53  2  0  0  0  0
 55 53  1  0  0  0  0
 57 56  1  0  0  0  0
M  END
>  <MODEL>
1

>  <REMARK>
 VINA RESULT:      -7.7      0.000      0.000
  Name = 
  20 active torsions:
  status: ('A' for Active; 'I' for Inactive)
    1  A    between atoms: C_2  and  C_10
    2  A    between atoms: C_2  and  C_29
    3  A    between atoms: C_2  and  C_51
    4  A    between atoms: N_3  and  C_31
    5  A    between atoms: N_4  and  C_36
    6  A    between atoms: O_7  and  C_51
    7  A    between atoms: C_8  and  C_51
    8  A    between atoms: C_13  and  C_52
    9  A    between atoms: C_13  and  C_55
   10  A    between atoms: C_14  and  C_38
   11  A    between atoms: C_16  and  C_38
   12  A    between atoms: C_21  and  C_41
   13  A    between atoms: C_24  and  C_39
   14  A    between atoms: C_24  and  C_53
   15  A    between atoms: C_29  and  C_31
   16  A    between atoms: C_33  and  C_40
   17  A    between atoms: C_33  and  C_57
   18  A    between atoms: C_35  and  C_47
   19  A    between atoms: C_39  and  C_52
   20  A    between atoms: C_48  and  C_54
                            x       y       z     vdW  Elec       q    Type
                         _______ _______ _______ _____ _____    ______ ____

>  <TORSDO>
F 20

$$$$
=
 OpenBabel11042412433D

 57 62  0  0  1  0  0  0  0  0999 V2000
  187.0860  175.9490  136.2230 N   0  0  0  0  0  2  0  0  0  0  0  0
  188.7930  174.3420  136.2810 C   0  0  1  0  0  3  0  0  0  0  0  0
  189.8220  173.6310  135.5320 N   0  0  0  0  0  0  0  0  0  0  0  0
  189.2980  175.6760  136.6540 C   0  0  1  0  0  3  0  0  0  0  0  0
  191.0480  173.6520  135.9860 C   0  0  0  0  0  0  0  0  0  0  0  0
  188.1130  176.3770  137.1000 N   0  0  0  0  0  2  0  0  0  0  0  0
  191.3880  174.5420  137.0780 N   0  0  0  0  0  2  0  0  0  0  0  0
  190.3870  175.4400  137.6850 C   0  0  1  0  0  3  0  0  0  0  0  0
  187.5590  174.7340  135.5330 C   0  0  1  0  0  3  0  0  0  0  0  0
  185.1190  174.2340  135.8290 C   0  0  0  0  0  2  0  0  0  0  0  0
  185.7640  172.9600  137.6940 N   0  0  0  0  0  0  0  0  0  0  0  0
  184.7600  173.8930  137.2720 C   0  0  2  0  0  3  0  0  0  0  0  0
  186.5040  173.6300  135.6080 C   0  0  2  0  0  3  0  0  0  0  0  0
  186.6980  172.8090  136.8360 C   0  0  0  0  0  3  0  0  0  0  0  0
  183.3870  173.2480  137.3450 C   0  0  0  0  0  2  0  0  0  0  0  0
  180.5930  174.3600  138.5070 N   0  0  0  0  0  0  0  0  0  0  0  0
  181.1200  173.4020  136.3510 C   0  0  0  0  0  2  0  0  0  0  0  0
  181.7150  175.0830  137.9120 C   0  0  2  0  0  3  0  0  0  0  0  0
  180.2120  173.3090  137.5630 C   0  0  0  0  0  2  0  0  0  0  0  0
  182.3120  174.2010  136.8180 C   0  0  1  0  0  3  0  0  0  0  0  0
  179.4510  176.2770  137.7070 O   0  0  0  0  0  1  0  0  0  0  0  0
  179.4650  175.2780  138.6870 C   0  0  0  0  0  2  0  0  0  0  0  0
  182.7050  175.5360  138.9930 C   0  0  0  0  0  2  0  0  0  0  0  0
  183.3430  177.3980  140.4560 O   0  0  0  0  0  0  0  0  0  0  0  0
  182.6460  177.0390  139.2960 C   0  0  1  0  0  3  0  0  0  0  0  0
  183.0390  177.9820  138.1710 C   0  0  1  0  0  3  0  0  0  0  0  0
  183.3900  179.2320  138.9230 C   0  0  2  0  0  3  0  0  0  0  0  0
  183.4840  178.7960  140.3750 C   0  0  0  0  0  2  0  0  0  0  0  0
  182.3610  180.1640  138.7860 O   0  0  0  0  0  1  0  0  0  0  0  0
  184.2740  177.5250  137.4080 C   0  0  0  0  0  1  0  0  0  0  0  0
  192.8810  172.0080  136.1800 C   0  0  0  0  0  3  0  0  0  0  0  0
  193.2070  173.8230  134.7660 C   0  0  0  0  0  3  0  0  0  0  0  0
  194.1510  172.3750  136.2000 C   0  0  0  0  0  0  0  0  0  0  0  0
  194.3680  173.5090  135.3190 C   0  0  0  0  0  3  0  0  0  0  0  0
  192.1270  172.9040  135.2500 C   0  0  2  0  0  3  0  0  0  0  0  0
  195.8670  170.7820  136.5280 O   0  0  0  0  0  0  0  0  0  0  0  0
  195.1900  171.7280  137.0100 C   0  0  0  0  0  0  0  0  0  0  0  0
  195.4490  172.1690  138.3400 N   0  0  0  0  0  1  0  0  0  0  0  0
  191.0350  176.7550  138.0770 C   0  0  0  0  0  2  0  0  0  0  0  0
  191.4590  176.7160  139.5330 C   0  0  0  0  0  2  0  0  0  0  0  0
  190.4860  177.5370  140.3590 C   0  0  0  0  0  2  0  0  0  0  0  0
  189.4860  178.2540  139.4640 C   0  0  0  0  0  2  0  0  0  0  0  0
  187.1300  178.5940  139.4090 O   0  0  0  0  0  0  0  0  0  0  0  0
  188.0310  178.2550  141.5380 N   0  0  0  0  0  2  0  0  0  0  0  0
  188.1500  178.3900  140.1210 C   0  0  0  0  0  0  0  0  0  0  0  0
  186.7460  178.3470  142.2110 C   0  0  0  0  0  2  0  0  0  0  0  0
  186.7040  177.3470  143.3560 C   0  0  0  0  0  2  0  0  0  0  0  0
  185.9080  177.8570  144.5580 C   0  0  2  0  0  3  0  0  0  0  0  0
  184.7800  178.7680  144.1790 C   0  0  0  0  0  0  0  0  0  0  0  0
  184.9410  180.1510  144.1940 O   0  0  0  0  0  1  0  0  0  0  0  0
  183.6750  178.2760  143.8380 O   0  0  0  0  0  0  0  0  0  0  0  0
  186.7950  178.3460  145.7170 C   0  0  2  0  0  3  0  0  0  0  0  0
  188.1800  177.7680  145.7270 C   0  0  0  0  0  0  0  0  0  0  0  0
  188.4080  176.7130  146.3730 O   0  0  0  0  0  1  0  0  0  0  0  0
  189.2050  178.3670  145.0050 O   0  0  0  0  0  0  0  0  0  0  0  0
  186.1620  178.3640  146.9800 O   0  0  0  0  0  0  0  0  0  0  0  0
  185.7570  179.6010  147.2000 O   0  0  0  0  0  1  0  0  0  0  0  0
  1  6  1  0  0  0  0
  2  3  1  6  0  0  0
  2  4  1  0  0  0  0
  3  5  2  0  0  0  0
  4  6  1  1  0  0  0
  4  8  1  0  0  0  0
  5  7  1  0  0  0  0
  7  8  1  0  0  0  0
  8 39  1  6  0  0  0
  9 13  1  0  0  0  0
  9  1  1  1  0  0  0
  9  2  1  0  0  0  0
 10 12  1  0  0  0  0
 12 15  1  6  0  0  0
 12 11  1  0  0  0  0
 13 10  1  1  0  0  0
 13 14  1  0  0  0  0
 14 11  2  0  0  0  0
 16 22  1  0  0  0  0
 17 20  1  0  0  0  0
 17 19  1  0  0  0  0
 18 16  1  0  0  0  0
 18 23  1  1  0  0  0
 19 16  1  0  0  0  0
 20 15  1  1  0  0  0
 20 18  1  0  0  0  0
 21 22  1  0  0  0  0
 25 23  1  6  0  0  0
 25 24  1  0  0  0  0
 26 30  1  1  0  0  0
 26 27  1  0  0  0  0
 26 25  1  0  0  0  0
 27 29  1  1  0  0  0
 27 28  1  0  0  0  0
 28 24  1  0  0  0  0
 31 33  2  0  0  0  0
 32 35  1  0  0  0  0
 32 34  2  0  0  0  0
 33 37  1  0  0  0  0
 34 33  1  0  0  0  0
 35  5  1  1  0  0  0
 35 31  1  0  0  0  0
 36 37  2  0  0  0  0
 37 38  1  0  0  0  0
 39 40  1  0  0  0  0
 40 41  1  0  0  0  0
 42 45  1  0  0  0  0
 42 41  1  0  0  0  0
 43 45  2  0  0  0  0
 44 46  1  0  0  0  0
 45 44  1  0  0  0  0
 46 47  1  0  0  0  0
 48 47  1  6  0  0  0
 48 52  1  0  0  0  0
 49 50  1  0  0  0  0
 49 48  1  0  0  0  0
 51 49  2  0  0  0  0
 52 53  1  1  0  0  0
 52 56  1  0  0  0  0
 53 54  1  0  0  0  0
 55 53  2  0  0  0  0
 56 57  1  0  0  0  0
M  END
>  <MODEL>
2

>  <REMARK>
 VINA RESULT:      -7.4      2.251      4.048
  Name = 
  20 active torsions:
  status: ('A' for Active; 'I' for Inactive)
    1  A    between atoms: C_2  and  C_10
    2  A    between atoms: C_2  and  C_29
    3  A    between atoms: C_2  and  C_51
    4  A    between atoms: N_3  and  C_31
    5  A    between atoms: N_4  and  C_36
    6  A    between atoms: O_7  and  C_51
    7  A    between atoms: C_8  and  C_51
    8  A    between atoms: C_13  and  C_52
    9  A    between atoms: C_13  and  C_55
   10  A    between atoms: C_14  and  C_38
   11  A    between atoms: C_16  and  C_38
   12  A    between atoms: C_21  and  C_41
   13  A    between atoms: C_24  and  C_39
   14  A    between atoms: C_24  and  C_53
   15  A    between atoms: C_29  and  C_31
   16  A    between atoms: C_33  and  C_40
   17  A    between atoms: C_33  and  C_57
   18  A    between atoms: C_35  and  C_47
   19  A    between atoms: C_39  and  C_52
   20  A    between atoms: C_48  and  C_54
                            x       y       z     vdW  Elec       q    Type
                         _______ _______ _______ _____ _____    ______ ____

>  <TORSDO>
F 20

$$$$
=
 OpenBabel11042412433D

 57 62  0  0  1  0  0  0  0  0999 V2000
  187.0240  176.3530  136.8250 N   0  0  0  0  0  2  0  0  0  0  0  0
  188.9360  175.0060  136.9900 C   0  0  1  0  0  3  0  0  0  0  0  0
  190.1600  174.5450  136.3460 N   0  0  0  0  0  0  0  0  0  0  0  0
  189.1670  176.3410  137.5720 C   0  0  1  0  0  3  0  0  0  0  0  0
  191.2910  174.6810  136.9880 C   0  0  0  0  0  0  0  0  0  0  0  0
  187.8350  176.8090  137.8930 N   0  0  0  0  0  2  0  0  0  0  0  0
  191.3280  175.4690  138.2050 N   0  0  0  0  0  2  0  0  0  0  0  0
  190.1230  176.1340  138.7340 C   0  0  1  0  0  3  0  0  0  0  0  0
  187.7750  175.3110  136.1000 C   0  0  1  0  0  3  0  0  0  0  0  0
  185.4290  174.4260  136.0370 C   0  0  0  0  0  2  0  0  0  0  0  0
  186.0920  172.9780  137.7640 N   0  0  0  0  0  0  0  0  0  0  0  0
  184.9970  173.8130  137.3650 C   0  0  2  0  0  3  0  0  0  0  0  0
  186.9060  174.0690  135.8940 C   0  0  2  0  0  3  0  0  0  0  0  0
  187.1140  173.1010  137.0070 C   0  0  0  0  0  3  0  0  0  0  0  0
  183.7420  172.9740  137.1860 C   0  0  0  0  0  2  0  0  0  0  0  0
  180.5900  173.6160  137.3870 N   0  0  0  0  0  0  0  0  0  0  0  0
  181.8800  172.6660  135.5770 C   0  0  0  0  0  2  0  0  0  0  0  0
  181.7090  174.5000  137.0670 C   0  0  2  0  0  3  0  0  0  0  0  0
  180.6790  172.4690  136.4830 C   0  0  0  0  0  2  0  0  0  0  0  0
  182.7360  173.6900  136.2820 C   0  0  1  0  0  3  0  0  0  0  0  0
  179.4400  175.2280  136.0840 O   0  0  0  0  0  1  0  0  0  0  0  0
  179.3290  174.3220  137.1450 C   0  0  0  0  0  2  0  0  0  0  0  0
  182.2460  175.1780  138.3340 C   0  0  0  0  0  2  0  0  0  0  0  0
  181.8550  177.0660  139.8500 O   0  0  0  0  0  0  0  0  0  0  0  0
  181.7440  176.6150  138.5290 C   0  0  1  0  0  3  0  0  0  0  0  0
  182.3090  177.6720  137.5950 C   0  0  1  0  0  3  0  0  0  0  0  0
  182.0630  178.9330  138.3710 C   0  0  2  0  0  3  0  0  0  0  0  0
  181.7010  178.4630  139.7690 C   0  0  0  0  0  2  0  0  0  0  0  0
  180.9810  179.6180  137.8180 O   0  0  0  0  0  1  0  0  0  0  0  0
  183.8080  177.5370  137.3720 C   0  0  0  0  0  1  0  0  0  0  0  0
  193.5280  173.7240  137.4080 C   0  0  0  0  0  3  0  0  0  0  0  0
  193.3330  175.3050  135.7150 C   0  0  0  0  0  3  0  0  0  0  0  0
  194.6260  174.4570  137.3440 C   0  0  0  0  0  0  0  0  0  0  0  0
  194.5170  175.4490  136.2890 C   0  0  0  0  0  3  0  0  0  0  0  0
  192.5670  174.1900  136.3610 C   0  0  2  0  0  3  0  0  0  0  0  0
  195.7340  173.4900  139.1960 O   0  0  0  0  0  0  0  0  0  0  0  0
  195.7870  174.2930  138.2270 C   0  0  0  0  0  0  0  0  0  0  0  0
  196.9840  175.0300  137.9920 N   0  0  0  0  0  1  0  0  0  0  0  0
  190.4930  177.4680  139.3550 C   0  0  0  0  0  2  0  0  0  0  0  0
  190.2530  177.4330  140.8520 C   0  0  0  0  0  2  0  0  0  0  0  0
  191.5840  177.5140  141.5750 C   0  0  0  0  0  2  0  0  0  0  0  0
  191.6000  176.5910  142.7850 C   0  0  0  0  0  2  0  0  0  0  0  0
  190.9780  177.9870  144.6100 O   0  0  0  0  0  0  0  0  0  0  0  0
  189.3580  176.4360  143.9560 N   0  0  0  0  0  2  0  0  0  0  0  0
  190.6460  177.0450  143.8420 C   0  0  0  0  0  0  0  0  0  0  0  0
  188.3890  176.8710  144.9480 C   0  0  0  0  0  2  0  0  0  0  0  0
  187.7750  178.1910  144.5070 C   0  0  0  0  0  2  0  0  0  0  0  0
  186.3380  178.0370  144.0060 C   0  0  2  0  0  3  0  0  0  0  0  0
  186.1860  178.3230  142.5420 C   0  0  0  0  0  0  0  0  0  0  0  0
  184.9930  178.8240  142.0310 O   0  0  0  0  0  1  0  0  0  0  0  0
  187.1540  178.1120  141.7680 O   0  0  0  0  0  0  0  0  0  0  0  0
  185.2950  178.6990  144.9230 C   0  0  2  0  0  3  0  0  0  0  0  0
  185.6360  178.6580  146.3840 C   0  0  0  0  0  0  0  0  0  0  0  0
  185.6740  179.7280  147.0430 O   0  0  0  0  0  1  0  0  0  0  0  0
  185.8780  177.4480  147.0230 O   0  0  0  0  0  0  0  0  0  0  0  0
  183.9530  178.3710  144.6280 O   0  0  0  0  0  0  0  0  0  0  0  0
  183.1850  179.1910  145.3220 O   0  0  0  0  0  1  0  0  0  0  0  0
  1  6  1  0  0  0  0
  2  3  1  6  0  0  0
  2  4  1  0  0  0  0
  3  5  2  0  0  0  0
  4  6  1  1  0  0  0
  4  8  1  0  0  0  0
  5  7  1  0  0  0  0
  7  8  1  0  0  0  0
  8 39  1  6  0  0  0
  9  1  1  1  0  0  0
  9  2  1  0  0  0  0
 10 12  1  0  0  0  0
 12 15  1  6  0  0  0
 12 11  1  0  0  0  0
 13 10  1  1  0  0  0
 13  9  1  0  0  0  0
 13 14  1  0  0  0  0
 14 11  2  0  0  0  0
 17 20  1  0  0  0  0
 17 19  1  0  0  0  0
 18 16  1  0  0  0  0
 18 23  1  1  0  0  0
 19 16  1  0  0  0  0
 20 18  1  0  0  0  0
 20 15  1  1  0  0  0
 21 22  1  0  0  0  0
 22 16  1  0  0  0  0
 25 23  1  1  0  0  0
 25 24  1  0  0  0  0
 26 30  1  1  0  0  0
 26 27  1  0  0  0  0
 26 25  1  0  0  0  0
 27 29  1  6  0  0  0
 27 28  1  0  0  0  0
 28 24  1  0  0  0  0
 32 34  2  0  0  0  0
 32 35  1  0  0  0  0
 33 31  2  0  0  0  0
 33 37  1  0  0  0  0
 34 33  1  0  0  0  0
 35  5  1  1  0  0  0
 35 31  1  0  0  0  0
 37 36  2  0  0  0  0
 38 37  1  0  0  0  0
 39 40  1  0  0  0  0
 40 41  1  0  0  0  0
 41 42  1  0  0  0  0
 42 45  1  0  0  0  0
 44 46  1  0  0  0  0
 45 44  1  0  0  0  0
 45 43  2  0  0  0  0
 47 46  1  0  0  0  0
 48 47  1  1  0  0  0
 48 52  1  0  0  0  0
 49 48  1  0  0  0  0
 50 49  1  0  0  0  0
 51 49  2  0  0  0  0
 52 56  1  1  0  0  0
 52 53  1  0  0  0  0
 53 55  2  0  0  0  0
 53 54  1  0  0  0  0
 56 57  1  0  0  0  0
M  END
>  <MODEL>
3

>  <REMARK>
 VINA RESULT:      -7.4      1.758      3.230
  Name = 
  20 active torsions:
  status: ('A' for Active; 'I' for Inactive)
    1  A    between atoms: C_2  and  C_10
    2  A    between atoms: C_2  and  C_29
    3  A    between atoms: C_2  and  C_51
    4  A    between atoms: N_3  and  C_31
    5  A    between atoms: N_4  and  C_36
    6  A    between atoms: O_7  and  C_51
    7  A    between atoms: C_8  and  C_51
    8  A    between atoms: C_13  and  C_52
    9  A    between atoms: C_13  and  C_55
   10  A    between atoms: C_14  and  C_38
   11  A    between atoms: C_16  and  C_38
   12  A    between atoms: C_21  and  C_41
   13  A    between atoms: C_24  and  C_39
   14  A    between atoms: C_24  and  C_53
   15  A    between atoms: C_29  and  C_31
   16  A    between atoms: C_33  and  C_40
   17  A    between atoms: C_33  and  C_57
   18  A    between atoms: C_35  and  C_47
   19  A    between atoms: C_39  and  C_52
   20  A    between atoms: C_48  and  C_54
                            x       y       z     vdW  Elec       q    Type
                         _______ _______ _______ _____ _____    ______ ____

>  <TORSDO>
F 20

$$$$
=
 OpenBabel11042412433D

 57 62  0  0  1  0  0  0  0  0999 V2000
  186.8250  176.3420  135.9880 N   0  0  0  0  0  2  0  0  0  0  0  0
  188.5550  174.9140  136.6710 C   0  0  1  0  0  3  0  0  0  0  0  0
  189.7440  174.1680  136.2780 N   0  0  0  0  0  0  0  0  0  0  0  0
  188.9130  176.3290  136.8750 C   0  0  1  0  0  3  0  0  0  0  0  0
  190.8510  174.3680  136.9440 C   0  0  0  0  0  0  0  0  0  0  0  0
  187.6330  176.9990  136.9480 N   0  0  0  0  0  2  0  0  0  0  0  0
  190.9240  175.4610  137.8940 N   0  0  0  0  0  2  0  0  0  0  0  0
  189.7820  176.3660  138.1210 C   0  0  1  0  0  3  0  0  0  0  0  0
  187.4810  175.0670  135.6420 C   0  0  1  0  0  3  0  0  0  0  0  0
  185.0520  174.4470  135.7390 C   0  0  0  0  0  2  0  0  0  0  0  0
  185.5610  173.3980  137.7780 N   0  0  0  0  0  0  0  0  0  0  0  0
  184.5600  174.2220  137.1650 C   0  0  2  0  0  3  0  0  0  0  0  0
  186.4820  173.9120  135.7210 C   0  0  2  0  0  3  0  0  0  0  0  0
  186.5870  173.2250  137.0380 C   0  0  0  0  0  3  0  0  0  0  0  0
  183.2220  173.5020  137.1640 C   0  0  0  0  0  2  0  0  0  0  0  0
  180.2210  174.3030  138.0240 N   0  0  0  0  0  0  0  0  0  0  0  0
  181.0830  173.5120  135.9100 C   0  0  0  0  0  2  0  0  0  0  0  0
  181.3330  175.1520  137.6010 C   0  0  2  0  0  3  0  0  0  0  0  0
  180.0520  173.2750  136.9970 C   0  0  0  0  0  2  0  0  0  0  0  0
  182.1330  174.3850  136.5510 C   0  0  1  0  0  3  0  0  0  0  0  0
  178.9310  175.8240  139.3050 O   0  0  0  0  0  1  0  0  0  0  0  0
  178.9990  175.1090  138.1050 C   0  0  0  0  0  2  0  0  0  0  0  0
  182.1430  175.6310  138.8120 C   0  0  0  0  0  2  0  0  0  0  0  0
  182.0130  177.4380  140.4670 O   0  0  0  0  0  0  0  0  0  0  0  0
  181.9980  177.1320  139.1000 C   0  0  1  0  0  3  0  0  0  0  0  0
  182.9530  178.0650  138.3740 C   0  0  1  0  0  3  0  0  0  0  0  0
  182.9180  179.2840  139.2470 C   0  0  2  0  0  3  0  0  0  0  0  0
  182.2330  178.8270  140.5240 C   0  0  0  0  0  2  0  0  0  0  0  0
  182.1460  180.2730  138.6380 O   0  0  0  0  0  1  0  0  0  0  0  0
  184.3840  177.5490  138.3360 C   0  0  0  0  0  1  0  0  0  0  0  0
  193.1700  173.8150  137.5900 C   0  0  0  0  0  3  0  0  0  0  0  0
  192.7240  174.1180  135.3290 C   0  0  0  0  0  3  0  0  0  0  0  0
  194.2130  174.3660  136.9930 C   0  0  0  0  0  0  0  0  0  0  0  0
  193.9470  174.5600  135.5780 C   0  0  0  0  0  3  0  0  0  0  0  0
  192.0890  173.5930  136.5810 C   0  0  2  0  0  3  0  0  0  0  0  0
  195.4300  175.1490  138.8620 O   0  0  0  0  0  0  0  0  0  0  0  0
  195.4600  174.7370  137.6730 C   0  0  0  0  0  0  0  0  0  0  0  0
  196.7110  174.6240  137.0000 N   0  0  0  0  0  1  0  0  0  0  0  0
  190.2780  177.7780  138.3740 C   0  0  0  0  0  2  0  0  0  0  0  0
  189.1390  178.6520  138.8640 C   0  0  0  0  0  2  0  0  0  0  0  0
  188.9040  178.3870  140.3390 C   0  0  0  0  0  2  0  0  0  0  0  0
  187.4160  178.3950  140.6600 C   0  0  0  0  0  2  0  0  0  0  0  0
  186.1280  178.5220  142.6580 O   0  0  0  0  0  0  0  0  0  0  0  0
  188.0470  177.1980  142.8030 N   0  0  0  0  0  2  0  0  0  0  0  0
  187.1550  178.0600  142.0940 C   0  0  0  0  0  0  0  0  0  0  0  0
  187.8100  176.8220  144.1860 C   0  0  0  0  0  2  0  0  0  0  0  0
  188.4350  177.8600  145.1050 C   0  0  0  0  0  2  0  0  0  0  0  0
  189.2830  177.2350  146.2150 C   0  0  2  0  0  3  0  0  0  0  0  0
  188.8700  177.6660  147.5900 C   0  0  0  0  0  0  0  0  0  0  0  0
  189.8050  178.1580  148.4960 O   0  0  0  0  0  1  0  0  0  0  0  0
  187.6620  177.5870  147.9270 O   0  0  0  0  0  0  0  0  0  0  0  0
  190.7940  177.2810  145.9310 C   0  0  2  0  0  3  0  0  0  0  0  0
  191.1580  177.8580  144.5940 C   0  0  0  0  0  0  0  0  0  0  0  0
  191.6130  177.1050  143.6950 O   0  0  0  0  0  0  0  0  0  0  0  0
  190.9690  179.2090  144.3280 O   0  0  0  0  0  1  0  0  0  0  0  0
  191.4960  176.1030  146.2670 O   0  0  0  0  0  0  0  0  0  0  0  0
  192.2580  176.3810  147.3090 O   0  0  0  0  0  1  0  0  0  0  0  0
  1  6  1  0  0  0  0
  2  3  1  6  0  0  0
  2  4  1  0  0  0  0
  3  5  2  0  0  0  0
  4  6  1  1  0  0  0
  4  8  1  0  0  0  0
  5  7  1  0  0  0  0
  7  8  1  0  0  0  0
  8 39  1  6  0  0  0
  9 13  1  0  0  0  0
  9  1  1  1  0  0  0
  9  2  1  0  0  0  0
 10 12  1  0  0  0  0
 12 15  1  6  0  0  0
 12 11  1  0  0  0  0
 13 10  1  1  0  0  0
 13 14  1  0  0  0  0
 14 11  2  0  0  0  0
 16 22  1  0  0  0  0
 17 20  1  0  0  0  0
 17 19  1  0  0  0  0
 18 16  1  0  0  0  0
 18 23  1  1  0  0  0
 19 16  1  0  0  0  0
 20 15  1  1  0  0  0
 20 18  1  0  0  0  0
 22 21  1  0  0  0  0
 24 28  1  0  0  0  0
 25 23  1  1  0  0  0
 25 24  1  0  0  0  0
 26 30  1  1  0  0  0
 26 25  1  0  0  0  0
 26 27  1  0  0  0  0
 27 29  1  6  0  0  0
 27 28  1  0  0  0  0
 32 34  2  0  0  0  0
 32 35  1  0  0  0  0
 33 31  2  0  0  0  0
 33 37  1  0  0  0  0
 34 33  1  0  0  0  0
 35  5  1  1  0  0  0
 35 31  1  0  0  0  0
 37 36  2  0  0  0  0
 38 37  1  0  0  0  0
 39 40  1  0  0  0  0
 40 41  1  0  0  0  0
 41 42  1  0  0  0  0
 42 45  1  0  0  0  0
 44 46  1  0  0  0  0
 45 43  2  0  0  0  0
 45 44  1  0  0  0  0
 46 47  1  0  0  0  0
 48 47  1  6  0  0  0
 48 49  1  0  0  0  0
 49 51  2  0  0  0  0
 49 50  1  0  0  0  0
 52 53  1  6  0  0  0
 52 48  1  0  0  0  0
 52 56  1  0  0  0  0
 54 53  2  0  0  0  0
 55 53  1  0  0  0  0
 56 57  1  0  0  0  0
M  END
>  <MODEL>
4

>  <REMARK>
 VINA RESULT:      -7.3      2.312      4.452
  Name = 
  20 active torsions:
  status: ('A' for Active; 'I' for Inactive)
    1  A    between atoms: C_2  and  C_10
    2  A    between atoms: C_2  and  C_29
    3  A    between atoms: C_2  and  C_51
    4  A    between atoms: N_3  and  C_31
    5  A    between atoms: N_4  and  C_36
    6  A    between atoms: O_7  and  C_51
    7  A    between atoms: C_8  and  C_51
    8  A    between atoms: C_13  and  C_52
    9  A    between atoms: C_13  and  C_55
   10  A    between atoms: C_14  and  C_38
   11  A    between atoms: C_16  and  C_38
   12  A    between atoms: C_21  and  C_41
   13  A    between atoms: C_24  and  C_39
   14  A    between atoms: C_24  and  C_53
   15  A    between atoms: C_29  and  C_31
   16  A    between atoms: C_33  and  C_40
   17  A    between atoms: C_33  and  C_57
   18  A    between atoms: C_35  and  C_47
   19  A    between atoms: C_39  and  C_52
   20  A    between atoms: C_48  and  C_54
                            x       y       z     vdW  Elec       q    Type
                         _______ _______ _______ _____ _____    ______ ____

>  <TORSDO>
F 20

$$$$
=
 OpenBabel11042412433D

 57 62  0  0  1  0  0  0  0  0999 V2000
  187.9830  175.6910  135.9680 N   0  0  0  0  0  2  0  0  0  0  0  0
  189.6070  174.0060  136.1210 C   0  0  1  0  0  3  0  0  0  0  0  0
  190.5660  173.1720  135.4080 N   0  0  0  0  0  0  0  0  0  0  0  0
  190.1940  175.3410  136.3410 C   0  0  1  0  0  3  0  0  0  0  0  0
  191.8100  173.1700  135.8110 C   0  0  0  0  0  0  0  0  0  0  0  0
  189.0660  176.1450  136.7590 N   0  0  0  0  0  2  0  0  0  0  0  0
  192.2410  174.1420  136.7970 N   0  0  0  0  0  2  0  0  0  0  0  0
  191.3130  175.1470  137.3490 C   0  0  1  0  0  3  0  0  0  0  0  0
  188.3640  174.3910  135.3850 C   0  0  1  0  0  3  0  0  0  0  0  0
  185.9110  174.0540  135.7820 C   0  0  0  0  0  2  0  0  0  0  0  0
  186.5390  172.9720  137.7710 N   0  0  0  0  0  0  0  0  0  0  0  0
  185.5720  173.9010  137.2610 C   0  0  2  0  0  3  0  0  0  0  0  0
  187.2590  173.3580  135.6080 C   0  0  2  0  0  3  0  0  0  0  0  0
  187.4430  172.6760  136.9180 C   0  0  0  0  0  3  0  0  0  0  0  0
  184.1700  173.3390  137.4350 C   0  0  0  0  0  2  0  0  0  0  0  0
  181.0560  174.1010  137.7660 N   0  0  0  0  0  0  0  0  0  0  0  0
  182.2430  173.1560  135.8850 C   0  0  0  0  0  2  0  0  0  0  0  0
  182.1980  174.9490  137.4340 C   0  0  2  0  0  3  0  0  0  0  0  0
  181.0670  172.9790  136.8260 C   0  0  0  0  0  2  0  0  0  0  0  0
  183.1640  174.1220  136.5890 C   0  0  1  0  0  3  0  0  0  0  0  0
  179.0610  174.8990  138.7670 O   0  0  0  0  0  1  0  0  0  0  0  0
  179.8170  174.8630  137.5900 C   0  0  0  0  0  2  0  0  0  0  0  0
  182.8060  175.5640  138.7000 C   0  0  0  0  0  2  0  0  0  0  0  0
  182.5310  177.4670  140.2250 O   0  0  0  0  0  0  0  0  0  0  0  0
  182.4710  177.0510  138.8890 C   0  0  1  0  0  3  0  0  0  0  0  0
  183.2370  178.0410  138.0270 C   0  0  1  0  0  3  0  0  0  0  0  0
  183.0880  179.3120  138.8100 C   0  0  2  0  0  3  0  0  0  0  0  0
  182.5570  178.8720  140.1650 C   0  0  0  0  0  2  0  0  0  0  0  0
  182.1470  180.1350  138.1910 O   0  0  0  0  0  1  0  0  0  0  0  0
  184.7210  177.7210  137.9190 C   0  0  0  0  0  1  0  0  0  0  0  0
  193.3640  171.2650  136.0480 C   0  0  0  0  0  3  0  0  0  0  0  0
  194.0530  173.0620  134.7440 C   0  0  0  0  0  3  0  0  0  0  0  0
  194.6690  171.4370  136.1670 C   0  0  0  0  0  0  0  0  0  0  0  0
  195.1130  172.5570  135.3570 C   0  0  0  0  0  3  0  0  0  0  0  0
  192.8180  172.2970  135.1130 C   0  0  2  0  0  3  0  0  0  0  0  0
  196.5390  170.0310  136.5100 O   0  0  0  0  0  0  0  0  0  0  0  0
  195.5420  170.6130  137.0120 C   0  0  0  0  0  0  0  0  0  0  0  0
  195.2750  170.4710  138.4050 N   0  0  0  0  0  1  0  0  0  0  0  0
  192.0420  176.4570  137.5850 C   0  0  0  0  0  2  0  0  0  0  0  0
  193.2260  176.2380  138.5070 C   0  0  0  0  0  2  0  0  0  0  0  0
  193.0920  177.1420  139.7170 C   0  0  0  0  0  2  0  0  0  0  0  0
  191.6320  177.4790  139.9830 C   0  0  0  0  0  2  0  0  0  0  0  0
  191.6900  177.8600  142.3320 O   0  0  0  0  0  0  0  0  0  0  0  0
  190.3210  176.0940  141.6510 N   0  0  0  0  0  2  0  0  0  0  0  0
  191.2340  177.1610  141.3880 C   0  0  0  0  0  0  0  0  0  0  0  0
  189.8840  175.7740  142.9990 C   0  0  0  0  0  2  0  0  0  0  0  0
  188.3970  176.0650  143.1290 C   0  0  0  0  0  2  0  0  0  0  0  0
  188.1100  177.5080  143.5450 C   0  0  2  0  0  3  0  0  0  0  0  0
  188.3640  177.7680  145.0000 C   0  0  0  0  0  0  0  0  0  0  0  0
  189.4250  178.5710  145.4090 O   0  0  0  0  0  0  0  0  0  0  0  0
  187.6050  177.2560  145.8610 O   0  0  0  0  0  1  0  0  0  0  0  0
  186.7770  178.0500  142.9990 C   0  0  2  0  0  3  0  0  0  0  0  0
  186.8760  178.6910  141.6450 C   0  0  0  0  0  0  0  0  0  0  0  0
  187.9130  178.5250  140.9540 O   0  0  0  0  0  0  0  0  0  0  0  0
  185.8210  179.4370  141.1340 O   0  0  0  0  0  1  0  0  0  0  0  0
  186.0060  178.7770  143.9320 O   0  0  0  0  0  0  0  0  0  0  0  0
  184.9240  178.0660  144.1890 O   0  0  0  0  0  1  0  0  0  0  0  0
  1  6  1  0  0  0  0
  2  3  1  6  0  0  0
  2  4  1  0  0  0  0
  3  5  2  0  0  0  0
  4  6  1  1  0  0  0
  4  8  1  0  0  0  0
  5  7  1  0  0  0  0
  7  8  1  0  0  0  0
  8 39  1  6  0  0  0
  9 13  1  0  0  0  0
  9  1  1  1  0  0  0
  9  2  1  0  0  0  0
 10 12  1  0  0  0  0
 12 15  1  6  0  0  0
 12 11  1  0  0  0  0
 13 10  1  1  0  0  0
 13 14  1  0  0  0  0
 14 11  2  0  0  0  0
 17 20  1  0  0  0  0
 17 19  1  0  0  0  0
 18 16  1  0  0  0  0
 18 23  1  1  0  0  0
 19 16  1  0  0  0  0
 20 18  1  0  0  0  0
 20 15  1  1  0  0  0
 22 16  1  0  0  0  0
 22 21  1  0  0  0  0
 25 23  1  1  0  0  0
 25 24  1  0  0  0  0
 26 30  1  1  0  0  0
 26 27  1  0  0  0  0
 26 25  1  0  0  0  0
 27 29  1  6  0  0  0
 27 28  1  0  0  0  0
 28 24  1  0  0  0  0
 31 33  2  0  0  0  0
 32 35  1  0  0  0  0
 32 34  2  0  0  0  0
 33 37  1  0  0  0  0
 34 33  1  0  0  0  0
 35  5  1  1  0  0  0
 35 31  1  0  0  0  0
 36 37  2  0  0  0  0
 37 38  1  0  0  0  0
 39 40  1  0  0  0  0
 40 41  1  0  0  0  0
 41 42  1  0  0  0  0
 42 45  1  0  0  0  0
 44 46  1  0  0  0  0
 45 44  1  0  0  0  0
 45 43  2  0  0  0  0
 46 47  1  0  0  0  0
 48 47  1  1  0  0  0
 48 49  1  0  0  0  0
 49 50  2  0  0  0  0
 49 51  1  0  0  0  0
 52 53  1  6  0  0  0
 52 48  1  0  0  0  0
 52 56  1  0  0  0  0
 54 53  2  0  0  0  0
 55 53  1  0  0  0  0
 56 57  1  0  0  0  0
M  END
>  <MODEL>
5

>  <REMARK>
 VINA RESULT:      -7.3      2.503      3.862
  Name = 
  20 active torsions:
  status: ('A' for Active; 'I' for Inactive)
    1  A    between atoms: C_2  and  C_10
    2  A    between atoms: C_2  and  C_29
    3  A    between atoms: C_2  and  C_51
    4  A    between atoms: N_3  and  C_31
    5  A    between atoms: N_4  and  C_36
    6  A    between atoms: O_7  and  C_51
    7  A    between atoms: C_8  and  C_51
    8  A    between atoms: C_13  and  C_52
    9  A    between atoms: C_13  and  C_55
   10  A    between atoms: C_14  and  C_38
   11  A    between atoms: C_16  and  C_38
   12  A    between atoms: C_21  and  C_41
   13  A    between atoms: C_24  and  C_39
   14  A    between atoms: C_24  and  C_53
   15  A    between atoms: C_29  and  C_31
   16  A    between atoms: C_33  and  C_40
   17  A    between atoms: C_33  and  C_57
   18  A    between atoms: C_35  and  C_47
   19  A    between atoms: C_39  and  C_52
   20  A    between atoms: C_48  and  C_54
                            x       y       z     vdW  Elec       q    Type
                         _______ _______ _______ _____ _____    ______ ____

>  <TORSDO>
F 20

$$$$
=
 OpenBabel11042412433D

 57 62  0  0  1  0  0  0  0  0999 V2000
  188.0210  179.0140  137.3580 N   0  0  0  0  0  2  0  0  0  0  0  0
  189.1630  176.9860  137.0740 C   0  0  1  0  0  3  0  0  0  0  0  0
  190.2570  176.2880  136.4090 N   0  0  0  0  0  0  0  0  0  0  0  0
  189.6970  177.7480  138.2170 C   0  0  1  0  0  3  0  0  0  0  0  0
  191.1230  175.6440  137.1480 C   0  0  0  0  0  0  0  0  0  0  0  0
  188.6030  178.6200  138.5880 N   0  0  0  0  0  2  0  0  0  0  0  0
  191.1010  175.8180  138.5870 N   0  0  0  0  0  2  0  0  0  0  0  0
  190.1330  176.7160  139.2430 C   0  0  1  0  0  3  0  0  0  0  0  0
  188.5040  178.0920  136.3140 C   0  0  1  0  0  3  0  0  0  0  0  0
  186.0410  178.2690  135.8770 C   0  0  0  0  0  2  0  0  0  0  0  0
  185.9330  175.9920  136.4440 N   0  0  0  0  0  0  0  0  0  0  0  0
  185.2330  177.2270  136.6440 C   0  0  2  0  0  3  0  0  0  0  0  0
  187.3350  177.5600  135.4840 C   0  0  2  0  0  3  0  0  0  0  0  0
  187.0480  176.1430  135.8400 C   0  0  0  0  0  3  0  0  0  0  0  0
  183.8240  177.1220  136.0840 C   0  0  0  0  0  2  0  0  0  0  0  0
  181.9270  177.0540  138.6890 N   0  0  0  0  0  0  0  0  0  0  0  0
  183.7700  175.6240  138.0590 C   0  0  0  0  0  2  0  0  0  0  0  0
  181.6970  176.5230  137.3470 C   0  0  2  0  0  3  0  0  0  0  0  0
  183.2080  176.5180  139.1480 C   0  0  0  0  0  2  0  0  0  0  0  0
  183.0350  176.0270  136.8050 C   0  0  1  0  0  3  0  0  0  0  0  0
  179.7900  176.0440  138.8710 O   0  0  0  0  0  1  0  0  0  0  0  0
  180.8630  176.5900  139.5840 C   0  0  0  0  0  2  0  0  0  0  0  0
  180.9820  177.5560  136.4680 C   0  0  0  0  0  2  0  0  0  0  0  0
  181.9040  179.4940  137.6570 O   0  0  0  0  0  0  0  0  0  0  0  0
  180.7340  178.8990  137.1680 C   0  0  1  0  0  3  0  0  0  0  0  0
  179.9370  179.9380  136.3950 C   0  0  1  0  0  3  0  0  0  0  0  0
  180.3430  181.2100  137.0790 C   0  0  2  0  0  3  0  0  0  0  0  0
  181.5470  180.8280  137.9240 C   0  0  0  0  0  2  0  0  0  0  0  0
  179.3120  181.6440  137.9120 O   0  0  0  0  0  1  0  0  0  0  0  0
  180.3390  180.0360  134.9310 C   0  0  0  0  0  1  0  0  0  0  0  0
  193.0520  174.1430  137.5060 C   0  0  0  0  0  3  0  0  0  0  0  0
  193.2720  175.8180  135.9090 C   0  0  0  0  0  3  0  0  0  0  0  0
  194.2970  174.5870  137.4830 C   0  0  0  0  0  0  0  0  0  0  0  0
  194.4480  175.6340  136.4880 C   0  0  0  0  0  3  0  0  0  0  0  0
  192.2470  174.8910  136.4900 C   0  0  2  0  0  3  0  0  0  0  0  0
  196.2460  174.8870  138.7870 O   0  0  0  0  0  0  0  0  0  0  0  0
  195.3710  174.0920  138.3520 C   0  0  0  0  0  0  0  0  0  0  0  0
  195.4290  172.7160  138.7190 N   0  0  0  0  0  1  0  0  0  0  0  0
  190.7780  177.3990  140.4350 C   0  0  0  0  0  2  0  0  0  0  0  0
  189.9240  177.2070  141.6740 C   0  0  0  0  0  2  0  0  0  0  0  0
  190.4000  175.9780  142.4240 C   0  0  0  0  0  2  0  0  0  0  0  0
  191.1730  176.3720  143.6740 C   0  0  0  0  0  2  0  0  0  0  0  0
  190.8740  177.9110  145.4660 O   0  0  0  0  0  0  0  0  0  0  0  0
  188.9000  177.0260  144.5840 N   0  0  0  0  0  2  0  0  0  0  0  0
  190.3230  177.1410  144.6340 C   0  0  0  0  0  0  0  0  0  0  0  0
  188.0380  177.7810  145.4770 C   0  0  0  0  0  2  0  0  0  0  0  0
  186.5850  177.4570  145.1680 C   0  0  0  0  0  2  0  0  0  0  0  0
  185.6580  178.6600  145.3500 C   0  0  2  0  0  3  0  0  0  0  0  0
  185.3740  178.9780  146.7870 C   0  0  0  0  0  0  0  0  0  0  0  0
  186.0030  180.0450  147.4220 O   0  0  0  0  0  0  0  0  0  0  0  0
  184.5510  178.2740  147.4250 O   0  0  0  0  0  1  0  0  0  0  0  0
  184.4310  178.6350  144.4210 C   0  0  2  0  0  3  0  0  0  0  0  0
  184.7520  178.7930  142.9630 C   0  0  0  0  0  0  0  0  0  0  0  0
  185.6790  179.5670  142.6120 O   0  0  0  0  0  1  0  0  0  0  0  0
  184.0570  178.0710  142.0010 O   0  0  0  0  0  0  0  0  0  0  0  0
  183.3370  179.4100  144.8640 O   0  0  0  0  0  0  0  0  0  0  0  0
  182.4890  179.5060  143.8570 O   0  0  0  0  0  1  0  0  0  0  0  0
  1  6  1  0  0  0  0
  2  3  1  6  0  0  0
  2  4  1  0  0  0  0
  3  5  2  0  0  0  0
  4  6  1  1  0  0  0
  4  8  1  0  0  0  0
  5  7  1  0  0  0  0
  7  8  1  0  0  0  0
  8 39  1  1  0  0  0
  9  2  1  0  0  0  0
  9  1  1  1  0  0  0
 10 12  1  0  0  0  0
 11 12  1  0  0  0  0
 12 15  1  6  0  0  0
 13 14  1  1  0  0  0
 13 10  1  0  0  0  0
 13  9  1  0  0  0  0
 14 11  2  0  0  0  0
 16 19  1  0  0  0  0
 16 22  1  0  0  0  0
 17 19  1  0  0  0  0
 18 23  1  6  0  0  0
 18 16  1  0  0  0  0
 20 15  1  1  0  0  0
 20 18  1  0  0  0  0
 20 17  1  0  0  0  0
 21 22  1  0  0  0  0
 24 28  1  0  0  0  0
 25 23  1  6  0  0  0
 25 24  1  0  0  0  0
 26 30  1  6  0  0  0
 26 27  1  0  0  0  0
 26 25  1  0  0  0  0
 27 29  1  1  0  0  0
 27 28  1  0  0  0  0
 32 34  2  0  0  0  0
 32 35  1  0  0  0  0
 33 31  2  0  0  0  0
 33 37  1  0  0  0  0
 34 33  1  0  0  0  0
 35  5  1  1  0  0  0
 35 31  1  0  0  0  0
 37 38  1  0  0  0  0
 37 36  2  0  0  0  0
 39 40  1  0  0  0  0
 40 41  1  0  0  0  0
 41 42  1  0  0  0  0
 42 45  1  0  0  0  0
 44 45  1  0  0  0  0
 44 46  1  0  0  0  0
 45 43  2  0  0  0  0
 47 46  1  0  0  0  0
 48 47  1  1  0  0  0
 48 49  1  0  0  0  0
 49 50  2  0  0  0  0
 49 51  1  0  0  0  0
 52 53  1  6  0  0  0
 52 56  1  0  0  0  0
 52 48  1  0  0  0  0
 54 53  1  0  0  0  0
 55 53  2  0  0  0  0
 57 56  1  0  0  0  0
M  END
>  <MODEL>
6

>  <REMARK>
 VINA RESULT:      -7.1      1.994      2.849
  Name = 
  20 active torsions:
  status: ('A' for Active; 'I' for Inactive)
    1  A    between atoms: C_2  and  C_10
    2  A    between atoms: C_2  and  C_29
    3  A    between atoms: C_2  and  C_51
    4  A    between atoms: N_3  and  C_31
    5  A    between atoms: N_4  and  C_36
    6  A    between atoms: O_7  and  C_51
    7  A    between atoms: C_8  and  C_51
    8  A    between atoms: C_13  and  C_52
    9  A    between atoms: C_13  and  C_55
   10  A    between atoms: C_14  and  C_38
   11  A    between atoms: C_16  and  C_38
   12  A    between atoms: C_21  and  C_41
   13  A    between atoms: C_24  and  C_39
   14  A    between atoms: C_24  and  C_53
   15  A    between atoms: C_29  and  C_31
   16  A    between atoms: C_33  and  C_40
   17  A    between atoms: C_33  and  C_57
   18  A    between atoms: C_35  and  C_47
   19  A    between atoms: C_39  and  C_52
   20  A    between atoms: C_48  and  C_54
                            x       y       z     vdW  Elec       q    Type
                         _______ _______ _______ _____ _____    ______ ____

>  <TORSDO>
F 20

$$$$
=
 OpenBabel11042412433D

 57 62  0  0  1  0  0  0  0  0999 V2000
  188.5000  177.4420  140.7620 N   0  0  0  0  0  2  0  0  0  0  0  0
  190.3130  176.7340  139.4550 C   0  0  1  0  0  3  0  0  0  0  0  0
  190.9320  175.6330  138.7260 N   0  0  0  0  0  0  0  0  0  0  0  0
  189.2520  177.3310  138.6240 C   0  0  1  0  0  3  0  0  0  0  0  0
  191.2500  175.8200  137.4710 C   0  0  0  0  0  0  0  0  0  0  0  0
  188.5260  178.1740  139.5500 N   0  0  0  0  0  2  0  0  0  0  0  0
  190.7910  177.0140  136.7900 N   0  0  0  0  0  2  0  0  0  0  0  0
  189.9590  178.0230  137.4720 C   0  0  1  0  0  3  0  0  0  0  0  0
  189.5180  176.3800  140.6700 C   0  0  1  0  0  3  0  0  0  0  0  0
  189.5510  176.1970  143.1720 C   0  0  0  0  0  2  0  0  0  0  0  0
  190.5550  178.3210  143.1590 N   0  0  0  0  0  0  0  0  0  0  0  0
  189.5630  177.5580  143.8590 C   0  0  2  0  0  3  0  0  0  0  0  0
  190.4030  176.3760  141.9170 C   0  0  2  0  0  3  0  0  0  0  0  0
  191.0090  177.7200  142.1270 C   0  0  0  0  0  3  0  0  0  0  0  0
  189.9510  177.4180  145.3220 C   0  0  0  0  0  2  0  0  0  0  0  0
  187.5910  178.5250  147.2180 N   0  0  0  0  0  0  0  0  0  0  0  0
  189.1890  176.7490  147.5850 C   0  0  0  0  0  2  0  0  0  0  0  0
  187.5350  177.5780  146.1050 C   0  0  2  0  0  3  0  0  0  0  0  0
  188.6140  178.0370  148.1430 C   0  0  0  0  0  2  0  0  0  0  0  0
  188.8240  176.7610  146.1210 C   0  0  1  0  0  3  0  0  0  0  0  0
  185.5640  179.6980  147.5840 O   0  0  0  0  0  1  0  0  0  0  0  0
  186.2950  178.5480  147.9020 C   0  0  0  0  0  2  0  0  0  0  0  0
  187.2420  178.3050  144.7870 C   0  0  0  0  0  2  0  0  0  0  0  0
  185.0290  179.3280  145.0610 O   0  0  0  0  0  0  0  0  0  0  0  0
  185.7550  178.3240  144.4070 C   0  0  1  0  0  3  0  0  0  0  0  0
  185.4260  178.3640  142.9240 C   0  0  1  0  0  3  0  0  0  0  0  0
  184.0290  178.9080  142.9310 C   0  0  2  0  0  3  0  0  0  0  0  0
  183.8220  179.4270  144.3440 C   0  0  0  0  0  2  0  0  0  0  0  0
  183.1230  177.8770  142.6810 O   0  0  0  0  0  1  0  0  0  0  0  0
  186.3070  179.3250  142.1390 C   0  0  0  0  0  1  0  0  0  0  0  0
  193.3310  174.5280  137.1510 C   0  0  0  0  0  3  0  0  0  0  0  0
  192.0990  175.0730  135.2570 C   0  0  0  0  0  3  0  0  0  0  0  0
  194.1420  174.7490  136.1320 C   0  0  0  0  0  0  0  0  0  0  0  0
  193.3840  175.0910  134.9410 C   0  0  0  0  0  3  0  0  0  0  0  0
  191.9160  174.7130  136.7010 C   0  0  2  0  0  3  0  0  0  0  0  0
  196.2930  175.7240  136.2540 O   0  0  0  0  0  0  0  0  0  0  0  0
  195.6060  174.6700  136.2020 C   0  0  0  0  0  0  0  0  0  0  0  0
  196.2610  173.4040  136.2230 N   0  0  0  0  0  1  0  0  0  0  0  0
  188.9450  178.6040  136.5040 C   0  0  0  0  0  2  0  0  0  0  0  0
  187.5710  178.0220  136.7750 C   0  0  0  0  0  2  0  0  0  0  0  0
  186.8080  177.9130  135.4680 C   0  0  0  0  0  2  0  0  0  0  0  0
  186.2880  176.4980  135.2610 C   0  0  0  0  0  2  0  0  0  0  0  0
  184.1970  175.5350  134.6550 O   0  0  0  0  0  0  0  0  0  0  0  0
  184.0570  177.3970  136.0570 N   0  0  0  0  0  2  0  0  0  0  0  0
  184.7940  176.4450  135.2900 C   0  0  0  0  0  0  0  0  0  0  0  0
  182.6070  177.3590  136.1390 C   0  0  0  0  0  2  0  0  0  0  0  0
  182.1320  178.3750  137.1660 C   0  0  0  0  0  2  0  0  0  0  0  0
  182.8240  178.2150  138.5200 C   0  0  2  0  0  3  0  0  0  0  0  0
  182.3570  177.0140  139.2860 C   0  0  0  0  0  0  0  0  0  0  0  0
  183.0650  175.8170  139.2420 O   0  0  0  0  0  0  0  0  0  0  0  0
  181.3130  177.0930  139.9830 O   0  0  0  0  0  1  0  0  0  0  0  0
  182.9050  179.5240  139.3250 C   0  0  2  0  0  3  0  0  0  0  0  0
  181.8280  180.5190  139.0040 C   0  0  0  0  0  0  0  0  0  0  0  0
  180.6490  180.3040  139.3870 O   0  0  0  0  0  1  0  0  0  0  0  0
  182.1250  181.6900  138.3160 O   0  0  0  0  0  0  0  0  0  0  0  0
  184.2000  180.0790  139.4250 O   0  0  0  0  0  0  0  0  0  0  0  0
  185.0180  179.2960  138.7470 O   0  0  0  0  0  1  0  0  0  0  0  0
  2  3  1  6  0  0  0
  2  9  1  0  0  0  0
  4  2  1  0  0  0  0
  4  6  1  1  0  0  0
  5  3  2  0  0  0  0
  6  1  1  0  0  0  0
  7  5  1  0  0  0  0
  7  8  1  0  0  0  0
  8 39  1  6  0  0  0
  8  4  1  0  0  0  0
  9  1  1  1  0  0  0
  9 13  1  0  0  0  0
 10 12  1  0  0  0  0
 11 12  1  0  0  0  0
 12 15  1  1  0  0  0
 13 14  1  1  0  0  0
 13 10  1  0  0  0  0
 14 11  2  0  0  0  0
 16 22  1  0  0  0  0
 16 19  1  0  0  0  0
 17 19  1  0  0  0  0
 18 23  1  6  0  0  0
 18 20  1  0  0  0  0
 18 16  1  0  0  0  0
 20 15  1  6  0  0  0
 20 17  1  0  0  0  0
 21 22  1  0  0  0  0
 25 23  1  6  0  0  0
 25 24  1  0  0  0  0
 26 30  1  6  0  0  0
 26 27  1  0  0  0  0
 26 25  1  0  0  0  0
 27 29  1  1  0  0  0
 27 28  1  0  0  0  0
 28 24  1  0  0  0  0
 32 35  1  0  0  0  0
 33 37  1  0  0  0  0
 33 31  2  0  0  0  0
 34 32  2  0  0  0  0
 34 33  1  0  0  0  0
 35 31  1  0  0  0  0
 35  5  1  1  0  0  0
 37 38  1  0  0  0  0
 37 36  2  0  0  0  0
 39 40  1  0  0  0  0
 41 40  1  0  0  0  0
 42 45  1  0  0  0  0
 42 41  1  0  0  0  0
 43 45  2  0  0  0  0
 44 46  1  0  0  0  0
 45 44  1  0  0  0  0
 46 47  1  0  0  0  0
 48 47  1  6  0  0  0
 48 49  1  0  0  0  0
 48 52  1  0  0  0  0
 49 51  1  0  0  0  0
 50 49  2  0  0  0  0
 52 53  1  6  0  0  0
 52 56  1  0  0  0  0
 53 54  1  0  0  0  0
 55 53  2  0  0  0  0
 57 56  1  0  0  0  0
M  END
>  <MODEL>
7

>  <REMARK>
 VINA RESULT:      -7.0      2.495      8.067
  Name = 
  20 active torsions:
  status: ('A' for Active; 'I' for Inactive)
    1  A    between atoms: C_2  and  C_10
    2  A    between atoms: C_2  and  C_29
    3  A    between atoms: C_2  and  C_51
    4  A    between atoms: N_3  and  C_31
    5  A    between atoms: N_4  and  C_36
    6  A    between atoms: O_7  and  C_51
    7  A    between atoms: C_8  and  C_51
    8  A    between atoms: C_13  and  C_52
    9  A    between atoms: C_13  and  C_55
   10  A    between atoms: C_14  and  C_38
   11  A    between atoms: C_16  and  C_38
   12  A    between atoms: C_21  and  C_41
   13  A    between atoms: C_24  and  C_39
   14  A    between atoms: C_24  and  C_53
   15  A    between atoms: C_29  and  C_31
   16  A    between atoms: C_33  and  C_40
   17  A    between atoms: C_33  and  C_57
   18  A    between atoms: C_35  and  C_47
   19  A    between atoms: C_39  and  C_52
   20  A    between atoms: C_48  and  C_54
                            x       y       z     vdW  Elec       q    Type
                         _______ _______ _______ _____ _____    ______ ____

>  <TORSDO>
F 20

$$$$
=
 OpenBabel11042412433D

 57 62  0  0  1  0  0  0  0  0999 V2000
  187.5190  176.2520  136.6280 N   0  0  0  0  0  2  0  0  0  0  0  0
  189.1830  174.6020  136.7100 C   0  0  1  0  0  3  0  0  0  0  0  0
  190.2740  173.9370  136.0070 N   0  0  0  0  0  0  0  0  0  0  0  0
  189.6670  175.8810  137.2590 C   0  0  1  0  0  3  0  0  0  0  0  0
  191.4450  173.8830  136.5870 C   0  0  0  0  0  0  0  0  0  0  0  0
  188.4530  176.5690  137.6440 N   0  0  0  0  0  2  0  0  0  0  0  0
  191.6810  174.6590  137.7890 N   0  0  0  0  0  2  0  0  0  0  0  0
  190.6360  175.5210  138.3710 C   0  0  1  0  0  3  0  0  0  0  0  0
  188.0420  175.0950  135.8790 C   0  0  1  0  0  3  0  0  0  0  0  0
  185.5930  174.5900  136.0770 C   0  0  0  0  0  2  0  0  0  0  0  0
  186.2130  172.9610  137.6520 N   0  0  0  0  0  0  0  0  0  0  0  0
  185.2270  173.9770  137.4250 C   0  0  2  0  0  3  0  0  0  0  0  0
  186.9670  174.0170  135.7370 C   0  0  2  0  0  3  0  0  0  0  0  0
  187.1450  172.9660  136.7780 C   0  0  0  0  0  3  0  0  0  0  0  0
  183.8420  173.3550  137.3730 C   0  0  0  0  0  2  0  0  0  0  0  0
  180.7820  174.2750  137.7960 N   0  0  0  0  0  0  0  0  0  0  0  0
  181.8910  173.3860  135.8420 C   0  0  0  0  0  2  0  0  0  0  0  0
  181.9690  175.0740  137.5030 C   0  0  2  0  0  3  0  0  0  0  0  0
  180.7170  173.2180  136.7860 C   0  0  0  0  0  2  0  0  0  0  0  0
  182.8750  174.2490  136.5930 C   0  0  1  0  0  3  0  0  0  0  0  0
  179.6830  176.0090  136.6120 O   0  0  0  0  0  1  0  0  0  0  0  0
  179.5880  175.1190  137.6870 C   0  0  0  0  0  2  0  0  0  0  0  0
  182.6250  175.5700  138.7970 C   0  0  0  0  0  2  0  0  0  0  0  0
  182.3910  177.8200  137.8480 O   0  0  0  0  0  0  0  0  0  0  0  0
  183.1350  177.0160  138.7190 C   0  0  1  0  0  3  0  0  0  0  0  0
  183.3180  177.7510  140.0370 C   0  0  1  0  0  3  0  0  0  0  0  0
  183.2770  179.1850  139.5990 C   0  0  2  0  0  3  0  0  0  0  0  0
  182.7560  179.1400  138.1720 C   0  0  0  0  0  2  0  0  0  0  0  0
  184.5690  179.7120  139.6030 O   0  0  0  0  0  1  0  0  0  0  0  0
  182.1760  177.5200  141.0160 C   0  0  0  0  0  1  0  0  0  0  0  0
  193.4730  172.5090  136.8980 C   0  0  0  0  0  3  0  0  0  0  0  0
  193.5250  174.1490  135.2510 C   0  0  0  0  0  3  0  0  0  0  0  0
  194.6870  173.0240  136.8090 C   0  0  0  0  0  0  0  0  0  0  0  0
  194.7330  174.0510  135.7830 C   0  0  0  0  0  3  0  0  0  0  0  0
  192.5830  173.1800  135.9000 C   0  0  2  0  0  3  0  0  0  0  0  0
  196.0770  173.2360  138.7110 O   0  0  0  0  0  0  0  0  0  0  0  0
  195.8250  172.6180  137.6430 C   0  0  0  0  0  0  0  0  0  0  0  0
  196.6470  171.5180  137.2580 N   0  0  0  0  0  1  0  0  0  0  0  0
  191.2600  176.7770  138.9530 C   0  0  0  0  0  2  0  0  0  0  0  0
  190.7090  177.0410  140.3410 C   0  0  0  0  0  2  0  0  0  0  0  0
  191.7530  177.7700  141.1640 C   0  0  0  0  0  2  0  0  0  0  0  0
  192.1160  176.9720  142.4080 C   0  0  0  0  0  2  0  0  0  0  0  0
  191.4770  178.7290  143.8810 O   0  0  0  0  0  0  0  0  0  0  0  0
  190.6920  176.6100  144.4720 N   0  0  0  0  0  2  0  0  0  0  0  0
  191.4270  177.4960  143.6260 C   0  0  0  0  0  0  0  0  0  0  0  0
  189.9800  177.0860  145.6460 C   0  0  0  0  0  2  0  0  0  0  0  0
  188.7040  177.7890  145.2110 C   0  0  0  0  0  2  0  0  0  0  0  0
  187.8390  178.2300  146.3930 C   0  0  2  0  0  3  0  0  0  0  0  0
  188.2610  177.6230  147.6960 C   0  0  0  0  0  0  0  0  0  0  0  0
  189.1550  178.2800  148.5360 O   0  0  0  0  0  1  0  0  0  0  0  0
  187.7960  176.5060  148.0380 O   0  0  0  0  0  0  0  0  0  0  0  0
  186.3290  178.1840  146.0980 C   0  0  2  0  0  3  0  0  0  0  0  0
  185.9840  177.9270  144.6600 C   0  0  0  0  0  0  0  0  0  0  0  0
  185.5140  178.8600  143.9580 O   0  0  0  0  0  0  0  0  0  0  0  0
  186.2080  176.6820  144.0870 O   0  0  0  0  0  1  0  0  0  0  0  0
  185.5750  179.2130  146.7030 O   0  0  0  0  0  0  0  0  0  0  0  0
  184.5530  178.6450  147.3160 O   0  0  0  0  0  1  0  0  0  0  0  0
  1  6  1  0  0  0  0
  2  3  1  6  0  0  0
  2  4  1  0  0  0  0
  3  5  2  0  0  0  0
  4  6  1  1  0  0  0
  4  8  1  0  0  0  0
  5  7  1  0  0  0  0
  7  8  1  0  0  0  0
  8 39  1  6  0  0  0
  9  1  1  1  0  0  0
  9  2  1  0  0  0  0
 10 12  1  0  0  0  0
 12 15  1  6  0  0  0
 12 11  1  0  0  0  0
 13  9  1  0  0  0  0
 13 10  1  1  0  0  0
 13 14  1  0  0  0  0
 14 11  2  0  0  0  0
 17 20  1  0  0  0  0
 17 19  1  0  0  0  0
 18 16  1  0  0  0  0
 18 23  1  1  0  0  0
 19 16  1  0  0  0  0
 20 15  1  1  0  0  0
 20 18  1  0  0  0  0
 21 22  1  0  0  0  0
 22 16  1  0  0  0  0
 24 28  1  0  0  0  0
 24 25  1  0  0  0  0
 25 23  1  1  0  0  0
 25 26  1  0  0  0  0
 26 30  1  1  0  0  0
 27 29  1  6  0  0  0
 27 26  1  0  0  0  0
 28 27  1  0  0  0  0
 32 34  2  0  0  0  0
 32 35  1  0  0  0  0
 33 31  2  0  0  0  0
 33 37  1  0  0  0  0
 34 33  1  0  0  0  0
 35  5  1  1  0  0  0
 35 31  1  0  0  0  0
 37 36  2  0  0  0  0
 38 37  1  0  0  0  0
 39 40  1  0  0  0  0
 40 41  1  0  0  0  0
 41 42  1  0  0  0  0
 42 45  1  0  0  0  0
 44 46  1  0  0  0  0
 45 43  2  0  0  0  0
 45 44  1  0  0  0  0
 47 46  1  0  0  0  0
 48 47  1  6  0  0  0
 48 49  1  0  0  0  0
 49 51  2  0  0  0  0
 49 50  1  0  0  0  0
 52 53  1  6  0  0  0
 52 48  1  0  0  0  0
 52 56  1  0  0  0  0
 54 53  2  0  0  0  0
 55 53  1  0  0  0  0
 56 57  1  0  0  0  0
M  END
>  <MODEL>
8

>  <REMARK>
 VINA RESULT:      -6.9      2.034      3.437
  Name = 
  20 active torsions:
  status: ('A' for Active; 'I' for Inactive)
    1  A    between atoms: C_2  and  C_10
    2  A    between atoms: C_2  and  C_29
    3  A    between atoms: C_2  and  C_51
    4  A    between atoms: N_3  and  C_31
    5  A    between atoms: N_4  and  C_36
    6  A    between atoms: O_7  and  C_51
    7  A    between atoms: C_8  and  C_51
    8  A    between atoms: C_13  and  C_52
    9  A    between atoms: C_13  and  C_55
   10  A    between atoms: C_14  and  C_38
   11  A    between atoms: C_16  and  C_38
   12  A    between atoms: C_21  and  C_41
   13  A    between atoms: C_24  and  C_39
   14  A    between atoms: C_24  and  C_53
   15  A    between atoms: C_29  and  C_31
   16  A    between atoms: C_33  and  C_40
   17  A    between atoms: C_33  and  C_57
   18  A    between atoms: C_35  and  C_47
   19  A    between atoms: C_39  and  C_52
   20  A    between atoms: C_48  and  C_54
                            x       y       z     vdW  Elec       q    Type
                         _______ _______ _______ _____ _____    ______ ____

>  <TORSDO>
F 20

$$$$
=
 OpenBabel11042412433D

 57 62  0  0  1  0  0  0  0  0999 V2000
  187.7730  178.8340  137.3210 N   0  0  0  0  0  2  0  0  0  0  0  0
  188.7600  176.7330  136.9930 C   0  0  1  0  0  3  0  0  0  0  0  0
  189.6050  175.9040  136.1420 N   0  0  0  0  0  0  0  0  0  0  0  0
  189.6120  177.6030  137.8230 C   0  0  1  0  0  3  0  0  0  0  0  0
  190.6410  175.3140  136.6790 C   0  0  0  0  0  0  0  0  0  0  0  0
  188.6840  178.5670  138.3730 N   0  0  0  0  0  2  0  0  0  0  0  0
  191.0410  175.6670  138.0280 N   0  0  0  0  0  2  0  0  0  0  0  0
  190.3160  176.6860  138.8090 C   0  0  1  0  0  3  0  0  0  0  0  0
  187.9210  177.7670  136.3140 C   0  0  1  0  0  3  0  0  0  0  0  0
  185.7640  176.8330  137.1890 C   0  0  0  0  0  2  0  0  0  0  0  0
  186.2810  174.8990  135.9600 N   0  0  0  0  0  0  0  0  0  0  0  0
  185.7580  175.3090  137.2310 C   0  0  2  0  0  3  0  0  0  0  0  0
  186.5550  177.1950  135.9340 C   0  0  2  0  0  3  0  0  0  0  0  0
  186.7130  175.8770  135.2600 C   0  0  0  0  0  3  0  0  0  0  0  0
  184.3440  174.7820  137.4060 C   0  0  0  0  0  2  0  0  0  0  0  0
  181.1410  174.7470  137.0480 N   0  0  0  0  0  0  0  0  0  0  0  0
  182.8960  174.9670  135.4010 C   0  0  0  0  0  2  0  0  0  0  0  0
  182.0300  175.8430  137.4250 C   0  0  2  0  0  3  0  0  0  0  0  0
  181.6610  174.1830  135.8010 C   0  0  0  0  0  2  0  0  0  0  0  0
  183.3400  175.6660  136.6620 C   0  0  1  0  0  3  0  0  0  0  0  0
  178.9350  174.9930  137.8810 O   0  0  0  0  0  1  0  0  0  0  0  0
  179.7930  175.2740  136.8120 C   0  0  0  0  0  2  0  0  0  0  0  0
  182.1720  175.9280  138.9490 C   0  0  0  0  0  2  0  0  0  0  0  0
  180.5910  176.7070  140.6560 O   0  0  0  0  0  0  0  0  0  0  0  0
  181.3990  177.0950  139.5800 C   0  0  1  0  0  3  0  0  0  0  0  0
  182.2080  178.3160  139.9840 C   0  0  1  0  0  3  0  0  0  0  0  0
  181.3090  178.9610  140.9970 C   0  0  2  0  0  3  0  0  0  0  0  0
  180.2610  177.9070  141.3120 C   0  0  0  0  0  2  0  0  0  0  0  0
  180.6880  180.0750  140.4300 O   0  0  0  0  0  1  0  0  0  0  0  0
  183.5220  177.9670  140.6680 C   0  0  0  0  0  1  0  0  0  0  0  0
  192.7520  174.0360  136.5780 C   0  0  0  0  0  3  0  0  0  0  0  0
  192.0860  175.1710  134.6620 C   0  0  0  0  0  3  0  0  0  0  0  0
  193.8110  174.4850  135.9270 C   0  0  0  0  0  0  0  0  0  0  0  0
  193.4090  175.1960  134.7260 C   0  0  0  0  0  3  0  0  0  0  0  0
  191.5160  174.4300  135.8330 C   0  0  2  0  0  3  0  0  0  0  0  0
  195.4680  173.4430  137.2530 O   0  0  0  0  0  0  0  0  0  0  0  0
  195.1990  174.2960  136.3670 C   0  0  0  0  0  0  0  0  0  0  0  0
  196.2510  175.0660  135.7910 N   0  0  0  0  0  1  0  0  0  0  0  0
  191.2890  177.4790  139.6620 C   0  0  0  0  0  2  0  0  0  0  0  0
  190.7750  177.5770  141.0860 C   0  0  0  0  0  2  0  0  0  0  0  0
  191.8210  177.0230  142.0350 C   0  0  0  0  0  2  0  0  0  0  0  0
  191.2000  176.6700  143.3790 C   0  0  0  0  0  2  0  0  0  0  0  0
  189.2270  175.4170  142.9260 O   0  0  0  0  0  0  0  0  0  0  0  0
  188.8620  177.6150  143.6270 N   0  0  0  0  0  2  0  0  0  0  0  0
  189.7150  176.5220  143.2830 C   0  0  0  0  0  0  0  0  0  0  0  0
  187.4140  177.5010  143.5810 C   0  0  0  0  0  2  0  0  0  0  0  0
  186.9120  176.9100  144.8890 C   0  0  0  0  0  2  0  0  0  0  0  0
  186.9630  177.9080  146.0470 C   0  0  2  0  0  3  0  0  0  0  0  0
  187.9260  177.5150  147.1270 C   0  0  0  0  0  0  0  0  0  0  0  0
  187.8180  178.0430  148.4100 O   0  0  0  0  0  1  0  0  0  0  0  0
  188.8420  176.6920  146.8690 O   0  0  0  0  0  0  0  0  0  0  0  0
  185.5730  178.3570  146.5310 C   0  0  2  0  0  3  0  0  0  0  0  0
  184.6650  178.8480  145.4410 C   0  0  0  0  0  0  0  0  0  0  0  0
  183.4250  178.6620  145.5360 O   0  0  0  0  0  1  0  0  0  0  0  0
  185.1760  179.5330  144.3450 O   0  0  0  0  0  0  0  0  0  0  0  0
  185.5810  179.1630  147.6900 O   0  0  0  0  0  0  0  0  0  0  0  0
  186.0250  180.3560  147.3380 O   0  0  0  0  0  1  0  0  0  0  0  0
  1  6  1  0  0  0  0
  2  3  1  6  0  0  0
  2  4  1  0  0  0  0
  3  5  2  0  0  0  0
  4  6  1  1  0  0  0
  4  8  1  0  0  0  0
  5  7  1  0  0  0  0
  7  8  1  0  0  0  0
  8 39  1  6  0  0  0
  9  2  1  0  0  0  0
  9  1  1  1  0  0  0
 10 12  1  0  0  0  0
 11 12  1  0  0  0  0
 12 15  1  6  0  0  0
 13 14  1  6  0  0  0
 13  9  1  0  0  0  0
 13 10  1  0  0  0  0
 14 11  2  0  0  0  0
 16 18  1  0  0  0  0
 17 19  1  0  0  0  0
 17 20  1  0  0  0  0
 18 23  1  1  0  0  0
 19 16  1  0  0  0  0
 20 15  1  1  0  0  0
 20 18  1  0  0  0  0
 22 16  1  0  0  0  0
 22 21  1  0  0  0  0
 24 28  1  0  0  0  0
 25 23  1  1  0  0  0
 25 26  1  0  0  0  0
 25 24  1  0  0  0  0
 26 30  1  1  0  0  0
 26 27  1  0  0  0  0
 27 29  1  6  0  0  0
 27 28  1  0  0  0  0
 32 34  2  0  0  0  0
 32 35  1  0  0  0  0
 33 37  1  0  0  0  0
 33 31  2  0  0  0  0
 34 33  1  0  0  0  0
 35 31  1  0  0  0  0
 35  5  1  1  0  0  0
 37 36  2  0  0  0  0
 38 37  1  0  0  0  0
 39 40  1  0  0  0  0
 40 41  1  0  0  0  0
 41 42  1  0  0  0  0
 43 45  2  0  0  0  0
 45 42  1  0  0  0  0
 45 44  1  0  0  0  0
 46 44  1  0  0  0  0
 46 47  1  0  0  0  0
 48 47  1  6  0  0  0
 48 52  1  0  0  0  0
 48 49  1  0  0  0  0
 49 50  1  0  0  0  0
 51 49  2  0  0  0  0
 52 53  1  6  0  0  0
 52 56  1  0  0  0  0
 53 54  1  0  0  0  0
 55 53  2  0  0  0  0
 57 56  1  0  0  0  0
M  END
>  <MODEL>
9

>  <REMARK>
 VINA RESULT:      -6.9      1.901      3.175
  Name = 
  20 active torsions:
  status: ('A' for Active; 'I' for Inactive)
    1  A    between atoms: C_2  and  C_10
    2  A    between atoms: C_2  and  C_29
    3  A    between atoms: C_2  and  C_51
    4  A    between atoms: N_3  and  C_31
    5  A    between atoms: N_4  and  C_36
    6  A    between atoms: O_7  and  C_51
    7  A    between atoms: C_8  and  C_51
    8  A    between atoms: C_13  and  C_52
    9  A    between atoms: C_13  and  C_55
   10  A    between atoms: C_14  and  C_38
   11  A    between atoms: C_16  and  C_38
   12  A    between atoms: C_21  and  C_41
   13  A    between atoms: C_24  and  C_39
   14  A    between atoms: C_24  and  C_53
   15  A    between atoms: C_29  and  C_31
   16  A    between atoms: C_33  and  C_40
   17  A    between atoms: C_33  and  C_57
   18  A    between atoms: C_35  and  C_47
   19  A    between atoms: C_39  and  C_52
   20  A    between atoms: C_48  and  C_54
                            x       y       z     vdW  Elec       q    Type
                         _______ _______ _______ _____ _____    ______ ____

>  <TORSDO>
F 20

$$$$
