=
 OpenBabel11042410563D

 26 29  0  0  1  0  0  0  0  0999 V2000
  185.5590  178.0050  144.1770 N   0  0  0  0  0  0  0  0  0  0  0  0
  185.8960  178.5670  146.5560 C   0  0  0  0  0  3  0  0  0  0  0  0
  183.4720  178.9740  144.0400 C   0  0  0  0  0  0  0  0  0  0  0  0
  186.8740  177.4770  143.7990 C   0  0  0  0  0  2  0  0  0  0  0  0
  189.5460  177.2010  141.6370 C   0  0  0  0  0  3  0  0  0  0  0  0
  183.8920  179.1840  145.3830 N   0  0  0  0  0  2  0  0  0  0  0  0
  182.3520  179.3580  143.6120 O   0  0  0  0  0  0  0  0  0  0  0  0
  187.2040  177.9740  142.4340 C   0  0  0  0  0  0  0  0  0  0  0  0
  188.3080  177.8020  141.6360 C   0  0  0  0  0  0  0  0  0  0  0  0
  191.0680  177.1790  139.8360 O   0  0  0  0  0  0  0  0  0  0  0  0
  189.0390  178.2390  139.6180 N   0  0  0  0  0  2  0  0  0  0  0  0
  186.8870  178.9020  140.4290 O   0  0  0  0  0  0  0  0  0  0  0  0
  184.4740  178.2370  143.2150 C   0  0  1  0  0  3  0  0  0  0  0  0
  189.9590  177.5240  140.3220 C   0  0  0  0  0  0  0  0  0  0  0  0
  188.0680  178.3730  140.4900 N   0  0  0  0  0  0  0  0  0  0  0  0
  186.3190  178.6760  141.6060 C   0  0  0  0  0  0  0  0  0  0  0  0
  185.1750  178.5790  145.4320 C   0  0  0  0  0  0  0  0  0  0  0  0
  184.9580  179.1140  142.0440 C   0  0  0  0  0  2  0  0  0  0  0  0
  187.2390  177.9360  146.6840 C   0  0  0  0  0  2  0  0  0  0  0  0
  187.7800  178.1750  148.0790 C   0  0  0  0  0  2  0  0  0  0  0  0
  189.9930  178.4170  148.9170 O   0  0  0  0  0  0  0  0  0  0  0  0
  189.2200  177.8080  148.1310 C   0  0  0  0  0  0  0  0  0  0  0  0
  189.7190  176.7880  147.2630 N   0  0  0  0  0  2  0  0  0  0  0  0
  191.1130  176.3720  147.2660 C   0  0  0  0  0  2  0  0  0  0  0  0
  191.8380  177.1470  146.3600 O   0  0  0  0  0  0  0  0  0  0  0  0
  191.3670  176.7500  145.1090 C   0  0  0  0  0  1  0  0  0  0  0  0
  1 17  1  0  0  0  0
  2 19  1  0  0  0  0
  3  6  1  0  0  0  0
  4  1  1  0  0  0  0
  6 17  1  0  0  0  0
  7  3  2  0  0  0  0
  8  4  1  0  0  0  0
  9  5  2  0  0  0  0
  9  8  1  0  0  0  0
 10 14  2  0  0  0  0
 11 14  1  0  0  0  0
 11 15  1  0  0  0  0
 12 15  1  0  0  0  0
 12 16  1  0  0  0  0
 13 18  1  6  0  0  0
 13  3  1  0  0  0  0
 13  1  1  0  0  0  0
 14  5  1  0  0  0  0
 15  9  1  0  0  0  0
 16 18  1  0  0  0  0
 16  8  2  0  0  0  0
 17  2  2  0  0  0  0
 19 20  1  0  0  0  0
 20 22  1  0  0  0  0
 22 21  2  0  0  0  0
 23 24  1  0  0  0  0
 23 22  1  0  0  0  0
 25 24  1  0  0  0  0
 26 25  1  0  0  0  0
M  END
>  <MODEL>
1

>  <REMARK>
 VINA RESULT:      -9.2      0.000      0.000
  Name = 
  5 active torsions:
  status: ('A' for Active; 'I' for Inactive)
    1  A    between atoms: C_2  and  C_20
    2  A    between atoms: O_4  and  C_9
    3  A    between atoms: C_7  and  C_10
    4  A    between atoms: C_7  and  C_20
    5  A    between atoms: C_9  and  N_21
                            x       y       z     vdW  Elec       q    Type
                         _______ _______ _______ _____ _____    ______ ____

>  <TORSDO>
F 5

$$$$
=
 OpenBabel11042410563D

 26 29  0  0  1  0  0  0  0  0999 V2000
  189.7150  176.9280  145.2600 N   0  0  0  0  0  0  0  0  0  0  0  0
  191.4250  177.5410  143.5910 C   0  0  0  0  0  3  0  0  0  0  0  0
  191.2090  176.7220  147.0040 C   0  0  0  0  0  0  0  0  0  0  0  0
  188.4710  177.1390  144.5140 C   0  0  0  0  0  2  0  0  0  0  0  0
  185.2280  178.2800  144.2450 C   0  0  0  0  0  3  0  0  0  0  0  0
  191.9980  177.0900  145.8800 N   0  0  0  0  0  2  0  0  0  0  0  0
  191.7070  176.5000  148.1390 O   0  0  0  0  0  0  0  0  0  0  0  0
  187.4730  177.7590  145.4310 C   0  0  0  0  0  0  0  0  0  0  0  0
  186.1810  178.1780  145.2330 C   0  0  0  0  0  0  0  0  0  0  0  0
  183.0210  179.0570  144.5360 O   0  0  0  0  0  0  0  0  0  0  0  0
  184.4540  178.9580  146.3310 N   0  0  0  0  0  2  0  0  0  0  0  0
  186.5560  178.4380  147.3490 O   0  0  0  0  0  0  0  0  0  0  0  0
  189.7540  176.6020  146.6920 C   0  0  1  0  0  3  0  0  0  0  0  0
  184.1540  178.7900  145.0130 C   0  0  0  0  0  0  0  0  0  0  0  0
  185.7060  178.5710  146.3800 N   0  0  0  0  0  0  0  0  0  0  0  0
  187.6580  177.9360  146.8070 C   0  0  0  0  0  0  0  0  0  0  0  0
  191.0520  177.2100  144.8290 C   0  0  0  0  0  0  0  0  0  0  0  0
  188.9410  177.6240  147.5100 C   0  0  0  0  0  2  0  0  0  0  0  0
  190.4900  177.6670  142.4380 C   0  0  0  0  0  2  0  0  0  0  0  0
  191.2430  177.4220  141.1460 C   0  0  0  0  0  2  0  0  0  0  0  0
  190.4610  175.9740  139.4290 O   0  0  0  0  0  0  0  0  0  0  0  0
  190.2880  177.0440  140.0710 C   0  0  0  0  0  0  0  0  0  0  0  0
  189.2020  177.9170  139.7530 N   0  0  0  0  0  2  0  0  0  0  0  0
  188.2260  177.6070  138.7190 C   0  0  0  0  0  2  0  0  0  0  0  0
  187.8850  178.7700  138.0290 O   0  0  0  0  0  0  0  0  0  0  0  0
  189.0000  179.0450  137.2370 C   0  0  0  0  0  1  0  0  0  0  0  0
  1 13  1  0  0  0  0
  2 17  2  0  0  0  0
  3  7  2  0  0  0  0
  4  1  1  0  0  0  0
  4  8  1  0  0  0  0
  5 14  1  0  0  0  0
  5  9  2  0  0  0  0
  6  3  1  0  0  0  0
  8 16  2  0  0  0  0
  9  8  1  0  0  0  0
  9 15  1  0  0  0  0
 10 14  2  0  0  0  0
 11 15  1  0  0  0  0
 13  3  1  0  0  0  0
 13 18  1  1  0  0  0
 14 11  1  0  0  0  0
 15 12  1  0  0  0  0
 16 12  1  0  0  0  0
 16 18  1  0  0  0  0
 17  1  1  0  0  0  0
 17  6  1  0  0  0  0
 19  2  1  0  0  0  0
 20 19  1  0  0  0  0
 21 22  2  0  0  0  0
 22 20  1  0  0  0  0
 23 22  1  0  0  0  0
 24 23  1  0  0  0  0
 25 24  1  0  0  0  0
 26 25  1  0  0  0  0
M  END
>  <MODEL>
2

>  <REMARK>
 VINA RESULT:      -9.2      1.791      7.311
  Name = 
  5 active torsions:
  status: ('A' for Active; 'I' for Inactive)
    1  A    between atoms: C_2  and  C_20
    2  A    between atoms: O_4  and  C_9
    3  A    between atoms: C_7  and  C_10
    4  A    between atoms: C_7  and  C_20
    5  A    between atoms: C_9  and  N_21
                            x       y       z     vdW  Elec       q    Type
                         _______ _______ _______ _____ _____    ______ ____

>  <TORSDO>
F 5

$$$$
=
 OpenBabel11042410563D

 26 29  0  0  1  0  0  0  0  0999 V2000
  187.6180  177.5560  145.4870 N   0  0  0  0  0  0  0  0  0  0  0  0
  189.8970  178.0200  144.6640 C   0  0  0  0  0  3  0  0  0  0  0  0
  188.1600  177.7970  147.7140 C   0  0  0  0  0  0  0  0  0  0  0  0
  186.8450  177.5180  144.2400 C   0  0  0  0  0  2  0  0  0  0  0  0
  184.0730  178.2930  142.3410 C   0  0  0  0  0  3  0  0  0  0  0  0
  189.3720  178.0330  147.0080 N   0  0  0  0  0  2  0  0  0  0  0  0
  188.0900  177.8250  148.9710 O   0  0  0  0  0  0  0  0  0  0  0  0
  185.5390  178.1960  144.4760 C   0  0  0  0  0  0  0  0  0  0  0  0
  184.4760  178.4540  143.6480 C   0  0  0  0  0  0  0  0  0  0  0  0
  181.9720  178.9030  141.4630 O   0  0  0  0  0  0  0  0  0  0  0  0
  182.4370  179.2540  143.6870 N   0  0  0  0  0  2  0  0  0  0  0  0
  183.8520  179.1150  145.6120 O   0  0  0  0  0  0  0  0  0  0  0  0
  187.0040  177.4920  146.8190 C   0  0  1  0  0  3  0  0  0  0  0  0
  182.7670  178.8290  142.4350 C   0  0  0  0  0  0  0  0  0  0  0  0
  183.5320  178.9980  144.3620 N   0  0  0  0  0  0  0  0  0  0  0  0
  185.0810  178.6290  145.7270 C   0  0  0  0  0  0  0  0  0  0  0  0
  189.0040  177.8790  145.6470 C   0  0  0  0  0  0  0  0  0  0  0  0
  185.9070  178.5630  146.9710 C   0  0  0  0  0  2  0  0  0  0  0  0
  189.5850  177.8550  143.2170 C   0  0  0  0  0  2  0  0  0  0  0  0
  190.7620  177.2100  142.5140 C   0  0  0  0  0  2  0  0  0  0  0  0
  191.6510  177.4100  140.3170 O   0  0  0  0  0  0  0  0  0  0  0  0
  190.6220  177.3720  141.0430 C   0  0  0  0  0  0  0  0  0  0  0  0
  189.3200  177.5160  140.4710 N   0  0  0  0  0  2  0  0  0  0  0  0
  189.1080  177.6690  139.0390 C   0  0  0  0  0  2  0  0  0  0  0  0
  189.0160  179.0240  138.7190 O   0  0  0  0  0  0  0  0  0  0  0  0
  189.0140  179.0540  137.3250 C   0  0  0  0  0  1  0  0  0  0  0  0
  1 17  1  0  0  0  0
  1 13  1  0  0  0  0
  2 17  2  0  0  0  0
  3  7  2  0  0  0  0
  4  8  1  0  0  0  0
  4  1  1  0  0  0  0
  5 14  1  0  0  0  0
  5  9  2  0  0  0  0
  6  3  1  0  0  0  0
  8 16  2  0  0  0  0
  9 15  1  0  0  0  0
  9  8  1  0  0  0  0
 10 14  2  0  0  0  0
 11 15  1  0  0  0  0
 12 16  1  0  0  0  0
 13 18  1  6  0  0  0
 13  3  1  0  0  0  0
 14 11  1  0  0  0  0
 15 12  1  0  0  0  0
 16 18  1  0  0  0  0
 17  6  1  0  0  0  0
 19  2  1  0  0  0  0
 20 19  1  0  0  0  0
 21 22  2  0  0  0  0
 22 20  1  0  0  0  0
 23 22  1  0  0  0  0
 24 23  1  0  0  0  0
 25 24  1  0  0  0  0
 26 25  1  0  0  0  0
M  END
>  <MODEL>
3

>  <REMARK>
 VINA RESULT:      -9.1      1.808      6.286
  Name = 
  5 active torsions:
  status: ('A' for Active; 'I' for Inactive)
    1  A    between atoms: C_2  and  C_20
    2  A    between atoms: O_4  and  C_9
    3  A    between atoms: C_7  and  C_10
    4  A    between atoms: C_7  and  C_20
    5  A    between atoms: C_9  and  N_21
                            x       y       z     vdW  Elec       q    Type
                         _______ _______ _______ _____ _____    ______ ____

>  <TORSDO>
F 5

$$$$
=
 OpenBabel11042410563D

 26 29  0  0  1  0  0  0  0  0999 V2000
  190.1130  177.5330  145.7510 N   0  0  0  0  0  0  0  0  0  0  0  0
  188.5520  177.4670  147.6610 C   0  0  0  0  0  3  0  0  0  0  0  0
  191.6900  176.1740  146.7400 C   0  0  0  0  0  0  0  0  0  0  0  0
  189.3190  178.2280  144.7320 C   0  0  0  0  0  2  0  0  0  0  0  0
  188.1710  178.6290  141.5050 C   0  0  0  0  0  3  0  0  0  0  0  0
  190.6430  176.2850  147.6960 N   0  0  0  0  0  2  0  0  0  0  0  0
  192.7410  175.5150  146.9580 O   0  0  0  0  0  0  0  0  0  0  0  0
  189.5670  177.5730  143.4170 C   0  0  0  0  0  0  0  0  0  0  0  0
  189.0630  177.8120  142.1630 C   0  0  0  0  0  0  0  0  0  0  0  0
  187.7550  178.6270  139.1850 O   0  0  0  0  0  0  0  0  0  0  0  0
  189.3010  177.1790  140.0800 N   0  0  0  0  0  2  0  0  0  0  0  0
  190.5570  176.2680  141.9010 O   0  0  0  0  0  0  0  0  0  0  0  0
  191.4260  176.9340  145.4820 C   0  0  1  0  0  3  0  0  0  0  0  0
  188.3690  178.1680  140.1820 C   0  0  0  0  0  0  0  0  0  0  0  0
  189.6680  177.0150  141.3280 N   0  0  0  0  0  0  0  0  0  0  0  0
  190.5310  176.5820  143.1900 C   0  0  0  0  0  0  0  0  0  0  0  0
  189.6930  177.1230  147.0570 C   0  0  0  0  0  0  0  0  0  0  0  0
  191.3570  175.9760  144.2780 C   0  0  0  0  0  2  0  0  0  0  0  0
  187.5190  178.3560  147.0590 C   0  0  0  0  0  2  0  0  0  0  0  0
  186.4280  177.5120  146.4320 C   0  0  0  0  0  2  0  0  0  0  0  0
  184.5570  178.9800  146.4290 O   0  0  0  0  0  0  0  0  0  0  0  0
  185.4400  178.3900  145.7510 C   0  0  0  0  0  0  0  0  0  0  0  0
  185.4830  178.5300  144.3300 N   0  0  0  0  0  2  0  0  0  0  0  0
  184.5530  179.3790  143.5990 C   0  0  0  0  0  2  0  0  0  0  0  0
  183.5710  178.5920  142.9960 O   0  0  0  0  0  0  0  0  0  0  0  0
  182.3800  179.0030  143.5930 C   0  0  0  0  0  1  0  0  0  0  0  0
  1 17  1  0  0  0  0
  3  7  2  0  0  0  0
  3  6  1  0  0  0  0
  4  1  1  0  0  0  0
  5  9  2  0  0  0  0
  8  4  1  0  0  0  0
  9  8  1  0  0  0  0
 10 14  2  0  0  0  0
 11 14  1  0  0  0  0
 11 15  1  0  0  0  0
 12 16  1  0  0  0  0
 13 18  1  6  0  0  0
 13  1  1  0  0  0  0
 13  3  1  0  0  0  0
 14  5  1  0  0  0  0
 15 12  1  0  0  0  0
 15  9  1  0  0  0  0
 16  8  2  0  0  0  0
 16 18  1  0  0  0  0
 17  2  2  0  0  0  0
 17  6  1  0  0  0  0
 19  2  1  0  0  0  0
 20 19  1  0  0  0  0
 22 21  2  0  0  0  0
 22 20  1  0  0  0  0
 23 22  1  0  0  0  0
 24 23  1  0  0  0  0
 25 26  1  0  0  0  0
 25 24  1  0  0  0  0
M  END
>  <MODEL>
4

>  <REMARK>
 VINA RESULT:      -8.9      1.649      5.754
  Name = 
  5 active torsions:
  status: ('A' for Active; 'I' for Inactive)
    1  A    between atoms: C_2  and  C_20
    2  A    between atoms: O_4  and  C_9
    3  A    between atoms: C_7  and  C_10
    4  A    between atoms: C_7  and  C_20
    5  A    between atoms: C_9  and  N_21
                            x       y       z     vdW  Elec       q    Type
                         _______ _______ _______ _____ _____    ______ ____

>  <TORSDO>
F 5

$$$$
=
 OpenBabel11042410563D

 26 29  0  0  1  0  0  0  0  0999 V2000
  189.3200  176.9860  143.8700 N   0  0  0  0  0  0  0  0  0  0  0  0
  190.5760  177.5140  141.8130 C   0  0  0  0  0  3  0  0  0  0  0  0
  191.1850  176.9000  145.2210 C   0  0  0  0  0  0  0  0  0  0  0  0
  187.9300  177.1400  143.4260 C   0  0  0  0  0  2  0  0  0  0  0  0
  184.6890  178.2310  143.8650 C   0  0  0  0  0  3  0  0  0  0  0  0
  191.6800  177.2080  143.9240 N   0  0  0  0  0  2  0  0  0  0  0  0
  191.9400  176.7520  146.2180 O   0  0  0  0  0  0  0  0  0  0  0  0
  187.1610  177.8040  144.5160 C   0  0  0  0  0  0  0  0  0  0  0  0
  185.8490  178.1980  144.6040 C   0  0  0  0  0  0  0  0  0  0  0  0
  182.5940  179.0030  144.6220 O   0  0  0  0  0  0  0  0  0  0  0  0
  184.4100  179.0270  146.0330 N   0  0  0  0  0  2  0  0  0  0  0  0
  186.7040  178.5890  146.5540 O   0  0  0  0  0  0  0  0  0  0  0  0
  189.7010  176.7480  145.2680 C   0  0  1  0  0  3  0  0  0  0  0  0
  183.8130  178.7760  144.8340 C   0  0  0  0  0  0  0  0  0  0  0  0
  185.6480  178.6560  145.8070 N   0  0  0  0  0  0  0  0  0  0  0  0
  187.6600  178.0670  145.7980 C   0  0  0  0  0  0  0  0  0  0  0  0
  190.5110  177.2540  143.1210 C   0  0  0  0  0  0  0  0  0  0  0  0
  189.0790  177.8090  146.1950 C   0  0  0  0  0  2  0  0  0  0  0  0
  189.3940  177.5610  140.9070 C   0  0  0  0  0  2  0  0  0  0  0  0
  189.8610  177.6020  139.4660 C   0  0  0  0  0  2  0  0  0  0  0  0
  189.0550  179.3800  138.1070 O   0  0  0  0  0  0  0  0  0  0  0  0
  188.8260  178.2520  138.6200 C   0  0  0  0  0  0  0  0  0  0  0  0
  187.5670  177.6040  138.4230 N   0  0  0  0  0  2  0  0  0  0  0  0
  186.5120  178.1780  137.6020 C   0  0  0  0  0  2  0  0  0  0  0  0
  185.6900  178.9870  138.3870 O   0  0  0  0  0  0  0  0  0  0  0  0
  184.5120  178.2540  138.5280 C   0  0  0  0  0  1  0  0  0  0  0  0
  1 13  1  0  0  0  0
  2 17  2  0  0  0  0
  3 13  1  0  0  0  0
  3  7  2  0  0  0  0
  4  1  1  0  0  0  0
  4  8  1  0  0  0  0
  5  9  2  0  0  0  0
  5 14  1  0  0  0  0
  6  3  1  0  0  0  0
  8  9  1  0  0  0  0
  8 16  2  0  0  0  0
  9 15  1  0  0  0  0
 10 14  2  0  0  0  0
 13 18  1  1  0  0  0
 14 11  1  0  0  0  0
 15 11  1  0  0  0  0
 15 12  1  0  0  0  0
 16 18  1  0  0  0  0
 16 12  1  0  0  0  0
 17  1  1  0  0  0  0
 17  6  1  0  0  0  0
 19  2  1  0  0  0  0
 20 19  1  0  0  0  0
 21 22  2  0  0  0  0
 22 20  1  0  0  0  0
 23 22  1  0  0  0  0
 24 25  1  0  0  0  0
 24 23  1  0  0  0  0
 25 26  1  0  0  0  0
M  END
>  <MODEL>
5

>  <REMARK>
 VINA RESULT:      -8.7      2.150      7.574
  Name = 
  5 active torsions:
  status: ('A' for Active; 'I' for Inactive)
    1  A    between atoms: C_2  and  C_20
    2  A    between atoms: O_4  and  C_9
    3  A    between atoms: C_7  and  C_10
    4  A    between atoms: C_7  and  C_20
    5  A    between atoms: C_9  and  N_21
                            x       y       z     vdW  Elec       q    Type
                         _______ _______ _______ _____ _____    ______ ____

>  <TORSDO>
F 5

$$$$
=
 OpenBabel11042410563D

 26 29  0  0  1  0  0  0  0  0999 V2000
  188.6500  177.2530  142.0280 N   0  0  0  0  0  0  0  0  0  0  0  0
  187.2590  178.6920  140.5860 C   0  0  0  0  0  3  0  0  0  0  0  0
  190.3570  177.0310  140.4960 C   0  0  0  0  0  0  0  0  0  0  0  0
  187.9210  177.3000  143.3000 C   0  0  0  0  0  2  0  0  0  0  0  0
  187.7900  177.5620  146.7360 C   0  0  0  0  0  3  0  0  0  0  0  0
  189.3930  177.8620  139.8610 N   0  0  0  0  0  2  0  0  0  0  0  0
  191.4260  176.6780  139.9320 O   0  0  0  0  0  0  0  0  0  0  0  0
  188.9140  177.3850  144.4080 C   0  0  0  0  0  0  0  0  0  0  0  0
  188.7660  177.4790  145.7690 C   0  0  0  0  0  0  0  0  0  0  0  0
  188.1590  177.6240  149.0640 O   0  0  0  0  0  0  0  0  0  0  0  0
  189.9400  177.4740  147.6180 N   0  0  0  0  0  2  0  0  0  0  0  0
  190.8960  177.3010  145.4310 O   0  0  0  0  0  0  0  0  0  0  0  0
  189.9600  176.6080  141.8720 C   0  0  1  0  0  3  0  0  0  0  0  0
  188.6090  177.5610  147.8900 C   0  0  0  0  0  0  0  0  0  0  0  0
  189.9510  177.4360  146.3060 N   0  0  0  0  0  0  0  0  0  0  0  0
  190.3000  177.2620  144.2460 C   0  0  0  0  0  0  0  0  0  0  0  0
  188.3620  177.9790  140.8280 C   0  0  0  0  0  0  0  0  0  0  0  0
  190.9630  177.1410  142.9110 C   0  0  0  0  0  2  0  0  0  0  0  0
  186.1300  178.8430  141.5460 C   0  0  0  0  0  2  0  0  0  0  0  0
  184.8150  178.6830  140.8100 C   0  0  0  0  0  2  0  0  0  0  0  0
  182.5080  178.5360  141.3720 O   0  0  0  0  0  0  0  0  0  0  0  0
  183.6900  178.6820  141.7830 C   0  0  0  0  0  0  0  0  0  0  0  0
  183.9600  178.8790  143.1730 N   0  0  0  0  0  2  0  0  0  0  0  0
  182.9100  178.8820  144.1800 C   0  0  0  0  0  2  0  0  0  0  0  0
  183.4720  179.0460  145.4460 O   0  0  0  0  0  0  0  0  0  0  0  0
  184.8460  179.1070  145.2120 C   0  0  0  0  0  1  0  0  0  0  0  0
  1  4  1  0  0  0  0
  2 17  2  0  0  0  0
  2 19  1  0  0  0  0
  3 13  1  0  0  0  0
  4  8  1  0  0  0  0
  5 14  1  0  0  0  0
  6  3  1  0  0  0  0
  6 17  1  0  0  0  0
  7  3  2  0  0  0  0
  8  9  1  0  0  0  0
  9 15  1  0  0  0  0
  9  5  2  0  0  0  0
 11 14  1  0  0  0  0
 12 15  1  0  0  0  0
 13  1  1  0  0  0  0
 13 18  1  1  0  0  0
 14 10  2  0  0  0  0
 15 11  1  0  0  0  0
 16  8  2  0  0  0  0
 16 12  1  0  0  0  0
 17  1  1  0  0  0  0
 18 16  1  0  0  0  0
 20 19  1  0  0  0  0
 20 22  1  0  0  0  0
 21 22  2  0  0  0  0
 22 23  1  0  0  0  0
 23 24  1  0  0  0  0
 24 25  1  0  0  0  0
 26 25  1  0  0  0  0
M  END
>  <MODEL>
6

>  <REMARK>
 VINA RESULT:      -8.4      1.634      7.081
  Name = 
  5 active torsions:
  status: ('A' for Active; 'I' for Inactive)
    1  A    between atoms: C_2  and  C_20
    2  A    between atoms: O_4  and  C_9
    3  A    between atoms: C_7  and  C_10
    4  A    between atoms: C_7  and  C_20
    5  A    between atoms: C_9  and  N_21
                            x       y       z     vdW  Elec       q    Type
                         _______ _______ _______ _____ _____    ______ ____

>  <TORSDO>
F 5

$$$$
=
 OpenBabel11042410563D

 26 29  0  0  1  0  0  0  0  0999 V2000
  189.5140  177.7250  145.2190 N   0  0  0  0  0  0  0  0  0  0  0  0
  187.5070  177.0530  146.4870 C   0  0  0  0  0  3  0  0  0  0  0  0
  191.0050  177.0760  146.8520 C   0  0  0  0  0  0  0  0  0  0  0  0
  188.9470  178.0650  143.9090 C   0  0  0  0  0  2  0  0  0  0  0  0
  188.9800  178.0070  140.4610 C   0  0  0  0  0  3  0  0  0  0  0  0
  189.7200  176.7690  147.3780 N   0  0  0  0  0  2  0  0  0  0  0  0
  192.0680  176.8720  147.4950 O   0  0  0  0  0  0  0  0  0  0  0  0
  189.8720  177.5630  142.8530 C   0  0  0  0  0  0  0  0  0  0  0  0
  189.8040  177.5940  141.4830 C   0  0  0  0  0  0  0  0  0  0  0  0
  189.4590  177.8570  138.1580 O   0  0  0  0  0  0  0  0  0  0  0  0
  190.9890  177.1120  139.7050 N   0  0  0  0  0  2  0  0  0  0  0  0
  191.7420  176.7480  141.9470 O   0  0  0  0  0  0  0  0  0  0  0  0
  190.9570  177.6810  145.4880 C   0  0  1  0  0  3  0  0  0  0  0  0
  189.7940  177.6650  139.3550 C   0  0  0  0  0  0  0  0  0  0  0  0
  190.9130  177.0970  141.0140 N   0  0  0  0  0  0  0  0  0  0  0  0
  191.1410  177.0220  143.0970 C   0  0  0  0  0  0  0  0  0  0  0  0
  188.8300  177.1780  146.3520 C   0  0  0  0  0  0  0  0  0  0  0  0
  191.6780  176.7760  144.4710 C   0  0  0  0  0  2  0  0  0  0  0  0
  186.5150  177.4770  145.4590 C   0  0  0  0  0  2  0  0  0  0  0  0
  185.8000  178.7260  145.9310 C   0  0  0  0  0  2  0  0  0  0  0  0
  183.4400  179.0060  145.8300 O   0  0  0  0  0  0  0  0  0  0  0  0
  184.5190  178.8830  145.1920 C   0  0  0  0  0  0  0  0  0  0  0  0
  184.5230  178.8600  143.7630 N   0  0  0  0  0  2  0  0  0  0  0  0
  183.3090  179.0150  142.9750 C   0  0  0  0  0  2  0  0  0  0  0  0
  183.4500  178.3520  141.7560 O   0  0  0  0  0  0  0  0  0  0  0  0
  184.5880  178.9190  141.1810 C   0  0  0  0  0  1  0  0  0  0  0  0
  1 13  1  0  0  0  0
  1 17  1  0  0  0  0
  3  6  1  0  0  0  0
  3  7  2  0  0  0  0
  4  1  1  0  0  0  0
  5  9  2  0  0  0  0
  8 16  2  0  0  0  0
  8  4  1  0  0  0  0
  9  8  1  0  0  0  0
 10 14  2  0  0  0  0
 11 15  1  0  0  0  0
 12 16  1  0  0  0  0
 13 18  1  6  0  0  0
 13  3  1  0  0  0  0
 14 11  1  0  0  0  0
 14  5  1  0  0  0  0
 15  9  1  0  0  0  0
 15 12  1  0  0  0  0
 16 18  1  0  0  0  0
 17  2  2  0  0  0  0
 17  6  1  0  0  0  0
 19 20  1  0  0  0  0
 19  2  1  0  0  0  0
 22 21  2  0  0  0  0
 22 20  1  0  0  0  0
 23 22  1  0  0  0  0
 24 23  1  0  0  0  0
 25 24  1  0  0  0  0
 26 25  1  0  0  0  0
M  END
>  <MODEL>
7

>  <REMARK>
 VINA RESULT:      -8.2      1.788      5.723
  Name = 
  5 active torsions:
  status: ('A' for Active; 'I' for Inactive)
    1  A    between atoms: C_2  and  C_20
    2  A    between atoms: O_4  and  C_9
    3  A    between atoms: C_7  and  C_10
    4  A    between atoms: C_7  and  C_20
    5  A    between atoms: C_9  and  N_21
                            x       y       z     vdW  Elec       q    Type
                         _______ _______ _______ _____ _____    ______ ____

>  <TORSDO>
F 5

$$$$
=
 OpenBabel11042410563D

 26 29  0  0  1  0  0  0  0  0999 V2000
  189.3720  177.8470  144.3610 N   0  0  0  0  0  0  0  0  0  0  0  0
  187.4180  177.2730  145.7540 C   0  0  0  0  0  3  0  0  0  0  0  0
  190.9280  177.1270  145.9010 C   0  0  0  0  0  0  0  0  0  0  0  0
  188.7420  178.2120  143.0880 C   0  0  0  0  0  2  0  0  0  0  0  0
  188.5570  178.1510  139.6450 C   0  0  0  0  0  3  0  0  0  0  0  0
  189.6650  176.8830  146.5080 N   0  0  0  0  0  2  0  0  0  0  0  0
  192.0180  176.8720  146.4780 O   0  0  0  0  0  0  0  0  0  0  0  0
  189.5740  177.6660  141.9790 C   0  0  0  0  0  0  0  0  0  0  0  0
  189.4220  177.6990  140.6150 C   0  0  0  0  0  0  0  0  0  0  0  0
  188.8840  177.9760  137.3170 O   0  0  0  0  0  0  0  0  0  0  0  0
  190.4690  177.1590  138.7690 N   0  0  0  0  0  2  0  0  0  0  0  0
  191.3420  176.7610  140.9610 O   0  0  0  0  0  0  0  0  0  0  0  0
  190.8250  177.7330  144.5400 C   0  0  1  0  0  3  0  0  0  0  0  0
  189.2830  177.7680  138.4920 C   0  0  0  0  0  0  0  0  0  0  0  0
  190.4750  177.1490  140.0800 N   0  0  0  0  0  0  0  0  0  0  0  0
  190.8270  177.0640  142.1460 C   0  0  0  0  0  0  0  0  0  0  0  0
  188.7340  177.3340  145.5370 C   0  0  0  0  0  0  0  0  0  0  0  0
  191.4370  176.7940  143.4840 C   0  0  0  0  0  2  0  0  0  0  0  0
  186.3850  177.7440  144.7890 C   0  0  0  0  0  2  0  0  0  0  0  0
  185.4380  178.6990  145.4860 C   0  0  0  0  0  2  0  0  0  0  0  0
  184.7070  180.1240  143.7270 O   0  0  0  0  0  0  0  0  0  0  0  0
  184.4180  179.1900  144.5220 C   0  0  0  0  0  0  0  0  0  0  0  0
  183.1080  178.6190  144.5290 N   0  0  0  0  0  2  0  0  0  0  0  0
  182.0640  179.0450  143.6100 C   0  0  0  0  0  2  0  0  0  0  0  0
  180.8160  178.6660  144.1050 O   0  0  0  0  0  0  0  0  0  0  0  0
  179.9010  179.2650  143.2400 C   0  0  0  0  0  1  0  0  0  0  0  0
  1 13  1  0  0  0  0
  1 17  1  0  0  0  0
  3  7  2  0  0  0  0
  3  6  1  0  0  0  0
  4  1  1  0  0  0  0
  5  9  2  0  0  0  0
  8 16  2  0  0  0  0
  8  4  1  0  0  0  0
  9  8  1  0  0  0  0
 10 14  2  0  0  0  0
 11 15  1  0  0  0  0
 12 16  1  0  0  0  0
 13 18  1  6  0  0  0
 13  3  1  0  0  0  0
 14 11  1  0  0  0  0
 14  5  1  0  0  0  0
 15  9  1  0  0  0  0
 15 12  1  0  0  0  0
 16 18  1  0  0  0  0
 17  2  2  0  0  0  0
 17  6  1  0  0  0  0
 19 20  1  0  0  0  0
 19  2  1  0  0  0  0
 21 22  2  0  0  0  0
 22 23  1  0  0  0  0
 22 20  1  0  0  0  0
 24 25  1  0  0  0  0
 24 23  1  0  0  0  0
 26 25  1  0  0  0  0
M  END
>  <MODEL>
8

>  <REMARK>
 VINA RESULT:      -7.9      1.924      6.104
  Name = 
  5 active torsions:
  status: ('A' for Active; 'I' for Inactive)
    1  A    between atoms: C_2  and  C_20
    2  A    between atoms: O_4  and  C_9
    3  A    between atoms: C_7  and  C_10
    4  A    between atoms: C_7  and  C_20
    5  A    between atoms: C_9  and  N_21
                            x       y       z     vdW  Elec       q    Type
                         _______ _______ _______ _____ _____    ______ ____

>  <TORSDO>
F 5

$$$$
=
 OpenBabel11042410563D

 26 29  0  0  1  0  0  0  0  0999 V2000
  189.0090  177.8550  141.5780 N   0  0  0  0  0  0  0  0  0  0  0  0
  190.5790  176.0110  142.0480 C   0  0  0  0  0  3  0  0  0  0  0  0
  189.4210  177.8900  139.3100 C   0  0  0  0  0  0  0  0  0  0  0  0
  188.3400  178.0230  142.8720 C   0  0  0  0  0  2  0  0  0  0  0  0
  185.5350  178.5160  144.8160 C   0  0  0  0  0  3  0  0  0  0  0  0
  190.2500  176.8540  139.8230 N   0  0  0  0  0  2  0  0  0  0  0  0
  189.4060  178.2060  138.0910 O   0  0  0  0  0  0  0  0  0  0  0  0
  186.8920  178.2760  142.6220 C   0  0  0  0  0  0  0  0  0  0  0  0
  185.8340  178.4730  143.4730 C   0  0  0  0  0  0  0  0  0  0  0  0
  183.4220  179.0040  145.7410 O   0  0  0  0  0  0  0  0  0  0  0  0
  183.7070  178.9940  143.4590 N   0  0  0  0  0  2  0  0  0  0  0  0
  185.0370  178.7670  141.4830 O   0  0  0  0  0  0  0  0  0  0  0  0
  188.6040  178.5680  140.3590 C   0  0  1  0  0  3  0  0  0  0  0  0
  184.1610  178.8470  144.7350 C   0  0  0  0  0  0  0  0  0  0  0  0
  184.7830  178.7420  142.7530 N   0  0  0  0  0  0  0  0  0  0  0  0
  186.3280  178.4890  141.3580 C   0  0  0  0  0  0  0  0  0  0  0  0
  189.9720  176.8590  141.2140 C   0  0  0  0  0  0  0  0  0  0  0  0
  187.1010  178.3720  140.0830 C   0  0  0  0  0  2  0  0  0  0  0  0
  190.3500  175.9730  143.5190 C   0  0  0  0  0  2  0  0  0  0  0  0
  191.4970  176.6630  144.2290 C   0  0  0  0  0  2  0  0  0  0  0  0
  192.0630  176.6060  146.5390 O   0  0  0  0  0  0  0  0  0  0  0  0
  191.1740  176.8210  145.6720 C   0  0  0  0  0  0  0  0  0  0  0  0
  189.8480  177.1830  146.0630 N   0  0  0  0  0  2  0  0  0  0  0  0
  189.4640  177.3620  147.4550 C   0  0  0  0  0  2  0  0  0  0  0  0
  188.1030  177.6590  147.5340 O   0  0  0  0  0  0  0  0  0  0  0  0
  187.9200  178.1090  148.8410 C   0  0  0  0  0  1  0  0  0  0  0  0
  1  4  1  0  0  0  0
  2 19  1  0  0  0  0
  3  6  1  0  0  0  0
  3 13  1  0  0  0  0
  6 17  1  0  0  0  0
  7  3  2  0  0  0  0
  8  4  1  0  0  0  0
  8  9  1  0  0  0  0
  9  5  2  0  0  0  0
 11 14  1  0  0  0  0
 12 15  1  0  0  0  0
 13 18  1  6  0  0  0
 13  1  1  0  0  0  0
 14  5  1  0  0  0  0
 14 10  2  0  0  0  0
 15 11  1  0  0  0  0
 15  9  1  0  0  0  0
 16 12  1  0  0  0  0
 16  8  2  0  0  0  0
 17  1  1  0  0  0  0
 17  2  2  0  0  0  0
 18 16  1  0  0  0  0
 19 20  1  0  0  0  0
 20 22  1  0  0  0  0
 22 23  1  0  0  0  0
 22 21  2  0  0  0  0
 23 24  1  0  0  0  0
 24 25  1  0  0  0  0
 25 26  1  0  0  0  0
M  END
>  <MODEL>
9

>  <REMARK>
 VINA RESULT:      -7.9      1.551      5.361
  Name = 
  5 active torsions:
  status: ('A' for Active; 'I' for Inactive)
    1  A    between atoms: C_2  and  C_20
    2  A    between atoms: O_4  and  C_9
    3  A    between atoms: C_7  and  C_10
    4  A    between atoms: C_7  and  C_20
    5  A    between atoms: C_9  and  N_21
                            x       y       z     vdW  Elec       q    Type
                         _______ _______ _______ _____ _____    ______ ____

>  <TORSDO>
F 5

$$$$
