=
 OpenBabel11042412293D

 27 29  0  0  1  0  0  0  0  0999 V2000
  188.9200  177.8830  142.8770 C   0  0  2  0  0  3  0  0  0  0  0  0
  190.3730  176.6380  141.4440 O   0  0  0  0  0  0  0  0  0  0  0  0
  190.0670  176.9560  142.6250 C   0  0  0  0  0  0  0  0  0  0  0  0
  191.7320  176.0760  145.6760 C   0  0  0  0  0  0  0  0  0  0  0  0
  191.5800  175.3400  143.6950 O   0  0  0  0  0  0  0  0  0  0  0  0
  190.8360  176.4190  143.7540 C   0  0  0  0  0  0  0  0  0  0  0  0
  190.8870  176.9610  145.0260 C   0  0  0  0  0  3  0  0  0  0  0  0
  192.1390  175.1000  144.8430 N   0  0  0  0  0  0  0  0  0  0  0  0
  192.1380  176.1640  147.0830 C   0  0  0  0  0  0  0  0  0  0  0  0
  191.5790  177.1320  147.9090 O   0  0  0  0  0  1  0  0  0  0  0  0
  192.9920  175.3650  147.5500 O   0  0  0  0  0  0  0  0  0  0  0  0
  187.6630  177.0820  143.2020 C   0  0  0  0  0  2  0  0  0  0  0  0
  184.0670  179.0440  145.6830 N   0  0  0  0  0  0  0  0  0  0  0  0
  186.0290  178.4440  146.9380 N   0  0  0  0  0  0  0  0  0  0  0  0
  185.2970  178.5320  145.8050 C   0  0  0  0  0  0  0  0  0  0  0  0
  185.7930  178.0810  144.5580 C   0  0  2  0  0  3  0  0  0  0  0  0
  187.7850  177.4610  145.6540 N   0  0  0  0  0  0  0  0  0  0  0  0
  187.0670  177.5330  144.4940 C   0  0  0  0  0  0  0  0  0  0  0  0
  183.7770  178.9210  144.3600 C   0  0  0  0  0  3  0  0  0  0  0  0
  187.2820  177.9010  146.8540 C   0  0  0  0  0  3  0  0  0  0  0  0
  184.8170  178.3320  143.6240 C   0  0  0  0  0  3  0  0  0  0  0  0
  188.7060  178.6940  141.7570 O   0  0  0  0  0  0  0  0  0  0  0  0
  187.5830  178.1520  141.1240 C   0  0  0  0  0  2  0  0  0  0  0  0
  187.6500  178.4230  139.6600 C   0  0  0  0  0  0  0  0  0  0  0  0
  186.5900  178.4190  138.9770 O   0  0  0  0  0  0  0  0  0  0  0  0
  188.9140  178.6860  139.0450 N   0  0  0  0  0  2  0  0  0  0  0  0
  189.0400  178.9370  137.6190 C   0  0  0  0  0  1  0  0  0  0  0  0
  1 12  1  6  0  0  0
  2  3  2  0  0  0  0
  3  1  1  0  0  0  0
  3  6  1  0  0  0  0
  4  9  1  0  0  0  0
  5  6  1  0  0  0  0
  5  8  1  0  0  0  0
  6  7  2  0  0  0  0
  7  4  1  0  0  0  0
  8  4  2  0  0  0  0
  9 11  2  0  0  0  0
  9 10  1  0  0  0  0
 12 18  1  0  0  0  0
 13 15  2  0  0  0  0
 15 14  1  0  0  0  0
 16 21  1  6  0  0  0
 16 15  1  0  0  0  0
 17 20  1  0  0  0  0
 18 16  1  0  0  0  0
 18 17  2  0  0  0  0
 19 13  1  0  0  0  0
 20 14  2  0  0  0  0
 21 19  2  0  0  0  0
 22  1  1  0  0  0  0
 23 22  1  0  0  0  0
 24 23  1  0  0  0  0
 25 24  2  0  0  0  0
 26 24  1  0  0  0  0
 27 26  1  0  0  0  0
M  END
>  <MODEL>
1

>  <REMARK>
 VINA RESULT:      -8.3      0.000      0.000
  Name = 
  8 active torsions:
  status: ('A' for Active; 'I' for Inactive)
    1  A    between atoms: C_5  and  C_13
    2  A    between atoms: C_5  and  C_19
    3  A    between atoms: C_6  and  C_23
    4  A    between atoms: C_7  and  C_8
    5  A    between atoms: C_9  and  C_14
    6  A    between atoms: C_9  and  C_19
    7  A    between atoms: C_19  and  O_20
    8  A    between atoms: O_20  and  C_23
                            x       y       z     vdW  Elec       q    Type
                         _______ _______ _______ _____ _____    ______ ____

>  <TORSDO>
F 8

$$$$
=
 OpenBabel11042412293D

 27 29  0  0  1  0  0  0  0  0999 V2000
  189.1730  177.5010  142.2700 C   0  0  2  0  0  3  0  0  0  0  0  0
  191.4570  177.6670  141.5870 O   0  0  0  0  0  0  0  0  0  0  0  0
  190.6420  177.3130  142.4810 C   0  0  0  0  0  0  0  0  0  0  0  0
  191.6510  176.3310  145.7790 C   0  0  0  0  0  0  0  0  0  0  0  0
  191.6970  175.5370  143.8150 O   0  0  0  0  0  0  0  0  0  0  0  0
  191.1320  176.7180  143.7300 C   0  0  0  0  0  0  0  0  0  0  0  0
  191.0670  177.3030  144.9820 C   0  0  0  0  0  3  0  0  0  0  0  0
  192.0260  175.2670  145.0430 N   0  0  0  0  0  0  0  0  0  0  0  0
  191.8410  176.4200  147.2300 C   0  0  0  0  0  0  0  0  0  0  0  0
  192.8220  175.6560  147.8510 O   0  0  0  0  0  0  0  0  0  0  0  0
  191.1200  177.1880  147.9210 O   0  0  0  0  0  1  0  0  0  0  0  0
  188.3900  176.6670  143.2790 C   0  0  0  0  0  2  0  0  0  0  0  0
  186.0210  178.6180  146.9560 N   0  0  0  0  0  0  0  0  0  0  0  0
  184.9900  178.8200  144.7920 N   0  0  0  0  0  0  0  0  0  0  0  0
  185.9760  178.4320  145.6310 C   0  0  0  0  0  0  0  0  0  0  0  0
  187.1190  177.7350  145.1700 C   0  0  2  0  0  3  0  0  0  0  0  0
  186.2180  177.8390  142.9950 N   0  0  0  0  0  0  0  0  0  0  0  0
  187.2310  177.4390  143.8190 C   0  0  0  0  0  0  0  0  0  0  0  0
  187.1900  178.0410  147.3400 C   0  0  0  0  0  3  0  0  0  0  0  0
  185.1200  178.5180  143.4650 C   0  0  0  0  0  3  0  0  0  0  0  0
  187.9030  177.4790  146.2690 C   0  0  0  0  0  3  0  0  0  0  0  0
  188.8270  177.1370  140.9640 O   0  0  0  0  0  0  0  0  0  0  0  0
  188.5130  178.3400  140.3220 C   0  0  0  0  0  2  0  0  0  0  0  0
  189.0690  178.3330  138.9400 C   0  0  0  0  0  0  0  0  0  0  0  0
  188.9680  179.3660  138.2230 O   0  0  0  0  0  0  0  0  0  0  0  0
  189.7130  177.1580  138.4400 N   0  0  0  0  0  2  0  0  0  0  0  0
  190.2560  177.0900  137.0940 C   0  0  0  0  0  1  0  0  0  0  0  0
  1  3  1  0  0  0  0
  1 12  1  1  0  0  0
  2  3  2  0  0  0  0
  3  6  1  0  0  0  0
  4  9  1  0  0  0  0
  5  8  1  0  0  0  0
  6  5  1  0  0  0  0
  6  7  2  0  0  0  0
  7  4  1  0  0  0  0
  8  4  2  0  0  0  0
  9 10  2  0  0  0  0
  9 11  1  0  0  0  0
 12 18  1  0  0  0  0
 13 19  1  0  0  0  0
 14 15  1  0  0  0  0
 15 13  2  0  0  0  0
 16 15  1  0  0  0  0
 16 21  1  1  0  0  0
 17 20  1  0  0  0  0
 17 18  2  0  0  0  0
 18 16  1  0  0  0  0
 20 14  2  0  0  0  0
 21 19  2  0  0  0  0
 22  1  1  0  0  0  0
 23 22  1  0  0  0  0
 24 23  1  0  0  0  0
 25 24  2  0  0  0  0
 26 24  1  0  0  0  0
 27 26  1  0  0  0  0
M  END
>  <MODEL>
2

>  <REMARK>
 VINA RESULT:      -8.2      1.235      2.088
  Name = 
  8 active torsions:
  status: ('A' for Active; 'I' for Inactive)
    1  A    between atoms: C_5  and  C_13
    2  A    between atoms: C_5  and  C_19
    3  A    between atoms: C_6  and  C_23
    4  A    between atoms: C_7  and  C_8
    5  A    between atoms: C_9  and  C_14
    6  A    between atoms: C_9  and  C_19
    7  A    between atoms: C_19  and  O_20
    8  A    between atoms: O_20  and  C_23
                            x       y       z     vdW  Elec       q    Type
                         _______ _______ _______ _____ _____    ______ ____

>  <TORSDO>
F 8

$$$$
=
 OpenBabel11042412293D

 27 29  0  0  1  0  0  0  0  0999 V2000
  189.1680  177.3990  142.7440 C   0  0  2  0  0  3  0  0  0  0  0  0
  190.3010  179.3980  143.4030 O   0  0  0  0  0  0  0  0  0  0  0  0
  189.9550  178.2250  143.7110 C   0  0  0  0  0  0  0  0  0  0  0  0
  191.3240  176.6970  146.6520 C   0  0  0  0  0  0  0  0  0  0  0  0
  189.5810  177.7660  146.0970 O   0  0  0  0  0  0  0  0  0  0  0  0
  190.3220  177.6700  145.0190 C   0  0  0  0  0  0  0  0  0  0  0  0
  191.4850  176.9780  145.3050 C   0  0  0  0  0  3  0  0  0  0  0  0
  190.1560  177.1880  147.1090 N   0  0  0  0  0  0  0  0  0  0  0  0
  192.2830  175.9710  147.4910 C   0  0  0  0  0  0  0  0  0  0  0  0
  192.8060  176.5740  148.6290 O   0  0  0  0  0  1  0  0  0  0  0  0
  192.6350  174.8000  147.1890 O   0  0  0  0  0  0  0  0  0  0  0  0
  187.9660  176.7760  143.4460 C   0  0  0  0  0  2  0  0  0  0  0  0
  184.4890  179.0650  145.8160 N   0  0  0  0  0  0  0  0  0  0  0  0
  184.6060  179.4580  143.4460 N   0  0  0  0  0  0  0  0  0  0  0  0
  185.0300  178.9010  144.6030 C   0  0  0  0  0  0  0  0  0  0  0  0
  186.1410  178.0250  144.6470 C   0  0  2  0  0  3  0  0  0  0  0  0
  186.3620  178.3010  142.3170 N   0  0  0  0  0  0  0  0  0  0  0  0
  186.8160  177.7280  143.4710 C   0  0  0  0  0  0  0  0  0  0  0  0
  185.2550  178.2940  146.6350 C   0  0  0  0  0  3  0  0  0  0  0  0
  185.2840  179.1520  142.2990 C   0  0  0  0  0  3  0  0  0  0  0  0
  186.2880  177.6310  145.9550 C   0  0  0  0  0  3  0  0  0  0  0  0
  189.9820  176.4020  142.1940 O   0  0  0  0  0  0  0  0  0  0  0  0
  190.8620  177.0790  141.3430 C   0  0  0  0  0  2  0  0  0  0  0  0
  190.3900  176.9630  139.9350 C   0  0  0  0  0  0  0  0  0  0  0  0
  190.6030  175.8980  139.2930 O   0  0  0  0  0  0  0  0  0  0  0  0
  189.6980  178.0570  139.3260 N   0  0  0  0  0  2  0  0  0  0  0  0
  189.2320  178.0050  137.9500 C   0  0  0  0  0  1  0  0  0  0  0  0
  1 12  1  1  0  0  0
  1  3  1  0  0  0  0
  2  3  2  0  0  0  0
  3  6  1  0  0  0  0
  4  8  2  0  0  0  0
  4  9  1  0  0  0  0
  5  8  1  0  0  0  0
  6  7  2  0  0  0  0
  6  5  1  0  0  0  0
  7  4  1  0  0  0  0
  9 10  1  0  0  0  0
 11  9  2  0  0  0  0
 12 18  1  0  0  0  0
 13 19  1  0  0  0  0
 14 15  1  0  0  0  0
 15 16  1  0  0  0  0
 15 13  2  0  0  0  0
 16 21  1  6  0  0  0
 17 18  2  0  0  0  0
 18 16  1  0  0  0  0
 20 17  1  0  0  0  0
 20 14  2  0  0  0  0
 21 19  2  0  0  0  0
 22  1  1  0  0  0  0
 23 22  1  0  0  0  0
 24 23  1  0  0  0  0
 25 24  2  0  0  0  0
 26 24  1  0  0  0  0
 27 26  1  0  0  0  0
M  END
>  <MODEL>
3

>  <REMARK>
 VINA RESULT:      -8.2      1.826      2.583
  Name = 
  8 active torsions:
  status: ('A' for Active; 'I' for Inactive)
    1  A    between atoms: C_5  and  C_13
    2  A    between atoms: C_5  and  C_19
    3  A    between atoms: C_6  and  C_23
    4  A    between atoms: C_7  and  C_8
    5  A    between atoms: C_9  and  C_14
    6  A    between atoms: C_9  and  C_19
    7  A    between atoms: C_19  and  O_20
    8  A    between atoms: O_20  and  C_23
                            x       y       z     vdW  Elec       q    Type
                         _______ _______ _______ _____ _____    ______ ____

>  <TORSDO>
F 8

$$$$
=
 OpenBabel11042412293D

 27 29  0  0  1  0  0  0  0  0999 V2000
  189.1090  177.2940  142.9930 C   0  0  2  0  0  3  0  0  0  0  0  0
  187.8240  178.8480  141.7080 O   0  0  0  0  0  0  0  0  0  0  0  0
  188.7300  177.9710  141.7130 C   0  0  0  0  0  0  0  0  0  0  0  0
  190.7210  176.7600  138.9870 C   0  0  0  0  0  0  0  0  0  0  0  0
  189.0990  178.0910  139.2850 O   0  0  0  0  0  0  0  0  0  0  0  0
  189.4150  177.6130  140.4660 C   0  0  0  0  0  0  0  0  0  0  0  0
  190.4750  176.7310  140.3510 C   0  0  0  0  0  3  0  0  0  0  0  0
  189.8690  177.5960  138.3630 N   0  0  0  0  0  0  0  0  0  0  0  0
  191.7570  175.9890  138.2920 C   0  0  0  0  0  0  0  0  0  0  0  0
  191.5360  174.6540  137.9760 O   0  0  0  0  0  0  0  0  0  0  0  0
  192.8490  176.5310  137.9770 O   0  0  0  0  0  1  0  0  0  0  0  0
  187.9110  176.5420  143.5610 C   0  0  0  0  0  2  0  0  0  0  0  0
  184.7750  179.1510  146.0700 N   0  0  0  0  0  0  0  0  0  0  0  0
  186.7060  178.3600  147.2650 N   0  0  0  0  0  0  0  0  0  0  0  0
  185.9270  178.4780  146.1670 C   0  0  0  0  0  0  0  0  0  0  0  0
  186.2810  177.8820  144.9330 C   0  0  2  0  0  3  0  0  0  0  0  0
  188.2300  177.0580  145.9700 N   0  0  0  0  0  0  0  0  0  0  0  0
  187.4610  177.1560  144.8460 C   0  0  0  0  0  0  0  0  0  0  0  0
  184.3930  178.9850  144.7760 C   0  0  0  0  0  3  0  0  0  0  0  0
  187.8640  177.6410  147.1580 C   0  0  0  0  0  3  0  0  0  0  0  0
  185.2950  178.2080  144.0330 C   0  0  0  0  0  3  0  0  0  0  0  0
  189.5730  178.2400  143.9140 O   0  0  0  0  0  0  0  0  0  0  0  0
  190.9670  178.1900  143.8160 C   0  0  0  0  0  2  0  0  0  0  0  0
  191.4820  177.0090  144.5640 C   0  0  0  0  0  0  0  0  0  0  0  0
  191.7790  175.9560  143.9360 O   0  0  0  0  0  0  0  0  0  0  0  0
  191.6360  177.0800  145.9840 N   0  0  0  0  0  2  0  0  0  0  0  0
  192.1160  175.9510  146.7650 C   0  0  0  0  0  1  0  0  0  0  0  0
  1 12  1  1  0  0  0
  1 22  1  0  0  0  0
  2  3  2  0  0  0  0
  3  1  1  0  0  0  0
  4  7  1  0  0  0  0
  5  6  1  0  0  0  0
  6  3  1  0  0  0  0
  7  6  2  0  0  0  0
  8  4  2  0  0  0  0
  8  5  1  0  0  0  0
  9  4  1  0  0  0  0
 10  9  2  0  0  0  0
 11  9  1  0  0  0  0
 12 18  1  0  0  0  0
 13 15  2  0  0  0  0
 15 14  1  0  0  0  0
 16 21  1  6  0  0  0
 16 15  1  0  0  0  0
 17 20  1  0  0  0  0
 18 16  1  0  0  0  0
 18 17  2  0  0  0  0
 19 13  1  0  0  0  0
 20 14  2  0  0  0  0
 21 19  2  0  0  0  0
 23 22  1  0  0  0  0
 23 24  1  0  0  0  0
 24 26  1  0  0  0  0
 25 24  2  0  0  0  0
 26 27  1  0  0  0  0
M  END
>  <MODEL>
4

>  <REMARK>
 VINA RESULT:      -8.1      1.952      5.262
  Name = 
  8 active torsions:
  status: ('A' for Active; 'I' for Inactive)
    1  A    between atoms: C_5  and  C_13
    2  A    between atoms: C_5  and  C_19
    3  A    between atoms: C_6  and  C_23
    4  A    between atoms: C_7  and  C_8
    5  A    between atoms: C_9  and  C_14
    6  A    between atoms: C_9  and  C_19
    7  A    between atoms: C_19  and  O_20
    8  A    between atoms: O_20  and  C_23
                            x       y       z     vdW  Elec       q    Type
                         _______ _______ _______ _____ _____    ______ ____

>  <TORSDO>
F 8

$$$$
=
 OpenBabel11042412293D

 27 29  0  0  1  0  0  0  0  0999 V2000
  188.9630  176.7380  143.9860 C   0  0  2  0  0  3  0  0  0  0  0  0
  190.5580  175.6230  142.5990 O   0  0  0  0  0  0  0  0  0  0  0  0
  189.6460  176.4890  142.6790 C   0  0  0  0  0  0  0  0  0  0  0  0
  189.1030  178.0870  139.5150 C   0  0  0  0  0  0  0  0  0  0  0  0
  188.2510  178.1020  141.4550 O   0  0  0  0  0  0  0  0  0  0  0  0
  189.2510  177.2540  141.4900 C   0  0  0  0  0  0  0  0  0  0  0  0
  189.8620  177.1910  140.2500 C   0  0  0  0  0  3  0  0  0  0  0  0
  188.1300  178.6280  140.2730 N   0  0  0  0  0  0  0  0  0  0  0  0
  189.3070  178.4160  138.1000 C   0  0  0  0  0  0  0  0  0  0  0  0
  189.8310  177.4650  137.2340 O   0  0  0  0  0  0  0  0  0  0  0  0
  189.0070  179.5590  137.6630 O   0  0  0  0  0  1  0  0  0  0  0  0
  187.4690  176.4610  143.8560 C   0  0  0  0  0  2  0  0  0  0  0  0
  184.0320  179.7180  144.5770 N   0  0  0  0  0  0  0  0  0  0  0  0
  185.3000  179.0560  146.5100 N   0  0  0  0  0  0  0  0  0  0  0  0
  184.9770  179.0040  145.1980 C   0  0  0  0  0  0  0  0  0  0  0  0
  185.6570  178.1520  144.2950 C   0  0  2  0  0  3  0  0  0  0  0  0
  186.9920  177.4250  146.0960 N   0  0  0  0  0  0  0  0  0  0  0  0
  186.6850  177.3470  144.7670 C   0  0  0  0  0  0  0  0  0  0  0  0
  184.1070  179.3230  143.2780 C   0  0  0  0  0  3  0  0  0  0  0  0
  186.3160  178.2560  146.9540 C   0  0  0  0  0  3  0  0  0  0  0  0
  185.1000  178.3560  143.0560 C   0  0  0  0  0  3  0  0  0  0  0  0
  189.1800  178.0590  144.3960 O   0  0  0  0  0  0  0  0  0  0  0  0
  190.5280  178.1070  144.7680 C   0  0  0  0  0  2  0  0  0  0  0  0
  190.7320  177.3290  146.0220 C   0  0  0  0  0  0  0  0  0  0  0  0
  189.9500  177.5040  146.9970 O   0  0  0  0  0  0  0  0  0  0  0  0
  191.8090  176.3930  146.1090 N   0  0  0  0  0  2  0  0  0  0  0  0
  192.0650  175.6220  147.3150 C   0  0  0  0  0  1  0  0  0  0  0  0
  1 12  1  6  0  0  0
  1 22  1  0  0  0  0
  2  3  2  0  0  0  0
  3  1  1  0  0  0  0
  4  7  1  0  0  0  0
  4  8  2  0  0  0  0
  5  6  1  0  0  0  0
  6  3  1  0  0  0  0
  7  6  2  0  0  0  0
  8  5  1  0  0  0  0
  9  4  1  0  0  0  0
 10  9  2  0  0  0  0
 11  9  1  0  0  0  0
 12 18  1  0  0  0  0
 13 15  2  0  0  0  0
 14 20  2  0  0  0  0
 15 14  1  0  0  0  0
 16 21  1  6  0  0  0
 16 18  1  0  0  0  0
 16 15  1  0  0  0  0
 17 20  1  0  0  0  0
 18 17  2  0  0  0  0
 19 13  1  0  0  0  0
 21 19  2  0  0  0  0
 22 23  1  0  0  0  0
 23 24  1  0  0  0  0
 24 26  1  0  0  0  0
 24 25  2  0  0  0  0
 26 27  1  0  0  0  0
M  END
>  <MODEL>
5

>  <REMARK>
 VINA RESULT:      -8.0      1.585      5.594
  Name = 
  8 active torsions:
  status: ('A' for Active; 'I' for Inactive)
    1  A    between atoms: C_5  and  C_13
    2  A    between atoms: C_5  and  C_19
    3  A    between atoms: C_6  and  C_23
    4  A    between atoms: C_7  and  C_8
    5  A    between atoms: C_9  and  C_14
    6  A    between atoms: C_9  and  C_19
    7  A    between atoms: C_19  and  O_20
    8  A    between atoms: O_20  and  C_23
                            x       y       z     vdW  Elec       q    Type
                         _______ _______ _______ _____ _____    ______ ____

>  <TORSDO>
F 8

$$$$
=
 OpenBabel11042412293D

 27 29  0  0  1  0  0  0  0  0999 V2000
  188.7280  178.0710  141.8670 C   0  0  2  0  0  3  0  0  0  0  0  0
  190.1860  176.5940  140.6800 O   0  0  0  0  0  0  0  0  0  0  0  0
  189.2860  177.4750  140.6140 C   0  0  0  0  0  0  0  0  0  0  0  0
  187.7900  178.0530  137.4060 C   0  0  0  0  0  0  0  0  0  0  0  0
  189.0550  179.0770  138.7630 O   0  0  0  0  0  0  0  0  0  0  0  0
  188.7820  177.9150  139.3070 C   0  0  0  0  0  0  0  0  0  0  0  0
  187.9550  177.1840  138.4730 C   0  0  0  0  0  3  0  0  0  0  0  0
  188.4710  179.1970  137.6090 N   0  0  0  0  0  0  0  0  0  0  0  0
  186.9830  177.7900  136.2100 C   0  0  0  0  0  0  0  0  0  0  0  0
  187.5680  177.8460  134.9510 O   0  0  0  0  0  0  0  0  0  0  0  0
  185.7600  177.5100  136.3170 O   0  0  0  0  0  1  0  0  0  0  0  0
  188.3140  176.9650  142.8320 C   0  0  0  0  0  2  0  0  0  0  0  0
  188.8340  177.6950  147.5370 N   0  0  0  0  0  0  0  0  0  0  0  0
  190.8220  177.1000  146.3210 N   0  0  0  0  0  0  0  0  0  0  0  0
  189.4990  177.3570  146.4260 C   0  0  0  0  0  0  0  0  0  0  0  0
  188.6370  177.3080  145.3040 C   0  0  2  0  0  3  0  0  0  0  0  0
  190.5040  176.7390  143.9830 N   0  0  0  0  0  0  0  0  0  0  0  0
  189.1630  176.9880  144.0600 C   0  0  0  0  0  0  0  0  0  0  0  0
  187.5490  177.8620  147.1260 C   0  0  0  0  0  3  0  0  0  0  0  0
  191.3200  176.7880  145.0870 C   0  0  0  0  0  3  0  0  0  0  0  0
  187.3790  177.6340  145.7510 C   0  0  0  0  0  3  0  0  0  0  0  0
  187.6330  178.8870  141.5620 O   0  0  0  0  0  0  0  0  0  0  0  0
  186.5460  178.2980  142.2160 C   0  0  0  0  0  2  0  0  0  0  0  0
  185.2950  178.5590  141.4480 C   0  0  0  0  0  0  0  0  0  0  0  0
  184.1790  178.2830  141.9660 O   0  0  0  0  0  0  0  0  0  0  0  0
  185.3730  179.1210  140.1360 N   0  0  0  0  0  2  0  0  0  0  0  0
  184.1860  179.3780  139.3360 C   0  0  0  0  0  1  0  0  0  0  0  0
  1 12  1  1  0  0  0
  3  2  2  0  0  0  0
  3  1  1  0  0  0  0
  4  8  2  0  0  0  0
  4  7  1  0  0  0  0
  5  6  1  0  0  0  0
  6  3  1  0  0  0  0
  7  6  2  0  0  0  0
  8  5  1  0  0  0  0
  9 11  1  0  0  0  0
  9  4  1  0  0  0  0
 10  9  2  0  0  0  0
 12 18  1  0  0  0  0
 14 15  1  0  0  0  0
 15 13  2  0  0  0  0
 16 21  1  6  0  0  0
 16 15  1  0  0  0  0
 17 18  2  0  0  0  0
 17 20  1  0  0  0  0
 18 16  1  0  0  0  0
 19 13  1  0  0  0  0
 20 14  2  0  0  0  0
 21 19  2  0  0  0  0
 22  1  1  0  0  0  0
 22 23  1  0  0  0  0
 24 25  2  0  0  0  0
 24 23  1  0  0  0  0
 26 24  1  0  0  0  0
 27 26  1  0  0  0  0
M  END
>  <MODEL>
6

>  <REMARK>
 VINA RESULT:      -7.8      2.906      6.193
  Name = 
  8 active torsions:
  status: ('A' for Active; 'I' for Inactive)
    1  A    between atoms: C_5  and  C_13
    2  A    between atoms: C_5  and  C_19
    3  A    between atoms: C_6  and  C_23
    4  A    between atoms: C_7  and  C_8
    5  A    between atoms: C_9  and  C_14
    6  A    between atoms: C_9  and  C_19
    7  A    between atoms: C_19  and  O_20
    8  A    between atoms: O_20  and  C_23
                            x       y       z     vdW  Elec       q    Type
                         _______ _______ _______ _____ _____    ______ ____

>  <TORSDO>
F 8

$$$$
=
 OpenBabel11042412293D

 27 29  0  0  1  0  0  0  0  0999 V2000
  189.4960  177.7620  142.6150 C   0  0  2  0  0  3  0  0  0  0  0  0
  188.4870  175.6240  142.9680 O   0  0  0  0  0  0  0  0  0  0  0  0
  188.6230  176.8110  143.3710 C   0  0  0  0  0  0  0  0  0  0  0  0
  186.5610  178.1600  145.9760 C   0  0  0  0  0  0  0  0  0  0  0  0
  188.3060  176.9690  145.8040 O   0  0  0  0  0  0  0  0  0  0  0  0
  187.9270  177.2610  144.5820 C   0  0  0  0  0  0  0  0  0  0  0  0
  186.7860  178.0430  144.6140 C   0  0  0  0  0  3  0  0  0  0  0  0
  187.5010  177.4970  146.6770 N   0  0  0  0  0  0  0  0  0  0  0  0
  185.4530  178.8930  146.5970 C   0  0  0  0  0  0  0  0  0  0  0  0
  184.1430  178.6230  146.2210 O   0  0  0  0  0  0  0  0  0  0  0  0
  185.6810  179.7690  147.4730 O   0  0  0  0  0  1  0  0  0  0  0  0
  190.2310  177.0240  141.5020 C   0  0  0  0  0  2  0  0  0  0  0  0
  190.3530  176.9240  136.7140 N   0  0  0  0  0  0  0  0  0  0  0  0
  188.4080  177.9230  137.7140 N   0  0  0  0  0  0  0  0  0  0  0  0
  189.6050  177.2970  137.7590 C   0  0  0  0  0  0  0  0  0  0  0  0
  190.2310  176.9700  138.9850 C   0  0  2  0  0  3  0  0  0  0  0  0
  188.3940  177.9380  140.1010 N   0  0  0  0  0  0  0  0  0  0  0  0
  189.6010  177.3020  140.1770 C   0  0  0  0  0  0  0  0  0  0  0  0
  191.4570  176.3580  137.2730 C   0  0  0  0  0  3  0  0  0  0  0  0
  187.8030  178.2410  138.8980 C   0  0  0  0  0  3  0  0  0  0  0  0
  191.4260  176.3670  138.6770 C   0  0  0  0  0  3  0  0  0  0  0  0
  190.4110  178.3660  143.4870 O   0  0  0  0  0  0  0  0  0  0  0  0
  191.5770  177.6020  143.3770 C   0  0  0  0  0  2  0  0  0  0  0  0
  191.6820  176.6730  144.5380 C   0  0  0  0  0  0  0  0  0  0  0  0
  191.8240  175.4370  144.3360 O   0  0  0  0  0  0  0  0  0  0  0  0
  191.6210  177.1930  145.8690 N   0  0  0  0  0  2  0  0  0  0  0  0
  191.6990  176.3320  147.0370 C   0  0  0  0  0  1  0  0  0  0  0  0
  1 12  1  6  0  0  0
  1  3  1  0  0  0  0
  1 22  1  0  0  0  0
  2  3  2  0  0  0  0
  3  6  1  0  0  0  0
  4  9  1  0  0  0  0
  4  8  2  0  0  0  0
  5  8  1  0  0  0  0
  6  7  2  0  0  0  0
  6  5  1  0  0  0  0
  7  4  1  0  0  0  0
  9 11  1  0  0  0  0
 10  9  2  0  0  0  0
 13 19  1  0  0  0  0
 13 15  2  0  0  0  0
 14 15  1  0  0  0  0
 14 20  2  0  0  0  0
 15 16  1  0  0  0  0
 16 21  1  6  0  0  0
 16 18  1  0  0  0  0
 17 18  2  0  0  0  0
 18 12  1  0  0  0  0
 19 21  2  0  0  0  0
 20 17  1  0  0  0  0
 23 22  1  0  0  0  0
 23 24  1  0  0  0  0
 24 26  1  0  0  0  0
 25 24  2  0  0  0  0
 26 27  1  0  0  0  0
M  END
>  <MODEL>
7

>  <REMARK>
 VINA RESULT:      -7.7      2.616      6.851
  Name = 
  8 active torsions:
  status: ('A' for Active; 'I' for Inactive)
    1  A    between atoms: C_5  and  C_13
    2  A    between atoms: C_5  and  C_19
    3  A    between atoms: C_6  and  C_23
    4  A    between atoms: C_7  and  C_8
    5  A    between atoms: C_9  and  C_14
    6  A    between atoms: C_9  and  C_19
    7  A    between atoms: C_19  and  O_20
    8  A    between atoms: O_20  and  C_23
                            x       y       z     vdW  Elec       q    Type
                         _______ _______ _______ _____ _____    ______ ____

>  <TORSDO>
F 8

$$$$
=
 OpenBabel11042412293D

 27 29  0  0  1  0  0  0  0  0999 V2000
  188.0460  177.9540  142.7180 C   0  0  2  0  0  3  0  0  0  0  0  0
  190.4190  178.2240  142.8170 O   0  0  0  0  0  0  0  0  0  0  0  0
  189.4090  177.9790  142.1030 C   0  0  0  0  0  0  0  0  0  0  0  0
  190.0410  176.8510  138.7580 C   0  0  0  0  0  0  0  0  0  0  0  0
  189.1600  178.5230  139.7180 O   0  0  0  0  0  0  0  0  0  0  0  0
  189.5690  177.7150  140.6680 C   0  0  0  0  0  0  0  0  0  0  0  0
  190.1610  176.5940  140.1140 C   0  0  0  0  0  3  0  0  0  0  0  0
  189.4290  178.0320  138.5450 N   0  0  0  0  0  0  0  0  0  0  0  0
  190.5040  175.9710  137.6800 C   0  0  0  0  0  0  0  0  0  0  0  0
  190.9010  174.6710  137.9660 O   0  0  0  0  0  1  0  0  0  0  0  0
  190.5430  176.3870  136.4910 O   0  0  0  0  0  0  0  0  0  0  0  0
  187.9220  176.7660  143.6660 C   0  0  0  0  0  2  0  0  0  0  0  0
  185.3210  178.7720  147.1520 N   0  0  0  0  0  0  0  0  0  0  0  0
  187.5770  178.1580  147.7180 N   0  0  0  0  0  0  0  0  0  0  0  0
  186.5220  178.2490  146.8780 C   0  0  0  0  0  0  0  0  0  0  0  0
  186.5910  177.7880  145.5410 C   0  0  2  0  0  3  0  0  0  0  0  0
  188.8230  177.1540  145.9480 N   0  0  0  0  0  0  0  0  0  0  0  0
  187.7730  177.2280  145.0780 C   0  0  0  0  0  0  0  0  0  0  0  0
  184.6240  178.6460  145.9910 C   0  0  0  0  0  3  0  0  0  0  0  0
  188.7320  177.6030  147.2430 C   0  0  0  0  0  3  0  0  0  0  0  0
  185.3700  178.0440  144.9660 C   0  0  0  0  0  3  0  0  0  0  0  0
  187.0710  177.8830  141.7160 O   0  0  0  0  0  0  0  0  0  0  0  0
  186.3990  179.1080  141.7740 C   0  0  0  0  0  2  0  0  0  0  0  0
  185.0960  179.0020  141.0590 C   0  0  0  0  0  0  0  0  0  0  0  0
  184.1800  178.2790  141.5370 O   0  0  0  0  0  0  0  0  0  0  0  0
  184.8960  179.7210  139.8390 N   0  0  0  0  0  2  0  0  0  0  0  0
  183.6530  179.6400  139.0900 C   0  0  0  0  0  1  0  0  0  0  0  0
  1 12  1  1  0  0  0
  3  1  1  0  0  0  0
  3  2  2  0  0  0  0
  4  7  1  0  0  0  0
  5  6  1  0  0  0  0
  6  3  1  0  0  0  0
  7  6  2  0  0  0  0
  8  4  2  0  0  0  0
  8  5  1  0  0  0  0
  9 10  1  0  0  0  0
  9  4  1  0  0  0  0
 11  9  2  0  0  0  0
 12 18  1  0  0  0  0
 15 13  2  0  0  0  0
 15 14  1  0  0  0  0
 16 21  1  6  0  0  0
 16 15  1  0  0  0  0
 17 20  1  0  0  0  0
 18 16  1  0  0  0  0
 18 17  2  0  0  0  0
 19 13  1  0  0  0  0
 20 14  2  0  0  0  0
 21 19  2  0  0  0  0
 22 23  1  0  0  0  0
 22  1  1  0  0  0  0
 24 25  2  0  0  0  0
 24 23  1  0  0  0  0
 26 24  1  0  0  0  0
 27 26  1  0  0  0  0
M  END
>  <MODEL>
8

>  <REMARK>
 VINA RESULT:      -7.6      2.612      4.744
  Name = 
  8 active torsions:
  status: ('A' for Active; 'I' for Inactive)
    1  A    between atoms: C_5  and  C_13
    2  A    between atoms: C_5  and  C_19
    3  A    between atoms: C_6  and  C_23
    4  A    between atoms: C_7  and  C_8
    5  A    between atoms: C_9  and  C_14
    6  A    between atoms: C_9  and  C_19
    7  A    between atoms: C_19  and  O_20
    8  A    between atoms: O_20  and  C_23
                            x       y       z     vdW  Elec       q    Type
                         _______ _______ _______ _____ _____    ______ ____

>  <TORSDO>
F 8

$$$$
=
 OpenBabel11042412293D

 27 29  0  0  1  0  0  0  0  0999 V2000
  187.5720  178.2310  142.5600 C   0  0  2  0  0  3  0  0  0  0  0  0
  189.9130  178.4630  142.9830 O   0  0  0  0  0  0  0  0  0  0  0  0
  189.0090  178.1910  142.1470 C   0  0  0  0  0  0  0  0  0  0  0  0
  190.1570  176.8820  139.0120 C   0  0  0  0  0  0  0  0  0  0  0  0
  188.9720  178.4950  139.7080 O   0  0  0  0  0  0  0  0  0  0  0  0
  189.3650  177.8320  140.7700 C   0  0  0  0  0  0  0  0  0  0  0  0
  190.1500  176.7570  140.3920 C   0  0  0  0  0  3  0  0  0  0  0  0
  189.4330  177.9480  138.6230 N   0  0  0  0  0  0  0  0  0  0  0  0
  190.8460  175.9850  138.0790 C   0  0  0  0  0  0  0  0  0  0  0  0
  190.4810  174.6460  138.0050 O   0  0  0  0  0  1  0  0  0  0  0  0
  191.7680  176.4210  137.3410 O   0  0  0  0  0  0  0  0  0  0  0  0
  187.2910  177.1360  143.5830 C   0  0  0  0  0  2  0  0  0  0  0  0
  187.8610  178.1620  148.2270 N   0  0  0  0  0  0  0  0  0  0  0  0
  185.7450  178.7580  147.2520 N   0  0  0  0  0  0  0  0  0  0  0  0
  186.9980  178.2530  147.2080 C   0  0  0  0  0  0  0  0  0  0  0  0
  187.5490  177.7240  146.0170 C   0  0  2  0  0  3  0  0  0  0  0  0
  185.5190  178.2340  144.9340 N   0  0  0  0  0  0  0  0  0  0  0  0
  186.7830  177.7210  144.8590 C   0  0  0  0  0  0  0  0  0  0  0  0
  188.9620  177.5750  147.6870 C   0  0  0  0  0  3  0  0  0  0  0  0
  185.0060  178.7460  146.1010 C   0  0  0  0  0  3  0  0  0  0  0  0
  188.8140  177.2840  146.3220 C   0  0  0  0  0  3  0  0  0  0  0  0
  186.7480  178.0740  141.4390 O   0  0  0  0  0  0  0  0  0  0  0  0
  185.9330  179.2100  141.4240 C   0  0  0  0  0  2  0  0  0  0  0  0
  184.7580  178.9750  140.5380 C   0  0  0  0  0  0  0  0  0  0  0  0
  184.5550  179.7420  139.5580 O   0  0  0  0  0  0  0  0  0  0  0  0
  183.8750  177.8830  140.8060 N   0  0  0  0  0  2  0  0  0  0  0  0
  182.7040  177.6180  139.9850 C   0  0  0  0  0  1  0  0  0  0  0  0
  1 12  1  1  0  0  0
  3  1  1  0  0  0  0
  3  2  2  0  0  0  0
  4  7  1  0  0  0  0
  5  6  1  0  0  0  0
  6  3  1  0  0  0  0
  7  6  2  0  0  0  0
  8  4  2  0  0  0  0
  8  5  1  0  0  0  0
  9  4  1  0  0  0  0
 10  9  1  0  0  0  0
 11  9  2  0  0  0  0
 12 18  1  0  0  0  0
 15 14  1  0  0  0  0
 15 13  2  0  0  0  0
 16 21  1  1  0  0  0
 16 15  1  0  0  0  0
 17 20  1  0  0  0  0
 18 17  2  0  0  0  0
 18 16  1  0  0  0  0
 19 13  1  0  0  0  0
 20 14  2  0  0  0  0
 21 19  2  0  0  0  0
 22  1  1  0  0  0  0
 23 22  1  0  0  0  0
 24 26  1  0  0  0  0
 24 23  1  0  0  0  0
 25 24  2  0  0  0  0
 27 26  1  0  0  0  0
M  END
>  <MODEL>
9

>  <REMARK>
 VINA RESULT:      -7.5      2.822      5.039
  Name = 
  8 active torsions:
  status: ('A' for Active; 'I' for Inactive)
    1  A    between atoms: C_5  and  C_13
    2  A    between atoms: C_5  and  C_19
    3  A    between atoms: C_6  and  C_23
    4  A    between atoms: C_7  and  C_8
    5  A    between atoms: C_9  and  C_14
    6  A    between atoms: C_9  and  C_19
    7  A    between atoms: C_19  and  O_20
    8  A    between atoms: O_20  and  C_23
                            x       y       z     vdW  Elec       q    Type
                         _______ _______ _______ _____ _____    ______ ____

>  <TORSDO>
F 8

$$$$
