=
 OpenBabel11032419553D

 41 46  0  0  1  0  0  0  0  0999 V2000
  185.8620  178.6290  140.1220 C   0  0  0  0  0  3  0  0  0  0  0  0
  186.8300  178.4730  141.3110 C   0  0  0  0  0  0  0  0  0  0  0  0
  184.9580  178.4590  143.0070 C   0  0  0  0  0  0  0  0  0  0  0  0
  183.1200  178.7280  140.3440 C   0  0  1  0  0  0  0  0  0  0  0  0
  186.3940  178.4150  142.6090 C   0  0  0  0  0  3  0  0  0  0  0  0
  182.6900  178.6440  141.6870 N   0  0  0  0  0  2  0  0  0  0  0  0
  184.4980  178.6470  140.6150 N   0  0  0  0  0  0  0  0  0  0  0  0
  184.1220  178.5710  142.0010 C   0  0  2  0  0  0  0  0  0  0  0  0
  188.2920  178.4470  141.0610 C   0  0  0  0  0  0  0  0  0  0  0  0
  188.7390  179.0100  140.0230 O   0  0  0  0  0  0  0  0  0  0  0  0
  190.2110  178.5130  142.6920 C   0  0  0  0  0  3  0  0  0  0  0  0
  191.0910  176.4720  143.6540 C   0  0  0  0  0  3  0  0  0  0  0  0
  189.2420  176.3810  142.0940 C   0  0  0  0  0  3  0  0  0  0  0  0
  190.1510  175.7300  142.9340 C   0  0  0  0  0  3  0  0  0  0  0  0
  189.2540  177.7810  141.9730 C   0  0  0  0  0  0  0  0  0  0  0  0
  191.1220  177.8640  143.5320 C   0  0  0  0  0  3  0  0  0  0  0  0
  184.5060  178.3890  144.4240 C   0  0  0  0  0  2  0  0  0  0  0  0
  185.1420  179.5050  145.2300 C   0  0  0  0  0  2  0  0  0  0  0  0
  185.4380  179.0270  146.5700 N   0  0  0  0  0  2  0  0  0  0  0  0
  187.3780  177.8680  145.8760 C   0  0  0  0  0  3  0  0  0  0  0  0
  189.4560  178.0520  148.1160 C   0  0  0  0  0  3  0  0  0  0  0  0
  188.1810  177.9340  148.8450 C   0  0  0  0  0  3  0  0  0  0  0  0
  189.6440  177.6870  146.8470 C   0  0  0  0  0  3  0  0  0  0  0  0
  186.9570  178.0390  148.3150 C   0  0  0  0  0  3  0  0  0  0  0  0
  186.6280  178.3020  146.8920 C   0  0  0  0  0  0  0  0  0  0  0  0
  188.5910  177.0120  146.0350 C   0  0  0  0  0  2  0  0  0  0  0  0
  182.6560  177.4980  139.5690 C   0  0  0  0  0  2  0  0  0  0  0  0
  182.7470  177.7360  138.0710 C   0  0  0  0  0  2  0  0  0  0  0  0
  183.3560  176.5900  137.4200 N   0  0  0  0  0  2  0  0  0  0  0  0
  184.6790  176.9500  137.1310 N   0  0  0  0  0  2  0  0  0  0  0  0
  185.4780  175.7380  137.2330 C   0  0  0  0  0  2  0  0  0  0  0  0
  189.9780  176.2390  138.3320 C   0  0  0  0  0  2  0  0  0  0  0  0
  186.8190  175.9040  136.5240 C   0  0  2  0  0  3  0  0  0  0  0  0
  187.5070  174.5490  136.2980 C   0  0  0  0  0  2  0  0  0  0  0  0
  187.7740  176.7900  137.3390 C   0  0  1  0  0  3  0  0  0  0  0  0
  188.8130  174.6650  136.9150 N   0  0  0  0  0  0  0  0  0  0  0  0
  189.7630  173.5660  136.9920 C   0  0  0  0  0  1  0  0  0  0  0  0
  188.9790  175.9400  137.5060 C   0  0  0  0  0  0  0  0  0  0  0  0
  188.8560  178.0390  135.5970 O   0  0  0  0  0  0  0  0  0  0  0  0
  187.4940  179.2430  136.9910 O   0  0  0  0  0  1  0  0  0  0  0  0
  188.0830  178.0500  136.5920 C   0  0  0  0  0  0  0  0  0  0  0  0
  1  7  1  0  0  0  0
  1  2  2  0  0  0  0
  2  5  1  0  0  0  0
  3 17  1  0  0  0  0
  4 27  1  6  0  0  0
  4  7  1  0  0  0  0
  4  6  1  0  0  0  0
  4  8  1  0  0  0  0
  5  3  2  0  0  0  0
  7  8  1  0  0  0  0
  8  6  1  6  0  0  0
  8  3  1  0  0  0  0
  9  2  1  0  0  0  0
  9 15  1  0  0  0  0
 10  9  2  0  0  0  0
 11 16  1  0  0  0  0
 13 14  2  0  0  0  0
 14 12  1  0  0  0  0
 15 13  1  0  0  0  0
 15 11  2  0  0  0  0
 16 12  2  0  0  0  0
 17 18  1  0  0  0  0
 18 19  1  0  0  0  0
 19 25  1  0  0  0  0
 20 26  1  0  0  0  0
 20 25  2  0  0  0  0
 21 22  1  0  0  0  0
 23 21  2  0  0  0  0
 24 22  2  0  0  0  0
 25 24  1  0  0  0  0
 26 23  1  0  0  0  0
 28 27  1  0  0  0  0
 29 28  1  0  0  0  0
 30 31  1  0  0  0  0
 30 29  1  0  0  0  0
 33 31  1  1  0  0  0
 33 35  1  0  0  0  0
 34 33  1  0  0  0  0
 34 36  1  0  0  0  0
 35 41  1  6  0  0  0
 35 38  1  0  0  0  0
 36 37  1  0  0  0  0
 36 38  1  0  0  0  0
 38 32  2  0  0  0  0
 39 41  2  0  0  0  0
 41 40  1  0  0  0  0
M  END
>  <MODEL>
1

>  <REMARK>
 VINA RESULT:      -8.1      0.000      0.000
  Name = 
  13 active torsions:
  status: ('A' for Active; 'I' for Inactive)
    1  A    between atoms: C_2  and  N_10
    2  A    between atoms: C_2  and  C_11
    3  A    between atoms: N_4  and  C_20
    4  A    between atoms: N_4  and  C_25
    5  A    between atoms: C_9  and  C_19
    6  A    between atoms: C_9  and  C_20
    7  A    between atoms: N_10  and  N_18
    8  A    between atoms: C_11  and  C_21
    9  A    between atoms: C_16  and  C_22
   10  A    between atoms: N_18  and  C_41
   11  A    between atoms: C_22  and  C_31
   12  A    between atoms: C_29  and  C_41
   13  A    between atoms: C_33  and  C_36
                            x       y       z     vdW  Elec       q    Type
                         _______ _______ _______ _____ _____    ______ ____

>  <TORSDO>
F 13

$$$$
=
 OpenBabel11032419553D

 41 46  0  0  1  0  0  0  0  0999 V2000
  186.0830  177.9770  143.0420 C   0  0  0  0  0  3  0  0  0  0  0  0
  187.3210  177.2890  143.6500 C   0  0  0  0  0  0  0  0  0  0  0  0
  186.7790  178.0780  145.9880 C   0  0  0  0  0  0  0  0  0  0  0  0
  184.2150  179.3880  144.4890 C   0  0  1  0  0  0  0  0  0  0  0  0
  187.6210  177.3640  144.9850 C   0  0  0  0  0  3  0  0  0  0  0  0
  184.5290  179.4350  145.8650 N   0  0  0  0  0  2  0  0  0  0  0  0
  185.3300  178.6260  144.0980 N   0  0  0  0  0  0  0  0  0  0  0  0
  185.7100  178.6500  145.4850 C   0  0  2  0  0  0  0  0  0  0  0  0
  188.2640  176.5680  142.7590 C   0  0  0  0  0  0  0  0  0  0  0  0
  188.6400  175.4090  143.0880 O   0  0  0  0  0  0  0  0  0  0  0  0
  188.0270  178.0360  140.7250 C   0  0  0  0  0  3  0  0  0  0  0  0
  189.8130  178.1950  139.0970 C   0  0  0  0  0  3  0  0  0  0  0  0
  190.0690  176.7830  141.0470 C   0  0  0  0  0  3  0  0  0  0  0  0
  190.5800  177.3050  139.8540 C   0  0  0  0  0  3  0  0  0  0  0  0
  188.7920  177.1510  141.5010 C   0  0  0  0  0  0  0  0  0  0  0  0
  188.5360  178.5590  139.5320 C   0  0  0  0  0  3  0  0  0  0  0  0
  187.1210  178.1430  147.4360 C   0  0  0  0  0  2  0  0  0  0  0  0
  188.1550  177.0870  147.7760 C   0  0  0  0  0  2  0  0  0  0  0  0
  189.4800  177.6840  147.7630 N   0  0  0  0  0  2  0  0  0  0  0  0
  191.1940  176.0890  147.4360 C   0  0  0  0  0  3  0  0  0  0  0  0
  191.7340  175.8640  144.4320 C   0  0  0  0  0  3  0  0  0  0  0  0
  191.4440  177.2970  144.6180 C   0  0  0  0  0  3  0  0  0  0  0  0
  192.1180  175.0340  145.4010 C   0  0  0  0  0  3  0  0  0  0  0  0
  190.9380  177.8630  145.7200 C   0  0  0  0  0  3  0  0  0  0  0  0
  190.5570  177.1690  146.9760 C   0  0  0  0  0  0  0  0  0  0  0  0
  192.4000  175.4890  146.7920 C   0  0  0  0  0  2  0  0  0  0  0  0
  182.9280  178.5960  144.2730 C   0  0  0  0  0  2  0  0  0  0  0  0
  182.2660  178.9840  142.9620 C   0  0  0  0  0  2  0  0  0  0  0  0
  180.8560  179.2580  143.1770 N   0  0  0  0  0  2  0  0  0  0  0  0
  180.1610  178.6070  142.1500 N   0  0  0  0  0  2  0  0  0  0  0  0
  179.8020  179.6230  141.1730 C   0  0  0  0  0  2  0  0  0  0  0  0
  183.9460  179.3480  139.0610 C   0  0  0  0  0  2  0  0  0  0  0  0
  180.3660  179.2830  139.7960 C   0  0  2  0  0  3  0  0  0  0  0  0
  180.7390  177.7950  139.6940 C   0  0  0  0  0  2  0  0  0  0  0  0
  181.6260  180.1080  139.4910 C   0  0  1  0  0  3  0  0  0  0  0  0
  182.1340  177.7670  139.3040 N   0  0  0  0  0  0  0  0  0  0  0  0
  182.9040  176.5400  139.1710 C   0  0  0  0  0  1  0  0  0  0  0  0
  182.6490  179.0790  139.1800 C   0  0  0  0  0  0  0  0  0  0  0  0
  181.8660  182.1820  138.3050 O   0  0  0  0  0  1  0  0  0  0  0  0
  180.6300  180.5680  137.2510 O   0  0  0  0  0  0  0  0  0  0  0  0
  181.3830  181.0190  138.3270 C   0  0  0  0  0  0  0  0  0  0  0  0
  1  2  2  0  0  0  0
  1  7  1  0  0  0  0
  2  5  1  0  0  0  0
  3 17  1  0  0  0  0
  4 27  1  1  0  0  0
  4  8  1  0  0  0  0
  4  6  1  0  0  0  0
  5  3  2  0  0  0  0
  7  4  1  0  0  0  0
  7  8  1  0  0  0  0
  8  6  1  1  0  0  0
  8  3  1  0  0  0  0
  9 10  2  0  0  0  0
  9  2  1  0  0  0  0
 11 15  1  0  0  0  0
 12 16  1  0  0  0  0
 12 14  2  0  0  0  0
 13 15  2  0  0  0  0
 14 13  1  0  0  0  0
 15  9  1  0  0  0  0
 16 11  2  0  0  0  0
 17 18  1  0  0  0  0
 19 18  1  0  0  0  0
 21 22  1  0  0  0  0
 21 23  2  0  0  0  0
 22 24  2  0  0  0  0
 23 26  1  0  0  0  0
 24 25  1  0  0  0  0
 25 20  2  0  0  0  0
 25 19  1  0  0  0  0
 26 20  1  0  0  0  0
 28 29  1  0  0  0  0
 28 27  1  0  0  0  0
 30 29  1  0  0  0  0
 31 30  1  0  0  0  0
 32 38  2  0  0  0  0
 33 31  1  1  0  0  0
 34 33  1  0  0  0  0
 35 41  1  6  0  0  0
 35 33  1  0  0  0  0
 36 34  1  0  0  0  0
 37 36  1  0  0  0  0
 38 36  1  0  0  0  0
 38 35  1  0  0  0  0
 39 41  1  0  0  0  0
 40 41  2  0  0  0  0
M  END
>  <MODEL>
2

>  <REMARK>
 VINA RESULT:      -7.7      3.030      5.405
  Name = 
  13 active torsions:
  status: ('A' for Active; 'I' for Inactive)
    1  A    between atoms: C_2  and  N_10
    2  A    between atoms: C_2  and  C_11
    3  A    between atoms: N_4  and  C_20
    4  A    between atoms: N_4  and  C_25
    5  A    between atoms: C_9  and  C_19
    6  A    between atoms: C_9  and  C_20
    7  A    between atoms: N_10  and  N_18
    8  A    between atoms: C_11  and  C_21
    9  A    between atoms: C_16  and  C_22
   10  A    between atoms: N_18  and  C_41
   11  A    between atoms: C_22  and  C_31
   12  A    between atoms: C_29  and  C_41
   13  A    between atoms: C_33  and  C_36
                            x       y       z     vdW  Elec       q    Type
                         _______ _______ _______ _____ _____    ______ ____

>  <TORSDO>
F 13

$$$$
=
 OpenBabel11032419553D

 41 46  0  0  1  0  0  0  0  0999 V2000
  187.1740  177.6810  138.8530 C   0  0  0  0  0  3  0  0  0  0  0  0
  186.8240  178.4150  140.1620 C   0  0  0  0  0  0  0  0  0  0  0  0
  189.0210  177.8040  141.2500 C   0  0  0  0  0  0  0  0  0  0  0  0
  189.5530  176.3790  138.3820 C   0  0  1  0  0  0  0  0  0  0  0  0
  187.6730  178.4420  141.2370 C   0  0  0  0  0  3  0  0  0  0  0  0
  190.4220  176.4360  139.4930 N   0  0  0  0  0  2  0  0  0  0  0  0
  188.5030  177.1110  138.9640 N   0  0  0  0  0  0  0  0  0  0  0  0
  189.3380  177.1930  140.1330 C   0  0  2  0  0  0  0  0  0  0  0  0
  185.4990  179.0700  140.2980 C   0  0  0  0  0  0  0  0  0  0  0  0
  185.0150  179.6700  139.2990 O   0  0  0  0  0  0  0  0  0  0  0  0
  185.2550  179.5500  142.7600 C   0  0  0  0  0  3  0  0  0  0  0  0
  183.2220  178.9660  143.9400 C   0  0  0  0  0  3  0  0  0  0  0  0
  183.4290  178.5000  141.5740 C   0  0  0  0  0  3  0  0  0  0  0  0
  182.6820  178.4590  142.7550 C   0  0  0  0  0  3  0  0  0  0  0  0
  184.7190  179.0560  141.5610 C   0  0  0  0  0  0  0  0  0  0  0  0
  184.5100  179.5100  143.9420 C   0  0  0  0  0  3  0  0  0  0  0  0
  189.9290  177.8480  142.4290 C   0  0  0  0  0  2  0  0  0  0  0  0
  189.9830  176.4880  143.0970 C   0  0  0  0  0  2  0  0  0  0  0  0
  188.7980  176.3040  143.9170 N   0  0  0  0  0  2  0  0  0  0  0  0
  187.2830  177.5300  145.2560 C   0  0  0  0  0  3  0  0  0  0  0  0
  188.3010  177.4820  148.1430 C   0  0  0  0  0  3  0  0  0  0  0  0
  189.5390  177.5610  147.3480 C   0  0  0  0  0  3  0  0  0  0  0  0
  187.0910  177.8270  147.7030 C   0  0  0  0  0  3  0  0  0  0  0  0
  189.6390  177.3930  146.0240 C   0  0  0  0  0  3  0  0  0  0  0  0
  188.5310  177.0850  145.0850 C   0  0  0  0  0  0  0  0  0  0  0  0
  186.8620  178.4390  146.3630 C   0  0  0  0  0  2  0  0  0  0  0  0
  190.1530  177.1490  137.2090 C   0  0  0  0  0  2  0  0  0  0  0  0
  189.7270  176.5380  135.8850 C   0  0  0  0  0  2  0  0  0  0  0  0
  189.4660  175.1200  136.0520 N   0  0  0  0  0  2  0  0  0  0  0  0
  190.4410  174.4420  135.3080 N   0  0  0  0  0  2  0  0  0  0  0  0
  191.2920  173.7460  136.2620 C   0  0  0  0  0  2  0  0  0  0  0  0
  195.2670  173.5410  138.6840 C   0  0  0  0  0  2  0  0  0  0  0  0
  192.7480  174.1750  136.1120 C   0  0  2  0  0  3  0  0  0  0  0  0
  193.6050  173.0510  135.5060 C   0  0  0  0  0  2  0  0  0  0  0  0
  193.3600  174.5570  137.4690 C   0  0  1  0  0  3  0  0  0  0  0  0
  194.6830  172.8300  136.4490 N   0  0  0  0  0  0  0  0  0  0  0  0
  195.6840  171.7870  136.2900 C   0  0  0  0  0  1  0  0  0  0  0  0
  194.5570  173.6860  137.5690 C   0  0  0  0  0  0  0  0  0  0  0  0
  194.1520  176.5800  136.4460 O   0  0  0  0  0  0  0  0  0  0  0  0
  193.5780  176.7380  138.6590 O   0  0  0  0  0  1  0  0  0  0  0  0
  193.7270  176.0090  137.4850 C   0  0  0  0  0  0  0  0  0  0  0  0
  1  7  1  0  0  0  0
  1  2  2  0  0  0  0
  2  9  1  0  0  0  0
  2  5  1  0  0  0  0
  3 17  1  0  0  0  0
  4 27  1  6  0  0  0
  4  7  1  0  0  0  0
  4  6  1  0  0  0  0
  4  8  1  0  0  0  0
  5  3  2  0  0  0  0
  7  8  1  0  0  0  0
  8  6  1  6  0  0  0
  8  3  1  0  0  0  0
  9 15  1  0  0  0  0
 10  9  2  0  0  0  0
 11 16  1  0  0  0  0
 12 16  2  0  0  0  0
 13 14  2  0  0  0  0
 14 12  1  0  0  0  0
 15 13  1  0  0  0  0
 15 11  2  0  0  0  0
 17 18  1  0  0  0  0
 18 19  1  0  0  0  0
 19 25  1  0  0  0  0
 20 26  1  0  0  0  0
 22 21  1  0  0  0  0
 23 21  2  0  0  0  0
 24 22  2  0  0  0  0
 25 20  2  0  0  0  0
 25 24  1  0  0  0  0
 26 23  1  0  0  0  0
 28 29  1  0  0  0  0
 28 27  1  0  0  0  0
 30 29  1  0  0  0  0
 30 31  1  0  0  0  0
 33 31  1  1  0  0  0
 33 35  1  0  0  0  0
 34 33  1  0  0  0  0
 34 36  1  0  0  0  0
 35 41  1  6  0  0  0
 35 38  1  0  0  0  0
 36 38  1  0  0  0  0
 37 36  1  0  0  0  0
 38 32  2  0  0  0  0
 39 41  2  0  0  0  0
 41 40  1  0  0  0  0
M  END
>  <MODEL>
3

>  <REMARK>
 VINA RESULT:      -7.7      2.922      5.509
  Name = 
  13 active torsions:
  status: ('A' for Active; 'I' for Inactive)
    1  A    between atoms: C_2  and  N_10
    2  A    between atoms: C_2  and  C_11
    3  A    between atoms: N_4  and  C_20
    4  A    between atoms: N_4  and  C_25
    5  A    between atoms: C_9  and  C_19
    6  A    between atoms: C_9  and  C_20
    7  A    between atoms: N_10  and  N_18
    8  A    between atoms: C_11  and  C_21
    9  A    between atoms: C_16  and  C_22
   10  A    between atoms: N_18  and  C_41
   11  A    between atoms: C_22  and  C_31
   12  A    between atoms: C_29  and  C_41
   13  A    between atoms: C_33  and  C_36
                            x       y       z     vdW  Elec       q    Type
                         _______ _______ _______ _____ _____    ______ ____

>  <TORSDO>
F 13

$$$$
=
 OpenBabel11032419553D

 41 46  0  0  1  0  0  0  0  0999 V2000
  185.9590  178.9700  141.4650 C   0  0  0  0  0  3  0  0  0  0  0  0
  187.2340  178.1880  141.8380 C   0  0  0  0  0  0  0  0  0  0  0  0
  186.3980  177.6700  144.1650 C   0  0  0  0  0  0  0  0  0  0  0  0
  183.7940  179.3100  143.1300 C   0  0  1  0  0  0  0  0  0  0  0  0
  187.4120  177.6220  143.0730 C   0  0  0  0  0  3  0  0  0  0  0  0
  183.9880  178.7020  144.3890 N   0  0  0  0  0  2  0  0  0  0  0  0
  185.0370  178.9440  142.5840 N   0  0  0  0  0  0  0  0  0  0  0  0
  185.2990  178.3170  143.8520 C   0  0  2  0  0  0  0  0  0  0  0  0
  188.3400  178.0870  140.8540 C   0  0  0  0  0  0  0  0  0  0  0  0
  189.5050  177.8450  141.2770 O   0  0  0  0  0  0  0  0  0  0  0  0
  189.1630  178.7620  138.5700 C   0  0  0  0  0  3  0  0  0  0  0  0
  187.7040  178.6340  136.6410 C   0  0  0  0  0  3  0  0  0  0  0  0
  186.8920  177.9730  138.8230 C   0  0  0  0  0  3  0  0  0  0  0  0
  186.6750  178.1510  137.4530 C   0  0  0  0  0  3  0  0  0  0  0  0
  188.1410  178.2660  139.3950 C   0  0  0  0  0  0  0  0  0  0  0  0
  188.9480  178.9410  137.2000 C   0  0  0  0  0  3  0  0  0  0  0  0
  186.6110  177.0450  145.5000 C   0  0  0  0  0  2  0  0  0  0  0  0
  187.0210  178.0990  146.5100 C   0  0  0  0  0  2  0  0  0  0  0  0
  188.1680  177.6240  147.2650 N   0  0  0  0  0  2  0  0  0  0  0  0
  190.2980  176.5970  147.2570 C   0  0  0  0  0  3  0  0  0  0  0  0
  191.4080  176.7170  144.4070 C   0  0  0  0  0  3  0  0  0  0  0  0
  190.6910  177.9970  144.5460 C   0  0  0  0  0  3  0  0  0  0  0  0
  191.8340  175.9690  145.4250 C   0  0  0  0  0  3  0  0  0  0  0  0
  189.8550  178.3290  145.5360 C   0  0  0  0  0  3  0  0  0  0  0  0
  189.4710  177.4810  146.6920 C   0  0  0  0  0  0  0  0  0  0  0  0
  191.7200  176.3990  146.8480 C   0  0  0  0  0  2  0  0  0  0  0  0
  182.6590  178.6150  142.3820 C   0  0  0  0  0  2  0  0  0  0  0  0
  181.3150  179.2080  142.7650 C   0  0  0  0  0  2  0  0  0  0  0  0
  180.2430  178.3160  142.3590 N   0  0  0  0  0  2  0  0  0  0  0  0
  180.2620  178.2780  140.9590 N   0  0  0  0  0  2  0  0  0  0  0  0
  179.7620  179.5640  140.4940 C   0  0  0  0  0  2  0  0  0  0  0  0
  182.7400  177.7760  137.3880 C   0  0  0  0  0  2  0  0  0  0  0  0
  180.3160  179.9010  139.1130 C   0  0  2  0  0  3  0  0  0  0  0  0
  179.4880  179.2420  137.9990 C   0  0  0  0  0  2  0  0  0  0  0  0
  181.7700  179.4250  138.9650 C   0  0  1  0  0  3  0  0  0  0  0  0
  180.4280  178.4610  137.2210 N   0  0  0  0  0  0  0  0  0  0  0  0
  180.0350  177.6120  136.1070 C   0  0  0  0  0  1  0  0  0  0  0  0
  181.7330  178.5630  137.7580 C   0  0  0  0  0  0  0  0  0  0  0  0
  182.2330  181.7250  138.4520 O   0  0  0  0  0  0  0  0  0  0  0  0
  184.0490  180.4390  138.9970 O   0  0  0  0  0  1  0  0  0  0  0  0
  182.6860  180.5970  138.7820 C   0  0  0  0  0  0  0  0  0  0  0  0
  1  2  2  0  0  0  0
  1  7  1  0  0  0  0
  2  5  1  0  0  0  0
  3 17  1  0  0  0  0
  4 27  1  6  0  0  0
  4  8  1  0  0  0  0
  4  6  1  0  0  0  0
  5  3  2  0  0  0  0
  7  4  1  0  0  0  0
  7  8  1  0  0  0  0
  8  3  1  1  0  0  0
  8  6  1  0  0  0  0
  9 10  2  0  0  0  0
  9  2  1  0  0  0  0
 11 15  1  0  0  0  0
 12 16  1  0  0  0  0
 12 14  2  0  0  0  0
 13 15  2  0  0  0  0
 14 13  1  0  0  0  0
 15  9  1  0  0  0  0
 16 11  2  0  0  0  0
 17 18  1  0  0  0  0
 18 19  1  0  0  0  0
 21 22  1  0  0  0  0
 21 23  2  0  0  0  0
 22 24  2  0  0  0  0
 23 26  1  0  0  0  0
 24 25  1  0  0  0  0
 25 20  2  0  0  0  0
 25 19  1  0  0  0  0
 26 20  1  0  0  0  0
 27 28  1  0  0  0  0
 29 28  1  0  0  0  0
 30 29  1  0  0  0  0
 31 30  1  0  0  0  0
 32 38  2  0  0  0  0
 33 31  1  1  0  0  0
 34 33  1  0  0  0  0
 35 41  1  6  0  0  0
 35 33  1  0  0  0  0
 36 38  1  0  0  0  0
 36 34  1  0  0  0  0
 37 36  1  0  0  0  0
 38 35  1  0  0  0  0
 39 41  2  0  0  0  0
 41 40  1  0  0  0  0
M  END
>  <MODEL>
4

>  <REMARK>
 VINA RESULT:      -7.6      2.701      5.343
  Name = 
  13 active torsions:
  status: ('A' for Active; 'I' for Inactive)
    1  A    between atoms: C_2  and  N_10
    2  A    between atoms: C_2  and  C_11
    3  A    between atoms: N_4  and  C_20
    4  A    between atoms: N_4  and  C_25
    5  A    between atoms: C_9  and  C_19
    6  A    between atoms: C_9  and  C_20
    7  A    between atoms: N_10  and  N_18
    8  A    between atoms: C_11  and  C_21
    9  A    between atoms: C_16  and  C_22
   10  A    between atoms: N_18  and  C_41
   11  A    between atoms: C_22  and  C_31
   12  A    between atoms: C_29  and  C_41
   13  A    between atoms: C_33  and  C_36
                            x       y       z     vdW  Elec       q    Type
                         _______ _______ _______ _____ _____    ______ ____

>  <TORSDO>
F 13

$$$$
=
 OpenBabel11032419553D

 41 46  0  0  1  0  0  0  0  0999 V2000
  186.9900  177.7600  138.7360 C   0  0  0  0  0  3  0  0  0  0  0  0
  186.7720  178.3630  140.1370 C   0  0  0  0  0  0  0  0  0  0  0  0
  188.9760  177.4850  141.0050 C   0  0  0  0  0  0  0  0  0  0  0  0
  189.2340  176.3620  137.9700 C   0  0  1  0  0  0  0  0  0  0  0  0
  187.6810  178.2100  141.1510 C   0  0  0  0  0  3  0  0  0  0  0  0
  190.1680  176.2340  139.0210 N   0  0  0  0  0  2  0  0  0  0  0  0
  188.2770  177.0930  138.6970 N   0  0  0  0  0  0  0  0  0  0  0  0
  189.1820  176.9850  139.8090 C   0  0  2  0  0  0  0  0  0  0  0  0
  185.5090  179.0850  140.4310 C   0  0  0  0  0  0  0  0  0  0  0  0
  184.9850  179.7820  139.5190 O   0  0  0  0  0  0  0  0  0  0  0  0
  183.6360  178.3290  141.9370 C   0  0  0  0  0  3  0  0  0  0  0  0
  183.5740  178.9930  144.2660 C   0  0  0  0  0  3  0  0  0  0  0  0
  185.3890  179.7270  142.8420 C   0  0  0  0  0  3  0  0  0  0  0  0
  184.7640  179.7050  144.0920 C   0  0  0  0  0  3  0  0  0  0  0  0
  184.8380  179.0300  141.7530 C   0  0  0  0  0  0  0  0  0  0  0  0
  183.0090  178.3070  143.1870 C   0  0  0  0  0  3  0  0  0  0  0  0
  189.9520  177.3340  142.1200 C   0  0  0  0  0  2  0  0  0  0  0  0
  189.8070  178.4830  143.0990 C   0  0  0  0  0  2  0  0  0  0  0  0
  190.1520  178.0260  144.4350 N   0  0  0  0  0  2  0  0  0  0  0  0
  189.5470  177.7330  146.7020 C   0  0  0  0  0  3  0  0  0  0  0  0
  186.5300  178.1800  146.9540 C   0  0  0  0  0  3  0  0  0  0  0  0
  186.6650  177.5090  145.6490 C   0  0  0  0  0  3  0  0  0  0  0  0
  187.4400  178.1420  147.9270 C   0  0  0  0  0  3  0  0  0  0  0  0
  187.8090  177.2950  144.9870 C   0  0  0  0  0  3  0  0  0  0  0  0
  189.1710  177.6940  145.4210 C   0  0  0  0  0  0  0  0  0  0  0  0
  188.6800  177.3190  147.8440 C   0  0  0  0  0  2  0  0  0  0  0  0
  189.8200  177.2190  136.8510 C   0  0  0  0  0  2  0  0  0  0  0  0
  189.0940  176.9690  135.5400 C   0  0  0  0  0  2  0  0  0  0  0  0
  188.5560  175.6200  135.5180 N   0  0  0  0  0  2  0  0  0  0  0  0
  187.3980  175.6640  134.7310 N   0  0  0  0  0  2  0  0  0  0  0  0
  186.4610  176.5490  135.4080 C   0  0  0  0  0  2  0  0  0  0  0  0
  183.2040  176.0690  138.7040 C   0  0  0  0  0  2  0  0  0  0  0  0
  185.1040  175.8750  135.5880 C   0  0  2  0  0  3  0  0  0  0  0  0
  183.9510  176.8320  135.2470 C   0  0  0  0  0  2  0  0  0  0  0  0
  184.9080  175.3950  137.0350 C   0  0  1  0  0  3  0  0  0  0  0  0
  183.1080  176.8660  136.4250 N   0  0  0  0  0  0  0  0  0  0  0  0
  181.9380  177.7210  136.5470 C   0  0  0  0  0  1  0  0  0  0  0  0
  183.6400  176.0470  137.4480 C   0  0  0  0  0  0  0  0  0  0  0  0
  184.0960  173.2770  136.2470 O   0  0  0  0  0  0  0  0  0  0  0  0
  185.5160  173.1970  138.0430 O   0  0  0  0  0  1  0  0  0  0  0  0
  184.8050  173.9020  137.0800 C   0  0  0  0  0  0  0  0  0  0  0  0
  1  2  2  0  0  0  0
  2  9  1  0  0  0  0
  2  5  1  0  0  0  0
  3  5  2  0  0  0  0
  3 17  1  0  0  0  0
  4 27  1  6  0  0  0
  4  7  1  0  0  0  0
  4  6  1  0  0  0  0
  4  8  1  0  0  0  0
  7  1  1  0  0  0  0
  7  8  1  0  0  0  0
  8  6  1  6  0  0  0
  8  3  1  0  0  0  0
  9 15  1  0  0  0  0
 10  9  2  0  0  0  0
 11 16  1  0  0  0  0
 13 14  2  0  0  0  0
 14 12  1  0  0  0  0
 15 11  2  0  0  0  0
 15 13  1  0  0  0  0
 16 12  2  0  0  0  0
 17 18  1  0  0  0  0
 18 19  1  0  0  0  0
 19 25  1  0  0  0  0
 20 26  1  0  0  0  0
 21 23  2  0  0  0  0
 22 21  1  0  0  0  0
 24 25  1  0  0  0  0
 24 22  2  0  0  0  0
 25 20  2  0  0  0  0
 26 23  1  0  0  0  0
 28 27  1  0  0  0  0
 29 28  1  0  0  0  0
 30 31  1  0  0  0  0
 30 29  1  0  0  0  0
 33 31  1  1  0  0  0
 33 35  1  0  0  0  0
 34 33  1  0  0  0  0
 34 36  1  0  0  0  0
 35 41  1  6  0  0  0
 35 38  1  0  0  0  0
 36 37  1  0  0  0  0
 36 38  1  0  0  0  0
 38 32  2  0  0  0  0
 39 41  2  0  0  0  0
 41 40  1  0  0  0  0
M  END
>  <MODEL>
5

>  <REMARK>
 VINA RESULT:      -7.4      2.282      5.270
  Name = 
  13 active torsions:
  status: ('A' for Active; 'I' for Inactive)
    1  A    between atoms: C_2  and  N_10
    2  A    between atoms: C_2  and  C_11
    3  A    between atoms: N_4  and  C_20
    4  A    between atoms: N_4  and  C_25
    5  A    between atoms: C_9  and  C_19
    6  A    between atoms: C_9  and  C_20
    7  A    between atoms: N_10  and  N_18
    8  A    between atoms: C_11  and  C_21
    9  A    between atoms: C_16  and  C_22
   10  A    between atoms: N_18  and  C_41
   11  A    between atoms: C_22  and  C_31
   12  A    between atoms: C_29  and  C_41
   13  A    between atoms: C_33  and  C_36
                            x       y       z     vdW  Elec       q    Type
                         _______ _______ _______ _____ _____    ______ ____

>  <TORSDO>
F 13

$$$$
=
 OpenBabel11032419553D

 41 46  0  0  1  0  0  0  0  0999 V2000
  189.9490  177.4550  142.2740 C   0  0  0  0  0  3  0  0  0  0  0  0
  189.0300  177.4520  143.5100 C   0  0  0  0  0  0  0  0  0  0  0  0
  187.0010  178.1370  142.1700 C   0  0  0  0  0  0  0  0  0  0  0  0
  189.1180  178.0190  139.7110 C   0  0  1  0  0  0  0  0  0  0  0  0
  187.7010  177.7790  143.4370 C   0  0  0  0  0  3  0  0  0  0  0  0
  187.7420  178.3330  139.6530 N   0  0  0  0  0  2  0  0  0  0  0  0
  189.1710  177.7990  141.0990 N   0  0  0  0  0  0  0  0  0  0  0  0
  187.7700  178.1230  141.1060 C   0  0  2  0  0  0  0  0  0  0  0  0
  189.6030  177.1440  144.8440 C   0  0  0  0  0  0  0  0  0  0  0  0
  190.6990  176.5200  144.9020 O   0  0  0  0  0  0  0  0  0  0  0  0
  189.6760  177.7170  147.2970 C   0  0  0  0  0  3  0  0  0  0  0  0
  187.6420  178.2180  148.5120 C   0  0  0  0  0  3  0  0  0  0  0  0
  187.5460  177.6780  146.1550 C   0  0  0  0  0  3  0  0  0  0  0  0
  186.8980  178.0240  147.3450 C   0  0  0  0  0  3  0  0  0  0  0  0
  188.9420  177.5310  146.1150 C   0  0  0  0  0  0  0  0  0  0  0  0
  189.0310  178.0630  148.4880 C   0  0  0  0  0  3  0  0  0  0  0  0
  185.5540  178.4860  142.1120 C   0  0  0  0  0  2  0  0  0  0  0  0
  184.9450  178.4140  143.4980 C   0  0  0  0  0  2  0  0  0  0  0  0
  183.8180  179.3280  143.5800 N   0  0  0  0  0  2  0  0  0  0  0  0
  181.5850  178.8310  144.1750 C   0  0  0  0  0  3  0  0  0  0  0  0
  179.7910  179.4640  141.7780 C   0  0  0  0  0  3  0  0  0  0  0  0
  181.0160  178.9330  141.1540 C   0  0  0  0  0  3  0  0  0  0  0  0
  179.4290  179.2540  143.0430 C   0  0  0  0  0  3  0  0  0  0  0  0
  182.1830  178.7120  141.7700 C   0  0  0  0  0  3  0  0  0  0  0  0
  182.4890  178.9620  143.2010 C   0  0  0  0  0  0  0  0  0  0  0  0
  180.1860  178.3570  143.9620 C   0  0  0  0  0  2  0  0  0  0  0  0
  189.3910  176.7210  138.9560 C   0  0  0  0  0  2  0  0  0  0  0  0
  189.7600  177.0020  137.5100 C   0  0  0  0  0  2  0  0  0  0  0  0
  190.2480  175.7910  136.8760 N   0  0  0  0  0  2  0  0  0  0  0  0
  190.9060  175.0540  137.8700 N   0  0  0  0  0  2  0  0  0  0  0  0
  192.0240  174.3810  137.2260 C   0  0  0  0  0  2  0  0  0  0  0  0
  196.4260  174.4000  135.7000 C   0  0  0  0  0  2  0  0  0  0  0  0
  193.3400  175.0880  137.5340 C   0  0  2  0  0  3  0  0  0  0  0  0
  193.5250  176.3390  136.6600 C   0  0  0  0  0  2  0  0  0  0  0  0
  194.5410  174.1610  137.2920 C   0  0  1  0  0  3  0  0  0  0  0  0
  194.7930  176.1590  135.9820 N   0  0  0  0  0  0  0  0  0  0  0  0
  195.3100  177.0900  134.9920 C   0  0  0  0  0  1  0  0  0  0  0  0
  195.3840  174.9240  136.3390 C   0  0  0  0  0  0  0  0  0  0  0  0
  195.2100  172.7590  139.1230 O   0  0  0  0  0  0  0  0  0  0  0  0
  196.0080  174.9050  139.1670 O   0  0  0  0  0  1  0  0  0  0  0  0
  195.2610  173.8930  138.5780 C   0  0  0  0  0  0  0  0  0  0  0  0
  1  2  2  0  0  0  0
  2  9  1  0  0  0  0
  3  5  2  0  0  0  0
  4 27  1  6  0  0  0
  4  7  1  0  0  0  0
  4  8  1  0  0  0  0
  5  2  1  0  0  0  0
  6  4  1  0  0  0  0
  7  8  1  0  0  0  0
  7  1  1  0  0  0  0
  8  6  1  6  0  0  0
  8  3  1  0  0  0  0
  9 10  2  0  0  0  0
  9 15  1  0  0  0  0
 11 16  1  0  0  0  0
 13 14  2  0  0  0  0
 14 12  1  0  0  0  0
 15 13  1  0  0  0  0
 15 11  2  0  0  0  0
 16 12  2  0  0  0  0
 17  3  1  0  0  0  0
 17 18  1  0  0  0  0
 18 19  1  0  0  0  0
 21 23  2  0  0  0  0
 22 24  2  0  0  0  0
 22 21  1  0  0  0  0
 23 26  1  0  0  0  0
 24 25  1  0  0  0  0
 25 19  1  0  0  0  0
 25 20  2  0  0  0  0
 26 20  1  0  0  0  0
 28 27  1  0  0  0  0
 29 28  1  0  0  0  0
 29 30  1  0  0  0  0
 31 30  1  0  0  0  0
 32 38  2  0  0  0  0
 33 31  1  6  0  0  0
 34 33  1  0  0  0  0
 35 33  1  0  0  0  0
 35 41  1  1  0  0  0
 36 38  1  0  0  0  0
 36 34  1  0  0  0  0
 37 36  1  0  0  0  0
 38 35  1  0  0  0  0
 41 39  2  0  0  0  0
 41 40  1  0  0  0  0
M  END
>  <MODEL>
6

>  <REMARK>
 VINA RESULT:      -7.3      3.749      6.555
  Name = 
  13 active torsions:
  status: ('A' for Active; 'I' for Inactive)
    1  A    between atoms: C_2  and  N_10
    2  A    between atoms: C_2  and  C_11
    3  A    between atoms: N_4  and  C_20
    4  A    between atoms: N_4  and  C_25
    5  A    between atoms: C_9  and  C_19
    6  A    between atoms: C_9  and  C_20
    7  A    between atoms: N_10  and  N_18
    8  A    between atoms: C_11  and  C_21
    9  A    between atoms: C_16  and  C_22
   10  A    between atoms: N_18  and  C_41
   11  A    between atoms: C_22  and  C_31
   12  A    between atoms: C_29  and  C_41
   13  A    between atoms: C_33  and  C_36
                            x       y       z     vdW  Elec       q    Type
                         _______ _______ _______ _____ _____    ______ ____

>  <TORSDO>
F 13

$$$$
=
 OpenBabel11032419553D

 41 46  0  0  1  0  0  0  0  0999 V2000
  183.2290  178.6850  145.0120 C   0  0  0  0  0  3  0  0  0  0  0  0
  184.7470  178.7960  144.7710 C   0  0  0  0  0  0  0  0  0  0  0  0
  184.4760  178.9040  142.2610 C   0  0  0  0  0  0  0  0  0  0  0  0
  181.3260  178.7160  143.0250 C   0  0  1  0  0  0  0  0  0  0  0  0
  185.2860  178.8790  143.5140 C   0  0  0  0  0  3  0  0  0  0  0  0
  181.8990  178.8230  141.7390 N   0  0  0  0  0  2  0  0  0  0  0  0
  182.5370  178.7320  143.7390 N   0  0  0  0  0  0  0  0  0  0  0  0
  183.1800  178.8300  142.4560 C   0  0  2  0  0  0  0  0  0  0  0  0
  185.6740  178.7530  145.9290 C   0  0  0  0  0  0  0  0  0  0  0  0
  185.3070  179.2750  147.0180 O   0  0  0  0  0  0  0  0  0  0  0  0
  187.5890  177.7420  144.6400 C   0  0  0  0  0  3  0  0  0  0  0  0
  189.5490  176.9040  145.7890 C   0  0  0  0  0  3  0  0  0  0  0  0
  187.7260  177.8770  147.0490 C   0  0  0  0  0  3  0  0  0  0  0  0
  188.9870  177.2730  147.0140 C   0  0  0  0  0  3  0  0  0  0  0  0
  187.0180  178.1280  145.8630 C   0  0  0  0  0  0  0  0  0  0  0  0
  188.8490  177.1370  144.6020 C   0  0  0  0  0  3  0  0  0  0  0  0
  185.0820  178.9980  140.9040 C   0  0  0  0  0  2  0  0  0  0  0  0
  186.5500  178.6270  140.9620 C   0  0  0  0  0  2  0  0  0  0  0  0
  187.0340  178.3530  139.6190 N   0  0  0  0  0  2  0  0  0  0  0  0
  189.1570  177.5730  140.3050 C   0  0  0  0  0  3  0  0  0  0  0  0
  190.6690  176.6030  137.8260 C   0  0  0  0  0  3  0  0  0  0  0  0
  189.9190  177.7710  137.3310 C   0  0  0  0  0  3  0  0  0  0  0  0
  190.9540  176.3700  139.1070 C   0  0  0  0  0  3  0  0  0  0  0  0
  188.9420  178.4150  137.9810 C   0  0  0  0  0  3  0  0  0  0  0  0
  188.4080  178.0860  139.3260 C   0  0  0  0  0  0  0  0  0  0  0  0
  190.6270  177.3330  140.1970 C   0  0  0  0  0  2  0  0  0  0  0  0
  180.5060  179.9650  143.3380 C   0  0  0  0  0  2  0  0  0  0  0  0
  179.2550  180.0220  142.4790 C   0  0  0  0  0  2  0  0  0  0  0  0
  179.2790  181.2060  141.6400 N   0  0  0  0  0  2  0  0  0  0  0  0
  179.5530  180.7690  140.3380 N   0  0  0  0  0  2  0  0  0  0  0  0
  179.5130  181.9450  139.4800 C   0  0  0  0  0  2  0  0  0  0  0  0
  180.2630  181.1640  134.9490 C   0  0  0  0  0  2  0  0  0  0  0  0
  180.6790  181.9440  138.4950 C   0  0  2  0  0  3  0  0  0  0  0  0
  180.8330  183.3100  137.8070 C   0  0  0  0  0  2  0  0  0  0  0  0
  180.4830  180.8830  137.4020 C   0  0  1  0  0  3  0  0  0  0  0  0
  180.7750  183.0400  136.3850 N   0  0  0  0  0  0  0  0  0  0  0  0
  180.8060  184.0820  135.3700 C   0  0  0  0  0  1  0  0  0  0  0  0
  180.5820  181.6590  136.1410 C   0  0  0  0  0  0  0  0  0  0  0  0
  182.4550  179.9110  138.3680 O   0  0  0  0  0  1  0  0  0  0  0  0
  181.5320  178.7610  136.6150 O   0  0  0  0  0  0  0  0  0  0  0  0
  181.5510  179.8360  137.4940 C   0  0  0  0  0  0  0  0  0  0  0  0
  2  1  2  0  0  0  0
  2  9  1  0  0  0  0
  3  8  1  0  0  0  0
  3  5  2  0  0  0  0
  4 27  1  1  0  0  0
  4  7  1  0  0  0  0
  5  2  1  0  0  0  0
  6  4  1  0  0  0  0
  7  1  1  0  0  0  0
  8  6  1  1  0  0  0
  8  4  1  0  0  0  0
  8  7  1  0  0  0  0
  9 10  2  0  0  0  0
 11 15  1  0  0  0  0
 12 14  2  0  0  0  0
 14 13  1  0  0  0  0
 15  9  1  0  0  0  0
 15 13  2  0  0  0  0
 16 11  2  0  0  0  0
 16 12  1  0  0  0  0
 17 18  1  0  0  0  0
 17  3  1  0  0  0  0
 19 18  1  0  0  0  0
 21 23  2  0  0  0  0
 22 21  1  0  0  0  0
 22 24  2  0  0  0  0
 23 26  1  0  0  0  0
 24 25  1  0  0  0  0
 25 19  1  0  0  0  0
 25 20  2  0  0  0  0
 26 20  1  0  0  0  0
 28 27  1  0  0  0  0
 29 28  1  0  0  0  0
 30 29  1  0  0  0  0
 31 30  1  0  0  0  0
 32 38  2  0  0  0  0
 33 31  1  1  0  0  0
 34 33  1  0  0  0  0
 35 41  1  6  0  0  0
 35 33  1  0  0  0  0
 36 34  1  0  0  0  0
 37 36  1  0  0  0  0
 38 36  1  0  0  0  0
 38 35  1  0  0  0  0
 40 41  2  0  0  0  0
 41 39  1  0  0  0  0
M  END
>  <MODEL>
7

>  <REMARK>
 VINA RESULT:      -7.3      3.498      7.188
  Name = 
  13 active torsions:
  status: ('A' for Active; 'I' for Inactive)
    1  A    between atoms: C_2  and  N_10
    2  A    between atoms: C_2  and  C_11
    3  A    between atoms: N_4  and  C_20
    4  A    between atoms: N_4  and  C_25
    5  A    between atoms: C_9  and  C_19
    6  A    between atoms: C_9  and  C_20
    7  A    between atoms: N_10  and  N_18
    8  A    between atoms: C_11  and  C_21
    9  A    between atoms: C_16  and  C_22
   10  A    between atoms: N_18  and  C_41
   11  A    between atoms: C_22  and  C_31
   12  A    between atoms: C_29  and  C_41
   13  A    between atoms: C_33  and  C_36
                            x       y       z     vdW  Elec       q    Type
                         _______ _______ _______ _____ _____    ______ ____

>  <TORSDO>
F 13

$$$$
=
 OpenBabel11032419553D

 41 46  0  0  1  0  0  0  0  0999 V2000
  185.3130  178.9850  143.1400 C   0  0  0  0  0  3  0  0  0  0  0  0
  184.4490  178.6760  144.3780 C   0  0  0  0  0  0  0  0  0  0  0  0
  182.2950  178.7580  143.0600 C   0  0  0  0  0  0  0  0  0  0  0  0
  184.3270  179.3400  140.5960 C   0  0  1  0  0  0  0  0  0  0  0  0
  183.0830  178.5940  144.3160 C   0  0  0  0  0  3  0  0  0  0  0  0
  182.9190  179.2300  140.5490 N   0  0  0  0  0  2  0  0  0  0  0  0
  184.4570  179.1110  141.9770 N   0  0  0  0  0  0  0  0  0  0  0  0
  183.0230  179.0010  141.9950 C   0  0  2  0  0  0  0  0  0  0  0  0
  185.1010  178.5190  145.7010 C   0  0  0  0  0  0  0  0  0  0  0  0
  184.4240  178.7560  146.7410 O   0  0  0  0  0  0  0  0  0  0  0  0
  187.2350  177.5290  144.8000 C   0  0  0  0  0  3  0  0  0  0  0  0
  189.1830  177.2850  146.2180 C   0  0  0  0  0  3  0  0  0  0  0  0
  187.1470  178.2460  147.1060 C   0  0  0  0  0  3  0  0  0  0  0  0
  188.4740  177.8440  147.2850 C   0  0  0  0  0  3  0  0  0  0  0  0
  186.5160  178.1030  145.8590 C   0  0  0  0  0  0  0  0  0  0  0  0
  188.5630  177.1260  144.9760 C   0  0  0  0  0  3  0  0  0  0  0  0
  180.8090  178.6600  143.0140 C   0  0  0  0  0  2  0  0  0  0  0  0
  180.2080  180.0120  142.6830 C   0  0  0  0  0  2  0  0  0  0  0  0
  179.2330  179.8600  141.6170 N   0  0  0  0  0  2  0  0  0  0  0  0
  179.5640  181.6170  140.0700 C   0  0  0  0  0  3  0  0  0  0  0  0
  181.1800  180.5260  137.7110 C   0  0  0  0  0  3  0  0  0  0  0  0
  180.3090  179.3950  138.0780 C   0  0  0  0  0  3  0  0  0  0  0  0
  180.9480  181.7990  138.0300 C   0  0  0  0  0  3  0  0  0  0  0  0
  179.5660  179.2990  139.1870 C   0  0  0  0  0  3  0  0  0  0  0  0
  179.4700  180.3010  140.2770 C   0  0  0  0  0  0  0  0  0  0  0  0
  179.7060  182.2460  138.7240 C   0  0  0  0  0  2  0  0  0  0  0  0
  184.9670  178.2020  139.8050 C   0  0  0  0  0  2  0  0  0  0  0  0
  185.1220  178.5790  138.3420 C   0  0  0  0  0  2  0  0  0  0  0  0
  186.5230  178.5390  137.9630 N   0  0  0  0  0  2  0  0  0  0  0  0
  187.2610  178.5340  139.1540 N   0  0  0  0  0  2  0  0  0  0  0  0
  188.6670  178.5530  138.7790 C   0  0  0  0  0  2  0  0  0  0  0  0
  192.9710  177.2510  139.9980 C   0  0  0  0  0  2  0  0  0  0  0  0
  189.3860  177.3070  139.2890 C   0  0  2  0  0  3  0  0  0  0  0  0
  189.4480  177.2840  140.8250 C   0  0  0  0  0  2  0  0  0  0  0  0
  190.8260  177.2380  138.7570 C   0  0  1  0  0  3  0  0  0  0  0  0
  190.8530  177.1610  141.1580 N   0  0  0  0  0  0  0  0  0  0  0  0
  191.3570  177.1790  142.5220 C   0  0  0  0  0  1  0  0  0  0  0  0
  191.6470  177.1270  139.9870 C   0  0  0  0  0  0  0  0  0  0  0  0
  190.9980  174.8780  138.3430 O   0  0  0  0  0  1  0  0  0  0  0  0
  191.1340  176.2280  136.4970 O   0  0  0  0  0  0  0  0  0  0  0  0
  190.9960  176.0450  137.8670 C   0  0  0  0  0  0  0  0  0  0  0  0
  1  2  2  0  0  0  0
  2  9  1  0  0  0  0
  3  5  2  0  0  0  0
  4 27  1  6  0  0  0
  4  7  1  0  0  0  0
  4  8  1  0  0  0  0
  5  2  1  0  0  0  0
  6  4  1  0  0  0  0
  7  8  1  0  0  0  0
  7  1  1  0  0  0  0
  8  6  1  6  0  0  0
  8  3  1  0  0  0  0
  9 15  1  0  0  0  0
  9 10  2  0  0  0  0
 11 16  2  0  0  0  0
 11 15  1  0  0  0  0
 12 14  2  0  0  0  0
 13 14  1  0  0  0  0
 15 13  2  0  0  0  0
 16 12  1  0  0  0  0
 17  3  1  0  0  0  0
 18 17  1  0  0  0  0
 19 18  1  0  0  0  0
 20 25  2  0  0  0  0
 21 23  2  0  0  0  0
 21 22  1  0  0  0  0
 22 24  2  0  0  0  0
 23 26  1  0  0  0  0
 24 25  1  0  0  0  0
 25 19  1  0  0  0  0
 26 20  1  0  0  0  0
 28 27  1  0  0  0  0
 29 28  1  0  0  0  0
 29 30  1  0  0  0  0
 31 30  1  0  0  0  0
 33 31  1  1  0  0  0
 33 34  1  0  0  0  0
 34 36  1  0  0  0  0
 35 41  1  6  0  0  0
 35 33  1  0  0  0  0
 35 38  1  0  0  0  0
 36 37  1  0  0  0  0
 38 32  2  0  0  0  0
 38 36  1  0  0  0  0
 40 41  2  0  0  0  0
 41 39  1  0  0  0  0
M  END
>  <MODEL>
8

>  <REMARK>
 VINA RESULT:      -7.3      2.942      6.431
  Name = 
  13 active torsions:
  status: ('A' for Active; 'I' for Inactive)
    1  A    between atoms: C_2  and  N_10
    2  A    between atoms: C_2  and  C_11
    3  A    between atoms: N_4  and  C_20
    4  A    between atoms: N_4  and  C_25
    5  A    between atoms: C_9  and  C_19
    6  A    between atoms: C_9  and  C_20
    7  A    between atoms: N_10  and  N_18
    8  A    between atoms: C_11  and  C_21
    9  A    between atoms: C_16  and  C_22
   10  A    between atoms: N_18  and  C_41
   11  A    between atoms: C_22  and  C_31
   12  A    between atoms: C_29  and  C_41
   13  A    between atoms: C_33  and  C_36
                            x       y       z     vdW  Elec       q    Type
                         _______ _______ _______ _____ _____    ______ ____

>  <TORSDO>
F 13

$$$$
=
 OpenBabel11032419553D

 41 46  0  0  1  0  0  0  0  0999 V2000
  183.7660  178.5040  142.0390 C   0  0  0  0  0  3  0  0  0  0  0  0
  184.9500  178.6390  143.0160 C   0  0  0  0  0  0  0  0  0  0  0  0
  186.6500  178.7570  141.1510 C   0  0  0  0  0  0  0  0  0  0  0  0
  183.9950  178.5200  139.2970 C   0  0  1  0  0  0  0  0  0  0  0  0
  186.2470  178.7360  142.5870 C   0  0  0  0  0  3  0  0  0  0  0  0
  185.3370  178.6430  138.8740 N   0  0  0  0  0  2  0  0  0  0  0  0
  184.2610  178.5490  140.6770 N   0  0  0  0  0  0  0  0  0  0  0  0
  185.6470  178.6640  140.3090 C   0  0  2  0  0  0  0  0  0  0  0  0
  184.6960  178.6020  144.4780 C   0  0  0  0  0  0  0  0  0  0  0  0
  183.5200  178.7960  144.8930 O   0  0  0  0  0  0  0  0  0  0  0  0
  185.7590  178.9800  146.7310 C   0  0  0  0  0  3  0  0  0  0  0  0
  187.8400  177.8870  147.3180 C   0  0  0  0  0  3  0  0  0  0  0  0
  186.8350  177.5010  145.1500 C   0  0  0  0  0  3  0  0  0  0  0  0
  187.8640  177.2660  146.0670 C   0  0  0  0  0  3  0  0  0  0  0  0
  185.7660  178.3520  145.4760 C   0  0  0  0  0  0  0  0  0  0  0  0
  186.7880  178.7460  147.6490 C   0  0  0  0  0  3  0  0  0  0  0  0
  188.0670  178.8680  140.7060 C   0  0  0  0  0  2  0  0  0  0  0  0
  188.6940  177.4910  140.6170 C   0  0  0  0  0  2  0  0  0  0  0  0
  188.7800  176.9110  141.9470 N   0  0  0  0  0  2  0  0  0  0  0  0
  190.0900  178.2330  143.4050 C   0  0  0  0  0  3  0  0  0  0  0  0
  191.6340  176.3590  145.2690 C   0  0  0  0  0  3  0  0  0  0  0  0
  191.6240  175.6310  143.9880 C   0  0  0  0  0  3  0  0  0  0  0  0
  191.4370  177.6710  145.4000 C   0  0  0  0  0  3  0  0  0  0  0  0
  190.8880  175.9350  142.9130 C   0  0  0  0  0  3  0  0  0  0  0  0
  189.9260  177.0590  142.7880 C   0  0  0  0  0  0  0  0  0  0  0  0
  191.2800  178.5860  144.2330 C   0  0  0  0  0  2  0  0  0  0  0  0
  183.2000  179.7560  138.8820 C   0  0  0  0  0  2  0  0  0  0  0  0
  182.0410  179.3760  137.9780 C   0  0  0  0  0  2  0  0  0  0  0  0
  182.3010  178.0940  137.3460 N   0  0  0  0  0  2  0  0  0  0  0  0
  181.8970  178.2160  136.0100 N   0  0  0  0  0  2  0  0  0  0  0  0
  182.8350  177.4400  135.2130 C   0  0  0  0  0  2  0  0  0  0  0  0
  185.2260  173.4450  135.0520 C   0  0  0  0  0  2  0  0  0  0  0  0
  183.7700  176.6280  136.1040 C   0  0  2  0  0  3  0  0  0  0  0  0
  185.2440  176.9770  135.8380 C   0  0  0  0  0  2  0  0  0  0  0  0
  183.5920  175.1200  135.8700 C   0  0  1  0  0  3  0  0  0  0  0  0
  185.8900  175.7220  135.5120 N   0  0  0  0  0  0  0  0  0  0  0  0
  187.2860  175.6200  135.1150 C   0  0  0  0  0  1  0  0  0  0  0  0
  184.9610  174.6560  135.5330 C   0  0  0  0  0  0  0  0  0  0  0  0
  182.2890  173.4740  137.0360 O   0  0  0  0  0  0  0  0  0  0  0  0
  183.4720  174.9270  138.3540 O   0  0  0  0  0  1  0  0  0  0  0  0
  183.0720  174.4580  137.1090 C   0  0  0  0  0  0  0  0  0  0  0  0
  1  2  2  0  0  0  0
  2  9  1  0  0  0  0
  3  5  2  0  0  0  0
  4 27  1  1  0  0  0
  4  8  1  0  0  0  0
  4  7  1  0  0  0  0
  5  2  1  0  0  0  0
  6  4  1  0  0  0  0
  7  1  1  0  0  0  0
  8  6  1  6  0  0  0
  8  7  1  0  0  0  0
  8  3  1  0  0  0  0
  9 10  2  0  0  0  0
  9 15  1  0  0  0  0
 11 16  1  0  0  0  0
 12 16  2  0  0  0  0
 13 15  1  0  0  0  0
 13 14  2  0  0  0  0
 14 12  1  0  0  0  0
 15 11  2  0  0  0  0
 17  3  1  0  0  0  0
 18 17  1  0  0  0  0
 18 19  1  0  0  0  0
 19 25  1  0  0  0  0
 20 26  1  0  0  0  0
 21 23  2  0  0  0  0
 22 21  1  0  0  0  0
 24 22  2  0  0  0  0
 25 24  1  0  0  0  0
 25 20  2  0  0  0  0
 26 23  1  0  0  0  0
 28 27  1  0  0  0  0
 29 28  1  0  0  0  0
 30 29  1  0  0  0  0
 31 30  1  0  0  0  0
 32 38  2  0  0  0  0
 33 31  1  6  0  0  0
 34 33  1  0  0  0  0
 35 33  1  0  0  0  0
 35 41  1  1  0  0  0
 36 38  1  0  0  0  0
 36 34  1  0  0  0  0
 37 36  1  0  0  0  0
 38 35  1  0  0  0  0
 39 41  2  0  0  0  0
 41 40  1  0  0  0  0
M  END
>  <MODEL>
9

>  <REMARK>
 VINA RESULT:      -7.2      2.586      4.565
  Name = 
  13 active torsions:
  status: ('A' for Active; 'I' for Inactive)
    1  A    between atoms: C_2  and  N_10
    2  A    between atoms: C_2  and  C_11
    3  A    between atoms: N_4  and  C_20
    4  A    between atoms: N_4  and  C_25
    5  A    between atoms: C_9  and  C_19
    6  A    between atoms: C_9  and  C_20
    7  A    between atoms: N_10  and  N_18
    8  A    between atoms: C_11  and  C_21
    9  A    between atoms: C_16  and  C_22
   10  A    between atoms: N_18  and  C_41
   11  A    between atoms: C_22  and  C_31
   12  A    between atoms: C_29  and  C_41
   13  A    between atoms: C_33  and  C_36
                            x       y       z     vdW  Elec       q    Type
                         _______ _______ _______ _____ _____    ______ ____

>  <TORSDO>
F 13

$$$$
