=
 OpenBabel11042410493D

 31 35  0  0  1  0  0  0  0  0999 V2000
  187.1950  176.6120  143.3140 O   0  0  0  0  0  1  0  0  0  0  0  0
  188.0260  177.6100  143.8330 C   0  0  2  0  0  3  0  0  0  0  0  0
  188.3690  177.5150  148.3590 C   0  0  0  0  0  3  0  0  0  0  0  0
  189.5050  177.2400  143.6740 C   0  0  1  0  0  3  0  0  0  0  0  0
  188.8850  177.1440  145.9550 C   0  0  0  0  0  0  0  0  0  0  0  0
  188.9540  176.8130  147.3920 C   0  0  0  0  0  3  0  0  0  0  0  0
  189.9480  176.6850  145.0210 C   0  0  2  0  0  3  0  0  0  0  0  0
  186.5540  178.1180  145.9380 C   0  0  0  0  0  0  0  0  0  0  0  0
  187.6340  178.7840  148.0950 C   0  0  0  0  0  2  0  0  0  0  0  0
  191.2250  177.2710  145.3920 N   0  0  0  0  0  1  0  0  0  0  0  0
  187.8400  177.6830  145.3130 C   0  0  0  0  0  0  0  0  0  0  0  0
  186.4640  178.5620  147.1950 C   0  0  0  0  0  3  0  0  0  0  0  0
  185.3360  178.0500  145.1900 N   0  0  0  0  0  2  0  0  0  0  0  0
  185.2910  180.3000  144.5640 O   0  0  0  0  0  0  0  0  0  0  0  0
  184.7990  179.1460  144.4380 C   0  0  0  0  0  0  0  0  0  0  0  0
  183.5750  178.3410  140.1600 C   0  0  0  0  0  2  0  0  0  0  0  0
  183.6590  178.9290  143.5360 C   0  0  0  0  0  0  0  0  0  0  0  0
  184.7230  178.5470  141.0180 C   0  0  0  0  0  2  0  0  0  0  0  0
  181.2140  178.7350  143.0920 C   0  0  0  0  0  3  0  0  0  0  0  0
  182.6900  178.5020  141.3440 C   0  0  0  0  0  0  0  0  0  0  0  0
  183.8060  178.7020  142.1800 C   0  0  0  0  0  0  0  0  0  0  0  0
  181.4060  178.5110  141.7480 N   0  0  0  0  0  0  0  0  0  0  0  0
  182.3120  178.9430  143.9910 C   0  0  0  0  0  3  0  0  0  0  0  0
  189.8260  176.3210  142.4840 C   0  0  2  0  0  3  0  0  0  0  0  0
  190.4360  175.1430  142.9290 O   0  0  0  0  0  1  0  0  0  0  0  0
  191.3560  178.1330  142.0310 O   0  0  0  0  0  1  0  0  0  0  0  0
  190.7270  177.0230  141.4580 C   0  0  2  0  0  3  0  0  0  0  0  0
  190.8020  177.5870  138.8660 C   0  0  0  0  0  2  0  0  0  0  0  0
  188.7590  178.2770  140.2540 C   0  0  0  0  0  1  0  0  0  0  0  0
  190.0210  177.4460  140.1580 C   0  0  0  0  0  0  0  0  0  0  0  0
  189.9340  176.3610  139.1040 C   0  0  0  0  0  2  0  0  0  0  0  0
  2  1  1  1  0  0  0
  2 11  1  0  0  0  0
  4 24  1  6  0  0  0
  4  2  1  0  0  0  0
  4  7  1  0  0  0  0
  5  6  1  0  0  0  0
  6  3  2  0  0  0  0
  7 10  1  1  0  0  0
  7  5  1  0  0  0  0
  8 12  2  0  0  0  0
  9  3  1  0  0  0  0
 11  8  1  0  0  0  0
 11  5  2  0  0  0  0
 12  9  1  0  0  0  0
 13  8  1  0  0  0  0
 15 14  2  0  0  0  0
 15 13  1  0  0  0  0
 16 18  1  0  0  0  0
 16 20  1  0  0  0  0
 17 23  1  0  0  0  0
 17 15  1  0  0  0  0
 18 21  1  0  0  0  0
 19 23  2  0  0  0  0
 20 22  2  0  0  0  0
 20 21  1  0  0  0  0
 21 17  2  0  0  0  0
 22 19  1  0  0  0  0
 24 25  1  1  0  0  0
 27 26  1  1  0  0  0
 27 24  1  0  0  0  0
 28 31  1  0  0  0  0
 28 30  1  0  0  0  0
 30 29  1  0  0  0  0
 30 27  1  0  0  0  0
 31 30  1  0  0  0  0
M  END
>  <MODEL>
1

>  <REMARK>
 VINA RESULT:      -9.4      0.000      0.000
  Name = 
  5 active torsions:
  status: ('A' for Active; 'I' for Inactive)
    1  A    between atoms: C_3  and  C_20
    2  A    between atoms: C_4  and  C_12
    3  A    between atoms: C_4  and  C_22
    4  A    between atoms: N_15  and  C_21
    5  A    between atoms: C_22  and  C_25
                            x       y       z     vdW  Elec       q    Type
                         _______ _______ _______ _____ _____    ______ ____

>  <TORSDO>
F 5

$$$$
=
 OpenBabel11042410493D

 31 35  0  0  1  0  0  0  0  0999 V2000
  188.4870  178.6260  141.9220 O   0  0  0  0  0  1  0  0  0  0  0  0
  188.5600  177.5410  141.0420 C   0  0  2  0  0  3  0  0  0  0  0  0
  187.9640  178.6890  136.6910 C   0  0  0  0  0  3  0  0  0  0  0  0
  190.0160  177.1390  140.7770 C   0  0  1  0  0  3  0  0  0  0  0  0
  189.0790  178.1190  138.8390 C   0  0  0  0  0  0  0  0  0  0  0  0
  189.0100  178.7560  137.5090 C   0  0  0  0  0  3  0  0  0  0  0  0
  190.3930  177.7710  139.4440 C   0  0  2  0  0  3  0  0  0  0  0  0
  186.6400  178.3490  139.4570 C   0  0  0  0  0  0  0  0  0  0  0  0
  186.7540  177.8760  137.0020 C   0  0  0  0  0  2  0  0  0  0  0  0
  191.0800  176.7930  138.6190 N   0  0  0  0  0  1  0  0  0  0  0  0
  188.0640  177.9640  139.6990 C   0  0  0  0  0  0  0  0  0  0  0  0
  186.0790  178.3530  138.2440 C   0  0  0  0  0  3  0  0  0  0  0  0
  185.8140  178.7590  140.5510 N   0  0  0  0  0  2  0  0  0  0  0  0
  183.9670  177.4430  139.9890 O   0  0  0  0  0  0  0  0  0  0  0  0
  184.5230  178.2010  140.8290 C   0  0  0  0  0  0  0  0  0  0  0  0
  185.0360  178.7380  145.2900 C   0  0  0  0  0  2  0  0  0  0  0  0
  183.8360  178.5320  142.0850 C   0  0  0  0  0  0  0  0  0  0  0  0
  185.7490  178.4120  144.0720 C   0  0  0  0  0  2  0  0  0  0  0  0
  181.7950  179.1460  143.3780 C   0  0  0  0  0  3  0  0  0  0  0  0
  183.7890  178.8870  144.4940 C   0  0  0  0  0  0  0  0  0  0  0  0
  184.4810  178.5710  143.3080 C   0  0  0  0  0  0  0  0  0  0  0  0
  182.4770  179.1750  144.5730 N   0  0  0  0  0  0  0  0  0  0  0  0
  182.4470  178.8310  142.1400 C   0  0  0  0  0  3  0  0  0  0  0  0
  191.0000  177.4500  141.9170 C   0  0  2  0  0  3  0  0  0  0  0  0
  192.2990  177.5860  141.4140 O   0  0  0  0  0  1  0  0  0  0  0  0
  189.9710  175.4210  142.7260 O   0  0  0  0  0  1  0  0  0  0  0  0
  190.9680  176.3630  143.0010 C   0  0  2  0  0  3  0  0  0  0  0  0
  190.2570  178.2790  144.6930 C   0  0  0  0  0  2  0  0  0  0  0  0
  191.6840  176.3170  145.5270 C   0  0  0  0  0  1  0  0  0  0  0  0
  190.7990  176.8860  144.4380 C   0  0  0  0  0  0  0  0  0  0  0  0
  189.3600  177.0650  144.8800 C   0  0  0  0  0  2  0  0  0  0  0  0
  2  1  1  1  0  0  0
  3  9  1  0  0  0  0
  3  6  2  0  0  0  0
  4  2  1  0  0  0  0
  4 24  1  1  0  0  0
  5  7  1  0  0  0  0
  5 11  2  0  0  0  0
  6  5  1  0  0  0  0
  7 10  1  6  0  0  0
  7  4  1  0  0  0  0
  8 11  1  0  0  0  0
  8 13  1  0  0  0  0
  9 12  1  0  0  0  0
 11  2  1  0  0  0  0
 12  8  2  0  0  0  0
 13 15  1  0  0  0  0
 14 15  2  0  0  0  0
 15 17  1  0  0  0  0
 17 23  2  0  0  0  0
 17 21  1  0  0  0  0
 18 16  1  0  0  0  0
 19 22  2  0  0  0  0
 20 22  1  0  0  0  0
 20 16  1  0  0  0  0
 21 18  1  0  0  0  0
 21 20  2  0  0  0  0
 23 19  1  0  0  0  0
 24 25  1  6  0  0  0
 24 27  1  0  0  0  0
 27 26  1  6  0  0  0
 27 30  1  0  0  0  0
 28 31  1  0  0  0  0
 30 28  1  0  0  0  0
 30 31  1  0  0  0  0
 30 29  1  0  0  0  0
M  END
>  <MODEL>
2

>  <REMARK>
 VINA RESULT:      -8.7      2.401      5.574
  Name = 
  5 active torsions:
  status: ('A' for Active; 'I' for Inactive)
    1  A    between atoms: C_3  and  C_20
    2  A    between atoms: C_4  and  C_12
    3  A    between atoms: C_4  and  C_22
    4  A    between atoms: N_15  and  C_21
    5  A    between atoms: C_22  and  C_25
                            x       y       z     vdW  Elec       q    Type
                         _______ _______ _______ _____ _____    ______ ____

>  <TORSDO>
F 5

$$$$
=
 OpenBabel11042410493D

 31 35  0  0  1  0  0  0  0  0999 V2000
  188.7360  178.7460  141.6270 O   0  0  0  0  0  1  0  0  0  0  0  0
  188.6920  177.6460  140.7640 C   0  0  2  0  0  3  0  0  0  0  0  0
  187.4020  178.7040  136.5420 C   0  0  0  0  0  3  0  0  0  0  0  0
  190.0960  177.2650  140.2810 C   0  0  1  0  0  3  0  0  0  0  0  0
  188.8500  178.1930  138.4980 C   0  0  0  0  0  0  0  0  0  0  0  0
  188.5610  178.8040  137.1860 C   0  0  0  0  0  3  0  0  0  0  0  0
  190.2480  177.8790  138.8960 C   0  0  2  0  0  3  0  0  0  0  0  0
  186.5330  178.3930  139.4860 C   0  0  0  0  0  0  0  0  0  0  0  0
  186.2720  177.8770  137.0510 C   0  0  0  0  0  2  0  0  0  0  0  0
  190.8170  176.8970  137.9890 N   0  0  0  0  0  1  0  0  0  0  0  0
  187.9840  178.0360  139.5080 C   0  0  0  0  0  0  0  0  0  0  0  0
  185.7890  178.3650  138.3760 C   0  0  0  0  0  3  0  0  0  0  0  0
  185.8800  178.8090  140.6890 N   0  0  0  0  0  2  0  0  0  0  0  0
  183.9710  177.4900  140.4170 O   0  0  0  0  0  0  0  0  0  0  0  0
  184.6460  178.2530  141.1610 C   0  0  0  0  0  0  0  0  0  0  0  0
  180.9560  179.0660  143.6460 C   0  0  0  0  0  2  0  0  0  0  0  0
  184.1530  178.5900  142.5040 C   0  0  0  0  0  0  0  0  0  0  0  0
  181.4030  178.7290  142.3100 C   0  0  0  0  0  2  0  0  0  0  0  0
  184.5230  179.1210  144.9110 C   0  0  0  0  0  3  0  0  0  0  0  0
  182.3740  179.0740  144.0930 C   0  0  0  0  0  0  0  0  0  0  0  0
  182.8110  178.7460  142.7950 C   0  0  0  0  0  0  0  0  0  0  0  0
  183.1770  179.2660  145.1570 N   0  0  0  0  0  0  0  0  0  0  0  0
  185.0250  178.7880  143.6100 C   0  0  0  0  0  3  0  0  0  0  0  0
  191.2400  177.6130  141.2480 C   0  0  2  0  0  3  0  0  0  0  0  0
  192.4740  177.5220  140.5950 O   0  0  0  0  0  1  0  0  0  0  0  0
  190.2670  175.6980  142.3480 O   0  0  0  0  0  1  0  0  0  0  0  0
  191.2300  176.7010  142.4840 C   0  0  2  0  0  3  0  0  0  0  0  0
  189.9480  176.9870  144.7890 C   0  0  0  0  0  2  0  0  0  0  0  0
  191.4540  178.8790  143.9340 C   0  0  0  0  0  1  0  0  0  0  0  0
  191.0310  177.4290  143.8250 C   0  0  0  0  0  0  0  0  0  0  0  0
  191.4000  176.6130  145.0470 C   0  0  0  0  0  2  0  0  0  0  0  0
  2  1  1  1  0  0  0
  3  9  1  0  0  0  0
  3  6  2  0  0  0  0
  4  2  1  0  0  0  0
  4 24  1  1  0  0  0
  5  7  1  0  0  0  0
  5 11  2  0  0  0  0
  6  5  1  0  0  0  0
  7 10  1  6  0  0  0
  7  4  1  0  0  0  0
  8 11  1  0  0  0  0
  8 13  1  0  0  0  0
  9 12  1  0  0  0  0
 11  2  1  0  0  0  0
 12  8  2  0  0  0  0
 13 15  1  0  0  0  0
 14 15  2  0  0  0  0
 15 17  1  0  0  0  0
 16 20  1  0  0  0  0
 17 21  2  0  0  0  0
 17 23  1  0  0  0  0
 18 21  1  0  0  0  0
 18 16  1  0  0  0  0
 19 22  1  0  0  0  0
 20 22  2  0  0  0  0
 21 20  1  0  0  0  0
 23 19  2  0  0  0  0
 24 25  1  6  0  0  0
 24 27  1  0  0  0  0
 27 26  1  6  0  0  0
 27 30  1  0  0  0  0
 28 31  1  0  0  0  0
 30 29  1  0  0  0  0
 30 28  1  0  0  0  0
 30 31  1  0  0  0  0
M  END
>  <MODEL>
3

>  <REMARK>
 VINA RESULT:      -8.2      2.522      5.649
  Name = 
  5 active torsions:
  status: ('A' for Active; 'I' for Inactive)
    1  A    between atoms: C_3  and  C_20
    2  A    between atoms: C_4  and  C_12
    3  A    between atoms: C_4  and  C_22
    4  A    between atoms: N_15  and  C_21
    5  A    between atoms: C_22  and  C_25
                            x       y       z     vdW  Elec       q    Type
                         _______ _______ _______ _____ _____    ______ ____

>  <TORSDO>
F 5

$$$$
=
 OpenBabel11042410493D

 31 35  0  0  1  0  0  0  0  0999 V2000
  188.2890  178.7780  144.5010 O   0  0  0  0  0  1  0  0  0  0  0  0
  188.1540  177.6200  145.2740 C   0  0  2  0  0  3  0  0  0  0  0  0
  191.7640  176.7500  147.8850 C   0  0  0  0  0  3  0  0  0  0  0  0
  187.2760  177.8740  146.5050 C   0  0  1  0  0  3  0  0  0  0  0  0
  189.5250  177.5570  147.1640 C   0  0  0  0  0  0  0  0  0  0  0  0
  190.7310  177.5770  148.0160 C   0  0  0  0  0  3  0  0  0  0  0  0
  188.2340  178.0960  147.6680 C   0  0  2  0  0  3  0  0  0  0  0  0
  190.6370  176.8320  145.0140 C   0  0  0  0  0  0  0  0  0  0  0  0
  191.7790  175.6380  146.8940 C   0  0  0  0  0  2  0  0  0  0  0  0
  187.7870  177.3280  148.8180 N   0  0  0  0  0  1  0  0  0  0  0  0
  189.4810  177.2630  145.8590 C   0  0  0  0  0  0  0  0  0  0  0  0
  191.6800  176.1490  145.4950 C   0  0  0  0  0  3  0  0  0  0  0  0
  190.6710  177.1660  143.6240 N   0  0  0  0  0  2  0  0  0  0  0  0
  189.8330  175.1290  142.8460 O   0  0  0  0  0  0  0  0  0  0  0  0
  190.1650  176.3180  142.5860 C   0  0  0  0  0  0  0  0  0  0  0  0
  187.5610  178.6370  139.7060 C   0  0  0  0  0  2  0  0  0  0  0  0
  190.0520  176.8260  141.2110 C   0  0  0  0  0  0  0  0  0  0  0  0
  187.6370  178.1560  141.0700 C   0  0  0  0  0  2  0  0  0  0  0  0
  190.9260  177.1050  138.8930 C   0  0  0  0  0  3  0  0  0  0  0  0
  188.8860  178.0180  139.4370 C   0  0  0  0  0  0  0  0  0  0  0  0
  188.9630  177.5510  140.7640 C   0  0  0  0  0  0  0  0  0  0  0  0
  189.8230  177.8230  138.4910 N   0  0  0  0  0  0  0  0  0  0  0  0
  191.0580  176.6050  140.2300 C   0  0  0  0  0  3  0  0  0  0  0  0
  186.2240  178.9840  146.3420 C   0  0  2  0  0  3  0  0  0  0  0  0
  186.1930  179.7960  147.4810 O   0  0  0  0  0  1  0  0  0  0  0  0
  184.8410  177.0100  146.2070 O   0  0  0  0  0  1  0  0  0  0  0  0
  184.8280  178.4010  146.0750 C   0  0  2  0  0  3  0  0  0  0  0  0
  184.9320  179.7480  143.7910 C   0  0  0  0  0  2  0  0  0  0  0  0
  182.7130  178.7120  144.5510 C   0  0  0  0  0  1  0  0  0  0  0  0
  184.2160  178.7840  144.7160 C   0  0  0  0  0  0  0  0  0  0  0  0
  184.9690  178.2540  143.5130 C   0  0  0  0  0  2  0  0  0  0  0  0
  2  1  1  6  0  0  0
  2 11  1  0  0  0  0
  2  4  1  0  0  0  0
  3  6  2  0  0  0  0
  4 24  1  6  0  0  0
  4  7  1  0  0  0  0
  5  7  1  0  0  0  0
  5  6  1  0  0  0  0
  7 10  1  1  0  0  0
  8 12  2  0  0  0  0
  8 11  1  0  0  0  0
  9  3  1  0  0  0  0
 11  5  2  0  0  0  0
 12  9  1  0  0  0  0
 13  8  1  0  0  0  0
 15 14  2  0  0  0  0
 15 13  1  0  0  0  0
 16 18  1  0  0  0  0
 17 15  1  0  0  0  0
 19 23  1  0  0  0  0
 20 16  1  0  0  0  0
 20 21  2  0  0  0  0
 21 18  1  0  0  0  0
 21 17  1  0  0  0  0
 22 19  2  0  0  0  0
 22 20  1  0  0  0  0
 23 17  2  0  0  0  0
 24 25  1  1  0  0  0
 27 26  1  6  0  0  0
 27 24  1  0  0  0  0
 28 30  1  0  0  0  0
 29 30  1  0  0  0  0
 30 27  1  0  0  0  0
 31 28  1  0  0  0  0
 31 30  1  0  0  0  0
M  END
>  <MODEL>
4

>  <REMARK>
 VINA RESULT:      -8.1      2.471      6.125
  Name = 
  5 active torsions:
  status: ('A' for Active; 'I' for Inactive)
    1  A    between atoms: C_3  and  C_20
    2  A    between atoms: C_4  and  C_12
    3  A    between atoms: C_4  and  C_22
    4  A    between atoms: N_15  and  C_21
    5  A    between atoms: C_22  and  C_25
                            x       y       z     vdW  Elec       q    Type
                         _______ _______ _______ _____ _____    ______ ____

>  <TORSDO>
F 5

$$$$
=
 OpenBabel11042410493D

 31 35  0  0  1  0  0  0  0  0999 V2000
  187.6790  176.7410  143.0800 O   0  0  0  0  0  1  0  0  0  0  0  0
  187.5240  177.9920  143.6870 C   0  0  2  0  0  3  0  0  0  0  0  0
  183.3010  178.7850  145.1520 C   0  0  0  0  0  3  0  0  0  0  0  0
  188.0620  177.9820  145.1220 C   0  0  1  0  0  3  0  0  0  0  0  0
  185.7020  178.1380  145.1420 C   0  0  0  0  0  0  0  0  0  0  0  0
  184.3190  178.0940  145.6570 C   0  0  0  0  0  3  0  0  0  0  0  0
  186.8500  177.8030  146.0270 C   0  0  2  0  0  3  0  0  0  0  0  0
  185.1480  178.4760  142.7000 C   0  0  0  0  0  0  0  0  0  0  0  0
  183.4700  179.7610  144.0390 C   0  0  0  0  0  2  0  0  0  0  0  0
  186.9220  178.7480  147.1290 N   0  0  0  0  0  1  0  0  0  0  0  0
  186.0680  178.2750  143.8610 C   0  0  0  0  0  0  0  0  0  0  0  0
  183.9700  179.0980  142.8000 C   0  0  0  0  0  3  0  0  0  0  0  0
  185.5050  177.9740  141.4090 N   0  0  0  0  0  2  0  0  0  0  0  0
  184.8470  179.8640  140.2040 O   0  0  0  0  0  0  0  0  0  0  0  0
  185.4280  178.7440  140.2030 C   0  0  0  0  0  0  0  0  0  0  0  0
  189.2780  177.7150  138.0660 C   0  0  0  0  0  2  0  0  0  0  0  0
  186.0070  178.2200  138.9580 C   0  0  0  0  0  0  0  0  0  0  0  0
  188.7450  178.2320  139.3090 C   0  0  0  0  0  2  0  0  0  0  0  0
  185.7920  177.3180  136.6440 C   0  0  0  0  0  3  0  0  0  0  0  0
  187.8890  177.5770  137.5540 C   0  0  0  0  0  0  0  0  0  0  0  0
  187.3680  178.0790  138.7630 C   0  0  0  0  0  0  0  0  0  0  0  0
  187.1540  177.1930  136.4930 N   0  0  0  0  0  0  0  0  0  0  0  0
  185.2060  177.8220  137.8520 C   0  0  0  0  0  3  0  0  0  0  0  0
  189.1950  176.9790  145.3920 C   0  0  2  0  0  3  0  0  0  0  0  0
  189.2450  176.6530  146.7520 O   0  0  0  0  0  1  0  0  0  0  0  0
  190.4590  178.8890  144.6290 O   0  0  0  0  0  1  0  0  0  0  0  0
  190.5550  177.5280  144.9340 C   0  0  2  0  0  3  0  0  0  0  0  0
  191.8900  175.4510  143.9640 C   0  0  0  0  0  2  0  0  0  0  0  0
  191.6530  177.5770  142.5500 C   0  0  0  0  0  1  0  0  0  0  0  0
  191.1910  176.7790  143.7500 C   0  0  0  0  0  0  0  0  0  0  0  0
  190.4910  175.4900  143.3690 C   0  0  0  0  0  2  0  0  0  0  0  0
  2  1  1  1  0  0  0
  2 11  1  0  0  0  0
  2  4  1  0  0  0  0
  3  6  2  0  0  0  0
  4 24  1  6  0  0  0
  4  7  1  0  0  0  0
  5  6  1  0  0  0  0
  5  7  1  0  0  0  0
  7 10  1  1  0  0  0
  8 12  2  0  0  0  0
  8 11  1  0  0  0  0
  9  3  1  0  0  0  0
 11  5  2  0  0  0  0
 12  9  1  0  0  0  0
 13  8  1  0  0  0  0
 15 14  2  0  0  0  0
 15 13  1  0  0  0  0
 16 18  1  0  0  0  0
 17 15  1  0  0  0  0
 19 23  1  0  0  0  0
 20 16  1  0  0  0  0
 20 21  2  0  0  0  0
 21 17  1  0  0  0  0
 21 18  1  0  0  0  0
 22 19  2  0  0  0  0
 22 20  1  0  0  0  0
 23 17  2  0  0  0  0
 24 25  1  1  0  0  0
 27 26  1  6  0  0  0
 27 24  1  0  0  0  0
 29 30  1  0  0  0  0
 30 28  1  0  0  0  0
 30 27  1  0  0  0  0
 31 30  1  0  0  0  0
 31 28  1  0  0  0  0
M  END
>  <MODEL>
5

>  <REMARK>
 VINA RESULT:      -8.0      2.579      4.752
  Name = 
  5 active torsions:
  status: ('A' for Active; 'I' for Inactive)
    1  A    between atoms: C_3  and  C_20
    2  A    between atoms: C_4  and  C_12
    3  A    between atoms: C_4  and  C_22
    4  A    between atoms: N_15  and  C_21
    5  A    between atoms: C_22  and  C_25
                            x       y       z     vdW  Elec       q    Type
                         _______ _______ _______ _____ _____    ______ ____

>  <TORSDO>
F 5

$$$$
=
 OpenBabel11042410493D

 31 35  0  0  1  0  0  0  0  0999 V2000
  186.4450  179.0500  141.6360 O   0  0  0  0  0  1  0  0  0  0  0  0
  185.7210  178.0770  142.3330 C   0  0  2  0  0  3  0  0  0  0  0  0
  185.7070  178.7040  146.8290 C   0  0  0  0  0  3  0  0  0  0  0  0
  184.2140  178.3430  142.2520 C   0  0  1  0  0  3  0  0  0  0  0  0
  184.9920  178.7510  144.4480 C   0  0  0  0  0  0  0  0  0  0  0  0
  185.0080  179.2490  145.8380 C   0  0  0  0  0  3  0  0  0  0  0  0
  183.8350  179.0330  143.5560 C   0  0  2  0  0  3  0  0  0  0  0  0
  187.3740  177.9120  144.3570 C   0  0  0  0  0  0  0  0  0  0  0  0
  186.5020  177.4550  146.6580 C   0  0  0  0  0  2  0  0  0  0  0  0
  182.6300  178.4260  144.0950 N   0  0  0  0  0  1  0  0  0  0  0  0
  186.0190  178.1960  143.7920 C   0  0  0  0  0  0  0  0  0  0  0  0
  187.5840  177.6300  145.6460 C   0  0  0  0  0  3  0  0  0  0  0  0
  188.5260  177.9550  143.5100 N   0  0  0  0  0  2  0  0  0  0  0  0
  188.5070  175.6920  142.9290 O   0  0  0  0  0  0  0  0  0  0  0  0
  188.9930  176.8410  142.7390 C   0  0  0  0  0  0  0  0  0  0  0  0
  189.8800  177.3190  138.3310 C   0  0  0  0  0  2  0  0  0  0  0  0
  190.0560  177.0300  141.7430 C   0  0  0  0  0  0  0  0  0  0  0  0
  188.8050  177.1370  139.2840 C   0  0  0  0  0  2  0  0  0  0  0  0
  192.4510  177.3000  141.1080 C   0  0  0  0  0  3  0  0  0  0  0  0
  190.8500  177.3060  139.4580 C   0  0  0  0  0  0  0  0  0  0  0  0
  189.8060  177.1290  140.3860 C   0  0  0  0  0  0  0  0  0  0  0  0
  192.1570  177.3950  139.7680 N   0  0  0  0  0  0  0  0  0  0  0  0
  191.4300  177.1200  142.0980 C   0  0  0  0  0  3  0  0  0  0  0  0
  183.7460  179.0910  140.9930 C   0  0  2  0  0  3  0  0  0  0  0  0
  182.3490  179.1490  140.9510 O   0  0  0  0  0  1  0  0  0  0  0  0
  184.8530  179.3870  138.8680 O   0  0  0  0  0  1  0  0  0  0  0  0
  184.2830  178.4310  139.7140 C   0  0  2  0  0  3  0  0  0  0  0  0
  182.3290  178.2630  137.9280 C   0  0  0  0  0  2  0  0  0  0  0  0
  182.7380  176.3150  139.5460 C   0  0  0  0  0  1  0  0  0  0  0  0
  183.2520  177.6000  138.9320 C   0  0  0  0  0  0  0  0  0  0  0  0
  183.5370  177.4730  137.4490 C   0  0  0  0  0  2  0  0  0  0  0  0
  2  1  1  6  0  0  0
  2 11  1  0  0  0  0
  4 24  1  6  0  0  0
  4  2  1  0  0  0  0
  4  7  1  0  0  0  0
  5  6  1  0  0  0  0
  6  3  2  0  0  0  0
  7 10  1  1  0  0  0
  7  5  1  0  0  0  0
  8 12  2  0  0  0  0
  9  3  1  0  0  0  0
 11  8  1  0  0  0  0
 11  5  2  0  0  0  0
 12  9  1  0  0  0  0
 13  8  1  0  0  0  0
 15 14  2  0  0  0  0
 15 13  1  0  0  0  0
 16 18  1  0  0  0  0
 16 20  1  0  0  0  0
 17 23  1  0  0  0  0
 17 15  1  0  0  0  0
 18 21  1  0  0  0  0
 19 23  2  0  0  0  0
 20 22  2  0  0  0  0
 20 21  1  0  0  0  0
 21 17  2  0  0  0  0
 22 19  1  0  0  0  0
 24 25  1  6  0  0  0
 27 26  1  6  0  0  0
 27 24  1  0  0  0  0
 28 30  1  0  0  0  0
 30 29  1  0  0  0  0
 30 27  1  0  0  0  0
 31 28  1  0  0  0  0
 31 30  1  0  0  0  0
M  END
>  <MODEL>
6

>  <REMARK>
 VINA RESULT:      -8.0      2.294      6.538
  Name = 
  5 active torsions:
  status: ('A' for Active; 'I' for Inactive)
    1  A    between atoms: C_3  and  C_20
    2  A    between atoms: C_4  and  C_12
    3  A    between atoms: C_4  and  C_22
    4  A    between atoms: N_15  and  C_21
    5  A    between atoms: C_22  and  C_25
                            x       y       z     vdW  Elec       q    Type
                         _______ _______ _______ _____ _____    ______ ____

>  <TORSDO>
F 5

$$$$
=
 OpenBabel11042410493D

 31 35  0  0  1  0  0  0  0  0999 V2000
  184.9370  179.1780  140.9160 O   0  0  0  0  0  1  0  0  0  0  0  0
  184.4040  178.1730  141.7300 C   0  0  2  0  0  3  0  0  0  0  0  0
  185.2390  178.7820  146.1500 C   0  0  0  0  0  3  0  0  0  0  0  0
  182.9000  178.3730  141.9460 C   0  0  1  0  0  3  0  0  0  0  0  0
  184.0730  178.8060  143.9540 C   0  0  0  0  0  0  0  0  0  0  0  0
  184.3380  179.3000  145.3200 C   0  0  0  0  0  3  0  0  0  0  0  0
  182.7540  179.0410  143.3070 C   0  0  2  0  0  3  0  0  0  0  0  0
  186.4240  178.0720  143.3920 C   0  0  0  0  0  0  0  0  0  0  0  0
  186.0360  177.5690  145.8120 C   0  0  0  0  0  2  0  0  0  0  0  0
  181.7030  178.3810  144.0630 N   0  0  0  0  0  1  0  0  0  0  0  0
  184.9750  178.2990  143.1040 C   0  0  0  0  0  0  0  0  0  0  0  0
  186.8930  177.7940  144.6120 C   0  0  0  0  0  3  0  0  0  0  0  0
  187.3870  178.1680  142.3380 N   0  0  0  0  0  2  0  0  0  0  0  0
  188.4060  176.1030  142.7270 O   0  0  0  0  0  0  0  0  0  0  0  0
  188.2900  177.1140  141.9820 C   0  0  0  0  0  0  0  0  0  0  0  0
  188.2130  178.1390  137.5790 C   0  0  0  0  0  2  0  0  0  0  0  0
  189.1000  177.2200  140.7600 C   0  0  0  0  0  0  0  0  0  0  0  0
  187.3840  178.0500  138.7630 C   0  0  0  0  0  2  0  0  0  0  0  0
  191.2590  177.0260  139.5310 C   0  0  0  0  0  3  0  0  0  0  0  0
  189.3790  177.7000  138.3900 C   0  0  0  0  0  0  0  0  0  0  0  0
  188.5750  177.6130  139.5430 C   0  0  0  0  0  0  0  0  0  0  0  0
  190.6960  177.4220  138.3400 N   0  0  0  0  0  0  0  0  0  0  0  0
  190.4890  176.9200  140.7360 C   0  0  0  0  0  3  0  0  0  0  0  0
  182.1660  179.1050  140.8110 C   0  0  2  0  0  3  0  0  0  0  0  0
  181.2680  180.0410  141.3350 O   0  0  0  0  0  1  0  0  0  0  0  0
  180.6690  177.2180  140.6500 O   0  0  0  0  0  1  0  0  0  0  0  0
  181.4230  178.1210  139.8940 C   0  0  2  0  0  3  0  0  0  0  0  0
  182.7160  175.9120  139.1950 C   0  0  0  0  0  2  0  0  0  0  0  0
  183.2690  178.1270  138.0280 C   0  0  0  0  0  1  0  0  0  0  0  0
  182.3190  177.3480  138.9120 C   0  0  0  0  0  0  0  0  0  0  0  0
  181.6250  176.2170  138.1790 C   0  0  0  0  0  2  0  0  0  0  0  0
  2  1  1  6  0  0  0
  2  4  1  0  0  0  0
  2 11  1  0  0  0  0
  4 24  1  6  0  0  0
  4  7  1  0  0  0  0
  5  6  1  0  0  0  0
  6  3  2  0  0  0  0
  7  5  1  0  0  0  0
  7 10  1  1  0  0  0
  8 12  2  0  0  0  0
  9  3  1  0  0  0  0
 11  8  1  0  0  0  0
 11  5  2  0  0  0  0
 12  9  1  0  0  0  0
 13  8  1  0  0  0  0
 15 13  1  0  0  0  0
 15 14  2  0  0  0  0
 16 20  1  0  0  0  0
 16 18  1  0  0  0  0
 17 15  1  0  0  0  0
 18 21  1  0  0  0  0
 19 23  2  0  0  0  0
 20 21  1  0  0  0  0
 21 17  2  0  0  0  0
 22 20  2  0  0  0  0
 22 19  1  0  0  0  0
 23 17  1  0  0  0  0
 24 25  1  1  0  0  0
 27 26  1  1  0  0  0
 27 24  1  0  0  0  0
 29 30  1  0  0  0  0
 30 28  1  0  0  0  0
 30 27  1  0  0  0  0
 31 30  1  0  0  0  0
 31 28  1  0  0  0  0
M  END
>  <MODEL>
7

>  <REMARK>
 VINA RESULT:      -7.9      2.691      6.959
  Name = 
  5 active torsions:
  status: ('A' for Active; 'I' for Inactive)
    1  A    between atoms: C_3  and  C_20
    2  A    between atoms: C_4  and  C_12
    3  A    between atoms: C_4  and  C_22
    4  A    between atoms: N_15  and  C_21
    5  A    between atoms: C_22  and  C_25
                            x       y       z     vdW  Elec       q    Type
                         _______ _______ _______ _____ _____    ______ ____

>  <TORSDO>
F 5

$$$$
=
 OpenBabel11042410493D

 31 35  0  0  1  0  0  0  0  0999 V2000
  192.0680  177.1730  140.2500 O   0  0  0  0  0  1  0  0  0  0  0  0
  191.1400  176.4070  139.5370 C   0  0  2  0  0  3  0  0  0  0  0  0
  187.7950  178.8610  137.6940 C   0  0  0  0  0  3  0  0  0  0  0  0
  191.6790  176.0300  138.1530 C   0  0  1  0  0  3  0  0  0  0  0  0
  189.9260  177.6040  137.9400 C   0  0  0  0  0  0  0  0  0  0  0  0
  189.0490  178.6200  137.3250 C   0  0  0  0  0  3  0  0  0  0  0  0
  191.0600  177.0190  137.1750 C   0  0  2  0  0  3  0  0  0  0  0  0
  189.0320  177.7610  140.2980 C   0  0  0  0  0  0  0  0  0  0  0  0
  187.0980  178.0560  138.7370 C   0  0  0  0  0  2  0  0  0  0  0  0
  190.5620  176.3060  136.0110 N   0  0  0  0  0  1  0  0  0  0  0  0
  189.9430  177.2460  139.2300 C   0  0  0  0  0  0  0  0  0  0  0  0
  187.7810  178.1650  140.0600 C   0  0  0  0  0  3  0  0  0  0  0  0
  189.4950  177.8590  141.6480 N   0  0  0  0  0  2  0  0  0  0  0  0
  187.9480  176.3660  142.5620 O   0  0  0  0  0  0  0  0  0  0  0  0
  188.9850  177.0650  142.7270 C   0  0  0  0  0  0  0  0  0  0  0  0
  188.4140  177.7290  147.1630 C   0  0  0  0  0  2  0  0  0  0  0  0
  189.6560  177.0830  144.0340 C   0  0  0  0  0  0  0  0  0  0  0  0
  187.7170  177.7170  145.8930 C   0  0  0  0  0  2  0  0  0  0  0  0
  191.6800  176.8420  145.4680 C   0  0  0  0  0  3  0  0  0  0  0  0
  189.6710  177.3790  146.4500 C   0  0  0  0  0  0  0  0  0  0  0  0
  188.9950  177.3660  145.2150 C   0  0  0  0  0  0  0  0  0  0  0  0
  190.9830  177.1280  146.6190 N   0  0  0  0  0  0  0  0  0  0  0  0
  191.0450  176.8140  144.1830 C   0  0  0  0  0  3  0  0  0  0  0  0
  193.2090  175.9260  138.0510 C   0  0  2  0  0  3  0  0  0  0  0  0
  193.7450  177.1120  137.5380 O   0  0  0  0  0  1  0  0  0  0  0  0
  192.6980  173.7030  137.2610 O   0  0  0  0  0  1  0  0  0  0  0  0
  193.6360  174.7360  137.1780 C   0  0  2  0  0  3  0  0  0  0  0  0
  195.6110  174.2480  138.8820 C   0  0  0  0  0  2  0  0  0  0  0  0
  196.0570  174.1360  136.3590 C   0  0  0  0  0  1  0  0  0  0  0  0
  195.0400  174.1820  137.4790 C   0  0  0  0  0  0  0  0  0  0  0  0
  195.0560  172.9380  138.3430 C   0  0  0  0  0  2  0  0  0  0  0  0
  2  1  1  1  0  0  0
  3  9  1  0  0  0  0
  4 24  1  1  0  0  0
  4  2  1  0  0  0  0
  5 11  2  0  0  0  0
  6  3  2  0  0  0  0
  6  5  1  0  0  0  0
  7 10  1  6  0  0  0
  7  5  1  0  0  0  0
  7  4  1  0  0  0  0
  8 13  1  0  0  0  0
  9 12  1  0  0  0  0
 11  2  1  0  0  0  0
 11  8  1  0  0  0  0
 12  8  2  0  0  0  0
 13 15  1  0  0  0  0
 14 15  2  0  0  0  0
 15 17  1  0  0  0  0
 17 23  2  0  0  0  0
 17 21  1  0  0  0  0
 18 16  1  0  0  0  0
 19 22  2  0  0  0  0
 20 22  1  0  0  0  0
 20 16  1  0  0  0  0
 21 18  1  0  0  0  0
 21 20  2  0  0  0  0
 23 19  1  0  0  0  0
 24 25  1  6  0  0  0
 27 26  1  1  0  0  0
 27 30  1  0  0  0  0
 27 24  1  0  0  0  0
 29 30  1  0  0  0  0
 30 31  1  0  0  0  0
 30 28  1  0  0  0  0
 31 28  1  0  0  0  0
M  END
>  <MODEL>
8

>  <REMARK>
 VINA RESULT:      -7.8      3.593      7.556
  Name = 
  5 active torsions:
  status: ('A' for Active; 'I' for Inactive)
    1  A    between atoms: C_3  and  C_20
    2  A    between atoms: C_4  and  C_12
    3  A    between atoms: C_4  and  C_22
    4  A    between atoms: N_15  and  C_21
    5  A    between atoms: C_22  and  C_25
                            x       y       z     vdW  Elec       q    Type
                         _______ _______ _______ _____ _____    ______ ____

>  <TORSDO>
F 5

$$$$
=
 OpenBabel11042410493D

 31 35  0  0  1  0  0  0  0  0999 V2000
  187.8080  177.0640  142.1890 O   0  0  0  0  0  1  0  0  0  0  0  0
  188.3260  178.0830  141.3840 C   0  0  2  0  0  3  0  0  0  0  0  0
  191.3100  176.6130  138.2940 C   0  0  0  0  0  3  0  0  0  0  0  0
  187.3320  178.4850  140.2890 C   0  0  1  0  0  3  0  0  0  0  0  0
  189.1750  177.3540  139.3330 C   0  0  0  0  0  0  0  0  0  0  0  0
  189.9810  176.6200  138.3360 C   0  0  0  0  0  3  0  0  0  0  0  0
  187.7790  177.7630  139.0250 C   0  0  2  0  0  3  0  0  0  0  0  0
  190.7650  177.1340  141.2850 C   0  0  0  0  0  0  0  0  0  0  0  0
  192.1450  177.4290  139.2190 C   0  0  0  0  0  2  0  0  0  0  0  0
  187.7650  178.6880  137.9050 N   0  0  0  0  0  1  0  0  0  0  0  0
  189.4950  177.5560  140.6180 C   0  0  0  0  0  0  0  0  0  0  0  0
  191.9310  177.0340  140.6420 C   0  0  0  0  0  3  0  0  0  0  0  0
  190.7630  176.7930  142.6750 N   0  0  0  0  0  2  0  0  0  0  0  0
  191.1620  178.9520  143.4720 O   0  0  0  0  0  0  0  0  0  0  0  0
  190.8660  177.7540  143.7330 C   0  0  0  0  0  0  0  0  0  0  0  0
  187.8390  177.5020  147.0830 C   0  0  0  0  0  2  0  0  0  0  0  0
  190.6500  177.3400  145.1260 C   0  0  0  0  0  0  0  0  0  0  0  0
  188.0130  177.9180  145.7070 C   0  0  0  0  0  2  0  0  0  0  0  0
  191.4480  176.3760  147.2820 C   0  0  0  0  0  3  0  0  0  0  0  0
  189.2630  177.0740  147.1090 C   0  0  0  0  0  0  0  0  0  0  0  0
  189.4340  177.4780  145.7710 C   0  0  0  0  0  0  0  0  0  0  0  0
  190.2200  176.5310  147.8840 N   0  0  0  0  0  0  0  0  0  0  0  0
  191.6800  176.7690  145.9220 C   0  0  0  0  0  3  0  0  0  0  0  0
  185.8500  178.2720  140.6390 C   0  0  2  0  0  3  0  0  0  0  0  0
  185.0820  178.1850  139.4730 O   0  0  0  0  0  1  0  0  0  0  0  0
  186.3700  180.1280  142.0920 O   0  0  0  0  0  1  0  0  0  0  0  0
  185.3150  179.3970  141.5370 C   0  0  2  0  0  3  0  0  0  0  0  0
  184.9020  178.2410  143.8890 C   0  0  0  0  0  2  0  0  0  0  0  0
  182.9250  178.6240  142.3010 C   0  0  0  0  0  1  0  0  0  0  0  0
  184.3630  178.9370  142.6550 C   0  0  0  0  0  0  0  0  0  0  0  0
  184.4980  179.7050  143.9550 C   0  0  0  0  0  2  0  0  0  0  0  0
  2  1  1  1  0  0  0
  3  6  2  0  0  0  0
  3  9  1  0  0  0  0
  4 24  1  1  0  0  0
  4  2  1  0  0  0  0
  5 11  2  0  0  0  0
  6  5  1  0  0  0  0
  7 10  1  6  0  0  0
  7  5  1  0  0  0  0
  7  4  1  0  0  0  0
  8 13  1  0  0  0  0
  9 12  1  0  0  0  0
 11  8  1  0  0  0  0
 11  2  1  0  0  0  0
 12  8  2  0  0  0  0
 13 15  1  0  0  0  0
 14 15  2  0  0  0  0
 15 17  1  0  0  0  0
 16 20  1  0  0  0  0
 17 21  2  0  0  0  0
 17 23  1  0  0  0  0
 18 21  1  0  0  0  0
 18 16  1  0  0  0  0
 19 22  1  0  0  0  0
 20 22  2  0  0  0  0
 21 20  1  0  0  0  0
 23 19  2  0  0  0  0
 24 25  1  6  0  0  0
 24 27  1  0  0  0  0
 27 26  1  1  0  0  0
 27 30  1  0  0  0  0
 28 31  1  0  0  0  0
 29 30  1  0  0  0  0
 30 28  1  0  0  0  0
 30 31  1  0  0  0  0
M  END
>  <MODEL>
9

>  <REMARK>
 VINA RESULT:      -7.8      2.277      7.390
  Name = 
  5 active torsions:
  status: ('A' for Active; 'I' for Inactive)
    1  A    between atoms: C_3  and  C_20
    2  A    between atoms: C_4  and  C_12
    3  A    between atoms: C_4  and  C_22
    4  A    between atoms: N_15  and  C_21
    5  A    between atoms: C_22  and  C_25
                            x       y       z     vdW  Elec       q    Type
                         _______ _______ _______ _____ _____    ______ ____

>  <TORSDO>
F 5

$$$$
