=
 OpenBabel11032420483D

 51 57  0  0  1  0  0  0  0  0999 V2000
  187.7890  178.3530  141.4450 C   0  0  0  0  0  2  0  0  0  0  0  0
  189.9190  177.4770  138.5360 C   0  0  0  0  0  0  0  0  0  0  0  0
  188.4780  177.0840  141.9250 C   0  0  1  0  0  3  0  0  0  0  0  0
  189.2120  177.5530  139.6900 C   0  0  0  0  0  0  0  0  0  0  0  0
  189.5000  176.6930  140.8720 C   0  0  0  0  0  2  0  0  0  0  0  0
  188.1010  178.5060  139.9660 C   0  0  1  0  0  3  0  0  0  0  0  0
  192.9740  174.5900  137.6110 C   0  0  1  0  0  0  0  0  0  0  0  0
  190.5870  175.3180  137.6510 C   0  0  0  0  0  3  0  0  0  0  0  0
  193.9660  173.5490  137.3230 C   0  0  1  0  0  3  0  0  0  0  0  0
  193.6910  174.6220  136.3130 N   0  0  0  0  0  0  0  0  0  0  0  0
  190.9220  176.4090  138.3570 C   0  0  0  0  0  0  0  0  0  0  0  0
  192.2910  176.5640  138.9190 C   0  0  0  0  0  0  0  0  0  0  0  0
  191.5210  174.1530  137.4700 C   0  0  0  0  0  2  0  0  0  0  0  0
  193.2590  175.7050  138.5970 C   0  0  0  0  0  3  0  0  0  0  0  0
  192.6000  177.6560  139.8860 C   0  0  0  0  0  1  0  0  0  0  0  0
  195.2700  173.7040  138.1330 C   0  0  0  0  0  2  0  0  0  0  0  0
  195.5000  171.2530  137.5590 C   0  0  0  0  0  1  0  0  0  0  0  0
  196.2370  172.5340  137.9240 C   0  0  1  0  0  3  0  0  0  0  0  0
  197.3740  172.8470  136.9420 C   0  0  0  0  0  0  0  0  0  0  0  0
  198.3130  171.4110  135.6670 C   0  0  0  0  0  2  0  0  0  0  0  0
  197.7580  174.1890  136.9310 O   0  0  0  0  0  1  0  0  0  0  0  0
  198.5650  171.9210  137.0740 C   0  0  0  0  0  2  0  0  0  0  0  0
  197.1120  172.3330  135.5420 C   0  0  0  0  0  2  0  0  0  0  0  0
  194.7530  175.6350  136.2610 C   0  0  0  0  0  2  0  0  0  0  0  0
  193.1520  176.5110  134.5950 C   0  0  0  0  0  1  0  0  0  0  0  0
  195.0350  177.7910  135.2690 O   0  0  0  0  0  1  0  0  0  0  0  0
  194.6080  176.4870  135.0110 C   0  0  1  0  0  3  0  0  0  0  0  0
  185.3510  179.4850  140.3470 O   0  0  0  0  0  0  0  0  0  0  0  0
  186.9190  178.2180  139.1500 N   0  0  0  0  0  2  0  0  0  0  0  0
  185.5970  178.7350  139.3640 C   0  0  0  0  0  0  0  0  0  0  0  0
  184.3900  177.1710  137.9330 C   0  0  0  0  0  3  0  0  0  0  0  0
  184.5090  178.3900  138.4470 C   0  0  0  0  0  3  0  0  0  0  0  0
  183.2750  176.8480  136.9920 C   0  0  0  0  0  2  0  0  0  0  0  0
  182.6730  175.4700  137.2640 C   0  0  0  0  0  0  0  0  0  0  0  0
  182.9750  174.4930  136.1430 C   0  0  0  0  0  2  0  0  0  0  0  0
  183.6660  174.3490  137.4920 C   0  0  0  0  0  2  0  0  0  0  0  0
  180.8390  173.9900  137.8160 F   0  0  0  0  0  0  0  0  0  0  0  0
  181.3090  175.6870  139.3720 C   0  0  0  0  0  1  0  0  0  0  0  0
  180.2630  176.1810  137.1860 C   0  0  0  0  0  1  0  0  0  0  0  0
  181.2750  175.3040  137.9010 C   0  0  0  0  0  0  0  0  0  0  0  0
  189.7700  178.3750  137.4650 O   0  0  0  0  0  0  0  0  0  0  0  0
  188.9620  178.1540  136.3190 C   0  0  0  0  0  1  0  0  0  0  0  0
  189.1390  177.3330  143.1980 N   0  0  0  0  0  2  0  0  0  0  0  0
  190.6110  176.7980  146.5930 C   0  0  0  0  0  2  0  0  0  0  0  0
  191.4350  176.9300  145.3360 C   0  0  0  0  0  0  0  0  0  0  0  0
  192.0740  178.1640  145.1320 O   0  0  0  0  0  0  0  0  0  0  0  0
  191.0660  176.0930  144.1200 C   0  0  0  0  0  2  0  0  0  0  0  0
  191.3280  178.2130  142.9380 O   0  0  0  0  0  0  0  0  0  0  0  0
  191.2970  178.8640  144.1910 C   0  0  0  0  0  2  0  0  0  0  0  0
  191.9890  176.1510  146.5010 C   0  0  0  0  0  2  0  0  0  0  0  0
  190.5570  177.0300  143.0230 C   0  0  2  0  0  3  0  0  0  0  0  0
  1  3  1  0  0  0  0
  2  4  2  0  0  0  0
  3 43  1  1  0  0  0
  4  6  1  0  0  0  0
  4  5  1  0  0  0  0
  5  3  1  0  0  0  0
  6 29  1  6  0  0  0
  6  1  1  0  0  0  0
  7 13  1  6  0  0  0
  7 14  1  0  0  0  0
  8 11  2  0  0  0  0
  9  7  1  0  0  0  0
  9 16  1  1  0  0  0
 10  9  1  0  0  0  0
 10  7  1  0  0  0  0
 11  2  1  0  0  0  0
 11 12  1  0  0  0  0
 12 15  1  0  0  0  0
 13  8  1  0  0  0  0
 14 12  2  0  0  0  0
 18 17  1  6  0  0  0
 18 16  1  0  0  0  0
 19 22  1  0  0  0  0
 19 18  1  0  0  0  0
 20 22  1  0  0  0  0
 21 19  1  0  0  0  0
 23 20  1  0  0  0  0
 23 19  1  0  0  0  0
 24 10  1  0  0  0  0
 27 25  1  1  0  0  0
 27 26  1  0  0  0  0
 27 24  1  0  0  0  0
 29 30  1  0  0  0  0
 30 28  2  0  0  0  0
 31 32  2  0  0  0  0
 32 30  1  0  0  0  0
 33 34  1  0  0  0  0
 33 31  1  0  0  0  0
 34 36  1  0  0  0  0
 34 40  1  0  0  0  0
 35 34  1  0  0  0  0
 35 36  1  0  0  0  0
 37 40  1  0  0  0  0
 39 40  1  0  0  0  0
 40 38  1  0  0  0  0
 41  2  1  0  0  0  0
 42 41  1  0  0  0  0
 45 50  1  0  0  0  0
 45 44  1  0  0  0  0
 46 45  1  0  0  0  0
 47 45  1  0  0  0  0
 48 51  1  0  0  0  0
 48 49  1  0  0  0  0
 49 46  1  0  0  0  0
 50 44  1  0  0  0  0
 51 43  1  1  0  0  0
 51 47  1  0  0  0  0
M  END
>  <MODEL>
1

>  <REMARK>
 VINA RESULT:      -7.3      0.000      0.000
  Name = 
  14 active torsions:
  status: ('A' for Active; 'I' for Inactive)
    1  A    between atoms: C_9  and  C_15
    2  A    between atoms: C_9  and  C_22
    3  A    between atoms: C_10  and  C_12
    4  A    between atoms: C_10  and  C_27
    5  A    between atoms: C_11  and  O_14
    6  A    between atoms: C_11  and  C_31
    7  A    between atoms: C_15  and  C_37
    8  A    between atoms: C_17  and  C_27
    9  A    between atoms: N_19  and  C_23
   10  A    between atoms: N_19  and  C_44
   11  A    between atoms: N_29  and  C_38
   12  A    between atoms: C_35  and  C_50
   13  A    between atoms: C_38  and  C_45
   14  A    between atoms: N_43  and  C_47
                            x       y       z     vdW  Elec       q    Type
                         _______ _______ _______ _____ _____    ______ ____

>  <TORSDO>
F 14

$$$$
=
 OpenBabel11032420483D

 51 57  0  0  1  0  0  0  0  0999 V2000
  187.6620  178.6360  141.1060 C   0  0  0  0  0  2  0  0  0  0  0  0
  189.7110  177.5020  138.2280 C   0  0  0  0  0  0  0  0  0  0  0  0
  188.3820  177.4260  141.6840 C   0  0  1  0  0  3  0  0  0  0  0  0
  189.0390  177.6820  139.3910 C   0  0  0  0  0  0  0  0  0  0  0  0
  189.3760  176.9440  140.6410 C   0  0  0  0  0  2  0  0  0  0  0  0
  187.9260  178.6470  139.6090 C   0  0  1  0  0  3  0  0  0  0  0  0
  192.8120  174.6020  137.5180 C   0  0  1  0  0  0  0  0  0  0  0  0
  190.4280  175.3320  137.4080 C   0  0  0  0  0  3  0  0  0  0  0  0
  193.8180  173.5570  137.3020 C   0  0  1  0  0  3  0  0  0  0  0  0
  193.6060  174.6190  136.2650 N   0  0  0  0  0  0  0  0  0  0  0  0
  190.7210  176.4310  138.1210 C   0  0  0  0  0  0  0  0  0  0  0  0
  192.0550  176.5910  138.7620 C   0  0  0  0  0  0  0  0  0  0  0  0
  191.3700  174.1650  137.2950 C   0  0  0  0  0  2  0  0  0  0  0  0
  193.0390  175.7280  138.5080 C   0  0  0  0  0  3  0  0  0  0  0  0
  192.3070  177.6930  139.7340 C   0  0  0  0  0  1  0  0  0  0  0  0
  195.0720  173.7210  138.1860 C   0  0  0  0  0  2  0  0  0  0  0  0
  195.4570  171.3520  137.3940 C   0  0  0  0  0  1  0  0  0  0  0  0
  196.1020  172.6090  137.9620 C   0  0  1  0  0  3  0  0  0  0  0  0
  197.3180  173.0570  137.1410 C   0  0  0  0  0  0  0  0  0  0  0  0
  198.2320  171.9050  135.5880 C   0  0  0  0  0  2  0  0  0  0  0  0
  197.7960  174.3220  137.4830 O   0  0  0  0  0  1  0  0  0  0  0  0
  198.4290  172.0290  137.0880 C   0  0  0  0  0  2  0  0  0  0  0  0
  197.1090  172.9270  135.6470 C   0  0  0  0  0  2  0  0  0  0  0  0
  194.6700  175.6310  136.2660 C   0  0  0  0  0  2  0  0  0  0  0  0
  193.1830  176.6820  134.5950 C   0  0  0  0  0  1  0  0  0  0  0  0
  195.2650  177.6690  135.1700 O   0  0  0  0  0  1  0  0  0  0  0  0
  194.6280  176.4420  134.9810 C   0  0  1  0  0  3  0  0  0  0  0  0
  185.1550  179.5330  140.0660 O   0  0  0  0  0  0  0  0  0  0  0  0
  186.7230  178.2690  138.8640 N   0  0  0  0  0  2  0  0  0  0  0  0
  185.3900  178.7430  139.1120 C   0  0  0  0  0  0  0  0  0  0  0  0
  183.8150  177.0620  138.3070 C   0  0  0  0  0  3  0  0  0  0  0  0
  184.2790  178.3070  138.2650 C   0  0  0  0  0  3  0  0  0  0  0  0
  182.6860  176.6410  137.4250 C   0  0  0  0  0  2  0  0  0  0  0  0
  182.9340  175.2780  136.7800 C   0  0  0  0  0  0  0  0  0  0  0  0
  183.7350  174.3650  137.6880 C   0  0  0  0  0  2  0  0  0  0  0  0
  182.2560  174.1000  137.4480 C   0  0  0  0  0  2  0  0  0  0  0  0
  182.2810  174.4020  134.6210 F   0  0  0  0  0  0  0  0  0  0  0  0
  183.3340  176.5030  134.6140 C   0  0  0  0  0  1  0  0  0  0  0  0
  184.5850  174.4230  135.0890 C   0  0  0  0  0  1  0  0  0  0  0  0
  183.2580  175.1360  135.2760 C   0  0  0  0  0  0  0  0  0  0  0  0
  189.5170  178.2890  137.0800 O   0  0  0  0  0  0  0  0  0  0  0  0
  188.6340  177.9760  136.0130 C   0  0  0  0  0  1  0  0  0  0  0  0
  189.0790  177.8050  142.9040 N   0  0  0  0  0  2  0  0  0  0  0  0
  186.0920  178.6450  144.9890 C   0  0  0  0  0  2  0  0  0  0  0  0
  187.0450  177.5210  145.3110 C   0  0  0  0  0  0  0  0  0  0  0  0
  187.9700  177.7580  146.3420 O   0  0  0  0  0  0  0  0  0  0  0  0
  187.4160  176.5320  144.2150 C   0  0  0  0  0  2  0  0  0  0  0  0
  189.6860  176.9260  145.0240 O   0  0  0  0  0  0  0  0  0  0  0  0
  189.1940  178.0540  145.7170 C   0  0  0  0  0  2  0  0  0  0  0  0
  185.6190  177.4350  145.7890 C   0  0  0  0  0  2  0  0  0  0  0  0
  188.8940  176.7240  143.8690 C   0  0  2  0  0  3  0  0  0  0  0  0
  1  3  1  0  0  0  0
  2  4  2  0  0  0  0
  3 43  1  1  0  0  0
  4  6  1  0  0  0  0
  4  5  1  0  0  0  0
  5  3  1  0  0  0  0
  6 29  1  6  0  0  0
  6  1  1  0  0  0  0
  7 13  1  6  0  0  0
  7 14  1  0  0  0  0
  8 11  2  0  0  0  0
  9  7  1  0  0  0  0
  9 16  1  1  0  0  0
 10 24  1  0  0  0  0
 10  9  1  0  0  0  0
 10  7  1  0  0  0  0
 11  2  1  0  0  0  0
 11 12  1  0  0  0  0
 12 15  1  0  0  0  0
 13  8  1  0  0  0  0
 14 12  2  0  0  0  0
 18 17  1  6  0  0  0
 18 16  1  0  0  0  0
 19 21  1  0  0  0  0
 19 18  1  0  0  0  0
 20 23  1  0  0  0  0
 20 22  1  0  0  0  0
 22 19  1  0  0  0  0
 23 19  1  0  0  0  0
 27 25  1  1  0  0  0
 27 26  1  0  0  0  0
 27 24  1  0  0  0  0
 29 30  1  0  0  0  0
 30 28  2  0  0  0  0
 32 31  2  0  0  0  0
 32 30  1  0  0  0  0
 33 31  1  0  0  0  0
 34 33  1  0  0  0  0
 34 36  1  0  0  0  0
 34 35  1  0  0  0  0
 36 35  1  0  0  0  0
 37 40  1  0  0  0  0
 38 40  1  0  0  0  0
 39 40  1  0  0  0  0
 40 34  1  0  0  0  0
 41  2  1  0  0  0  0
 42 41  1  0  0  0  0
 44 45  1  0  0  0  0
 44 50  1  0  0  0  0
 45 50  1  0  0  0  0
 45 46  1  0  0  0  0
 47 45  1  0  0  0  0
 48 49  1  0  0  0  0
 49 46  1  0  0  0  0
 51 43  1  6  0  0  0
 51 47  1  0  0  0  0
 51 48  1  0  0  0  0
M  END
>  <MODEL>
2

>  <REMARK>
 VINA RESULT:      -6.7      1.556      2.113
  Name = 
  14 active torsions:
  status: ('A' for Active; 'I' for Inactive)
    1  A    between atoms: C_9  and  C_15
    2  A    between atoms: C_9  and  C_22
    3  A    between atoms: C_10  and  C_12
    4  A    between atoms: C_10  and  C_27
    5  A    between atoms: C_11  and  O_14
    6  A    between atoms: C_11  and  C_31
    7  A    between atoms: C_15  and  C_37
    8  A    between atoms: C_17  and  C_27
    9  A    between atoms: N_19  and  C_23
   10  A    between atoms: N_19  and  C_44
   11  A    between atoms: N_29  and  C_38
   12  A    between atoms: C_35  and  C_50
   13  A    between atoms: C_38  and  C_45
   14  A    between atoms: N_43  and  C_47
                            x       y       z     vdW  Elec       q    Type
                         _______ _______ _______ _____ _____    ______ ____

>  <TORSDO>
F 14

$$$$
=
 OpenBabel11032420483D

 51 57  0  0  1  0  0  0  0  0999 V2000
  189.6680  176.4830  136.4800 C   0  0  0  0  0  2  0  0  0  0  0  0
  190.4510  177.1050  140.0520 C   0  0  0  0  0  0  0  0  0  0  0  0
  188.3500  176.1410  137.1590 C   0  0  1  0  0  3  0  0  0  0  0  0
  189.9380  176.7670  138.8440 C   0  0  0  0  0  0  0  0  0  0  0  0
  188.4890  176.4940  138.6300 C   0  0  0  0  0  2  0  0  0  0  0  0
  190.7070  176.6640  137.5730 C   0  0  1  0  0  3  0  0  0  0  0  0
  188.3500  177.0720  143.8080 C   0  0  1  0  0  0  0  0  0  0  0  0
  189.4410  175.8940  141.8980 C   0  0  0  0  0  3  0  0  0  0  0  0
  187.5890  177.0010  145.0600 C   0  0  1  0  0  3  0  0  0  0  0  0
  189.0810  177.1380  145.0970 N   0  0  0  0  0  0  0  0  0  0  0  0
  189.5940  177.0620  141.2530 C   0  0  0  0  0  0  0  0  0  0  0  0
  188.9460  178.3030  141.7580 C   0  0  0  0  0  0  0  0  0  0  0  0
  188.5390  175.7410  143.0920 C   0  0  0  0  0  2  0  0  0  0  0  0
  188.3370  178.3180  142.9440 C   0  0  0  0  0  3  0  0  0  0  0  0
  188.9260  179.5430  140.9300 C   0  0  0  0  0  1  0  0  0  0  0  0
  186.7860  178.2830  145.3640 C   0  0  0  0  0  2  0  0  0  0  0  0
  184.8810  178.1720  147.0200 C   0  0  0  0  0  1  0  0  0  0  0  0
  185.2920  178.0110  145.5630 C   0  0  1  0  0  3  0  0  0  0  0  0
  184.3920  178.8160  144.6160 C   0  0  0  0  0  0  0  0  0  0  0  0
  184.8960  179.3400  142.6050 C   0  0  0  0  0  2  0  0  0  0  0  0
  183.1680  179.1860  145.1770 O   0  0  0  0  0  1  0  0  0  0  0  0
  185.0900  179.9900  143.9630 C   0  0  0  0  0  2  0  0  0  0  0  0
  184.2070  178.1570  143.2650 C   0  0  0  0  0  2  0  0  0  0  0  0
  189.5150  178.4960  145.4490 C   0  0  0  0  0  2  0  0  0  0  0  0
  191.6260  177.2590  145.1010 C   0  0  0  0  0  1  0  0  0  0  0  0
  191.2830  179.3920  144.1130 O   0  0  0  0  0  1  0  0  0  0  0  0
  191.0160  178.6370  145.2560 C   0  0  1  0  0  3  0  0  0  0  0  0
  193.6490  176.7560  137.4860 O   0  0  0  0  0  0  0  0  0  0  0  0
  191.6460  175.5400  137.5940 N   0  0  0  0  0  2  0  0  0  0  0  0
  193.0790  175.6340  137.5680 C   0  0  0  0  0  0  0  0  0  0  0  0
  195.1330  174.4420  138.1280 C   0  0  0  0  0  3  0  0  0  0  0  0
  193.9020  174.4250  137.6280 C   0  0  0  0  0  3  0  0  0  0  0  0
  195.9540  173.1940  138.1690 C   0  0  0  0  0  2  0  0  0  0  0  0
  197.2500  173.3300  137.3700 C   0  0  0  0  0  0  0  0  0  0  0  0
  197.4600  174.7490  136.8770 C   0  0  0  0  0  2  0  0  0  0  0  0
  198.3250  174.1920  137.9990 C   0  0  0  0  0  2  0  0  0  0  0  0
  198.6230  172.7390  135.4670 F   0  0  0  0  0  0  0  0  0  0  0  0
  198.4060  171.1030  137.1390 C   0  0  0  0  0  1  0  0  0  0  0  0
  196.5360  171.6690  135.6230 C   0  0  0  0  0  1  0  0  0  0  0  0
  197.7190  172.2320  136.3890 C   0  0  0  0  0  0  0  0  0  0  0  0
  191.7810  177.5140  140.2520 O   0  0  0  0  0  0  0  0  0  0  0  0
  192.4690  177.4830  141.4940 C   0  0  0  0  0  1  0  0  0  0  0  0
  187.2720  176.9130  136.5580 N   0  0  0  0  0  2  0  0  0  0  0  0
  183.5690  177.4100  136.7190 C   0  0  0  0  0  2  0  0  0  0  0  0
  184.2330  176.3370  135.8920 C   0  0  0  0  0  0  0  0  0  0  0  0
  184.1920  175.0310  136.4090 O   0  0  0  0  0  0  0  0  0  0  0  0
  185.3860  176.7180  134.9740 C   0  0  0  0  0  2  0  0  0  0  0  0
  186.4520  174.7630  135.9730 O   0  0  0  0  0  0  0  0  0  0  0  0
  185.4560  174.7870  136.9740 C   0  0  0  0  0  2  0  0  0  0  0  0
  182.8840  176.8600  135.4710 C   0  0  0  0  0  2  0  0  0  0  0  0
  186.6670  176.0850  135.5170 C   0  0  2  0  0  3  0  0  0  0  0  0
  1  3  1  0  0  0  0
  1  6  1  0  0  0  0
  2 41  1  0  0  0  0
  2 11  1  0  0  0  0
  3 43  1  6  0  0  0
  3  5  1  0  0  0  0
  4  2  2  0  0  0  0
  5  4  1  0  0  0  0
  6 29  1  1  0  0  0
  6  4  1  0  0  0  0
  7 14  1  6  0  0  0
  7  9  1  0  0  0  0
  7 10  1  0  0  0  0
  8 13  1  0  0  0  0
  9 10  1  0  0  0  0
  9 16  1  1  0  0  0
 10 24  1  0  0  0  0
 11 12  1  0  0  0  0
 11  8  2  0  0  0  0
 12 14  2  0  0  0  0
 13  7  1  0  0  0  0
 15 12  1  0  0  0  0
 16 18  1  0  0  0  0
 18 17  1  1  0  0  0
 19 21  1  0  0  0  0
 19 18  1  0  0  0  0
 20 23  1  0  0  0  0
 20 22  1  0  0  0  0
 22 19  1  0  0  0  0
 23 19  1  0  0  0  0
 26 27  1  0  0  0  0
 27 25  1  6  0  0  0
 27 24  1  0  0  0  0
 28 30  2  0  0  0  0
 30 29  1  0  0  0  0
 30 32  1  0  0  0  0
 31 33  1  0  0  0  0
 32 31  2  0  0  0  0
 34 36  1  0  0  0  0
 34 33  1  0  0  0  0
 35 34  1  0  0  0  0
 35 36  1  0  0  0  0
 37 40  1  0  0  0  0
 39 40  1  0  0  0  0
 40 38  1  0  0  0  0
 40 34  1  0  0  0  0
 41 42  1  0  0  0  0
 45 46  1  0  0  0  0
 45 44  1  0  0  0  0
 46 49  1  0  0  0  0
 47 51  1  0  0  0  0
 47 45  1  0  0  0  0
 48 49  1  0  0  0  0
 50 45  1  0  0  0  0
 50 44  1  0  0  0  0
 51 48  1  0  0  0  0
 51 43  1  1  0  0  0
M  END
>  <MODEL>
3

>  <REMARK>
 VINA RESULT:      -6.7      3.656     11.339
  Name = 
  14 active torsions:
  status: ('A' for Active; 'I' for Inactive)
    1  A    between atoms: C_9  and  C_15
    2  A    between atoms: C_9  and  C_22
    3  A    between atoms: C_10  and  C_12
    4  A    between atoms: C_10  and  C_27
    5  A    between atoms: C_11  and  O_14
    6  A    between atoms: C_11  and  C_31
    7  A    between atoms: C_15  and  C_37
    8  A    between atoms: C_17  and  C_27
    9  A    between atoms: N_19  and  C_23
   10  A    between atoms: N_19  and  C_44
   11  A    between atoms: N_29  and  C_38
   12  A    between atoms: C_35  and  C_50
   13  A    between atoms: C_38  and  C_45
   14  A    between atoms: N_43  and  C_47
                            x       y       z     vdW  Elec       q    Type
                         _______ _______ _______ _____ _____    ______ ____

>  <TORSDO>
F 14

$$$$
=
 OpenBabel11032420483D

 51 57  0  0  1  0  0  0  0  0999 V2000
  191.3900  176.1220  139.0500 C   0  0  0  0  0  2  0  0  0  0  0  0
  188.2110  178.0340  138.9890 C   0  0  0  0  0  0  0  0  0  0  0  0
  190.5820  175.3650  138.0060 C   0  0  1  0  0  3  0  0  0  0  0  0
  189.2370  177.1580  138.8590 C   0  0  0  0  0  0  0  0  0  0  0  0
  189.2950  176.1380  137.7750 C   0  0  0  0  0  2  0  0  0  0  0  0
  190.4490  177.1070  139.7230 C   0  0  1  0  0  3  0  0  0  0  0  0
  184.7330  177.1790  136.6020 C   0  0  1  0  0  0  0  0  0  0  0  0
  187.1830  177.5940  136.8340 C   0  0  0  0  0  3  0  0  0  0  0  0
  183.5750  176.9400  135.7340 C   0  0  1  0  0  3  0  0  0  0  0  0
  184.2800  175.7840  136.3790 N   0  0  0  0  0  0  0  0  0  0  0  0
  187.0170  177.9010  138.1310 C   0  0  0  0  0  0  0  0  0  0  0  0
  185.6560  178.0660  138.7080 C   0  0  0  0  0  0  0  0  0  0  0  0
  186.0310  177.4990  135.8720 C   0  0  0  0  0  2  0  0  0  0  0  0
  184.5730  177.7540  137.9950 C   0  0  0  0  0  3  0  0  0  0  0  0
  185.4710  178.6240  140.0790 C   0  0  0  0  0  1  0  0  0  0  0  0
  182.2340  177.3530  136.3740 C   0  0  0  0  0  2  0  0  0  0  0  0
  180.3930  177.6300  134.6640 C   0  0  0  0  0  1  0  0  0  0  0  0
  181.4440  178.3390  135.5070 C   0  0  1  0  0  3  0  0  0  0  0  0
  180.8550  179.5140  136.2970 C   0  0  0  0  0  0  0  0  0  0  0  0
  180.1150  179.3880  138.2990 C   0  0  0  0  0  2  0  0  0  0  0  0
  180.8480  180.7210  135.5960 O   0  0  0  0  0  1  0  0  0  0  0  0
  179.5070  179.2150  136.9190 C   0  0  0  0  0  2  0  0  0  0  0  0
  181.4680  179.6760  137.6720 C   0  0  0  0  0  2  0  0  0  0  0  0
  183.5320  175.2280  137.5140 C   0  0  0  0  0  2  0  0  0  0  0  0
  181.5990  173.7930  136.9590 C   0  0  0  0  0  1  0  0  0  0  0  0
  183.7550  173.3320  136.0770 O   0  0  0  0  0  1  0  0  0  0  0  0
  183.0930  173.8060  137.2110 C   0  0  1  0  0  3  0  0  0  0  0  0
  192.1120  177.3540  142.1400 O   0  0  0  0  0  0  0  0  0  0  0  0
  190.1290  176.6760  141.0870 N   0  0  0  0  0  2  0  0  0  0  0  0
  190.9680  176.8350  142.2420 C   0  0  0  0  0  0  0  0  0  0  0  0
  190.1450  177.2480  144.5020 C   0  0  0  0  0  3  0  0  0  0  0  0
  190.5080  176.3870  143.5570 C   0  0  0  0  0  3  0  0  0  0  0  0
  189.6880  176.7640  145.8390 C   0  0  0  0  0  2  0  0  0  0  0  0
  188.3000  177.2910  146.1990 C   0  0  0  0  0  0  0  0  0  0  0  0
  187.7670  178.2410  145.1430 C   0  0  0  0  0  2  0  0  0  0  0  0
  187.1700  176.8480  145.2920 C   0  0  0  0  0  2  0  0  0  0  0  0
  187.5950  176.5410  148.3890 F   0  0  0  0  0  0  0  0  0  0  0  0
  189.0890  178.3540  148.3440 C   0  0  0  0  0  1  0  0  0  0  0  0
  186.7250  178.5990  147.6590 C   0  0  0  0  0  1  0  0  0  0  0  0
  187.9240  177.6670  147.6500 C   0  0  0  0  0  0  0  0  0  0  0  0
  188.2020  179.1000  139.9050 O   0  0  0  0  0  0  0  0  0  0  0  0
  188.1380  178.9660  141.3170 C   0  0  0  0  0  1  0  0  0  0  0  0
  191.3420  175.2740  136.7670 N   0  0  0  0  0  2  0  0  0  0  0  0
  194.7450  176.2010  135.5250 C   0  0  0  0  0  2  0  0  0  0  0  0
  194.3120  174.7810  135.7980 C   0  0  0  0  0  0  0  0  0  0  0  0
  193.9960  173.9960  134.6770 O   0  0  0  0  0  0  0  0  0  0  0  0
  193.6450  174.4540  137.1260 C   0  0  0  0  0  2  0  0  0  0  0  0
  192.0490  173.2720  135.7060 O   0  0  0  0  0  0  0  0  0  0  0  0
  192.5920  173.9610  134.5990 C   0  0  0  0  0  2  0  0  0  0  0  0
  195.7750  175.1350  135.8910 C   0  0  0  0  0  2  0  0  0  0  0  0
  192.1850  174.0840  136.8560 C   0  0  2  0  0  3  0  0  0  0  0  0
  1  6  1  0  0  0  0
  2 41  1  0  0  0  0
  3 43  1  6  0  0  0
  3  1  1  0  0  0  0
  4  2  2  0  0  0  0
  4  6  1  0  0  0  0
  5  3  1  0  0  0  0
  5  4  1  0  0  0  0
  6 29  1  1  0  0  0
  7 13  1  6  0  0  0
  7 14  1  0  0  0  0
  8 11  2  0  0  0  0
  9 16  1  1  0  0  0
  9 10  1  0  0  0  0
  9  7  1  0  0  0  0
 10  7  1  0  0  0  0
 10 24  1  0  0  0  0
 11 12  1  0  0  0  0
 11  2  1  0  0  0  0
 12 15  1  0  0  0  0
 13  8  1  0  0  0  0
 14 12  2  0  0  0  0
 18 17  1  1  0  0  0
 18 19  1  0  0  0  0
 18 16  1  0  0  0  0
 19 22  1  0  0  0  0
 19 23  1  0  0  0  0
 21 19  1  0  0  0  0
 22 20  1  0  0  0  0
 23 20  1  0  0  0  0
 26 27  1  0  0  0  0
 27 25  1  6  0  0  0
 27 24  1  0  0  0  0
 28 30  2  0  0  0  0
 29 30  1  0  0  0  0
 30 32  1  0  0  0  0
 31 33  1  0  0  0  0
 32 31  2  0  0  0  0
 33 34  1  0  0  0  0
 34 40  1  0  0  0  0
 35 36  1  0  0  0  0
 35 34  1  0  0  0  0
 36 34  1  0  0  0  0
 40 39  1  0  0  0  0
 40 38  1  0  0  0  0
 40 37  1  0  0  0  0
 41 42  1  0  0  0  0
 44 45  1  0  0  0  0
 44 50  1  0  0  0  0
 45 50  1  0  0  0  0
 45 47  1  0  0  0  0
 46 45  1  0  0  0  0
 48 51  1  0  0  0  0
 49 46  1  0  0  0  0
 49 48  1  0  0  0  0
 51 43  1  6  0  0  0
 51 47  1  0  0  0  0
M  END
>  <MODEL>
4

>  <REMARK>
 VINA RESULT:      -6.1      3.238     10.719
  Name = 
  14 active torsions:
  status: ('A' for Active; 'I' for Inactive)
    1  A    between atoms: C_9  and  C_15
    2  A    between atoms: C_9  and  C_22
    3  A    between atoms: C_10  and  C_12
    4  A    between atoms: C_10  and  C_27
    5  A    between atoms: C_11  and  O_14
    6  A    between atoms: C_11  and  C_31
    7  A    between atoms: C_15  and  C_37
    8  A    between atoms: C_17  and  C_27
    9  A    between atoms: N_19  and  C_23
   10  A    between atoms: N_19  and  C_44
   11  A    between atoms: N_29  and  C_38
   12  A    between atoms: C_35  and  C_50
   13  A    between atoms: C_38  and  C_45
   14  A    between atoms: N_43  and  C_47
                            x       y       z     vdW  Elec       q    Type
                         _______ _______ _______ _____ _____    ______ ____

>  <TORSDO>
F 14

$$$$
=
 OpenBabel11032420483D

 51 57  0  0  1  0  0  0  0  0999 V2000
  187.4680  177.9870  143.0180 C   0  0  0  0  0  2  0  0  0  0  0  0
  189.3480  177.9330  139.8200 C   0  0  0  0  0  0  0  0  0  0  0  0
  188.1270  176.6150  143.0580 C   0  0  1  0  0  3  0  0  0  0  0  0
  188.7260  177.6910  141.0000 C   0  0  0  0  0  0  0  0  0  0  0  0
  189.0540  176.5180  141.8580 C   0  0  0  0  0  2  0  0  0  0  0  0
  187.6850  178.5520  141.6240 C   0  0  1  0  0  3  0  0  0  0  0  0
  192.1740  175.3500  137.8530 C   0  0  1  0  0  0  0  0  0  0  0  0
  189.8350  176.0700  138.3410 C   0  0  0  0  0  3  0  0  0  0  0  0
  193.0890  174.4080  137.2000 C   0  0  1  0  0  3  0  0  0  0  0  0
  192.7550  175.7100  136.5360 N   0  0  0  0  0  0  0  0  0  0  0  0
  190.2840  176.9370  139.2630 C   0  0  0  0  0  0  0  0  0  0  0  0
  191.7090  176.9240  139.6920 C   0  0  0  0  0  0  0  0  0  0  0  0
  190.6980  174.9820  137.7650 C   0  0  0  0  0  2  0  0  0  0  0  0
  192.6040  176.1670  139.0560 C   0  0  0  0  0  3  0  0  0  0  0  0
  192.1590  177.7240  140.8680 C   0  0  0  0  0  1  0  0  0  0  0  0
  194.4740  174.3320  137.8750 C   0  0  0  0  0  2  0  0  0  0  0  0
  195.2810  173.0800  135.8330 C   0  0  0  0  0  1  0  0  0  0  0  0
  195.3230  173.1680  137.3520 C   0  0  1  0  0  3  0  0  0  0  0  0
  196.7590  173.1660  137.8920 C   0  0  0  0  0  0  0  0  0  0  0  0
  197.9420  174.9170  138.2170 C   0  0  0  0  0  2  0  0  0  0  0  0
  197.2540  171.8930  138.1780 O   0  0  0  0  0  1  0  0  0  0  0  0
  197.7270  173.9710  137.0500 C   0  0  0  0  0  2  0  0  0  0  0  0
  196.9610  174.1150  139.0550 C   0  0  0  0  0  2  0  0  0  0  0  0
  193.8440  176.6890  136.6310 C   0  0  0  0  0  2  0  0  0  0  0  0
  195.7660  177.6760  135.4320 C   0  0  0  0  0  1  0  0  0  0  0  0
  194.7130  175.7010  134.6360 O   0  0  0  0  0  1  0  0  0  0  0  0
  194.4630  176.9230  135.2630 C   0  0  1  0  0  3  0  0  0  0  0  0
  185.1620  179.9380  142.2460 O   0  0  0  0  0  0  0  0  0  0  0  0
  186.4370  178.5430  140.8570 N   0  0  0  0  0  2  0  0  0  0  0  0
  185.2340  179.2520  141.1910 C   0  0  0  0  0  0  0  0  0  0  0  0
  183.7580  178.0720  139.6460 C   0  0  0  0  0  3  0  0  0  0  0  0
  184.0640  179.1810  140.3120 C   0  0  0  0  0  3  0  0  0  0  0  0
  182.5630  178.0290  138.7500 C   0  0  0  0  0  2  0  0  0  0  0  0
  181.3120  178.5830  139.4300 C   0  0  0  0  0  0  0  0  0  0  0  0
  180.2700  177.5050  139.6540 C   0  0  0  0  0  2  0  0  0  0  0  0
  181.0450  178.0770  140.8330 C   0  0  0  0  0  2  0  0  0  0  0  0
  181.7380  180.9230  138.9840 F   0  0  0  0  0  0  0  0  0  0  0  0
  180.0310  179.9200  137.7200 C   0  0  0  0  0  1  0  0  0  0  0  0
  179.7440  180.4220  140.1240 C   0  0  0  0  0  1  0  0  0  0  0  0
  180.7350  179.9700  139.0660 C   0  0  0  0  0  0  0  0  0  0  0  0
  189.1690  179.1060  139.0660 O   0  0  0  0  0  0  0  0  0  0  0  0
  188.6890  179.1550  137.7300 C   0  0  0  0  0  1  0  0  0  0  0  0
  188.8850  176.4690  144.2920 N   0  0  0  0  0  2  0  0  0  0  0  0
  190.8630  176.1170  147.4450 C   0  0  0  0  0  2  0  0  0  0  0  0
  189.9770  177.3000  147.1420 C   0  0  0  0  0  0  0  0  0  0  0  0
  188.7340  177.3350  147.7950 O   0  0  0  0  0  0  0  0  0  0  0  0
  190.1110  177.9970  145.7960 C   0  0  0  0  0  2  0  0  0  0  0  0
  187.6740  177.8470  145.7980 O   0  0  0  0  0  0  0  0  0  0  0  0
  187.7780  176.9140  146.8530 C   0  0  0  0  0  2  0  0  0  0  0  0
  191.1500  177.4780  148.0710 C   0  0  0  0  0  2  0  0  0  0  0  0
  188.8330  177.7500  144.9930 C   0  0  2  0  0  3  0  0  0  0  0  0
  1  3  1  0  0  0  0
  2  4  2  0  0  0  0
  3 43  1  1  0  0  0
  4  6  1  0  0  0  0
  4  5  1  0  0  0  0
  5  3  1  0  0  0  0
  6 29  1  6  0  0  0
  6  1  1  0  0  0  0
  7 13  1  6  0  0  0
  7 14  1  0  0  0  0
  8 11  2  0  0  0  0
  9  7  1  0  0  0  0
  9 16  1  1  0  0  0
 10 24  1  0  0  0  0
 10  9  1  0  0  0  0
 10  7  1  0  0  0  0
 11 12  1  0  0  0  0
 11  2  1  0  0  0  0
 12 15  1  0  0  0  0
 13  8  1  0  0  0  0
 14 12  2  0  0  0  0
 18 17  1  6  0  0  0
 18 16  1  0  0  0  0
 18 19  1  0  0  0  0
 19 21  1  0  0  0  0
 19 23  1  0  0  0  0
 20 23  1  0  0  0  0
 22 19  1  0  0  0  0
 22 20  1  0  0  0  0
 26 27  1  0  0  0  0
 27 25  1  1  0  0  0
 27 24  1  0  0  0  0
 29 30  1  0  0  0  0
 30 28  2  0  0  0  0
 31 32  2  0  0  0  0
 32 30  1  0  0  0  0
 33 34  1  0  0  0  0
 33 31  1  0  0  0  0
 34 35  1  0  0  0  0
 34 36  1  0  0  0  0
 35 36  1  0  0  0  0
 37 40  1  0  0  0  0
 38 40  1  0  0  0  0
 40 34  1  0  0  0  0
 40 39  1  0  0  0  0
 41  2  1  0  0  0  0
 42 41  1  0  0  0  0
 44 50  1  0  0  0  0
 45 44  1  0  0  0  0
 45 46  1  0  0  0  0
 45 50  1  0  0  0  0
 47 45  1  0  0  0  0
 48 49  1  0  0  0  0
 49 46  1  0  0  0  0
 51 43  1  1  0  0  0
 51 47  1  0  0  0  0
 51 48  1  0  0  0  0
M  END
>  <MODEL>
5

>  <REMARK>
 VINA RESULT:      -6.0      2.294      2.873
  Name = 
  14 active torsions:
  status: ('A' for Active; 'I' for Inactive)
    1  A    between atoms: C_9  and  C_15
    2  A    between atoms: C_9  and  C_22
    3  A    between atoms: C_10  and  C_12
    4  A    between atoms: C_10  and  C_27
    5  A    between atoms: C_11  and  O_14
    6  A    between atoms: C_11  and  C_31
    7  A    between atoms: C_15  and  C_37
    8  A    between atoms: C_17  and  C_27
    9  A    between atoms: N_19  and  C_23
   10  A    between atoms: N_19  and  C_44
   11  A    between atoms: N_29  and  C_38
   12  A    between atoms: C_35  and  C_50
   13  A    between atoms: C_38  and  C_45
   14  A    between atoms: N_43  and  C_47
                            x       y       z     vdW  Elec       q    Type
                         _______ _______ _______ _____ _____    ______ ____

>  <TORSDO>
F 14

$$$$
=
 OpenBabel11032420483D

 51 57  0  0  1  0  0  0  0  0999 V2000
  187.4500  177.7330  143.2340 C   0  0  0  0  0  2  0  0  0  0  0  0
  189.2930  177.8180  140.0150 C   0  0  0  0  0  0  0  0  0  0  0  0
  188.0670  176.3430  143.1830 C   0  0  1  0  0  3  0  0  0  0  0  0
  188.6770  177.5230  141.1860 C   0  0  0  0  0  0  0  0  0  0  0  0
  188.9780  176.2920  141.9680 C   0  0  0  0  0  2  0  0  0  0  0  0
  187.6680  178.3750  141.8750 C   0  0  1  0  0  3  0  0  0  0  0  0
  191.9840  175.2610  137.8380 C   0  0  1  0  0  0  0  0  0  0  0  0
  189.6820  175.9630  138.4980 C   0  0  0  0  0  3  0  0  0  0  0  0
  192.8550  174.3270  137.1160 C   0  0  1  0  0  3  0  0  0  0  0  0
  192.4640  175.6290  136.4830 N   0  0  0  0  0  0  0  0  0  0  0  0
  190.1920  176.8300  139.3880 C   0  0  0  0  0  0  0  0  0  0  0  0
  191.6450  176.8260  139.7110 C   0  0  0  0  0  0  0  0  0  0  0  0
  190.5090  174.8830  137.8560 C   0  0  0  0  0  2  0  0  0  0  0  0
  192.4960  176.0770  139.0080 C   0  0  0  0  0  3  0  0  0  0  0  0
  192.1750  177.6250  140.8530 C   0  0  0  0  0  1  0  0  0  0  0  0
  194.2870  174.2590  137.6860 C   0  0  0  0  0  2  0  0  0  0  0  0
  194.2730  172.1570  136.2830 C   0  0  0  0  0  1  0  0  0  0  0  0
  194.9750  172.9210  137.3970 C   0  0  1  0  0  3  0  0  0  0  0  0
  196.4840  173.0490  137.1480 C   0  0  0  0  0  0  0  0  0  0  0  0
  197.6070  171.8220  135.8050 C   0  0  0  0  0  2  0  0  0  0  0  0
  197.0930  174.0710  137.8790 O   0  0  0  0  0  1  0  0  0  0  0  0
  197.2350  171.7410  137.2750 C   0  0  0  0  0  2  0  0  0  0  0  0
  196.8420  173.1280  135.6790 C   0  0  0  0  0  2  0  0  0  0  0  0
  193.5510  176.6160  136.5000 C   0  0  0  0  0  2  0  0  0  0  0  0
  195.8260  176.6940  135.5380 C   0  0  0  0  0  1  0  0  0  0  0  0
  194.1480  175.3040  134.5940 O   0  0  0  0  0  1  0  0  0  0  0  0
  194.3550  176.5380  135.2130 C   0  0  1  0  0  3  0  0  0  0  0  0
  185.1010  179.5260  142.7420 O   0  0  0  0  0  0  0  0  0  0  0  0
  186.4130  178.4500  141.1230 N   0  0  0  0  0  2  0  0  0  0  0  0
  185.1860  179.0390  141.5830 C   0  0  0  0  0  0  0  0  0  0  0  0
  183.5120  177.9710  140.1650 C   0  0  0  0  0  3  0  0  0  0  0  0
  184.0100  179.0750  140.7110 C   0  0  0  0  0  3  0  0  0  0  0  0
  182.3160  178.0370  139.2730 C   0  0  0  0  0  2  0  0  0  0  0  0
  181.8300  176.6490  138.8560 C   0  0  0  0  0  0  0  0  0  0  0  0
  181.9400  176.4410  137.3580 C   0  0  0  0  0  2  0  0  0  0  0  0
  182.8890  175.7170  138.3040 C   0  0  0  0  0  2  0  0  0  0  0  0
  180.8000  174.6380  139.7230 F   0  0  0  0  0  0  0  0  0  0  0  0
  180.2900  176.6350  140.8520 C   0  0  0  0  0  1  0  0  0  0  0  0
  179.3800  176.1420  138.6060 C   0  0  0  0  0  1  0  0  0  0  0  0
  180.5920  175.9920  139.5080 C   0  0  0  0  0  0  0  0  0  0  0  0
  189.1410  179.0390  139.3360 O   0  0  0  0  0  0  0  0  0  0  0  0
  188.5410  179.1960  138.0590 C   0  0  0  0  0  1  0  0  0  0  0  0
  188.8330  176.1000  144.3960 N   0  0  0  0  0  2  0  0  0  0  0  0
  191.2000  175.2080  147.1500 C   0  0  0  0  0  2  0  0  0  0  0  0
  191.1080  176.5850  146.5400 C   0  0  0  0  0  0  0  0  0  0  0  0
  190.4290  177.5590  147.2900 O   0  0  0  0  0  0  0  0  0  0  0  0
  191.1390  176.7250  145.0250 C   0  0  0  0  0  2  0  0  0  0  0  0
  189.2380  178.2070  145.4100 O   0  0  0  0  0  0  0  0  0  0  0  0
  189.1500  177.6800  146.7170 C   0  0  0  0  0  2  0  0  0  0  0  0
  192.4070  176.1420  147.1650 C   0  0  0  0  0  2  0  0  0  0  0  0
  189.7670  177.2120  144.5560 C   0  0  2  0  0  3  0  0  0  0  0  0
  2  4  2  0  0  0  0
  3  1  1  0  0  0  0
  3 43  1  1  0  0  0
  4  6  1  0  0  0  0
  4  5  1  0  0  0  0
  5  3  1  0  0  0  0
  6 29  1  6  0  0  0
  6  1  1  0  0  0  0
  7 13  1  1  0  0  0
  7 14  1  0  0  0  0
  8 11  2  0  0  0  0
  9 16  1  1  0  0  0
  9  7  1  0  0  0  0
 10 24  1  0  0  0  0
 10  9  1  0  0  0  0
 10  7  1  0  0  0  0
 11 12  1  0  0  0  0
 11  2  1  0  0  0  0
 12 15  1  0  0  0  0
 13  8  1  0  0  0  0
 14 12  2  0  0  0  0
 18 17  1  6  0  0  0
 18 16  1  0  0  0  0
 19 22  1  0  0  0  0
 19 18  1  0  0  0  0
 19 21  1  0  0  0  0
 20 22  1  0  0  0  0
 23 20  1  0  0  0  0
 23 19  1  0  0  0  0
 26 27  1  0  0  0  0
 27 25  1  1  0  0  0
 27 24  1  0  0  0  0
 29 30  1  0  0  0  0
 30 28  2  0  0  0  0
 31 32  2  0  0  0  0
 32 30  1  0  0  0  0
 33 31  1  0  0  0  0
 34 33  1  0  0  0  0
 34 40  1  0  0  0  0
 35 36  1  0  0  0  0
 35 34  1  0  0  0  0
 36 34  1  0  0  0  0
 39 40  1  0  0  0  0
 40 37  1  0  0  0  0
 40 38  1  0  0  0  0
 41  2  1  0  0  0  0
 42 41  1  0  0  0  0
 44 50  1  0  0  0  0
 45 44  1  0  0  0  0
 45 50  1  0  0  0  0
 45 46  1  0  0  0  0
 47 45  1  0  0  0  0
 48 49  1  0  0  0  0
 49 46  1  0  0  0  0
 51 43  1  1  0  0  0
 51 47  1  0  0  0  0
 51 48  1  0  0  0  0
M  END
>  <MODEL>
6

>  <REMARK>
 VINA RESULT:      -5.6      1.552      1.867
  Name = 
  14 active torsions:
  status: ('A' for Active; 'I' for Inactive)
    1  A    between atoms: C_9  and  C_15
    2  A    between atoms: C_9  and  C_22
    3  A    between atoms: C_10  and  C_12
    4  A    between atoms: C_10  and  C_27
    5  A    between atoms: C_11  and  O_14
    6  A    between atoms: C_11  and  C_31
    7  A    between atoms: C_15  and  C_37
    8  A    between atoms: C_17  and  C_27
    9  A    between atoms: N_19  and  C_23
   10  A    between atoms: N_19  and  C_44
   11  A    between atoms: N_29  and  C_38
   12  A    between atoms: C_35  and  C_50
   13  A    between atoms: C_38  and  C_45
   14  A    between atoms: N_43  and  C_47
                            x       y       z     vdW  Elec       q    Type
                         _______ _______ _______ _____ _____    ______ ____

>  <TORSDO>
F 14

$$$$
=
 OpenBabel11032420483D

 51 57  0  0  1  0  0  0  0  0999 V2000
  187.4550  177.7160  143.2490 C   0  0  0  0  0  2  0  0  0  0  0  0
  189.3620  177.8260  140.0670 C   0  0  0  0  0  0  0  0  0  0  0  0
  188.1320  176.3530  143.2350 C   0  0  1  0  0  3  0  0  0  0  0  0
  188.7340  177.5240  141.2310 C   0  0  0  0  0  0  0  0  0  0  0  0
  189.0700  176.3200  142.0410 C   0  0  0  0  0  2  0  0  0  0  0  0
  187.6760  178.3440  141.8830 C   0  0  1  0  0  3  0  0  0  0  0  0
  192.2150  175.3550  137.9990 C   0  0  1  0  0  0  0  0  0  0  0  0
  189.8680  175.9860  138.5670 C   0  0  0  0  0  3  0  0  0  0  0  0
  193.1420  174.4500  137.3120 C   0  0  1  0  0  3  0  0  0  0  0  0
  192.7370  175.7400  136.6640 N   0  0  0  0  0  0  0  0  0  0  0  0
  190.3150  176.8670  139.4770 C   0  0  0  0  0  0  0  0  0  0  0  0
  191.7530  176.9070  139.8570 C   0  0  0  0  0  0  0  0  0  0  0  0
  190.7520  174.9320  137.9580 C   0  0  0  0  0  2  0  0  0  0  0  0
  192.6540  176.1850  139.1890 C   0  0  0  0  0  3  0  0  0  0  0  0
  192.2120  177.7210  141.0190 C   0  0  0  0  0  1  0  0  0  0  0  0
  194.5510  174.4250  137.9390 C   0  0  0  0  0  2  0  0  0  0  0  0
  194.6710  172.3550  136.4940 C   0  0  0  0  0  1  0  0  0  0  0  0
  195.3070  173.1250  137.6430 C   0  0  1  0  0  3  0  0  0  0  0  0
  196.8150  173.3250  137.4410 C   0  0  0  0  0  0  0  0  0  0  0  0
  197.7870  173.4270  135.5390 C   0  0  0  0  0  2  0  0  0  0  0  0
  197.5330  173.4540  138.6310 O   0  0  0  0  0  1  0  0  0  0  0  0
  197.4440  172.3110  136.5090 C   0  0  0  0  0  2  0  0  0  0  0  0
  197.1440  174.4400  136.4710 C   0  0  0  0  0  2  0  0  0  0  0  0
  193.7910  176.7590  136.7250 C   0  0  0  0  0  2  0  0  0  0  0  0
  194.1790  175.5600  134.5990 C   0  0  0  0  0  1  0  0  0  0  0  0
  194.7170  177.8630  134.8180 O   0  0  0  0  0  1  0  0  0  0  0  0
  194.6990  176.6520  135.5110 C   0  0  1  0  0  3  0  0  0  0  0  0
  185.0330  179.3590  142.6930 O   0  0  0  0  0  0  0  0  0  0  0  0
  186.4340  178.3520  141.1050 N   0  0  0  0  0  2  0  0  0  0  0  0
  185.1690  178.8770  141.5370 C   0  0  0  0  0  0  0  0  0  0  0  0
  182.7670  178.8600  141.1060 C   0  0  0  0  0  3  0  0  0  0  0  0
  184.0120  178.8500  140.6410 C   0  0  0  0  0  3  0  0  0  0  0  0
  181.6040  178.8240  140.1700 C   0  0  0  0  0  2  0  0  0  0  0  0
  181.9840  179.2790  138.7610 C   0  0  0  0  0  0  0  0  0  0  0  0
  181.2190  180.5210  138.3450 C   0  0  0  0  0  2  0  0  0  0  0  0
  182.7040  180.6090  138.6690 C   0  0  0  0  0  2  0  0  0  0  0  0
  183.4970  178.4420  137.0680 F   0  0  0  0  0  0  0  0  0  0  0  0
  182.1510  176.8420  138.1410 C   0  0  0  0  0  1  0  0  0  0  0  0
  181.2120  178.4520  136.5160 C   0  0  0  0  0  1  0  0  0  0  0  0
  182.2370  178.2670  137.6200 C   0  0  0  0  0  0  0  0  0  0  0  0
  189.1720  179.0280  139.3640 O   0  0  0  0  0  0  0  0  0  0  0  0
  188.9350  179.1300  137.9670 C   0  0  0  0  0  1  0  0  0  0  0  0
  188.8820  176.1630  144.4680 N   0  0  0  0  0  2  0  0  0  0  0  0
  191.2550  175.3980  147.2540 C   0  0  0  0  0  2  0  0  0  0  0  0
  191.1140  176.7640  146.6280 C   0  0  0  0  0  0  0  0  0  0  0  0
  190.3880  177.7170  147.3610 O   0  0  0  0  0  0  0  0  0  0  0  0
  191.1540  176.8890  145.1120 C   0  0  0  0  0  2  0  0  0  0  0  0
  189.1910  178.2960  145.4620 O   0  0  0  0  0  0  0  0  0  0  0  0
  189.1110  177.7810  146.7740 C   0  0  0  0  0  2  0  0  0  0  0  0
  192.4230  176.3810  147.2700 C   0  0  0  0  0  2  0  0  0  0  0  0
  189.7690  177.3140  144.6240 C   0  0  2  0  0  3  0  0  0  0  0  0
  2  4  2  0  0  0  0
  3  1  1  0  0  0  0
  3 43  1  1  0  0  0
  4  6  1  0  0  0  0
  4  5  1  0  0  0  0
  5  3  1  0  0  0  0
  6 29  1  6  0  0  0
  6  1  1  0  0  0  0
  7 13  1  1  0  0  0
  7 14  1  0  0  0  0
  8 11  2  0  0  0  0
  9 16  1  1  0  0  0
  9  7  1  0  0  0  0
 10 24  1  0  0  0  0
 10  9  1  0  0  0  0
 10  7  1  0  0  0  0
 11 12  1  0  0  0  0
 11  2  1  0  0  0  0
 12 15  1  0  0  0  0
 13  8  1  0  0  0  0
 14 12  2  0  0  0  0
 18 17  1  6  0  0  0
 18 16  1  0  0  0  0
 19 18  1  0  0  0  0
 19 21  1  0  0  0  0
 20 23  1  0  0  0  0
 20 22  1  0  0  0  0
 22 19  1  0  0  0  0
 23 19  1  0  0  0  0
 26 27  1  0  0  0  0
 27 25  1  6  0  0  0
 27 24  1  0  0  0  0
 29 30  1  0  0  0  0
 30 28  2  0  0  0  0
 32 31  2  0  0  0  0
 32 30  1  0  0  0  0
 33 31  1  0  0  0  0
 34 33  1  0  0  0  0
 35 36  1  0  0  0  0
 35 34  1  0  0  0  0
 36 34  1  0  0  0  0
 37 40  1  0  0  0  0
 39 40  1  0  0  0  0
 40 38  1  0  0  0  0
 40 34  1  0  0  0  0
 41  2  1  0  0  0  0
 42 41  1  0  0  0  0
 44 50  1  0  0  0  0
 45 44  1  0  0  0  0
 45 50  1  0  0  0  0
 45 46  1  0  0  0  0
 47 45  1  0  0  0  0
 48 49  1  0  0  0  0
 49 46  1  0  0  0  0
 51 43  1  1  0  0  0
 51 47  1  0  0  0  0
 51 48  1  0  0  0  0
M  END
>  <MODEL>
7

>  <REMARK>
 VINA RESULT:      -5.4      1.893      2.475
  Name = 
  14 active torsions:
  status: ('A' for Active; 'I' for Inactive)
    1  A    between atoms: C_9  and  C_15
    2  A    between atoms: C_9  and  C_22
    3  A    between atoms: C_10  and  C_12
    4  A    between atoms: C_10  and  C_27
    5  A    between atoms: C_11  and  O_14
    6  A    between atoms: C_11  and  C_31
    7  A    between atoms: C_15  and  C_37
    8  A    between atoms: C_17  and  C_27
    9  A    between atoms: N_19  and  C_23
   10  A    between atoms: N_19  and  C_44
   11  A    between atoms: N_29  and  C_38
   12  A    between atoms: C_35  and  C_50
   13  A    between atoms: C_38  and  C_45
   14  A    between atoms: N_43  and  C_47
                            x       y       z     vdW  Elec       q    Type
                         _______ _______ _______ _____ _____    ______ ____

>  <TORSDO>
F 14

$$$$
=
 OpenBabel11032420483D

 51 57  0  0  1  0  0  0  0  0999 V2000
  183.1780  177.0310  134.6340 C   0  0  0  0  0  2  0  0  0  0  0  0
  182.2300  177.9100  138.1120 C   0  0  0  0  0  0  0  0  0  0  0  0
  184.5320  177.3020  135.2750 C   0  0  1  0  0  3  0  0  0  0  0  0
  182.8220  177.6750  136.9150 C   0  0  0  0  0  0  0  0  0  0  0  0
  184.2970  177.5370  136.7580 C   0  0  0  0  0  2  0  0  0  0  0  0
  182.1130  177.4790  135.6200 C   0  0  1  0  0  3  0  0  0  0  0  0
  184.2540  178.9360  141.7690 C   0  0  1  0  0  0  0  0  0  0  0  0
  183.6930  179.3760  139.3770 C   0  0  0  0  0  3  0  0  0  0  0  0
  185.0090  179.3040  142.9710 C   0  0  1  0  0  3  0  0  0  0  0  0
  183.5920  179.7660  142.8050 N   0  0  0  0  0  0  0  0  0  0  0  0
  183.0590  178.1950  139.2990 C   0  0  0  0  0  0  0  0  0  0  0  0
  183.1550  177.2030  140.4040 C   0  0  0  0  0  0  0  0  0  0  0  0
  184.6080  179.7290  140.5180 C   0  0  0  0  0  2  0  0  0  0  0  0
  183.7330  177.5270  141.5610 C   0  0  0  0  0  3  0  0  0  0  0  0
  182.6450  175.8130  140.2270 C   0  0  0  0  0  1  0  0  0  0  0  0
  185.2230  178.1260  143.9450 C   0  0  0  0  0  2  0  0  0  0  0  0
  185.6350  178.5670  146.3990 C   0  0  0  0  0  1  0  0  0  0  0  0
  186.2690  178.4330  145.0210 C   0  0  1  0  0  3  0  0  0  0  0  0
  187.4520  177.4550  145.0220 C   0  0  0  0  0  0  0  0  0  0  0  0
  189.3530  177.8410  145.9220 C   0  0  0  0  0  2  0  0  0  0  0  0
  187.1850  176.2450  144.3790 O   0  0  0  0  0  1  0  0  0  0  0  0
  188.7510  178.0710  144.5470 C   0  0  0  0  0  2  0  0  0  0  0  0
  188.0430  177.2340  146.3980 C   0  0  0  0  0  2  0  0  0  0  0  0
  182.6490  179.0100  143.6390 C   0  0  0  0  0  2  0  0  0  0  0  0
  180.2570  178.4600  143.9250 C   0  0  0  0  0  1  0  0  0  0  0  0
  180.9600  180.0500  142.3060 O   0  0  0  0  0  1  0  0  0  0  0  0
  181.3210  178.8490  142.9190 C   0  0  1  0  0  3  0  0  0  0  0  0
  179.2310  177.9980  135.3050 O   0  0  0  0  0  0  0  0  0  0  0  0
  181.4620  178.7090  135.1630 N   0  0  0  0  0  2  0  0  0  0  0  0
  180.0470  178.9230  135.0430 C   0  0  0  0  0  0  0  0  0  0  0  0
  179.8310  181.3450  135.2400 C   0  0  0  0  0  3  0  0  0  0  0  0
  179.5280  180.2190  134.6030 C   0  0  0  0  0  3  0  0  0  0  0  0
  179.2820  182.6540  134.7750 C   0  0  0  0  0  2  0  0  0  0  0  0
  179.8290  183.8300  135.5830 C   0  0  0  0  0  0  0  0  0  0  0  0
  180.7890  184.6740  134.7680 C   0  0  0  0  0  2  0  0  0  0  0  0
  179.4060  185.2070  135.1140 C   0  0  0  0  0  2  0  0  0  0  0  0
  179.4920  182.6600  137.6750 F   0  0  0  0  0  0  0  0  0  0  0  0
  181.6860  183.3700  137.2240 C   0  0  0  0  0  1  0  0  0  0  0  0
  179.8980  184.9710  137.8220 C   0  0  0  0  0  1  0  0  0  0  0  0
  180.2060  183.6860  137.0750 C   0  0  0  0  0  0  0  0  0  0  0  0
  180.8390  177.8930  138.3150 O   0  0  0  0  0  0  0  0  0  0  0  0
  180.0850  178.9450  138.8990 C   0  0  0  0  0  1  0  0  0  0  0  0
  185.4070  176.1550  135.0810 N   0  0  0  0  0  2  0  0  0  0  0  0
  187.6580  173.2090  134.5970 C   0  0  0  0  0  2  0  0  0  0  0  0
  187.8300  174.2200  135.7040 C   0  0  0  0  0  0  0  0  0  0  0  0
  187.4060  173.8250  136.9840 O   0  0  0  0  0  0  0  0  0  0  0  0
  187.8190  175.7020  135.3600 C   0  0  0  0  0  2  0  0  0  0  0  0
  186.2930  175.8400  137.2600 O   0  0  0  0  0  0  0  0  0  0  0  0
  186.1570  174.4360  137.1950 C   0  0  0  0  0  2  0  0  0  0  0  0
  189.0340  173.4600  135.2080 C   0  0  0  0  0  2  0  0  0  0  0  0
  186.5610  176.3300  135.9600 C   0  0  2  0  0  3  0  0  0  0  0  0
  1  3  1  0  0  0  0
  1  6  1  0  0  0  0
  2 41  1  0  0  0  0
  2 11  1  0  0  0  0
  3 43  1  1  0  0  0
  3  5  1  0  0  0  0
  4  2  2  0  0  0  0
  5  4  1  0  0  0  0
  6 29  1  6  0  0  0
  6  4  1  0  0  0  0
  7 13  1  6  0  0  0
  7 10  1  0  0  0  0
  7  9  1  0  0  0  0
  8 13  1  0  0  0  0
  9 16  1  1  0  0  0
 10  9  1  0  0  0  0
 10 24  1  0  0  0  0
 11  8  2  0  0  0  0
 11 12  1  0  0  0  0
 12 14  2  0  0  0  0
 14  7  1  0  0  0  0
 15 12  1  0  0  0  0
 16 18  1  0  0  0  0
 18 19  1  0  0  0  0
 18 17  1  1  0  0  0
 19 23  1  0  0  0  0
 20 23  1  0  0  0  0
 21 19  1  0  0  0  0
 22 19  1  0  0  0  0
 22 20  1  0  0  0  0
 26 27  1  0  0  0  0
 27 24  1  0  0  0  0
 27 25  1  1  0  0  0
 30 29  1  0  0  0  0
 30 28  2  0  0  0  0
 32 30  1  0  0  0  0
 32 31  2  0  0  0  0
 33 31  1  0  0  0  0
 33 34  1  0  0  0  0
 34 40  1  0  0  0  0
 35 36  1  0  0  0  0
 35 34  1  0  0  0  0
 36 34  1  0  0  0  0
 40 38  1  0  0  0  0
 40 37  1  0  0  0  0
 40 39  1  0  0  0  0
 41 42  1  0  0  0  0
 44 50  1  0  0  0  0
 44 45  1  0  0  0  0
 45 46  1  0  0  0  0
 46 49  1  0  0  0  0
 47 45  1  0  0  0  0
 47 51  1  0  0  0  0
 49 48  1  0  0  0  0
 50 45  1  0  0  0  0
 51 43  1  6  0  0  0
 51 48  1  0  0  0  0
M  END
>  <MODEL>
8

>  <REMARK>
 VINA RESULT:      -5.1      5.355     10.688
  Name = 
  14 active torsions:
  status: ('A' for Active; 'I' for Inactive)
    1  A    between atoms: C_9  and  C_15
    2  A    between atoms: C_9  and  C_22
    3  A    between atoms: C_10  and  C_12
    4  A    between atoms: C_10  and  C_27
    5  A    between atoms: C_11  and  O_14
    6  A    between atoms: C_11  and  C_31
    7  A    between atoms: C_15  and  C_37
    8  A    between atoms: C_17  and  C_27
    9  A    between atoms: N_19  and  C_23
   10  A    between atoms: N_19  and  C_44
   11  A    between atoms: N_29  and  C_38
   12  A    between atoms: C_35  and  C_50
   13  A    between atoms: C_38  and  C_45
   14  A    between atoms: N_43  and  C_47
                            x       y       z     vdW  Elec       q    Type
                         _______ _______ _______ _____ _____    ______ ____

>  <TORSDO>
F 14

$$$$
=
 OpenBabel11032420483D

 51 57  0  0  1  0  0  0  0  0999 V2000
  180.9830  175.9270  136.1890 C   0  0  0  0  0  2  0  0  0  0  0  0
  184.3390  176.9410  137.4040 C   0  0  0  0  0  0  0  0  0  0  0  0
  181.8800  175.5100  135.0320 C   0  0  1  0  0  3  0  0  0  0  0  0
  183.2400  176.5300  136.7240 C   0  0  0  0  0  0  0  0  0  0  0  0
  183.3190  175.7410  135.4630 C   0  0  0  0  0  2  0  0  0  0  0  0
  181.8280  176.7560  137.1410 C   0  0  1  0  0  3  0  0  0  0  0  0
  188.4250  176.4890  136.1310 C   0  0  1  0  0  0  0  0  0  0  0  0
  186.3050  177.7980  136.2660 C   0  0  0  0  0  3  0  0  0  0  0  0
  189.7970  176.3660  135.6270 C   0  0  1  0  0  3  0  0  0  0  0  0
  189.5510  176.8920  137.0090 N   0  0  0  0  0  0  0  0  0  0  0  0
  185.6800  176.7460  136.8190 C   0  0  0  0  0  0  0  0  0  0  0  0
  186.3380  175.4130  136.8810 C   0  0  0  0  0  0  0  0  0  0  0  0
  187.6440  177.6800  135.5920 C   0  0  0  0  0  2  0  0  0  0  0  0
  187.6200  175.2710  136.5390 C   0  0  0  0  0  3  0  0  0  0  0  0
  185.5700  174.2000  137.2850 C   0  0  0  0  0  1  0  0  0  0  0  0
  190.2900  174.9070  135.5390 C   0  0  0  0  0  2  0  0  0  0  0  0
  192.2810  176.1570  134.6120 C   0  0  0  0  0  1  0  0  0  0  0  0
  191.6780  174.7890  134.9010 C   0  0  1  0  0  3  0  0  0  0  0  0
  192.6390  173.8880  135.6870 C   0  0  0  0  0  0  0  0  0  0  0  0
  194.5750  173.2840  135.0080 C   0  0  0  0  0  2  0  0  0  0  0  0
  192.1470  173.4840  136.9290 O   0  0  0  0  0  1  0  0  0  0  0  0
  193.1710  172.7190  134.8840 C   0  0  0  0  0  2  0  0  0  0  0  0
  194.0360  174.4620  135.8030 C   0  0  0  0  0  2  0  0  0  0  0  0
  189.8560  175.9050  138.0520 C   0  0  0  0  0  2  0  0  0  0  0  0
  192.1190  176.6740  138.6790 C   0  0  0  0  0  1  0  0  0  0  0  0
  190.1840  177.8060  139.4630 O   0  0  0  0  0  1  0  0  0  0  0  0
  190.6870  176.5410  139.1540 C   0  0  1  0  0  3  0  0  0  0  0  0
  180.6520  178.2120  134.8690 O   0  0  0  0  0  0  0  0  0  0  0  0
  181.4580  178.1720  137.0710 N   0  0  0  0  0  2  0  0  0  0  0  0
  180.8680  178.8360  135.9430 C   0  0  0  0  0  0  0  0  0  0  0  0
  179.2680  180.6540  136.2380 C   0  0  0  0  0  3  0  0  0  0  0  0
  180.5160  180.2550  136.0200 C   0  0  0  0  0  3  0  0  0  0  0  0
  178.9350  182.1090  136.3040 C   0  0  0  0  0  2  0  0  0  0  0  0
  179.8030  182.8540  137.3180 C   0  0  0  0  0  0  0  0  0  0  0  0
  179.1140  182.9780  138.6630 C   0  0  0  0  0  2  0  0  0  0  0  0
  180.2950  182.0330  138.4920 C   0  0  0  0  0  2  0  0  0  0  0  0
  180.0180  185.2630  137.2550 F   0  0  0  0  0  0  0  0  0  0  0  0
  181.9980  184.0520  137.6250 C   0  0  0  0  0  1  0  0  0  0  0  0
  180.8890  184.0870  135.4150 C   0  0  0  0  0  1  0  0  0  0  0  0
  180.6540  184.0790  136.9150 C   0  0  0  0  0  0  0  0  0  0  0  0
  184.2950  177.5520  138.6690 O   0  0  0  0  0  0  0  0  0  0  0  0
  185.1010  178.6480  139.0760 C   0  0  0  0  0  1  0  0  0  0  0  0
  181.6670  174.1030  134.7260 N   0  0  0  0  0  2  0  0  0  0  0  0
  183.3380  170.7580  134.7490 C   0  0  0  0  0  2  0  0  0  0  0  0
  182.2790  171.1700  135.7420 C   0  0  0  0  0  0  0  0  0  0  0  0
  180.9910  170.6490  135.5390 O   0  0  0  0  0  0  0  0  0  0  0  0
  182.4170  172.5070  136.4560 C   0  0  0  0  0  2  0  0  0  0  0  0
  180.0670  172.7530  135.8440 O   0  0  0  0  0  0  0  0  0  0  0  0
  180.2350  171.6770  134.9450 C   0  0  0  0  0  2  0  0  0  0  0  0
  183.2940  170.1290  136.1390 C   0  0  0  0  0  2  0  0  0  0  0  0
  181.3010  173.4330  135.9720 C   0  0  2  0  0  3  0  0  0  0  0  0
  1  6  1  0  0  0  0
  2 41  1  0  0  0  0
  3 43  1  1  0  0  0
  3  5  1  0  0  0  0
  3  1  1  0  0  0  0
  4  6  1  0  0  0  0
  4  2  2  0  0  0  0
  5  4  1  0  0  0  0
  6 29  1  6  0  0  0
  7 13  1  6  0  0  0
  7 14  1  0  0  0  0
  7 10  1  0  0  0  0
  8 11  2  0  0  0  0
  9 16  1  1  0  0  0
  9  7  1  0  0  0  0
  9 10  1  0  0  0  0
 10 24  1  0  0  0  0
 11 12  1  0  0  0  0
 11  2  1  0  0  0  0
 12 15  1  0  0  0  0
 13  8  1  0  0  0  0
 14 12  2  0  0  0  0
 18 17  1  1  0  0  0
 18 16  1  0  0  0  0
 18 19  1  0  0  0  0
 19 23  1  0  0  0  0
 19 21  1  0  0  0  0
 20 23  1  0  0  0  0
 22 20  1  0  0  0  0
 22 19  1  0  0  0  0
 24 27  1  0  0  0  0
 27 25  1  6  0  0  0
 27 26  1  0  0  0  0
 28 30  2  0  0  0  0
 30 32  1  0  0  0  0
 30 29  1  0  0  0  0
 31 33  1  0  0  0  0
 32 31  2  0  0  0  0
 33 34  1  0  0  0  0
 34 36  1  0  0  0  0
 34 35  1  0  0  0  0
 36 35  1  0  0  0  0
 39 40  1  0  0  0  0
 40 37  1  0  0  0  0
 40 34  1  0  0  0  0
 40 38  1  0  0  0  0
 41 42  1  0  0  0  0
 44 45  1  0  0  0  0
 44 50  1  0  0  0  0
 45 50  1  0  0  0  0
 45 47  1  0  0  0  0
 46 45  1  0  0  0  0
 48 51  1  0  0  0  0
 49 46  1  0  0  0  0
 49 48  1  0  0  0  0
 51 43  1  6  0  0  0
 51 47  1  0  0  0  0
M  END
>  <MODEL>
9

>  <REMARK>
 VINA RESULT:      -4.6      4.556      8.547
  Name = 
  14 active torsions:
  status: ('A' for Active; 'I' for Inactive)
    1  A    between atoms: C_9  and  C_15
    2  A    between atoms: C_9  and  C_22
    3  A    between atoms: C_10  and  C_12
    4  A    between atoms: C_10  and  C_27
    5  A    between atoms: C_11  and  O_14
    6  A    between atoms: C_11  and  C_31
    7  A    between atoms: C_15  and  C_37
    8  A    between atoms: C_17  and  C_27
    9  A    between atoms: N_19  and  C_23
   10  A    between atoms: N_19  and  C_44
   11  A    between atoms: N_29  and  C_38
   12  A    between atoms: C_35  and  C_50
   13  A    between atoms: C_38  and  C_45
   14  A    between atoms: N_43  and  C_47
                            x       y       z     vdW  Elec       q    Type
                         _______ _______ _______ _____ _____    ______ ____

>  <TORSDO>
F 14

$$$$
