=
 OpenBabel11032419533D

 48 50  0  0  1  0  0  0  0  0999 V2000
  182.8110  177.4500  140.0020 C   0  0  0  0  0  3  0  0  0  0  0  0
  183.3720  178.5600  140.5090 C   0  0  0  0  0  0  0  0  0  0  0  0
  184.9880  178.5000  144.4930 C   0  0  0  0  0  0  0  0  0  0  0  0
  185.2830  178.2160  142.1000 C   0  0  0  0  0  3  0  0  0  0  0  0
  183.9320  178.5260  141.8790 C   0  0  0  0  0  0  0  0  0  0  0  0
  183.1170  178.8300  142.9790 C   0  0  0  0  0  3  0  0  0  0  0  0
  183.6400  178.8120  144.2750 C   0  0  0  0  0  3  0  0  0  0  0  0
  185.8060  178.2050  143.3950 C   0  0  0  0  0  3  0  0  0  0  0  0
  186.8840  178.0400  146.0800 N   0  0  0  0  0  2  0  0  0  0  0  0
  185.5430  178.4890  145.8570 C   0  0  0  0  0  0  0  0  0  0  0  0
  184.8410  178.8850  146.8270 O   0  0  0  0  0  0  0  0  0  0  0  0
  187.4810  177.9770  147.4070 C   0  0  0  0  0  2  0  0  0  0  0  0
  188.5410  176.8870  147.4630 C   0  0  0  0  0  2  0  0  0  0  0  0
  189.9210  177.4790  147.7120 C   0  0  0  0  0  2  0  0  0  0  0  0
  191.0240  176.5220  147.2780 C   0  0  2  0  0  3  0  0  0  0  0  0
  192.1600  176.7330  148.0570 O   0  0  0  0  0  1  0  0  0  0  0  0
  191.2370  178.2560  143.7980 C   0  0  0  0  0  0  0  0  0  0  0  0
  191.3600  176.7090  145.8350 C   0  0  0  0  0  0  0  0  0  0  0  0
  191.0400  177.9470  145.1830 N   0  0  0  0  0  2  0  0  0  0  0  0
  191.7320  177.2430  142.8230 C   0  0  0  0  0  1  0  0  0  0  0  0
  190.9630  179.4120  143.3840 O   0  0  0  0  0  0  0  0  0  0  0  0
  191.9290  175.7760  145.2130 O   0  0  0  0  0  0  0  0  0  0  0  0
  183.4160  179.7970  139.7820 N   0  0  0  0  0  2  0  0  0  0  0  0
  184.5360  180.2580  139.1750 O   0  0  0  0  0  1  0  0  0  0  0  0
  182.3790  177.3060  138.6430 N   0  0  0  0  0  0  0  0  0  0  0  0
  184.5760  177.2980  137.5260 C   0  0  0  0  0  1  0  0  0  0  0  0
  183.2520  176.5710  137.7320 C   0  0  1  0  0  3  0  0  0  0  0  0
  183.4510  175.1250  138.2150 C   0  0  0  0  0  2  0  0  0  0  0  0
  182.5900  171.9890  135.7610 N   0  0  0  0  0  2  0  0  0  0  0  0
  184.0890  172.9630  137.2800 C   0  0  2  0  0  3  0  0  0  0  0  0
  183.4890  171.7050  136.8070 N   0  0  0  0  0  2  0  0  0  0  0  0
  181.7680  173.6430  137.4020 C   0  0  0  0  0  2  0  0  0  0  0  0
  181.3940  172.6070  136.3360 C   0  0  0  0  0  2  0  0  0  0  0  0
  183.1440  174.0970  137.2060 N   0  0  0  0  0  0  0  0  0  0  0  0
  185.3540  173.2670  136.4900 C   0  0  0  0  0  2  0  0  0  0  0  0
  186.4110  173.4660  137.3790 O   0  0  0  0  0  0  0  0  0  0  0  0
  186.8980  174.7390  137.0870 C   0  0  0  0  0  2  0  0  0  0  0  0
  188.4060  174.7050  136.8170 C   0  0  2  0  0  3  0  0  0  0  0  0
  190.2100  173.6660  137.5150 O   0  0  0  0  0  1  0  0  0  0  0  0
  189.0000  173.4480  137.0380 O   0  0  0  0  0  0  0  0  0  0  0  0
  189.2040  175.8890  137.3760 C   0  0  0  0  0  2  0  0  0  0  0  0
  189.4110  178.2090  137.6100 C   0  0  0  0  0  2  0  0  0  0  0  0
  188.3580  177.8730  138.5610 C   0  0  1  0  0  3  0  0  0  0  0  0
  188.4580  177.1420  137.2690 N   0  0  0  0  0  0  0  0  0  0  0  0
  188.7220  177.9820  140.7400 C   0  0  0  0  0  1  0  0  0  0  0  0
  188.8900  177.1470  139.6350 O   0  0  0  0  0  0  0  0  0  0  0  0
  181.3130  178.1610  138.1160 C   0  0  0  0  0  2  0  0  0  0  0  0
  180.0060  177.3940  138.0100 C   0  0  0  0  0  1  0  0  0  0  0  0
  1  2  2  0  0  0  0
  2  5  1  0  0  0  0
  3 10  1  0  0  0  0
  4  8  1  0  0  0  0
  5  4  2  0  0  0  0
  5  6  1  0  0  0  0
  6  7  2  0  0  0  0
  7  3  1  0  0  0  0
  8  3  2  0  0  0  0
  9 12  1  0  0  0  0
 10  9  1  0  0  0  0
 10 11  2  0  0  0  0
 12 13  1  0  0  0  0
 13 14  1  0  0  0  0
 15 14  1  0  0  0  0
 15 16  1  1  0  0  0
 17 19  1  0  0  0  0
 18 15  1  0  0  0  0
 19 18  1  0  0  0  0
 20 17  1  0  0  0  0
 21 17  2  0  0  0  0
 22 18  2  0  0  0  0
 23  2  1  0  0  0  0
 24 23  1  0  0  0  0
 25  1  1  0  0  0  0
 27 26  1  1  0  0  0
 27 28  1  0  0  0  0
 27 25  1  0  0  0  0
 29 33  1  0  0  0  0
 29 31  1  0  0  0  0
 30 35  1  6  0  0  0
 31 30  1  0  0  0  0
 33 32  1  0  0  0  0
 34 30  1  0  0  0  0
 34 32  1  0  0  0  0
 34 28  1  0  0  0  0
 35 36  1  0  0  0  0
 37 36  1  0  0  0  0
 38 40  1  0  0  0  0
 38 37  1  1  0  0  0
 38 41  1  0  0  0  0
 40 39  1  0  0  0  0
 42 43  1  0  0  0  0
 43 46  1  1  0  0  0
 44 41  1  0  0  0  0
 44 42  1  0  0  0  0
 44 43  1  0  0  0  0
 46 45  1  0  0  0  0
 47 25  1  0  0  0  0
 48 47  1  0  0  0  0
M  END
>  <MODEL>
1

>  <REMARK>
 VINA RESULT:      -7.6      0.000      0.000
  Name = 
  21 active torsions:
  status: ('A' for Active; 'I' for Inactive)
    1  A    between atoms: C_1  and  C_23
    2  A    between atoms: C_1  and  C_35
    3  A    between atoms: C_2  and  N_22
    4  A    between atoms: C_2  and  C_23
    5  A    between atoms: C_3  and  N_15
    6  A    between atoms: C_5  and  N_15
    7  A    between atoms: C_6  and  C_25
    8  A    between atoms: C_7  and  N_15
    9  A    between atoms: C_7  and  C_36
   10  A    between atoms: C_8  and  C_16
   11  A    between atoms: C_8  and  N_29
   12  A    between atoms: O_12  and  C_16
   13  A    between atoms: C_13  and  C_38
   14  A    between atoms: C_16  and  C_19
   15  A    between atoms: N_18  and  C_32
   16  A    between atoms: C_19  and  O_31
   17  A    between atoms: C_24  and  C_35
   18  A    between atoms: C_26  and  C_32
   19  A    between atoms: C_27  and  O_41
   20  A    between atoms: O_31  and  C_38
   21  A    between atoms: C_36  and  N_48
                            x       y       z     vdW  Elec       q    Type
                         _______ _______ _______ _____ _____    ______ ____

>  <TORSDO>
F 21

$$$$
=
 OpenBabel11032419533D

 48 50  0  0  1  0  0  0  0  0999 V2000
  182.0380  178.3140  141.0220 C   0  0  0  0  0  3  0  0  0  0  0  0
  183.3610  178.5270  141.1140 C   0  0  0  0  0  0  0  0  0  0  0  0
  185.2120  178.5910  144.9940 C   0  0  0  0  0  0  0  0  0  0  0  0
  183.2810  178.9970  143.5800 C   0  0  0  0  0  3  0  0  0  0  0  0
  183.9950  178.5630  142.4510 C   0  0  0  0  0  0  0  0  0  0  0  0
  185.3220  178.1370  142.6110 C   0  0  0  0  0  3  0  0  0  0  0  0
  185.9260  178.1540  143.8710 C   0  0  0  0  0  3  0  0  0  0  0  0
  183.8840  179.0090  144.8390 C   0  0  0  0  0  3  0  0  0  0  0  0
  186.9910  177.7860  146.5800 N   0  0  0  0  0  2  0  0  0  0  0  0
  185.8430  178.6030  146.3250 C   0  0  0  0  0  0  0  0  0  0  0  0
  185.3790  179.3390  147.2370 O   0  0  0  0  0  0  0  0  0  0  0  0
  187.6430  177.7310  147.8810 C   0  0  0  0  0  2  0  0  0  0  0  0
  189.1040  177.3340  147.7270 C   0  0  0  0  0  2  0  0  0  0  0  0
  189.6590  177.8010  146.3880 C   0  0  0  0  0  2  0  0  0  0  0  0
  190.6450  176.7920  145.8120 C   0  0  2  0  0  3  0  0  0  0  0  0
  191.9370  177.1180  146.2180 O   0  0  0  0  0  1  0  0  0  0  0  0
  189.4880  177.7370  142.2160 C   0  0  0  0  0  0  0  0  0  0  0  0
  190.5770  176.7670  144.3200 C   0  0  0  0  0  0  0  0  0  0  0  0
  189.7130  177.6820  143.6300 N   0  0  0  0  0  2  0  0  0  0  0  0
  190.0830  176.7430  141.2790 C   0  0  0  0  0  1  0  0  0  0  0  0
  188.7460  178.6410  141.7500 O   0  0  0  0  0  0  0  0  0  0  0  0
  191.2880  175.9430  143.6900 O   0  0  0  0  0  0  0  0  0  0  0  0
  184.1820  178.7570  139.9600 N   0  0  0  0  0  2  0  0  0  0  0  0
  184.3830  179.9880  139.4300 O   0  0  0  0  0  1  0  0  0  0  0  0
  181.3330  178.0980  139.7930 N   0  0  0  0  0  0  0  0  0  0  0  0
  180.3950  175.8230  139.9360 C   0  0  0  0  0  1  0  0  0  0  0  0
  181.3680  176.7540  139.2220 C   0  0  1  0  0  3  0  0  0  0  0  0
  181.1210  176.8010  137.7050 C   0  0  0  0  0  2  0  0  0  0  0  0
  183.7750  174.2910  135.8990 N   0  0  0  0  0  2  0  0  0  0  0  0
  183.4280  176.0680  137.3920 C   0  0  2  0  0  3  0  0  0  0  0  0
  184.2090  174.8500  137.1170 N   0  0  0  0  0  2  0  0  0  0  0  0
  181.5680  174.5750  136.9720 C   0  0  0  0  0  2  0  0  0  0  0  0
  182.4650  173.6750  136.1170 C   0  0  0  0  0  2  0  0  0  0  0  0
  182.0340  175.9590  136.9130 N   0  0  0  0  0  0  0  0  0  0  0  0
  184.1140  177.2780  136.7760 C   0  0  0  0  0  2  0  0  0  0  0  0
  185.4680  176.9910  136.5920 O   0  0  0  0  0  0  0  0  0  0  0  0
  186.1480  177.9500  137.3410 C   0  0  0  0  0  2  0  0  0  0  0  0
  187.6580  177.8750  137.0940 C   0  0  2  0  0  3  0  0  0  0  0  0
  188.8800  179.1890  138.3590 O   0  0  0  0  0  1  0  0  0  0  0  0
  188.3150  179.1170  137.1700 O   0  0  0  0  0  0  0  0  0  0  0  0
  188.0910  177.0020  135.9110 C   0  0  0  0  0  2  0  0  0  0  0  0
  189.1440  175.7110  137.5570 C   0  0  0  0  0  2  0  0  0  0  0  0
  189.7950  175.2760  136.3270 C   0  0  1  0  0  3  0  0  0  0  0  0
  188.3490  175.6220  136.3230 N   0  0  0  0  0  0  0  0  0  0  0  0
  191.8960  175.9530  136.1900 C   0  0  0  0  0  1  0  0  0  0  0  0
  190.5990  176.3040  135.8160 O   0  0  0  0  0  0  0  0  0  0  0  0
  180.9200  179.2380  138.9720 C   0  0  0  0  0  2  0  0  0  0  0  0
  179.6810  179.9020  139.5500 C   0  0  0  0  0  1  0  0  0  0  0  0
  1  2  2  0  0  0  0
  2  5  1  0  0  0  0
  3 10  1  0  0  0  0
  4  8  2  0  0  0  0
  5  6  2  0  0  0  0
  5  4  1  0  0  0  0
  6  7  1  0  0  0  0
  7  3  2  0  0  0  0
  8  3  1  0  0  0  0
  9 12  1  0  0  0  0
 10  9  1  0  0  0  0
 10 11  2  0  0  0  0
 13 12  1  0  0  0  0
 14 13  1  0  0  0  0
 15 16  1  6  0  0  0
 15 14  1  0  0  0  0
 17 19  1  0  0  0  0
 18 15  1  0  0  0  0
 19 18  1  0  0  0  0
 20 17  1  0  0  0  0
 21 17  2  0  0  0  0
 22 18  2  0  0  0  0
 23  2  1  0  0  0  0
 24 23  1  0  0  0  0
 25  1  1  0  0  0  0
 27 25  1  0  0  0  0
 27 26  1  1  0  0  0
 28 27  1  0  0  0  0
 29 33  1  0  0  0  0
 29 31  1  0  0  0  0
 30 35  1  6  0  0  0
 31 30  1  0  0  0  0
 33 32  1  0  0  0  0
 34 32  1  0  0  0  0
 34 30  1  0  0  0  0
 34 28  1  0  0  0  0
 36 35  1  0  0  0  0
 36 37  1  0  0  0  0
 38 41  1  6  0  0  0
 38 40  1  0  0  0  0
 38 37  1  0  0  0  0
 40 39  1  0  0  0  0
 41 44  1  0  0  0  0
 43 46  1  6  0  0  0
 43 42  1  0  0  0  0
 44 43  1  0  0  0  0
 44 42  1  0  0  0  0
 46 45  1  0  0  0  0
 47 48  1  0  0  0  0
 47 25  1  0  0  0  0
M  END
>  <MODEL>
2

>  <REMARK>
 VINA RESULT:      -7.6      1.723      2.732
  Name = 
  21 active torsions:
  status: ('A' for Active; 'I' for Inactive)
    1  A    between atoms: C_1  and  C_23
    2  A    between atoms: C_1  and  C_35
    3  A    between atoms: C_2  and  N_22
    4  A    between atoms: C_2  and  C_23
    5  A    between atoms: C_3  and  N_15
    6  A    between atoms: C_5  and  N_15
    7  A    between atoms: C_6  and  C_25
    8  A    between atoms: C_7  and  N_15
    9  A    between atoms: C_7  and  C_36
   10  A    between atoms: C_8  and  C_16
   11  A    between atoms: C_8  and  N_29
   12  A    between atoms: O_12  and  C_16
   13  A    between atoms: C_13  and  C_38
   14  A    between atoms: C_16  and  C_19
   15  A    between atoms: N_18  and  C_32
   16  A    between atoms: C_19  and  O_31
   17  A    between atoms: C_24  and  C_35
   18  A    between atoms: C_26  and  C_32
   19  A    between atoms: C_27  and  O_41
   20  A    between atoms: O_31  and  C_38
   21  A    between atoms: C_36  and  N_48
                            x       y       z     vdW  Elec       q    Type
                         _______ _______ _______ _____ _____    ______ ____

>  <TORSDO>
F 21

$$$$
=
 OpenBabel11032419533D

 48 50  0  0  1  0  0  0  0  0999 V2000
  183.1670  177.6580  140.7560 C   0  0  0  0  0  3  0  0  0  0  0  0
  182.7120  178.3700  141.8000 C   0  0  0  0  0  0  0  0  0  0  0  0
  185.1390  178.6310  145.3390 C   0  0  0  0  0  0  0  0  0  0  0  0
  182.9720  178.8070  144.2590 C   0  0  0  0  0  3  0  0  0  0  0  0
  183.5430  178.4740  143.0210 C   0  0  0  0  0  0  0  0  0  0  0  0
  184.9200  178.2120  142.9570 C   0  0  0  0  0  3  0  0  0  0  0  0
  185.7110  178.2940  144.1060 C   0  0  0  0  0  3  0  0  0  0  0  0
  183.7630  178.8840  145.4070 C   0  0  0  0  0  3  0  0  0  0  0  0
  187.0020  177.7440  146.7790 N   0  0  0  0  0  2  0  0  0  0  0  0
  185.9690  178.7090  146.5530 C   0  0  0  0  0  0  0  0  0  0  0  0
  185.7780  179.6330  147.3900 O   0  0  0  0  0  0  0  0  0  0  0  0
  187.8370  177.7490  147.9720 C   0  0  0  0  0  2  0  0  0  0  0  0
  189.3020  177.5820  147.5960 C   0  0  0  0  0  2  0  0  0  0  0  0
  189.5210  177.8550  146.1140 C   0  0  0  0  0  2  0  0  0  0  0  0
  190.5860  176.9350  145.5300 C   0  0  2  0  0  3  0  0  0  0  0  0
  191.8250  177.2420  146.0890 O   0  0  0  0  0  1  0  0  0  0  0  0
  189.4080  177.6900  141.8960 C   0  0  0  0  0  0  0  0  0  0  0  0
  190.6560  177.0700  144.0440 C   0  0  0  0  0  0  0  0  0  0  0  0
  189.5210  177.5660  143.3190 N   0  0  0  0  0  2  0  0  0  0  0  0
  190.4730  177.2090  140.9720 C   0  0  0  0  0  1  0  0  0  0  0  0
  188.3680  178.2030  141.4080 O   0  0  0  0  0  0  0  0  0  0  0  0
  191.7190  176.7530  143.4510 O   0  0  0  0  0  0  0  0  0  0  0  0
  181.4260  179.0090  141.7900 N   0  0  0  0  0  2  0  0  0  0  0  0
  180.3650  178.5440  142.4920 O   0  0  0  0  0  1  0  0  0  0  0  0
  182.5380  177.6120  139.4690 N   0  0  0  0  0  0  0  0  0  0  0  0
  183.0940  179.9170  138.7980 C   0  0  0  0  0  1  0  0  0  0  0  0
  183.1050  178.4430  138.4100 C   0  0  1  0  0  3  0  0  0  0  0  0
  184.5100  177.9520  138.0260 C   0  0  0  0  0  2  0  0  0  0  0  0
  184.4490  175.6470  134.6670 N   0  0  0  0  0  2  0  0  0  0  0  0
  185.1000  175.8630  136.9110 C   0  0  2  0  0  3  0  0  0  0  0  0
  184.5990  174.9430  135.8770 N   0  0  0  0  0  2  0  0  0  0  0  0
  183.2400  177.2130  136.1470 C   0  0  0  0  0  2  0  0  0  0  0  0
  183.2780  176.5180  134.7820 C   0  0  0  0  0  2  0  0  0  0  0  0
  184.5760  177.2350  136.7420 N   0  0  0  0  0  0  0  0  0  0  0  0
  186.6220  175.8680  136.9110 C   0  0  0  0  0  2  0  0  0  0  0  0
  187.0760  176.9430  136.1450 O   0  0  0  0  0  0  0  0  0  0  0  0
  188.4320  176.6950  135.9380 C   0  0  0  0  0  2  0  0  0  0  0  0
  189.2780  177.2680  137.0800 C   0  0  2  0  0  3  0  0  0  0  0  0
  188.7780  179.1520  138.0910 O   0  0  0  0  0  1  0  0  0  0  0  0
  189.4180  178.6680  137.0440 O   0  0  0  0  0  0  0  0  0  0  0  0
  190.5750  176.5100  137.3870 C   0  0  0  0  0  2  0  0  0  0  0  0
  191.7920  174.8100  136.3300 C   0  0  0  0  0  2  0  0  0  0  0  0
  192.7540  175.9030  136.4160 C   0  0  1  0  0  3  0  0  0  0  0  0
  191.3160  176.1920  136.1660 N   0  0  0  0  0  0  0  0  0  0  0  0
  194.0930  175.1450  138.0050 C   0  0  0  0  0  1  0  0  0  0  0  0
  193.1240  176.1170  137.7510 O   0  0  0  0  0  0  0  0  0  0  0  0
  181.1910  177.0540  139.3280 C   0  0  0  0  0  2  0  0  0  0  0  0
  180.3290  177.9380  138.4420 C   0  0  0  0  0  1  0  0  0  0  0  0
  1  2  2  0  0  0  0
  2  5  1  0  0  0  0
  3  8  1  0  0  0  0
  3 10  1  0  0  0  0
  4  8  2  0  0  0  0
  5  4  1  0  0  0  0
  6  5  2  0  0  0  0
  6  7  1  0  0  0  0
  7  3  2  0  0  0  0
  9 12  1  0  0  0  0
 10  9  1  0  0  0  0
 10 11  2  0  0  0  0
 13 12  1  0  0  0  0
 14 13  1  0  0  0  0
 15 16  1  1  0  0  0
 15 14  1  0  0  0  0
 17 19  1  0  0  0  0
 18 15  1  0  0  0  0
 19 18  1  0  0  0  0
 20 17  1  0  0  0  0
 21 17  2  0  0  0  0
 22 18  2  0  0  0  0
 23  2  1  0  0  0  0
 23 24  1  0  0  0  0
 25  1  1  0  0  0  0
 27 26  1  1  0  0  0
 27 25  1  0  0  0  0
 28 27  1  0  0  0  0
 29 33  1  0  0  0  0
 29 31  1  0  0  0  0
 30 35  1  6  0  0  0
 31 30  1  0  0  0  0
 32 34  1  0  0  0  0
 33 32  1  0  0  0  0
 34 30  1  0  0  0  0
 34 28  1  0  0  0  0
 36 35  1  0  0  0  0
 37 36  1  0  0  0  0
 38 37  1  6  0  0  0
 38 41  1  0  0  0  0
 40 38  1  0  0  0  0
 40 39  1  0  0  0  0
 42 43  1  0  0  0  0
 43 46  1  1  0  0  0
 44 42  1  0  0  0  0
 44 43  1  0  0  0  0
 44 41  1  0  0  0  0
 46 45  1  0  0  0  0
 47 25  1  0  0  0  0
 48 47  1  0  0  0  0
M  END
>  <MODEL>
3

>  <REMARK>
 VINA RESULT:      -7.2      2.234      3.120
  Name = 
  21 active torsions:
  status: ('A' for Active; 'I' for Inactive)
    1  A    between atoms: C_1  and  C_23
    2  A    between atoms: C_1  and  C_35
    3  A    between atoms: C_2  and  N_22
    4  A    between atoms: C_2  and  C_23
    5  A    between atoms: C_3  and  N_15
    6  A    between atoms: C_5  and  N_15
    7  A    between atoms: C_6  and  C_25
    8  A    between atoms: C_7  and  N_15
    9  A    between atoms: C_7  and  C_36
   10  A    between atoms: C_8  and  C_16
   11  A    between atoms: C_8  and  N_29
   12  A    between atoms: O_12  and  C_16
   13  A    between atoms: C_13  and  C_38
   14  A    between atoms: C_16  and  C_19
   15  A    between atoms: N_18  and  C_32
   16  A    between atoms: C_19  and  O_31
   17  A    between atoms: C_24  and  C_35
   18  A    between atoms: C_26  and  C_32
   19  A    between atoms: C_27  and  O_41
   20  A    between atoms: O_31  and  C_38
   21  A    between atoms: C_36  and  N_48
                            x       y       z     vdW  Elec       q    Type
                         _______ _______ _______ _____ _____    ______ ____

>  <TORSDO>
F 21

$$$$
=
 OpenBabel11032419533D

 48 50  0  0  1  0  0  0  0  0999 V2000
  187.0520  176.7560  137.5620 C   0  0  0  0  0  3  0  0  0  0  0  0
  187.7610  177.7780  138.0690 C   0  0  0  0  0  0  0  0  0  0  0  0
  189.8650  177.2730  141.7850 C   0  0  0  0  0  0  0  0  0  0  0  0
  189.7560  176.9920  139.3760 C   0  0  0  0  0  3  0  0  0  0  0  0
  188.4860  177.5900  139.3460 C   0  0  0  0  0  0  0  0  0  0  0  0
  187.9180  178.0350  140.5490 C   0  0  0  0  0  3  0  0  0  0  0  0
  188.6000  177.8740  141.7580 C   0  0  0  0  0  3  0  0  0  0  0  0
  190.4380  176.8360  140.5840 C   0  0  0  0  0  3  0  0  0  0  0  0
  190.0280  177.6190  144.2710 N   0  0  0  0  0  2  0  0  0  0  0  0
  190.5890  177.1100  143.0570 C   0  0  0  0  0  0  0  0  0  0  0  0
  191.7010  176.5140  143.0780 O   0  0  0  0  0  0  0  0  0  0  0  0
  190.7070  177.5160  145.5550 C   0  0  0  0  0  2  0  0  0  0  0  0
  189.7130  177.1790  146.6570 C   0  0  0  0  0  2  0  0  0  0  0  0
  188.2810  177.2540  146.1430 C   0  0  0  0  0  2  0  0  0  0  0  0
  187.4670  178.2870  146.9110 C   0  0  2  0  0  3  0  0  0  0  0  0
  187.3460  177.8910  148.2410 O   0  0  0  0  0  1  0  0  0  0  0  0
  184.7080  178.4430  144.1680 C   0  0  0  0  0  0  0  0  0  0  0  0
  186.1100  178.4560  146.3100 C   0  0  0  0  0  0  0  0  0  0  0  0
  185.9250  178.2560  144.9010 N   0  0  0  0  0  2  0  0  0  0  0  0
  183.4730  178.9810  144.8060 C   0  0  0  0  0  1  0  0  0  0  0  0
  184.6850  178.1650  142.9410 O   0  0  0  0  0  0  0  0  0  0  0  0
  185.1460  178.7670  147.0550 O   0  0  0  0  0  0  0  0  0  0  0  0
  187.8140  179.0640  137.4340 N   0  0  0  0  0  2  0  0  0  0  0  0
  188.9210  179.8440  137.4370 O   0  0  0  0  0  1  0  0  0  0  0  0
  186.4410  176.7560  136.2660 N   0  0  0  0  0  0  0  0  0  0  0  0
  184.6470  176.0810  134.7160 C   0  0  0  0  0  1  0  0  0  0  0  0
  185.0610  176.2860  136.1690 C   0  0  1  0  0  3  0  0  0  0  0  0
  184.8570  175.0190  137.0160 C   0  0  0  0  0  2  0  0  0  0  0  0
  180.9580  174.8360  138.1820 N   0  0  0  0  0  2  0  0  0  0  0  0
  182.8430  176.1710  137.7730 C   0  0  2  0  0  3  0  0  0  0  0  0
  181.3770  176.0830  137.6780 N   0  0  0  0  0  2  0  0  0  0  0  0
  182.7170  174.0310  136.6470 C   0  0  0  0  0  2  0  0  0  0  0  0
  181.3100  173.8030  137.2060 C   0  0  0  0  0  2  0  0  0  0  0  0
  183.4980  174.8630  137.5610 N   0  0  0  0  0  0  0  0  0  0  0  0
  183.2440  176.7590  139.1180 C   0  0  0  0  0  2  0  0  0  0  0  0
  182.1670  177.4750  139.6430 O   0  0  0  0  0  0  0  0  0  0  0  0
  182.7110  178.6810  140.0820 C   0  0  0  0  0  2  0  0  0  0  0  0
  182.9870  179.6220  138.9060 C   0  0  2  0  0  3  0  0  0  0  0  0
  185.0460  179.7220  139.6620 O   0  0  0  0  0  1  0  0  0  0  0  0
  184.1110  180.4510  139.0840 O   0  0  0  0  0  0  0  0  0  0  0  0
  181.7590  180.3390  138.3300 C   0  0  0  0  0  2  0  0  0  0  0  0
  179.4570  180.5370  138.7150 C   0  0  0  0  0  2  0  0  0  0  0  0
  179.9690  181.8540  139.0760 C   0  0  1  0  0  3  0  0  0  0  0  0
  180.7710  180.6360  139.3680 N   0  0  0  0  0  0  0  0  0  0  0  0
  179.5100  183.5860  137.7800 C   0  0  0  0  0  1  0  0  0  0  0  0
  180.4110  182.5310  137.9320 O   0  0  0  0  0  0  0  0  0  0  0  0
  187.2690  176.8660  135.0630 C   0  0  0  0  0  2  0  0  0  0  0  0
  188.3490  175.7980  135.0490 C   0  0  0  0  0  1  0  0  0  0  0  0
  1  2  2  0  0  0  0
  2  5  1  0  0  0  0
  3 10  1  0  0  0  0
  4  8  1  0  0  0  0
  5  4  2  0  0  0  0
  5  6  1  0  0  0  0
  6  7  2  0  0  0  0
  7  3  1  0  0  0  0
  8  3  2  0  0  0  0
  9 12  1  0  0  0  0
 10 11  2  0  0  0  0
 10  9  1  0  0  0  0
 12 13  1  0  0  0  0
 14 13  1  0  0  0  0
 14 15  1  0  0  0  0
 15 16  1  1  0  0  0
 17 20  1  0  0  0  0
 17 19  1  0  0  0  0
 18 15  1  0  0  0  0
 18 22  2  0  0  0  0
 19 18  1  0  0  0  0
 21 17  2  0  0  0  0
 23 24  1  0  0  0  0
 23  2  1  0  0  0  0
 25  1  1  0  0  0  0
 27 26  1  6  0  0  0
 27 25  1  0  0  0  0
 27 28  1  0  0  0  0
 28 34  1  0  0  0  0
 30 35  1  1  0  0  0
 31 30  1  0  0  0  0
 31 29  1  0  0  0  0
 32 33  1  0  0  0  0
 32 34  1  0  0  0  0
 33 29  1  0  0  0  0
 34 30  1  0  0  0  0
 35 36  1  0  0  0  0
 36 37  1  0  0  0  0
 38 41  1  1  0  0  0
 38 40  1  0  0  0  0
 38 37  1  0  0  0  0
 40 39  1  0  0  0  0
 41 44  1  0  0  0  0
 42 43  1  0  0  0  0
 42 44  1  0  0  0  0
 43 46  1  6  0  0  0
 43 44  1  0  0  0  0
 45 46  1  0  0  0  0
 47 25  1  0  0  0  0
 48 47  1  0  0  0  0
M  END
>  <MODEL>
4

>  <REMARK>
 VINA RESULT:      -7.2      2.463      6.189
  Name = 
  21 active torsions:
  status: ('A' for Active; 'I' for Inactive)
    1  A    between atoms: C_1  and  C_23
    2  A    between atoms: C_1  and  C_35
    3  A    between atoms: C_2  and  N_22
    4  A    between atoms: C_2  and  C_23
    5  A    between atoms: C_3  and  N_15
    6  A    between atoms: C_5  and  N_15
    7  A    between atoms: C_6  and  C_25
    8  A    between atoms: C_7  and  N_15
    9  A    between atoms: C_7  and  C_36
   10  A    between atoms: C_8  and  C_16
   11  A    between atoms: C_8  and  N_29
   12  A    between atoms: O_12  and  C_16
   13  A    between atoms: C_13  and  C_38
   14  A    between atoms: C_16  and  C_19
   15  A    between atoms: N_18  and  C_32
   16  A    between atoms: C_19  and  O_31
   17  A    between atoms: C_24  and  C_35
   18  A    between atoms: C_26  and  C_32
   19  A    between atoms: C_27  and  O_41
   20  A    between atoms: O_31  and  C_38
   21  A    between atoms: C_36  and  N_48
                            x       y       z     vdW  Elec       q    Type
                         _______ _______ _______ _____ _____    ______ ____

>  <TORSDO>
F 21

$$$$
=
 OpenBabel11032419533D

 48 50  0  0  1  0  0  0  0  0999 V2000
  187.9700  176.4600  137.6790 C   0  0  0  0  0  3  0  0  0  0  0  0
  188.2210  177.6340  138.2810 C   0  0  0  0  0  0  0  0  0  0  0  0
  189.4630  177.6130  142.3970 C   0  0  0  0  0  0  0  0  0  0  0  0
  187.8610  178.2500  140.6880 C   0  0  0  0  0  3  0  0  0  0  0  0
  188.6480  177.6420  139.6980 C   0  0  0  0  0  0  0  0  0  0  0  0
  189.8440  177.0120  140.0750 C   0  0  0  0  0  3  0  0  0  0  0  0
  190.2500  177.0020  141.4120 C   0  0  0  0  0  3  0  0  0  0  0  0
  188.2640  178.2350  142.0250 C   0  0  0  0  0  3  0  0  0  0  0  0
  188.9770  177.1480  144.8200 N   0  0  0  0  0  2  0  0  0  0  0  0
  189.8840  177.5970  143.8080 C   0  0  0  0  0  0  0  0  0  0  0  0
  191.0470  177.9700  144.1250 O   0  0  0  0  0  0  0  0  0  0  0  0
  189.3220  177.1350  146.2350 C   0  0  0  0  0  2  0  0  0  0  0  0
  188.2210  177.7880  147.0570 C   0  0  0  0  0  2  0  0  0  0  0  0
  186.8670  177.6330  146.3780 C   0  0  0  0  0  2  0  0  0  0  0  0
  186.1460  178.9700  146.2620 C   0  0  2  0  0  3  0  0  0  0  0  0
  185.7390  179.3930  147.5250 O   0  0  0  0  0  1  0  0  0  0  0  0
  184.1210  178.4600  142.9750 C   0  0  0  0  0  0  0  0  0  0  0  0
  184.9600  178.8640  145.3600 C   0  0  0  0  0  0  0  0  0  0  0  0
  185.1440  178.5350  143.9750 N   0  0  0  0  0  2  0  0  0  0  0  0
  182.7050  178.8250  143.2600 C   0  0  0  0  0  1  0  0  0  0  0  0
  184.4300  178.0960  141.8100 O   0  0  0  0  0  0  0  0  0  0  0  0
  183.8110  179.0590  145.8340 O   0  0  0  0  0  0  0  0  0  0  0  0
  188.0570  178.8910  137.6080 N   0  0  0  0  0  2  0  0  0  0  0  0
  189.0600  179.7910  137.4670 O   0  0  0  0  0  1  0  0  0  0  0  0
  187.7070  176.3050  136.2780 N   0  0  0  0  0  0  0  0  0  0  0  0
  186.0710  177.5490  134.9160 C   0  0  0  0  0  1  0  0  0  0  0  0
  186.3140  176.3620  135.8420 C   0  0  1  0  0  3  0  0  0  0  0  0
  185.8890  175.0290  135.2040 C   0  0  0  0  0  2  0  0  0  0  0  0
  182.9350  172.7830  136.8850 N   0  0  0  0  0  2  0  0  0  0  0  0
  183.5580  174.3040  135.2110 C   0  0  2  0  0  3  0  0  0  0  0  0
  182.7320  173.1300  135.5350 N   0  0  0  0  0  2  0  0  0  0  0  0
  185.3010  172.9400  136.1950 C   0  0  0  0  0  2  0  0  0  0  0  0
  184.2580  172.1690  137.0100 C   0  0  0  0  0  2  0  0  0  0  0  0
  184.8420  174.3060  135.9450 N   0  0  0  0  0  0  0  0  0  0  0  0
  182.7800  175.5820  135.4900 C   0  0  0  0  0  2  0  0  0  0  0  0
  182.8720  175.8850  136.8500 O   0  0  0  0  0  0  0  0  0  0  0  0
  182.8790  177.2780  136.9120 C   0  0  0  0  0  2  0  0  0  0  0  0
  183.1420  177.7650  138.3400 C   0  0  2  0  0  3  0  0  0  0  0  0
  184.8730  179.1150  138.4120 O   0  0  0  0  0  1  0  0  0  0  0  0
  184.5070  177.8740  138.6680 O   0  0  0  0  0  0  0  0  0  0  0  0
  182.2800  177.1150  139.4290 C   0  0  0  0  0  2  0  0  0  0  0  0
  180.2240  177.0810  140.5490 C   0  0  0  0  0  2  0  0  0  0  0  0
  179.9600  176.2990  139.3470 C   0  0  1  0  0  3  0  0  0  0  0  0
  180.8690  177.4750  139.2880 N   0  0  0  0  0  0  0  0  0  0  0  0
  179.6900  174.1480  139.7850 C   0  0  0  0  0  1  0  0  0  0  0  0
  180.6530  175.0820  139.4010 O   0  0  0  0  0  0  0  0  0  0  0  0
  188.7350  175.7530  135.3940 C   0  0  0  0  0  2  0  0  0  0  0  0
  189.9000  176.7180  135.2470 C   0  0  0  0  0  1  0  0  0  0  0  0
  1  2  2  0  0  0  0
  2  5  1  0  0  0  0
  3 10  1  0  0  0  0
  4  8  2  0  0  0  0
  5  6  2  0  0  0  0
  5  4  1  0  0  0  0
  6  7  1  0  0  0  0
  7  3  2  0  0  0  0
  8  3  1  0  0  0  0
  9 12  1  0  0  0  0
 10 11  2  0  0  0  0
 10  9  1  0  0  0  0
 12 13  1  0  0  0  0
 14 13  1  0  0  0  0
 15 14  1  0  0  0  0
 15 16  1  1  0  0  0
 17 20  1  0  0  0  0
 17 19  1  0  0  0  0
 18 22  2  0  0  0  0
 18 15  1  0  0  0  0
 19 18  1  0  0  0  0
 21 17  2  0  0  0  0
 23  2  1  0  0  0  0
 24 23  1  0  0  0  0
 25  1  1  0  0  0  0
 27 26  1  6  0  0  0
 27 25  1  0  0  0  0
 28 27  1  0  0  0  0
 28 34  1  0  0  0  0
 29 33  1  0  0  0  0
 30 35  1  1  0  0  0
 30 31  1  0  0  0  0
 30 34  1  0  0  0  0
 31 29  1  0  0  0  0
 32 33  1  0  0  0  0
 34 32  1  0  0  0  0
 35 36  1  0  0  0  0
 36 37  1  0  0  0  0
 38 37  1  6  0  0  0
 38 40  1  0  0  0  0
 38 41  1  0  0  0  0
 39 40  1  0  0  0  0
 43 46  1  1  0  0  0
 43 42  1  0  0  0  0
 44 43  1  0  0  0  0
 44 41  1  0  0  0  0
 44 42  1  0  0  0  0
 46 45  1  0  0  0  0
 47 25  1  0  0  0  0
 48 47  1  0  0  0  0
M  END
>  <MODEL>
5

>  <REMARK>
 VINA RESULT:      -7.2      2.319      6.030
  Name = 
  21 active torsions:
  status: ('A' for Active; 'I' for Inactive)
    1  A    between atoms: C_1  and  C_23
    2  A    between atoms: C_1  and  C_35
    3  A    between atoms: C_2  and  N_22
    4  A    between atoms: C_2  and  C_23
    5  A    between atoms: C_3  and  N_15
    6  A    between atoms: C_5  and  N_15
    7  A    between atoms: C_6  and  C_25
    8  A    between atoms: C_7  and  N_15
    9  A    between atoms: C_7  and  C_36
   10  A    between atoms: C_8  and  C_16
   11  A    between atoms: C_8  and  N_29
   12  A    between atoms: O_12  and  C_16
   13  A    between atoms: C_13  and  C_38
   14  A    between atoms: C_16  and  C_19
   15  A    between atoms: N_18  and  C_32
   16  A    between atoms: C_19  and  O_31
   17  A    between atoms: C_24  and  C_35
   18  A    between atoms: C_26  and  C_32
   19  A    between atoms: C_27  and  O_41
   20  A    between atoms: O_31  and  C_38
   21  A    between atoms: C_36  and  N_48
                            x       y       z     vdW  Elec       q    Type
                         _______ _______ _______ _____ _____    ______ ____

>  <TORSDO>
F 21

$$$$
=
 OpenBabel11032419533D

 48 50  0  0  1  0  0  0  0  0999 V2000
  183.3690  177.6510  139.7250 C   0  0  0  0  0  3  0  0  0  0  0  0
  184.1140  178.6240  140.2730 C   0  0  0  0  0  0  0  0  0  0  0  0
  185.1150  178.4310  144.4500 C   0  0  0  0  0  0  0  0  0  0  0  0
  185.7690  178.2320  142.1200 C   0  0  0  0  0  3  0  0  0  0  0  0
  184.4630  178.5440  141.7090 C   0  0  0  0  0  0  0  0  0  0  0  0
  183.4900  178.8060  142.6850 C   0  0  0  0  0  3  0  0  0  0  0  0
  183.8120  178.7460  144.0430 C   0  0  0  0  0  3  0  0  0  0  0  0
  186.0910  178.1770  143.4780 C   0  0  0  0  0  3  0  0  0  0  0  0
  186.8320  178.3370  146.2850 N   0  0  0  0  0  2  0  0  0  0  0  0
  185.4600  178.3750  145.8810 C   0  0  0  0  0  0  0  0  0  0  0  0
  184.5460  178.3710  146.7510 O   0  0  0  0  0  0  0  0  0  0  0  0
  187.2380  178.2520  147.6810 C   0  0  0  0  0  2  0  0  0  0  0  0
  188.2900  177.1670  147.8650 C   0  0  0  0  0  2  0  0  0  0  0  0
  189.6940  177.7350  147.7040 C   0  0  0  0  0  2  0  0  0  0  0  0
  190.6110  176.7550  146.9840 C   0  0  2  0  0  3  0  0  0  0  0  0
  191.8700  176.7680  147.5820 O   0  0  0  0  0  1  0  0  0  0  0  0
  189.7750  176.8110  143.1820 C   0  0  0  0  0  0  0  0  0  0  0  0
  190.7370  177.1000  145.5370 C   0  0  0  0  0  0  0  0  0  0  0  0
  189.7590  176.6220  144.6020 N   0  0  0  0  0  2  0  0  0  0  0  0
  190.9120  177.4740  142.4830 C   0  0  0  0  0  1  0  0  0  0  0  0
  188.8090  176.3840  142.4970 O   0  0  0  0  0  0  0  0  0  0  0  0
  191.7010  177.8160  145.1600 O   0  0  0  0  0  0  0  0  0  0  0  0
  184.5580  179.7650  139.5230 N   0  0  0  0  0  2  0  0  0  0  0  0
  183.7180  180.7320  139.0830 O   0  0  0  0  0  1  0  0  0  0  0  0
  183.0980  177.5270  138.3230 N   0  0  0  0  0  0  0  0  0  0  0  0
  185.3830  177.7030  137.4150 C   0  0  0  0  0  1  0  0  0  0  0  0
  184.1070  176.8720  137.4950 C   0  0  1  0  0  3  0  0  0  0  0  0
  184.3740  175.4420  137.9910 C   0  0  0  0  0  2  0  0  0  0  0  0
  185.3430  172.4800  135.3660 N   0  0  0  0  0  2  0  0  0  0  0  0
  186.0580  173.9430  137.0560 C   0  0  2  0  0  3  0  0  0  0  0  0
  186.1890  172.5920  136.4860 N   0  0  0  0  0  2  0  0  0  0  0  0
  183.7000  173.3940  136.9690 C   0  0  0  0  0  2  0  0  0  0  0  0
  183.9610  172.3920  135.8400 C   0  0  0  0  0  2  0  0  0  0  0  0
  184.6850  174.4740  136.9250 N   0  0  0  0  0  0  0  0  0  0  0  0
  187.0610  174.8830  136.4050 C   0  0  0  0  0  2  0  0  0  0  0  0
  188.2370  174.8890  137.1560 O   0  0  0  0  0  0  0  0  0  0  0  0
  188.5740  176.2350  137.2940 C   0  0  0  0  0  2  0  0  0  0  0  0
  189.8730  176.4000  138.0890 C   0  0  2  0  0  3  0  0  0  0  0  0
  188.5820  177.5210  139.4670 O   0  0  0  0  0  1  0  0  0  0  0  0
  189.8300  177.4250  139.0530 O   0  0  0  0  0  0  0  0  0  0  0  0
  191.1640  176.3630  137.2620 C   0  0  0  0  0  2  0  0  0  0  0  0
  193.5050  176.3420  137.2170 C   0  0  0  0  0  2  0  0  0  0  0  0
  193.1710  175.0240  137.7450 C   0  0  1  0  0  3  0  0  0  0  0  0
  192.3450  176.2050  138.1110 N   0  0  0  0  0  0  0  0  0  0  0  0
  193.5330  173.2600  136.4600 C   0  0  0  0  0  1  0  0  0  0  0  0
  192.5800  174.2390  136.7460 O   0  0  0  0  0  0  0  0  0  0  0  0
  182.0480  178.3390  137.7030 C   0  0  0  0  0  2  0  0  0  0  0  0
  180.6810  177.7060  137.9080 C   0  0  0  0  0  1  0  0  0  0  0  0
  1  2  2  0  0  0  0
  2  5  1  0  0  0  0
  3 10  1  0  0  0  0
  4  8  1  0  0  0  0
  5  4  2  0  0  0  0
  5  6  1  0  0  0  0
  6  7  2  0  0  0  0
  7  3  1  0  0  0  0
  8  3  2  0  0  0  0
  9 12  1  0  0  0  0
 10  9  1  0  0  0  0
 10 11  2  0  0  0  0
 12 13  1  0  0  0  0
 14 13  1  0  0  0  0
 15 16  1  1  0  0  0
 15 14  1  0  0  0  0
 17 19  1  0  0  0  0
 18 15  1  0  0  0  0
 19 18  1  0  0  0  0
 20 17  1  0  0  0  0
 21 17  2  0  0  0  0
 22 18  2  0  0  0  0
 23  2  1  0  0  0  0
 24 23  1  0  0  0  0
 25  1  1  0  0  0  0
 27 26  1  1  0  0  0
 27 28  1  0  0  0  0
 27 25  1  0  0  0  0
 29 33  1  0  0  0  0
 29 31  1  0  0  0  0
 30 35  1  6  0  0  0
 31 30  1  0  0  0  0
 33 32  1  0  0  0  0
 34 32  1  0  0  0  0
 34 30  1  0  0  0  0
 34 28  1  0  0  0  0
 35 36  1  0  0  0  0
 36 37  1  0  0  0  0
 37 38  1  0  0  0  0
 38 41  1  6  0  0  0
 38 40  1  0  0  0  0
 40 39  1  0  0  0  0
 41 44  1  0  0  0  0
 42 43  1  0  0  0  0
 42 44  1  0  0  0  0
 43 46  1  6  0  0  0
 43 44  1  0  0  0  0
 45 46  1  0  0  0  0
 47 48  1  0  0  0  0
 47 25  1  0  0  0  0
M  END
>  <MODEL>
6

>  <REMARK>
 VINA RESULT:      -6.8      1.763      2.524
  Name = 
  21 active torsions:
  status: ('A' for Active; 'I' for Inactive)
    1  A    between atoms: C_1  and  C_23
    2  A    between atoms: C_1  and  C_35
    3  A    between atoms: C_2  and  N_22
    4  A    between atoms: C_2  and  C_23
    5  A    between atoms: C_3  and  N_15
    6  A    between atoms: C_5  and  N_15
    7  A    between atoms: C_6  and  C_25
    8  A    between atoms: C_7  and  N_15
    9  A    between atoms: C_7  and  C_36
   10  A    between atoms: C_8  and  C_16
   11  A    between atoms: C_8  and  N_29
   12  A    between atoms: O_12  and  C_16
   13  A    between atoms: C_13  and  C_38
   14  A    between atoms: C_16  and  C_19
   15  A    between atoms: N_18  and  C_32
   16  A    between atoms: C_19  and  O_31
   17  A    between atoms: C_24  and  C_35
   18  A    between atoms: C_26  and  C_32
   19  A    between atoms: C_27  and  O_41
   20  A    between atoms: O_31  and  C_38
   21  A    between atoms: C_36  and  N_48
                            x       y       z     vdW  Elec       q    Type
                         _______ _______ _______ _____ _____    ______ ____

>  <TORSDO>
F 21

$$$$
=
 OpenBabel11032419533D

 48 50  0  0  1  0  0  0  0  0999 V2000
  188.3580  176.2550  137.7870 C   0  0  0  0  0  3  0  0  0  0  0  0
  188.3310  177.4150  138.4630 C   0  0  0  0  0  0  0  0  0  0  0  0
  190.3130  177.6290  142.2720 C   0  0  0  0  0  0  0  0  0  0  0  0
  188.3600  178.0480  140.8920 C   0  0  0  0  0  3  0  0  0  0  0  0
  189.0110  177.5030  139.7740 C   0  0  0  0  0  0  0  0  0  0  0  0
  190.3180  177.0150  139.9220 C   0  0  0  0  0  3  0  0  0  0  0  0
  190.9640  177.0810  141.1590 C   0  0  0  0  0  3  0  0  0  0  0  0
  189.0050  178.1090  142.1290 C   0  0  0  0  0  3  0  0  0  0  0  0
  190.4860  176.9320  144.6820 N   0  0  0  0  0  2  0  0  0  0  0  0
  190.9890  177.6920  143.5790 C   0  0  0  0  0  0  0  0  0  0  0  0
  192.0170  178.4090  143.7240 O   0  0  0  0  0  0  0  0  0  0  0  0
  191.0910  176.9730  146.0060 C   0  0  0  0  0  2  0  0  0  0  0  0
  190.0830  177.4620  147.0360 C   0  0  0  0  0  2  0  0  0  0  0  0
  188.7480  177.7900  146.3820 C   0  0  0  0  0  2  0  0  0  0  0  0
  187.6700  178.0650  147.4220 C   0  0  2  0  0  3  0  0  0  0  0  0
  187.5560  176.9710  148.2770 O   0  0  0  0  0  1  0  0  0  0  0  0
  184.9940  178.2900  144.6030 C   0  0  0  0  0  0  0  0  0  0  0  0
  186.3530  178.3360  146.7720 C   0  0  0  0  0  0  0  0  0  0  0  0
  186.1670  178.0300  145.3820 N   0  0  0  0  0  2  0  0  0  0  0  0
  183.8210  179.0240  145.1570 C   0  0  0  0  0  1  0  0  0  0  0  0
  184.9570  177.9050  143.4050 O   0  0  0  0  0  0  0  0  0  0  0  0
  185.4200  178.8240  147.4610 O   0  0  0  0  0  0  0  0  0  0  0  0
  187.6310  178.5700  137.9750 N   0  0  0  0  0  2  0  0  0  0  0  0
  188.0910  179.3370  136.9570 O   0  0  0  0  0  1  0  0  0  0  0  0
  187.8810  176.0850  136.4460 N   0  0  0  0  0  0  0  0  0  0  0  0
  186.7260  174.0220  137.1430 C   0  0  0  0  0  1  0  0  0  0  0  0
  186.6920  175.2590  136.2530 C   0  0  1  0  0  3  0  0  0  0  0  0
  185.4140  176.0880  136.4570 C   0  0  0  0  0  2  0  0  0  0  0  0
  181.8180  174.1850  136.2280 N   0  0  0  0  0  2  0  0  0  0  0  0
  182.9930  176.1450  136.7630 C   0  0  2  0  0  3  0  0  0  0  0  0
  181.7580  175.5920  136.1830 N   0  0  0  0  0  2  0  0  0  0  0  0
  184.0260  174.6070  135.2040 C   0  0  0  0  0  2  0  0  0  0  0  0
  182.7690  173.7310  135.2120 C   0  0  0  0  0  2  0  0  0  0  0  0
  184.1720  175.2970  136.4840 N   0  0  0  0  0  0  0  0  0  0  0  0
  182.8200  176.3450  138.2620 C   0  0  0  0  0  2  0  0  0  0  0  0
  181.8220  177.2960  138.4840 O   0  0  0  0  0  0  0  0  0  0  0  0
  182.3330  178.4870  137.9690 C   0  0  0  0  0  2  0  0  0  0  0  0
  182.3570  179.5840  139.0370 C   0  0  2  0  0  3  0  0  0  0  0  0
  184.1920  180.7490  138.7240 O   0  0  0  0  0  1  0  0  0  0  0  0
  183.6400  179.8710  139.5390 O   0  0  0  0  0  0  0  0  0  0  0  0
  181.2660  179.4850  140.1110 C   0  0  0  0  0  2  0  0  0  0  0  0
  180.4530  177.9980  141.7270 C   0  0  0  0  0  2  0  0  0  0  0  0
  181.0850  179.0410  142.5250 C   0  0  1  0  0  3  0  0  0  0  0  0
  181.6810  178.6320  141.2250 N   0  0  0  0  0  0  0  0  0  0  0  0
  179.2880  180.0570  143.3200 C   0  0  0  0  0  1  0  0  0  0  0  0
  180.3510  180.2310  142.4330 O   0  0  0  0  0  0  0  0  0  0  0  0
  188.7470  176.4090  135.3100 C   0  0  0  0  0  2  0  0  0  0  0  0
  189.4700  175.1700  134.8090 C   0  0  0  0  0  1  0  0  0  0  0  0
  1  2  2  0  0  0  0
  2  5  1  0  0  0  0
  3 10  1  0  0  0  0
  4  8  2  0  0  0  0
  5  6  2  0  0  0  0
  5  4  1  0  0  0  0
  6  7  1  0  0  0  0
  7  3  2  0  0  0  0
  8  3  1  0  0  0  0
  9 12  1  0  0  0  0
 10 11  2  0  0  0  0
 10  9  1  0  0  0  0
 12 13  1  0  0  0  0
 14 13  1  0  0  0  0
 14 15  1  0  0  0  0
 15 16  1  1  0  0  0
 17 20  1  0  0  0  0
 17 19  1  0  0  0  0
 18 15  1  0  0  0  0
 18 22  2  0  0  0  0
 19 18  1  0  0  0  0
 21 17  2  0  0  0  0
 23  2  1  0  0  0  0
 24 23  1  0  0  0  0
 25  1  1  0  0  0  0
 27 25  1  0  0  0  0
 27 28  1  0  0  0  0
 27 26  1  1  0  0  0
 28 34  1  0  0  0  0
 30 35  1  1  0  0  0
 31 29  1  0  0  0  0
 31 30  1  0  0  0  0
 32 33  1  0  0  0  0
 32 34  1  0  0  0  0
 33 29  1  0  0  0  0
 34 30  1  0  0  0  0
 35 36  1  0  0  0  0
 37 36  1  0  0  0  0
 38 37  1  1  0  0  0
 38 40  1  0  0  0  0
 38 41  1  0  0  0  0
 39 40  1  0  0  0  0
 41 44  1  0  0  0  0
 42 43  1  0  0  0  0
 43 46  1  6  0  0  0
 44 42  1  0  0  0  0
 44 43  1  0  0  0  0
 46 45  1  0  0  0  0
 47 25  1  0  0  0  0
 48 47  1  0  0  0  0
M  END
>  <MODEL>
7

>  <REMARK>
 VINA RESULT:      -6.7      2.387      6.261
  Name = 
  21 active torsions:
  status: ('A' for Active; 'I' for Inactive)
    1  A    between atoms: C_1  and  C_23
    2  A    between atoms: C_1  and  C_35
    3  A    between atoms: C_2  and  N_22
    4  A    between atoms: C_2  and  C_23
    5  A    between atoms: C_3  and  N_15
    6  A    between atoms: C_5  and  N_15
    7  A    between atoms: C_6  and  C_25
    8  A    between atoms: C_7  and  N_15
    9  A    between atoms: C_7  and  C_36
   10  A    between atoms: C_8  and  C_16
   11  A    between atoms: C_8  and  N_29
   12  A    between atoms: O_12  and  C_16
   13  A    between atoms: C_13  and  C_38
   14  A    between atoms: C_16  and  C_19
   15  A    between atoms: N_18  and  C_32
   16  A    between atoms: C_19  and  O_31
   17  A    between atoms: C_24  and  C_35
   18  A    between atoms: C_26  and  C_32
   19  A    between atoms: C_27  and  O_41
   20  A    between atoms: O_31  and  C_38
   21  A    between atoms: C_36  and  N_48
                            x       y       z     vdW  Elec       q    Type
                         _______ _______ _______ _____ _____    ______ ____

>  <TORSDO>
F 21

$$$$
=
 OpenBabel11032419533D

 48 50  0  0  1  0  0  0  0  0999 V2000
  182.4110  178.5950  141.2590 C   0  0  0  0  0  3  0  0  0  0  0  0
  183.7480  178.6810  141.3510 C   0  0  0  0  0  0  0  0  0  0  0  0
  185.6050  178.4150  145.2190 C   0  0  0  0  0  0  0  0  0  0  0  0
  183.7200  179.0610  143.8330 C   0  0  0  0  0  3  0  0  0  0  0  0
  184.3860  178.6040  142.6850 C   0  0  0  0  0  0  0  0  0  0  0  0
  185.6650  178.0450  142.8200 C   0  0  0  0  0  3  0  0  0  0  0  0
  186.2710  177.9550  144.0760 C   0  0  0  0  0  3  0  0  0  0  0  0
  184.3240  178.9660  145.0880 C   0  0  0  0  0  3  0  0  0  0  0  0
  187.2800  177.3590  146.7710 N   0  0  0  0  0  2  0  0  0  0  0  0
  186.2380  178.3140  146.5450 C   0  0  0  0  0  0  0  0  0  0  0  0
  185.8680  179.0760  147.4810 O   0  0  0  0  0  0  0  0  0  0  0  0
  187.9250  177.1900  148.0660 C   0  0  0  0  0  2  0  0  0  0  0  0
  188.8990  178.3290  148.3280 C   0  0  0  0  0  2  0  0  0  0  0  0
  190.3340  177.8900  148.0720 C   0  0  0  0  0  2  0  0  0  0  0  0
  190.3900  176.6730  147.1580 C   0  0  2  0  0  3  0  0  0  0  0  0
  191.3540  175.7820  147.6240 O   0  0  0  0  0  1  0  0  0  0  0  0
  190.0420  176.9020  143.2870 C   0  0  0  0  0  0  0  0  0  0  0  0
  190.7070  177.0690  145.7540 C   0  0  0  0  0  0  0  0  0  0  0  0
  189.8410  176.6600  144.6850 N   0  0  0  0  0  2  0  0  0  0  0  0
  191.2760  177.5540  142.7650 C   0  0  0  0  0  1  0  0  0  0  0  0
  189.1590  176.5340  142.4690 O   0  0  0  0  0  0  0  0  0  0  0  0
  191.7300  177.7660  145.5310 O   0  0  0  0  0  0  0  0  0  0  0  0
  184.5840  178.8810  140.2020 N   0  0  0  0  0  2  0  0  0  0  0  0
  184.5320  179.9970  139.4360 O   0  0  0  0  0  1  0  0  0  0  0  0
  181.6860  178.4950  140.0260 N   0  0  0  0  0  0  0  0  0  0  0  0
  180.6200  176.3020  139.6710 C   0  0  0  0  0  1  0  0  0  0  0  0
  181.7670  177.2330  139.2950 C   0  0  1  0  0  3  0  0  0  0  0  0
  181.8390  177.4850  137.7800 C   0  0  0  0  0  2  0  0  0  0  0  0
  182.1550  173.8930  135.8830 N   0  0  0  0  0  2  0  0  0  0  0  0
  182.8270  175.2550  137.6710 C   0  0  2  0  0  3  0  0  0  0  0  0
  182.4990  173.8840  137.2480 N   0  0  0  0  0  2  0  0  0  0  0  0
  180.6910  175.7350  136.6340 C   0  0  0  0  0  2  0  0  0  0  0  0
  180.8280  174.4950  135.7450 C   0  0  0  0  0  2  0  0  0  0  0  0
  182.0110  176.2680  136.9680 N   0  0  0  0  0  0  0  0  0  0  0  0
  184.3100  175.5240  137.4650 C   0  0  0  0  0  2  0  0  0  0  0  0
  184.4690  176.4170  136.4040 O   0  0  0  0  0  0  0  0  0  0  0  0
  185.2320  175.7300  135.4610 C   0  0  0  0  0  2  0  0  0  0  0  0
  186.6930  176.1860  135.4940 C   0  0  2  0  0  3  0  0  0  0  0  0
  187.0310  174.0180  135.5830 O   0  0  0  0  0  1  0  0  0  0  0  0
  187.6230  175.1530  135.2680 O   0  0  0  0  0  0  0  0  0  0  0  0
  187.0650  177.1310  136.6430 C   0  0  0  0  0  2  0  0  0  0  0  0
  189.3270  177.4600  137.1500 C   0  0  0  0  0  2  0  0  0  0  0  0
  188.7270  178.7510  137.4630 C   0  0  1  0  0  3  0  0  0  0  0  0
  188.2270  177.9550  136.3100 N   0  0  0  0  0  0  0  0  0  0  0  0
  188.7930  178.5780  139.6670 C   0  0  0  0  0  1  0  0  0  0  0  0
  187.9040  178.6400  138.5930 O   0  0  0  0  0  0  0  0  0  0  0  0
  181.2030  179.7060  139.3570 C   0  0  0  0  0  2  0  0  0  0  0  0
  180.1230  180.3850  140.1810 C   0  0  0  0  0  1  0  0  0  0  0  0
  1  2  2  0  0  0  0
  2  5  1  0  0  0  0
  3 10  1  0  0  0  0
  4  8  2  0  0  0  0
  5  6  2  0  0  0  0
  5  4  1  0  0  0  0
  6  7  1  0  0  0  0
  7  3  2  0  0  0  0
  8  3  1  0  0  0  0
  9 12  1  0  0  0  0
 10  9  1  0  0  0  0
 10 11  2  0  0  0  0
 12 13  1  0  0  0  0
 14 13  1  0  0  0  0
 15 16  1  1  0  0  0
 15 14  1  0  0  0  0
 17 19  1  0  0  0  0
 18 15  1  0  0  0  0
 19 18  1  0  0  0  0
 20 17  1  0  0  0  0
 21 17  2  0  0  0  0
 22 18  2  0  0  0  0
 23  2  1  0  0  0  0
 24 23  1  0  0  0  0
 25  1  1  0  0  0  0
 27 26  1  6  0  0  0
 27 25  1  0  0  0  0
 28 27  1  0  0  0  0
 29 31  1  0  0  0  0
 30 35  1  6  0  0  0
 31 30  1  0  0  0  0
 32 34  1  0  0  0  0
 33 29  1  0  0  0  0
 33 32  1  0  0  0  0
 34 30  1  0  0  0  0
 34 28  1  0  0  0  0
 36 35  1  0  0  0  0
 37 36  1  0  0  0  0
 38 37  1  1  0  0  0
 38 41  1  0  0  0  0
 40 38  1  0  0  0  0
 40 39  1  0  0  0  0
 42 43  1  0  0  0  0
 43 46  1  1  0  0  0
 44 41  1  0  0  0  0
 44 42  1  0  0  0  0
 44 43  1  0  0  0  0
 46 45  1  0  0  0  0
 47 25  1  0  0  0  0
 47 48  1  0  0  0  0
M  END
>  <MODEL>
8

>  <REMARK>
 VINA RESULT:      -6.6      1.661      2.196
  Name = 
  21 active torsions:
  status: ('A' for Active; 'I' for Inactive)
    1  A    between atoms: C_1  and  C_23
    2  A    between atoms: C_1  and  C_35
    3  A    between atoms: C_2  and  N_22
    4  A    between atoms: C_2  and  C_23
    5  A    between atoms: C_3  and  N_15
    6  A    between atoms: C_5  and  N_15
    7  A    between atoms: C_6  and  C_25
    8  A    between atoms: C_7  and  N_15
    9  A    between atoms: C_7  and  C_36
   10  A    between atoms: C_8  and  C_16
   11  A    between atoms: C_8  and  N_29
   12  A    between atoms: O_12  and  C_16
   13  A    between atoms: C_13  and  C_38
   14  A    between atoms: C_16  and  C_19
   15  A    between atoms: N_18  and  C_32
   16  A    between atoms: C_19  and  O_31
   17  A    between atoms: C_24  and  C_35
   18  A    between atoms: C_26  and  C_32
   19  A    between atoms: C_27  and  O_41
   20  A    between atoms: O_31  and  C_38
   21  A    between atoms: C_36  and  N_48
                            x       y       z     vdW  Elec       q    Type
                         _______ _______ _______ _____ _____    ______ ____

>  <TORSDO>
F 21

$$$$
=
 OpenBabel11032419533D

 48 50  0  0  1  0  0  0  0  0999 V2000
  190.5890  175.8270  138.0260 C   0  0  0  0  0  3  0  0  0  0  0  0
  190.0070  176.9160  138.5520 C   0  0  0  0  0  0  0  0  0  0  0  0
  190.0050  177.4870  142.8140 C   0  0  0  0  0  0  0  0  0  0  0  0
  191.2200  177.2510  140.7250 C   0  0  0  0  0  3  0  0  0  0  0  0
  190.0150  177.1010  140.0210 C   0  0  0  0  0  0  0  0  0  0  0  0
  188.8050  177.1540  140.7290 C   0  0  0  0  0  3  0  0  0  0  0  0
  188.8000  177.3410  142.1140 C   0  0  0  0  0  3  0  0  0  0  0  0
  191.2140  177.4430  142.1080 C   0  0  0  0  0  3  0  0  0  0  0  0
  189.1510  176.9000  145.1060 N   0  0  0  0  0  2  0  0  0  0  0  0
  190.0030  177.6920  144.2720 C   0  0  0  0  0  0  0  0  0  0  0  0
  190.7580  178.5610  144.7880 O   0  0  0  0  0  0  0  0  0  0  0  0
  189.0810  177.0740  146.5500 C   0  0  0  0  0  2  0  0  0  0  0  0
  187.8540  177.8910  146.9290 C   0  0  0  0  0  2  0  0  0  0  0  0
  186.8250  177.8830  145.8070 C   0  0  0  0  0  2  0  0  0  0  0  0
  185.7030  178.8780  146.0740 C   0  0  2  0  0  3  0  0  0  0  0  0
  185.1510  178.6350  147.3300 O   0  0  0  0  0  1  0  0  0  0  0  0
  184.0990  178.3190  142.5700 C   0  0  0  0  0  0  0  0  0  0  0  0
  184.6390  178.7810  145.0290 C   0  0  0  0  0  0  0  0  0  0  0  0
  184.9870  178.3940  143.6920 N   0  0  0  0  0  2  0  0  0  0  0  0
  182.6730  178.7450  142.6570 C   0  0  0  0  0  1  0  0  0  0  0  0
  184.5400  177.9010  141.4670 O   0  0  0  0  0  0  0  0  0  0  0  0
  183.4480  179.0340  145.3440 O   0  0  0  0  0  0  0  0  0  0  0  0
  189.3420  177.8970  137.7420 N   0  0  0  0  0  2  0  0  0  0  0  0
  189.2040  179.1920  138.1140 O   0  0  0  0  0  1  0  0  0  0  0  0
  190.7900  175.6100  136.6230 N   0  0  0  0  0  0  0  0  0  0  0  0
  190.4380  174.2520  134.5970 C   0  0  0  0  0  1  0  0  0  0  0  0
  189.8770  174.6950  135.9440 C   0  0  1  0  0  3  0  0  0  0  0  0
  189.5280  173.5020  136.8490 C   0  0  0  0  0  2  0  0  0  0  0  0
  185.9670  171.9340  135.6400 N   0  0  0  0  0  2  0  0  0  0  0  0
  187.2750  173.8520  135.9780 C   0  0  2  0  0  3  0  0  0  0  0  0
  186.2740  173.2030  135.1140 N   0  0  0  0  0  2  0  0  0  0  0  0
  188.4300  171.7470  135.6630 C   0  0  0  0  0  2  0  0  0  0  0  0
  187.1000  171.0420  135.3820 C   0  0  0  0  0  2  0  0  0  0  0  0
  188.2240  172.8810  136.5630 N   0  0  0  0  0  0  0  0  0  0  0  0
  186.5820  174.6500  137.0720 C   0  0  0  0  0  2  0  0  0  0  0  0
  186.7640  176.0120  136.8300 O   0  0  0  0  0  0  0  0  0  0  0  0
  185.5510  176.4530  136.3020 C   0  0  0  0  0  2  0  0  0  0  0  0
  184.8200  177.3680  137.2890 C   0  0  2  0  0  3  0  0  0  0  0  0
  186.0460  179.0110  138.0750 O   0  0  0  0  0  1  0  0  0  0  0  0
  185.6140  177.8000  138.3680 O   0  0  0  0  0  0  0  0  0  0  0  0
  183.4070  176.9200  137.6830 C   0  0  0  0  0  2  0  0  0  0  0  0
  181.9200  175.4160  136.6800 C   0  0  0  0  0  2  0  0  0  0  0  0
  181.9740  174.9560  138.0620 C   0  0  1  0  0  3  0  0  0  0  0  0
  183.1940  175.4990  137.4080 N   0  0  0  0  0  0  0  0  0  0  0  0
  180.2010  175.2380  139.3550 C   0  0  0  0  0  1  0  0  0  0  0  0
  181.3530  175.8870  138.9060 O   0  0  0  0  0  0  0  0  0  0  0  0
  192.0570  175.9910  135.9940 C   0  0  0  0  0  2  0  0  0  0  0  0
  193.0830  176.3910  137.0420 C   0  0  0  0  0  1  0  0  0  0  0  0
  1  2  2  0  0  0  0
  2  5  1  0  0  0  0
  3 10  1  0  0  0  0
  4  8  1  0  0  0  0
  5  4  2  0  0  0  0
  5  6  1  0  0  0  0
  6  7  2  0  0  0  0
  7  3  1  0  0  0  0
  8  3  2  0  0  0  0
  9 12  1  0  0  0  0
 10 11  2  0  0  0  0
 10  9  1  0  0  0  0
 12 13  1  0  0  0  0
 14 15  1  0  0  0  0
 14 13  1  0  0  0  0
 15 16  1  1  0  0  0
 17 20  1  0  0  0  0
 17 19  1  0  0  0  0
 18 22  2  0  0  0  0
 18 15  1  0  0  0  0
 19 18  1  0  0  0  0
 21 17  2  0  0  0  0
 23 24  1  0  0  0  0
 23  2  1  0  0  0  0
 25  1  1  0  0  0  0
 27 26  1  6  0  0  0
 27 25  1  0  0  0  0
 27 28  1  0  0  0  0
 30 34  1  0  0  0  0
 30 35  1  1  0  0  0
 31 29  1  0  0  0  0
 31 30  1  0  0  0  0
 32 34  1  0  0  0  0
 33 29  1  0  0  0  0
 33 32  1  0  0  0  0
 34 28  1  0  0  0  0
 36 35  1  0  0  0  0
 37 36  1  0  0  0  0
 38 37  1  1  0  0  0
 38 41  1  0  0  0  0
 38 40  1  0  0  0  0
 39 40  1  0  0  0  0
 42 44  1  0  0  0  0
 42 43  1  0  0  0  0
 43 46  1  1  0  0  0
 44 41  1  0  0  0  0
 44 43  1  0  0  0  0
 46 45  1  0  0  0  0
 47 25  1  0  0  0  0
 47 48  1  0  0  0  0
M  END
>  <MODEL>
9

>  <REMARK>
 VINA RESULT:      -6.6      2.253      6.517
  Name = 
  21 active torsions:
  status: ('A' for Active; 'I' for Inactive)
    1  A    between atoms: C_1  and  C_23
    2  A    between atoms: C_1  and  C_35
    3  A    between atoms: C_2  and  N_22
    4  A    between atoms: C_2  and  C_23
    5  A    between atoms: C_3  and  N_15
    6  A    between atoms: C_5  and  N_15
    7  A    between atoms: C_6  and  C_25
    8  A    between atoms: C_7  and  N_15
    9  A    between atoms: C_7  and  C_36
   10  A    between atoms: C_8  and  C_16
   11  A    between atoms: C_8  and  N_29
   12  A    between atoms: O_12  and  C_16
   13  A    between atoms: C_13  and  C_38
   14  A    between atoms: C_16  and  C_19
   15  A    between atoms: N_18  and  C_32
   16  A    between atoms: C_19  and  O_31
   17  A    between atoms: C_24  and  C_35
   18  A    between atoms: C_26  and  C_32
   19  A    between atoms: C_27  and  O_41
   20  A    between atoms: O_31  and  C_38
   21  A    between atoms: C_36  and  N_48
                            x       y       z     vdW  Elec       q    Type
                         _______ _______ _______ _____ _____    ______ ____

>  <TORSDO>
F 21

$$$$
