=
 OpenBabel11032419143D

 30 34  0  0  1  0  0  0  0  0999 V2000
  189.6940  176.5050  139.3600 C   0  0  0  0  0  0  0  0  0  0  0  0
  188.1820  176.7730  137.3560 C   0  0  0  0  0  0  0  0  0  0  0  0
  185.7340  178.9300  142.3870 C   0  0  2  0  0  3  0  0  0  0  0  0
  189.3060  176.3640  146.1120 C   0  0  0  0  0  1  0  0  0  0  0  0
  186.7260  178.2900  138.3250 N   0  0  0  0  0  0  0  0  0  0  0  0
  188.6820  177.5480  141.4380 C   0  0  1  0  0  3  0  0  0  0  0  0
  188.5410  176.9780  138.6060 C   0  0  2  0  0  3  0  0  0  0  0  0
  186.9550  177.5760  137.0650 C   0  0  0  0  0  3  0  0  0  0  0  0
  189.8120  176.9320  140.7200 N   0  0  0  0  0  2  0  0  0  0  0  0
  190.9490  179.2640  144.1160 C   0  0  0  0  0  2  0  0  0  0  0  0
  189.7940  177.0950  144.8740 C   0  0  2  0  0  3  0  0  0  0  0  0
  190.6070  178.6860  142.7460 C   0  0  0  0  0  2  0  0  0  0  0  0
  185.7050  177.6670  143.2330 C   0  0  0  0  0  2  0  0  0  0  0  0
  190.7520  178.2400  145.2430 C   0  0  1  0  0  3  0  0  0  0  0  0
  187.6120  177.9030  139.1840 C   0  0  0  0  0  0  0  0  0  0  0  0
  189.1300  178.2690  142.7120 C   0  0  2  0  0  3  0  0  0  0  0  0
  191.9900  177.7130  145.6120 O   0  0  0  0  0  1  0  0  0  0  0  0
  187.6490  178.4570  144.6940 C   0  0  0  0  0  2  0  0  0  0  0  0
  188.8480  175.9570  136.4520 O   0  0  0  0  0  1  0  0  0  0  0  0
  185.0400  178.7170  141.1910 C   0  0  0  0  0  0  0  0  0  0  0  0
  186.4830  178.6740  141.2330 C   0  0  0  0  0  0  0  0  0  0  0  0
  190.5830  175.7850  138.8330 O   0  0  0  0  0  0  0  0  0  0  0  0
  187.8060  178.4790  140.5600 C   0  0  1  0  0  3  0  0  0  0  0  0
  186.2200  177.9140  144.6490 C   0  0  0  0  0  2  0  0  0  0  0  0
  188.6330  177.5410  143.9690 C   0  0  2  0  0  3  0  0  0  0  0  0
  183.8190  178.6030  140.4640 N   0  0  0  0  0  2  0  0  0  0  0  0
  182.2180  179.3430  138.7450 N   0  0  0  0  0  2  0  0  0  0  0  0
  181.7910  180.2390  137.6830 C   0  0  0  0  0  1  0  0  0  0  0  0
  184.2240  180.4720  139.1240 O   0  0  0  0  0  0  0  0  0  0  0  0
  183.4570  179.5180  139.4290 C   0  0  0  0  0  0  0  0  0  0  0  0
  1  9  1  0  0  0  0
  3 13  1  1  0  0  0
  5 15  2  0  0  0  0
  6  9  1  6  0  0  0
  6 16  1  0  0  0  0
  7  2  1  6  0  0  0
  7 15  1  0  0  0  0
  7  1  1  0  0  0  0
  8  2  2  0  0  0  0
  8  5  1  0  0  0  0
 10 14  1  0  0  0  0
 11 14  1  0  0  0  0
 11  4  1  1  0  0  0
 12 10  1  0  0  0  0
 13 24  1  0  0  0  0
 14 17  1  6  0  0  0
 16 12  1  1  0  0  0
 16 25  1  0  0  0  0
 19  2  1  0  0  0  0
 20 21  2  0  0  0  0
 20  3  1  0  0  0  0
 21  3  1  0  0  0  0
 22  1  2  0  0  0  0
 23 15  1  6  0  0  0
 23 21  1  0  0  0  0
 23  6  1  0  0  0  0
 24 18  1  0  0  0  0
 25 18  1  1  0  0  0
 25 11  1  0  0  0  0
 26 20  1  0  0  0  0
 27 30  1  0  0  0  0
 28 27  1  0  0  0  0
 29 30  2  0  0  0  0
 30 26  1  0  0  0  0
M  END
>  <MODEL>
1

>  <REMARK>
 VINA RESULT:      -8.9      0.000      0.000
  Name = 
  1 active torsions:
  status: ('A' for Active; 'I' for Inactive)
    1  A    between atoms: N_2  and  C_24
                            x       y       z     vdW  Elec       q    Type
                         _______ _______ _______ _____ _____    ______ ____

>  <TORSDO>
F 1

$$$$
=
 OpenBabel11032419143D

 30 34  0  0  1  0  0  0  0  0999 V2000
  189.8860  176.4550  139.4200 C   0  0  0  0  0  0  0  0  0  0  0  0
  188.4760  176.7620  137.3480 C   0  0  0  0  0  0  0  0  0  0  0  0
  185.8650  179.0060  142.2560 C   0  0  2  0  0  3  0  0  0  0  0  0
  189.1820  176.3470  146.1470 C   0  0  0  0  0  1  0  0  0  0  0  0
  187.0230  178.3240  138.2450 N   0  0  0  0  0  0  0  0  0  0  0  0
  188.8110  177.5340  141.4460 C   0  0  1  0  0  3  0  0  0  0  0  0
  188.7840  176.9600  138.6120 C   0  0  2  0  0  3  0  0  0  0  0  0
  187.2890  177.5990  136.9990 C   0  0  0  0  0  3  0  0  0  0  0  0
  189.9540  176.8830  140.7820 N   0  0  0  0  0  2  0  0  0  0  0  0
  191.0020  179.1900  144.2240 C   0  0  0  0  0  2  0  0  0  0  0  0
  189.7490  177.0590  144.9310 C   0  0  2  0  0  3  0  0  0  0  0  0
  190.7060  178.6190  142.8400 C   0  0  0  0  0  2  0  0  0  0  0  0
  185.7590  177.7470  143.1020 C   0  0  0  0  0  2  0  0  0  0  0  0
  190.7230  178.1760  145.3420 C   0  0  1  0  0  3  0  0  0  0  0  0
  187.8570  177.9130  139.1450 C   0  0  0  0  0  0  0  0  0  0  0  0
  189.2200  178.2460  142.7380 C   0  0  2  0  0  3  0  0  0  0  0  0
  191.9260  177.6140  145.7690 O   0  0  0  0  0  1  0  0  0  0  0  0
  187.6550  178.4840  144.6500 C   0  0  0  0  0  2  0  0  0  0  0  0
  189.1590  175.9230  136.4770 O   0  0  0  0  0  1  0  0  0  0  0  0
  185.2200  178.8100  141.0290 C   0  0  0  0  0  0  0  0  0  0  0  0
  186.6570  178.7240  141.1380 C   0  0  0  0  0  0  0  0  0  0  0  0
  190.7760  175.7070  138.9350 O   0  0  0  0  0  0  0  0  0  0  0  0
  188.0040  178.4880  140.5280 C   0  0  1  0  0  3  0  0  0  0  0  0
  186.2150  177.9830  144.5400 C   0  0  0  0  0  2  0  0  0  0  0  0
  188.6450  177.5370  143.9720 C   0  0  2  0  0  3  0  0  0  0  0  0
  184.0310  178.7300  140.2470 N   0  0  0  0  0  2  0  0  0  0  0  0
  181.5830  178.6370  139.9890 N   0  0  0  0  0  2  0  0  0  0  0  0
  180.2320  178.6220  140.5220 C   0  0  0  0  0  1  0  0  0  0  0  0
  182.5930  178.7830  142.0860 O   0  0  0  0  0  0  0  0  0  0  0  0
  182.7290  178.7200  140.8340 C   0  0  0  0  0  0  0  0  0  0  0  0
  1  9  1  0  0  0  0
  3 13  1  1  0  0  0
  5 15  2  0  0  0  0
  6  9  1  6  0  0  0
  6 16  1  0  0  0  0
  7  2  1  6  0  0  0
  7 15  1  0  0  0  0
  7  1  1  0  0  0  0
  8  2  2  0  0  0  0
  8  5  1  0  0  0  0
 10 14  1  0  0  0  0
 11 14  1  0  0  0  0
 11  4  1  1  0  0  0
 12 10  1  0  0  0  0
 13 24  1  0  0  0  0
 14 17  1  6  0  0  0
 16 12  1  1  0  0  0
 16 25  1  0  0  0  0
 19  2  1  0  0  0  0
 20 21  2  0  0  0  0
 20  3  1  0  0  0  0
 21  3  1  0  0  0  0
 22  1  2  0  0  0  0
 23 15  1  6  0  0  0
 23 21  1  0  0  0  0
 23  6  1  0  0  0  0
 24 18  1  0  0  0  0
 25 18  1  1  0  0  0
 25 11  1  0  0  0  0
 26 30  1  0  0  0  0
 26 20  1  0  0  0  0
 27 28  1  0  0  0  0
 27 30  1  0  0  0  0
 30 29  2  0  0  0  0
M  END
>  <MODEL>
2

>  <REMARK>
 VINA RESULT:      -8.6      1.066      1.066
  Name = 
  1 active torsions:
  status: ('A' for Active; 'I' for Inactive)
    1  A    between atoms: N_2  and  C_24
                            x       y       z     vdW  Elec       q    Type
                         _______ _______ _______ _____ _____    ______ ____

>  <TORSDO>
F 1

$$$$
=
 OpenBabel11032419143D

 30 34  0  0  1  0  0  0  0  0999 V2000
  185.6530  178.6560  139.4600 C   0  0  0  0  0  0  0  0  0  0  0  0
  187.7740  178.6150  140.8300 C   0  0  0  0  0  0  0  0  0  0  0  0
  182.8400  178.6190  144.2350 C   0  0  2  0  0  3  0  0  0  0  0  0
  179.1170  180.2570  140.1520 C   0  0  0  0  0  1  0  0  0  0  0  0
  186.7840  178.0110  142.8330 N   0  0  0  0  0  0  0  0  0  0  0  0
  183.5920  178.5210  140.9300 C   0  0  1  0  0  3  0  0  0  0  0  0
  186.4720  178.5340  140.6590 C   0  0  0  0  0  0  0  0  0  0  0  0
  188.0970  178.3170  142.2580 C   0  0  0  0  0  2  0  0  0  0  0  0
  184.2400  178.4920  139.6070 N   0  0  0  0  0  2  0  0  0  0  0  0
  180.4020  176.6160  139.7250 C   0  0  0  0  0  2  0  0  0  0  0  0
  180.1510  179.1660  139.9330 C   0  0  2  0  0  3  0  0  0  0  0  0
  181.8790  177.0010  139.7200 C   0  0  0  0  0  2  0  0  0  0  0  0
  182.2120  179.9320  143.7950 C   0  0  0  0  0  2  0  0  0  0  0  0
  179.4840  177.8340  139.5510 C   0  0  1  0  0  3  0  0  0  0  0  0
  185.8850  178.1800  141.9170 C   0  0  0  0  0  0  0  0  0  0  0  0
  182.1730  177.9470  140.8920 C   0  0  2  0  0  3  0  0  0  0  0  0
  179.0410  177.8950  138.2300 O   0  0  0  0  0  1  0  0  0  0  0  0
  180.4010  178.7460  142.4340 C   0  0  0  0  0  2  0  0  0  0  0  0
  188.6970  178.9110  139.8360 O   0  0  0  0  0  1  0  0  0  0  0  0
  184.1360  178.8480  144.7110 C   0  0  0  0  0  0  0  0  0  0  0  0
  183.9100  178.3300  143.3810 C   0  0  0  0  0  0  0  0  0  0  0  0
  186.1630  178.8520  138.3250 O   0  0  0  0  0  0  0  0  0  0  0  0
  184.4230  177.8560  142.0580 C   0  0  1  0  0  3  0  0  0  0  0  0
  180.7180  179.7850  143.5090 C   0  0  0  0  0  2  0  0  0  0  0  0
  181.1220  179.0420  141.1200 C   0  0  2  0  0  3  0  0  0  0  0  0
  185.0270  179.2870  145.7330 N   0  0  0  0  0  2  0  0  0  0  0  0
  186.8170  178.9140  147.3840 N   0  0  0  0  0  2  0  0  0  0  0  0
  187.7830  178.0710  148.0670 C   0  0  0  0  0  1  0  0  0  0  0  0
  186.0130  177.1910  146.0320 O   0  0  0  0  0  0  0  0  0  0  0  0
  185.9550  178.4050  146.3670 C   0  0  0  0  0  0  0  0  0  0  0  0
  1  9  1  0  0  0  0
  1  7  1  0  0  0  0
  2  8  1  0  0  0  0
  3 13  1  6  0  0  0
  3 20  1  0  0  0  0
  6  9  1  6  0  0  0
  6 23  1  0  0  0  0
  7  2  2  0  0  0  0
  7 15  1  0  0  0  0
  8  5  1  0  0  0  0
 11  4  1  1  0  0  0
 11 25  1  0  0  0  0
 12 10  1  0  0  0  0
 14 17  1  6  0  0  0
 14 10  1  0  0  0  0
 14 11  1  0  0  0  0
 15  5  2  0  0  0  0
 16 12  1  6  0  0  0
 16  6  1  0  0  0  0
 16 25  1  0  0  0  0
 18 24  1  0  0  0  0
 19  2  1  0  0  0  0
 20 26  1  0  0  0  0
 21  3  1  0  0  0  0
 21 20  2  0  0  0  0
 22  1  2  0  0  0  0
 23 15  1  6  0  0  0
 23 21  1  0  0  0  0
 24 13  1  0  0  0  0
 25 18  1  1  0  0  0
 26 30  1  0  0  0  0
 27 28  1  0  0  0  0
 29 30  2  0  0  0  0
 30 27  1  0  0  0  0
M  END
>  <MODEL>
3

>  <REMARK>
 VINA RESULT:      -7.6      3.523      7.688
  Name = 
  1 active torsions:
  status: ('A' for Active; 'I' for Inactive)
    1  A    between atoms: N_2  and  C_24
                            x       y       z     vdW  Elec       q    Type
                         _______ _______ _______ _____ _____    ______ ____

>  <TORSDO>
F 1

$$$$
=
 OpenBabel11032419143D

 30 34  0  0  1  0  0  0  0  0999 V2000
  184.0900  178.0120  139.5690 C   0  0  0  0  0  0  0  0  0  0  0  0
  182.8620  178.5350  141.7110 C   0  0  0  0  0  0  0  0  0  0  0  0
  188.7730  177.9580  142.5330 C   0  0  2  0  0  3  0  0  0  0  0  0
  189.9710  175.3640  137.5290 C   0  0  0  0  0  1  0  0  0  0  0  0
  184.7280  179.1230  142.9490 N   0  0  0  0  0  0  0  0  0  0  0  0
  186.5970  177.9090  139.9320 C   0  0  1  0  0  3  0  0  0  0  0  0
  183.9380  178.3740  140.9720 C   0  0  0  0  0  0  0  0  0  0  0  0
  183.2720  179.0030  143.0710 C   0  0  0  0  0  2  0  0  0  0  0  0
  185.4200  177.9400  139.0470 N   0  0  0  0  0  2  0  0  0  0  0  0
  189.0680  179.1240  137.1620 C   0  0  0  0  0  2  0  0  0  0  0  0
  189.0880  176.5960  137.6260 C   0  0  2  0  0  3  0  0  0  0  0  0
  187.7220  179.0030  137.8710 C   0  0  0  0  0  2  0  0  0  0  0  0
  188.9690  176.5240  142.0670 C   0  0  0  0  0  2  0  0  0  0  0  0
  189.6530  177.7550  136.7890 C   0  0  1  0  0  3  0  0  0  0  0  0
  185.0760  178.7250  141.7690 C   0  0  0  0  0  0  0  0  0  0  0  0
  187.8940  178.2230  139.1830 C   0  0  2  0  0  3  0  0  0  0  0  0
  189.4270  177.5080  135.4350 O   0  0  0  0  0  1  0  0  0  0  0  0
  190.0720  177.2590  139.8810 C   0  0  0  0  0  2  0  0  0  0  0  0
  181.5570  178.3230  141.2890 O   0  0  0  0  0  1  0  0  0  0  0  0
  187.8260  177.9970  143.5630 C   0  0  0  0  0  0  0  0  0  0  0  0
  187.4710  178.3560  142.2090 C   0  0  0  0  0  0  0  0  0  0  0  0
  183.0950  177.8140  138.8220 O   0  0  0  0  0  0  0  0  0  0  0  0
  186.4650  178.8000  141.1940 C   0  0  1  0  0  3  0  0  0  0  0  0
  190.1680  176.3840  141.1310 C   0  0  0  0  0  2  0  0  0  0  0  0
  188.7960  176.9840  139.0860 C   0  0  2  0  0  3  0  0  0  0  0  0
  187.4630  177.8070  144.9280 N   0  0  0  0  0  2  0  0  0  0  0  0
  187.9670  177.7430  147.3390 N   0  0  0  0  0  2  0  0  0  0  0  0
  188.8710  177.8720  148.4680 C   0  0  0  0  0  1  0  0  0  0  0  0
  189.6010  178.2530  145.7540 O   0  0  0  0  0  0  0  0  0  0  0  0
  188.4010  177.9490  145.9950 C   0  0  0  0  0  0  0  0  0  0  0  0
  1  7  1  0  0  0  0
  2  8  1  0  0  0  0
  3 13  1  6  0  0  0
  3 20  1  0  0  0  0
  5  8  1  0  0  0  0
  6  9  1  6  0  0  0
  6 23  1  0  0  0  0
  7  2  2  0  0  0  0
  7 15  1  0  0  0  0
  9  1  1  0  0  0  0
 10 12  1  0  0  0  0
 11  4  1  1  0  0  0
 11 25  1  0  0  0  0
 14 17  1  6  0  0  0
 14 10  1  0  0  0  0
 14 11  1  0  0  0  0
 15  5  2  0  0  0  0
 16 12  1  6  0  0  0
 16  6  1  0  0  0  0
 18 24  1  0  0  0  0
 19  2  1  0  0  0  0
 20 26  1  0  0  0  0
 21  3  1  0  0  0  0
 21 20  2  0  0  0  0
 22  1  2  0  0  0  0
 23 15  1  1  0  0  0
 23 21  1  0  0  0  0
 24 13  1  0  0  0  0
 25 16  1  0  0  0  0
 25 18  1  1  0  0  0
 26 30  1  0  0  0  0
 27 28  1  0  0  0  0
 29 30  2  0  0  0  0
 30 27  1  0  0  0  0
M  END
>  <MODEL>
4

>  <REMARK>
 VINA RESULT:      -7.2      2.397      6.772
  Name = 
  1 active torsions:
  status: ('A' for Active; 'I' for Inactive)
    1  A    between atoms: N_2  and  C_24
                            x       y       z     vdW  Elec       q    Type
                         _______ _______ _______ _____ _____    ______ ____

>  <TORSDO>
F 1

$$$$
=
 OpenBabel11032419143D

 30 34  0  0  1  0  0  0  0  0999 V2000
  183.4030  176.5540  137.7630 C   0  0  0  0  0  0  0  0  0  0  0  0
  181.4390  177.1800  139.2190 C   0  0  0  0  0  0  0  0  0  0  0  0
  186.6470  179.2080  141.3890 C   0  0  2  0  0  3  0  0  0  0  0  0
  190.1230  175.9030  138.1940 C   0  0  0  0  0  1  0  0  0  0  0  0
  182.5390  178.7850  140.4720 N   0  0  0  0  0  0  0  0  0  0  0  0
  185.5670  177.5420  138.6400 C   0  0  1  0  0  3  0  0  0  0  0  0
  182.6980  177.2320  138.8420 C   0  0  0  0  0  0  0  0  0  0  0  0
  181.2230  178.1550  140.3320 C   0  0  0  0  0  2  0  0  0  0  0  0
  184.7930  176.8470  137.5960 N   0  0  0  0  0  2  0  0  0  0  0  0
  188.3630  178.7230  136.1820 C   0  0  0  0  0  2  0  0  0  0  0  0
  188.9460  176.6660  137.6100 C   0  0  2  0  0  3  0  0  0  0  0  0
  186.9520  178.3100  136.5900 C   0  0  0  0  0  2  0  0  0  0  0  0
  187.3850  177.8940  141.5850 C   0  0  0  0  0  2  0  0  0  0  0  0
  189.4030  177.6430  136.5140 C   0  0  1  0  0  3  0  0  0  0  0  0
  183.3570  178.2180  139.6460 C   0  0  0  0  0  0  0  0  0  0  0  0
  186.8930  178.0910  138.1090 C   0  0  2  0  0  3  0  0  0  0  0  0
  189.7180  176.9320  135.3560 O   0  0  0  0  0  1  0  0  0  0  0  0
  188.8940  178.3030  139.5620 C   0  0  0  0  0  2  0  0  0  0  0  0
  180.4650  176.3630  138.6600 O   0  0  0  0  0  1  0  0  0  0  0  0
  185.4420  179.1860  142.1010 C   0  0  0  0  0  0  0  0  0  0  0  0
  185.4700  178.9540  140.6760 C   0  0  0  0  0  0  0  0  0  0  0  0
  182.8120  175.7710  136.9720 O   0  0  0  0  0  0  0  0  0  0  0  0
  184.7750  178.6470  139.3860 C   0  0  1  0  0  3  0  0  0  0  0  0
  188.8140  177.9530  141.0480 C   0  0  0  0  0  2  0  0  0  0  0  0
  188.0890  177.3310  138.7000 C   0  0  2  0  0  3  0  0  0  0  0  0
  184.7160  179.2910  143.3230 N   0  0  0  0  0  2  0  0  0  0  0  0
  184.4160  178.8770  145.7330 N   0  0  0  0  0  2  0  0  0  0  0  0
  184.8470  178.3340  147.0090 C   0  0  0  0  0  1  0  0  0  0  0  0
  186.2980  178.1220  144.5810 O   0  0  0  0  0  0  0  0  0  0  0  0
  185.1970  178.7340  144.5470 C   0  0  0  0  0  0  0  0  0  0  0  0
  1  7  1  0  0  0  0
  2  8  1  0  0  0  0
  3 13  1  1  0  0  0
  3 20  1  0  0  0  0
  6  9  1  6  0  0  0
  6 23  1  0  0  0  0
  7  2  2  0  0  0  0
  7 15  1  0  0  0  0
  8  5  1  0  0  0  0
  9  1  1  0  0  0  0
 10 14  1  0  0  0  0
 10 12  1  0  0  0  0
 11  4  1  1  0  0  0
 11 25  1  0  0  0  0
 14 17  1  6  0  0  0
 14 11  1  0  0  0  0
 15  5  2  0  0  0  0
 16 12  1  6  0  0  0
 16  6  1  0  0  0  0
 16 25  1  0  0  0  0
 18 24  1  0  0  0  0
 19  2  1  0  0  0  0
 20 26  1  0  0  0  0
 21  3  1  0  0  0  0
 21 20  2  0  0  0  0
 22  1  2  0  0  0  0
 23 15  1  1  0  0  0
 23 21  1  0  0  0  0
 24 13  1  0  0  0  0
 25 18  1  6  0  0  0
 26 30  1  0  0  0  0
 27 28  1  0  0  0  0
 30 29  2  0  0  0  0
 30 27  1  0  0  0  0
M  END
>  <MODEL>
5

>  <REMARK>
 VINA RESULT:      -7.0      2.894      6.285
  Name = 
  1 active torsions:
  status: ('A' for Active; 'I' for Inactive)
    1  A    between atoms: N_2  and  C_24
                            x       y       z     vdW  Elec       q    Type
                         _______ _______ _______ _____ _____    ______ ____

>  <TORSDO>
F 1

$$$$
=
 OpenBabel11032419143D

 30 34  0  0  1  0  0  0  0  0999 V2000
  185.6690  177.8540  143.4220 C   0  0  0  0  0  0  0  0  0  0  0  0
  188.0660  178.1240  142.6780 C   0  0  0  0  0  0  0  0  0  0  0  0
  184.1980  178.3840  138.1050 C   0  0  2  0  0  3  0  0  0  0  0  0
  179.6480  176.1530  140.8490 C   0  0  0  0  0  1  0  0  0  0  0  0
  187.5970  178.9360  140.5620 N   0  0  0  0  0  0  0  0  0  0  0  0
  184.0570  178.1040  141.4810 C   0  0  1  0  0  3  0  0  0  0  0  0
  186.7620  178.1440  142.5040 C   0  0  2  0  0  3  0  0  0  0  0  0
  188.7310  178.6020  141.4280 C   0  0  0  0  0  3  0  0  0  0  0  0
  184.3350  177.9920  142.9240 N   0  0  0  0  0  2  0  0  0  0  0  0
  180.5540  179.7530  141.9960 C   0  0  0  0  0  2  0  0  0  0  0  0
  180.5210  177.2400  141.4520 C   0  0  2  0  0  3  0  0  0  0  0  0
  181.9990  179.4150  142.3510 C   0  0  0  0  0  2  0  0  0  0  0  0
  183.5580  177.0100  138.2170 C   0  0  0  0  0  2  0  0  0  0  0  0
  179.6980  178.4960  141.7860 C   0  0  1  0  0  3  0  0  0  0  0  0
  186.5030  178.6310  141.1820 C   0  0  0  0  0  0  0  0  0  0  0  0
  182.6450  178.6260  141.2030 C   0  0  2  0  0  3  0  0  0  0  0  0
  178.9310  178.2620  142.9270 O   0  0  0  0  0  1  0  0  0  0  0  0
  181.3870  177.9670  139.1680 C   0  0  0  0  0  2  0  0  0  0  0  0
  188.7150  177.7380  143.8430 O   0  0  0  0  0  1  0  0  0  0  0  0
  185.5840  178.2530  137.9690 C   0  0  0  0  0  0  0  0  0  0  0  0
  184.9900  178.5990  139.2380 C   0  0  0  0  0  0  0  0  0  0  0  0
  185.8770  177.5370  144.6230 O   0  0  0  0  0  0  0  0  0  0  0  0
  185.1100  178.9250  140.6940 C   0  0  1  0  0  3  0  0  0  0  0  0
  182.0360  177.0760  138.1100 C   0  0  0  0  0  2  0  0  0  0  0  0
  181.7580  177.5360  140.5860 C   0  0  2  0  0  3  0  0  0  0  0  0
  186.7360  177.9690  137.1780 N   0  0  0  0  0  2  0  0  0  0  0  0
  188.2810  176.4270  136.0350 N   0  0  0  0  0  2  0  0  0  0  0  0
  188.7190  175.0980  135.6460 C   0  0  0  0  0  1  0  0  0  0  0  0
  186.4240  175.6550  137.2190 O   0  0  0  0  0  0  0  0  0  0  0  0
  187.1140  176.6360  136.8290 C   0  0  0  0  0  0  0  0  0  0  0  0
  1 22  2  0  0  0  0
  2 19  1  0  0  0  0
  3 13  1  1  0  0  0
  3 21  1  0  0  0  0
  5 15  2  0  0  0  0
  5  8  1  0  0  0  0
  6  9  1  1  0  0  0
  7 15  1  1  0  0  0
  7  2  1  0  0  0  0
  7  1  1  0  0  0  0
  8  2  2  0  0  0  0
  9  1  1  0  0  0  0
 10 12  1  0  0  0  0
 11  4  1  6  0  0  0
 11 14  1  0  0  0  0
 14 10  1  0  0  0  0
 14 17  1  1  0  0  0
 16  6  1  0  0  0  0
 16 12  1  1  0  0  0
 20  3  1  0  0  0  0
 20 21  2  0  0  0  0
 23 21  1  6  0  0  0
 23 15  1  0  0  0  0
 23  6  1  0  0  0  0
 24 13  1  0  0  0  0
 24 18  1  0  0  0  0
 25 18  1  6  0  0  0
 25 16  1  0  0  0  0
 25 11  1  0  0  0  0
 26 20  1  0  0  0  0
 27 30  1  0  0  0  0
 28 27  1  0  0  0  0
 30 26  1  0  0  0  0
 30 29  2  0  0  0  0
M  END
>  <MODEL>
6

>  <REMARK>
 VINA RESULT:      -6.9      3.074      7.149
  Name = 
  1 active torsions:
  status: ('A' for Active; 'I' for Inactive)
    1  A    between atoms: N_2  and  C_24
                            x       y       z     vdW  Elec       q    Type
                         _______ _______ _______ _____ _____    ______ ____

>  <TORSDO>
F 1

$$$$
=
 OpenBabel11032419143D

 30 34  0  0  1  0  0  0  0  0999 V2000
  188.3660  177.8050  140.3040 C   0  0  0  0  0  0  0  0  0  0  0  0
  190.4910  177.7200  141.6630 C   0  0  0  0  0  0  0  0  0  0  0  0
  191.0770  175.0760  136.3140 C   0  0  2  0  0  3  0  0  0  0  0  0
  185.4640  174.6140  135.0920 C   0  0  0  0  0  1  0  0  0  0  0  0
  191.8960  177.1280  139.9210 N   0  0  0  0  0  0  0  0  0  0  0  0
  188.6910  176.7980  138.0000 C   0  0  1  0  0  3  0  0  0  0  0  0
  189.7780  177.5670  140.5680 C   0  0  0  0  0  0  0  0  0  0  0  0
  191.9230  177.4190  141.3580 C   0  0  0  0  0  2  0  0  0  0  0  0
  187.8920  177.5590  138.9770 N   0  0  0  0  0  2  0  0  0  0  0  0
  186.8100  178.2530  134.9010 C   0  0  0  0  0  2  0  0  0  0  0  0
  186.0890  175.8930  135.6220 C   0  0  2  0  0  3  0  0  0  0  0  0
  187.3630  178.2600  136.3240 C   0  0  0  0  0  2  0  0  0  0  0  0
  190.0200  173.9900  136.4350 C   0  0  0  0  0  2  0  0  0  0  0  0
  185.8720  177.0640  134.6490 C   0  0  1  0  0  3  0  0  0  0  0  0
  190.6690  177.1820  139.5150 C   0  0  0  0  0  0  0  0  0  0  0  0
  188.1870  176.9870  136.5670 C   0  0  2  0  0  3  0  0  0  0  0  0
  184.5480  177.4950  134.7230 O   0  0  0  0  0  1  0  0  0  0  0  0
  188.4190  175.2050  134.8560 C   0  0  0  0  0  2  0  0  0  0  0  0
  189.9930  178.1150  142.8970 O   0  0  0  0  0  1  0  0  0  0  0  0
  191.9960  174.9630  137.3630 C   0  0  0  0  0  0  0  0  0  0  0  0
  190.9420  175.9500  137.3990 C   0  0  0  0  0  0  0  0  0  0  0  0
  187.5910  178.2550  141.1900 O   0  0  0  0  0  0  0  0  0  0  0  0
  190.2170  177.0650  138.0840 C   0  0  1  0  0  3  0  0  0  0  0  0
  189.1440  173.9010  135.1880 C   0  0  0  0  0  2  0  0  0  0  0  0
  187.5610  175.6960  136.0210 C   0  0  2  0  0  3  0  0  0  0  0  0
  193.1240  174.3350  137.9690 N   0  0  0  0  0  2  0  0  0  0  0  0
  195.5410  174.1010  138.3790 N   0  0  0  0  0  2  0  0  0  0  0  0
  196.9240  174.5040  138.1890 C   0  0  0  0  0  1  0  0  0  0  0  0
  194.6860  175.7620  136.9810 O   0  0  0  0  0  0  0  0  0  0  0  0
  194.4610  174.7800  137.7400 C   0  0  0  0  0  0  0  0  0  0  0  0
  1  7  1  0  0  0  0
  1 22  2  0  0  0  0
  2 19  1  0  0  0  0
  3 13  1  1  0  0  0
  3 20  1  0  0  0  0
  3 21  1  0  0  0  0
  5  8  1  0  0  0  0
  6 23  1  0  0  0  0
  6  9  1  1  0  0  0
  7  2  2  0  0  0  0
  8  2  1  0  0  0  0
  9  1  1  0  0  0  0
 10 12  1  0  0  0  0
 11  4  1  6  0  0  0
 11 25  1  0  0  0  0
 14 17  1  1  0  0  0
 14 10  1  0  0  0  0
 14 11  1  0  0  0  0
 15  5  2  0  0  0  0
 15  7  1  0  0  0  0
 16 12  1  1  0  0  0
 16  6  1  0  0  0  0
 18 24  1  0  0  0  0
 20 21  2  0  0  0  0
 20 26  1  0  0  0  0
 23 21  1  1  0  0  0
 23 15  1  0  0  0  0
 24 13  1  0  0  0  0
 25 18  1  6  0  0  0
 25 16  1  0  0  0  0
 28 27  1  0  0  0  0
 29 30  2  0  0  0  0
 30 26  1  0  0  0  0
 30 27  1  0  0  0  0
M  END
>  <MODEL>
7

>  <REMARK>
 VINA RESULT:      -6.8      3.496      8.936
  Name = 
  1 active torsions:
  status: ('A' for Active; 'I' for Inactive)
    1  A    between atoms: N_2  and  C_24
                            x       y       z     vdW  Elec       q    Type
                         _______ _______ _______ _____ _____    ______ ____

>  <TORSDO>
F 1

$$$$
=
 OpenBabel11032419143D

 30 34  0  0  1  0  0  0  0  0999 V2000
  186.5220  177.7350  143.4220 C   0  0  0  0  0  0  0  0  0  0  0  0
  188.8700  177.6920  144.3500 C   0  0  0  0  0  0  0  0  0  0  0  0
  188.7690  177.9670  138.3620 C   0  0  2  0  0  3  0  0  0  0  0  0
  183.2540  176.4590  137.6390 C   0  0  0  0  0  1  0  0  0  0  0  0
  189.9340  178.3670  142.4080 N   0  0  0  0  0  0  0  0  0  0  0  0
  186.5210  177.9870  140.9000 C   0  0  1  0  0  3  0  0  0  0  0  0
  187.9750  177.8330  143.3950 C   0  0  0  0  0  0  0  0  0  0  0  0
  190.2250  177.9920  143.7950 C   0  0  0  0  0  2  0  0  0  0  0  0
  185.8220  177.9690  142.1980 N   0  0  0  0  0  2  0  0  0  0  0  0
  183.7200  180.0280  139.0990 C   0  0  0  0  0  2  0  0  0  0  0  0
  183.6970  177.4960  138.6560 C   0  0  2  0  0  3  0  0  0  0  0  0
  184.5670  179.5730  140.2830 C   0  0  0  0  0  2  0  0  0  0  0  0
  188.0230  176.6800  138.0470 C   0  0  0  0  0  2  0  0  0  0  0  0
  183.0230  178.8530  138.3980 C   0  0  1  0  0  3  0  0  0  0  0  0
  188.6640  178.2300  142.2040 C   0  0  0  0  0  0  0  0  0  0  0  0
  185.6750  178.6280  139.7960 C   0  0  2  0  0  3  0  0  0  0  0  0
  181.6890  178.7970  138.8040 O   0  0  0  0  0  1  0  0  0  0  0  0
  185.8840  177.9340  137.4230 C   0  0  0  0  0  2  0  0  0  0  0  0
  188.5940  177.3400  145.6640 O   0  0  0  0  0  1  0  0  0  0  0  0
  189.9060  177.6810  139.1270 C   0  0  0  0  0  0  0  0  0  0  0  0
  188.7030  178.1930  139.7410 C   0  0  0  0  0  0  0  0  0  0  0  0
  185.8920  177.5010  144.4880 O   0  0  0  0  0  0  0  0  0  0  0  0
  187.9330  178.6260  140.9490 C   0  0  1  0  0  3  0  0  0  0  0  0
  186.9240  176.8950  137.0070 C   0  0  0  0  0  2  0  0  0  0  0  0
  185.2300  177.5880  138.7590 C   0  0  2  0  0  3  0  0  0  0  0  0
  191.2480  177.2140  139.2350 N   0  0  0  0  0  2  0  0  0  0  0  0
  193.2640  176.1180  138.3380 N   0  0  0  0  0  2  0  0  0  0  0  0
  194.0020  175.4470  137.2820 C   0  0  0  0  0  1  0  0  0  0  0  0
  191.3310  176.3760  137.0570 O   0  0  0  0  0  0  0  0  0  0  0  0
  191.9190  176.5610  138.1570 C   0  0  0  0  0  0  0  0  0  0  0  0
  1 22  2  0  0  0  0
  2 19  1  0  0  0  0
  3 13  1  1  0  0  0
  3 20  1  0  0  0  0
  3 21  1  0  0  0  0
  5  8  1  0  0  0  0
  6 23  1  0  0  0  0
  6  9  1  1  0  0  0
  7  1  1  0  0  0  0
  7  2  2  0  0  0  0
  8  2  1  0  0  0  0
  9  1  1  0  0  0  0
 10 12  1  0  0  0  0
 11  4  1  6  0  0  0
 11 25  1  0  0  0  0
 14 11  1  0  0  0  0
 14 17  1  1  0  0  0
 14 10  1  0  0  0  0
 15  5  2  0  0  0  0
 15  7  1  0  0  0  0
 16 12  1  1  0  0  0
 16  6  1  0  0  0  0
 20 26  1  0  0  0  0
 20 21  2  0  0  0  0
 23 21  1  6  0  0  0
 23 15  1  0  0  0  0
 24 18  1  0  0  0  0
 24 13  1  0  0  0  0
 25 18  1  6  0  0  0
 25 16  1  0  0  0  0
 28 27  1  0  0  0  0
 29 30  2  0  0  0  0
 30 27  1  0  0  0  0
 30 26  1  0  0  0  0
M  END
>  <MODEL>
8

>  <REMARK>
 VINA RESULT:      -6.6      2.378      7.569
  Name = 
  1 active torsions:
  status: ('A' for Active; 'I' for Inactive)
    1  A    between atoms: N_2  and  C_24
                            x       y       z     vdW  Elec       q    Type
                         _______ _______ _______ _____ _____    ______ ____

>  <TORSDO>
F 1

$$$$
=
 OpenBabel11032419143D

 30 34  0  0  1  0  0  0  0  0999 V2000
  185.6970  178.1820  142.4110 C   0  0  0  0  0  0  0  0  0  0  0  0
  188.0350  178.3300  141.4710 C   0  0  0  0  0  0  0  0  0  0  0  0
  183.9010  177.4540  137.2180 C   0  0  2  0  0  3  0  0  0  0  0  0
  179.6040  175.8040  140.6850 C   0  0  0  0  0  1  0  0  0  0  0  0
  187.4140  178.6280  139.2610 N   0  0  0  0  0  0  0  0  0  0  0  0
  183.9670  177.9470  140.5730 C   0  0  1  0  0  3  0  0  0  0  0  0
  186.7230  178.2810  141.3820 C   0  0  2  0  0  3  0  0  0  0  0  0
  188.6090  178.5260  140.1050 C   0  0  0  0  0  3  0  0  0  0  0  0
  184.3330  178.1730  141.9820 N   0  0  0  0  0  2  0  0  0  0  0  0
  180.4410  179.5900  140.9280 C   0  0  0  0  0  2  0  0  0  0  0  0
  180.4700  177.0200  140.9690 C   0  0  2  0  0  3  0  0  0  0  0  0
  181.9160  179.3750  141.2560 C   0  0  0  0  0  2  0  0  0  0  0  0
  183.3200  176.1270  137.6790 C   0  0  0  0  0  2  0  0  0  0  0  0
  179.6220  178.2990  141.0630 C   0  0  1  0  0  3  0  0  0  0  0  0
  186.3710  178.4470  140.0040 C   0  0  0  0  0  0  0  0  0  0  0  0
  182.5230  178.3600  140.2760 C   0  0  2  0  0  3  0  0  0  0  0  0
  178.9310  178.3140  142.2750 O   0  0  0  0  0  1  0  0  0  0  0  0
  181.1740  177.2260  138.5290 C   0  0  0  0  0  2  0  0  0  0  0  0
  188.7650  178.2340  142.6480 O   0  0  0  0  0  1  0  0  0  0  0  0
  185.2810  177.3260  137.0260 C   0  0  0  0  0  0  0  0  0  0  0  0
  184.7490  177.9390  138.2200 C   0  0  0  0  0  0  0  0  0  0  0  0
  185.9860  178.1520  143.6370 O   0  0  0  0  0  0  0  0  0  0  0  0
  184.9420  178.5910  139.5540 C   0  0  1  0  0  3  0  0  0  0  0  0
  181.7930  176.1320  137.6590 C   0  0  0  0  0  2  0  0  0  0  0  0
  181.6420  177.1380  139.9800 C   0  0  2  0  0  3  0  0  0  0  0  0
  186.3950  176.8960  136.2470 N   0  0  0  0  0  2  0  0  0  0  0  0
  188.0860  175.2340  135.5760 N   0  0  0  0  0  2  0  0  0  0  0  0
  188.7170  173.9290  135.6720 C   0  0  0  0  0  1  0  0  0  0  0  0
  186.5000  174.7780  137.2250 O   0  0  0  0  0  0  0  0  0  0  0  0
  186.9710  175.5960  136.3890 C   0  0  0  0  0  0  0  0  0  0  0  0
  1 22  2  0  0  0  0
  2 19  1  0  0  0  0
  3 13  1  1  0  0  0
  3 21  1  0  0  0  0
  5 15  2  0  0  0  0
  5  8  1  0  0  0  0
  6  9  1  1  0  0  0
  7 15  1  1  0  0  0
  7  2  1  0  0  0  0
  7  1  1  0  0  0  0
  8  2  2  0  0  0  0
  9  1  1  0  0  0  0
 10 14  1  0  0  0  0
 10 12  1  0  0  0  0
 11  4  1  6  0  0  0
 11 14  1  0  0  0  0
 14 17  1  1  0  0  0
 16  6  1  0  0  0  0
 16 12  1  1  0  0  0
 20  3  1  0  0  0  0
 20 21  2  0  0  0  0
 23 21  1  6  0  0  0
 23 15  1  0  0  0  0
 23  6  1  0  0  0  0
 24 13  1  0  0  0  0
 24 18  1  0  0  0  0
 25 18  1  6  0  0  0
 25 16  1  0  0  0  0
 25 11  1  0  0  0  0
 26 30  1  0  0  0  0
 26 20  1  0  0  0  0
 27 28  1  0  0  0  0
 27 30  1  0  0  0  0
 30 29  2  0  0  0  0
M  END
>  <MODEL>
9

>  <REMARK>
 VINA RESULT:      -6.6      3.199      7.335
  Name = 
  1 active torsions:
  status: ('A' for Active; 'I' for Inactive)
    1  A    between atoms: N_2  and  C_24
                            x       y       z     vdW  Elec       q    Type
                         _______ _______ _______ _____ _____    ______ ____

>  <TORSDO>
F 1

$$$$
