=
 OpenBabel11042411073D

 68 74  0  0  1  0  0  0  0  0999 V2000
  191.0630  175.7710  136.8170 C   0  0  1  0  0  3  0  0  0  0  0  0
  189.5550  171.9290  135.5390 C   0  0  0  0  0  2  0  0  0  0  0  0
  190.9690  172.2650  135.0880 C   0  0  0  0  0  2  0  0  0  0  0  0
  188.6140  173.1360  135.3590 C   0  0  2  0  0  3  0  0  0  0  0  0
  191.5790  173.3600  135.9770 C   0  0  0  0  0  2  0  0  0  0  0  0
  189.3460  174.4780  135.4710 C   0  0  0  0  0  2  0  0  0  0  0  0
  190.5200  174.3800  136.4420 C   0  0  2  0  0  3  0  0  0  0  0  0
  187.5010  173.0770  136.3960 C   0  0  0  0  0  2  0  0  0  0  0  0
  186.8100  174.4150  136.5680 C   0  0  0  0  0  2  0  0  0  0  0  0
  184.3410  174.1110  136.7480 C   0  0  1  0  0  0  0  0  0  0  0  0
  185.4710  174.4370  135.8420 C   0  0  1  0  0  3  0  0  0  0  0  0
  184.6030  173.8090  138.0950 O   0  0  0  0  0  1  0  0  0  0  0  0
  184.6410  175.4380  136.4060 O   0  0  0  0  0  0  0  0  0  0  0  0
  183.1550  173.6180  136.1630 O   0  0  0  0  0  0  0  0  0  0  0  0
  182.1700  173.5330  137.1730 C   0  0  2  0  0  3  0  0  0  0  0  0
  180.1500  172.2800  137.5580 O   0  0  0  0  0  1  0  0  0  0  0  0
  181.0150  172.6820  136.7270 C   0  0  0  0  0  0  0  0  0  0  0  0
  180.9100  172.3190  135.3920 O   0  0  0  0  0  0  0  0  0  0  0  0
  181.6150  174.9790  139.0730 O   0  0  0  0  0  1  0  0  0  0  0  0
  181.7550  174.9400  137.6810 C   0  0  2  0  0  3  0  0  0  0  0  0
  180.8740  179.1830  139.9800 N   0  0  0  0  0  0  0  0  0  0  0  0
  181.2840  180.1940  139.0190 C   0  0  0  0  0  2  0  0  0  0  0  0
  180.0760  177.7960  138.1480 C   0  0  1  0  0  0  0  0  0  0  0  0
  182.4810  178.1950  135.3840 O   0  0  0  0  0  0  0  0  0  0  0  0
  180.9880  176.3680  135.7430 C   0  0  0  0  0  2  0  0  0  0  0  0
  179.6640  176.3950  137.9120 C   0  0  2  0  0  0  0  0  0  0  0  0
  180.4720  179.8770  141.1920 C   0  0  0  0  0  1  0  0  0  0  0  0
  181.6080  177.6770  136.1350 C   0  0  0  0  0  0  0  0  0  0  0  0
  180.5380  175.5520  136.9640 C   0  0  2  0  0  3  0  0  0  0  0  0
  181.1540  178.3720  137.3200 N   0  0  0  0  0  0  0  0  0  0  0  0
  178.9530  177.4800  137.3540 O   0  0  0  0  0  0  0  0  0  0  0  0
  179.6920  178.5340  139.4290 C   0  0  0  0  0  2  0  0  0  0  0  0
  178.9380  175.7640  138.9240 O   0  0  0  0  0  1  0  0  0  0  0  0
  181.9230  179.5280  137.7910 C   0  0  0  0  0  2  0  0  0  0  0  0
  190.3600  176.7900  136.1430 O   0  0  0  0  0  0  0  0  0  0  0  0
  190.9540  176.8830  134.8760 C   0  0  0  0  0  1  0  0  0  0  0  0
  191.1830  176.0680  138.3260 C   0  0  1  0  0  3  0  0  0  0  0  0
  192.6180  176.4520  138.6480 C   0  0  0  0  0  2  0  0  0  0  0  0
  193.5710  175.6040  137.8210 C   0  0  0  0  0  2  0  0  0  0  0  0
  194.8350  175.4500  138.5320 N   0  0  0  0  0  2  0  0  0  0  0  0
  195.6390  174.0050  137.9380 P   0  0  1  0  0  0  0  0  0  0  0  0
  197.9590  173.1800  137.5420 C   0  0  0  0  0  2  0  0  0  0  0  0
  198.0100  172.7370  136.0750 C   0  0  0  0  0  2  0  0  0  0  0  0
  195.7560  172.5090  135.9330 C   0  0  0  0  0  2  0  0  0  0  0  0
  194.9180  173.4950  136.4680 O   0  0  0  0  0  0  0  0  0  0  0  0
  196.8700  173.1180  135.3340 O   0  0  0  0  0  0  0  0  0  0  0  0
  197.2810  174.3940  137.6800 O   0  0  0  0  0  0  0  0  0  0  0  0
  195.5160  172.9160  138.9850 O   0  0  0  0  0  0  0  0  0  0  0  0
  190.2410  177.1850  138.7680 C   0  0  0  0  0  2  0  0  0  0  0  0
  189.3930  176.6960  139.8450 N   0  0  0  0  0  2  0  0  0  0  0  0
  189.8200  176.6440  141.1990 C   0  0  0  0  0  0  0  0  0  0  0  0
  189.0550  176.1160  142.0520 O   0  0  0  0  0  0  0  0  0  0  0  0
  191.1430  177.1730  141.5940 C   0  0  0  0  0  3  0  0  0  0  0  0
  191.3870  178.0890  142.5400 C   0  0  0  0  0  3  0  0  0  0  0  0
  190.3350  178.7310  143.3820 C   0  0  0  0  0  2  0  0  0  0  0  0
  190.5120  178.3160  144.8350 C   0  0  0  0  0  2  0  0  0  0  0  0
  189.7000  177.2020  145.0810 O   0  0  0  0  0  0  0  0  0  0  0  0
  189.9160  177.9170  147.2830 O   0  0  0  0  0  1  0  0  0  0  0  0
  189.0490  177.3840  146.3230 C   0  0  1  0  0  3  0  0  0  0  0  0
  187.8960  178.1740  146.1970 O   0  0  0  0  0  0  0  0  0  0  0  0
  187.3290  177.5130  148.3120 O   0  0  0  0  0  1  0  0  0  0  0  0
  186.9220  177.5440  146.9750 C   0  0  1  0  0  3  0  0  0  0  0  0
  185.6190  178.3270  146.8710 C   0  0  1  0  0  3  0  0  0  0  0  0
  185.8700  179.6160  146.3590 O   0  0  0  0  0  0  0  0  0  0  0  0
  185.3400  178.6640  145.4630 C   0  0  2  0  0  3  0  0  0  0  0  0
  183.8580  178.9180  145.2870 C   0  0  0  0  0  2  0  0  0  0  0  0
  183.6300  179.6160  143.9630 C   0  0  0  0  0  2  0  0  0  0  0  0
  183.3100  178.6300  142.9410 N   0  0  0  0  0  1  0  0  0  0  0  0
  1 35  1  1  0  0  0
  1 37  1  0  0  0  0
  3  2  1  0  0  0  0
  3  5  1  0  0  0  0
  4  6  1  0  0  0  0
  4  2  1  0  0  0  0
  4  8  1  1  0  0  0
  5  7  1  0  0  0  0
  6  7  1  0  0  0  0
  7  1  1  6  0  0  0
  8  9  1  0  0  0  0
 10 12  1  1  0  0  0
 11 13  1  0  0  0  0
 11  9  1  1  0  0  0
 11 10  1  0  0  0  0
 13 10  1  0  0  0  0
 14 10  1  0  0  0  0
 15 14  1  6  0  0  0
 15 20  1  0  0  0  0
 17 15  1  0  0  0  0
 17 16  1  0  0  0  0
 18 17  2  0  0  0  0
 20 19  1  1  0  0  0
 21 27  1  0  0  0  0
 22 21  1  0  0  0  0
 23 32  1  1  0  0  0
 24 28  2  0  0  0  0
 25 28  1  0  0  0  0
 25 29  1  0  0  0  0
 26 23  1  0  0  0  0
 26 33  1  1  0  0  0
 28 30  1  0  0  0  0
 29 20  1  1  0  0  0
 29 26  1  0  0  0  0
 30 34  1  0  0  0  0
 30 23  1  0  0  0  0
 31 26  1  0  0  0  0
 31 23  1  0  0  0  0
 32 21  1  0  0  0  0
 34 22  1  0  0  0  0
 36 35  1  0  0  0  0
 37 38  1  6  0  0  0
 37 49  1  0  0  0  0
 39 40  1  0  0  0  0
 39 38  1  0  0  0  0
 41 40  1  0  0  0  0
 41 48  2  1  0  0  0
 42 47  1  0  0  0  0
 43 42  1  0  0  0  0
 44 45  1  0  0  0  0
 45 41  1  0  0  0  0
 46 44  1  0  0  0  0
 46 43  1  0  0  0  0
 47 41  1  0  0  0  0
 49 50  1  0  0  0  0
 50 51  1  0  0  0  0
 51 53  1  0  0  0  0
 51 52  2  0  0  0  0
 53 54  2  0  0  0  0
 54 55  1  0  0  0  0
 55 56  1  0  0  0  0
 56 57  1  0  0  0  0
 57 59  1  0  0  0  0
 59 58  1  1  0  0  0
 60 59  1  0  0  0  0
 60 62  1  0  0  0  0
 62 61  1  1  0  0  0
 63 62  1  6  0  0  0
 64 63  1  0  0  0  0
 65 66  1  1  0  0  0
 65 64  1  0  0  0  0
 65 63  1  0  0  0  0
 67 66  1  0  0  0  0
 68 67  1  0  0  0  0
M  END
>  <MODEL>
1

>  <REMARK>
 VINA RESULT:      -5.5      0.000      0.000
  Name = 
  27 active torsions:
  status: ('A' for Active; 'I' for Inactive)
    1  A    between atoms: C_1  and  C_48
    2  A    between atoms: P_2  and  N_22
    3  A    between atoms: O_3  and  C_5
    4  A    between atoms: O_3  and  C_62
    5  A    between atoms: C_4  and  C_9
    6  A    between atoms: C_4  and  N_31
    7  A    between atoms: O_8  and  C_66
    8  A    between atoms: C_9  and  C_33
    9  A    between atoms: C_9  and  C_66
   10  A    between atoms: C_10  and  C_49
   11  A    between atoms: C_12  and  C_42
   12  A    between atoms: C_13  and  C_34
   13  A    between atoms: C_17  and  C_34
   14  A    between atoms: N_22  and  C_51
   15  A    between atoms: C_24  and  C_39
   16  A    between atoms: C_28  and  C_44
   17  A    between atoms: C_28  and  C_62
   18  A    between atoms: C_29  and  O_52
   19  A    between atoms: C_29  and  O_56
   20  A    between atoms: C_32  and  C_67
   21  A    between atoms: C_33  and  C_51
   22  A    between atoms: C_37  and  C_62
   23  A    between atoms: C_39  and  C_53
   24  A    between atoms: C_47  and  C_66
   25  A    between atoms: C_48  and  O_52
   26  A    between atoms: C_49  and  C_67
   27  A    between atoms: C_53  and  O_56
                            x       y       z     vdW  Elec       q    Type
                         _______ _______ _______ _____ _____    ______ ____

>  <TORSDO>
F 27

$$$$
=
 OpenBabel11042411073D

 68 74  0  0  1  0  0  0  0  0999 V2000
  190.1380  178.4850  143.0000 C   0  0  1  0  0  3  0  0  0  0  0  0
  187.5850  177.3790  146.3050 C   0  0  0  0  0  2  0  0  0  0  0  0
  188.8380  176.5320  146.1280 C   0  0  0  0  0  2  0  0  0  0  0  0
  186.8920  177.6360  144.9530 C   0  0  2  0  0  3  0  0  0  0  0  0
  189.8900  177.2830  145.2970 C   0  0  0  0  0  2  0  0  0  0  0  0
  187.8760  177.6400  143.7780 C   0  0  0  0  0  2  0  0  0  0  0  0
  189.2430  178.1650  144.2110 C   0  0  2  0  0  3  0  0  0  0  0  0
  186.1520  178.9650  145.0010 C   0  0  0  0  0  2  0  0  0  0  0  0
  184.6510  178.7870  144.8930 C   0  0  0  0  0  2  0  0  0  0  0  0
  182.7250  178.7540  143.3080 C   0  0  1  0  0  0  0  0  0  0  0  0
  184.1670  179.0670  143.4760 C   0  0  1  0  0  3  0  0  0  0  0  0
  182.0000  178.2390  144.3970 O   0  0  0  0  0  1  0  0  0  0  0  0
  183.1660  180.0700  143.5050 O   0  0  0  0  0  0  0  0  0  0  0  0
  182.2610  178.4890  142.0020 O   0  0  0  0  0  0  0  0  0  0  0  0
  180.9960  179.1030  141.8540 C   0  0  2  0  0  3  0  0  0  0  0  0
  179.6860  177.0870  141.9940 O   0  0  0  0  0  0  0  0  0  0  0  0
  179.9110  178.2480  142.4440 C   0  0  0  0  0  0  0  0  0  0  0  0
  179.1380  178.7460  143.4830 O   0  0  0  0  0  1  0  0  0  0  0  0
  179.6740  178.8110  139.8100 O   0  0  0  0  0  1  0  0  0  0  0  0
  180.7370  179.5200  140.3810 C   0  0  2  0  0  3  0  0  0  0  0  0
  179.3720  177.2000  136.2800 N   0  0  0  0  0  0  0  0  0  0  0  0
  179.3090  178.2570  135.2840 C   0  0  0  0  0  2  0  0  0  0  0  0
  181.2760  178.3120  137.3070 C   0  0  1  0  0  0  0  0  0  0  0  0
  180.6140  181.9340  137.1320 O   0  0  0  0  0  0  0  0  0  0  0  0
  182.0630  180.8060  138.6570 C   0  0  0  0  0  2  0  0  0  0  0  0
  182.0410  178.2670  138.5720 C   0  0  2  0  0  0  0  0  0  0  0  0
  178.9340  175.9730  135.6360 C   0  0  0  0  0  1  0  0  0  0  0  0
  181.0640  180.8260  137.5360 C   0  0  0  0  0  0  0  0  0  0  0  0
  181.9840  179.5110  139.4780 C   0  0  2  0  0  3  0  0  0  0  0  0
  180.6830  179.5960  136.8790 N   0  0  0  0  0  0  0  0  0  0  0  0
  182.6850  178.3960  137.3230 O   0  0  0  0  0  0  0  0  0  0  0  0
  180.7770  177.0370  136.6310 C   0  0  0  0  0  2  0  0  0  0  0  0
  182.2590  177.0100  139.1400 O   0  0  0  0  0  1  0  0  0  0  0  0
  179.5530  179.6220  135.9450 C   0  0  0  0  0  2  0  0  0  0  0  0
  191.3400  179.1010  143.4050 O   0  0  0  0  0  0  0  0  0  0  0  0
  190.9540  180.2530  144.1060 C   0  0  0  0  0  1  0  0  0  0  0  0
  190.3990  177.3190  142.0240 C   0  0  1  0  0  3  0  0  0  0  0  0
  189.0700  176.7200  141.5930 C   0  0  0  0  0  2  0  0  0  0  0  0
  188.5400  177.4710  140.3820 C   0  0  0  0  0  2  0  0  0  0  0  0
  189.1780  176.9650  139.1720 N   0  0  0  0  0  2  0  0  0  0  0  0
  188.3420  177.6310  137.7780 P   0  0  1  0  0  0  0  0  0  0  0  0
  186.0080  177.8770  136.9320 C   0  0  0  0  0  2  0  0  0  0  0  0
  185.9950  177.2570  135.5300 C   0  0  0  0  0  2  0  0  0  0  0  0
  188.2430  177.4560  135.2820 C   0  0  0  0  0  2  0  0  0  0  0  0
  189.0970  177.1010  136.3320 O   0  0  0  0  0  0  0  0  0  0  0  0
  187.1750  176.5470  135.2190 O   0  0  0  0  0  0  0  0  0  0  0  0
  186.7260  177.0820  137.8300 O   0  0  0  0  0  0  0  0  0  0  0  0
  188.3850  179.1450  137.8650 O   0  0  0  0  0  0  0  0  0  0  0  0
  191.1840  177.7660  140.7930 C   0  0  0  0  0  2  0  0  0  0  0  0
  192.5510  177.2780  140.8950 N   0  0  0  0  0  2  0  0  0  0  0  0
  193.3270  176.9150  139.7610 C   0  0  0  0  0  0  0  0  0  0  0  0
  194.4670  176.4110  139.9470 O   0  0  0  0  0  0  0  0  0  0  0  0
  192.7960  177.1010  138.3930 C   0  0  0  0  0  3  0  0  0  0  0  0
  192.3030  176.1480  137.5910 C   0  0  0  0  0  3  0  0  0  0  0  0
  192.1950  174.7080  137.9640 C   0  0  0  0  0  2  0  0  0  0  0  0
  192.0370  173.8600  136.7100 C   0  0  0  0  0  2  0  0  0  0  0  0
  192.9920  172.8370  136.7410 O   0  0  0  0  0  0  0  0  0  0  0  0
  193.5930  171.8170  134.7400 O   0  0  0  0  0  1  0  0  0  0  0  0
  193.7860  172.9240  135.5730 C   0  0  1  0  0  3  0  0  0  0  0  0
  193.5580  174.1210  134.8760 O   0  0  0  0  0  0  0  0  0  0  0  0
  194.7890  176.0340  134.6410 O   0  0  0  0  0  1  0  0  0  0  0  0
  194.8240  174.6370  134.5940 C   0  0  1  0  0  3  0  0  0  0  0  0
  195.8120  174.1310  135.6370 C   0  0  1  0  0  3  0  0  0  0  0  0
  196.8200  175.0920  135.8530 O   0  0  0  0  0  0  0  0  0  0  0  0
  195.7970  175.0100  136.8200 C   0  0  2  0  0  3  0  0  0  0  0  0
  196.3100  174.2490  138.0240 C   0  0  0  0  0  2  0  0  0  0  0  0
  197.8140  174.4050  138.1040 C   0  0  0  0  0  2  0  0  0  0  0  0
  198.1440  175.4750  139.0340 N   0  0  0  0  0  1  0  0  0  0  0  0
  1 35  1  1  0  0  0
  3  2  1  0  0  0  0
  4  8  1  1  0  0  0
  4  2  1  0  0  0  0
  5  3  1  0  0  0  0
  6  7  1  0  0  0  0
  6  4  1  0  0  0  0
  7  1  1  6  0  0  0
  7  5  1  0  0  0  0
  9  8  1  0  0  0  0
 10 11  1  0  0  0  0
 10 13  1  0  0  0  0
 10 12  1  1  0  0  0
 11 13  1  0  0  0  0
 11  9  1  1  0  0  0
 14 10  1  0  0  0  0
 15 14  1  6  0  0  0
 15 17  1  0  0  0  0
 16 17  2  0  0  0  0
 17 18  1  0  0  0  0
 20 19  1  6  0  0  0
 20 15  1  0  0  0  0
 21 32  1  0  0  0  0
 22 34  1  0  0  0  0
 22 21  1  0  0  0  0
 23 32  1  6  0  0  0
 23 31  1  0  0  0  0
 23 26  1  0  0  0  0
 24 28  2  0  0  0  0
 25 29  1  0  0  0  0
 26 33  1  1  0  0  0
 26 29  1  0  0  0  0
 27 21  1  0  0  0  0
 28 25  1  0  0  0  0
 29 20  1  6  0  0  0
 30 23  1  0  0  0  0
 30 28  1  0  0  0  0
 31 26  1  0  0  0  0
 34 30  1  0  0  0  0
 35 36  1  0  0  0  0
 37 49  1  6  0  0  0
 37  1  1  0  0  0  0
 38 37  1  0  0  0  0
 39 38  1  0  0  0  0
 40 39  1  0  0  0  0
 41 47  1  0  0  0  0
 41 48  2  1  0  0  0
 41 40  1  0  0  0  0
 42 47  1  0  0  0  0
 43 42  1  0  0  0  0
 44 45  1  0  0  0  0
 45 41  1  0  0  0  0
 46 44  1  0  0  0  0
 46 43  1  0  0  0  0
 49 50  1  0  0  0  0
 51 52  2  0  0  0  0
 51 50  1  0  0  0  0
 53 51  1  0  0  0  0
 54 55  1  0  0  0  0
 54 53  2  0  0  0  0
 56 57  1  0  0  0  0
 56 55  1  0  0  0  0
 59 58  1  6  0  0  0
 59 57  1  0  0  0  0
 60 59  1  0  0  0  0
 62 61  1  1  0  0  0
 62 60  1  0  0  0  0
 63 62  1  6  0  0  0
 63 64  1  0  0  0  0
 63 65  1  0  0  0  0
 64 65  1  0  0  0  0
 65 66  1  1  0  0  0
 66 67  1  0  0  0  0
 67 68  1  0  0  0  0
M  END
>  <MODEL>
2

>  <REMARK>
 VINA RESULT:      -5.2      3.019      9.171
  Name = 
  27 active torsions:
  status: ('A' for Active; 'I' for Inactive)
    1  A    between atoms: C_1  and  C_48
    2  A    between atoms: P_2  and  N_22
    3  A    between atoms: O_3  and  C_5
    4  A    between atoms: O_3  and  C_62
    5  A    between atoms: C_4  and  C_9
    6  A    between atoms: C_4  and  N_31
    7  A    between atoms: O_8  and  C_66
    8  A    between atoms: C_9  and  C_33
    9  A    between atoms: C_9  and  C_66
   10  A    between atoms: C_10  and  C_49
   11  A    between atoms: C_12  and  C_42
   12  A    between atoms: C_13  and  C_34
   13  A    between atoms: C_17  and  C_34
   14  A    between atoms: N_22  and  C_51
   15  A    between atoms: C_24  and  C_39
   16  A    between atoms: C_28  and  C_44
   17  A    between atoms: C_28  and  C_62
   18  A    between atoms: C_29  and  O_52
   19  A    between atoms: C_29  and  O_56
   20  A    between atoms: C_32  and  C_67
   21  A    between atoms: C_33  and  C_51
   22  A    between atoms: C_37  and  C_62
   23  A    between atoms: C_39  and  C_53
   24  A    between atoms: C_47  and  C_66
   25  A    between atoms: C_48  and  O_52
   26  A    between atoms: C_49  and  C_67
   27  A    between atoms: C_53  and  O_56
                            x       y       z     vdW  Elec       q    Type
                         _______ _______ _______ _____ _____    ______ ____

>  <TORSDO>
F 27

$$$$
=
 OpenBabel11042411073D

 68 74  0  0  1  0  0  0  0  0999 V2000
  190.0060  178.4210  143.6270 C   0  0  1  0  0  3  0  0  0  0  0  0
  186.7530  177.7170  146.3820 C   0  0  0  0  0  2  0  0  0  0  0  0
  187.9700  176.8180  146.5540 C   0  0  0  0  0  2  0  0  0  0  0  0
  186.3790  177.8660  144.8950 C   0  0  2  0  0  3  0  0  0  0  0  0
  189.2120  177.4530  145.9100 C   0  0  0  0  0  2  0  0  0  0  0  0
  187.5900  177.7280  143.9650 C   0  0  0  0  0  2  0  0  0  0  0  0
  188.8580  178.2480  144.6380 C   0  0  2  0  0  3  0  0  0  0  0  0
  185.7160  179.2160  144.6670 C   0  0  0  0  0  2  0  0  0  0  0  0
  184.2100  179.1470  144.8240 C   0  0  0  0  0  2  0  0  0  0  0  0
  182.3390  179.0340  143.1770 C   0  0  1  0  0  0  0  0  0  0  0  0
  183.5740  178.3750  143.6740 C   0  0  1  0  0  3  0  0  0  0  0  0
  181.8930  180.2160  143.7940 O   0  0  0  0  0  1  0  0  0  0  0  0
  183.5630  179.1820  142.5080 O   0  0  0  0  0  0  0  0  0  0  0  0
  181.4010  178.2320  142.4940 O   0  0  0  0  0  0  0  0  0  0  0  0
  181.5270  178.4940  141.1100 C   0  0  2  0  0  3  0  0  0  0  0  0
  181.0940  180.4530  139.7780 O   0  0  0  0  0  0  0  0  0  0  0  0
  180.7110  179.6900  140.7120 C   0  0  0  0  0  0  0  0  0  0  0  0
  179.5330  179.9700  141.3910 O   0  0  0  0  0  1  0  0  0  0  0  0
  182.2770  176.9340  139.3740 O   0  0  0  0  0  1  0  0  0  0  0  0
  181.2370  177.2250  140.2640 C   0  0  2  0  0  3  0  0  0  0  0  0
  181.7940  174.3720  136.3120 N   0  0  0  0  0  0  0  0  0  0  0  0
  181.0470  173.1690  136.6410 C   0  0  0  0  0  2  0  0  0  0  0  0
  180.1360  175.6990  137.4970 C   0  0  1  0  0  0  0  0  0  0  0  0
  179.1500  173.7610  140.4730 O   0  0  0  0  0  0  0  0  0  0  0  0
  178.9660  176.1210  140.1640 C   0  0  0  0  0  2  0  0  0  0  0  0
  179.9860  177.0670  138.0380 C   0  0  2  0  0  0  0  0  0  0  0  0
  182.4200  174.1520  135.0190 C   0  0  0  0  0  1  0  0  0  0  0  0
  179.3750  174.7480  139.7170 C   0  0  0  0  0  0  0  0  0  0  0  0
  179.8640  177.2140  139.5670 C   0  0  2  0  0  3  0  0  0  0  0  0
  179.9490  174.5490  138.4050 N   0  0  0  0  0  0  0  0  0  0  0  0
  178.9320  176.4220  137.3560 O   0  0  0  0  0  0  0  0  0  0  0  0
  180.8190  175.4420  136.1550 C   0  0  0  0  0  2  0  0  0  0  0  0
  180.5270  178.1130  137.2870 O   0  0  0  0  0  1  0  0  0  0  0  0
  180.5340  173.2420  138.0860 C   0  0  0  0  0  2  0  0  0  0  0  0
  191.2590  178.4060  144.2740 O   0  0  0  0  0  0  0  0  0  0  0  0
  191.4970  177.0630  144.6010 C   0  0  0  0  0  1  0  0  0  0  0  0
  189.9860  177.4760  142.4090 C   0  0  1  0  0  3  0  0  0  0  0  0
  188.5500  177.2820  141.9500 C   0  0  0  0  0  2  0  0  0  0  0  0
  188.3230  178.0370  140.6500 C   0  0  0  0  0  2  0  0  0  0  0  0
  187.3280  177.3390  139.8440 N   0  0  0  0  0  2  0  0  0  0  0  0
  187.4140  177.9470  138.1980 P   0  0  1  0  0  0  0  0  0  0  0  0
  187.3450  177.0640  135.8670 C   0  0  0  0  0  2  0  0  0  0  0  0
  188.6160  177.5750  135.1780 C   0  0  0  0  0  2  0  0  0  0  0  0
  188.8950  179.2650  136.6680 C   0  0  0  0  0  2  0  0  0  0  0  0
  188.7400  179.0230  138.0380 O   0  0  0  0  0  0  0  0  0  0  0  0
  189.5360  178.1700  136.0690 O   0  0  0  0  0  0  0  0  0  0  0  0
  187.6190  176.6080  137.1590 O   0  0  0  0  0  0  0  0  0  0  0  0
  186.1170  178.6660  137.8780 O   0  0  0  0  0  0  0  0  0  0  0  0
  190.8270  178.0100  141.2520 C   0  0  0  0  0  2  0  0  0  0  0  0
  192.1560  177.4220  141.3150 N   0  0  0  0  0  2  0  0  0  0  0  0
  192.9360  177.1530  140.1580 C   0  0  0  0  0  0  0  0  0  0  0  0
  194.0360  176.5530  140.2990 O   0  0  0  0  0  0  0  0  0  0  0  0
  192.4540  177.5450  138.8170 C   0  0  0  0  0  3  0  0  0  0  0  0
  191.5610  176.8870  138.0650 C   0  0  0  0  0  3  0  0  0  0  0  0
  190.8810  175.6250  138.4770 C   0  0  0  0  0  2  0  0  0  0  0  0
  190.4480  174.8450  137.2440 C   0  0  0  0  0  2  0  0  0  0  0  0
  190.9360  173.5370  137.3520 O   0  0  0  0  0  0  0  0  0  0  0  0
  191.5960  173.5770  135.1230 O   0  0  0  0  0  1  0  0  0  0  0  0
  192.0100  173.3790  136.4450 C   0  0  1  0  0  3  0  0  0  0  0  0
  193.0890  174.2190  136.7620 O   0  0  0  0  0  0  0  0  0  0  0  0
  193.9060  173.5050  134.7490 O   0  0  0  0  0  1  0  0  0  0  0  0
  194.1940  173.6740  136.1060 C   0  0  1  0  0  3  0  0  0  0  0  0
  195.3750  174.6250  136.2470 C   0  0  1  0  0  3  0  0  0  0  0  0
  195.2660  175.3570  137.4470 O   0  0  0  0  0  0  0  0  0  0  0  0
  196.1710  174.2740  137.4380 C   0  0  2  0  0  3  0  0  0  0  0  0
  197.5800  174.8050  137.2820 C   0  0  0  0  0  2  0  0  0  0  0  0
  198.2960  174.7070  138.6120 C   0  0  0  0  0  2  0  0  0  0  0  0
  197.5000  175.3570  139.6430 N   0  0  0  0  0  1  0  0  0  0  0  0
  1 35  1  1  0  0  0
  2  3  1  0  0  0  0
  4  8  1  1  0  0  0
  4  2  1  0  0  0  0
  5  3  1  0  0  0  0
  6  7  1  0  0  0  0
  6  4  1  0  0  0  0
  7  1  1  6  0  0  0
  7  5  1  0  0  0  0
  8  9  1  0  0  0  0
 10 11  1  0  0  0  0
 10 12  1  1  0  0  0
 11  9  1  1  0  0  0
 13 10  1  0  0  0  0
 13 11  1  0  0  0  0
 14 10  1  0  0  0  0
 15 17  1  6  0  0  0
 15 14  1  0  0  0  0
 16 17  2  0  0  0  0
 17 18  1  0  0  0  0
 20 19  1  6  0  0  0
 20 15  1  0  0  0  0
 21 22  1  0  0  0  0
 22 34  1  0  0  0  0
 23 32  1  6  0  0  0
 23 26  1  0  0  0  0
 23 30  1  0  0  0  0
 26 33  1  6  0  0  0
 26 29  1  0  0  0  0
 27 21  1  0  0  0  0
 28 25  1  0  0  0  0
 28 24  2  0  0  0  0
 29 25  1  0  0  0  0
 29 20  1  1  0  0  0
 30 28  1  0  0  0  0
 31 23  1  0  0  0  0
 31 26  1  0  0  0  0
 32 21  1  0  0  0  0
 34 30  1  0  0  0  0
 35 36  1  0  0  0  0
 37 49  1  6  0  0  0
 37  1  1  0  0  0  0
 38 37  1  0  0  0  0
 39 38  1  0  0  0  0
 40 39  1  0  0  0  0
 41 48  2  6  0  0  0
 41 40  1  0  0  0  0
 42 47  1  0  0  0  0
 43 42  1  0  0  0  0
 43 46  1  0  0  0  0
 44 45  1  0  0  0  0
 45 41  1  0  0  0  0
 46 44  1  0  0  0  0
 47 41  1  0  0  0  0
 49 50  1  0  0  0  0
 51 52  2  0  0  0  0
 51 50  1  0  0  0  0
 53 51  1  0  0  0  0
 54 55  1  0  0  0  0
 54 53  2  0  0  0  0
 56 57  1  0  0  0  0
 56 55  1  0  0  0  0
 59 58  1  6  0  0  0
 59 60  1  0  0  0  0
 59 57  1  0  0  0  0
 62 61  1  6  0  0  0
 62 60  1  0  0  0  0
 63 62  1  1  0  0  0
 63 65  1  0  0  0  0
 63 64  1  0  0  0  0
 65 66  1  6  0  0  0
 65 64  1  0  0  0  0
 66 67  1  0  0  0  0
 67 68  1  0  0  0  0
M  END
>  <MODEL>
3

>  <REMARK>
 VINA RESULT:      -5.0      2.797      9.080
  Name = 
  27 active torsions:
  status: ('A' for Active; 'I' for Inactive)
    1  A    between atoms: C_1  and  C_48
    2  A    between atoms: P_2  and  N_22
    3  A    between atoms: O_3  and  C_5
    4  A    between atoms: O_3  and  C_62
    5  A    between atoms: C_4  and  C_9
    6  A    between atoms: C_4  and  N_31
    7  A    between atoms: O_8  and  C_66
    8  A    between atoms: C_9  and  C_33
    9  A    between atoms: C_9  and  C_66
   10  A    between atoms: C_10  and  C_49
   11  A    between atoms: C_12  and  C_42
   12  A    between atoms: C_13  and  C_34
   13  A    between atoms: C_17  and  C_34
   14  A    between atoms: N_22  and  C_51
   15  A    between atoms: C_24  and  C_39
   16  A    between atoms: C_28  and  C_44
   17  A    between atoms: C_28  and  C_62
   18  A    between atoms: C_29  and  O_52
   19  A    between atoms: C_29  and  O_56
   20  A    between atoms: C_32  and  C_67
   21  A    between atoms: C_33  and  C_51
   22  A    between atoms: C_37  and  C_62
   23  A    between atoms: C_39  and  C_53
   24  A    between atoms: C_47  and  C_66
   25  A    between atoms: C_48  and  O_52
   26  A    between atoms: C_49  and  C_67
   27  A    between atoms: C_53  and  O_56
                            x       y       z     vdW  Elec       q    Type
                         _______ _______ _______ _____ _____    ______ ____

>  <TORSDO>
F 27

$$$$
=
 OpenBabel11042411073D

 68 74  0  0  1  0  0  0  0  0999 V2000
  181.0370  178.2010  141.1900 C   0  0  1  0  0  3  0  0  0  0  0  0
  185.1600  179.3700  141.7400 C   0  0  0  0  0  2  0  0  0  0  0  0
  184.7710  178.9690  140.3240 C   0  0  0  0  0  2  0  0  0  0  0  0
  184.5760  178.3880  142.7750 C   0  0  2  0  0  3  0  0  0  0  0  0
  183.2510  179.0680  140.1270 C   0  0  0  0  0  2  0  0  0  0  0  0
  183.2700  177.7400  142.3020 C   0  0  0  0  0  2  0  0  0  0  0  0
  182.4790  178.6930  141.4080 C   0  0  2  0  0  3  0  0  0  0  0  0
  184.3350  179.1140  144.0900 C   0  0  0  0  0  2  0  0  0  0  0  0
  184.6960  178.2590  145.2880 C   0  0  0  0  0  2  0  0  0  0  0  0
  186.8530  178.7150  146.4550 C   0  0  1  0  0  0  0  0  0  0  0  0
  186.1950  177.9900  145.3390 C   0  0  1  0  0  3  0  0  0  0  0  0
  186.0820  179.5440  147.2880 O   0  0  0  0  0  1  0  0  0  0  0  0
  186.5240  177.3560  146.5620 O   0  0  0  0  0  0  0  0  0  0  0  0
  188.2370  178.9660  146.3450 O   0  0  0  0  0  0  0  0  0  0  0  0
  188.9000  177.7230  146.2310 C   0  0  2  0  0  3  0  0  0  0  0  0
  189.5560  178.1430  148.5100 O   0  0  0  0  0  1  0  0  0  0  0  0
  189.5920  177.3630  147.5150 C   0  0  0  0  0  0  0  0  0  0  0  0
  190.2920  176.1670  147.6020 O   0  0  0  0  0  0  0  0  0  0  0  0
  189.4330  178.6050  144.0060 O   0  0  0  0  0  1  0  0  0  0  0  0
  189.8270  177.6860  144.9850 C   0  0  2  0  0  3  0  0  0  0  0  0
  188.9060  178.1070  140.1860 N   0  0  0  0  0  0  0  0  0  0  0  0
  190.2180  178.0080  139.5670 C   0  0  0  0  0  2  0  0  0  0  0  0
  189.6010  176.4930  141.8670 C   0  0  1  0  0  0  0  0  0  0  0  0
  193.1190  177.2400  142.6710 O   0  0  0  0  0  0  0  0  0  0  0  0
  191.5410  176.0870  144.0420 C   0  0  0  0  0  2  0  0  0  0  0  0
  189.1500  175.9980  143.1870 C   0  0  2  0  0  0  0  0  0  0  0  0
  187.9460  178.3620  139.1240 C   0  0  0  0  0  1  0  0  0  0  0  0
  191.9290  176.8390  142.8020 C   0  0  0  0  0  0  0  0  0  0  0  0
  190.0600  176.2830  144.3970 C   0  0  2  0  0  3  0  0  0  0  0  0
  190.9690  177.0350  141.7390 N   0  0  0  0  0  0  0  0  0  0  0  0
  189.6380  175.1210  142.1940 O   0  0  0  0  0  0  0  0  0  0  0  0
  188.6070  176.7970  140.7490 C   0  0  0  0  0  2  0  0  0  0  0  0
  187.7750  175.8530  143.3770 O   0  0  0  0  0  1  0  0  0  0  0  0
  191.3090  177.9530  140.6470 C   0  0  0  0  0  2  0  0  0  0  0  0
  180.1260  178.9290  141.9840 O   0  0  0  0  0  0  0  0  0  0  0  0
  180.7670  179.1130  143.2180 C   0  0  0  0  0  1  0  0  0  0  0  0
  180.5650  178.1120  139.7250 C   0  0  1  0  0  3  0  0  0  0  0  0
  180.3210  179.5150  139.1920 C   0  0  0  0  0  2  0  0  0  0  0  0
  179.0110  179.5480  138.4220 C   0  0  0  0  0  2  0  0  0  0  0  0
  179.1440  180.4220  137.2620 N   0  0  0  0  0  2  0  0  0  0  0  0
  179.5760  179.4430  135.8690 P   0  0  1  0  0  0  0  0  0  0  0  0
  179.0280  177.2080  134.9060 C   0  0  0  0  0  2  0  0  0  0  0  0
  180.3670  176.4860  134.7140 C   0  0  0  0  0  2  0  0  0  0  0  0
  181.5560  178.4190  134.7280 C   0  0  0  0  0  2  0  0  0  0  0  0
  181.2800  179.4030  135.6850 O   0  0  0  0  0  0  0  0  0  0  0  0
  181.4550  177.1510  135.3200 O   0  0  0  0  0  0  0  0  0  0  0  0
  178.9810  177.8650  136.1390 O   0  0  0  0  0  0  0  0  0  0  0  0
  178.9310  180.0430  134.6350 O   0  0  0  0  0  0  0  0  0  0  0  0
  181.5780  177.3950  138.8370 C   0  0  0  0  0  2  0  0  0  0  0  0
  180.9920  176.1580  138.3450 N   0  0  0  0  0  2  0  0  0  0  0  0
  181.7700  175.0180  138.0050 C   0  0  0  0  0  0  0  0  0  0  0  0
  181.1880  174.0210  137.4950 O   0  0  0  0  0  0  0  0  0  0  0  0
  183.2330  175.0120  138.2210 C   0  0  0  0  0  3  0  0  0  0  0  0
  184.1790  174.9940  137.2730 C   0  0  0  0  0  3  0  0  0  0  0  0
  183.9030  174.9910  135.8070 C   0  0  0  0  0  2  0  0  0  0  0  0
  185.2140  175.0080  135.0350 C   0  0  0  0  0  2  0  0  0  0  0  0
  186.2010  175.5830  135.8460 O   0  0  0  0  0  0  0  0  0  0  0  0
  187.4040  173.6050  135.6330 O   0  0  0  0  0  1  0  0  0  0  0  0
  186.8850  174.5490  136.5260 C   0  0  1  0  0  3  0  0  0  0  0  0
  187.8930  175.0530  137.3630 O   0  0  0  0  0  0  0  0  0  0  0  0
  189.0610  175.3530  135.4200 O   0  0  0  0  0  1  0  0  0  0  0  0
  189.0940  174.7950  136.7010 C   0  0  1  0  0  3  0  0  0  0  0  0
  190.2400  175.4230  137.4850 C   0  0  1  0  0  3  0  0  0  0  0  0
  191.0850  174.4160  137.9930 O   0  0  0  0  0  0  0  0  0  0  0  0
  191.5290  175.1030  136.8440 C   0  0  2  0  0  3  0  0  0  0  0  0
  192.5650  176.1310  137.2480 C   0  0  0  0  0  2  0  0  0  0  0  0
  193.9390  175.5010  137.1780 C   0  0  0  0  0  2  0  0  0  0  0  0
  193.8120  174.0910  136.8410 N   0  0  0  0  0  1  0  0  0  0  0  0
  1 35  1  1  0  0  0
  2  4  1  0  0  0  0
  3  2  1  0  0  0  0
  4  8  1  1  0  0  0
  5  3  1  0  0  0  0
  5  7  1  0  0  0  0
  6  4  1  0  0  0  0
  7  1  1  6  0  0  0
  7  6  1  0  0  0  0
  8  9  1  0  0  0  0
 10 13  1  0  0  0  0
 10 12  1  1  0  0  0
 11  9  1  1  0  0  0
 11 10  1  0  0  0  0
 11 13  1  0  0  0  0
 14 10  1  0  0  0  0
 15 14  1  1  0  0  0
 15 17  1  0  0  0  0
 17 18  2  0  0  0  0
 17 16  1  0  0  0  0
 20 19  1  6  0  0  0
 20 15  1  0  0  0  0
 21 32  1  0  0  0  0
 22 21  1  0  0  0  0
 22 34  1  0  0  0  0
 23 32  1  6  0  0  0
 23 31  1  0  0  0  0
 23 26  1  0  0  0  0
 24 28  2  0  0  0  0
 25 29  1  0  0  0  0
 26 33  1  1  0  0  0
 26 29  1  0  0  0  0
 27 21  1  0  0  0  0
 28 25  1  0  0  0  0
 29 20  1  6  0  0  0
 30 23  1  0  0  0  0
 30 28  1  0  0  0  0
 31 26  1  0  0  0  0
 34 30  1  0  0  0  0
 35 36  1  0  0  0  0
 37 49  1  6  0  0  0
 37  1  1  0  0  0  0
 38 37  1  0  0  0  0
 39 38  1  0  0  0  0
 40 39  1  0  0  0  0
 41 48  2  6  0  0  0
 41 47  1  0  0  0  0
 41 40  1  0  0  0  0
 42 47  1  0  0  0  0
 43 42  1  0  0  0  0
 43 46  1  0  0  0  0
 44 46  1  0  0  0  0
 44 45  1  0  0  0  0
 45 41  1  0  0  0  0
 50 49  1  0  0  0  0
 51 53  1  0  0  0  0
 51 50  1  0  0  0  0
 52 51  2  0  0  0  0
 54 53  2  0  0  0  0
 55 54  1  0  0  0  0
 56 55  1  0  0  0  0
 56 57  1  0  0  0  0
 57 59  1  0  0  0  0
 59 58  1  6  0  0  0
 59 60  1  0  0  0  0
 62 61  1  6  0  0  0
 62 60  1  0  0  0  0
 63 62  1  6  0  0  0
 63 64  1  0  0  0  0
 65 66  1  1  0  0  0
 65 63  1  0  0  0  0
 65 64  1  0  0  0  0
 67 66  1  0  0  0  0
 68 67  1  0  0  0  0
M  END
>  <MODEL>
4

>  <REMARK>
 VINA RESULT:      -3.7      3.208     12.202
  Name = 
  27 active torsions:
  status: ('A' for Active; 'I' for Inactive)
    1  A    between atoms: C_1  and  C_48
    2  A    between atoms: P_2  and  N_22
    3  A    between atoms: O_3  and  C_5
    4  A    between atoms: O_3  and  C_62
    5  A    between atoms: C_4  and  C_9
    6  A    between atoms: C_4  and  N_31
    7  A    between atoms: O_8  and  C_66
    8  A    between atoms: C_9  and  C_33
    9  A    between atoms: C_9  and  C_66
   10  A    between atoms: C_10  and  C_49
   11  A    between atoms: C_12  and  C_42
   12  A    between atoms: C_13  and  C_34
   13  A    between atoms: C_17  and  C_34
   14  A    between atoms: N_22  and  C_51
   15  A    between atoms: C_24  and  C_39
   16  A    between atoms: C_28  and  C_44
   17  A    between atoms: C_28  and  C_62
   18  A    between atoms: C_29  and  O_52
   19  A    between atoms: C_29  and  O_56
   20  A    between atoms: C_32  and  C_67
   21  A    between atoms: C_33  and  C_51
   22  A    between atoms: C_37  and  C_62
   23  A    between atoms: C_39  and  C_53
   24  A    between atoms: C_47  and  C_66
   25  A    between atoms: C_48  and  O_52
   26  A    between atoms: C_49  and  C_67
   27  A    between atoms: C_53  and  O_56
                            x       y       z     vdW  Elec       q    Type
                         _______ _______ _______ _____ _____    ______ ____

>  <TORSDO>
F 27

$$$$
=
 OpenBabel11042411073D

 68 74  0  0  1  0  0  0  0  0999 V2000
  188.4810  177.1470  135.6320 C   0  0  1  0  0  3  0  0  0  0  0  0
  187.6030  178.6710  139.5780 C   0  0  0  0  0  2  0  0  0  0  0  0
  189.0800  178.5790  139.2210 C   0  0  0  0  0  2  0  0  0  0  0  0
  186.8460  177.4020  139.1440 C   0  0  2  0  0  3  0  0  0  0  0  0
  189.2690  178.5240  137.6970 C   0  0  0  0  0  2  0  0  0  0  0  0
  187.4810  176.7240  137.9250 C   0  0  0  0  0  2  0  0  0  0  0  0
  188.1290  177.7540  137.0020 C   0  0  2  0  0  3  0  0  0  0  0  0
  185.3970  177.7500  138.8330 C   0  0  0  0  0  2  0  0  0  0  0  0
  184.9150  178.9460  139.6290 C   0  0  0  0  0  2  0  0  0  0  0  0
  184.5260  179.2020  142.0790 C   0  0  1  0  0  0  0  0  0  0  0  0
  185.5380  178.9680  141.0190 C   0  0  1  0  0  3  0  0  0  0  0  0
  183.1810  179.3930  141.7180 O   0  0  0  0  0  1  0  0  0  0  0  0
  185.0020  177.9130  141.7980 O   0  0  0  0  0  0  0  0  0  0  0  0
  184.9770  179.7280  143.3080 O   0  0  0  0  0  0  0  0  0  0  0  0
  185.1700  178.6500  144.2020 C   0  0  2  0  0  3  0  0  0  0  0  0
  184.6700  178.4040  146.5450 O   0  0  0  0  0  1  0  0  0  0  0  0
  184.2770  178.7810  145.4030 C   0  0  0  0  0  0  0  0  0  0  0  0
  183.0000  179.3040  145.2520 O   0  0  0  0  0  0  0  0  0  0  0  0
  187.5110  179.0910  143.6250 O   0  0  0  0  0  1  0  0  0  0  0  0
  186.6710  178.4640  144.5520 C   0  0  2  0  0  3  0  0  0  0  0  0
  191.0800  177.9770  142.4580 N   0  0  0  0  0  0  0  0  0  0  0  0
  191.9960  177.8950  143.5840 C   0  0  0  0  0  2  0  0  0  0  0  0
  189.4240  176.7430  143.7420 C   0  0  1  0  0  0  0  0  0  0  0  0
  189.6700  177.9340  147.2210 O   0  0  0  0  0  0  0  0  0  0  0  0
  187.7890  176.8920  146.1840 C   0  0  0  0  0  2  0  0  0  0  0  0
  187.9770  176.4400  143.6910 C   0  0  2  0  0  0  0  0  0  0  0  0
  191.8830  177.9590  141.2460 C   0  0  0  0  0  1  0  0  0  0  0  0
  189.1800  177.4540  146.1600 C   0  0  0  0  0  0  0  0  0  0  0  0
  187.0950  177.0080  144.8190 C   0  0  2  0  0  3  0  0  0  0  0  0
  189.9760  177.3770  144.9550 N   0  0  0  0  0  0  0  0  0  0  0  0
  188.9270  175.4550  144.0360 O   0  0  0  0  0  0  0  0  0  0  0  0
  190.2800  176.7600  142.4770 C   0  0  0  0  0  2  0  0  0  0  0  0
  187.4190  176.2040  142.4330 O   0  0  0  0  0  1  0  0  0  0  0  0
  191.2380  178.1240  144.9000 C   0  0  0  0  0  2  0  0  0  0  0  0
  188.2610  178.0750  134.5940 O   0  0  0  0  0  0  0  0  0  0  0  0
  186.9610  178.5630  134.7950 C   0  0  0  0  0  1  0  0  0  0  0  0
  189.8720  176.4900  135.5190 C   0  0  1  0  0  3  0  0  0  0  0  0
  190.3430  176.0740  136.9030 C   0  0  0  0  0  2  0  0  0  0  0  0
  191.6560  175.3170  136.7900 C   0  0  0  0  0  2  0  0  0  0  0  0
  192.7250  176.2390  136.4240 N   0  0  0  0  0  2  0  0  0  0  0  0
  194.1450  175.3040  135.9850 P   0  0  1  0  0  0  0  0  0  0  0  0
  195.3880  173.2940  136.7830 C   0  0  0  0  0  2  0  0  0  0  0  0
  196.8400  173.7430  136.9890 C   0  0  0  0  0  2  0  0  0  0  0  0
  196.6120  175.5380  135.6180 C   0  0  0  0  0  2  0  0  0  0  0  0
  195.4760  176.3510  135.7130 O   0  0  0  0  0  0  0  0  0  0  0  0
  197.0110  175.1420  136.9040 O   0  0  0  0  0  0  0  0  0  0  0  0
  194.4900  174.2440  137.2780 O   0  0  0  0  0  0  0  0  0  0  0  0
  193.8370  174.5150  134.7270 O   0  0  0  0  0  0  0  0  0  0  0  0
  189.8600  175.2750  134.5940 C   0  0  0  0  0  2  0  0  0  0  0  0
  189.9560  174.0640  135.3950 N   0  0  0  0  0  2  0  0  0  0  0  0
  188.9250  173.0870  135.4420 C   0  0  0  0  0  0  0  0  0  0  0  0
  189.0510  172.1160  136.2370 O   0  0  0  0  0  0  0  0  0  0  0  0
  187.7210  173.2210  134.5960 C   0  0  0  0  0  3  0  0  0  0  0  0
  186.4680  172.8860  134.9310 C   0  0  0  0  0  3  0  0  0  0  0  0
  186.0730  172.3210  136.2540 C   0  0  0  0  0  2  0  0  0  0  0  0
  185.4120  173.4000  137.1000 C   0  0  0  0  0  2  0  0  0  0  0  0
  184.3440  172.8240  137.8000 O   0  0  0  0  0  0  0  0  0  0  0  0
  182.5690  171.6010  136.9300 O   0  0  0  0  0  1  0  0  0  0  0  0
  183.1970  172.8510  136.9730 C   0  0  1  0  0  3  0  0  0  0  0  0
  182.2940  173.8520  137.3650 O   0  0  0  0  0  0  0  0  0  0  0  0
  181.6320  175.2580  135.6870 O   0  0  0  0  0  1  0  0  0  0  0  0
  182.6370  174.9800  136.6180 C   0  0  1  0  0  3  0  0  0  0  0  0
  182.7880  176.1710  137.5550 C   0  0  1  0  0  3  0  0  0  0  0  0
  182.3890  177.3540  136.9010 O   0  0  0  0  0  0  0  0  0  0  0  0
  181.4720  176.7860  137.8100 C   0  0  2  0  0  3  0  0  0  0  0  0
  181.5180  177.5610  139.1100 C   0  0  0  0  0  2  0  0  0  0  0  0
  180.7900  176.7750  140.1800 C   0  0  0  0  0  2  0  0  0  0  0  0
  179.9380  175.7740  139.5540 N   0  0  0  0  0  1  0  0  0  0  0  0
  1 35  1  6  0  0  0
  3  2  1  0  0  0  0
  4  8  1  6  0  0  0
  4  2  1  0  0  0  0
  5  3  1  0  0  0  0
  6  4  1  0  0  0  0
  7  1  1  6  0  0  0
  7  5  1  0  0  0  0
  7  6  1  0  0  0  0
  8  9  1  0  0  0  0
 10 12  1  6  0  0  0
 10 14  1  0  0  0  0
 11  9  1  6  0  0  0
 11 13  1  0  0  0  0
 11 10  1  0  0  0  0
 13 10  1  0  0  0  0
 15 14  1  6  0  0  0
 15 20  1  0  0  0  0
 15 17  1  0  0  0  0
 17 16  1  0  0  0  0
 18 17  2  0  0  0  0
 20 19  1  6  0  0  0
 21 32  1  0  0  0  0
 21 22  1  0  0  0  0
 22 34  1  0  0  0  0
 23 32  1  6  0  0  0
 23 31  1  0  0  0  0
 23 30  1  0  0  0  0
 26 33  1  6  0  0  0
 26 23  1  0  0  0  0
 26 31  1  0  0  0  0
 26 29  1  0  0  0  0
 27 21  1  0  0  0  0
 28 25  1  0  0  0  0
 28 24  2  0  0  0  0
 29 20  1  6  0  0  0
 29 25  1  0  0  0  0
 30 28  1  0  0  0  0
 34 30  1  0  0  0  0
 35 36  1  0  0  0  0
 37 49  1  6  0  0  0
 37  1  1  0  0  0  0
 37 38  1  0  0  0  0
 39 38  1  0  0  0  0
 40 39  1  0  0  0  0
 41 48  2  6  0  0  0
 41 40  1  0  0  0  0
 41 47  1  0  0  0  0
 42 43  1  0  0  0  0
 42 47  1  0  0  0  0
 44 45  1  0  0  0  0
 44 46  1  0  0  0  0
 45 41  1  0  0  0  0
 46 43  1  0  0  0  0
 49 50  1  0  0  0  0
 50 51  1  0  0  0  0
 51 52  2  0  0  0  0
 53 54  2  0  0  0  0
 53 51  1  0  0  0  0
 54 55  1  0  0  0  0
 55 56  1  0  0  0  0
 56 57  1  0  0  0  0
 59 58  1  1  0  0  0
 59 60  1  0  0  0  0
 59 57  1  0  0  0  0
 62 61  1  6  0  0  0
 62 60  1  0  0  0  0
 63 62  1  6  0  0  0
 63 65  1  0  0  0  0
 64 63  1  0  0  0  0
 64 65  1  0  0  0  0
 65 66  1  1  0  0  0
 66 67  1  0  0  0  0
 68 67  1  0  0  0  0
M  END
>  <MODEL>
5

>  <REMARK>
 VINA RESULT:      -3.0      2.536      8.629
  Name = 
  27 active torsions:
  status: ('A' for Active; 'I' for Inactive)
    1  A    between atoms: C_1  and  C_48
    2  A    between atoms: P_2  and  N_22
    3  A    between atoms: O_3  and  C_5
    4  A    between atoms: O_3  and  C_62
    5  A    between atoms: C_4  and  C_9
    6  A    between atoms: C_4  and  N_31
    7  A    between atoms: O_8  and  C_66
    8  A    between atoms: C_9  and  C_33
    9  A    between atoms: C_9  and  C_66
   10  A    between atoms: C_10  and  C_49
   11  A    between atoms: C_12  and  C_42
   12  A    between atoms: C_13  and  C_34
   13  A    between atoms: C_17  and  C_34
   14  A    between atoms: N_22  and  C_51
   15  A    between atoms: C_24  and  C_39
   16  A    between atoms: C_28  and  C_44
   17  A    between atoms: C_28  and  C_62
   18  A    between atoms: C_29  and  O_52
   19  A    between atoms: C_29  and  O_56
   20  A    between atoms: C_32  and  C_67
   21  A    between atoms: C_33  and  C_51
   22  A    between atoms: C_37  and  C_62
   23  A    between atoms: C_39  and  C_53
   24  A    between atoms: C_47  and  C_66
   25  A    between atoms: C_48  and  O_52
   26  A    between atoms: C_49  and  C_67
   27  A    between atoms: C_53  and  O_56
                            x       y       z     vdW  Elec       q    Type
                         _______ _______ _______ _____ _____    ______ ____

>  <TORSDO>
F 27

$$$$
=
 OpenBabel11042411073D

 68 74  0  0  1  0  0  0  0  0999 V2000
  190.5490  176.4560  142.9190 C   0  0  1  0  0  3  0  0  0  0  0  0
  189.9740  179.5580  145.8710 C   0  0  0  0  0  2  0  0  0  0  0  0
  191.2180  179.6950  145.0040 C   0  0  0  0  0  2  0  0  0  0  0  0
  189.7880  178.1060  146.3500 C   0  0  2  0  0  3  0  0  0  0  0  0
  191.0720  178.8820  143.7080 C   0  0  0  0  0  2  0  0  0  0  0  0
  190.3740  177.0820  145.3710 C   0  0  0  0  0  2  0  0  0  0  0  0
  190.2740  177.5820  143.9320 C   0  0  2  0  0  3  0  0  0  0  0  0
  188.3080  177.8200  146.5580 C   0  0  0  0  0  2  0  0  0  0  0  0
  187.5510  177.7520  145.2470 C   0  0  0  0  0  2  0  0  0  0  0  0
  185.1390  178.3890  145.2660 C   0  0  1  0  0  0  0  0  0  0  0  0
  186.5340  178.8820  145.1420 C   0  0  1  0  0  3  0  0  0  0  0  0
  184.9060  177.0130  145.4340 O   0  0  0  0  0  1  0  0  0  0  0  0
  185.8030  178.9790  146.3520 O   0  0  0  0  0  0  0  0  0  0  0  0
  184.1130  179.1860  144.7150 O   0  0  0  0  0  0  0  0  0  0  0  0
  183.7830  178.6590  143.4460 C   0  0  2  0  0  3  0  0  0  0  0  0
  185.3920  179.7230  142.0040 O   0  0  0  0  0  0  0  0  0  0  0  0
  184.9800  178.6530  142.5380 C   0  0  0  0  0  0  0  0  0  0  0  0
  185.6280  177.4550  142.2710 O   0  0  0  0  0  1  0  0  0  0  0  0
  181.9750  180.2910  143.7300 O   0  0  0  0  0  1  0  0  0  0  0  0
  182.5400  179.3680  142.8420 C   0  0  2  0  0  3  0  0  0  0  0  0
  180.5550  181.8130  139.0820 N   0  0  0  0  0  0  0  0  0  0  0  0
  181.0660  181.1260  137.9080 C   0  0  0  0  0  2  0  0  0  0  0  0
  180.4440  179.6850  140.2540 C   0  0  1  0  0  0  0  0  0  0  0  0
  183.4110  177.7510  139.2330 O   0  0  0  0  0  0  0  0  0  0  0  0
  182.1240  177.4720  141.2240 C   0  0  0  0  0  2  0  0  0  0  0  0
  180.2920  179.1840  141.6370 C   0  0  2  0  0  0  0  0  0  0  0  0
  179.7670  182.9410  138.6130 C   0  0  0  0  0  1  0  0  0  0  0  0
  182.4470  178.1690  139.9340 C   0  0  0  0  0  0  0  0  0  0  0  0
  181.4820  178.4210  142.2470 C   0  0  2  0  0  3  0  0  0  0  0  0
  181.6170  179.2560  139.4660 N   0  0  0  0  0  0  0  0  0  0  0  0
  179.6150  178.5830  140.5540 O   0  0  0  0  0  0  0  0  0  0  0  0
  179.6500  180.8880  139.7500 C   0  0  0  0  0  2  0  0  0  0  0  0
  179.4160  179.8780  142.4740 O   0  0  0  0  0  1  0  0  0  0  0  0
  182.0820  180.0510  138.3240 C   0  0  0  0  0  2  0  0  0  0  0  0
  189.9660  175.2420  143.3380 O   0  0  0  0  0  0  0  0  0  0  0  0
  191.0370  174.4290  143.7380 C   0  0  0  0  0  1  0  0  0  0  0  0
  190.2100  176.7690  141.4480 C   0  0  1  0  0  3  0  0  0  0  0  0
  188.8480  177.4410  141.3810 C   0  0  0  0  0  2  0  0  0  0  0  0
  188.1840  177.1190  140.0520 C   0  0  0  0  0  2  0  0  0  0  0  0
  187.5260  178.3110  139.5290 N   0  0  0  0  0  2  0  0  0  0  0  0
  187.4870  178.2050  137.7770 P   0  0  1  0  0  0  0  0  0  0  0  0
  186.8230  176.5740  136.0110 C   0  0  0  0  0  2  0  0  0  0  0  0
  188.0500  176.3980  135.1080 C   0  0  0  0  0  2  0  0  0  0  0  0
  188.9740  178.3640  135.7680 C   0  0  0  0  0  2  0  0  0  0  0  0
  188.9910  178.7090  137.1240 O   0  0  0  0  0  0  0  0  0  0  0  0
  189.2210  176.9890  135.6320 O   0  0  0  0  0  0  0  0  0  0  0  0
  187.1850  176.5770  137.3600 O   0  0  0  0  0  0  0  0  0  0  0  0
  186.3710  179.0940  137.2620 O   0  0  0  0  0  0  0  0  0  0  0  0
  191.2570  177.6670  140.7950 C   0  0  0  0  0  2  0  0  0  0  0  0
  192.5760  177.0830  140.9900 N   0  0  0  0  0  2  0  0  0  0  0  0
  193.4620  176.8020  139.9150 C   0  0  0  0  0  0  0  0  0  0  0  0
  194.5450  176.2070  140.1660 O   0  0  0  0  0  0  0  0  0  0  0  0
  193.1080  177.1780  138.5290 C   0  0  0  0  0  3  0  0  0  0  0  0
  192.7900  176.3420  137.5320 C   0  0  0  0  0  3  0  0  0  0  0  0
  192.7260  174.8570  137.6660 C   0  0  0  0  0  2  0  0  0  0  0  0
  193.7870  174.2130  136.7860 C   0  0  0  0  0  2  0  0  0  0  0  0
  195.0490  174.5650  137.2830 O   0  0  0  0  0  0  0  0  0  0  0  0
  195.6100  176.2370  135.7690 O   0  0  0  0  0  1  0  0  0  0  0  0
  195.8760  174.9310  136.1950 C   0  0  1  0  0  3  0  0  0  0  0  0
  197.2370  174.7700  136.4970 O   0  0  0  0  0  0  0  0  0  0  0  0
  199.1540  174.0200  135.5000 O   0  0  0  0  0  1  0  0  0  0  0  0
  197.7570  173.9780  135.4720 C   0  0  1  0  0  3  0  0  0  0  0  0
  197.3000  172.5380  135.6750 C   0  0  1  0  0  3  0  0  0  0  0  0
  198.4180  171.6970  135.8480 O   0  0  0  0  0  0  0  0  0  0  0  0
  197.7050  172.0610  137.0100 C   0  0  2  0  0  3  0  0  0  0  0  0
  196.8160  170.9090  137.4280 C   0  0  0  0  0  2  0  0  0  0  0  0
  197.6220  169.6280  137.4060 C   0  0  0  0  0  2  0  0  0  0  0  0
  199.0170  169.9260  137.6930 N   0  0  0  0  0  1  0  0  0  0  0  0
  1 35  1  1  0  0  0
  2  4  1  0  0  0  0
  3  2  1  0  0  0  0
  4  8  1  6  0  0  0
  5  7  1  0  0  0  0
  5  3  1  0  0  0  0
  6  4  1  0  0  0  0
  7  1  1  6  0  0  0
  7  6  1  0  0  0  0
  9  8  1  0  0  0  0
 10 12  1  1  0  0  0
 10 13  1  0  0  0  0
 11  9  1  1  0  0  0
 11 10  1  0  0  0  0
 11 13  1  0  0  0  0
 14 10  1  0  0  0  0
 15 17  1  6  0  0  0
 15 14  1  0  0  0  0
 16 17  2  0  0  0  0
 18 17  1  0  0  0  0
 20 15  1  0  0  0  0
 20 19  1  1  0  0  0
 21 32  1  0  0  0  0
 22 34  1  0  0  0  0
 22 21  1  0  0  0  0
 23 32  1  6  0  0  0
 23 31  1  0  0  0  0
 23 26  1  0  0  0  0
 24 28  2  0  0  0  0
 25 29  1  0  0  0  0
 26 29  1  0  0  0  0
 26 33  1  1  0  0  0
 27 21  1  0  0  0  0
 28 25  1  0  0  0  0
 29 20  1  6  0  0  0
 30 28  1  0  0  0  0
 30 23  1  0  0  0  0
 31 26  1  0  0  0  0
 34 30  1  0  0  0  0
 35 36  1  0  0  0  0
 37 49  1  1  0  0  0
 37  1  1  0  0  0  0
 38 37  1  0  0  0  0
 39 38  1  0  0  0  0
 40 39  1  0  0  0  0
 41 48  2  6  0  0  0
 41 40  1  0  0  0  0
 42 47  1  0  0  0  0
 43 46  1  0  0  0  0
 43 42  1  0  0  0  0
 44 45  1  0  0  0  0
 45 41  1  0  0  0  0
 46 44  1  0  0  0  0
 47 41  1  0  0  0  0
 49 50  1  0  0  0  0
 51 52  2  0  0  0  0
 51 50  1  0  0  0  0
 53 51  1  0  0  0  0
 54 55  1  0  0  0  0
 54 53  2  0  0  0  0
 56 57  1  0  0  0  0
 56 55  1  0  0  0  0
 59 58  1  1  0  0  0
 59 60  1  0  0  0  0
 59 57  1  0  0  0  0
 62 61  1  1  0  0  0
 62 60  1  0  0  0  0
 63 62  1  1  0  0  0
 63 64  1  0  0  0  0
 63 65  1  0  0  0  0
 64 65  1  0  0  0  0
 65 66  1  6  0  0  0
 67 66  1  0  0  0  0
 67 68  1  0  0  0  0
M  END
>  <MODEL>
6

>  <REMARK>
 VINA RESULT:      -2.5      3.182      9.775
  Name = 
  27 active torsions:
  status: ('A' for Active; 'I' for Inactive)
    1  A    between atoms: C_1  and  C_48
    2  A    between atoms: P_2  and  N_22
    3  A    between atoms: O_3  and  C_5
    4  A    between atoms: O_3  and  C_62
    5  A    between atoms: C_4  and  C_9
    6  A    between atoms: C_4  and  N_31
    7  A    between atoms: O_8  and  C_66
    8  A    between atoms: C_9  and  C_33
    9  A    between atoms: C_9  and  C_66
   10  A    between atoms: C_10  and  C_49
   11  A    between atoms: C_12  and  C_42
   12  A    between atoms: C_13  and  C_34
   13  A    between atoms: C_17  and  C_34
   14  A    between atoms: N_22  and  C_51
   15  A    between atoms: C_24  and  C_39
   16  A    between atoms: C_28  and  C_44
   17  A    between atoms: C_28  and  C_62
   18  A    between atoms: C_29  and  O_52
   19  A    between atoms: C_29  and  O_56
   20  A    between atoms: C_32  and  C_67
   21  A    between atoms: C_33  and  C_51
   22  A    between atoms: C_37  and  C_62
   23  A    between atoms: C_39  and  C_53
   24  A    between atoms: C_47  and  C_66
   25  A    between atoms: C_48  and  O_52
   26  A    between atoms: C_49  and  C_67
   27  A    between atoms: C_53  and  O_56
                            x       y       z     vdW  Elec       q    Type
                         _______ _______ _______ _____ _____    ______ ____

>  <TORSDO>
F 27

$$$$
