=
 OpenBabel11042411443D

 40 44  0  0  1  0  0  0  0  0999 V2000
  184.5650  180.2570  143.9600 F   0  0  0  0  0  0  0  0  0  0  0  0
  180.9900  176.4850  139.4570 C   0  0  0  0  0  3  0  0  0  0  0  0
  179.3240  178.6730  139.6100 N   0  0  0  0  0  0  0  0  0  0  0  0
  182.4200  177.3290  141.2200 N   0  0  0  0  0  2  0  0  0  0  0  0
  184.6930  178.1060  141.5390 C   0  0  1  0  0  3  0  0  0  0  0  0
  180.4420  179.5950  141.5530 C   0  0  0  0  0  0  0  0  0  0  0  0
  181.9520  179.5790  143.5920 C   0  0  0  0  0  2  0  0  0  0  0  0
  179.9150  176.6060  138.5800 C   0  0  0  0  0  3  0  0  0  0  0  0
  184.3850  178.8840  143.8460 C   0  0  1  0  0  0  0  0  0  0  0  0
  179.0920  177.7270  138.6640 C   0  0  0  0  0  3  0  0  0  0  0  0
  181.2420  177.4730  140.4110 C   0  0  0  0  0  0  0  0  0  0  0  0
  183.0230  178.5430  143.2470 C   0  0  2  0  0  3  0  0  0  0  0  0
  185.4110  178.3520  142.8630 C   0  0  0  0  0  2  0  0  0  0  0  0
  180.3520  178.5750  140.4960 C   0  0  0  0  0  0  0  0  0  0  0  0
  180.3300  180.8120  141.2490 O   0  0  0  0  0  0  0  0  0  0  0  0
  183.2250  178.4260  141.7460 C   0  0  2  0  0  3  0  0  0  0  0  0
  180.6520  179.2210  142.9580 C   0  0  0  0  0  0  0  0  0  0  0  0
  179.8850  178.2970  143.5260 C   0  0  0  0  0  2  0  0  0  0  0  0
  185.2630  178.9970  140.4440 C   0  0  0  0  0  2  0  0  0  0  0  0
  186.9130  177.6350  138.5660 O   0  0  0  0  0  0  0  0  0  0  0  0
  187.4830  178.2720  139.4940 C   0  0  0  0  0  0  0  0  0  0  0  0
  186.7150  178.9570  140.4820 N   0  0  0  0  0  2  0  0  0  0  0  0
  188.9680  178.2740  139.5820 C   0  0  0  0  0  2  0  0  0  0  0  0
  189.3600  178.5490  140.8990 O   0  0  0  0  0  0  0  0  0  0  0  0
  190.3150  175.2250  142.7570 O   0  0  0  0  0  0  0  0  0  0  0  0
  192.0850  177.6310  141.2350 N   0  0  0  0  0  1  0  0  0  0  0  0
  190.9650  178.7130  143.0960 C   0  0  0  0  0  1  0  0  0  0  0  0
  188.6230  176.9110  142.3100 C   0  0  0  0  0  2  0  0  0  0  0  0
  191.2380  176.2500  143.0460 C   0  0  0  0  0  2  0  0  0  0  0  0
  189.0520  175.7000  143.1530 C   0  0  0  0  0  2  0  0  0  0  0  0
  190.9830  177.4920  142.1760 C   0  0  2  0  0  0  0  0  0  0  0  0
  189.7130  177.3460  141.4230 N   0  0  0  0  0  0  0  0  0  0  0  0
  184.6000  178.1920  145.1930 C   0  0  0  0  0  2  0  0  0  0  0  0
  185.3140  179.0660  146.2250 C   0  0  0  0  0  2  0  0  0  0  0  0
  187.3860  177.8960  145.8090 N   0  0  0  0  0  0  0  0  0  0  0  0
  188.2650  178.0560  148.4650 C   0  0  0  0  0  3  0  0  0  0  0  0
  186.9710  178.5050  148.0600 N   0  0  0  0  0  2  0  0  0  0  0  0
  189.0780  177.4770  147.5830 C   0  0  0  0  0  3  0  0  0  0  0  0
  188.6420  177.2210  146.1620 C   0  0  0  0  0  2  0  0  0  0  0  0
  186.5910  178.4410  146.6820 C   0  0  0  0  0  0  0  0  0  0  0  0
  2 11  1  0  0  0  0
  3 14  1  0  0  0  0
  5 19  1  6  0  0  0
  5 16  1  0  0  0  0
  5 13  1  0  0  0  0
  6 17  1  0  0  0  0
  8 10  1  0  0  0  0
  8  2  2  0  0  0  0
  9  1  1  1  0  0  0
  9 33  1  0  0  0  0
 10  3  2  0  0  0  0
 11 14  2  0  0  0  0
 11  4  1  0  0  0  0
 12  7  1  6  0  0  0
 12  9  1  0  0  0  0
 13  9  1  0  0  0  0
 14  6  1  0  0  0  0
 15  6  2  0  0  0  0
 16  4  1  1  0  0  0
 16 12  1  0  0  0  0
 17 18  2  0  0  0  0
 17  7  1  0  0  0  0
 19 22  1  0  0  0  0
 20 21  2  0  0  0  0
 21 23  1  0  0  0  0
 21 22  1  0  0  0  0
 23 24  1  0  0  0  0
 24 32  1  0  0  0  0
 25 29  1  0  0  0  0
 25 30  1  0  0  0  0
 26 31  1  0  0  0  0
 28 30  1  0  0  0  0
 31 29  1  0  0  0  0
 31 27  1  1  0  0  0
 32 31  1  0  0  0  0
 32 28  1  0  0  0  0
 33 34  1  0  0  0  0
 34 40  1  0  0  0  0
 35 39  1  0  0  0  0
 35 40  2  0  0  0  0
 37 36  1  0  0  0  0
 38 36  2  0  0  0  0
 39 38  1  0  0  0  0
 40 37  1  0  0  0  0
M  END
>  <MODEL>
1

>  <REMARK>
 VINA RESULT:      -8.7      0.000      0.000
  Name = 
  8 active torsions:
  status: ('A' for Active; 'I' for Inactive)
    1  A    between atoms: C_3  and  C_14
    2  A    between atoms: C_3  and  N_38
    3  A    between atoms: O_4  and  C_16
    4  A    between atoms: O_4  and  N_37
    5  A    between atoms: C_12  and  C_33
    6  A    between atoms: C_12  and  C_40
    7  A    between atoms: C_16  and  C_21
    8  A    between atoms: C_22  and  C_33
                            x       y       z     vdW  Elec       q    Type
                         _______ _______ _______ _____ _____    ______ ____

>  <TORSDO>
F 8

$$$$
=
 OpenBabel11042411443D

 40 44  0  0  1  0  0  0  0  0999 V2000
  184.9250  180.3940  143.7650 F   0  0  0  0  0  0  0  0  0  0  0  0
  181.0140  176.4950  139.6670 C   0  0  0  0  0  3  0  0  0  0  0  0
  179.2290  178.5340  140.1600 N   0  0  0  0  0  0  0  0  0  0  0  0
  182.6230  177.3940  141.2390 N   0  0  0  0  0  2  0  0  0  0  0  0
  184.8530  178.3420  141.2580 C   0  0  1  0  0  3  0  0  0  0  0  0
  180.5500  179.4790  141.9580 C   0  0  0  0  0  0  0  0  0  0  0  0
  182.3450  179.5180  143.7530 C   0  0  0  0  0  2  0  0  0  0  0  0
  179.8140  176.5560  138.9630 C   0  0  0  0  0  3  0  0  0  0  0  0
  184.8330  179.0160  143.6170 C   0  0  1  0  0  0  0  0  0  0  0  0
  178.9310  177.6040  139.2170 C   0  0  0  0  0  3  0  0  0  0  0  0
  181.3300  177.4680  140.6180 C   0  0  0  0  0  0  0  0  0  0  0  0
  183.4270  178.5850  143.2090 C   0  0  2  0  0  3  0  0  0  0  0  0
  185.7390  178.6020  142.4720 C   0  0  0  0  0  2  0  0  0  0  0  0
  180.3820  178.4910  140.8810 C   0  0  0  0  0  0  0  0  0  0  0  0
  180.3030  180.6920  141.7280 O   0  0  0  0  0  0  0  0  0  0  0  0
  183.4120  178.5340  141.6910 C   0  0  2  0  0  3  0  0  0  0  0  0
  180.9960  179.0770  143.2990 C   0  0  0  0  0  0  0  0  0  0  0  0
  180.3940  178.0750  143.9320 C   0  0  0  0  0  2  0  0  0  0  0  0
  185.1830  179.3120  140.1320 C   0  0  0  0  0  2  0  0  0  0  0  0
  187.8970  178.5690  139.7000 O   0  0  0  0  0  0  0  0  0  0  0  0
  187.0490  178.2170  138.8360 C   0  0  0  0  0  0  0  0  0  0  0  0
  185.6750  178.5770  138.9780 N   0  0  0  0  0  2  0  0  0  0  0  0
  187.4910  177.4580  137.6360 C   0  0  0  0  0  2  0  0  0  0  0  0
  186.3710  176.9800  136.9430 O   0  0  0  0  0  0  0  0  0  0  0  0
  186.0090  173.1440  137.6990 O   0  0  0  0  0  0  0  0  0  0  0  0
  183.8670  175.7220  137.6700 N   0  0  0  0  0  1  0  0  0  0  0  0
  184.6760  175.5120  135.3930 C   0  0  0  0  0  1  0  0  0  0  0  0
  187.3560  174.9280  136.7460 C   0  0  0  0  0  2  0  0  0  0  0  0
  184.8920  173.6280  136.9880 C   0  0  0  0  0  2  0  0  0  0  0  0
  187.1370  173.4150  136.9050 C   0  0  0  0  0  2  0  0  0  0  0  0
  184.9350  175.1600  136.8580 C   0  0  2  0  0  0  0  0  0  0  0  0
  186.2390  175.6840  137.3320 N   0  0  0  0  0  0  0  0  0  0  0  0
  185.2990  178.2990  144.8860 C   0  0  0  0  0  2  0  0  0  0  0  0
  186.5770  177.4810  144.6950 C   0  0  0  0  0  2  0  0  0  0  0  0
  188.7070  177.2100  145.8020 N   0  0  0  0  0  0  0  0  0  0  0  0
  187.8220  178.2700  148.2410 C   0  0  0  0  0  3  0  0  0  0  0  0
  186.9410  178.0500  147.1390 N   0  0  0  0  0  0  0  0  0  0  0  0
  189.1010  177.9060  148.1560 C   0  0  0  0  0  3  0  0  0  0  0  0
  189.6400  177.2030  146.9350 C   0  0  0  0  0  3  0  0  0  0  0  0
  187.4550  177.5480  145.9010 C   0  0  0  0  0  0  0  0  0  0  0  0
  2 11  1  0  0  0  0
  3 14  1  0  0  0  0
  5 19  1  6  0  0  0
  5 16  1  0  0  0  0
  5 13  1  0  0  0  0
  6 17  1  0  0  0  0
  8 10  1  0  0  0  0
  8  2  2  0  0  0  0
  9  1  1  1  0  0  0
  9 33  1  0  0  0  0
 10  3  2  0  0  0  0
 11 14  2  0  0  0  0
 11  4  1  0  0  0  0
 12  9  1  0  0  0  0
 12  7  1  6  0  0  0
 13  9  1  0  0  0  0
 14  6  1  0  0  0  0
 15  6  2  0  0  0  0
 16  4  1  1  0  0  0
 16 12  1  0  0  0  0
 17  7  1  0  0  0  0
 17 18  2  0  0  0  0
 21 22  1  0  0  0  0
 21 20  2  0  0  0  0
 22 19  1  0  0  0  0
 23 21  1  0  0  0  0
 24 32  1  0  0  0  0
 24 23  1  0  0  0  0
 28 30  1  0  0  0  0
 28 32  1  0  0  0  0
 29 25  1  0  0  0  0
 30 25  1  0  0  0  0
 31 27  1  6  0  0  0
 31 29  1  0  0  0  0
 31 32  1  0  0  0  0
 31 26  1  0  0  0  0
 34 33  1  0  0  0  0
 34 40  1  0  0  0  0
 35 40  2  0  0  0  0
 35 39  1  0  0  0  0
 37 36  2  0  0  0  0
 38 36  1  0  0  0  0
 39 38  2  0  0  0  0
 40 37  1  0  0  0  0
M  END
>  <MODEL>
2

>  <REMARK>
 VINA RESULT:      -8.5      2.361      3.779
  Name = 
  8 active torsions:
  status: ('A' for Active; 'I' for Inactive)
    1  A    between atoms: C_3  and  C_14
    2  A    between atoms: C_3  and  N_38
    3  A    between atoms: O_4  and  C_16
    4  A    between atoms: O_4  and  N_37
    5  A    between atoms: C_12  and  C_33
    6  A    between atoms: C_12  and  C_40
    7  A    between atoms: C_16  and  C_21
    8  A    between atoms: C_22  and  C_33
                            x       y       z     vdW  Elec       q    Type
                         _______ _______ _______ _____ _____    ______ ____

>  <TORSDO>
F 8

$$$$
=
 OpenBabel11042411443D

 40 44  0  0  1  0  0  0  0  0999 V2000
  184.7790  180.4750  143.8590 F   0  0  0  0  0  0  0  0  0  0  0  0
  181.0230  176.4690  139.7200 C   0  0  0  0  0  3  0  0  0  0  0  0
  179.1930  178.4810  140.1550 N   0  0  0  0  0  0  0  0  0  0  0  0
  182.5830  177.4110  141.3160 N   0  0  0  0  0  2  0  0  0  0  0  0
  184.7950  178.3980  141.3710 C   0  0  1  0  0  3  0  0  0  0  0  0
  180.4600  179.4660  141.9700 C   0  0  0  0  0  0  0  0  0  0  0  0
  182.2160  179.5540  143.8010 C   0  0  0  0  0  2  0  0  0  0  0  0
  179.8380  176.5030  138.9900 C   0  0  0  0  0  3  0  0  0  0  0  0
  184.7150  179.0940  143.7230 C   0  0  1  0  0  0  0  0  0  0  0  0
  178.9310  177.5370  139.2150 C   0  0  0  0  0  3  0  0  0  0  0  0
  181.3020  177.4560  140.6670 C   0  0  0  0  0  0  0  0  0  0  0  0
  183.3250  178.6340  143.2890 C   0  0  2  0  0  3  0  0  0  0  0  0
  185.6510  178.6840  142.6010 C   0  0  0  0  0  2  0  0  0  0  0  0
  180.3310  178.4650  140.9000 C   0  0  0  0  0  0  0  0  0  0  0  0
  180.1970  180.6730  141.7230 O   0  0  0  0  0  0  0  0  0  0  0  0
  183.3430  178.5690  141.7720 C   0  0  2  0  0  3  0  0  0  0  0  0
  180.8840  179.0850  143.3240 C   0  0  0  0  0  0  0  0  0  0  0  0
  180.2870  178.0790  143.9540 C   0  0  0  0  0  2  0  0  0  0  0  0
  185.1330  179.3620  140.2420 C   0  0  0  0  0  2  0  0  0  0  0  0
  183.7900  178.2250  138.0050 O   0  0  0  0  0  0  0  0  0  0  0  0
  185.0460  178.1170  138.0520 C   0  0  0  0  0  0  0  0  0  0  0  0
  185.7790  178.6430  139.1570 N   0  0  0  0  0  2  0  0  0  0  0  0
  185.7640  177.3960  136.9670 C   0  0  0  0  0  2  0  0  0  0  0  0
  186.9230  176.8010  137.4840 O   0  0  0  0  0  0  0  0  0  0  0  0
  189.5500  176.2320  134.6230 O   0  0  0  0  0  0  0  0  0  0  0  0
  189.1690  178.5620  137.0020 N   0  0  0  0  0  1  0  0  0  0  0  0
  189.5380  176.4730  138.1780 C   0  0  0  0  0  1  0  0  0  0  0  0
  187.7630  175.3010  135.9810 C   0  0  0  0  0  2  0  0  0  0  0  0
  190.1720  176.7080  135.7940 C   0  0  0  0  0  2  0  0  0  0  0  0
  188.8940  175.0390  134.9740 C   0  0  0  0  0  2  0  0  0  0  0  0
  189.1330  177.1150  136.8520 C   0  0  2  0  0  0  0  0  0  0  0  0
  187.7720  176.7020  136.4280 N   0  0  0  0  0  0  0  0  0  0  0  0
  185.1660  178.3980  145.0080 C   0  0  0  0  0  2  0  0  0  0  0  0
  186.3840  177.4930  144.8200 C   0  0  0  0  0  2  0  0  0  0  0  0
  186.9510  177.9380  147.1260 N   0  0  0  0  0  0  0  0  0  0  0  0
  189.6930  177.4800  146.7700 C   0  0  0  0  0  3  0  0  0  0  0  0
  188.7690  177.4750  145.6800 N   0  0  0  0  0  0  0  0  0  0  0  0
  189.2740  177.7760  147.9990 C   0  0  0  0  0  3  0  0  0  0  0  0
  187.8430  178.1700  148.2700 C   0  0  0  0  0  3  0  0  0  0  0  0
  187.3730  177.6700  145.9260 C   0  0  0  0  0  0  0  0  0  0  0  0
  2 11  1  0  0  0  0
  3 14  1  0  0  0  0
  5 19  1  6  0  0  0
  5 16  1  0  0  0  0
  5 13  1  0  0  0  0
  6 17  1  0  0  0  0
  8 10  1  0  0  0  0
  8  2  2  0  0  0  0
  9  1  1  1  0  0  0
  9 33  1  0  0  0  0
 10  3  2  0  0  0  0
 11 14  2  0  0  0  0
 11  4  1  0  0  0  0
 12  9  1  0  0  0  0
 12  7  1  6  0  0  0
 13  9  1  0  0  0  0
 14  6  1  0  0  0  0
 15  6  2  0  0  0  0
 16  4  1  1  0  0  0
 16 12  1  0  0  0  0
 17  7  1  0  0  0  0
 17 18  2  0  0  0  0
 20 21  2  0  0  0  0
 21 22  1  0  0  0  0
 22 19  1  0  0  0  0
 23 24  1  0  0  0  0
 23 21  1  0  0  0  0
 25 30  1  0  0  0  0
 25 29  1  0  0  0  0
 28 32  1  0  0  0  0
 29 31  1  0  0  0  0
 30 28  1  0  0  0  0
 31 26  1  0  0  0  0
 31 27  1  1  0  0  0
 32 31  1  0  0  0  0
 32 24  1  0  0  0  0
 34 33  1  0  0  0  0
 34 40  1  0  0  0  0
 35 39  1  0  0  0  0
 36 38  1  0  0  0  0
 37 40  1  0  0  0  0
 37 36  2  0  0  0  0
 38 39  2  0  0  0  0
 40 35  2  0  0  0  0
M  END
>  <MODEL>
3

>  <REMARK>
 VINA RESULT:      -8.5      2.330      3.340
  Name = 
  8 active torsions:
  status: ('A' for Active; 'I' for Inactive)
    1  A    between atoms: C_3  and  C_14
    2  A    between atoms: C_3  and  N_38
    3  A    between atoms: O_4  and  C_16
    4  A    between atoms: O_4  and  N_37
    5  A    between atoms: C_12  and  C_33
    6  A    between atoms: C_12  and  C_40
    7  A    between atoms: C_16  and  C_21
    8  A    between atoms: C_22  and  C_33
                            x       y       z     vdW  Elec       q    Type
                         _______ _______ _______ _____ _____    ______ ____

>  <TORSDO>
F 8

$$$$
=
 OpenBabel11042411443D

 40 44  0  0  1  0  0  0  0  0999 V2000
  188.3160  176.6260  140.3750 F   0  0  0  0  0  0  0  0  0  0  0  0
  182.7410  180.2820  138.6890 C   0  0  0  0  0  3  0  0  0  0  0  0
  182.0740  177.8950  137.4880 N   0  0  0  0  0  0  0  0  0  0  0  0
  184.9490  179.4800  139.2790 N   0  0  0  0  0  2  0  0  0  0  0  0
  186.2620  178.9740  141.2520 C   0  0  1  0  0  3  0  0  0  0  0  0
  184.2970  176.9600  137.7340 C   0  0  0  0  0  0  0  0  0  0  0  0
  186.8020  176.9950  138.1400 C   0  0  0  0  0  2  0  0  0  0  0  0
  181.4670  180.1010  138.1580 C   0  0  0  0  0  3  0  0  0  0  0  0
  188.1560  177.9690  140.0590 C   0  0  1  0  0  0  0  0  0  0  0  0
  181.1440  178.8800  137.5670 C   0  0  0  0  0  3  0  0  0  0  0  0
  183.6870  179.2570  138.6300 C   0  0  0  0  0  0  0  0  0  0  0  0
  187.0040  178.1840  139.0790 C   0  0  2  0  0  3  0  0  0  0  0  0
  187.7630  178.7100  141.3230 C   0  0  0  0  0  2  0  0  0  0  0  0
  183.3350  178.0470  137.9780 C   0  0  0  0  0  0  0  0  0  0  0  0
  183.9540  175.7700  137.9590 O   0  0  0  0  0  0  0  0  0  0  0  0
  185.7660  178.4540  139.9170 C   0  0  2  0  0  3  0  0  0  0  0  0
  185.6480  177.2370  137.2290 C   0  0  0  0  0  0  0  0  0  0  0  0
  185.8170  178.0040  136.1570 C   0  0  0  0  0  2  0  0  0  0  0  0
  185.5340  178.2600  142.3830 C   0  0  0  0  0  2  0  0  0  0  0  0
  185.1340  178.4050  145.1970 O   0  0  0  0  0  0  0  0  0  0  0  0
  186.2160  177.9060  144.7840 C   0  0  0  0  0  0  0  0  0  0  0  0
  186.4920  177.8250  143.3870 N   0  0  0  0  0  2  0  0  0  0  0  0
  187.2330  177.4380  145.7640 C   0  0  0  0  0  2  0  0  0  0  0  0
  188.4420  178.1120  145.5460 O   0  0  0  0  0  0  0  0  0  0  0  0
  191.4800  175.7420  146.2980 O   0  0  0  0  0  0  0  0  0  0  0  0
  189.8580  176.6300  143.5020 N   0  0  0  0  0  1  0  0  0  0  0  0
  190.8370  178.6710  144.3730 C   0  0  0  0  0  1  0  0  0  0  0  0
  190.0220  177.5190  147.0850 C   0  0  0  0  0  2  0  0  0  0  0  0
  191.6800  176.4570  145.1000 C   0  0  0  0  0  2  0  0  0  0  0  0
  191.3020  176.7000  147.3110 C   0  0  0  0  0  2  0  0  0  0  0  0
  190.4170  177.2380  144.6990 C   0  0  2  0  0  0  0  0  0  0  0  0
  189.4110  177.1900  145.7880 N   0  0  0  0  0  0  0  0  0  0  0  0
  189.4630  178.5660  139.5350 C   0  0  0  0  0  2  0  0  0  0  0  0
  190.6120  177.5600  139.4660 C   0  0  0  0  0  2  0  0  0  0  0  0
  190.6810  175.4140  138.3590 N   0  0  0  0  0  0  0  0  0  0  0  0
  189.9070  176.4300  135.8640 C   0  0  0  0  0  3  0  0  0  0  0  0
  190.1650  177.2750  136.9860 N   0  0  0  0  0  2  0  0  0  0  0  0
  190.0970  175.1140  135.9600 C   0  0  0  0  0  3  0  0  0  0  0  0
  190.6430  174.4880  137.2190 C   0  0  0  0  0  2  0  0  0  0  0  0
  190.5130  176.6990  138.2490 C   0  0  0  0  0  0  0  0  0  0  0  0
  3 10  2  0  0  0  0
  3 14  1  0  0  0  0
  5 13  1  0  0  0  0
  5 19  1  1  0  0  0
  6 15  2  0  0  0  0
  6 14  1  0  0  0  0
  8  2  2  0  0  0  0
  9  1  1  1  0  0  0
  9 13  1  0  0  0  0
 10  8  1  0  0  0  0
 11  2  1  0  0  0  0
 11  4  1  0  0  0  0
 12  7  1  1  0  0  0
 12 16  1  0  0  0  0
 12  9  1  0  0  0  0
 14 11  2  0  0  0  0
 16  4  1  6  0  0  0
 16  5  1  0  0  0  0
 17  6  1  0  0  0  0
 17  7  1  0  0  0  0
 18 17  2  0  0  0  0
 19 22  1  0  0  0  0
 21 20  2  0  0  0  0
 21 23  1  0  0  0  0
 22 21  1  0  0  0  0
 24 23  1  0  0  0  0
 24 32  1  0  0  0  0
 25 30  1  0  0  0  0
 26 31  1  0  0  0  0
 28 30  1  0  0  0  0
 29 25  1  0  0  0  0
 31 27  1  6  0  0  0
 31 29  1  0  0  0  0
 31 32  1  0  0  0  0
 32 28  1  0  0  0  0
 33  9  1  0  0  0  0
 34 33  1  0  0  0  0
 36 38  2  0  0  0  0
 36 37  1  0  0  0  0
 37 40  1  0  0  0  0
 38 39  1  0  0  0  0
 39 35  1  0  0  0  0
 40 35  2  0  0  0  0
 40 34  1  0  0  0  0
M  END
>  <MODEL>
4

>  <REMARK>
 VINA RESULT:      -7.9      3.121      6.331
  Name = 
  8 active torsions:
  status: ('A' for Active; 'I' for Inactive)
    1  A    between atoms: C_3  and  C_14
    2  A    between atoms: C_3  and  N_38
    3  A    between atoms: O_4  and  C_16
    4  A    between atoms: O_4  and  N_37
    5  A    between atoms: C_12  and  C_33
    6  A    between atoms: C_12  and  C_40
    7  A    between atoms: C_16  and  C_21
    8  A    between atoms: C_22  and  C_33
                            x       y       z     vdW  Elec       q    Type
                         _______ _______ _______ _____ _____    ______ ____

>  <TORSDO>
F 8

$$$$
=
 OpenBabel11042411443D

 40 44  0  0  1  0  0  0  0  0999 V2000
  191.4350  178.0460  139.0210 F   0  0  0  0  0  0  0  0  0  0  0  0
  187.1690  176.6150  144.2220 C   0  0  0  0  0  3  0  0  0  0  0  0
  188.9350  178.2600  145.5490 N   0  0  0  0  0  0  0  0  0  0  0  0
  188.5170  176.6300  142.2090 N   0  0  0  0  0  2  0  0  0  0  0  0
  188.3890  177.3830  139.9090 C   0  0  1  0  0  3  0  0  0  0  0  0
  190.5700  178.2230  143.7600 C   0  0  0  0  0  0  0  0  0  0  0  0
  191.6870  177.3680  141.6480 C   0  0  0  0  0  2  0  0  0  0  0  0
  186.8890  177.0360  145.5190 C   0  0  0  0  0  3  0  0  0  0  0  0
  190.7260  176.8950  139.3420 C   0  0  1  0  0  0  0  0  0  0  0  0
  187.7880  177.8810  146.1680 C   0  0  0  0  0  3  0  0  0  0  0  0
  188.3370  177.0280  143.5780 C   0  0  0  0  0  0  0  0  0  0  0  0
  190.5370  176.7510  140.8500 C   0  0  2  0  0  3  0  0  0  0  0  0
  189.3300  177.0220  138.7630 C   0  0  0  0  0  2  0  0  0  0  0  0
  189.2490  177.8490  144.2900 C   0  0  0  0  0  0  0  0  0  0  0  0
  190.9640  179.4140  143.8690 O   0  0  0  0  0  0  0  0  0  0  0  0
  189.2080  177.4060  141.1850 C   0  0  2  0  0  3  0  0  0  0  0  0
  191.4400  177.2340  143.1110 C   0  0  0  0  0  0  0  0  0  0  0  0
  191.6980  176.0760  143.7090 C   0  0  0  0  0  2  0  0  0  0  0  0
  187.7590  178.7500  139.6800 C   0  0  0  0  0  2  0  0  0  0  0  0
  186.2060  179.3800  141.9810 O   0  0  0  0  0  0  0  0  0  0  0  0
  185.5940  178.9990  140.9470 C   0  0  0  0  0  0  0  0  0  0  0  0
  186.3110  178.6440  139.7660 N   0  0  0  0  0  2  0  0  0  0  0  0
  184.1110  178.8780  140.9720 C   0  0  0  0  0  2  0  0  0  0  0  0
  183.6490  178.4890  139.7080 O   0  0  0  0  0  0  0  0  0  0  0  0
  179.7550  178.3140  140.1760 O   0  0  0  0  0  0  0  0  0  0  0  0
  181.8300  177.5760  137.6490 N   0  0  0  0  0  1  0  0  0  0  0  0
  182.4250  176.0670  139.4540 C   0  0  0  0  0  1  0  0  0  0  0  0
  181.9400  178.5140  141.2220 C   0  0  0  0  0  2  0  0  0  0  0  0
  180.2260  177.2110  139.4380 C   0  0  0  0  0  2  0  0  0  0  0  0
  180.4310  178.2890  141.4090 C   0  0  0  0  0  2  0  0  0  0  0  0
  181.7150  177.3700  139.0850 C   0  0  2  0  0  0  0  0  0  0  0  0
  182.2940  178.5370  139.7950 N   0  0  0  0  0  0  0  0  0  0  0  0
  191.3910  175.6590  138.7340 C   0  0  0  0  0  2  0  0  0  0  0  0
  192.5260  175.9870  137.7630 C   0  0  0  0  0  2  0  0  0  0  0  0
  194.6200  175.3350  138.7750 N   0  0  0  0  0  0  0  0  0  0  0  0
  194.7150  172.8430  137.4970 C   0  0  0  0  0  3  0  0  0  0  0  0
  193.7020  173.8090  137.2130 N   0  0  0  0  0  0  0  0  0  0  0  0
  195.6990  173.1360  138.3460 C   0  0  0  0  0  3  0  0  0  0  0  0
  195.8110  174.5000  138.9800 C   0  0  0  0  0  3  0  0  0  0  0  0
  193.6760  175.0490  137.9280 C   0  0  0  0  0  0  0  0  0  0  0  0
  2  8  1  0  0  0  0
  3 10  1  0  0  0  0
  4 11  1  0  0  0  0
  5 19  1  6  0  0  0
  5 16  1  0  0  0  0
  6 15  2  0  0  0  0
  6 14  1  0  0  0  0
  7 17  1  0  0  0  0
  8 10  2  0  0  0  0
  9  1  1  6  0  0  0
  9 12  1  0  0  0  0
 11  2  2  0  0  0  0
 11 14  1  0  0  0  0
 12 16  1  0  0  0  0
 12  7  1  1  0  0  0
 13  9  1  0  0  0  0
 13  5  1  0  0  0  0
 14  3  2  0  0  0  0
 16  4  1  1  0  0  0
 17 18  2  0  0  0  0
 17  6  1  0  0  0  0
 19 22  1  0  0  0  0
 21 23  1  0  0  0  0
 21 20  2  0  0  0  0
 22 21  1  0  0  0  0
 24 32  1  0  0  0  0
 24 23  1  0  0  0  0
 25 30  1  0  0  0  0
 26 31  1  0  0  0  0
 28 30  1  0  0  0  0
 29 25  1  0  0  0  0
 31 29  1  0  0  0  0
 31 27  1  1  0  0  0
 31 32  1  0  0  0  0
 32 28  1  0  0  0  0
 33  9  1  0  0  0  0
 34 40  1  0  0  0  0
 34 33  1  0  0  0  0
 35 39  1  0  0  0  0
 36 38  1  0  0  0  0
 37 36  2  0  0  0  0
 37 40  1  0  0  0  0
 38 39  2  0  0  0  0
 40 35  2  0  0  0  0
M  END
>  <MODEL>
5

>  <REMARK>
 VINA RESULT:      -7.9      3.344      9.302
  Name = 
  8 active torsions:
  status: ('A' for Active; 'I' for Inactive)
    1  A    between atoms: C_3  and  C_14
    2  A    between atoms: C_3  and  N_38
    3  A    between atoms: O_4  and  C_16
    4  A    between atoms: O_4  and  N_37
    5  A    between atoms: C_12  and  C_33
    6  A    between atoms: C_12  and  C_40
    7  A    between atoms: C_16  and  C_21
    8  A    between atoms: C_22  and  C_33
                            x       y       z     vdW  Elec       q    Type
                         _______ _______ _______ _____ _____    ______ ____

>  <TORSDO>
F 8

$$$$
=
 OpenBabel11042411443D

 40 44  0  0  1  0  0  0  0  0999 V2000
  189.4340  178.9000  139.3590 F   0  0  0  0  0  0  0  0  0  0  0  0
  187.6090  176.8130  145.6520 C   0  0  0  0  0  3  0  0  0  0  0  0
  189.8400  178.2870  146.3130 N   0  0  0  0  0  0  0  0  0  0  0  0
  188.0130  177.0860  143.2800 N   0  0  0  0  0  2  0  0  0  0  0  0
  186.9910  178.1190  141.3410 C   0  0  1  0  0  3  0  0  0  0  0  0
  190.5950  178.4800  144.0190 C   0  0  0  0  0  0  0  0  0  0  0  0
  190.7070  177.9000  141.5500 C   0  0  0  0  0  2  0  0  0  0  0  0
  187.9050  177.0690  146.9880 C   0  0  0  0  0  3  0  0  0  0  0  0
  188.8650  177.7160  139.8080 C   0  0  1  0  0  0  0  0  0  0  0  0
  189.0300  177.8290  147.3020 C   0  0  0  0  0  3  0  0  0  0  0  0
  188.4290  177.3090  144.6360 C   0  0  0  0  0  0  0  0  0  0  0  0
  189.3030  177.3840  141.2320 C   0  0  2  0  0  3  0  0  0  0  0  0
  187.3610  177.9080  139.8750 C   0  0  0  0  0  2  0  0  0  0  0  0
  189.5910  178.0380  144.9990 C   0  0  0  0  0  0  0  0  0  0  0  0
  191.0570  179.6500  144.0920 O   0  0  0  0  0  0  0  0  0  0  0  0
  188.2610  177.9860  142.1590 C   0  0  2  0  0  3  0  0  0  0  0  0
  191.0750  177.5830  142.9590 C   0  0  0  0  0  0  0  0  0  0  0  0
  191.5000  176.3600  143.2590 C   0  0  0  0  0  2  0  0  0  0  0  0
  186.3890  179.5020  141.5510 C   0  0  0  0  0  2  0  0  0  0  0  0
  185.3510  179.0710  144.1660 O   0  0  0  0  0  0  0  0  0  0  0  0
  184.5260  179.1850  143.2200 C   0  0  0  0  0  0  0  0  0  0  0  0
  184.9780  179.3780  141.8810 N   0  0  0  0  0  2  0  0  0  0  0  0
  183.0680  179.0740  143.4960 C   0  0  0  0  0  2  0  0  0  0  0  0
  182.4080  178.6000  142.3540 O   0  0  0  0  0  0  0  0  0  0  0  0
  179.6120  181.1850  141.3980 O   0  0  0  0  0  0  0  0  0  0  0  0
  181.9680  179.5560  139.6580 N   0  0  0  0  0  1  0  0  0  0  0  0
  180.5070  177.8400  140.5550 C   0  0  0  0  0  1  0  0  0  0  0  0
  180.4830  179.6210  143.0410 C   0  0  0  0  0  2  0  0  0  0  0  0
  179.7460  180.1940  140.4050 C   0  0  0  0  0  2  0  0  0  0  0  0
  179.3140  180.5130  142.5970 C   0  0  0  0  0  2  0  0  0  0  0  0
  180.9630  179.2940  140.6770 C   0  0  2  0  0  0  0  0  0  0  0  0
  181.5360  179.5850  142.0140 N   0  0  0  0  0  0  0  0  0  0  0  0
  189.1620  176.5670  138.8420 C   0  0  0  0  0  2  0  0  0  0  0  0
  189.7030  177.0290  137.4880 C   0  0  0  0  0  2  0  0  0  0  0  0
  191.3790  176.0690  136.0370 N   0  0  0  0  0  0  0  0  0  0  0  0
  193.4020  176.1200  137.9750 C   0  0  0  0  0  3  0  0  0  0  0  0
  192.0530  176.4850  138.2690 N   0  0  0  0  0  2  0  0  0  0  0  0
  193.7240  175.6730  136.7620 C   0  0  0  0  0  3  0  0  0  0  0  0
  192.6790  175.4810  135.6910 C   0  0  0  0  0  2  0  0  0  0  0  0
  191.0690  176.4840  137.2300 C   0  0  0  0  0  0  0  0  0  0  0  0
  2  8  1  0  0  0  0
  3 10  1  0  0  0  0
  4 11  1  0  0  0  0
  5 19  1  6  0  0  0
  5 16  1  0  0  0  0
  6 15  2  0  0  0  0
  6 14  1  0  0  0  0
  7 17  1  0  0  0  0
  8 10  2  0  0  0  0
  9  1  1  6  0  0  0
  9 13  1  0  0  0  0
  9 12  1  0  0  0  0
 11 14  1  0  0  0  0
 11  2  2  0  0  0  0
 12  7  1  1  0  0  0
 12 16  1  0  0  0  0
 13  5  1  0  0  0  0
 14  3  2  0  0  0  0
 16  4  1  1  0  0  0
 17 18  2  0  0  0  0
 17  6  1  0  0  0  0
 19 22  1  0  0  0  0
 21 23  1  0  0  0  0
 21 20  2  0  0  0  0
 22 21  1  0  0  0  0
 24 23  1  0  0  0  0
 25 30  1  0  0  0  0
 26 31  1  0  0  0  0
 29 31  1  0  0  0  0
 29 25  1  0  0  0  0
 30 28  1  0  0  0  0
 31 27  1  6  0  0  0
 31 32  1  0  0  0  0
 32 24  1  0  0  0  0
 32 28  1  0  0  0  0
 33  9  1  0  0  0  0
 34 33  1  0  0  0  0
 35 40  2  0  0  0  0
 36 37  1  0  0  0  0
 38 36  2  0  0  0  0
 39 35  1  0  0  0  0
 39 38  1  0  0  0  0
 40 34  1  0  0  0  0
 40 37  1  0  0  0  0
M  END
>  <MODEL>
6

>  <REMARK>
 VINA RESULT:      -7.8      2.840      9.351
  Name = 
  8 active torsions:
  status: ('A' for Active; 'I' for Inactive)
    1  A    between atoms: C_3  and  C_14
    2  A    between atoms: C_3  and  N_38
    3  A    between atoms: O_4  and  C_16
    4  A    between atoms: O_4  and  N_37
    5  A    between atoms: C_12  and  C_33
    6  A    between atoms: C_12  and  C_40
    7  A    between atoms: C_16  and  C_21
    8  A    between atoms: C_22  and  C_33
                            x       y       z     vdW  Elec       q    Type
                         _______ _______ _______ _____ _____    ______ ____

>  <TORSDO>
F 8

$$$$
=
 OpenBabel11042411443D

 40 44  0  0  1  0  0  0  0  0999 V2000
  189.1550  178.8050  136.8480 F   0  0  0  0  0  0  0  0  0  0  0  0
  185.3890  173.0630  137.2120 C   0  0  0  0  0  3  0  0  0  0  0  0
  183.8580  174.4720  135.4080 N   0  0  0  0  0  0  0  0  0  0  0  0
  186.8550  174.9530  137.5920 N   0  0  0  0  0  2  0  0  0  0  0  0
  189.1690  175.5900  137.2570 C   0  0  1  0  0  3  0  0  0  0  0  0
  185.0160  176.5630  135.8080 C   0  0  0  0  0  0  0  0  0  0  0  0
  186.5090  178.1930  137.0560 C   0  0  0  0  0  2  0  0  0  0  0  0
  184.3300  172.4390  136.5600 C   0  0  0  0  0  3  0  0  0  0  0  0
  188.8920  177.9410  137.9030 C   0  0  1  0  0  0  0  0  0  0  0  0
  183.5760  173.1650  135.6390 C   0  0  0  0  0  3  0  0  0  0  0  0
  185.6940  174.4000  136.9530 C   0  0  0  0  0  0  0  0  0  0  0  0
  187.5160  177.2930  137.7720 C   0  0  2  0  0  3  0  0  0  0  0  0
  189.8910  176.8000  137.8410 C   0  0  0  0  0  2  0  0  0  0  0  0
  184.8730  175.1180  136.0450 C   0  0  0  0  0  0  0  0  0  0  0  0
  184.9820  177.0030  134.6280 O   0  0  0  0  0  0  0  0  0  0  0  0
  187.7220  175.9830  137.0310 C   0  0  2  0  0  3  0  0  0  0  0  0
  185.1940  177.5050  136.9210 C   0  0  0  0  0  0  0  0  0  0  0  0
  184.3680  177.4750  137.9610 C   0  0  0  0  0  2  0  0  0  0  0  0
  189.7990  175.1730  135.9350 C   0  0  0  0  0  2  0  0  0  0  0  0
  191.8890  173.4640  136.8380 O   0  0  0  0  0  0  0  0  0  0  0  0
  192.2120  174.5950  136.3830 C   0  0  0  0  0  0  0  0  0  0  0  0
  191.2140  175.5110  135.9360 N   0  0  0  0  0  2  0  0  0  0  0  0
  193.6450  174.9960  136.3530 C   0  0  0  0  0  2  0  0  0  0  0  0
  194.2000  174.8540  137.6320 O   0  0  0  0  0  0  0  0  0  0  0  0
  198.0130  175.6230  137.1020 O   0  0  0  0  0  0  0  0  0  0  0  0
  196.1410  174.8770  139.7800 N   0  0  0  0  0  1  0  0  0  0  0  0
  196.0120  172.9400  138.3250 C   0  0  0  0  0  1  0  0  0  0  0  0
  195.8820  175.0290  136.0970 C   0  0  0  0  0  2  0  0  0  0  0  0
  197.8310  174.6020  138.0560 C   0  0  0  0  0  2  0  0  0  0  0  0
  197.4010  175.1780  135.9170 C   0  0  0  0  0  2  0  0  0  0  0  0
  196.3440  174.4300  138.4100 C   0  0  2  0  0  0  0  0  0  0  0  0
  195.4970  175.2390  137.5000 N   0  0  0  0  0  0  0  0  0  0  0  0
  189.0560  178.6550  139.2460 C   0  0  0  0  0  2  0  0  0  0  0  0
  188.0290  178.2300  140.2960 C   0  0  0  0  0  2  0  0  0  0  0  0
  189.9810  177.5010  141.5180 N   0  0  0  0  0  0  0  0  0  0  0  0
  188.5650  176.9170  143.8650 C   0  0  0  0  0  3  0  0  0  0  0  0
  187.9130  177.3160  142.6580 N   0  0  0  0  0  0  0  0  0  0  0  0
  189.8860  176.7440  143.8850 C   0  0  0  0  0  3  0  0  0  0  0  0
  190.7190  176.9010  142.6370 C   0  0  0  0  0  3  0  0  0  0  0  0
  188.6890  177.6460  141.5020 C   0  0  0  0  0  0  0  0  0  0  0  0
  3 10  2  0  0  0  0
  3 14  1  0  0  0  0
  5 19  1  6  0  0  0
  5 13  1  0  0  0  0
  6 14  1  0  0  0  0
  6 17  1  0  0  0  0
  8  2  2  0  0  0  0
  9  1  1  6  0  0  0
  9 33  1  0  0  0  0
 10  8  1  0  0  0  0
 11  2  1  0  0  0  0
 11  4  1  0  0  0  0
 12  7  1  6  0  0  0
 12  9  1  0  0  0  0
 13  9  1  0  0  0  0
 14 11  2  0  0  0  0
 15  6  2  0  0  0  0
 16  5  1  0  0  0  0
 16  4  1  1  0  0  0
 16 12  1  0  0  0  0
 17  7  1  0  0  0  0
 17 18  2  0  0  0  0
 19 22  1  0  0  0  0
 21 20  2  0  0  0  0
 22 21  1  0  0  0  0
 23 21  1  0  0  0  0
 23 24  1  0  0  0  0
 25 29  1  0  0  0  0
 28 32  1  0  0  0  0
 29 31  1  0  0  0  0
 30 28  1  0  0  0  0
 30 25  1  0  0  0  0
 31 27  1  6  0  0  0
 31 26  1  0  0  0  0
 32 24  1  0  0  0  0
 32 31  1  0  0  0  0
 33 34  1  0  0  0  0
 34 40  1  0  0  0  0
 35 39  1  0  0  0  0
 36 38  1  0  0  0  0
 37 36  2  0  0  0  0
 39 38  2  0  0  0  0
 40 35  2  0  0  0  0
 40 37  1  0  0  0  0
M  END
>  <MODEL>
7

>  <REMARK>
 VINA RESULT:      -7.5      5.282      7.215
  Name = 
  8 active torsions:
  status: ('A' for Active; 'I' for Inactive)
    1  A    between atoms: C_3  and  C_14
    2  A    between atoms: C_3  and  N_38
    3  A    between atoms: O_4  and  C_16
    4  A    between atoms: O_4  and  N_37
    5  A    between atoms: C_12  and  C_33
    6  A    between atoms: C_12  and  C_40
    7  A    between atoms: C_16  and  C_21
    8  A    between atoms: C_22  and  C_33
                            x       y       z     vdW  Elec       q    Type
                         _______ _______ _______ _____ _____    ______ ____

>  <TORSDO>
F 8

$$$$
=
 OpenBabel11042411443D

 40 44  0  0  1  0  0  0  0  0999 V2000
  190.6460  175.5680  138.9550 F   0  0  0  0  0  0  0  0  0  0  0  0
  185.2450  176.8140  134.8850 C   0  0  0  0  0  3  0  0  0  0  0  0
  184.4350  174.4100  135.9570 N   0  0  0  0  0  0  0  0  0  0  0  0
  187.4170  176.6670  135.9480 N   0  0  0  0  0  2  0  0  0  0  0  0
  188.7320  177.8200  137.6250 C   0  0  1  0  0  3  0  0  0  0  0  0
  186.6090  173.9130  136.9060 C   0  0  0  0  0  0  0  0  0  0  0  0
  189.1190  174.1350  137.2130 C   0  0  0  0  0  2  0  0  0  0  0  0
  183.9550  176.3460  134.6510 C   0  0  0  0  0  3  0  0  0  0  0  0
  190.5520  176.1760  137.7100 C   0  0  1  0  0  0  0  0  0  0  0  0
  183.5590  175.1340  135.2150 C   0  0  0  0  0  3  0  0  0  0  0  0
  186.1350  176.0810  135.6720 C   0  0  0  0  0  0  0  0  0  0  0  0
  189.3980  175.6030  136.8890 C   0  0  2  0  0  3  0  0  0  0  0  0
  190.2180  177.6410  137.9210 C   0  0  0  0  0  2  0  0  0  0  0  0
  185.7090  174.8290  136.1880 C   0  0  0  0  0  0  0  0  0  0  0  0
  186.2080  173.3530  137.9600 O   0  0  0  0  0  0  0  0  0  0  0  0
  188.1890  176.4790  137.1710 C   0  0  2  0  0  3  0  0  0  0  0  0
  187.9650  173.6330  136.4150 C   0  0  0  0  0  0  0  0  0  0  0  0
  188.1570  173.2770  135.1490 C   0  0  0  0  0  2  0  0  0  0  0  0
  187.9860  178.2800  138.8700 C   0  0  0  0  0  2  0  0  0  0  0  0
  187.1670  178.7290  141.5590 O   0  0  0  0  0  0  0  0  0  0  0  0
  187.9270  177.7480  141.3330 C   0  0  0  0  0  0  0  0  0  0  0  0
  188.3940  177.4800  140.0130 N   0  0  0  0  0  2  0  0  0  0  0  0
  188.3740  176.8890  142.4620 C   0  0  0  0  0  2  0  0  0  0  0  0
  189.5750  177.3860  142.9850 O   0  0  0  0  0  0  0  0  0  0  0  0
  189.7440  176.5360  146.8140 O   0  0  0  0  0  0  0  0  0  0  0  0
  191.7430  175.9020  144.2000 N   0  0  0  0  0  1  0  0  0  0  0  0
  191.6950  178.3160  144.4230 C   0  0  0  0  0  1  0  0  0  0  0  0
  188.7360  177.8730  145.0530 C   0  0  0  0  0  2  0  0  0  0  0  0
  191.0190  176.8610  146.3110 C   0  0  0  0  0  2  0  0  0  0  0  0
  188.9180  177.6460  146.5620 C   0  0  0  0  0  2  0  0  0  0  0  0
  190.9950  177.0060  144.7800 C   0  0  2  0  0  0  0  0  0  0  0  0
  189.5990  176.9680  144.2780 N   0  0  0  0  0  0  0  0  0  0  0  0
  191.8800  176.0860  136.9570 C   0  0  0  0  0  2  0  0  0  0  0  0
  193.0980  176.4130  137.8210 C   0  0  0  0  0  2  0  0  0  0  0  0
  194.9240  175.2410  138.8840 N   0  0  0  0  0  0  0  0  0  0  0  0
  194.5320  172.8700  137.4420 C   0  0  0  0  0  3  0  0  0  0  0  0
  193.7840  174.0580  137.1780 N   0  0  0  0  0  0  0  0  0  0  0  0
  195.5010  172.8800  138.3550 C   0  0  0  0  0  3  0  0  0  0  0  0
  195.8800  174.1440  139.0870 C   0  0  0  0  0  3  0  0  0  0  0  0
  193.9940  175.2270  137.9750 C   0  0  0  0  0  0  0  0  0  0  0  0
  2 11  1  0  0  0  0
  3 14  1  0  0  0  0
  5 13  1  0  0  0  0
  5 19  1  1  0  0  0
  6 15  2  0  0  0  0
  8  2  2  0  0  0  0
  8 10  1  0  0  0  0
  9 13  1  0  0  0  0
  9  1  1  1  0  0  0
 10  3  2  0  0  0  0
 11  4  1  0  0  0  0
 11 14  2  0  0  0  0
 12 16  1  0  0  0  0
 12  7  1  1  0  0  0
 12  9  1  0  0  0  0
 14  6  1  0  0  0  0
 16  4  1  6  0  0  0
 16  5  1  0  0  0  0
 17  6  1  0  0  0  0
 17  7  1  0  0  0  0
 18 17  2  0  0  0  0
 19 22  1  0  0  0  0
 21 20  2  0  0  0  0
 21 23  1  0  0  0  0
 22 21  1  0  0  0  0
 23 24  1  0  0  0  0
 24 32  1  0  0  0  0
 26 31  1  0  0  0  0
 28 30  1  0  0  0  0
 29 25  1  0  0  0  0
 30 25  1  0  0  0  0
 31 27  1  6  0  0  0
 31 29  1  0  0  0  0
 32 31  1  0  0  0  0
 32 28  1  0  0  0  0
 33  9  1  0  0  0  0
 33 34  1  0  0  0  0
 34 40  1  0  0  0  0
 35 39  1  0  0  0  0
 36 38  1  0  0  0  0
 37 36  2  0  0  0  0
 37 40  1  0  0  0  0
 38 39  2  0  0  0  0
 40 35  2  0  0  0  0
M  END
>  <MODEL>
8

>  <REMARK>
 VINA RESULT:      -7.4      4.676      8.061
  Name = 
  8 active torsions:
  status: ('A' for Active; 'I' for Inactive)
    1  A    between atoms: C_3  and  C_14
    2  A    between atoms: C_3  and  N_38
    3  A    between atoms: O_4  and  C_16
    4  A    between atoms: O_4  and  N_37
    5  A    between atoms: C_12  and  C_33
    6  A    between atoms: C_12  and  C_40
    7  A    between atoms: C_16  and  C_21
    8  A    between atoms: C_22  and  C_33
                            x       y       z     vdW  Elec       q    Type
                         _______ _______ _______ _____ _____    ______ ____

>  <TORSDO>
F 8

$$$$
=
 OpenBabel11042411443D

 40 44  0  0  1  0  0  0  0  0999 V2000
  189.1580  179.3720  138.3030 F   0  0  0  0  0  0  0  0  0  0  0  0
  186.8290  173.1430  136.5500 C   0  0  0  0  0  3  0  0  0  0  0  0
  185.4630  174.6550  134.6970 N   0  0  0  0  0  0  0  0  0  0  0  0
  187.6970  175.1130  137.6600 N   0  0  0  0  0  2  0  0  0  0  0  0
  189.8180  176.2060  138.0890 C   0  0  1  0  0  3  0  0  0  0  0  0
  185.9890  176.7580  135.7800 C   0  0  0  0  0  0  0  0  0  0  0  0
  186.7460  178.2760  137.6680 C   0  0  0  0  0  2  0  0  0  0  0  0
  186.1170  172.5190  135.5300 C   0  0  0  0  0  3  0  0  0  0  0  0
  188.8700  178.2480  139.0660 C   0  0  1  0  0  0  0  0  0  0  0  0
  185.4450  173.3010  134.5940 C   0  0  0  0  0  3  0  0  0  0  0  0
  186.8690  174.5360  136.6390 C   0  0  0  0  0  0  0  0  0  0  0  0
  187.7450  177.4200  138.4480 C   0  0  2  0  0  3  0  0  0  0  0  0
  190.0910  177.3470  139.0640 C   0  0  0  0  0  2  0  0  0  0  0  0
  186.1310  175.2960  135.6940 C   0  0  0  0  0  0  0  0  0  0  0  0
  186.1220  177.4540  134.7390 O   0  0  0  0  0  0  0  0  0  0  0  0
  188.4080  176.3830  137.5580 C   0  0  2  0  0  3  0  0  0  0  0  0
  185.6900  177.4210  137.0560 C   0  0  0  0  0  0  0  0  0  0  0  0
  184.6800  176.9980  137.8090 C   0  0  0  0  0  2  0  0  0  0  0  0
  190.8080  176.2340  136.9330 C   0  0  0  0  0  2  0  0  0  0  0  0
  193.3790  176.8380  137.9970 O   0  0  0  0  0  0  0  0  0  0  0  0
  193.1250  175.6330  137.7250 C   0  0  0  0  0  0  0  0  0  0  0  0
  191.8650  175.2640  137.1670 N   0  0  0  0  0  2  0  0  0  0  0  0
  194.1650  174.5930  137.9490 C   0  0  0  0  0  2  0  0  0  0  0  0
  195.4370  175.1540  137.7730 O   0  0  0  0  0  0  0  0  0  0  0  0
  197.7160  172.1940  136.5650 O   0  0  0  0  0  0  0  0  0  0  0  0
  198.0430  175.5300  136.5700 N   0  0  0  0  0  1  0  0  0  0  0  0
  197.9020  174.8780  138.9020 C   0  0  0  0  0  1  0  0  0  0  0  0
  195.8020  172.9020  137.8850 C   0  0  0  0  0  2  0  0  0  0  0  0
  198.4850  173.2150  137.1600 C   0  0  0  0  0  2  0  0  0  0  0  0
  196.7870  171.7760  137.5350 C   0  0  0  0  0  2  0  0  0  0  0  0
  197.6270  174.4560  137.4590 C   0  0  2  0  0  0  0  0  0  0  0  0
  196.1910  174.1610  137.2320 N   0  0  0  0  0  0  0  0  0  0  0  0
  188.5570  178.6360  140.5120 C   0  0  0  0  0  2  0  0  0  0  0  0
  189.3430  177.8300  141.5470 C   0  0  0  0  0  2  0  0  0  0  0  0
  189.1860  177.3660  143.9130 N   0  0  0  0  0  0  0  0  0  0  0  0
  186.4300  177.8550  144.0500 C   0  0  0  0  0  3  0  0  0  0  0  0
  187.1470  177.8620  142.8140 N   0  0  0  0  0  0  0  0  0  0  0  0
  187.0560  177.5420  145.1840 C   0  0  0  0  0  3  0  0  0  0  0  0
  188.5080  177.1310  145.1940 C   0  0  0  0  0  3  0  0  0  0  0  0
  188.5620  177.6510  142.8080 C   0  0  0  0  0  0  0  0  0  0  0  0
  2 11  1  0  0  0  0
  3 14  1  0  0  0  0
  5 19  1  6  0  0  0
  5 13  1  0  0  0  0
  6 17  1  0  0  0  0
  8  2  2  0  0  0  0
  9  1  1  6  0  0  0
  9 33  1  0  0  0  0
 10  3  2  0  0  0  0
 10  8  1  0  0  0  0
 11  4  1  0  0  0  0
 12  7  1  6  0  0  0
 12  9  1  0  0  0  0
 13  9  1  0  0  0  0
 14  6  1  0  0  0  0
 14 11  2  0  0  0  0
 15  6  2  0  0  0  0
 16  4  1  1  0  0  0
 16  5  1  0  0  0  0
 16 12  1  0  0  0  0
 17  7  1  0  0  0  0
 17 18  2  0  0  0  0
 19 22  1  0  0  0  0
 21 23  1  0  0  0  0
 21 20  2  0  0  0  0
 22 21  1  0  0  0  0
 24 23  1  0  0  0  0
 25 29  1  0  0  0  0
 25 30  1  0  0  0  0
 26 31  1  0  0  0  0
 29 31  1  0  0  0  0
 30 28  1  0  0  0  0
 31 27  1  1  0  0  0
 32 31  1  0  0  0  0
 32 24  1  0  0  0  0
 32 28  1  0  0  0  0
 33 34  1  0  0  0  0
 34 40  1  0  0  0  0
 35 39  1  0  0  0  0
 36 38  1  0  0  0  0
 37 36  2  0  0  0  0
 38 39  2  0  0  0  0
 40 37  1  0  0  0  0
 40 35  2  0  0  0  0
M  END
>  <MODEL>
9

>  <REMARK>
 VINA RESULT:      -7.4      5.438      7.391
  Name = 
  8 active torsions:
  status: ('A' for Active; 'I' for Inactive)
    1  A    between atoms: C_3  and  C_14
    2  A    between atoms: C_3  and  N_38
    3  A    between atoms: O_4  and  C_16
    4  A    between atoms: O_4  and  N_37
    5  A    between atoms: C_12  and  C_33
    6  A    between atoms: C_12  and  C_40
    7  A    between atoms: C_16  and  C_21
    8  A    between atoms: C_22  and  C_33
                            x       y       z     vdW  Elec       q    Type
                         _______ _______ _______ _____ _____    ______ ____

>  <TORSDO>
F 8

$$$$
