=
 OpenBabel11032420433D

 45 50  0  0  1  0  0  0  0  0999 V2000
  185.3940  179.7670  141.0590 O   0  0  0  0  0  0  0  0  0  0  0  0
  185.3150  178.6030  140.2550 C   0  0  1  0  0  3  0  0  0  0  0  0
  185.6250  178.5420  141.7070 C   0  0  1  0  0  0  0  0  0  0  0  0
  189.6910  177.6520  142.7900 C   0  0  0  0  0  0  0  0  0  0  0  0
  187.3210  177.1300  142.8740 C   0  0  0  0  0  3  0  0  0  0  0  0
  189.4080  178.7450  141.9600 C   0  0  0  0  0  3  0  0  0  0  0  0
  188.6370  176.8370  143.2320 C   0  0  0  0  0  3  0  0  0  0  0  0
  187.0450  178.2350  142.0660 C   0  0  0  0  0  0  0  0  0  0  0  0
  188.0930  179.0420  141.6080 C   0  0  0  0  0  3  0  0  0  0  0  0
  191.5950  177.9220  144.4360 C   0  0  0  0  0  2  0  0  0  0  0  0
  191.9340  177.4310  146.7580 O   0  0  0  0  0  1  0  0  0  0  0  0
  191.1210  177.3210  143.1040 C   0  0  1  0  0  3  0  0  0  0  0  0
  191.9740  175.1820  144.2250 C   0  0  0  0  0  2  0  0  0  0  0  0
  191.3860  175.8150  142.9640 C   0  0  0  0  0  2  0  0  0  0  0  0
  191.1400  177.1060  145.6570 C   0  0  2  0  0  3  0  0  0  0  0  0
  191.1420  175.5890  145.4390 C   0  0  0  0  0  2  0  0  0  0  0  0
  183.1130  178.4040  144.3890 O   0  0  0  0  0  0  0  0  0  0  0  0
  184.5320  178.1180  142.5790 N   0  0  0  0  0  2  0  0  0  0  0  0
  184.2040  178.7030  143.8420 C   0  0  0  0  0  0  0  0  0  0  0  0
  185.1470  179.6250  144.5420 C   0  0  0  0  0  2  0  0  0  0  0  0
  185.4060  179.1710  145.9770 C   0  0  0  0  0  2  0  0  0  0  0  0
  186.1480  177.8430  146.0290 C   0  0  0  0  0  2  0  0  0  0  0  0
  187.5700  177.9940  146.5500 C   0  0  0  0  0  2  0  0  0  0  0  0
  189.0080  178.1370  148.5810 C   0  0  0  0  0  1  0  0  0  0  0  0
  187.6140  177.8320  148.0670 C   0  0  0  0  0  2  0  0  0  0  0  0
  183.9670  178.3170  139.9790 O   0  0  0  0  0  0  0  0  0  0  0  0
  183.8640  178.2670  138.5830 C   0  0  1  0  0  3  0  0  0  0  0  0
  182.9540  176.6160  137.0910 O   0  0  0  0  0  1  0  0  0  0  0  0
  186.3570  176.2490  137.0010 C   0  0  1  0  0  3  0  0  0  0  0  0
  185.2580  177.1630  137.5020 C   0  0  2  0  0  0  0  0  0  0  0  0
  185.2390  178.5880  137.9630 C   0  0  0  0  0  2  0  0  0  0  0  0
  183.9210  176.8030  138.0860 C   0  0  1  0  0  3  0  0  0  0  0  0
  185.4640  177.0100  136.0100 C   0  0  0  0  0  2  0  0  0  0  0  0
  188.1380  176.8030  138.6430 C   0  0  0  0  0  2  0  0  0  0  0  0
  190.1190  176.8260  136.4970 C   0  0  2  0  0  3  0  0  0  0  0  0
  190.5280  176.4690  137.9140 C   0  0  0  0  0  0  0  0  0  0  0  0
  187.7160  176.9170  137.1610 C   0  0  1  0  0  3  0  0  0  0  0  0
  189.5910  176.4720  138.8750 C   0  0  0  0  0  3  0  0  0  0  0  0
  188.7290  176.2790  136.2100 C   0  0  0  0  0  2  0  0  0  0  0  0
  191.0080  176.3250  135.5430 O   0  0  0  0  0  0  0  0  0  0  0  0
  190.3430  175.2260  134.9820 C   0  0  0  0  0  1  0  0  0  0  0  0
  191.9340  176.1410  138.2820 C   0  0  0  0  0  0  0  0  0  0  0  0
  192.3770  174.9700  138.1320 O   0  0  0  0  0  0  0  0  0  0  0  0
  193.7130  176.8780  139.6780 O   0  0  0  0  0  0  0  0  0  0  0  0
  192.8270  177.1720  138.8310 C   0  0  0  0  0  3  0  0  0  0  0  0
  1  3  1  0  0  0  0
  2 26  1  1  0  0  0
  2  1  1  0  0  0  0
  2  3  1  0  0  0  0
  3  8  1  0  0  0  0
  3 18  1  1  0  0  0
  4  7  1  0  0  0  0
  5  7  2  0  0  0  0
  6  4  2  0  0  0  0
  8  5  1  0  0  0  0
  9  6  1  0  0  0  0
  9  8  2  0  0  0  0
 10 15  1  0  0  0  0
 12  4  1  1  0  0  0
 12 10  1  0  0  0  0
 13 16  1  0  0  0  0
 14 12  1  0  0  0  0
 14 13  1  0  0  0  0
 15 11  1  1  0  0  0
 16 15  1  0  0  0  0
 18 19  1  0  0  0  0
 19 17  2  0  0  0  0
 19 20  1  0  0  0  0
 20 21  1  0  0  0  0
 21 22  1  0  0  0  0
 22 23  1  0  0  0  0
 23 25  1  0  0  0  0
 25 24  1  0  0  0  0
 27 26  1  1  0  0  0
 29 33  1  6  0  0  0
 29 37  1  0  0  0  0
 29 30  1  0  0  0  0
 30 33  1  6  0  0  0
 30 31  1  0  0  0  0
 30 32  1  0  0  0  0
 31 27  1  0  0  0  0
 32 28  1  6  0  0  0
 32 27  1  0  0  0  0
 34 38  1  0  0  0  0
 35 40  1  6  0  0  0
 35 36  1  0  0  0  0
 36 42  1  0  0  0  0
 36 38  2  0  0  0  0
 37 39  1  6  0  0  0
 37 34  1  0  0  0  0
 39 35  1  0  0  0  0
 41 40  1  0  0  0  0
 42 45  1  0  0  0  0
 43 42  2  0  0  0  0
 45 44  2  0  0  0  0
M  END
>  <MODEL>
1

>  <REMARK>
 VINA RESULT:      -7.3      0.000      0.000
  Name = 
  14 active torsions:
  status: ('A' for Active; 'I' for Inactive)
    1  A    between atoms: C_2  and  O_32
    2  A    between atoms: C_3  and  C_34
    3  A    between atoms: C_3  and  C_41
    4  A    between atoms: O_4  and  C_24
    5  A    between atoms: C_7  and  C_18
    6  A    between atoms: C_10  and  C_30
    7  A    between atoms: C_13  and  C_29
    8  A    between atoms: C_13  and  C_33
    9  A    between atoms: C_15  and  C_22
   10  A    between atoms: C_15  and  C_40
   11  A    between atoms: C_22  and  C_41
   12  A    between atoms: N_27  and  C_43
   13  A    between atoms: C_31  and  O_32
   14  A    between atoms: C_37  and  C_43
                            x       y       z     vdW  Elec       q    Type
                         _______ _______ _______ _____ _____    ______ ____

>  <TORSDO>
F 14

$$$$
=
 OpenBabel11032420433D

 45 50  0  0  1  0  0  0  0  0999 V2000
  183.9570  177.9840  140.1540 O   0  0  0  0  0  0  0  0  0  0  0  0
  185.1850  178.4250  140.7050 C   0  0  1  0  0  3  0  0  0  0  0  0
  184.7910  178.7300  139.3050 C   0  0  1  0  0  0  0  0  0  0  0  0
  186.8740  176.5830  136.2160 C   0  0  0  0  0  0  0  0  0  0  0  0
  186.8740  178.1830  138.0430 C   0  0  0  0  0  3  0  0  0  0  0  0
  185.5090  176.3540  136.4320 C   0  0  0  0  0  3  0  0  0  0  0  0
  187.5560  177.4920  137.0400 C   0  0  0  0  0  3  0  0  0  0  0  0
  185.5070  177.9680  138.2360 C   0  0  0  0  0  0  0  0  0  0  0  0
  184.8260  177.0490  137.4290 C   0  0  0  0  0  3  0  0  0  0  0  0
  188.9810  175.3010  135.6440 C   0  0  0  0  0  2  0  0  0  0  0  0
  190.1600  173.4370  136.5840 O   0  0  0  0  0  1  0  0  0  0  0  0
  187.5980  175.7770  135.1760 C   0  0  1  0  0  3  0  0  0  0  0  0
  187.3260  173.2700  134.7360 C   0  0  0  0  0  2  0  0  0  0  0  0
  186.7040  174.6610  134.6160 C   0  0  0  0  0  2  0  0  0  0  0  0
  188.9120  174.0620  136.5530 C   0  0  2  0  0  3  0  0  0  0  0  0
  187.8280  173.0530  136.1600 C   0  0  0  0  0  2  0  0  0  0  0  0
  182.6420  181.6570  138.7190 O   0  0  0  0  0  0  0  0  0  0  0  0
  184.3170  180.0900  139.0540 N   0  0  0  0  0  2  0  0  0  0  0  0
  182.9820  180.4480  138.6860 C   0  0  0  0  0  0  0  0  0  0  0  0
  182.0000  179.4230  138.2220 C   0  0  0  0  0  2  0  0  0  0  0  0
  180.6450  179.6020  138.9030 C   0  0  0  0  0  2  0  0  0  0  0  0
  180.7680  179.6220  140.4200 C   0  0  0  0  0  2  0  0  0  0  0  0
  180.5010  178.2580  141.0400 C   0  0  0  0  0  2  0  0  0  0  0  0
  179.7350  179.6930  142.9280 C   0  0  0  0  0  1  0  0  0  0  0  0
  180.3670  178.3660  142.5560 C   0  0  0  0  0  2  0  0  0  0  0  0
  184.9470  179.4990  141.5780 O   0  0  0  0  0  0  0  0  0  0  0  0
  184.1300  178.9910  142.5960 C   0  0  1  0  0  3  0  0  0  0  0  0
  182.8830  180.0620  144.3510 O   0  0  0  0  0  1  0  0  0  0  0  0
  185.7200  178.8010  145.7940 C   0  0  1  0  0  3  0  0  0  0  0  0
  184.9110  178.7820  144.5140 C   0  0  2  0  0  0  0  0  0  0  0  0
  184.8810  177.8630  143.3310 C   0  0  0  0  0  2  0  0  0  0  0  0
  184.1780  179.9080  143.8410 C   0  0  1  0  0  3  0  0  0  0  0  0
  184.3180  178.1770  145.7680 C   0  0  0  0  0  2  0  0  0  0  0  0
  187.4320  177.7450  144.3330 C   0  0  0  0  0  2  0  0  0  0  0  0
  189.0160  177.0440  146.6840 C   0  0  2  0  0  3  0  0  0  0  0  0
  189.6930  177.2840  145.3480 C   0  0  0  0  0  0  0  0  0  0  0  0
  186.8100  177.7390  145.7470 C   0  0  1  0  0  3  0  0  0  0  0  0
  188.9320  177.6010  144.2880 C   0  0  0  0  0  3  0  0  0  0  0  0
  187.8430  177.9990  146.8440 C   0  0  0  0  0  2  0  0  0  0  0  0
  189.8890  177.2140  147.7620 O   0  0  0  0  0  0  0  0  0  0  0  0
  189.2930  178.2110  148.5460 C   0  0  0  0  0  1  0  0  0  0  0  0
  191.1650  177.1550  145.1620 C   0  0  0  0  0  0  0  0  0  0  0  0
  191.8410  176.4030  145.9150 O   0  0  0  0  0  0  0  0  0  0  0  0
  192.0390  179.1470  144.2000 O   0  0  0  0  0  0  0  0  0  0  0  0
  191.8570  177.9030  144.1020 C   0  0  0  0  0  3  0  0  0  0  0  0
  1  2  1  0  0  0  0
  2 26  1  1  0  0  0
  3 18  1  6  0  0  0
  3  1  1  0  0  0  0
  3  2  1  0  0  0  0
  4  6  2  0  0  0  0
  4  7  1  0  0  0  0
  5  8  1  0  0  0  0
  6  9  1  0  0  0  0
  7  5  2  0  0  0  0
  8  3  1  0  0  0  0
  9  8  2  0  0  0  0
 10 15  1  0  0  0  0
 12 10  1  0  0  0  0
 12  4  1  1  0  0  0
 13 16  1  0  0  0  0
 14 13  1  0  0  0  0
 14 12  1  0  0  0  0
 15 11  1  6  0  0  0
 16 15  1  0  0  0  0
 19 17  2  0  0  0  0
 19 18  1  0  0  0  0
 20 19  1  0  0  0  0
 20 21  1  0  0  0  0
 21 22  1  0  0  0  0
 22 23  1  0  0  0  0
 23 25  1  0  0  0  0
 25 24  1  0  0  0  0
 27 26  1  6  0  0  0
 27 31  1  0  0  0  0
 27 32  1  0  0  0  0
 29 33  1  1  0  0  0
 30 31  1  6  0  0  0
 30 33  1  0  0  0  0
 30 29  1  0  0  0  0
 32 28  1  1  0  0  0
 32 30  1  0  0  0  0
 35 39  1  0  0  0  0
 35 40  1  1  0  0  0
 36 35  1  0  0  0  0
 37 34  1  6  0  0  0
 37 29  1  0  0  0  0
 37 39  1  0  0  0  0
 38 34  1  0  0  0  0
 38 36  2  0  0  0  0
 40 41  1  0  0  0  0
 42 36  1  0  0  0  0
 42 43  2  0  0  0  0
 45 44  2  0  0  0  0
 45 42  1  0  0  0  0
M  END
>  <MODEL>
2

>  <REMARK>
 VINA RESULT:      -6.8      2.215      7.912
  Name = 
  14 active torsions:
  status: ('A' for Active; 'I' for Inactive)
    1  A    between atoms: C_2  and  O_32
    2  A    between atoms: C_3  and  C_34
    3  A    between atoms: C_3  and  C_41
    4  A    between atoms: O_4  and  C_24
    5  A    between atoms: C_7  and  C_18
    6  A    between atoms: C_10  and  C_30
    7  A    between atoms: C_13  and  C_29
    8  A    between atoms: C_13  and  C_33
    9  A    between atoms: C_15  and  C_22
   10  A    between atoms: C_15  and  C_40
   11  A    between atoms: C_22  and  C_41
   12  A    between atoms: N_27  and  C_43
   13  A    between atoms: C_31  and  O_32
   14  A    between atoms: C_37  and  C_43
                            x       y       z     vdW  Elec       q    Type
                         _______ _______ _______ _____ _____    ______ ____

>  <TORSDO>
F 14

$$$$
=
 OpenBabel11032420433D

 45 50  0  0  1  0  0  0  0  0999 V2000
  183.6370  178.0990  140.0950 O   0  0  0  0  0  0  0  0  0  0  0  0
  184.9320  178.3900  140.5930 C   0  0  1  0  0  3  0  0  0  0  0  0
  184.5010  178.7880  139.2270 C   0  0  1  0  0  0  0  0  0  0  0  0
  186.1470  176.4710  136.0000 C   0  0  0  0  0  0  0  0  0  0  0  0
  184.3460  176.9350  137.5620 C   0  0  0  0  0  3  0  0  0  0  0  0
  186.8660  177.5530  136.5250 C   0  0  0  0  0  3  0  0  0  0  0  0
  184.8760  176.1780  136.5160 C   0  0  0  0  0  3  0  0  0  0  0  0
  185.0790  177.9970  138.0960 C   0  0  0  0  0  0  0  0  0  0  0  0
  186.3410  178.3060  137.5740 C   0  0  0  0  0  3  0  0  0  0  0  0
  188.2360  175.5510  134.9040 C   0  0  0  0  0  2  0  0  0  0  0  0
  189.9820  174.0390  135.5460 O   0  0  0  0  0  1  0  0  0  0  0  0
  186.7100  175.7150  134.8320 C   0  0  1  0  0  3  0  0  0  0  0  0
  186.8500  173.1690  134.5940 C   0  0  0  0  0  2  0  0  0  0  0  0
  185.9470  174.4030  134.5990 C   0  0  0  0  0  2  0  0  0  0  0  0
  188.6730  174.4170  135.8460 C   0  0  2  0  0  3  0  0  0  0  0  0
  187.7540  173.1900  135.8230 C   0  0  0  0  0  2  0  0  0  0  0  0
  182.6550  181.9200  138.6740 O   0  0  0  0  0  0  0  0  0  0  0  0
  184.1610  180.1980  139.0480 N   0  0  0  0  0  2  0  0  0  0  0  0
  182.9070  180.6940  138.5710 C   0  0  0  0  0  0  0  0  0  0  0  0
  181.9110  179.7940  137.9150 C   0  0  0  0  0  2  0  0  0  0  0  0
  180.6450  180.5550  137.5280 C   0  0  0  0  0  2  0  0  0  0  0  0
  180.3970  180.5210  136.0260 C   0  0  0  0  0  2  0  0  0  0  0  0
  180.3330  181.9160  135.4190 C   0  0  0  0  0  2  0  0  0  0  0  0
  181.0150  184.2620  135.9070 C   0  0  0  0  0  1  0  0  0  0  0  0
  180.4500  182.9860  136.5000 C   0  0  0  0  0  2  0  0  0  0  0  0
  184.8520  179.4480  141.5130 O   0  0  0  0  0  0  0  0  0  0  0  0
  184.0570  178.9800  142.5670 C   0  0  1  0  0  3  0  0  0  0  0  0
  182.8780  180.1170  144.3270 O   0  0  0  0  0  1  0  0  0  0  0  0
  185.7360  178.8490  145.7220 C   0  0  1  0  0  3  0  0  0  0  0  0
  184.8900  178.8090  144.4660 C   0  0  2  0  0  0  0  0  0  0  0  0
  184.8130  177.8600  143.3100 C   0  0  0  0  0  2  0  0  0  0  0  0
  184.1550  179.9290  143.7850 C   0  0  1  0  0  3  0  0  0  0  0  0
  184.3250  178.2470  145.7530 C   0  0  0  0  0  2  0  0  0  0  0  0
  187.4930  177.8300  144.2900 C   0  0  0  0  0  2  0  0  0  0  0  0
  188.9560  176.9860  146.6730 C   0  0  2  0  0  3  0  0  0  0  0  0
  189.6970  177.2760  145.3810 C   0  0  0  0  0  0  0  0  0  0  0  0
  186.8080  177.7690  145.6730 C   0  0  1  0  0  3  0  0  0  0  0  0
  188.9920  177.6580  144.3050 C   0  0  0  0  0  3  0  0  0  0  0  0
  187.7940  177.9560  146.8270 C   0  0  0  0  0  2  0  0  0  0  0  0
  189.7820  177.0880  147.7960 O   0  0  0  0  0  0  0  0  0  0  0  0
  189.2260  178.1300  148.5510 C   0  0  0  0  0  1  0  0  0  0  0  0
  191.1740  177.1270  145.2550 C   0  0  0  0  0  0  0  0  0  0  0  0
  191.9330  178.1210  145.4140 O   0  0  0  0  0  0  0  0  0  0  0  0
  191.8690  175.4240  143.7470 O   0  0  0  0  0  0  0  0  0  0  0  0
  191.7730  175.8220  144.9390 C   0  0  0  0  0  3  0  0  0  0  0  0
  1  2  1  0  0  0  0
  2 26  1  1  0  0  0
  3 18  1  6  0  0  0
  3  1  1  0  0  0  0
  3  2  1  0  0  0  0
  4  7  2  0  0  0  0
  4  6  1  0  0  0  0
  5  8  2  0  0  0  0
  6  9  2  0  0  0  0
  7  5  1  0  0  0  0
  8  3  1  0  0  0  0
  9  8  1  0  0  0  0
 10 15  1  0  0  0  0
 12 10  1  0  0  0  0
 12  4  1  1  0  0  0
 13 14  1  0  0  0  0
 13 16  1  0  0  0  0
 14 12  1  0  0  0  0
 15 11  1  6  0  0  0
 16 15  1  0  0  0  0
 19 17  2  0  0  0  0
 19 18  1  0  0  0  0
 20 19  1  0  0  0  0
 21 20  1  0  0  0  0
 22 21  1  0  0  0  0
 23 22  1  0  0  0  0
 23 25  1  0  0  0  0
 24 25  1  0  0  0  0
 27 26  1  6  0  0  0
 27 31  1  0  0  0  0
 27 32  1  0  0  0  0
 29 33  1  1  0  0  0
 30 31  1  6  0  0  0
 30 29  1  0  0  0  0
 30 33  1  0  0  0  0
 32 28  1  1  0  0  0
 32 30  1  0  0  0  0
 34 38  1  0  0  0  0
 35 39  1  0  0  0  0
 35 40  1  1  0  0  0
 36 35  1  0  0  0  0
 37 34  1  6  0  0  0
 37 29  1  0  0  0  0
 37 39  1  0  0  0  0
 38 36  2  0  0  0  0
 40 41  1  0  0  0  0
 42 36  1  0  0  0  0
 42 43  2  0  0  0  0
 44 45  2  0  0  0  0
 45 42  1  0  0  0  0
M  END
>  <MODEL>
3

>  <REMARK>
 VINA RESULT:      -6.8      2.649      8.707
  Name = 
  14 active torsions:
  status: ('A' for Active; 'I' for Inactive)
    1  A    between atoms: C_2  and  O_32
    2  A    between atoms: C_3  and  C_34
    3  A    between atoms: C_3  and  C_41
    4  A    between atoms: O_4  and  C_24
    5  A    between atoms: C_7  and  C_18
    6  A    between atoms: C_10  and  C_30
    7  A    between atoms: C_13  and  C_29
    8  A    between atoms: C_13  and  C_33
    9  A    between atoms: C_15  and  C_22
   10  A    between atoms: C_15  and  C_40
   11  A    between atoms: C_22  and  C_41
   12  A    between atoms: N_27  and  C_43
   13  A    between atoms: C_31  and  O_32
   14  A    between atoms: C_37  and  C_43
                            x       y       z     vdW  Elec       q    Type
                         _______ _______ _______ _____ _____    ______ ____

>  <TORSDO>
F 14

$$$$
=
 OpenBabel11032420433D

 45 50  0  0  1  0  0  0  0  0999 V2000
  184.9450  179.7880  139.0110 O   0  0  0  0  0  0  0  0  0  0  0  0
  184.3970  179.0210  140.0690 C   0  0  1  0  0  3  0  0  0  0  0  0
  185.2860  178.4250  139.0390 C   0  0  1  0  0  0  0  0  0  0  0  0
  183.4310  175.8980  136.0950 C   0  0  0  0  0  0  0  0  0  0  0  0
  185.0770  176.2420  137.8470 C   0  0  0  0  0  3  0  0  0  0  0  0
  182.9670  177.2050  136.2910 C   0  0  0  0  0  3  0  0  0  0  0  0
  184.4810  175.4170  136.8920 C   0  0  0  0  0  3  0  0  0  0  0  0
  184.6240  177.5510  138.0210 C   0  0  0  0  0  0  0  0  0  0  0  0
  183.5650  178.0310  137.2410 C   0  0  0  0  0  3  0  0  0  0  0  0
  182.9180  173.5160  135.4080 C   0  0  0  0  0  2  0  0  0  0  0  0
  181.8910  171.6160  136.4510 O   0  0  0  0  0  1  0  0  0  0  0  0
  182.7290  175.0110  135.1080 C   0  0  1  0  0  3  0  0  0  0  0  0
  180.2690  174.3050  135.1810 C   0  0  0  0  0  2  0  0  0  0  0  0
  181.2650  175.4350  134.9220 C   0  0  0  0  0  2  0  0  0  0  0  0
  181.9890  173.0070  136.5240 C   0  0  2  0  0  3  0  0  0  0  0  0
  180.5900  173.6320  136.5130 C   0  0  0  0  0  2  0  0  0  0  0  0
  188.9600  178.3480  139.1900 O   0  0  0  0  0  0  0  0  0  0  0  0
  186.6640  178.1680  139.4530 N   0  0  0  0  0  2  0  0  0  0  0  0
  187.8260  178.3920  138.6500 C   0  0  0  0  0  0  0  0  0  0  0  0
  187.7240  178.6340  137.1800 C   0  0  0  0  0  2  0  0  0  0  0  0
  189.0380  178.3140  136.4710 C   0  0  0  0  0  2  0  0  0  0  0  0
  188.9030  177.1270  135.5270 C   0  0  0  0  0  2  0  0  0  0  0  0
  187.4540  176.8410  135.1610 C   0  0  0  0  0  2  0  0  0  0  0  0
  188.2390  174.4820  135.3190 C   0  0  0  0  0  1  0  0  0  0  0  0
  187.3020  175.4310  134.5970 C   0  0  0  0  0  2  0  0  0  0  0  0
  185.0770  179.3180  141.2620 O   0  0  0  0  0  0  0  0  0  0  0  0
  184.2300  178.9060  142.2990 C   0  0  1  0  0  3  0  0  0  0  0  0
  182.9840  180.1320  143.9480 O   0  0  0  0  0  1  0  0  0  0  0  0
  185.7610  178.9060  145.5300 C   0  0  1  0  0  3  0  0  0  0  0  0
  184.9730  178.8150  144.2400 C   0  0  2  0  0  0  0  0  0  0  0  0
  184.9390  177.8150  143.1260 C   0  0  0  0  0  2  0  0  0  0  0  0
  184.2820  179.9090  143.4750 C   0  0  1  0  0  3  0  0  0  0  0  0
  184.3440  178.3180  145.5240 C   0  0  0  0  0  2  0  0  0  0  0  0
  187.6600  177.8960  144.2850 C   0  0  0  0  0  2  0  0  0  0  0  0
  188.8390  176.9920  146.7990 C   0  0  2  0  0  3  0  0  0  0  0  0
  189.7230  177.2980  145.6050 C   0  0  0  0  0  0  0  0  0  0  0  0
  186.8230  177.8160  145.5810 C   0  0  1  0  0  3  0  0  0  0  0  0
  189.1460  177.7090  144.4640 C   0  0  0  0  0  3  0  0  0  0  0  0
  187.6750  177.9710  146.8410 C   0  0  0  0  0  2  0  0  0  0  0  0
  189.5330  177.0630  148.0100 O   0  0  0  0  0  0  0  0  0  0  0  0
  189.1170  178.2710  148.5860 C   0  0  0  0  0  1  0  0  0  0  0  0
  191.2030  177.1360  145.6430 C   0  0  0  0  0  0  0  0  0  0  0  0
  191.9500  177.9410  145.0220 O   0  0  0  0  0  0  0  0  0  0  0  0
  192.5410  176.2670  147.4070 O   0  0  0  0  0  0  0  0  0  0  0  0
  191.8200  176.0360  146.3990 C   0  0  0  0  0  3  0  0  0  0  0  0
  1  3  1  0  0  0  0
  1  2  1  0  0  0  0
  2 26  1  1  0  0  0
  3 18  1  1  0  0  0
  3  2  1  0  0  0  0
  4  6  2  0  0  0  0
  4  7  1  0  0  0  0
  5  8  1  0  0  0  0
  6  9  1  0  0  0  0
  7  5  2  0  0  0  0
  8  3  1  0  0  0  0
  9  8  2  0  0  0  0
 10 15  1  0  0  0  0
 12 10  1  0  0  0  0
 12  4  1  1  0  0  0
 13 16  1  0  0  0  0
 14 12  1  0  0  0  0
 14 13  1  0  0  0  0
 15 11  1  6  0  0  0
 16 15  1  0  0  0  0
 19 17  2  0  0  0  0
 19 18  1  0  0  0  0
 20 19  1  0  0  0  0
 21 20  1  0  0  0  0
 22 21  1  0  0  0  0
 23 22  1  0  0  0  0
 25 23  1  0  0  0  0
 25 24  1  0  0  0  0
 27 26  1  6  0  0  0
 27 31  1  0  0  0  0
 27 32  1  0  0  0  0
 29 33  1  1  0  0  0
 29 37  1  0  0  0  0
 30 31  1  6  0  0  0
 30 33  1  0  0  0  0
 30 29  1  0  0  0  0
 32 28  1  1  0  0  0
 32 30  1  0  0  0  0
 34 38  1  0  0  0  0
 35 39  1  0  0  0  0
 35 40  1  1  0  0  0
 36 42  1  0  0  0  0
 36 35  1  0  0  0  0
 37 34  1  6  0  0  0
 37 39  1  0  0  0  0
 38 36  2  0  0  0  0
 40 41  1  0  0  0  0
 42 45  1  0  0  0  0
 43 42  2  0  0  0  0
 45 44  2  0  0  0  0
M  END
>  <MODEL>
4

>  <REMARK>
 VINA RESULT:      -6.7      2.428      9.354
  Name = 
  14 active torsions:
  status: ('A' for Active; 'I' for Inactive)
    1  A    between atoms: C_2  and  O_32
    2  A    between atoms: C_3  and  C_34
    3  A    between atoms: C_3  and  C_41
    4  A    between atoms: O_4  and  C_24
    5  A    between atoms: C_7  and  C_18
    6  A    between atoms: C_10  and  C_30
    7  A    between atoms: C_13  and  C_29
    8  A    between atoms: C_13  and  C_33
    9  A    between atoms: C_15  and  C_22
   10  A    between atoms: C_15  and  C_40
   11  A    between atoms: C_22  and  C_41
   12  A    between atoms: N_27  and  C_43
   13  A    between atoms: C_31  and  O_32
   14  A    between atoms: C_37  and  C_43
                            x       y       z     vdW  Elec       q    Type
                         _______ _______ _______ _____ _____    ______ ____

>  <TORSDO>
F 14

$$$$
=
 OpenBabel11032420433D

 45 50  0  0  1  0  0  0  0  0999 V2000
  184.7880  179.7330  141.3790 O   0  0  0  0  0  0  0  0  0  0  0  0
  184.4480  178.5640  140.6540 C   0  0  1  0  0  3  0  0  0  0  0  0
  185.0150  178.5070  142.0270 C   0  0  1  0  0  0  0  0  0  0  0  0
  189.1120  177.2270  142.2850 C   0  0  0  0  0  0  0  0  0  0  0  0
  187.3900  178.6010  141.2640 C   0  0  0  0  0  3  0  0  0  0  0  0
  188.1580  176.7100  143.1700 C   0  0  0  0  0  3  0  0  0  0  0  0
  188.7210  178.1880  141.3400 C   0  0  0  0  0  3  0  0  0  0  0  0
  186.4390  178.0630  142.1350 C   0  0  0  0  0  0  0  0  0  0  0  0
  186.8270  177.1170  143.0900 C   0  0  0  0  0  3  0  0  0  0  0  0
  191.4810  177.9990  142.7300 C   0  0  0  0  0  2  0  0  0  0  0  0
  192.5950  179.1760  144.4970 O   0  0  0  0  0  1  0  0  0  0  0  0
  190.5480  176.8160  142.4320 C   0  0  1  0  0  3  0  0  0  0  0  0
  191.6620  175.9200  144.5570 C   0  0  0  0  0  2  0  0  0  0  0  0
  190.6930  175.6400  143.4090 C   0  0  0  0  0  2  0  0  0  0  0  0
  191.4540  178.4270  144.2070 C   0  0  2  0  0  3  0  0  0  0  0  0
  191.3250  177.2640  145.1970 C   0  0  0  0  0  2  0  0  0  0  0  0
  183.0630  178.6800  145.1390 O   0  0  0  0  0  0  0  0  0  0  0  0
  184.0660  178.2200  143.1000 N   0  0  0  0  0  2  0  0  0  0  0  0
  184.0570  178.8440  144.3880 C   0  0  0  0  0  0  0  0  0  0  0  0
  185.2180  179.6480  144.8730 C   0  0  0  0  0  2  0  0  0  0  0  0
  185.6300  179.2330  146.2830 C   0  0  0  0  0  2  0  0  0  0  0  0
  186.1520  177.8040  146.3280 C   0  0  0  0  0  2  0  0  0  0  0  0
  187.6410  177.7410  146.6380 C   0  0  0  0  0  2  0  0  0  0  0  0
  189.2550  178.2400  148.4700 C   0  0  0  0  0  1  0  0  0  0  0  0
  187.8830  177.6830  148.1430 C   0  0  0  0  0  2  0  0  0  0  0  0
  183.0510  178.4120  140.6410 O   0  0  0  0  0  0  0  0  0  0  0  0
  182.5990  179.1230  139.5220 C   0  0  1  0  0  3  0  0  0  0  0  0
  180.4020  179.8000  138.8210 O   0  0  0  0  0  1  0  0  0  0  0  0
  181.2360  177.0690  136.9320 C   0  0  1  0  0  3  0  0  0  0  0  0
  181.8070  178.0770  137.9080 C   0  0  2  0  0  0  0  0  0  0  0  0
  183.2030  178.4980  138.2490 C   0  0  0  0  0  2  0  0  0  0  0  0
  181.1710  178.6730  139.1320 C   0  0  1  0  0  3  0  0  0  0  0  0
  181.3450  178.5500  136.5460 C   0  0  0  0  0  2  0  0  0  0  0  0
  183.2700  177.1910  135.5100 C   0  0  0  0  0  2  0  0  0  0  0  0
  184.3250  174.7920  136.7960 C   0  0  2  0  0  3  0  0  0  0  0  0
  185.2690  175.8350  136.2280 C   0  0  0  0  0  0  0  0  0  0  0  0
  182.3530  176.2410  136.3110 C   0  0  1  0  0  3  0  0  0  0  0  0
  184.7480  176.9230  135.6410 C   0  0  0  0  0  3  0  0  0  0  0  0
  183.1060  175.4760  137.3990 C   0  0  0  0  0  2  0  0  0  0  0  0
  184.9300  174.0010  137.7770 O   0  0  0  0  0  0  0  0  0  0  0  0
  184.6430  172.6830  137.3980 C   0  0  0  0  0  1  0  0  0  0  0  0
  186.7500  175.6830  136.2750 C   0  0  0  0  0  0  0  0  0  0  0  0
  187.3250  174.8070  135.5730 O   0  0  0  0  0  0  0  0  0  0  0  0
  187.0280  177.3390  137.9600 O   0  0  0  0  0  0  0  0  0  0  0  0
  187.5670  176.5460  137.1400 C   0  0  0  0  0  3  0  0  0  0  0  0
  1  3  1  0  0  0  0
  2 26  1  1  0  0  0
  2  1  1  0  0  0  0
  2  3  1  0  0  0  0
  3  8  1  0  0  0  0
  3 18  1  1  0  0  0
  4  6  1  0  0  0  0
  5  7  1  0  0  0  0
  5  8  2  0  0  0  0
  7  4  2  0  0  0  0
  8  9  1  0  0  0  0
  9  6  2  0  0  0  0
 10 15  1  0  0  0  0
 12  4  1  1  0  0  0
 12 10  1  0  0  0  0
 12 14  1  0  0  0  0
 13 16  1  0  0  0  0
 14 13  1  0  0  0  0
 15 11  1  1  0  0  0
 15 16  1  0  0  0  0
 18 19  1  0  0  0  0
 19 20  1  0  0  0  0
 19 17  2  0  0  0  0
 20 21  1  0  0  0  0
 21 22  1  0  0  0  0
 22 23  1  0  0  0  0
 23 25  1  0  0  0  0
 25 24  1  0  0  0  0
 27 26  1  1  0  0  0
 29 33  1  6  0  0  0
 29 30  1  0  0  0  0
 30 33  1  6  0  0  0
 30 31  1  0  0  0  0
 30 32  1  0  0  0  0
 31 27  1  0  0  0  0
 32 28  1  6  0  0  0
 32 27  1  0  0  0  0
 34 38  1  0  0  0  0
 35 39  1  0  0  0  0
 35 40  1  1  0  0  0
 36 42  1  0  0  0  0
 36 35  1  0  0  0  0
 37 34  1  1  0  0  0
 37 29  1  0  0  0  0
 37 39  1  0  0  0  0
 38 36  2  0  0  0  0
 41 40  1  0  0  0  0
 42 45  1  0  0  0  0
 43 42  2  0  0  0  0
 45 44  2  0  0  0  0
M  END
>  <MODEL>
5

>  <REMARK>
 VINA RESULT:      -6.6      2.125      3.606
  Name = 
  14 active torsions:
  status: ('A' for Active; 'I' for Inactive)
    1  A    between atoms: C_2  and  O_32
    2  A    between atoms: C_3  and  C_34
    3  A    between atoms: C_3  and  C_41
    4  A    between atoms: O_4  and  C_24
    5  A    between atoms: C_7  and  C_18
    6  A    between atoms: C_10  and  C_30
    7  A    between atoms: C_13  and  C_29
    8  A    between atoms: C_13  and  C_33
    9  A    between atoms: C_15  and  C_22
   10  A    between atoms: C_15  and  C_40
   11  A    between atoms: C_22  and  C_41
   12  A    between atoms: N_27  and  C_43
   13  A    between atoms: C_31  and  O_32
   14  A    between atoms: C_37  and  C_43
                            x       y       z     vdW  Elec       q    Type
                         _______ _______ _______ _____ _____    ______ ____

>  <TORSDO>
F 14

$$$$
=
 OpenBabel11032420433D

 45 50  0  0  1  0  0  0  0  0999 V2000
  184.9090  179.6420  139.2630 O   0  0  0  0  0  0  0  0  0  0  0  0
  184.0950  179.3960  140.3970 C   0  0  1  0  0  3  0  0  0  0  0  0
  183.7150  178.9370  139.0360 C   0  0  1  0  0  0  0  0  0  0  0  0
  180.5230  181.1270  137.1640 C   0  0  0  0  0  0  0  0  0  0  0  0
  182.3520  181.0090  138.7570 C   0  0  0  0  0  3  0  0  0  0  0  0
  180.8030  179.8140  136.7630 C   0  0  0  0  0  3  0  0  0  0  0  0
  181.3160  181.7250  138.1560 C   0  0  0  0  0  3  0  0  0  0  0  0
  182.6110  179.6930  138.3690 C   0  0  0  0  0  0  0  0  0  0  0  0
  181.8340  179.0960  137.3680 C   0  0  0  0  0  3  0  0  0  0  0  0
  179.0130  183.1580  137.2160 C   0  0  0  0  0  2  0  0  0  0  0  0
  179.3370  185.5300  137.3570 O   0  0  0  0  0  1  0  0  0  0  0  0
  179.4470  181.8970  136.4550 C   0  0  1  0  0  3  0  0  0  0  0  0
  179.7880  183.6220  134.5940 C   0  0  0  0  0  2  0  0  0  0  0  0
  179.8170  182.1450  134.9850 C   0  0  0  0  0  2  0  0  0  0  0  0
  179.9810  184.3370  137.0230 C   0  0  2  0  0  3  0  0  0  0  0  0
  180.5760  184.4390  135.6140 C   0  0  0  0  0  2  0  0  0  0  0  0
  183.1490  175.3370  138.5410 O   0  0  0  0  0  0  0  0  0  0  0  0
  183.9110  177.5140  138.7620 N   0  0  0  0  0  2  0  0  0  0  0  0
  182.9580  176.4800  139.0240 C   0  0  0  0  0  0  0  0  0  0  0  0
  181.7680  176.7200  139.8940 C   0  0  0  0  0  2  0  0  0  0  0  0
  180.5010  176.1310  139.2780 C   0  0  0  0  0  2  0  0  0  0  0  0
  179.4440  177.1950  139.0190 C   0  0  0  0  0  2  0  0  0  0  0  0
  178.9780  177.8710  140.3010 C   0  0  0  0  0  2  0  0  0  0  0  0
  180.0570  179.7650  141.5100 C   0  0  0  0  0  1  0  0  0  0  0  0
  179.2810  179.3660  140.2690 C   0  0  0  0  0  2  0  0  0  0  0  0
  184.6690  178.3730  141.1710 O   0  0  0  0  0  0  0  0  0  0  0  0
  183.9220  178.3230  142.3550 C   0  0  1  0  0  3  0  0  0  0  0  0
  182.9680  180.0450  143.7340 O   0  0  0  0  0  1  0  0  0  0  0  0
  185.8170  178.9910  145.3130 C   0  0  1  0  0  3  0  0  0  0  0  0
  184.8790  178.6550  144.1720 C   0  0  2  0  0  0  0  0  0  0  0  0
  184.6430  177.4130  143.3690 C   0  0  0  0  0  2  0  0  0  0  0  0
  184.1820  179.5810  143.2160 C   0  0  1  0  0  3  0  0  0  0  0  0
  184.3700  178.5640  145.5950 C   0  0  0  0  0  2  0  0  0  0  0  0
  187.7070  177.7310  144.3050 C   0  0  0  0  0  2  0  0  0  0  0  0
  188.6820  177.0440  146.9700 C   0  0  2  0  0  3  0  0  0  0  0  0
  189.6480  177.1590  145.8070 C   0  0  0  0  0  0  0  0  0  0  0  0
  186.7970  177.8500  145.5470 C   0  0  1  0  0  3  0  0  0  0  0  0
  189.1650  177.4730  144.5950 C   0  0  0  0  0  3  0  0  0  0  0  0
  187.5870  178.0920  146.8330 C   0  0  0  0  0  2  0  0  0  0  0  0
  189.3120  177.2080  148.2070 O   0  0  0  0  0  0  0  0  0  0  0  0
  188.9470  178.4960  148.6230 C   0  0  0  0  0  1  0  0  0  0  0  0
  191.1100  176.9100  145.9540 C   0  0  0  0  0  0  0  0  0  0  0  0
  191.9400  177.5410  145.2440 O   0  0  0  0  0  0  0  0  0  0  0  0
  192.5160  176.2270  147.7470 O   0  0  0  0  0  0  0  0  0  0  0  0
  191.6110  175.9240  146.9230 C   0  0  0  0  0  3  0  0  0  0  0  0
  1  2  1  0  0  0  0
  2 26  1  1  0  0  0
  3 18  1  6  0  0  0
  3  1  1  0  0  0  0
  3  2  1  0  0  0  0
  4  7  1  0  0  0  0
  6  4  2  0  0  0  0
  6  9  1  0  0  0  0
  7  5  2  0  0  0  0
  8  5  1  0  0  0  0
  8  3  1  0  0  0  0
  9  8  2  0  0  0  0
 12  4  1  1  0  0  0
 12 10  1  0  0  0  0
 13 14  1  0  0  0  0
 13 16  1  0  0  0  0
 14 12  1  0  0  0  0
 15 10  1  0  0  0  0
 15 11  1  6  0  0  0
 16 15  1  0  0  0  0
 17 19  2  0  0  0  0
 18 19  1  0  0  0  0
 19 20  1  0  0  0  0
 21 20  1  0  0  0  0
 22 21  1  0  0  0  0
 22 23  1  0  0  0  0
 25 23  1  0  0  0  0
 25 24  1  0  0  0  0
 27 26  1  6  0  0  0
 27 32  1  0  0  0  0
 27 31  1  0  0  0  0
 29 37  1  0  0  0  0
 29 33  1  1  0  0  0
 30 31  1  6  0  0  0
 30 29  1  0  0  0  0
 30 33  1  0  0  0  0
 32 28  1  1  0  0  0
 32 30  1  0  0  0  0
 34 38  1  0  0  0  0
 35 40  1  1  0  0  0
 36 42  1  0  0  0  0
 36 35  1  0  0  0  0
 37 34  1  6  0  0  0
 37 39  1  0  0  0  0
 38 36  2  0  0  0  0
 39 35  1  0  0  0  0
 40 41  1  0  0  0  0
 42 45  1  0  0  0  0
 43 42  2  0  0  0  0
 45 44  2  0  0  0  0
M  END
>  <MODEL>
6

>  <REMARK>
 VINA RESULT:      -6.6      3.914      9.915
  Name = 
  14 active torsions:
  status: ('A' for Active; 'I' for Inactive)
    1  A    between atoms: C_2  and  O_32
    2  A    between atoms: C_3  and  C_34
    3  A    between atoms: C_3  and  C_41
    4  A    between atoms: O_4  and  C_24
    5  A    between atoms: C_7  and  C_18
    6  A    between atoms: C_10  and  C_30
    7  A    between atoms: C_13  and  C_29
    8  A    between atoms: C_13  and  C_33
    9  A    between atoms: C_15  and  C_22
   10  A    between atoms: C_15  and  C_40
   11  A    between atoms: C_22  and  C_41
   12  A    between atoms: N_27  and  C_43
   13  A    between atoms: C_31  and  O_32
   14  A    between atoms: C_37  and  C_43
                            x       y       z     vdW  Elec       q    Type
                         _______ _______ _______ _____ _____    ______ ____

>  <TORSDO>
F 14

$$$$
=
 OpenBabel11032420433D

 45 50  0  0  1  0  0  0  0  0999 V2000
  184.9090  179.6360  139.2340 O   0  0  0  0  0  0  0  0  0  0  0  0
  184.0920  179.4080  140.3690 C   0  0  1  0  0  3  0  0  0  0  0  0
  183.6640  179.0310  138.9970 C   0  0  1  0  0  0  0  0  0  0  0  0
  180.6270  181.5250  137.2510 C   0  0  0  0  0  0  0  0  0  0  0  0
  182.5220  181.2350  138.7420 C   0  0  0  0  0  3  0  0  0  0  0  0
  180.7380  180.1830  136.8680 C   0  0  0  0  0  3  0  0  0  0  0  0
  181.5370  182.0500  138.1820 C   0  0  0  0  0  3  0  0  0  0  0  0
  182.6120  179.8920  138.3730 C   0  0  0  0  0  0  0  0  0  0  0  0
  181.7180  179.3660  137.4320 C   0  0  0  0  0  3  0  0  0  0  0  0
  179.1450  183.5660  137.4670 C   0  0  0  0  0  2  0  0  0  0  0  0
  179.4940  185.8970  137.9090 O   0  0  0  0  0  1  0  0  0  0  0  0
  179.6020  182.3960  136.5840 C   0  0  1  0  0  3  0  0  0  0  0  0
  180.0690  184.3230  134.9640 C   0  0  0  0  0  2  0  0  0  0  0  0
  180.0560  182.8100  135.1760 C   0  0  0  0  0  2  0  0  0  0  0  0
  180.1390  184.7400  137.4680 C   0  0  2  0  0  3  0  0  0  0  0  0
  180.8110  184.9970  136.1150 C   0  0  0  0  0  2  0  0  0  0  0  0
  184.8470  175.7590  137.8040 O   0  0  0  0  0  0  0  0  0  0  0  0
  183.7500  177.6090  138.6670 N   0  0  0  0  0  2  0  0  0  0  0  0
  184.7440  177.0110  137.8300 C   0  0  0  0  0  0  0  0  0  0  0  0
  185.6290  177.8380  136.9570 C   0  0  0  0  0  2  0  0  0  0  0  0
  187.1000  177.4870  137.1640 C   0  0  0  0  0  2  0  0  0  0  0  0
  188.0170  178.6610  136.8520 C   0  0  0  0  0  2  0  0  0  0  0  0
  189.0640  178.8800  137.9350 C   0  0  0  0  0  2  0  0  0  0  0  0
  189.6920  177.3410  139.7910 C   0  0  0  0  0  1  0  0  0  0  0  0
  188.6160  178.2670  139.2580 C   0  0  0  0  0  2  0  0  0  0  0  0
  184.5960  178.3160  141.0950 O   0  0  0  0  0  0  0  0  0  0  0  0
  183.8770  178.2910  142.2970 C   0  0  1  0  0  3  0  0  0  0  0  0
  182.9230  180.0390  143.6430 O   0  0  0  0  0  1  0  0  0  0  0  0
  185.8250  179.0840  145.1890 C   0  0  1  0  0  3  0  0  0  0  0  0
  184.8680  178.6970  144.0810 C   0  0  2  0  0  0  0  0  0  0  0  0
  184.6360  177.4260  143.3220 C   0  0  0  0  0  2  0  0  0  0  0  0
  184.1340  179.5800  143.1120 C   0  0  1  0  0  3  0  0  0  0  0  0
  184.3930  178.6420  145.5170 C   0  0  0  0  0  2  0  0  0  0  0  0
  187.7370  177.8500  144.1910 C   0  0  0  0  0  2  0  0  0  0  0  0
  188.7370  177.2250  146.8630 C   0  0  2  0  0  3  0  0  0  0  0  0
  189.6970  177.3420  145.6930 C   0  0  0  0  0  0  0  0  0  0  0  0
  186.8300  177.9680  145.4360 C   0  0  1  0  0  3  0  0  0  0  0  0
  189.2010  177.6270  144.4790 C   0  0  0  0  0  3  0  0  0  0  0  0
  187.6200  178.2470  146.7150 C   0  0  0  0  0  2  0  0  0  0  0  0
  189.3700  177.4220  148.0940 O   0  0  0  0  0  0  0  0  0  0  0  0
  188.4930  178.2430  148.8150 C   0  0  0  0  0  1  0  0  0  0  0  0
  191.1640  177.1260  145.8370 C   0  0  0  0  0  0  0  0  0  0  0  0
  191.9820  177.8730  145.2340 O   0  0  0  0  0  0  0  0  0  0  0  0
  192.4330  176.2850  147.6640 O   0  0  0  0  0  0  0  0  0  0  0  0
  191.6850  176.0400  146.6790 C   0  0  0  0  0  3  0  0  0  0  0  0
  1  2  1  0  0  0  0
  2 26  1  1  0  0  0
  3 18  1  6  0  0  0
  3  1  1  0  0  0  0
  3  2  1  0  0  0  0
  4  7  1  0  0  0  0
  6  4  2  0  0  0  0
  6  9  1  0  0  0  0
  7  5  2  0  0  0  0
  8  5  1  0  0  0  0
  8  3  1  0  0  0  0
  9  8  2  0  0  0  0
 10 15  1  0  0  0  0
 12  4  1  1  0  0  0
 12 10  1  0  0  0  0
 13 14  1  0  0  0  0
 13 16  1  0  0  0  0
 14 12  1  0  0  0  0
 15 11  1  6  0  0  0
 16 15  1  0  0  0  0
 17 19  2  0  0  0  0
 19 18  1  0  0  0  0
 20 21  1  0  0  0  0
 20 19  1  0  0  0  0
 22 21  1  0  0  0  0
 22 23  1  0  0  0  0
 23 25  1  0  0  0  0
 25 24  1  0  0  0  0
 27 26  1  6  0  0  0
 27 32  1  0  0  0  0
 27 31  1  0  0  0  0
 29 37  1  0  0  0  0
 29 33  1  1  0  0  0
 30 31  1  6  0  0  0
 30 29  1  0  0  0  0
 30 33  1  0  0  0  0
 32 28  1  1  0  0  0
 32 30  1  0  0  0  0
 34 38  1  0  0  0  0
 35 40  1  1  0  0  0
 36 42  1  0  0  0  0
 36 35  1  0  0  0  0
 37 34  1  6  0  0  0
 37 39  1  0  0  0  0
 38 36  2  0  0  0  0
 39 35  1  0  0  0  0
 40 41  1  0  0  0  0
 42 45  1  0  0  0  0
 43 42  2  0  0  0  0
 45 44  2  0  0  0  0
M  END
>  <MODEL>
7

>  <REMARK>
 VINA RESULT:      -6.5      3.541      9.754
  Name = 
  14 active torsions:
  status: ('A' for Active; 'I' for Inactive)
    1  A    between atoms: C_2  and  O_32
    2  A    between atoms: C_3  and  C_34
    3  A    between atoms: C_3  and  C_41
    4  A    between atoms: O_4  and  C_24
    5  A    between atoms: C_7  and  C_18
    6  A    between atoms: C_10  and  C_30
    7  A    between atoms: C_13  and  C_29
    8  A    between atoms: C_13  and  C_33
    9  A    between atoms: C_15  and  C_22
   10  A    between atoms: C_15  and  C_40
   11  A    between atoms: C_22  and  C_41
   12  A    between atoms: N_27  and  C_43
   13  A    between atoms: C_31  and  O_32
   14  A    between atoms: C_37  and  C_43
                            x       y       z     vdW  Elec       q    Type
                         _______ _______ _______ _____ _____    ______ ____

>  <TORSDO>
F 14

$$$$
=
 OpenBabel11032420433D

 45 50  0  0  1  0  0  0  0  0999 V2000
  183.0160  177.9290  140.0920 O   0  0  0  0  0  0  0  0  0  0  0  0
  184.1680  178.2990  140.8300 C   0  0  1  0  0  3  0  0  0  0  0  0
  183.9590  178.7280  139.4230 C   0  0  1  0  0  0  0  0  0  0  0  0
  186.3980  176.8080  136.4470 C   0  0  0  0  0  0  0  0  0  0  0  0
  186.1570  178.3620  138.2970 C   0  0  0  0  0  3  0  0  0  0  0  0
  185.0420  176.4770  136.5630 C   0  0  0  0  0  3  0  0  0  0  0  0
  186.9540  177.7450  137.3320 C   0  0  0  0  0  3  0  0  0  0  0  0
  184.8000  178.0440  138.3920 C   0  0  0  0  0  0  0  0  0  0  0  0
  184.2440  177.0980  137.5230 C   0  0  0  0  0  3  0  0  0  0  0  0
  188.5930  175.6210  136.0240 C   0  0  0  0  0  2  0  0  0  0  0  0
  189.7370  173.7430  136.9810 O   0  0  0  0  0  1  0  0  0  0  0  0
  187.2480  176.0810  135.4450 C   0  0  1  0  0  3  0  0  0  0  0  0
  187.1060  173.5940  134.8530 C   0  0  0  0  0  2  0  0  0  0  0  0
  186.4520  174.9710  134.7430 C   0  0  0  0  0  2  0  0  0  0  0  0
  188.4780  174.3330  136.8570 C   0  0  2  0  0  3  0  0  0  0  0  0
  187.4740  173.3150  136.3080 C   0  0  0  0  0  2  0  0  0  0  0  0
  181.9720  181.7230  138.6420 O   0  0  0  0  0  0  0  0  0  0  0  0
  183.5320  180.1120  139.2310 N   0  0  0  0  0  2  0  0  0  0  0  0
  182.3460  180.5270  138.5460 C   0  0  0  0  0  0  0  0  0  0  0  0
  181.5710  179.5830  137.6880 C   0  0  0  0  0  2  0  0  0  0  0  0
  180.3510  180.2650  137.0720 C   0  0  0  0  0  2  0  0  0  0  0  0
  180.6270  180.7600  135.6590 C   0  0  0  0  0  2  0  0  0  0  0  0
  179.9920  182.1170  135.3870 C   0  0  0  0  0  2  0  0  0  0  0  0
  180.4300  184.5520  135.0990 C   0  0  0  0  0  1  0  0  0  0  0  0
  180.9950  183.2430  135.6150 C   0  0  0  0  0  2  0  0  0  0  0  0
  183.8290  179.3010  141.7540 O   0  0  0  0  0  0  0  0  0  0  0  0
  183.8760  178.6910  143.0150 C   0  0  1  0  0  3  0  0  0  0  0  0
  184.0720  179.5900  145.2350 O   0  0  0  0  0  1  0  0  0  0  0  0
  187.1680  178.4030  144.3810 C   0  0  1  0  0  3  0  0  0  0  0  0
  185.7200  178.4140  143.9390 C   0  0  2  0  0  0  0  0  0  0  0  0
  184.9290  177.5650  142.9920 C   0  0  0  0  0  2  0  0  0  0  0  0
  184.7210  179.5360  143.9960 C   0  0  1  0  0  3  0  0  0  0  0  0
  186.0910  177.7060  145.2240 C   0  0  0  0  0  2  0  0  0  0  0  0
  187.6470  177.6510  142.0610 C   0  0  0  0  0  2  0  0  0  0  0  0
  190.2640  176.6720  142.9120 C   0  0  2  0  0  3  0  0  0  0  0  0
  190.0470  177.1370  141.4840 C   0  0  0  0  0  0  0  0  0  0  0  0
  187.9670  177.4070  143.5530 C   0  0  1  0  0  3  0  0  0  0  0  0
  188.8300  177.5770  141.1280 C   0  0  0  0  0  3  0  0  0  0  0  0
  189.4580  177.5430  143.8640 C   0  0  0  0  0  2  0  0  0  0  0  0
  191.6090  176.7150  143.2880 O   0  0  0  0  0  0  0  0  0  0  0  0
  191.6300  177.5160  144.4380 C   0  0  0  0  0  1  0  0  0  0  0  0
  191.1250  177.0990  140.4570 C   0  0  0  0  0  0  0  0  0  0  0  0
  192.2330  177.6630  140.6720 O   0  0  0  0  0  0  0  0  0  0  0  0
  191.1840  176.9780  138.0820 O   0  0  0  0  0  0  0  0  0  0  0  0
  190.9180  176.4090  139.1760 C   0  0  0  0  0  3  0  0  0  0  0  0
  1  2  1  0  0  0  0
  2 26  1  1  0  0  0
  3 18  1  6  0  0  0
  3  1  1  0  0  0  0
  3  2  1  0  0  0  0
  4  6  2  0  0  0  0
  4  7  1  0  0  0  0
  5  8  1  0  0  0  0
  6  9  1  0  0  0  0
  7  5  2  0  0  0  0
  8  3  1  0  0  0  0
  9  8  2  0  0  0  0
 10 15  1  0  0  0  0
 12 10  1  0  0  0  0
 12  4  1  1  0  0  0
 13 16  1  0  0  0  0
 14 13  1  0  0  0  0
 14 12  1  0  0  0  0
 15 11  1  6  0  0  0
 16 15  1  0  0  0  0
 19 17  2  0  0  0  0
 19 18  1  0  0  0  0
 20 19  1  0  0  0  0
 21 20  1  0  0  0  0
 22 21  1  0  0  0  0
 23 25  1  0  0  0  0
 23 22  1  0  0  0  0
 24 25  1  0  0  0  0
 27 26  1  6  0  0  0
 27 32  1  0  0  0  0
 29 33  1  1  0  0  0
 30 31  1  6  0  0  0
 30 32  1  0  0  0  0
 30 29  1  0  0  0  0
 30 33  1  0  0  0  0
 31 27  1  0  0  0  0
 32 28  1  1  0  0  0
 35 40  1  1  0  0  0
 35 39  1  0  0  0  0
 36 35  1  0  0  0  0
 37 34  1  6  0  0  0
 37 39  1  0  0  0  0
 37 29  1  0  0  0  0
 38 36  2  0  0  0  0
 38 34  1  0  0  0  0
 40 41  1  0  0  0  0
 42 43  2  0  0  0  0
 42 36  1  0  0  0  0
 44 45  2  0  0  0  0
 45 42  1  0  0  0  0
M  END
>  <MODEL>
8

>  <REMARK>
 VINA RESULT:      -6.5      2.777      7.850
  Name = 
  14 active torsions:
  status: ('A' for Active; 'I' for Inactive)
    1  A    between atoms: C_2  and  O_32
    2  A    between atoms: C_3  and  C_34
    3  A    between atoms: C_3  and  C_41
    4  A    between atoms: O_4  and  C_24
    5  A    between atoms: C_7  and  C_18
    6  A    between atoms: C_10  and  C_30
    7  A    between atoms: C_13  and  C_29
    8  A    between atoms: C_13  and  C_33
    9  A    between atoms: C_15  and  C_22
   10  A    between atoms: C_15  and  C_40
   11  A    between atoms: C_22  and  C_41
   12  A    between atoms: N_27  and  C_43
   13  A    between atoms: C_31  and  O_32
   14  A    between atoms: C_37  and  C_43
                            x       y       z     vdW  Elec       q    Type
                         _______ _______ _______ _____ _____    ______ ____

>  <TORSDO>
F 14

$$$$
=
 OpenBabel11032420433D

 45 50  0  0  1  0  0  0  0  0999 V2000
  186.8200  176.5170  144.3780 O   0  0  0  0  0  0  0  0  0  0  0  0
  187.9890  177.2070  143.9710 C   0  0  1  0  0  3  0  0  0  0  0  0
  186.6670  177.8800  144.0730 C   0  0  1  0  0  0  0  0  0  0  0  0
  184.7060  178.7530  140.3470 C   0  0  0  0  0  0  0  0  0  0  0  0
  184.7680  177.5920  142.4790 C   0  0  0  0  0  3  0  0  0  0  0  0
  185.9180  179.3790  140.6660 C   0  0  0  0  0  3  0  0  0  0  0  0
  184.1280  177.8690  141.2710 C   0  0  0  0  0  3  0  0  0  0  0  0
  185.9880  178.2010  142.7800 C   0  0  0  0  0  0  0  0  0  0  0  0
  186.5620  179.0980  141.8710 C   0  0  0  0  0  3  0  0  0  0  0  0
  184.5990  178.4180  137.8410 C   0  0  0  0  0  2  0  0  0  0  0  0
  184.3220  176.5400  136.3740 O   0  0  0  0  0  1  0  0  0  0  0  0
  184.0060  179.1190  139.0710 C   0  0  1  0  0  3  0  0  0  0  0  0
  181.8670  178.0530  138.1520 C   0  0  0  0  0  2  0  0  0  0  0  0
  182.4840  178.9680  139.2090 C   0  0  0  0  0  2  0  0  0  0  0  0
  184.1140  176.9660  137.6870 C   0  0  2  0  0  3  0  0  0  0  0  0
  182.6510  176.7450  138.0850 C   0  0  0  0  0  2  0  0  0  0  0  0
  185.3070  179.3870  147.1400 O   0  0  0  0  0  0  0  0  0  0  0  0
  186.4700  178.7300  145.2460 N   0  0  0  0  0  2  0  0  0  0  0  0
  185.2770  178.7930  146.0330 C   0  0  0  0  0  0  0  0  0  0  0  0
  183.9920  178.2060  145.5490 C   0  0  0  0  0  2  0  0  0  0  0  0
  183.1570  179.2410  144.7980 C   0  0  0  0  0  2  0  0  0  0  0  0
  181.8760  178.6410  144.2350 C   0  0  0  0  0  2  0  0  0  0  0  0
  181.3880  179.3780  142.9970 C   0  0  0  0  0  2  0  0  0  0  0  0
  180.0590  177.7000  141.7200 C   0  0  0  0  0  1  0  0  0  0  0  0
  179.9830  178.9240  142.6120 C   0  0  0  0  0  2  0  0  0  0  0  0
  188.8030  177.4470  145.0900 O   0  0  0  0  0  0  0  0  0  0  0  0
  190.1080  177.1300  144.6900 C   0  0  1  0  0  3  0  0  0  0  0  0
  192.0750  178.4780  144.3880 O   0  0  0  0  0  1  0  0  0  0  0  0
  190.8100  177.8770  141.2640 C   0  0  1  0  0  3  0  0  0  0  0  0
  190.6730  177.4700  142.7160 C   0  0  2  0  0  0  0  0  0  0  0  0
  190.0490  176.2910  143.3970 C   0  0  0  0  0  2  0  0  0  0  0  0
  190.7550  178.3250  143.9490 C   0  0  1  0  0  3  0  0  0  0  0  0
  191.9510  177.1380  141.9770 C   0  0  0  0  0  2  0  0  0  0  0  0
  188.6110  177.5690  140.1480 C   0  0  0  0  0  2  0  0  0  0  0  0
  189.8690  175.8990  138.1100 C   0  0  2  0  0  3  0  0  0  0  0  0
  188.6250  176.7030  137.7810 C   0  0  0  0  0  0  0  0  0  0  0  0
  190.0040  176.9410  140.3730 C   0  0  1  0  0  3  0  0  0  0  0  0
  188.0710  177.4560  138.7440 C   0  0  0  0  0  3  0  0  0  0  0  0
  190.7530  176.6890  139.0640 C   0  0  0  0  0  2  0  0  0  0  0  0
  190.6110  175.5750  136.9710 O   0  0  0  0  0  0  0  0  0  0  0  0
  191.0170  174.2500  137.1780 C   0  0  0  0  0  1  0  0  0  0  0  0
  187.9800  176.6650  136.4390 C   0  0  0  0  0  0  0  0  0  0  0  0
  187.4620  175.5990  136.0080 O   0  0  0  0  0  0  0  0  0  0  0  0
  186.8850  178.1900  134.9780 O   0  0  0  0  0  0  0  0  0  0  0  0
  187.9370  177.8670  135.5920 C   0  0  0  0  0  3  0  0  0  0  0  0
  2  3  1  0  0  0  0
  2  1  1  0  0  0  0
  2 26  1  1  0  0  0
  3  1  1  0  0  0  0
  3 18  1  1  0  0  0
  4  6  2  0  0  0  0
  4  7  1  0  0  0  0
  5  8  1  0  0  0  0
  6  9  1  0  0  0  0
  7  5  2  0  0  0  0
  8  3  1  0  0  0  0
  9  8  2  0  0  0  0
 10 12  1  0  0  0  0
 12 14  1  0  0  0  0
 12  4  1  1  0  0  0
 13 14  1  0  0  0  0
 15 11  1  6  0  0  0
 15 10  1  0  0  0  0
 15 16  1  0  0  0  0
 16 13  1  0  0  0  0
 18 19  1  0  0  0  0
 19 17  2  0  0  0  0
 20 19  1  0  0  0  0
 21 20  1  0  0  0  0
 22 21  1  0  0  0  0
 23 22  1  0  0  0  0
 24 25  1  0  0  0  0
 25 23  1  0  0  0  0
 27 26  1  6  0  0  0
 29 33  1  6  0  0  0
 29 30  1  0  0  0  0
 30 33  1  1  0  0  0
 30 31  1  0  0  0  0
 30 32  1  0  0  0  0
 31 27  1  0  0  0  0
 32 28  1  1  0  0  0
 32 27  1  0  0  0  0
 34 37  1  0  0  0  0
 35 40  1  6  0  0  0
 35 39  1  0  0  0  0
 36 35  1  0  0  0  0
 36 38  2  0  0  0  0
 37 39  1  6  0  0  0
 37 29  1  0  0  0  0
 38 34  1  0  0  0  0
 40 41  1  0  0  0  0
 42 36  1  0  0  0  0
 43 42  2  0  0  0  0
 44 45  2  0  0  0  0
 45 42  1  0  0  0  0
M  END
>  <MODEL>
9

>  <REMARK>
 VINA RESULT:      -6.4      2.189      6.794
  Name = 
  14 active torsions:
  status: ('A' for Active; 'I' for Inactive)
    1  A    between atoms: C_2  and  O_32
    2  A    between atoms: C_3  and  C_34
    3  A    between atoms: C_3  and  C_41
    4  A    between atoms: O_4  and  C_24
    5  A    between atoms: C_7  and  C_18
    6  A    between atoms: C_10  and  C_30
    7  A    between atoms: C_13  and  C_29
    8  A    between atoms: C_13  and  C_33
    9  A    between atoms: C_15  and  C_22
   10  A    between atoms: C_15  and  C_40
   11  A    between atoms: C_22  and  C_41
   12  A    between atoms: N_27  and  C_43
   13  A    between atoms: C_31  and  O_32
   14  A    between atoms: C_37  and  C_43
                            x       y       z     vdW  Elec       q    Type
                         _______ _______ _______ _____ _____    ______ ____

>  <TORSDO>
F 14

$$$$
