=
 OpenBabel11042410273D

 29 30  0  0  1  0  0  0  0  0999 V2000
  189.0260  177.2890  140.5810 C   0  0  0  0  0  3  0  0  0  0  0  0
  187.6330  177.8750  144.6810 C   0  0  1  0  0  3  0  0  0  0  0  0
  190.2910  176.7240  142.9990 C   0  0  0  0  0  0  0  0  0  0  0  0
  188.8770  176.7270  142.8910 C   0  0  0  0  0  0  0  0  0  0  0  0
  189.9610  178.1590  145.6410 C   0  0  0  0  0  2  0  0  0  0  0  0
  191.0710  176.3520  144.2370 C   0  0  0  0  0  2  0  0  0  0  0  0
  188.2970  177.0200  141.6950 N   0  0  0  0  0  0  0  0  0  0  0  0
  191.0450  176.9900  141.8530 C   0  0  0  0  0  3  0  0  0  0  0  0
  188.4650  178.1590  145.9300 C   0  0  0  0  0  2  0  0  0  0  0  0
  187.9780  176.5190  144.0660 C   0  0  0  0  0  2  0  0  0  0  0  0
  190.4180  177.2720  140.6400 C   0  0  0  0  0  0  0  0  0  0  0  0
  190.4490  176.7190  145.5830 C   0  0  1  0  0  3  0  0  0  0  0  0
  191.3870  177.1820  147.7520 N   0  0  0  0  0  1  0  0  0  0  0  0
  192.3280  175.3600  146.6050 N   0  0  0  0  0  2  0  0  0  0  0  0
  191.4030  176.4400  146.6960 C   0  0  0  0  0  0  0  0  0  0  0  0
  185.3290  178.6590  144.3390 C   0  0  0  0  0  3  0  0  0  0  0  0
  186.1850  177.9200  145.0430 C   0  0  0  0  0  3  0  0  0  0  0  0
  183.8830  178.6990  144.7060 C   0  0  0  0  0  2  0  0  0  0  0  0
  183.2610  179.7760  144.0710 O   0  0  0  0  0  0  0  0  0  0  0  0
  181.2410  177.8990  144.2020 F   0  0  0  0  0  0  0  0  0  0  0  0
  181.9290  179.1070  143.2670 P   0  0  1  0  0  0  0  0  0  0  0  0
  180.7770  180.3100  142.9650 O   0  0  0  0  0  1  0  0  0  0  0  0
  182.3860  178.5170  141.9530 O   0  0  0  0  0  0  0  0  0  0  0  0
  191.2260  177.5840  139.4310 C   0  0  0  0  0  2  0  0  0  0  0  0
  190.6780  176.8870  138.2810 N   0  0  0  0  0  2  0  0  0  0  0  0
  191.4730  175.6850  138.1040 C   0  0  0  0  0  2  0  0  0  0  0  0
  192.7200  176.0160  137.3060 C   0  0  0  0  0  2  0  0  0  0  0  0
  193.8380  175.0530  137.6570 C   0  0  0  0  0  2  0  0  0  0  0  0
  194.6190  175.5810  138.6860 O   0  0  0  0  0  1  0  0  0  0  0  0
  1 11  2  0  0  0  0
  1  7  1  0  0  0  0
  2 17  1  1  0  0  0
  2  9  1  0  0  0  0
  3  6  1  0  0  0  0
  4  3  1  0  0  0  0
  4 10  1  0  0  0  0
  5  9  1  0  0  0  0
  6 12  1  0  0  0  0
  7  4  2  0  0  0  0
  8  3  2  0  0  0  0
 10  2  1  0  0  0  0
 11  8  1  0  0  0  0
 12  5  1  0  0  0  0
 12 15  1  1  0  0  0
 14 15  2  0  0  0  0
 15 13  1  0  0  0  0
 16 18  1  0  0  0  0
 16 17  2  0  0  0  0
 19 18  1  0  0  0  0
 21 23  2  6  0  0  0
 21 19  1  0  0  0  0
 21 20  1  0  0  0  0
 22 21  1  0  0  0  0
 24 11  1  0  0  0  0
 25 24  1  0  0  0  0
 26 25  1  0  0  0  0
 27 28  1  0  0  0  0
 27 26  1  0  0  0  0
 28 29  1  0  0  0  0
M  END
>  <MODEL>
1

>  <REMARK>
 VINA RESULT:      -7.2      0.000      0.000
  Name = 
  10 active torsions:
  status: ('A' for Active; 'I' for Inactive)
    1  A    between atoms: C_2  and  C_23
    2  A    between atoms: P_7  and  O_19
    3  A    between atoms: C_13  and  C_16
    4  A    between atoms: C_14  and  C_24
    5  A    between atoms: C_16  and  O_19
    6  A    between atoms: N_18  and  C_20
    7  A    between atoms: N_18  and  C_25
    8  A    between atoms: C_20  and  C_28
    9  A    between atoms: C_24  and  C_25
   10  A    between atoms: C_27  and  C_29
                            x       y       z     vdW  Elec       q    Type
                         _______ _______ _______ _____ _____    ______ ____

>  <TORSDO>
F 10

$$$$
=
 OpenBabel11042410273D

 29 30  0  0  1  0  0  0  0  0999 V2000
  190.6380  177.0280  140.0910 C   0  0  0  0  0  3  0  0  0  0  0  0
  187.8930  177.5930  143.4430 C   0  0  1  0  0  3  0  0  0  0  0  0
  191.0760  176.7500  142.8290 C   0  0  0  0  0  0  0  0  0  0  0  0
  189.7890  176.5520  142.2650 C   0  0  0  0  0  0  0  0  0  0  0  0
  189.7140  178.2380  145.0830 C   0  0  0  0  0  2  0  0  0  0  0  0
  191.4330  176.5420  144.2810 C   0  0  0  0  0  2  0  0  0  0  0  0
  189.6140  176.7100  140.9240 N   0  0  0  0  0  0  0  0  0  0  0  0
  192.1330  177.0660  141.9740 C   0  0  0  0  0  3  0  0  0  0  0  0
  188.2190  178.0430  144.8660 C   0  0  0  0  0  2  0  0  0  0  0  0
  188.5790  176.2730  143.0950 C   0  0  0  0  0  2  0  0  0  0  0  0
  191.9220  177.2070  140.6030 C   0  0  0  0  0  0  0  0  0  0  0  0
  190.3570  176.8790  145.3130 C   0  0  1  0  0  3  0  0  0  0  0  0
  192.1000  176.3230  146.8780 N   0  0  0  0  0  2  0  0  0  0  0  0
  190.1310  177.1960  147.8170 N   0  0  0  0  0  1  0  0  0  0  0  0
  190.9080  176.7820  146.6960 C   0  0  0  0  0  0  0  0  0  0  0  0
  185.6050  178.4880  143.5390 C   0  0  0  0  0  3  0  0  0  0  0  0
  186.4120  177.4540  143.3070 C   0  0  0  0  0  3  0  0  0  0  0  0
  184.1270  178.3420  143.4010 C   0  0  0  0  0  2  0  0  0  0  0  0
  183.6150  179.3880  142.6310 O   0  0  0  0  0  0  0  0  0  0  0  0
  183.9540  177.1880  140.9990 F   0  0  0  0  0  0  0  0  0  0  0  0
  183.7000  178.8440  141.0300 P   0  0  1  0  0  0  0  0  0  0  0  0
  182.2580  179.2080  140.2220 O   0  0  0  0  0  0  0  0  0  0  0  0
  184.8490  179.5340  140.3310 O   0  0  0  0  0  1  0  0  0  0  0  0
  193.0460  177.5750  139.7010 C   0  0  0  0  0  2  0  0  0  0  0  0
  193.4810  176.4070  138.9570 N   0  0  0  0  0  2  0  0  0  0  0  0
  193.3030  176.7180  137.5500 C   0  0  0  0  0  2  0  0  0  0  0  0
  192.1290  175.9300  137.0030 C   0  0  0  0  0  2  0  0  0  0  0  0
  192.1040  174.5390  137.6050 C   0  0  0  0  0  2  0  0  0  0  0  0
  190.8060  174.0280  137.5770 O   0  0  0  0  0  1  0  0  0  0  0  0
  1 11  2  0  0  0  0
  1  7  1  0  0  0  0
  2 17  1  1  0  0  0
  2  9  1  0  0  0  0
  3  6  1  0  0  0  0
  4  3  1  0  0  0  0
  4 10  1  0  0  0  0
  5 12  1  0  0  0  0
  6 12  1  0  0  0  0
  7  4  2  0  0  0  0
  8  3  2  0  0  0  0
  9  5  1  0  0  0  0
 10  2  1  0  0  0  0
 11  8  1  0  0  0  0
 12 15  1  1  0  0  0
 15 13  2  0  0  0  0
 15 14  1  0  0  0  0
 17 16  2  0  0  0  0
 18 16  1  0  0  0  0
 19 18  1  0  0  0  0
 20 21  1  0  0  0  0
 21 22  2  6  0  0  0
 21 19  1  0  0  0  0
 23 21  1  0  0  0  0
 24 11  1  0  0  0  0
 25 24  1  0  0  0  0
 26 25  1  0  0  0  0
 27 26  1  0  0  0  0
 27 28  1  0  0  0  0
 29 28  1  0  0  0  0
M  END
>  <MODEL>
2

>  <REMARK>
 VINA RESULT:      -7.2      1.807      2.047
  Name = 
  10 active torsions:
  status: ('A' for Active; 'I' for Inactive)
    1  A    between atoms: C_2  and  C_23
    2  A    between atoms: P_7  and  O_19
    3  A    between atoms: C_13  and  C_16
    4  A    between atoms: C_14  and  C_24
    5  A    between atoms: C_16  and  O_19
    6  A    between atoms: N_18  and  C_20
    7  A    between atoms: N_18  and  C_25
    8  A    between atoms: C_20  and  C_28
    9  A    between atoms: C_24  and  C_25
   10  A    between atoms: C_27  and  C_29
                            x       y       z     vdW  Elec       q    Type
                         _______ _______ _______ _____ _____    ______ ____

>  <TORSDO>
F 10

$$$$
=
 OpenBabel11042410273D

 29 30  0  0  1  0  0  0  0  0999 V2000
  184.6980  178.6930  140.0240 C   0  0  0  0  0  3  0  0  0  0  0  0
  188.7350  177.3780  141.0590 C   0  0  1  0  0  3  0  0  0  0  0  0
  185.8720  178.3150  142.5230 C   0  0  0  0  0  0  0  0  0  0  0  0
  186.6510  178.6510  141.3870 C   0  0  0  0  0  0  0  0  0  0  0  0
  188.0460  176.3490  143.2700 C   0  0  0  0  0  2  0  0  0  0  0  0
  186.3980  178.1710  143.9310 C   0  0  0  0  0  2  0  0  0  0  0  0
  186.0420  178.8150  140.1810 N   0  0  0  0  0  0  0  0  0  0  0  0
  184.4880  178.1990  142.3680 C   0  0  0  0  0  3  0  0  0  0  0  0
  189.1880  176.6030  142.2940 C   0  0  0  0  0  2  0  0  0  0  0  0
  188.1420  178.7370  141.4280 C   0  0  0  0  0  2  0  0  0  0  0  0
  183.8950  178.3870  141.1210 C   0  0  0  0  0  0  0  0  0  0  0  0
  187.8110  177.6100  144.0870 C   0  0  1  0  0  3  0  0  0  0  0  0
  189.3260  177.0510  145.8730 N   0  0  0  0  0  2  0  0  0  0  0  0
  187.1130  177.5030  146.5210 N   0  0  0  0  0  1  0  0  0  0  0  0
  188.1260  177.3730  145.5260 C   0  0  0  0  0  0  0  0  0  0  0  0
  190.1760  176.6590  139.2020 C   0  0  0  0  0  3  0  0  0  0  0  0
  189.9020  177.5590  140.1450 C   0  0  0  0  0  3  0  0  0  0  0  0
  191.3430  176.8460  138.2920 C   0  0  0  0  0  2  0  0  0  0  0  0
  192.5310  176.6180  138.9880 O   0  0  0  0  0  0  0  0  0  0  0  0
  192.6850  174.4530  137.2840 F   0  0  0  0  0  0  0  0  0  0  0  0
  193.5200  175.7630  137.9110 P   0  0  1  0  0  0  0  0  0  0  0  0
  194.0060  176.7780  136.6470 O   0  0  0  0  0  0  0  0  0  0  0  0
  194.7420  175.2650  138.6460 O   0  0  0  0  0  1  0  0  0  0  0  0
  182.4250  178.2320  140.9560 C   0  0  0  0  0  2  0  0  0  0  0  0
  181.7340  178.9330  142.0240 N   0  0  0  0  0  2  0  0  0  0  0  0
  180.3150  178.7000  141.8260 C   0  0  0  0  0  2  0  0  0  0  0  0
  179.5320  179.3850  142.9300 C   0  0  0  0  0  2  0  0  0  0  0  0
  179.8830  178.7790  144.2750 C   0  0  0  0  0  2  0  0  0  0  0  0
  179.6690  177.4000  144.2500 O   0  0  0  0  0  1  0  0  0  0  0  0
  1  7  2  0  0  0  0
  1 11  1  0  0  0  0
  2 17  1  6  0  0  0
  2 10  1  0  0  0  0
  2  9  1  0  0  0  0
  3  6  1  0  0  0  0
  4 10  1  0  0  0  0
  4  3  2  0  0  0  0
  5 12  1  0  0  0  0
  6 12  1  0  0  0  0
  7  4  1  0  0  0  0
  8  3  1  0  0  0  0
  9  5  1  0  0  0  0
 11  8  2  0  0  0  0
 12 15  1  1  0  0  0
 15 13  2  0  0  0  0
 15 14  1  0  0  0  0
 16 17  2  0  0  0  0
 18 19  1  0  0  0  0
 18 16  1  0  0  0  0
 20 21  1  0  0  0  0
 21 22  2  6  0  0  0
 21 23  1  0  0  0  0
 21 19  1  0  0  0  0
 24 11  1  0  0  0  0
 24 25  1  0  0  0  0
 26 25  1  0  0  0  0
 26 27  1  0  0  0  0
 27 28  1  0  0  0  0
 29 28  1  0  0  0  0
M  END
>  <MODEL>
3

>  <REMARK>
 VINA RESULT:      -7.2      4.583      9.153
  Name = 
  10 active torsions:
  status: ('A' for Active; 'I' for Inactive)
    1  A    between atoms: C_2  and  C_23
    2  A    between atoms: P_7  and  O_19
    3  A    between atoms: C_13  and  C_16
    4  A    between atoms: C_14  and  C_24
    5  A    between atoms: C_16  and  O_19
    6  A    between atoms: N_18  and  C_20
    7  A    between atoms: N_18  and  C_25
    8  A    between atoms: C_20  and  C_28
    9  A    between atoms: C_24  and  C_25
   10  A    between atoms: C_27  and  C_29
                            x       y       z     vdW  Elec       q    Type
                         _______ _______ _______ _____ _____    ______ ____

>  <TORSDO>
F 10

$$$$
=
 OpenBabel11042410273D

 29 30  0  0  1  0  0  0  0  0999 V2000
  184.5360  178.7480  139.8680 C   0  0  0  0  0  3  0  0  0  0  0  0
  188.0440  177.4610  142.1320 C   0  0  1  0  0  3  0  0  0  0  0  0
  184.9820  178.7310  142.6180 C   0  0  0  0  0  0  0  0  0  0  0  0
  186.0560  178.8500  141.6990 C   0  0  0  0  0  0  0  0  0  0  0  0
  186.7230  176.8280  144.1990 C   0  0  0  0  0  2  0  0  0  0  0  0
  185.1100  178.7950  144.1210 C   0  0  0  0  0  2  0  0  0  0  0  0
  185.7970  178.8420  140.3620 N   0  0  0  0  0  0  0  0  0  0  0  0
  183.6830  178.6450  142.1140 C   0  0  0  0  0  3  0  0  0  0  0  0
  188.0960  176.8770  143.5420 C   0  0  0  0  0  2  0  0  0  0  0  0
  187.4860  178.8840  142.1280 C   0  0  0  0  0  2  0  0  0  0  0  0
  183.4520  178.6540  140.7390 C   0  0  0  0  0  0  0  0  0  0  0  0
  186.3840  178.2120  144.7320 C   0  0  1  0  0  3  0  0  0  0  0  0
  185.2360  178.6580  146.8010 N   0  0  0  0  0  2  0  0  0  0  0  0
  187.3600  177.6760  147.0090 N   0  0  0  0  0  1  0  0  0  0  0  0
  186.2930  178.1970  146.2220 C   0  0  0  0  0  0  0  0  0  0  0  0
  189.6160  177.1340  140.2720 C   0  0  0  0  0  3  0  0  0  0  0  0
  189.4190  177.4480  141.5510 C   0  0  0  0  0  3  0  0  0  0  0  0
  190.9930  177.1230  139.6970 C   0  0  0  0  0  2  0  0  0  0  0  0
  190.9300  177.2290  138.3070 O   0  0  0  0  0  0  0  0  0  0  0  0
  193.4200  176.0440  138.4260 F   0  0  0  0  0  0  0  0  0  0  0  0
  191.9020  175.9710  137.7220 P   0  0  1  0  0  0  0  0  0  0  0  0
  191.1870  174.4790  138.0790 O   0  0  0  0  0  1  0  0  0  0  0  0
  192.0440  176.1080  136.2240 O   0  0  0  0  0  0  0  0  0  0  0  0
  182.0680  178.5320  140.2080 C   0  0  0  0  0  2  0  0  0  0  0  0
  181.1490  178.2370  141.2930 N   0  0  0  0  0  2  0  0  0  0  0  0
  180.1750  179.3120  141.3180 C   0  0  0  0  0  2  0  0  0  0  0  0
  179.3890  179.2530  142.6140 C   0  0  0  0  0  2  0  0  0  0  0  0
  180.2710  178.7440  143.7390 C   0  0  0  0  0  2  0  0  0  0  0  0
  179.7170  177.5910  144.2960 O   0  0  0  0  0  1  0  0  0  0  0  0
  1  7  2  0  0  0  0
  1 11  1  0  0  0  0
  2 17  1  1  0  0  0
  2  9  1  0  0  0  0
  3  6  1  0  0  0  0
  4 10  1  0  0  0  0
  4  3  2  0  0  0  0
  5 12  1  0  0  0  0
  6 12  1  0  0  0  0
  7  4  1  0  0  0  0
  8  3  1  0  0  0  0
  9  5  1  0  0  0  0
 10  2  1  0  0  0  0
 11  8  2  0  0  0  0
 12 15  1  1  0  0  0
 15 13  2  0  0  0  0
 15 14  1  0  0  0  0
 16 17  2  0  0  0  0
 18 16  1  0  0  0  0
 19 18  1  0  0  0  0
 21 23  2  6  0  0  0
 21 22  1  0  0  0  0
 21 19  1  0  0  0  0
 21 20  1  0  0  0  0
 24 11  1  0  0  0  0
 24 25  1  0  0  0  0
 25 26  1  0  0  0  0
 26 27  1  0  0  0  0
 27 28  1  0  0  0  0
 28 29  1  0  0  0  0
M  END
>  <MODEL>
4

>  <REMARK>
 VINA RESULT:      -7.1      4.750      8.895
  Name = 
  10 active torsions:
  status: ('A' for Active; 'I' for Inactive)
    1  A    between atoms: C_2  and  C_23
    2  A    between atoms: P_7  and  O_19
    3  A    between atoms: C_13  and  C_16
    4  A    between atoms: C_14  and  C_24
    5  A    between atoms: C_16  and  O_19
    6  A    between atoms: N_18  and  C_20
    7  A    between atoms: N_18  and  C_25
    8  A    between atoms: C_20  and  C_28
    9  A    between atoms: C_24  and  C_25
   10  A    between atoms: C_27  and  C_29
                            x       y       z     vdW  Elec       q    Type
                         _______ _______ _______ _____ _____    ______ ____

>  <TORSDO>
F 10

$$$$
=
 OpenBabel11042410273D

 29 30  0  0  1  0  0  0  0  0999 V2000
  191.2950  176.3500  144.1690 C   0  0  0  0  0  3  0  0  0  0  0  0
  189.8230  177.6280  140.2590 C   0  0  1  0  0  3  0  0  0  0  0  0
  188.7470  177.1740  143.3980 C   0  0  0  0  0  0  0  0  0  0  0  0
  189.6350  176.5680  142.4740 C   0  0  0  0  0  0  0  0  0  0  0  0
  188.0170  179.1300  141.2090 C   0  0  0  0  0  2  0  0  0  0  0  0
  187.3220  177.5780  143.1020 C   0  0  0  0  0  2  0  0  0  0  0  0
  190.8760  176.1900  142.8870 N   0  0  0  0  0  0  0  0  0  0  0  0
  189.1690  177.3310  144.7200 C   0  0  0  0  0  3  0  0  0  0  0  0
  188.7010  178.6170  139.9490 C   0  0  0  0  0  2  0  0  0  0  0  0
  189.3090  176.4100  141.0250 C   0  0  0  0  0  2  0  0  0  0  0  0
  190.4430  176.9200  145.1130 C   0  0  0  0  0  0  0  0  0  0  0  0
  187.0250  178.0810  141.6900 C   0  0  1  0  0  3  0  0  0  0  0  0
  185.2980  179.3820  140.6310 N   0  0  0  0  0  2  0  0  0  0  0  0
  184.6520  178.2190  142.5680 N   0  0  0  0  0  1  0  0  0  0  0  0
  185.6270  178.5940  141.5990 C   0  0  0  0  0  0  0  0  0  0  0  0
  191.6330  176.5710  138.9750 C   0  0  0  0  0  3  0  0  0  0  0  0
  190.4570  177.1980  138.9770 C   0  0  0  0  0  3  0  0  0  0  0  0
  192.2610  176.1440  137.6910 C   0  0  0  0  0  2  0  0  0  0  0  0
  192.6990  174.8220  137.7920 O   0  0  0  0  0  0  0  0  0  0  0  0
  194.8390  173.4690  136.6950 F   0  0  0  0  0  0  0  0  0  0  0  0
  194.3590  174.8790  137.4610 P   0  0  1  0  0  0  0  0  0  0  0  0
  194.7020  176.2050  136.4670 O   0  0  0  0  0  0  0  0  0  0  0  0
  195.1200  175.0210  138.7590 O   0  0  0  0  0  1  0  0  0  0  0  0
  190.8980  177.1180  146.5150 C   0  0  0  0  0  2  0  0  0  0  0  0
  189.8510  176.7060  147.4340 N   0  0  0  0  0  2  0  0  0  0  0  0
  189.4600  177.8900  148.1770 C   0  0  0  0  0  2  0  0  0  0  0  0
  188.0110  177.7590  148.6080 C   0  0  0  0  0  2  0  0  0  0  0  0
  187.1010  178.4390  147.6030 C   0  0  0  0  0  2  0  0  0  0  0  0
  186.5400  177.4900  146.7480 O   0  0  0  0  0  1  0  0  0  0  0  0
  1 11  1  0  0  0  0
  2 17  1  6  0  0  0
  2 10  1  0  0  0  0
  3  8  1  0  0  0  0
  4  7  1  0  0  0  0
  4  3  2  0  0  0  0
  5 12  1  0  0  0  0
  6  3  1  0  0  0  0
  7  1  2  0  0  0  0
  8 11  2  0  0  0  0
  9  2  1  0  0  0  0
  9  5  1  0  0  0  0
 10  4  1  0  0  0  0
 11 24  1  0  0  0  0
 12 15  1  1  0  0  0
 12  6  1  0  0  0  0
 13 15  2  0  0  0  0
 15 14  1  0  0  0  0
 16 17  2  0  0  0  0
 18 19  1  0  0  0  0
 18 16  1  0  0  0  0
 20 21  1  0  0  0  0
 21 22  2  6  0  0  0
 21 19  1  0  0  0  0
 21 23  1  0  0  0  0
 24 25  1  0  0  0  0
 25 26  1  0  0  0  0
 26 27  1  0  0  0  0
 28 27  1  0  0  0  0
 29 28  1  0  0  0  0
M  END
>  <MODEL>
5

>  <REMARK>
 VINA RESULT:      -6.9      4.824      9.181
  Name = 
  10 active torsions:
  status: ('A' for Active; 'I' for Inactive)
    1  A    between atoms: C_2  and  C_23
    2  A    between atoms: P_7  and  O_19
    3  A    between atoms: C_13  and  C_16
    4  A    between atoms: C_14  and  C_24
    5  A    between atoms: C_16  and  O_19
    6  A    between atoms: N_18  and  C_20
    7  A    between atoms: N_18  and  C_25
    8  A    between atoms: C_20  and  C_28
    9  A    between atoms: C_24  and  C_25
   10  A    between atoms: C_27  and  C_29
                            x       y       z     vdW  Elec       q    Type
                         _______ _______ _______ _____ _____    ______ ____

>  <TORSDO>
F 10

$$$$
=
 OpenBabel11042410273D

 29 30  0  0  1  0  0  0  0  0999 V2000
  183.4210  178.7310  140.7050 C   0  0  0  0  0  3  0  0  0  0  0  0
  187.3410  177.6420  142.2960 C   0  0  1  0  0  3  0  0  0  0  0  0
  184.3980  178.8780  143.3110 C   0  0  0  0  0  0  0  0  0  0  0  0
  185.2660  178.9660  142.1930 C   0  0  0  0  0  0  0  0  0  0  0  0
  186.4710  177.1010  144.6130 C   0  0  0  0  0  2  0  0  0  0  0  0
  184.8170  179.0300  144.7540 C   0  0  0  0  0  2  0  0  0  0  0  0
  184.7510  178.8770  140.9360 N   0  0  0  0  0  0  0  0  0  0  0  0
  183.0280  178.7400  143.0780 C   0  0  0  0  0  3  0  0  0  0  0  0
  187.6870  177.1400  143.6970 C   0  0  0  0  0  2  0  0  0  0  0  0
  186.7520  179.0510  142.3280 C   0  0  0  0  0  2  0  0  0  0  0  0
  182.5320  178.6660  141.7770 C   0  0  0  0  0  0  0  0  0  0  0  0
  186.2020  178.5070  145.1300 C   0  0  1  0  0  3  0  0  0  0  0  0
  185.6870  179.3820  147.3140 N   0  0  0  0  0  1  0  0  0  0  0  0
  187.3810  177.7540  147.2440 N   0  0  0  0  0  2  0  0  0  0  0  0
  186.4050  178.5750  146.6070 C   0  0  0  0  0  0  0  0  0  0  0  0
  188.5290  177.9490  140.1660 C   0  0  0  0  0  3  0  0  0  0  0  0
  188.5760  177.6220  141.4570 C   0  0  0  0  0  3  0  0  0  0  0  0
  189.7660  177.9270  139.3330 C   0  0  0  0  0  2  0  0  0  0  0  0
  190.5890  176.8710  139.7290 O   0  0  0  0  0  0  0  0  0  0  0  0
  192.9440  176.6820  138.3040 F   0  0  0  0  0  0  0  0  0  0  0  0
  191.3110  176.3110  138.3030 P   0  0  1  0  0  0  0  0  0  0  0  0
  191.1130  174.6350  138.1790 O   0  0  0  0  0  1  0  0  0  0  0  0
  190.6520  176.9780  137.1180 O   0  0  0  0  0  0  0  0  0  0  0  0
  181.0750  178.4870  141.5360 C   0  0  0  0  0  2  0  0  0  0  0  0
  180.8600  177.9330  140.2110 N   0  0  0  0  0  2  0  0  0  0  0  0
  179.8400  176.9100  140.3480 C   0  0  0  0  0  2  0  0  0  0  0  0
  180.4420  175.5520  140.0400 C   0  0  0  0  0  2  0  0  0  0  0  0
  181.6860  175.7110  139.1860 C   0  0  0  0  0  2  0  0  0  0  0  0
  181.6330  174.8380  138.0980 O   0  0  0  0  0  1  0  0  0  0  0  0
  1  7  2  0  0  0  0
  1 11  1  0  0  0  0
  2 17  1  6  0  0  0
  2 10  1  0  0  0  0
  2  9  1  0  0  0  0
  3  6  1  0  0  0  0
  4 10  1  0  0  0  0
  4  3  2  0  0  0  0
  5 12  1  0  0  0  0
  6 12  1  0  0  0  0
  7  4  1  0  0  0  0
  8  3  1  0  0  0  0
  9  5  1  0  0  0  0
 11  8  2  0  0  0  0
 12 15  1  1  0  0  0
 15 14  2  0  0  0  0
 15 13  1  0  0  0  0
 16 17  2  0  0  0  0
 18 19  1  0  0  0  0
 18 16  1  0  0  0  0
 21 23  2  6  0  0  0
 21 20  1  0  0  0  0
 21 19  1  0  0  0  0
 22 21  1  0  0  0  0
 24 11  1  0  0  0  0
 25 26  1  0  0  0  0
 25 24  1  0  0  0  0
 27 26  1  0  0  0  0
 28 27  1  0  0  0  0
 29 28  1  0  0  0  0
M  END
>  <MODEL>
6

>  <REMARK>
 VINA RESULT:      -6.8      4.929      8.340
  Name = 
  10 active torsions:
  status: ('A' for Active; 'I' for Inactive)
    1  A    between atoms: C_2  and  C_23
    2  A    between atoms: P_7  and  O_19
    3  A    between atoms: C_13  and  C_16
    4  A    between atoms: C_14  and  C_24
    5  A    between atoms: C_16  and  O_19
    6  A    between atoms: N_18  and  C_20
    7  A    between atoms: N_18  and  C_25
    8  A    between atoms: C_20  and  C_28
    9  A    between atoms: C_24  and  C_25
   10  A    between atoms: C_27  and  C_29
                            x       y       z     vdW  Elec       q    Type
                         _______ _______ _______ _____ _____    ______ ____

>  <TORSDO>
F 10

$$$$
=
 OpenBabel11042410273D

 29 30  0  0  1  0  0  0  0  0999 V2000
  186.5980  178.2510  139.1010 C   0  0  0  0  0  3  0  0  0  0  0  0
  188.2530  177.2840  143.0280 C   0  0  1  0  0  3  0  0  0  0  0  0
  185.6130  178.8150  141.6460 C   0  0  0  0  0  0  0  0  0  0  0  0
  187.0030  178.6610  141.4120 C   0  0  0  0  0  0  0  0  0  0  0  0
  185.9960  177.2050  144.1780 C   0  0  0  0  0  2  0  0  0  0  0  0
  184.9880  179.2010  142.9650 C   0  0  0  0  0  2  0  0  0  0  0  0
  187.4440  178.3740  140.1560 N   0  0  0  0  0  0  0  0  0  0  0  0
  184.7410  178.7000  140.5610 C   0  0  0  0  0  3  0  0  0  0  0  0
  187.5010  177.0240  144.3320 C   0  0  0  0  0  2  0  0  0  0  0  0
  188.0160  178.7020  142.5090 C   0  0  0  0  0  2  0  0  0  0  0  0
  185.2270  178.4180  139.2850 C   0  0  0  0  0  0  0  0  0  0  0  0
  185.6740  178.6920  144.2310 C   0  0  1  0  0  3  0  0  0  0  0  0
  183.5670  179.0100  145.3530 N   0  0  0  0  0  2  0  0  0  0  0  0
  185.4820  179.3170  146.6800 N   0  0  0  0  0  1  0  0  0  0  0  0
  184.8550  179.0120  145.4370 C   0  0  0  0  0  0  0  0  0  0  0  0
  190.2200  177.0810  144.4870 C   0  0  0  0  0  3  0  0  0  0  0  0
  189.7110  177.0580  143.2560 C   0  0  0  0  0  3  0  0  0  0  0  0
  191.6780  176.8540  144.7080 C   0  0  0  0  0  2  0  0  0  0  0  0
  192.0510  177.3440  145.9610 O   0  0  0  0  0  0  0  0  0  0  0  0
  190.3370  175.8390  147.5150 F   0  0  0  0  0  0  0  0  0  0  0  0
  191.9240  176.0210  147.0110 P   0  0  1  0  0  0  0  0  0  0  0  0
  192.4290  174.6110  146.2220 O   0  0  0  0  0  0  0  0  0  0  0  0
  192.8040  176.2570  148.2170 O   0  0  0  0  0  1  0  0  0  0  0  0
  184.2910  178.2660  138.1390 C   0  0  0  0  0  2  0  0  0  0  0  0
  183.4130  177.1320  138.3690 N   0  0  0  0  0  2  0  0  0  0  0  0
  182.1460  177.4500  137.7360 C   0  0  0  0  0  2  0  0  0  0  0  0
  181.4470  178.5410  138.5240 C   0  0  0  0  0  2  0  0  0  0  0  0
  180.0990  178.0510  139.0170 C   0  0  0  0  0  2  0  0  0  0  0  0
  180.2740  177.0940  140.0170 O   0  0  0  0  0  1  0  0  0  0  0  0
  1 11  2  0  0  0  0
  1  7  1  0  0  0  0
  2 17  1  1  0  0  0
  2  9  1  0  0  0  0
  3  6  1  0  0  0  0
  4  3  1  0  0  0  0
  4 10  1  0  0  0  0
  5 12  1  0  0  0  0
  5  9  1  0  0  0  0
  6 12  1  0  0  0  0
  7  4  2  0  0  0  0
  8  3  2  0  0  0  0
 10  2  1  0  0  0  0
 11  8  1  0  0  0  0
 12 15  1  1  0  0  0
 13 15  2  0  0  0  0
 15 14  1  0  0  0  0
 16 18  1  0  0  0  0
 17 16  2  0  0  0  0
 18 19  1  0  0  0  0
 19 21  1  0  0  0  0
 21 22  2  6  0  0  0
 21 20  1  0  0  0  0
 21 23  1  0  0  0  0
 24 25  1  0  0  0  0
 24 11  1  0  0  0  0
 26 25  1  0  0  0  0
 26 27  1  0  0  0  0
 27 28  1  0  0  0  0
 28 29  1  0  0  0  0
M  END
>  <MODEL>
7

>  <REMARK>
 VINA RESULT:      -6.7      5.291      8.102
  Name = 
  10 active torsions:
  status: ('A' for Active; 'I' for Inactive)
    1  A    between atoms: C_2  and  C_23
    2  A    between atoms: P_7  and  O_19
    3  A    between atoms: C_13  and  C_16
    4  A    between atoms: C_14  and  C_24
    5  A    between atoms: C_16  and  O_19
    6  A    between atoms: N_18  and  C_20
    7  A    between atoms: N_18  and  C_25
    8  A    between atoms: C_20  and  C_28
    9  A    between atoms: C_24  and  C_25
   10  A    between atoms: C_27  and  C_29
                            x       y       z     vdW  Elec       q    Type
                         _______ _______ _______ _____ _____    ______ ____

>  <TORSDO>
F 10

$$$$
=
 OpenBabel11042410273D

 29 30  0  0  1  0  0  0  0  0999 V2000
  189.0260  177.2880  140.6060 C   0  0  0  0  0  3  0  0  0  0  0  0
  187.6660  177.8960  144.7140 C   0  0  1  0  0  3  0  0  0  0  0  0
  190.3000  176.7130  143.0160 C   0  0  0  0  0  0  0  0  0  0  0  0
  188.8860  176.7310  142.9180 C   0  0  0  0  0  0  0  0  0  0  0  0
  190.0030  178.1550  145.6590 C   0  0  0  0  0  2  0  0  0  0  0  0
  191.0840  176.3330  144.2500 C   0  0  0  0  0  2  0  0  0  0  0  0
  188.3010  177.0290  141.7250 N   0  0  0  0  0  0  0  0  0  0  0  0
  191.0490  176.9680  141.8650 C   0  0  0  0  0  3  0  0  0  0  0  0
  188.5090  178.1720  145.9570 C   0  0  0  0  0  2  0  0  0  0  0  0
  187.9910  176.5360  144.0980 C   0  0  0  0  0  2  0  0  0  0  0  0
  190.4180  177.2560  140.6560 C   0  0  0  0  0  0  0  0  0  0  0  0
  190.4750  176.7090  145.6000 C   0  0  1  0  0  3  0  0  0  0  0  0
  191.4260  177.1590  147.7650 N   0  0  0  0  0  1  0  0  0  0  0  0
  192.3510  175.3350  146.6070 N   0  0  0  0  0  2  0  0  0  0  0  0
  191.4320  176.4210  146.7070 C   0  0  0  0  0  0  0  0  0  0  0  0
  185.3460  178.6030  144.3150 C   0  0  0  0  0  3  0  0  0  0  0  0
  186.2210  177.9580  145.0850 C   0  0  0  0  0  3  0  0  0  0  0  0
  183.9040  178.6610  144.6910 C   0  0  0  0  0  2  0  0  0  0  0  0
  183.2940  179.7560  144.0760 O   0  0  0  0  0  0  0  0  0  0  0  0
  180.7820  180.3290  143.0870 F   0  0  0  0  0  0  0  0  0  0  0  0
  181.9270  179.1250  143.3010 P   0  0  1  0  0  0  0  0  0  0  0  0
  182.3630  178.4880  141.7940 O   0  0  0  0  0  0  0  0  0  0  0  0
  181.3360  178.0250  144.1520 O   0  0  0  0  0  1  0  0  0  0  0  0
  191.2210  177.5570  139.4410 C   0  0  0  0  0  2  0  0  0  0  0  0
  191.3170  176.3710  138.6090 N   0  0  0  0  0  2  0  0  0  0  0  0
  190.6140  176.6690  137.3750 C   0  0  0  0  0  2  0  0  0  0  0  0
  189.8940  175.4250  136.8890 C   0  0  0  0  0  2  0  0  0  0  0  0
  188.4880  175.7740  136.4410 C   0  0  0  0  0  2  0  0  0  0  0  0
  187.7600  176.2950  137.5110 O   0  0  0  0  0  1  0  0  0  0  0  0
  1 11  2  0  0  0  0
  1  7  1  0  0  0  0
  2 17  1  1  0  0  0
  2  9  1  0  0  0  0
  3  6  1  0  0  0  0
  4  3  1  0  0  0  0
  4 10  1  0  0  0  0
  5  9  1  0  0  0  0
  6 12  1  0  0  0  0
  7  4  2  0  0  0  0
  8  3  2  0  0  0  0
 10  2  1  0  0  0  0
 11  8  1  0  0  0  0
 12  5  1  0  0  0  0
 12 15  1  1  0  0  0
 14 15  2  0  0  0  0
 15 13  1  0  0  0  0
 16 18  1  0  0  0  0
 16 17  2  0  0  0  0
 19 18  1  0  0  0  0
 20 21  1  0  0  0  0
 21 22  2  6  0  0  0
 21 19  1  0  0  0  0
 21 23  1  0  0  0  0
 24 11  1  0  0  0  0
 25 24  1  0  0  0  0
 26 25  1  0  0  0  0
 27 26  1  0  0  0  0
 28 27  1  0  0  0  0
 28 29  1  0  0  0  0
M  END
>  <MODEL>
8

>  <REMARK>
 VINA RESULT:      -6.6      1.705      1.964
  Name = 
  10 active torsions:
  status: ('A' for Active; 'I' for Inactive)
    1  A    between atoms: C_2  and  C_23
    2  A    between atoms: P_7  and  O_19
    3  A    between atoms: C_13  and  C_16
    4  A    between atoms: C_14  and  C_24
    5  A    between atoms: C_16  and  O_19
    6  A    between atoms: N_18  and  C_20
    7  A    between atoms: N_18  and  C_25
    8  A    between atoms: C_20  and  C_28
    9  A    between atoms: C_24  and  C_25
   10  A    between atoms: C_27  and  C_29
                            x       y       z     vdW  Elec       q    Type
                         _______ _______ _______ _____ _____    ______ ____

>  <TORSDO>
F 10

$$$$
=
 OpenBabel11042410273D

 29 30  0  0  1  0  0  0  0  0999 V2000
  187.0240  178.0230  138.4360 C   0  0  0  0  0  3  0  0  0  0  0  0
  188.3220  177.4170  142.5640 C   0  0  1  0  0  3  0  0  0  0  0  0
  185.7830  178.7400  140.8260 C   0  0  0  0  0  0  0  0  0  0  0  0
  187.1930  178.6210  140.7360 C   0  0  0  0  0  0  0  0  0  0  0  0
  185.9690  177.3410  143.5010 C   0  0  0  0  0  2  0  0  0  0  0  0
  185.0230  179.2020  142.0460 C   0  0  0  0  0  2  0  0  0  0  0  0
  187.7610  178.2560  139.5530 N   0  0  0  0  0  0  0  0  0  0  0  0
  185.0230  178.5120  139.6770 C   0  0  0  0  0  3  0  0  0  0  0  0
  187.4570  177.2280  143.8080 C   0  0  0  0  0  2  0  0  0  0  0  0
  188.0940  178.7820  141.9160 C   0  0  0  0  0  2  0  0  0  0  0  0
  185.6370  178.1530  138.4770 C   0  0  0  0  0  0  0  0  0  0  0  0
  185.5990  178.8140  143.4070 C   0  0  1  0  0  3  0  0  0  0  0  0
  183.4350  179.4870  144.2200 N   0  0  0  0  0  2  0  0  0  0  0  0
  185.1010  179.2330  145.8570 N   0  0  0  0  0  1  0  0  0  0  0  0
  184.6590  179.1940  144.5020 C   0  0  0  0  0  0  0  0  0  0  0  0
  190.1060  177.0180  144.2070 C   0  0  0  0  0  3  0  0  0  0  0  0
  189.7570  177.2630  142.9450 C   0  0  0  0  0  3  0  0  0  0  0  0
  191.5420  176.8650  144.5800 C   0  0  0  0  0  2  0  0  0  0  0  0
  191.7960  177.5280  145.7820 O   0  0  0  0  0  0  0  0  0  0  0  0
  192.2400  174.8770  146.4090 F   0  0  0  0  0  0  0  0  0  0  0  0
  191.6590  176.3400  146.9820 P   0  0  1  0  0  0  0  0  0  0  0  0
  192.5440  176.8000  148.3490 O   0  0  0  0  0  1  0  0  0  0  0  0
  190.2050  176.1820  147.3620 O   0  0  0  0  0  0  0  0  0  0  0  0
  184.8200  177.8810  137.2650 C   0  0  0  0  0  2  0  0  0  0  0  0
  185.0240  176.5100  136.8320 N   0  0  0  0  0  2  0  0  0  0  0  0
  184.0420  175.7010  137.5300 C   0  0  0  0  0  2  0  0  0  0  0  0
  183.4810  174.6580  136.5830 C   0  0  0  0  0  2  0  0  0  0  0  0
  183.9580  173.2750  136.9830 C   0  0  0  0  0  2  0  0  0  0  0  0
  184.9380  173.3740  137.9710 O   0  0  0  0  0  1  0  0  0  0  0  0
  1 11  2  0  0  0  0
  1  7  1  0  0  0  0
  2 17  1  1  0  0  0
  2  9  1  0  0  0  0
  3  6  1  0  0  0  0
  4  3  1  0  0  0  0
  4 10  1  0  0  0  0
  5  9  1  0  0  0  0
  6 12  1  0  0  0  0
  7  4  2  0  0  0  0
  8  3  2  0  0  0  0
 10  2  1  0  0  0  0
 11  8  1  0  0  0  0
 12  5  1  0  0  0  0
 12 15  1  1  0  0  0
 13 15  2  0  0  0  0
 15 14  1  0  0  0  0
 16 18  1  0  0  0  0
 17 16  2  0  0  0  0
 18 19  1  0  0  0  0
 19 21  1  0  0  0  0
 21 20  1  6  0  0  0
 21 23  2  0  0  0  0
 21 22  1  0  0  0  0
 24 11  1  0  0  0  0
 25 24  1  0  0  0  0
 25 26  1  0  0  0  0
 27 28  1  0  0  0  0
 27 26  1  0  0  0  0
 28 29  1  0  0  0  0
M  END
>  <MODEL>
9

>  <REMARK>
 VINA RESULT:      -6.6      5.563      7.416
  Name = 
  10 active torsions:
  status: ('A' for Active; 'I' for Inactive)
    1  A    between atoms: C_2  and  C_23
    2  A    between atoms: P_7  and  O_19
    3  A    between atoms: C_13  and  C_16
    4  A    between atoms: C_14  and  C_24
    5  A    between atoms: C_16  and  O_19
    6  A    between atoms: N_18  and  C_20
    7  A    between atoms: N_18  and  C_25
    8  A    between atoms: C_20  and  C_28
    9  A    between atoms: C_24  and  C_25
   10  A    between atoms: C_27  and  C_29
                            x       y       z     vdW  Elec       q    Type
                         _______ _______ _______ _____ _____    ______ ____

>  <TORSDO>
F 10

$$$$
