=
 OpenBabel11032420463D

 47 53  0  0  1  0  0  0  0  0999 V2000
  189.3080  177.0550  139.1780 C   0  0  2  0  0  3  0  0  0  0  0  0
  188.5560  178.0370  135.7800 C   0  0  0  0  0  2  0  0  0  0  0  0
  189.8340  177.5870  137.8560 C   0  0  2  0  0  3  0  0  0  0  0  0
  188.6040  177.6810  137.0650 C   0  0  0  0  0  0  0  0  0  0  0  0
  187.9470  176.6760  139.0680 O   0  0  0  0  0  0  0  0  0  0  0  0
  187.4660  177.0990  137.8130 C   0  0  1  0  0  3  0  0  0  0  0  0
  181.7210  178.7230  138.6130 N   0  0  0  0  0  0  0  0  0  0  0  0
  183.9660  179.0910  139.0480 C   0  0  0  0  0  0  0  0  0  0  0  0
  185.0110  177.5000  137.6380 N   0  0  0  0  0  0  0  0  0  0  0  0
  182.2100  177.9150  136.3570 C   0  0  0  0  0  1  0  0  0  0  0  0
  186.2900  178.6730  139.4490 C   0  0  0  0  0  2  0  0  0  0  0  0
  185.0350  179.4030  139.7090 N   0  0  0  0  0  0  0  0  0  0  0  0
  186.3120  178.0740  138.0230 C   0  0  1  0  0  3  0  0  0  0  0  0
  183.9360  178.0670  138.0900 C   0  0  0  0  0  0  0  0  0  0  0  0
  182.5100  177.7370  137.8290 C   0  0  1  0  0  3  0  0  0  0  0  0
  182.6530  179.4860  139.3520 N   0  0  0  0  0  2  0  0  0  0  0  0
  180.9320  177.9780  139.5790 C   0  0  0  0  0  2  0  0  0  0  0  0
  180.7550  178.7950  140.8400 C   0  0  0  0  0  2  0  0  0  0  0  0
  180.2880  177.9800  141.8770 O   0  0  0  0  0  0  0  0  0  0  0  0
  180.0940  180.5520  142.8980 O   0  0  0  0  0  0  0  0  0  0  0  0
  179.2760  178.4050  144.4240 O   0  0  0  0  0  1  0  0  0  0  0  0
  181.7940  178.8030  143.8550 O   0  0  0  0  0  1  0  0  0  0  0  0
  180.4040  178.9320  143.2760 P   0  0  0  0  0  0  0  0  0  0  0  0
  189.4650  178.0670  140.2110 N   0  0  0  0  0  2  0  0  0  0  0  0
  189.5500  177.4040  141.5000 C   0  0  1  0  0  3  0  0  0  0  0  0
  190.9640  177.4940  142.0690 C   0  0  0  0  0  2  0  0  0  0  0  0
  191.2330  176.3810  142.9660 N   0  0  0  0  0  2  0  0  0  0  0  0
  191.6150  176.7960  145.4650 N   0  0  0  0  0  0  0  0  0  0  0  0
  191.4420  176.6050  144.3360 C   0  0  0  0  0  0  0  0  0  0  0  0
  188.5530  178.0390  142.4500 C   0  0  0  0  0  2  0  0  0  0  0  0
  187.7050  177.2710  144.6490 C   0  0  0  0  0  2  0  0  0  0  0  0
  187.7400  176.9780  143.1590 C   0  0  0  0  0  3  0  0  0  0  0  0
  186.5210  177.6360  143.7710 C   0  0  0  0  0  2  0  0  0  0  0  0
  190.7880  176.5690  137.2310 C   0  0  0  0  0  2  0  0  0  0  0  0
  191.9730  176.3970  138.0530 N   0  0  0  0  0  2  0  0  0  0  0  0
  193.1960  174.2410  135.5020 O   0  0  0  0  0  0  0  0  0  0  0  0
  192.6010  175.1410  137.6660 C   0  0  1  0  0  3  0  0  0  0  0  0
  195.4050  172.8340  138.2030 C   0  0  0  0  0  2  0  0  0  0  0  0
  194.2820  174.1900  136.3870 C   0  0  2  0  0  0  0  0  0  0  0  0
  192.0990  174.6840  136.2920 C   0  0  0  0  0  2  0  0  0  0  0  0
  196.6820  174.5570  136.9350 C   0  0  0  0  0  2  0  0  0  0  0  0
  194.9020  175.1400  138.5650 O   0  0  0  0  0  0  0  0  0  0  0  0
  195.6620  174.4200  135.7670 C   0  0  0  0  0  2  0  0  0  0  0  0
  194.3260  176.5550  136.8410 O   0  0  0  0  0  1  0  0  0  0  0  0
  195.9890  174.2480  138.3020 C   0  0  1  0  0  3  0  0  0  0  0  0
  194.3360  172.8160  137.0960 C   0  0  0  0  0  2  0  0  0  0  0  0
  194.0750  175.3020  137.4120 C   0  0  2  0  0  0  0  0  0  0  0  0
  1 24  1  1  0  0  0
  2  4  2  0  0  0  0
  3 34  1  6  0  0  0
  3  1  1  0  0  0  0
  4  3  1  0  0  0  0
  5  1  1  0  0  0  0
  6  4  1  1  0  0  0
  6 13  1  0  0  0  0
  6  5  1  0  0  0  0
  7 16  1  0  0  0  0
  7 17  1  0  0  0  0
  8 16  1  0  0  0  0
  8 12  2  0  0  0  0
  9 13  1  0  0  0  0
  9 14  2  0  0  0  0
 11 12  1  0  0  0  0
 13 11  1  1  0  0  0
 14  8  1  0  0  0  0
 15 10  1  6  0  0  0
 15 14  1  0  0  0  0
 15  7  1  0  0  0  0
 17 18  1  0  0  0  0
 18 19  1  0  0  0  0
 19 23  1  0  0  0  0
 20 23  2  0  0  0  0
 23 22  1  0  0  0  0
 23 21  1  0  0  0  0
 24 25  1  0  0  0  0
 25 26  1  1  0  0  0
 25 30  1  0  0  0  0
 26 27  1  0  0  0  0
 27 29  1  0  0  0  0
 29 28  3  0  0  0  0
 30 32  1  0  0  0  0
 32 33  1  0  0  0  0
 32 31  1  0  0  0  0
 33 31  1  0  0  0  0
 34 35  1  0  0  0  0
 36 40  1  0  0  0  0
 36 39  1  0  0  0  0
 37 35  1  6  0  0  0
 38 45  1  0  0  0  0
 39 43  1  6  0  0  0
 39 46  1  0  0  0  0
 39 47  1  0  0  0  0
 40 37  1  0  0  0  0
 43 41  1  0  0  0  0
 45 41  1  6  0  0  0
 45 42  1  0  0  0  0
 46 38  1  0  0  0  0
 47 44  1  6  0  0  0
 47 37  1  0  0  0  0
 47 42  1  0  0  0  0
M  END
>  <MODEL>
1

>  <REMARK>
 VINA RESULT:      -7.5      0.000      0.000
  Name = 
  15 active torsions:
  status: ('A' for Active; 'I' for Inactive)
    1  A    between atoms: C_1  and  N_5
    2  A    between atoms: C_1  and  C_10
    3  A    between atoms: N_3  and  C_14
    4  A    between atoms: N_3  and  C_17
    5  A    between atoms: C_4  and  N_7
    6  A    between atoms: N_5  and  C_38
    7  A    between atoms: N_7  and  C_10
    8  A    between atoms: N_8  and  C_22
    9  A    between atoms: C_10  and  C_47
   10  A    between atoms: C_14  and  C_18
   11  A    between atoms: C_22  and  C_45
   12  A    between atoms: O_24  and  C_45
   13  A    between atoms: O_24  and  P_46
   14  A    between atoms: C_33  and  C_36
   15  A    between atoms: C_34  and  C_47
                            x       y       z     vdW  Elec       q    Type
                         _______ _______ _______ _____ _____    ______ ____

>  <TORSDO>
F 15

$$$$
=
 OpenBabel11032420463D

 47 53  0  0  1  0  0  0  0  0999 V2000
  188.8890  177.7010  142.5990 C   0  0  2  0  0  3  0  0  0  0  0  0
  188.2080  177.7490  139.0480 C   0  0  0  0  0  2  0  0  0  0  0  0
  187.8590  177.5430  141.4940 C   0  0  2  0  0  3  0  0  0  0  0  0
  188.6820  177.7250  140.2950 C   0  0  0  0  0  0  0  0  0  0  0  0
  190.1280  178.1490  142.0790 O   0  0  0  0  0  0  0  0  0  0  0  0
  190.0600  178.1170  140.6720 C   0  0  1  0  0  3  0  0  0  0  0  0
  193.3130  175.3200  136.4440 N   0  0  0  0  0  0  0  0  0  0  0  0
  193.1920  176.2540  138.5610 C   0  0  0  0  0  0  0  0  0  0  0  0
  190.8880  176.7730  138.7410 N   0  0  0  0  0  0  0  0  0  0  0  0
  190.9910  174.5600  136.5610 C   0  0  0  0  0  1  0  0  0  0  0  0
  192.5640  177.7040  140.3590 C   0  0  0  0  0  2  0  0  0  0  0  0
  193.5580  176.9080  139.6170 N   0  0  0  0  0  0  0  0  0  0  0  0
  191.1290  177.1680  140.1410 C   0  0  1  0  0  3  0  0  0  0  0  0
  191.8790  176.2770  138.0680 C   0  0  0  0  0  0  0  0  0  0  0  0
  191.9100  175.7560  136.6760 C   0  0  1  0  0  3  0  0  0  0  0  0
  194.0420  175.6790  137.6010 N   0  0  0  0  0  2  0  0  0  0  0  0
  193.8410  176.1200  135.3520 C   0  0  0  0  0  2  0  0  0  0  0  0
  195.3450  176.2310  135.4750 C   0  0  0  0  0  2  0  0  0  0  0  0
  195.9640  175.2730  134.6640 O   0  0  0  0  0  0  0  0  0  0  0  0
  197.8370  175.8070  136.6390 O   0  0  0  0  0  1  0  0  0  0  0  0
  196.5860  173.3500  136.5610 O   0  0  0  0  0  1  0  0  0  0  0  0
  198.2930  174.0780  134.7230 O   0  0  0  0  0  0  0  0  0  0  0  0
  197.2020  174.6150  135.6190 P   0  0  0  0  0  0  0  0  0  0  0  0
  189.0640  176.4330  143.2910 N   0  0  0  0  0  2  0  0  0  0  0  0
  189.1190  176.6890  144.7190 C   0  0  1  0  0  3  0  0  0  0  0  0
  190.5500  176.9770  145.1680 C   0  0  0  0  0  2  0  0  0  0  0  0
  190.6380  177.0240  146.6190 N   0  0  0  0  0  2  0  0  0  0  0  0
  192.5950  175.9080  147.8400 N   0  0  0  0  0  0  0  0  0  0  0  0
  191.7100  176.4100  147.2870 C   0  0  0  0  0  0  0  0  0  0  0  0
  188.2140  177.8610  145.0480 C   0  0  0  0  0  2  0  0  0  0  0  0
  186.2380  178.4170  146.4360 C   0  0  0  0  0  2  0  0  0  0  0  0
  186.8640  177.3750  145.5260 C   0  0  0  0  0  3  0  0  0  0  0  0
  185.7990  178.3080  144.9870 C   0  0  0  0  0  2  0  0  0  0  0  0
  186.8180  178.6580  141.5950 C   0  0  0  0  0  2  0  0  0  0  0  0
  186.1890  178.8990  140.3070 N   0  0  0  0  0  2  0  0  0  0  0  0
  182.7930  178.9970  141.3580 O   0  0  0  0  0  0  0  0  0  0  0  0
  184.8680  178.2880  140.3390 C   0  0  1  0  0  3  0  0  0  0  0  0
  182.1500  176.7830  138.3850 C   0  0  0  0  0  2  0  0  0  0  0  0
  182.6070  178.6690  140.0070 C   0  0  2  0  0  0  0  0  0  0  0  0
  184.1400  178.6370  141.6410 C   0  0  0  0  0  2  0  0  0  0  0  0
  181.7000  179.1470  137.7400 C   0  0  0  0  0  2  0  0  0  0  0  0
  183.9990  178.2520  138.0280 O   0  0  0  0  0  0  0  0  0  0  0  0
  181.5800  179.5120  139.2490 C   0  0  0  0  0  2  0  0  0  0  0  0
  184.2170  180.2460  139.1580 O   0  0  0  0  0  1  0  0  0  0  0  0
  182.6860  177.9490  137.5460 C   0  0  1  0  0  3  0  0  0  0  0  0
  182.1620  177.1940  139.8680 C   0  0  0  0  0  2  0  0  0  0  0  0
  183.9470  178.8810  139.3080 C   0  0  2  0  0  0  0  0  0  0  0  0
  1 24  1  6  0  0  0
  2  4  2  0  0  0  0
  3 34  1  1  0  0  0
  3  1  1  0  0  0  0
  4  3  1  0  0  0  0
  5  1  1  0  0  0  0
  6  4  1  1  0  0  0
  6  5  1  0  0  0  0
  7 15  1  0  0  0  0
  7 16  1  0  0  0  0
  8 12  2  0  0  0  0
  9 13  1  0  0  0  0
 12 11  1  0  0  0  0
 13 11  1  6  0  0  0
 13  6  1  0  0  0  0
 14  8  1  0  0  0  0
 14  9  2  0  0  0  0
 15 10  1  1  0  0  0
 15 14  1  0  0  0  0
 16  8  1  0  0  0  0
 17 18  1  0  0  0  0
 17  7  1  0  0  0  0
 19 18  1  0  0  0  0
 19 23  1  0  0  0  0
 22 23  2  0  0  0  0
 23 21  1  0  0  0  0
 23 20  1  0  0  0  0
 24 25  1  0  0  0  0
 25 30  1  6  0  0  0
 25 26  1  0  0  0  0
 26 27  1  0  0  0  0
 27 29  1  0  0  0  0
 29 28  3  0  0  0  0
 30 32  1  0  0  0  0
 32 31  1  0  0  0  0
 33 32  1  0  0  0  0
 33 31  1  0  0  0  0
 35 34  1  0  0  0  0
 36 40  1  0  0  0  0
 37 35  1  1  0  0  0
 37 40  1  0  0  0  0
 38 46  1  0  0  0  0
 39 43  1  6  0  0  0
 39 36  1  0  0  0  0
 41 43  1  0  0  0  0
 42 47  1  0  0  0  0
 45 41  1  1  0  0  0
 45 42  1  0  0  0  0
 45 38  1  0  0  0  0
 46 39  1  0  0  0  0
 47 44  1  6  0  0  0
 47 39  1  0  0  0  0
 47 37  1  0  0  0  0
M  END
>  <MODEL>
2

>  <REMARK>
 VINA RESULT:      -7.3      3.677     10.567
  Name = 
  15 active torsions:
  status: ('A' for Active; 'I' for Inactive)
    1  A    between atoms: C_1  and  N_5
    2  A    between atoms: C_1  and  C_10
    3  A    between atoms: N_3  and  C_14
    4  A    between atoms: N_3  and  C_17
    5  A    between atoms: C_4  and  N_7
    6  A    between atoms: N_5  and  C_38
    7  A    between atoms: N_7  and  C_10
    8  A    between atoms: N_8  and  C_22
    9  A    between atoms: C_10  and  C_47
   10  A    between atoms: C_14  and  C_18
   11  A    between atoms: C_22  and  C_45
   12  A    between atoms: O_24  and  C_45
   13  A    between atoms: O_24  and  P_46
   14  A    between atoms: C_33  and  C_36
   15  A    between atoms: C_34  and  C_47
                            x       y       z     vdW  Elec       q    Type
                         _______ _______ _______ _____ _____    ______ ____

>  <TORSDO>
F 15

$$$$
=
 OpenBabel11032420463D

 47 53  0  0  1  0  0  0  0  0999 V2000
  184.4860  179.0940  140.9560 C   0  0  2  0  0  3  0  0  0  0  0  0
  184.9770  177.6270  137.6870 C   0  0  0  0  0  2  0  0  0  0  0  0
  183.8560  178.4080  139.7570 C   0  0  2  0  0  3  0  0  0  0  0  0
  185.0260  178.1570  138.9110 C   0  0  0  0  0  0  0  0  0  0  0  0
  185.8480  179.3990  140.7090 O   0  0  0  0  0  0  0  0  0  0  0  0
  186.2300  178.7900  139.4980 C   0  0  1  0  0  3  0  0  0  0  0  0
  191.3500  175.8470  138.3120 N   0  0  0  0  0  0  0  0  0  0  0  0
  189.9330  176.8170  139.8670 C   0  0  0  0  0  0  0  0  0  0  0  0
  188.0600  177.3960  138.5360 N   0  0  0  0  0  0  0  0  0  0  0  0
  189.4670  175.1470  136.9160 C   0  0  0  0  0  1  0  0  0  0  0  0
  188.3440  178.3110  140.8550 C   0  0  0  0  0  2  0  0  0  0  0  0
  189.5590  177.4780  140.9160 N   0  0  0  0  0  0  0  0  0  0  0  0
  187.3640  177.8060  139.7690 C   0  0  1  0  0  3  0  0  0  0  0  0
  189.2380  176.8640  138.6490 C   0  0  0  0  0  0  0  0  0  0  0  0
  190.1360  176.3210  137.5960 C   0  0  1  0  0  3  0  0  0  0  0  0
  191.1820  176.2060  139.6690 N   0  0  0  0  0  2  0  0  0  0  0  0
  192.4770  176.6160  137.8120 C   0  0  0  0  0  2  0  0  0  0  0  0
  193.4930  175.6900  137.1810 C   0  0  0  0  0  2  0  0  0  0  0  0
  193.5750  174.4990  137.9120 O   0  0  0  0  0  0  0  0  0  0  0  0
  196.2340  174.8810  137.2210 O   0  0  0  0  0  0  0  0  0  0  0  0
  195.3810  175.4770  139.7750 O   0  0  0  0  0  1  0  0  0  0  0  0
  195.4910  173.0170  138.9050 O   0  0  0  0  0  1  0  0  0  0  0  0
  195.1780  174.4270  138.4620 P   0  0  0  0  0  0  0  0  0  0  0  0
  184.3680  178.2400  142.1280 N   0  0  0  0  0  2  0  0  0  0  0  0
  184.2540  179.0820  143.3050 C   0  0  1  0  0  3  0  0  0  0  0  0
  183.0040  178.7310  144.1100 C   0  0  0  0  0  2  0  0  0  0  0  0
  181.8010  179.1150  143.3890 N   0  0  0  0  0  2  0  0  0  0  0  0
  179.5030  178.2790  144.1550 N   0  0  0  0  0  0  0  0  0  0  0  0
  180.5430  178.6560  143.8110 C   0  0  0  0  0  0  0  0  0  0  0  0
  185.4980  178.9140  144.1560 C   0  0  0  0  0  2  0  0  0  0  0  0
  186.4290  177.7700  146.1480 C   0  0  0  0  0  2  0  0  0  0  0  0
  185.1580  178.2580  145.4750 C   0  0  0  0  0  3  0  0  0  0  0  0
  185.7820  179.0700  146.5910 C   0  0  0  0  0  2  0  0  0  0  0  0
  182.8940  179.3690  139.0570 C   0  0  0  0  0  2  0  0  0  0  0  0
  181.5310  179.1610  139.5120 N   0  0  0  0  0  2  0  0  0  0  0  0
  179.2420  176.4580  139.8390 O   0  0  0  0  0  0  0  0  0  0  0  0
  181.2680  177.7290  139.4830 C   0  0  1  0  0  3  0  0  0  0  0  0
  181.6330  174.5930  137.6120 C   0  0  0  0  0  2  0  0  0  0  0  0
  179.8690  176.0860  138.6410 C   0  0  2  0  0  0  0  0  0  0  0  0
  180.1460  177.3630  140.4600 C   0  0  0  0  0  2  0  0  0  0  0  0
  179.8160  175.5610  136.2090 C   0  0  0  0  0  2  0  0  0  0  0  0
  181.6430  176.9400  137.1740 O   0  0  0  0  0  0  0  0  0  0  0  0
  178.9390  175.7080  137.4870 C   0  0  0  0  0  2  0  0  0  0  0  0
  179.8410  178.2880  137.6650 O   0  0  0  0  0  1  0  0  0  0  0  0
  181.3320  175.6780  136.5730 C   0  0  1  0  0  3  0  0  0  0  0  0
  180.8010  174.8730  138.8770 C   0  0  0  0  0  2  0  0  0  0  0  0
  180.6820  177.2880  138.1700 C   0  0  2  0  0  0  0  0  0  0  0  0
  1 24  1  1  0  0  0
  2  4  2  0  0  0  0
  3 34  1  6  0  0  0
  3  1  1  0  0  0  0
  4  3  1  0  0  0  0
  5  1  1  0  0  0  0
  6  4  1  1  0  0  0
  6 13  1  0  0  0  0
  6  5  1  0  0  0  0
  7 16  1  0  0  0  0
  8 12  2  0  0  0  0
  9 14  2  0  0  0  0
  9 13  1  0  0  0  0
 11 12  1  0  0  0  0
 13 11  1  1  0  0  0
 14  8  1  0  0  0  0
 15 10  1  1  0  0  0
 15  7  1  0  0  0  0
 15 14  1  0  0  0  0
 16  8  1  0  0  0  0
 17  7  1  0  0  0  0
 18 17  1  0  0  0  0
 18 19  1  0  0  0  0
 19 23  1  0  0  0  0
 20 23  2  0  0  0  0
 23 22  1  0  0  0  0
 23 21  1  0  0  0  0
 24 25  1  0  0  0  0
 25 26  1  1  0  0  0
 25 30  1  0  0  0  0
 27 29  1  0  0  0  0
 27 26  1  0  0  0  0
 29 28  3  0  0  0  0
 30 32  1  0  0  0  0
 31 33  1  0  0  0  0
 32 31  1  0  0  0  0
 32 33  1  0  0  0  0
 34 35  1  0  0  0  0
 36 40  1  0  0  0  0
 37 35  1  6  0  0  0
 37 40  1  0  0  0  0
 38 46  1  0  0  0  0
 39 43  1  6  0  0  0
 39 46  1  0  0  0  0
 39 36  1  0  0  0  0
 41 43  1  0  0  0  0
 42 47  1  0  0  0  0
 45 41  1  1  0  0  0
 45 42  1  0  0  0  0
 45 38  1  0  0  0  0
 47 44  1  6  0  0  0
 47 39  1  0  0  0  0
 47 37  1  0  0  0  0
M  END
>  <MODEL>
3

>  <REMARK>
 VINA RESULT:      -7.1      3.499     10.747
  Name = 
  15 active torsions:
  status: ('A' for Active; 'I' for Inactive)
    1  A    between atoms: C_1  and  N_5
    2  A    between atoms: C_1  and  C_10
    3  A    between atoms: N_3  and  C_14
    4  A    between atoms: N_3  and  C_17
    5  A    between atoms: C_4  and  N_7
    6  A    between atoms: N_5  and  C_38
    7  A    between atoms: N_7  and  C_10
    8  A    between atoms: N_8  and  C_22
    9  A    between atoms: C_10  and  C_47
   10  A    between atoms: C_14  and  C_18
   11  A    between atoms: C_22  and  C_45
   12  A    between atoms: O_24  and  C_45
   13  A    between atoms: O_24  and  P_46
   14  A    between atoms: C_33  and  C_36
   15  A    between atoms: C_34  and  C_47
                            x       y       z     vdW  Elec       q    Type
                         _______ _______ _______ _____ _____    ______ ____

>  <TORSDO>
F 15

$$$$
=
 OpenBabel11032420463D

 47 53  0  0  1  0  0  0  0  0999 V2000
  188.3940  178.0790  139.4670 C   0  0  2  0  0  3  0  0  0  0  0  0
  186.8010  176.8780  136.4510 C   0  0  0  0  0  2  0  0  0  0  0  0
  187.1120  177.6150  138.7980 C   0  0  2  0  0  3  0  0  0  0  0  0
  187.5870  177.2730  137.4540 C   0  0  0  0  0  0  0  0  0  0  0  0
  189.4450  178.1970  138.5250 O   0  0  0  0  0  0  0  0  0  0  0  0
  189.0100  177.6570  137.2990 C   0  0  1  0  0  3  0  0  0  0  0  0
  194.1220  174.4750  137.2030 N   0  0  0  0  0  0  0  0  0  0  0  0
  191.8060  174.5090  137.2030 C   0  0  0  0  0  0  0  0  0  0  0  0
  191.3460  176.8270  137.0360 N   0  0  0  0  0  0  0  0  0  0  0  0
  194.2320  176.5510  135.9150 C   0  0  0  0  0  1  0  0  0  0  0  0
  189.5550  175.1850  137.6610 C   0  0  0  0  0  2  0  0  0  0  0  0
  190.5910  174.1530  137.4740 N   0  0  0  0  0  0  0  0  0  0  0  0
  189.9160  176.4920  136.9150 C   0  0  1  0  0  3  0  0  0  0  0  0
  192.1990  175.8510  137.0900 C   0  0  0  0  0  0  0  0  0  0  0  0
  193.6830  175.8950  137.1620 C   0  0  1  0  0  3  0  0  0  0  0  0
  192.9470  173.6920  137.2620 N   0  0  0  0  0  2  0  0  0  0  0  0
  194.8220  174.2730  138.4610 C   0  0  0  0  0  2  0  0  0  0  0  0
  196.1730  173.6410  138.2030 C   0  0  0  0  0  2  0  0  0  0  0  0
  196.5260  173.7990  136.8580 O   0  0  0  0  0  0  0  0  0  0  0  0
  197.6070  176.1860  135.9460 O   0  0  0  0  0  0  0  0  0  0  0  0
  198.2470  175.2630  138.4660 O   0  0  0  0  0  1  0  0  0  0  0  0
  199.0740  174.0450  136.3080 O   0  0  0  0  0  1  0  0  0  0  0  0
  197.8950  174.8010  136.8750 P   0  0  0  0  0  0  0  0  0  0  0  0
  188.7650  177.1430  140.5180 N   0  0  0  0  0  2  0  0  0  0  0  0
  188.7340  177.8400  141.7910 C   0  0  1  0  0  3  0  0  0  0  0  0
  187.7660  177.1660  142.7610 C   0  0  0  0  0  2  0  0  0  0  0  0
  186.6400  178.0370  143.0580 N   0  0  0  0  0  2  0  0  0  0  0  0
  185.6810  178.1630  145.4310 N   0  0  0  0  0  0  0  0  0  0  0  0
  186.1160  178.1040  144.3590 C   0  0  0  0  0  0  0  0  0  0  0  0
  190.1340  177.8700  142.3730 C   0  0  0  0  0  2  0  0  0  0  0  0
  191.4090  177.9110  144.4980 C   0  0  0  0  0  2  0  0  0  0  0  0
  190.0990  178.2850  143.8280 C   0  0  0  0  0  3  0  0  0  0  0  0
  191.1620  179.3410  144.0510 C   0  0  0  0  0  2  0  0  0  0  0  0
  186.1160  178.7730  138.7280 C   0  0  0  0  0  2  0  0  0  0  0  0
  185.2720  178.8030  139.9100 N   0  0  0  0  0  2  0  0  0  0  0  0
  182.4030  178.0430  137.9510 O   0  0  0  0  0  0  0  0  0  0  0  0
  183.9220  179.1380  139.4800 C   0  0  1  0  0  3  0  0  0  0  0  0
  180.5210  180.0450  140.5210 C   0  0  0  0  0  2  0  0  0  0  0  0
  181.7800  178.3090  139.1790 C   0  0  2  0  0  0  0  0  0  0  0  0
  183.6770  178.6680  138.0430 C   0  0  0  0  0  2  0  0  0  0  0  0
  180.3760  177.6310  141.1180 C   0  0  0  0  0  2  0  0  0  0  0  0
  182.4410  178.9700  141.4490 O   0  0  0  0  0  0  0  0  0  0  0  0
  180.7640  177.2690  139.6540 C   0  0  0  0  0  2  0  0  0  0  0  0
  183.3570  177.0740  140.5170 O   0  0  0  0  0  1  0  0  0  0  0  0
  181.0120  178.9990  141.5280 C   0  0  1  0  0  3  0  0  0  0  0  0
  181.0350  179.6640  139.1210 C   0  0  0  0  0  2  0  0  0  0  0  0
  182.8800  178.3610  140.2360 C   0  0  2  0  0  0  0  0  0  0  0  0
  1 24  1  1  0  0  0
  2  4  2  0  0  0  0
  3 34  1  6  0  0  0
  3  1  1  0  0  0  0
  4  3  1  0  0  0  0
  5  1  1  0  0  0  0
  6  4  1  1  0  0  0
  6  5  1  0  0  0  0
  7 16  1  0  0  0  0
  7 17  1  0  0  0  0
  8 16  1  0  0  0  0
  8 12  2  0  0  0  0
  9 14  2  0  0  0  0
 12 11  1  0  0  0  0
 13  9  1  0  0  0  0
 13  6  1  0  0  0  0
 13 11  1  1  0  0  0
 14 15  1  0  0  0  0
 14  8  1  0  0  0  0
 15 10  1  6  0  0  0
 15  7  1  0  0  0  0
 18 17  1  0  0  0  0
 19 23  1  0  0  0  0
 19 18  1  0  0  0  0
 20 23  2  0  0  0  0
 22 23  1  0  0  0  0
 23 21  1  0  0  0  0
 24 25  1  0  0  0  0
 25 30  1  1  0  0  0
 25 26  1  0  0  0  0
 26 27  1  0  0  0  0
 27 29  1  0  0  0  0
 29 28  3  0  0  0  0
 30 32  1  0  0  0  0
 32 33  1  0  0  0  0
 32 31  1  0  0  0  0
 33 31  1  0  0  0  0
 34 35  1  0  0  0  0
 36 40  1  0  0  0  0
 36 39  1  0  0  0  0
 37 35  1  1  0  0  0
 37 47  1  0  0  0  0
 39 46  1  6  0  0  0
 39 43  1  0  0  0  0
 39 47  1  0  0  0  0
 40 37  1  0  0  0  0
 41 45  1  0  0  0  0
 42 45  1  0  0  0  0
 43 41  1  0  0  0  0
 45 38  1  6  0  0  0
 46 38  1  0  0  0  0
 47 44  1  1  0  0  0
 47 42  1  0  0  0  0
M  END
>  <MODEL>
4

>  <REMARK>
 VINA RESULT:      -6.9      3.534     11.039
  Name = 
  15 active torsions:
  status: ('A' for Active; 'I' for Inactive)
    1  A    between atoms: C_1  and  N_5
    2  A    between atoms: C_1  and  C_10
    3  A    between atoms: N_3  and  C_14
    4  A    between atoms: N_3  and  C_17
    5  A    between atoms: C_4  and  N_7
    6  A    between atoms: N_5  and  C_38
    7  A    between atoms: N_7  and  C_10
    8  A    between atoms: N_8  and  C_22
    9  A    between atoms: C_10  and  C_47
   10  A    between atoms: C_14  and  C_18
   11  A    between atoms: C_22  and  C_45
   12  A    between atoms: O_24  and  C_45
   13  A    between atoms: O_24  and  P_46
   14  A    between atoms: C_33  and  C_36
   15  A    between atoms: C_34  and  C_47
                            x       y       z     vdW  Elec       q    Type
                         _______ _______ _______ _____ _____    ______ ____

>  <TORSDO>
F 15

$$$$
=
 OpenBabel11032420463D

 47 53  0  0  1  0  0  0  0  0999 V2000
  189.4240  177.5740  140.6710 C   0  0  2  0  0  3  0  0  0  0  0  0
  187.1480  177.4690  137.8640 C   0  0  0  0  0  2  0  0  0  0  0  0
  187.9870  177.4510  140.1960 C   0  0  2  0  0  3  0  0  0  0  0  0
  188.1530  177.4750  138.7410 C   0  0  0  0  0  0  0  0  0  0  0  0
  190.2930  177.8630  139.5910 O   0  0  0  0  0  0  0  0  0  0  0  0
  189.5660  177.7510  138.3890 C   0  0  1  0  0  3  0  0  0  0  0  0
  193.9060  173.9700  136.6160 N   0  0  0  0  0  0  0  0  0  0  0  0
  191.6480  174.4170  136.8760 C   0  0  0  0  0  0  0  0  0  0  0  0
  191.6710  176.6730  137.5980 N   0  0  0  0  0  0  0  0  0  0  0  0
  194.3980  176.3200  136.1500 C   0  0  0  0  0  1  0  0  0  0  0  0
  189.6020  175.2670  137.7830 C   0  0  0  0  0  2  0  0  0  0  0  0
  190.3950  174.2100  137.1300 N   0  0  0  0  0  0  0  0  0  0  0  0
  190.1990  176.6700  137.5200 C   0  0  1  0  0  3  0  0  0  0  0  0
  192.3050  175.6110  137.2090 C   0  0  0  0  0  0  0  0  0  0  0  0
  193.7670  175.3570  137.1320 C   0  0  1  0  0  3  0  0  0  0  0  0
  192.5970  173.4460  136.5160 N   0  0  0  0  0  2  0  0  0  0  0  0
  194.5900  173.1940  137.6360 C   0  0  0  0  0  2  0  0  0  0  0  0
  196.0850  173.2440  137.4040 C   0  0  0  0  0  2  0  0  0  0  0  0
  196.7280  173.7510  138.5390 O   0  0  0  0  0  0  0  0  0  0  0  0
  199.1780  173.3050  137.3160 O   0  0  0  0  0  1  0  0  0  0  0  0
  197.7550  175.5970  136.7430 O   0  0  0  0  0  0  0  0  0  0  0  0
  198.8360  175.2050  139.0880 O   0  0  0  0  0  1  0  0  0  0  0  0
  198.1440  174.4820  137.9560 P   0  0  0  0  0  0  0  0  0  0  0  0
  189.8320  176.3390  141.3260 N   0  0  0  0  0  2  0  0  0  0  0  0
  189.9160  176.5800  142.7550 C   0  0  1  0  0  3  0  0  0  0  0  0
  190.4360  177.9870  143.0430 C   0  0  0  0  0  2  0  0  0  0  0  0
  191.6610  177.9350  143.8260 N   0  0  0  0  0  2  0  0  0  0  0  0
  191.6350  177.0050  146.2130 N   0  0  0  0  0  0  0  0  0  0  0  0
  191.6480  177.4230  145.1330 C   0  0  0  0  0  0  0  0  0  0  0  0
  188.5430  176.3860  143.3720 C   0  0  0  0  0  2  0  0  0  0  0  0
  186.6330  177.5280  144.4620 C   0  0  0  0  0  2  0  0  0  0  0  0
  188.1050  177.6350  144.1020 C   0  0  0  0  0  3  0  0  0  0  0  0
  187.6970  177.2500  145.5090 C   0  0  0  0  0  2  0  0  0  0  0  0
  187.1840  178.6680  140.6580 C   0  0  0  0  0  2  0  0  0  0  0  0
  186.1990  179.0470  139.6600 N   0  0  0  0  0  2  0  0  0  0  0  0
  183.1760  179.0950  141.5330 O   0  0  0  0  0  0  0  0  0  0  0  0
  184.9370  178.4170  140.0210 C   0  0  1  0  0  3  0  0  0  0  0  0
  181.8370  176.8710  138.8100 C   0  0  0  0  0  2  0  0  0  0  0  0
  182.6610  178.7640  140.2720 C   0  0  2  0  0  0  0  0  0  0  0  0
  184.5560  178.7560  141.4660 C   0  0  0  0  0  2  0  0  0  0  0  0
  181.2050  179.2280  138.3080 C   0  0  0  0  0  2  0  0  0  0  0  0
  183.5140  178.3670  138.0040 O   0  0  0  0  0  0  0  0  0  0  0  0
  181.4640  179.5910  139.8000 C   0  0  0  0  0  2  0  0  0  0  0  0
  183.9810  180.3650  139.0490 O   0  0  0  0  0  1  0  0  0  0  0  0
  182.1270  178.0440  137.8680 C   0  0  1  0  0  3  0  0  0  0  0  0
  182.2160  177.2820  140.2440 C   0  0  0  0  0  2  0  0  0  0  0  0
  183.7780  178.9960  139.2580 C   0  0  2  0  0  0  0  0  0  0  0  0
  1 24  1  6  0  0  0
  2  4  2  0  0  0  0
  3 34  1  1  0  0  0
  3  1  1  0  0  0  0
  4  3  1  0  0  0  0
  5  1  1  0  0  0  0
  6  4  1  1  0  0  0
  6  5  1  0  0  0  0
  7 15  1  0  0  0  0
  7 17  1  0  0  0  0
  8 12  2  0  0  0  0
  8 14  1  0  0  0  0
 12 11  1  0  0  0  0
 13  9  1  0  0  0  0
 13 11  1  1  0  0  0
 13  6  1  0  0  0  0
 14  9  2  0  0  0  0
 15 10  1  6  0  0  0
 15 14  1  0  0  0  0
 16  7  1  0  0  0  0
 16  8  1  0  0  0  0
 18 17  1  0  0  0  0
 18 19  1  0  0  0  0
 20 23  1  0  0  0  0
 21 23  2  0  0  0  0
 23 19  1  0  0  0  0
 23 22  1  0  0  0  0
 24 25  1  0  0  0  0
 25 26  1  6  0  0  0
 25 30  1  0  0  0  0
 26 27  1  0  0  0  0
 27 29  1  0  0  0  0
 29 28  3  0  0  0  0
 30 32  1  0  0  0  0
 31 33  1  0  0  0  0
 32 31  1  0  0  0  0
 32 33  1  0  0  0  0
 35 34  1  0  0  0  0
 37 35  1  6  0  0  0
 37 40  1  0  0  0  0
 38 46  1  0  0  0  0
 39 43  1  6  0  0  0
 39 36  1  0  0  0  0
 40 36  1  0  0  0  0
 41 43  1  0  0  0  0
 42 47  1  0  0  0  0
 45 42  1  0  0  0  0
 45 41  1  1  0  0  0
 45 38  1  0  0  0  0
 46 39  1  0  0  0  0
 47 44  1  6  0  0  0
 47 37  1  0  0  0  0
 47 39  1  0  0  0  0
M  END
>  <MODEL>
5

>  <REMARK>
 VINA RESULT:      -6.9      3.494     10.688
  Name = 
  15 active torsions:
  status: ('A' for Active; 'I' for Inactive)
    1  A    between atoms: C_1  and  N_5
    2  A    between atoms: C_1  and  C_10
    3  A    between atoms: N_3  and  C_14
    4  A    between atoms: N_3  and  C_17
    5  A    between atoms: C_4  and  N_7
    6  A    between atoms: N_5  and  C_38
    7  A    between atoms: N_7  and  C_10
    8  A    between atoms: N_8  and  C_22
    9  A    between atoms: C_10  and  C_47
   10  A    between atoms: C_14  and  C_18
   11  A    between atoms: C_22  and  C_45
   12  A    between atoms: O_24  and  C_45
   13  A    between atoms: O_24  and  P_46
   14  A    between atoms: C_33  and  C_36
   15  A    between atoms: C_34  and  C_47
                            x       y       z     vdW  Elec       q    Type
                         _______ _______ _______ _____ _____    ______ ____

>  <TORSDO>
F 15

$$$$
=
 OpenBabel11032420463D

 47 53  0  0  1  0  0  0  0  0999 V2000
  189.1740  177.0860  139.4120 C   0  0  2  0  0  3  0  0  0  0  0  0
  188.5650  178.7400  136.2550 C   0  0  0  0  0  2  0  0  0  0  0  0
  189.7500  177.8910  138.2600 C   0  0  2  0  0  3  0  0  0  0  0  0
  188.5590  178.1260  137.4390 C   0  0  0  0  0  0  0  0  0  0  0  0
  187.8330  176.7140  139.1520 O   0  0  0  0  0  0  0  0  0  0  0  0
  187.4030  177.3800  137.9870 C   0  0  1  0  0  3  0  0  0  0  0  0
  181.6190  178.6200  139.1210 N   0  0  0  0  0  0  0  0  0  0  0  0
  183.8580  179.0560  139.5240 C   0  0  0  0  0  0  0  0  0  0  0  0
  184.9270  177.6700  137.9270 N   0  0  0  0  0  0  0  0  0  0  0  0
  182.0660  178.0700  136.7800 C   0  0  0  0  0  1  0  0  0  0  0  0
  186.2100  178.7190  139.8100 C   0  0  0  0  0  2  0  0  0  0  0  0
  184.9320  179.3530  140.1810 N   0  0  0  0  0  0  0  0  0  0  0  0
  186.2120  178.2690  138.3300 C   0  0  1  0  0  3  0  0  0  0  0  0
  183.8420  178.1340  138.4660 C   0  0  0  0  0  0  0  0  0  0  0  0
  182.4260  177.7590  138.2160 C   0  0  1  0  0  3  0  0  0  0  0  0
  182.5380  179.3510  139.9060 N   0  0  0  0  0  2  0  0  0  0  0  0
  180.9000  177.7410  140.0280 C   0  0  0  0  0  2  0  0  0  0  0  0
  181.3640  176.3130  139.8380 C   0  0  0  0  0  2  0  0  0  0  0  0
  180.2930  175.4330  140.0300 O   0  0  0  0  0  0  0  0  0  0  0  0
  179.1550  175.7110  137.5150 O   0  0  0  0  0  0  0  0  0  0  0  0
  181.5500  174.3730  137.7970 O   0  0  0  0  0  1  0  0  0  0  0  0
  179.3130  173.3890  138.7180 O   0  0  0  0  0  1  0  0  0  0  0  0
  180.0540  174.6910  138.5230 P   0  0  0  0  0  0  0  0  0  0  0  0
  189.2500  177.8640  140.6400 N   0  0  0  0  0  2  0  0  0  0  0  0
  189.0030  176.9800  141.7640 C   0  0  1  0  0  3  0  0  0  0  0  0
  190.3150  176.4510  142.3410 C   0  0  0  0  0  2  0  0  0  0  0  0
  191.3520  177.4680  142.2860 N   0  0  0  0  0  2  0  0  0  0  0  0
  191.8740  178.9040  144.3430 N   0  0  0  0  0  0  0  0  0  0  0  0
  191.6400  178.2530  143.4140 C   0  0  0  0  0  0  0  0  0  0  0  0
  188.2220  177.7320  142.8240 C   0  0  0  0  0  2  0  0  0  0  0  0
  188.4020  177.6450  145.2940 C   0  0  0  0  0  2  0  0  0  0  0  0
  188.0140  176.8680  144.0490 C   0  0  0  0  0  3  0  0  0  0  0  0
  186.9410  177.5030  144.9080 C   0  0  0  0  0  2  0  0  0  0  0  0
  190.7640  177.0430  137.4920 C   0  0  0  0  0  2  0  0  0  0  0  0
  191.8780  176.6670  138.3450 N   0  0  0  0  0  2  0  0  0  0  0  0
  192.7240  174.5430  135.6200 O   0  0  0  0  0  0  0  0  0  0  0  0
  192.3980  175.3970  137.8590 C   0  0  1  0  0  3  0  0  0  0  0  0
  195.1170  172.9390  138.0400 C   0  0  0  0  0  2  0  0  0  0  0  0
  193.8900  174.4100  136.3880 C   0  0  2  0  0  0  0  0  0  0  0  0
  191.7370  175.0120  136.5310 C   0  0  0  0  0  2  0  0  0  0  0  0
  196.3480  174.6390  136.6990 C   0  0  0  0  0  2  0  0  0  0  0  0
  194.7740  175.2530  138.5180 O   0  0  0  0  0  0  0  0  0  0  0  0
  195.2110  174.5930  135.6370 C   0  0  0  0  0  2  0  0  0  0  0  0
  194.1020  176.7530  136.9050 O   0  0  0  0  0  1  0  0  0  0  0  0
  195.7810  174.3180  138.1200 C   0  0  1  0  0  3  0  0  0  0  0  0
  193.9440  173.0110  137.0470 C   0  0  0  0  0  2  0  0  0  0  0  0
  193.8450  175.4940  137.4610 C   0  0  2  0  0  0  0  0  0  0  0  0
  1 24  1  1  0  0  0
  2  4  2  0  0  0  0
  3 34  1  6  0  0  0
  3  1  1  0  0  0  0
  4  3  1  0  0  0  0
  5  1  1  0  0  0  0
  6  4  1  1  0  0  0
  6 13  1  0  0  0  0
  6  5  1  0  0  0  0
  7 16  1  0  0  0  0
  7 17  1  0  0  0  0
  8 16  1  0  0  0  0
  8 12  2  0  0  0  0
  9 13  1  0  0  0  0
  9 14  2  0  0  0  0
 11 12  1  0  0  0  0
 13 11  1  1  0  0  0
 14  8  1  0  0  0  0
 15 10  1  6  0  0  0
 15 14  1  0  0  0  0
 15  7  1  0  0  0  0
 18 17  1  0  0  0  0
 18 19  1  0  0  0  0
 20 23  2  0  0  0  0
 21 23  1  0  0  0  0
 23 22  1  0  0  0  0
 23 19  1  0  0  0  0
 24 25  1  0  0  0  0
 25 26  1  1  0  0  0
 25 30  1  0  0  0  0
 27 26  1  0  0  0  0
 27 29  1  0  0  0  0
 29 28  3  0  0  0  0
 30 32  1  0  0  0  0
 32 33  1  0  0  0  0
 32 31  1  0  0  0  0
 33 31  1  0  0  0  0
 34 35  1  0  0  0  0
 36 39  1  0  0  0  0
 36 40  1  0  0  0  0
 37 35  1  6  0  0  0
 38 45  1  0  0  0  0
 39 43  1  6  0  0  0
 39 46  1  0  0  0  0
 39 47  1  0  0  0  0
 40 37  1  0  0  0  0
 43 41  1  0  0  0  0
 45 41  1  6  0  0  0
 45 42  1  0  0  0  0
 46 38  1  0  0  0  0
 47 44  1  6  0  0  0
 47 37  1  0  0  0  0
 47 42  1  0  0  0  0
M  END
>  <MODEL>
6

>  <REMARK>
 VINA RESULT:      -6.8      1.887      2.361
  Name = 
  15 active torsions:
  status: ('A' for Active; 'I' for Inactive)
    1  A    between atoms: C_1  and  N_5
    2  A    between atoms: C_1  and  C_10
    3  A    between atoms: N_3  and  C_14
    4  A    between atoms: N_3  and  C_17
    5  A    between atoms: C_4  and  N_7
    6  A    between atoms: N_5  and  C_38
    7  A    between atoms: N_7  and  C_10
    8  A    between atoms: N_8  and  C_22
    9  A    between atoms: C_10  and  C_47
   10  A    between atoms: C_14  and  C_18
   11  A    between atoms: C_22  and  C_45
   12  A    between atoms: O_24  and  C_45
   13  A    between atoms: O_24  and  P_46
   14  A    between atoms: C_33  and  C_36
   15  A    between atoms: C_34  and  C_47
                            x       y       z     vdW  Elec       q    Type
                         _______ _______ _______ _____ _____    ______ ____

>  <TORSDO>
F 15

$$$$
=
 OpenBabel11032420463D

 47 53  0  0  1  0  0  0  0  0999 V2000
  188.1560  177.9880  138.8640 C   0  0  2  0  0  3  0  0  0  0  0  0
  186.9140  176.3890  135.8680 C   0  0  0  0  0  2  0  0  0  0  0  0
  186.9690  177.3730  138.1430 C   0  0  2  0  0  3  0  0  0  0  0  0
  187.5820  176.9340  136.8860 C   0  0  0  0  0  0  0  0  0  0  0  0
  189.2780  178.0850  138.0050 O   0  0  0  0  0  0  0  0  0  0  0  0
  188.9870  177.3980  136.8100 C   0  0  1  0  0  3  0  0  0  0  0  0
  194.3560  174.6990  137.2150 N   0  0  0  0  0  0  0  0  0  0  0  0
  192.0460  174.5340  137.2350 C   0  0  0  0  0  0  0  0  0  0  0  0
  191.3880  176.7380  136.6700 N   0  0  0  0  0  0  0  0  0  0  0  0
  194.2910  176.5180  135.5820 C   0  0  0  0  0  1  0  0  0  0  0  0
  189.7430  175.0840  137.5930 C   0  0  0  0  0  2  0  0  0  0  0  0
  190.8650  174.1270  137.5780 N   0  0  0  0  0  0  0  0  0  0  0  0
  189.9920  176.2660  136.6260 C   0  0  1  0  0  3  0  0  0  0  0  0
  192.3210  175.8640  136.8840 C   0  0  0  0  0  0  0  0  0  0  0  0
  193.7960  176.0460  136.9310 C   0  0  1  0  0  3  0  0  0  0  0  0
  193.2530  173.8400  137.4230 N   0  0  0  0  0  2  0  0  0  0  0  0
  195.0660  174.7820  138.4810 C   0  0  0  0  0  2  0  0  0  0  0  0
  195.8450  173.5070  138.7190 C   0  0  0  0  0  2  0  0  0  0  0  0
  196.6310  173.2110  137.5990 O   0  0  0  0  0  0  0  0  0  0  0  0
  195.7330  171.3370  135.7620 O   0  0  0  0  0  0  0  0  0  0  0  0
  197.8560  170.7300  137.4140 O   0  0  0  0  0  1  0  0  0  0  0  0
  195.4310  171.0060  138.3430 O   0  0  0  0  0  1  0  0  0  0  0  0
  196.3830  171.5580  137.3080 P   0  0  0  0  0  0  0  0  0  0  0  0
  188.4870  177.1870  140.0340 N   0  0  0  0  0  2  0  0  0  0  0  0
  188.7640  178.0820  141.1430 C   0  0  1  0  0  3  0  0  0  0  0  0
  187.4690  178.6240  141.7450 C   0  0  0  0  0  2  0  0  0  0  0  0
  187.0750  177.8480  142.9100 N   0  0  0  0  0  2  0  0  0  0  0  0
  185.0900  178.5840  144.3540 N   0  0  0  0  0  0  0  0  0  0  0  0
  185.9860  178.2510  143.6990 C   0  0  0  0  0  0  0  0  0  0  0  0
  189.5660  177.3360  142.1930 C   0  0  0  0  0  2  0  0  0  0  0  0
  190.5710  177.8820  144.3910 C   0  0  0  0  0  2  0  0  0  0  0  0
  190.4910  178.2800  142.9280 C   0  0  0  0  0  3  0  0  0  0  0  0
  191.6800  177.4890  143.4330 C   0  0  0  0  0  2  0  0  0  0  0  0
  185.9160  178.4480  137.8710 C   0  0  0  0  0  2  0  0  0  0  0  0
  185.4080  179.0020  139.1130 N   0  0  0  0  0  2  0  0  0  0  0  0
  182.5310  178.6810  141.1790 O   0  0  0  0  0  0  0  0  0  0  0  0
  184.1280  178.3670  139.3900 C   0  0  1  0  0  3  0  0  0  0  0  0
  180.8400  177.4120  138.0670 C   0  0  0  0  0  2  0  0  0  0  0  0
  181.9070  178.7560  139.9260 C   0  0  2  0  0  0  0  0  0  0  0  0
  183.8720  178.2980  140.9000 C   0  0  0  0  0  2  0  0  0  0  0  0
  180.3640  179.8450  138.3060 C   0  0  0  0  0  2  0  0  0  0  0  0
  182.5720  178.9790  137.5730 O   0  0  0  0  0  0  0  0  0  0  0  0
  180.7500  179.7500  139.8110 C   0  0  0  0  0  2  0  0  0  0  0  0
  183.2650  180.5630  139.0940 O   0  0  0  0  0  1  0  0  0  0  0  0
  181.1580  178.7880  137.4720 C   0  0  1  0  0  3  0  0  0  0  0  0
  181.3470  177.3720  139.5200 C   0  0  0  0  0  2  0  0  0  0  0  0
  182.9690  179.2050  138.9250 C   0  0  2  0  0  0  0  0  0  0  0  0
  1 24  1  1  0  0  0
  2  4  2  0  0  0  0
  3 34  1  6  0  0  0
  3  1  1  0  0  0  0
  4  3  1  0  0  0  0
  5  1  1  0  0  0  0
  6  4  1  1  0  0  0
  6  5  1  0  0  0  0
  7 16  1  0  0  0  0
  7 17  1  0  0  0  0
  8 16  1  0  0  0  0
  8 12  2  0  0  0  0
  9 14  2  0  0  0  0
 12 11  1  0  0  0  0
 13  9  1  0  0  0  0
 13  6  1  0  0  0  0
 13 11  1  1  0  0  0
 14 15  1  0  0  0  0
 14  8  1  0  0  0  0
 15 10  1  6  0  0  0
 15  7  1  0  0  0  0
 17 18  1  0  0  0  0
 19 18  1  0  0  0  0
 20 23  2  0  0  0  0
 23 21  1  0  0  0  0
 23 19  1  0  0  0  0
 23 22  1  0  0  0  0
 24 25  1  0  0  0  0
 25 26  1  1  0  0  0
 25 30  1  0  0  0  0
 26 27  1  0  0  0  0
 27 29  1  0  0  0  0
 29 28  3  0  0  0  0
 30 32  1  0  0  0  0
 32 33  1  0  0  0  0
 32 31  1  0  0  0  0
 33 31  1  0  0  0  0
 34 35  1  0  0  0  0
 37 35  1  1  0  0  0
 37 40  1  0  0  0  0
 38 46  1  0  0  0  0
 39 46  1  6  0  0  0
 39 36  1  0  0  0  0
 40 36  1  0  0  0  0
 41 43  1  0  0  0  0
 42 47  1  0  0  0  0
 43 39  1  0  0  0  0
 45 42  1  0  0  0  0
 45 38  1  1  0  0  0
 45 41  1  0  0  0  0
 47 44  1  1  0  0  0
 47 37  1  0  0  0  0
 47 39  1  0  0  0  0
M  END
>  <MODEL>
7

>  <REMARK>
 VINA RESULT:      -6.5      3.550     10.968
  Name = 
  15 active torsions:
  status: ('A' for Active; 'I' for Inactive)
    1  A    between atoms: C_1  and  N_5
    2  A    between atoms: C_1  and  C_10
    3  A    between atoms: N_3  and  C_14
    4  A    between atoms: N_3  and  C_17
    5  A    between atoms: C_4  and  N_7
    6  A    between atoms: N_5  and  C_38
    7  A    between atoms: N_7  and  C_10
    8  A    between atoms: N_8  and  C_22
    9  A    between atoms: C_10  and  C_47
   10  A    between atoms: C_14  and  C_18
   11  A    between atoms: C_22  and  C_45
   12  A    between atoms: O_24  and  C_45
   13  A    between atoms: O_24  and  P_46
   14  A    between atoms: C_33  and  C_36
   15  A    between atoms: C_34  and  C_47
                            x       y       z     vdW  Elec       q    Type
                         _______ _______ _______ _____ _____    ______ ____

>  <TORSDO>
F 15

$$$$
=
 OpenBabel11032420463D

 47 53  0  0  1  0  0  0  0  0999 V2000
  184.4130  178.9830  141.0180 C   0  0  2  0  0  3  0  0  0  0  0  0
  185.2450  177.9760  137.6460 C   0  0  0  0  0  2  0  0  0  0  0  0
  183.9130  178.4730  139.6770 C   0  0  2  0  0  3  0  0  0  0  0  0
  185.1650  178.3320  138.9290 C   0  0  0  0  0  0  0  0  0  0  0  0
  185.7900  179.3070  140.9570 O   0  0  0  0  0  0  0  0  0  0  0  0
  186.2990  178.8670  139.7190 C   0  0  1  0  0  3  0  0  0  0  0  0
  191.2270  175.6740  138.3800 N   0  0  0  0  0  0  0  0  0  0  0  0
  189.9330  176.7530  139.9690 C   0  0  0  0  0  0  0  0  0  0  0  0
  188.0190  177.3660  138.7150 N   0  0  0  0  0  0  0  0  0  0  0  0
  189.2480  175.0090  137.1060 C   0  0  0  0  0  1  0  0  0  0  0  0
  188.4590  178.3430  140.9830 C   0  0  0  0  0  2  0  0  0  0  0  0
  189.6410  177.4630  141.0120 N   0  0  0  0  0  0  0  0  0  0  0  0
  187.4040  177.8460  139.9660 C   0  0  1  0  0  3  0  0  0  0  0  0
  189.1780  176.7900  138.7870 C   0  0  0  0  0  0  0  0  0  0  0  0
  189.9980  176.1750  137.7100 C   0  0  1  0  0  3  0  0  0  0  0  0
  191.1440  176.0830  139.7300 N   0  0  0  0  0  2  0  0  0  0  0  0
  192.3570  176.3780  137.7970 C   0  0  0  0  0  2  0  0  0  0  0  0
  193.4950  175.4120  137.5510 C   0  0  0  0  0  2  0  0  0  0  0  0
  194.4390  175.5120  138.5790 O   0  0  0  0  0  0  0  0  0  0  0  0
  195.5210  173.8880  136.6080 O   0  0  0  0  0  0  0  0  0  0  0  0
  197.1380  174.8780  138.6110 O   0  0  0  0  0  1  0  0  0  0  0  0
  195.2950  173.0910  139.0930 O   0  0  0  0  0  1  0  0  0  0  0  0
  195.5860  174.3070  138.2460 P   0  0  0  0  0  0  0  0  0  0  0  0
  184.1790  177.9760  142.0420 N   0  0  0  0  0  2  0  0  0  0  0  0
  183.3710  178.5650  143.0940 C   0  0  1  0  0  3  0  0  0  0  0  0
  184.0890  179.7510  143.7350 C   0  0  0  0  0  2  0  0  0  0  0  0
  185.2320  179.3040  144.5150 N   0  0  0  0  0  2  0  0  0  0  0  0
  184.9410  178.6280  146.9690 N   0  0  0  0  0  0  0  0  0  0  0  0
  185.0750  178.9350  145.8600 C   0  0  0  0  0  0  0  0  0  0  0  0
  182.0410  179.0020  142.5110 C   0  0  0  0  0  2  0  0  0  0  0  0
  179.6470  179.2460  143.1050 C   0  0  0  0  0  2  0  0  0  0  0  0
  181.0730  179.3780  143.6110 C   0  0  0  0  0  3  0  0  0  0  0  0
  180.2540  178.1550  143.9690 C   0  0  0  0  0  2  0  0  0  0  0  0
  183.0230  179.5300  139.0220 C   0  0  0  0  0  2  0  0  0  0  0  0
  181.6390  179.0900  138.9820 N   0  0  0  0  0  2  0  0  0  0  0  0
  179.8730  176.0040  139.0580 O   0  0  0  0  0  0  0  0  0  0  0  0
  181.6400  177.6410  138.8410 C   0  0  1  0  0  3  0  0  0  0  0  0
  182.5770  174.7740  136.7490 C   0  0  0  0  0  2  0  0  0  0  0  0
  180.5660  175.8430  137.8500 C   0  0  2  0  0  0  0  0  0  0  0  0
  180.5950  177.0050  139.7640 C   0  0  0  0  0  2  0  0  0  0  0  0
  180.6260  175.5060  135.3850 C   0  0  0  0  0  2  0  0  0  0  0  0
  182.1660  177.1120  136.4870 O   0  0  0  0  0  0  0  0  0  0  0  0
  179.7270  175.3940  136.6520 C   0  0  0  0  0  2  0  0  0  0  0  0
  180.1480  178.0730  137.0400 O   0  0  0  0  0  1  0  0  0  0  0  0
  182.0930  175.8650  135.7880 C   0  0  1  0  0  3  0  0  0  0  0  0
  181.7000  174.8030  138.0130 C   0  0  0  0  0  2  0  0  0  0  0  0
  181.1520  177.2050  137.4870 C   0  0  2  0  0  0  0  0  0  0  0  0
  1 24  1  1  0  0  0
  2  4  2  0  0  0  0
  3 34  1  6  0  0  0
  3  1  1  0  0  0  0
  4  3  1  0  0  0  0
  5  1  1  0  0  0  0
  6  4  1  6  0  0  0
  6 13  1  0  0  0  0
  6  5  1  0  0  0  0
  7 16  1  0  0  0  0
  8 12  2  0  0  0  0
  9 14  2  0  0  0  0
  9 13  1  0  0  0  0
 11 12  1  0  0  0  0
 13 11  1  1  0  0  0
 14  8  1  0  0  0  0
 15 10  1  1  0  0  0
 15  7  1  0  0  0  0
 15 14  1  0  0  0  0
 16  8  1  0  0  0  0
 17  7  1  0  0  0  0
 18 17  1  0  0  0  0
 18 19  1  0  0  0  0
 20 23  2  0  0  0  0
 23 19  1  0  0  0  0
 23 21  1  0  0  0  0
 23 22  1  0  0  0  0
 24 25  1  0  0  0  0
 25 30  1  6  0  0  0
 25 26  1  0  0  0  0
 26 27  1  0  0  0  0
 27 29  1  0  0  0  0
 29 28  3  0  0  0  0
 30 32  1  0  0  0  0
 31 32  1  0  0  0  0
 31 33  1  0  0  0  0
 32 33  1  0  0  0  0
 35 34  1  0  0  0  0
 36 40  1  0  0  0  0
 37 35  1  6  0  0  0
 37 40  1  0  0  0  0
 38 46  1  0  0  0  0
 39 43  1  6  0  0  0
 39 46  1  0  0  0  0
 39 36  1  0  0  0  0
 41 43  1  0  0  0  0
 42 47  1  0  0  0  0
 45 41  1  1  0  0  0
 45 42  1  0  0  0  0
 45 38  1  0  0  0  0
 47 44  1  6  0  0  0
 47 39  1  0  0  0  0
 47 37  1  0  0  0  0
M  END
>  <MODEL>
8

>  <REMARK>
 VINA RESULT:      -6.4      3.612     10.531
  Name = 
  15 active torsions:
  status: ('A' for Active; 'I' for Inactive)
    1  A    between atoms: C_1  and  N_5
    2  A    between atoms: C_1  and  C_10
    3  A    between atoms: N_3  and  C_14
    4  A    between atoms: N_3  and  C_17
    5  A    between atoms: C_4  and  N_7
    6  A    between atoms: N_5  and  C_38
    7  A    between atoms: N_7  and  C_10
    8  A    between atoms: N_8  and  C_22
    9  A    between atoms: C_10  and  C_47
   10  A    between atoms: C_14  and  C_18
   11  A    between atoms: C_22  and  C_45
   12  A    between atoms: O_24  and  C_45
   13  A    between atoms: O_24  and  P_46
   14  A    between atoms: C_33  and  C_36
   15  A    between atoms: C_34  and  C_47
                            x       y       z     vdW  Elec       q    Type
                         _______ _______ _______ _____ _____    ______ ____

>  <TORSDO>
F 15

$$$$
=
 OpenBabel11032420463D

 47 53  0  0  1  0  0  0  0  0999 V2000
  187.0170  178.6280  141.6900 C   0  0  2  0  0  3  0  0  0  0  0  0
  186.7060  177.8820  138.1650 C   0  0  0  0  0  2  0  0  0  0  0  0
  186.1020  178.2290  140.5450 C   0  0  2  0  0  3  0  0  0  0  0  0
  187.0480  178.1370  139.4290 C   0  0  0  0  0  0  0  0  0  0  0  0
  188.3140  178.9460  141.2170 O   0  0  0  0  0  0  0  0  0  0  0  0
  188.3900  178.6000  139.8530 C   0  0  1  0  0  3  0  0  0  0  0  0
  192.8280  175.7640  136.9310 N   0  0  0  0  0  0  0  0  0  0  0  0
  191.9190  176.4940  138.9330 C   0  0  0  0  0  0  0  0  0  0  0  0
  189.8170  177.3410  138.2430 N   0  0  0  0  0  0  0  0  0  0  0  0
  190.6100  175.3630  135.9810 C   0  0  0  0  0  1  0  0  0  0  0  0
  190.7380  177.8400  140.5220 C   0  0  0  0  0  2  0  0  0  0  0  0
  191.8680  176.9770  140.1340 N   0  0  0  0  0  0  0  0  0  0  0  0
  189.4840  177.5550  139.6620 C   0  0  1  0  0  3  0  0  0  0  0  0
  190.9450  176.7660  137.9610 C   0  0  0  0  0  0  0  0  0  0  0  0
  191.5090  176.3860  136.6390 C   0  0  1  0  0  3  0  0  0  0  0  0
  193.0320  175.8920  138.3240 N   0  0  0  0  0  2  0  0  0  0  0  0
  193.8430  176.5770  136.2830 C   0  0  0  0  0  2  0  0  0  0  0  0
  194.8990  175.6850  135.6650 C   0  0  0  0  0  2  0  0  0  0  0  0
  195.0680  174.5340  136.4430 O   0  0  0  0  0  0  0  0  0  0  0  0
  197.4230  176.0000  136.4030 O   0  0  0  0  0  0  0  0  0  0  0  0
  196.7170  174.6010  138.6720 O   0  0  0  0  0  1  0  0  0  0  0  0
  197.4190  173.3810  136.4720 O   0  0  0  0  0  1  0  0  0  0  0  0
  196.6770  174.5950  136.9790 P   0  0  0  0  0  0  0  0  0  0  0  0
  187.0870  177.5450  142.6600 N   0  0  0  0  0  2  0  0  0  0  0  0
  188.0830  177.8850  143.6600 C   0  0  1  0  0  3  0  0  0  0  0  0
  187.4380  178.0750  145.0320 C   0  0  0  0  0  2  0  0  0  0  0  0
  186.0790  177.5560  145.0410 N   0  0  0  0  0  2  0  0  0  0  0  0
  184.1350  179.0090  145.8610 N   0  0  0  0  0  0  0  0  0  0  0  0
  185.0160  178.3530  145.4920 C   0  0  0  0  0  0  0  0  0  0  0  0
  189.1280  176.7870  143.7130 C   0  0  0  0  0  2  0  0  0  0  0  0
  191.4440  176.4040  144.5050 C   0  0  0  0  0  2  0  0  0  0  0  0
  190.1030  177.0310  144.8420 C   0  0  0  0  0  3  0  0  0  0  0  0
  191.2330  177.8960  144.3220 C   0  0  0  0  0  2  0  0  0  0  0  0
  185.0840  179.3400  140.2840 C   0  0  0  0  0  2  0  0  0  0  0  0
  184.1260  178.9380  139.2690 N   0  0  0  0  0  2  0  0  0  0  0  0
  180.6860  179.4430  138.5210 O   0  0  0  0  0  0  0  0  0  0  0  0
  182.8420  179.5330  139.6130 C   0  0  1  0  0  3  0  0  0  0  0  0
  180.3060  180.0340  142.2180 C   0  0  0  0  0  2  0  0  0  0  0  0
  180.5800  179.1090  139.8790 C   0  0  2  0  0  0  0  0  0  0  0  0
  182.0370  179.8530  138.3490 C   0  0  0  0  0  2  0  0  0  0  0  0
  179.7500  177.6570  141.7210 C   0  0  0  0  0  2  0  0  0  0  0  0
  182.0810  178.5130  141.7290 O   0  0  0  0  0  0  0  0  0  0  0  0
  179.5420  178.0410  140.2270 C   0  0  0  0  0  2  0  0  0  0  0  0
  182.1330  177.2700  139.7910 O   0  0  0  0  0  1  0  0  0  0  0  0
  180.8110  178.5960  142.3830 C   0  0  1  0  0  3  0  0  0  0  0  0
  180.2280  180.3620  140.7160 C   0  0  0  0  0  2  0  0  0  0  0  0
  181.9360  178.5560  140.3100 C   0  0  2  0  0  0  0  0  0  0  0  0
  1 24  1  1  0  0  0
  2  4  2  0  0  0  0
  3 34  1  6  0  0  0
  3  1  1  0  0  0  0
  4  3  1  0  0  0  0
  5  1  1  0  0  0  0
  6  4  1  1  0  0  0
  6  5  1  0  0  0  0
  7 16  1  0  0  0  0
  8 12  2  0  0  0  0
  9 13  1  0  0  0  0
 12 11  1  0  0  0  0
 13  6  1  0  0  0  0
 13 11  1  1  0  0  0
 14  9  2  0  0  0  0
 14  8  1  0  0  0  0
 15 10  1  1  0  0  0
 15  7  1  0  0  0  0
 15 14  1  0  0  0  0
 16  8  1  0  0  0  0
 17  7  1  0  0  0  0
 18 17  1  0  0  0  0
 18 19  1  0  0  0  0
 19 23  1  0  0  0  0
 20 23  2  0  0  0  0
 22 23  1  0  0  0  0
 23 21  1  0  0  0  0
 24 25  1  0  0  0  0
 25 30  1  1  0  0  0
 25 26  1  0  0  0  0
 26 27  1  0  0  0  0
 27 29  1  0  0  0  0
 29 28  3  0  0  0  0
 30 32  1  0  0  0  0
 31 32  1  0  0  0  0
 33 31  1  0  0  0  0
 33 32  1  0  0  0  0
 35 34  1  0  0  0  0
 36 39  1  0  0  0  0
 37 35  1  6  0  0  0
 37 47  1  0  0  0  0
 38 45  1  0  0  0  0
 39 43  1  1  0  0  0
 39 47  1  0  0  0  0
 39 46  1  0  0  0  0
 40 36  1  0  0  0  0
 40 37  1  0  0  0  0
 42 45  1  0  0  0  0
 43 41  1  0  0  0  0
 45 41  1  6  0  0  0
 46 38  1  0  0  0  0
 47 44  1  6  0  0  0
 47 42  1  0  0  0  0
M  END
>  <MODEL>
9

>  <REMARK>
 VINA RESULT:      -6.3      3.430     11.042
  Name = 
  15 active torsions:
  status: ('A' for Active; 'I' for Inactive)
    1  A    between atoms: C_1  and  N_5
    2  A    between atoms: C_1  and  C_10
    3  A    between atoms: N_3  and  C_14
    4  A    between atoms: N_3  and  C_17
    5  A    between atoms: C_4  and  N_7
    6  A    between atoms: N_5  and  C_38
    7  A    between atoms: N_7  and  C_10
    8  A    between atoms: N_8  and  C_22
    9  A    between atoms: C_10  and  C_47
   10  A    between atoms: C_14  and  C_18
   11  A    between atoms: C_22  and  C_45
   12  A    between atoms: O_24  and  C_45
   13  A    between atoms: O_24  and  P_46
   14  A    between atoms: C_33  and  C_36
   15  A    between atoms: C_34  and  C_47
                            x       y       z     vdW  Elec       q    Type
                         _______ _______ _______ _____ _____    ______ ____

>  <TORSDO>
F 15

$$$$
