=
 OpenBabel11042413283D

 56 58  0  0  1  0  0  0  0  0999 V2000
  190.2790  178.3290  143.0120 C   0  0  0  0  0  2  0  0  0  0  0  0
  191.5490  176.0110  143.9900 C   0  0  0  0  0  2  0  0  0  0  0  0
  189.9850  177.9950  144.4790 C   0  0  2  0  0  3  0  0  0  0  0  0
  191.8340  177.4220  145.8830 F   0  0  0  0  0  0  0  0  0  0  0  0
  190.3430  177.1020  142.0730 C   0  0  2  0  0  3  0  0  0  0  0  0
  190.8720  176.8770  145.0570 C   0  0  2  0  0  3  0  0  0  0  0  0
  190.5940  175.7880  142.8210 C   0  0  0  0  0  2  0  0  0  0  0  0
  188.5400  177.6950  144.7340 C   0  0  0  0  0  0  0  0  0  0  0  0
  188.1610  177.2610  145.8510 O   0  0  0  0  0  0  0  0  0  0  0  0
  187.5790  178.0500  143.7420 N   0  0  0  0  0  0  0  0  0  0  0  0
  186.2040  178.0630  144.0170 N   0  0  0  0  0  0  0  0  0  0  0  0
  185.3000  178.7090  143.1240 C   0  0  0  0  0  0  0  0  0  0  0  0
  185.7490  179.3630  142.1440 O   0  0  0  0  0  0  0  0  0  0  0  0
  183.8270  178.6440  143.3990 C   0  0  1  0  0  3  0  0  0  0  0  0
  183.2830  179.9730  143.6180 N   0  0  0  0  0  1  0  0  0  0  0  0
  183.0260  177.8870  142.3350 C   0  0  0  0  0  2  0  0  0  0  0  0
  182.3640  178.8290  141.3300 C   0  0  0  0  0  2  0  0  0  0  0  0
  182.3340  178.2840  139.8980 C   0  0  1  0  0  0  0  0  0  0  0  0
  183.7080  178.0460  139.4380 N   0  0  0  0  0  2  0  0  0  0  0  0
  184.6290  179.0090  138.9090 C   0  0  0  0  0  0  0  0  0  0  0  0
  185.5620  178.6230  138.1680 O   0  0  0  0  0  0  0  0  0  0  0  0
  184.4780  180.3670  139.1580 O   0  0  0  0  0  1  0  0  0  0  0  0
  181.3170  176.7790  139.8200 S   0  0  0  0  0  3  0  0  0  0  0  0
  180.0880  177.0600  140.6750 O   0  0  0  0  0  0  0  0  0  0  0  0
  181.6520  179.3810  139.0560 C   0  0  0  0  0  2  0  0  0  0  0  0
  180.8100  178.9530  137.8470 C   0  0  1  0  0  3  0  0  0  0  0  0
  179.6410  179.7100  137.7650 O   0  0  0  0  0  1  0  0  0  0  0  0
  181.5710  179.0610  136.6120 N   0  0  0  0  0  2  0  0  0  0  0  0
  182.1740  177.4950  134.8530 C   0  0  0  0  0  1  0  0  0  0  0  0
  181.0490  178.0680  135.6850 C   0  0  0  0  0  2  0  0  0  0  0  0
  191.3960  177.2750  141.0750 N   0  0  0  0  0  2  0  0  0  0  0  0
  190.7930  177.4650  139.8170 N   0  0  0  0  0  2  0  0  0  0  0  0
  191.2750  176.4110  138.9240 C   0  0  1  0  0  3  0  0  0  0  0  0
  189.1540  174.0070  136.8910 C   0  0  0  0  0  3  0  0  0  0  0  0
  187.9090  174.6550  136.8820 C   0  0  0  0  0  0  0  0  0  0  0  0
  187.8140  175.9440  137.4370 C   0  0  0  0  0  3  0  0  0  0  0  0
  188.9220  176.5310  138.0620 C   0  0  0  0  0  3  0  0  0  0  0  0
  190.1430  175.8520  138.1150 C   0  0  0  0  0  0  0  0  0  0  0  0
  190.2590  174.5900  137.5140 C   0  0  0  0  0  3  0  0  0  0  0  0
  185.7210  174.9650  135.7050 C   0  0  0  0  0  2  0  0  0  0  0  0
  186.7020  173.9570  136.2950 C   0  0  2  0  0  3  0  0  0  0  0  0
  184.5900  173.5410  137.2030 C   0  0  0  0  0  2  0  0  0  0  0  0
  186.0030  173.2100  137.3390 N   0  0  0  0  0  2  0  0  0  0  0  0
  184.5140  174.9120  136.6000 C   0  0  0  0  0  2  0  0  0  0  0  0
  192.2940  176.9430  138.0220 N   0  0  0  0  0  2  0  0  0  0  0  0
  193.3310  175.9390  137.8630 C   0  0  0  0  0  2  0  0  0  0  0  0
  194.1340  176.2540  136.6890 N   0  0  0  0  0  2  0  0  0  0  0  0
  195.1920  175.3320  136.6540 N   0  0  0  0  0  2  0  0  0  0  0  0
  194.9280  174.3330  137.6860 C   0  0  2  0  0  3  0  0  0  0  0  0
  196.1840  174.0170  138.5010 C   0  0  2  0  0  3  0  0  0  0  0  0
  196.1210  174.6620  139.8760 C   0  0  0  0  0  1  0  0  0  0  0  0
  198.2600  175.4750  138.2260 N   0  0  0  0  0  1  0  0  0  0  0  0
  197.4590  174.3780  137.7930 C   0  0  0  0  0  0  0  0  0  0  0  0
  197.8120  173.7240  136.7720 O   0  0  0  0  0  0  0  0  0  0  0  0
  194.3110  173.0790  137.0860 C   0  0  0  0  0  2  0  0  0  0  0  0
  195.2780  172.0780  137.0200 O   0  0  0  0  0  1  0  0  0  0  0  0
  1  3  1  0  0  0  0
  2  6  1  0  0  0  0
  3  8  1  6  0  0  0
  3  6  1  0  0  0  0
  5 31  1  6  0  0  0
  5  7  1  0  0  0  0
  5  1  1  0  0  0  0
  6  4  1  6  0  0  0
  7  2  1  0  0  0  0
  8  9  2  0  0  0  0
 10 11  2  0  0  0  0
 10  8  1  0  0  0  0
 12 14  1  0  0  0  0
 12 11  1  0  0  0  0
 13 12  2  0  0  0  0
 14 15  1  6  0  0  0
 16 14  1  0  0  0  0
 17 16  1  0  0  0  0
 18 25  1  6  0  0  0
 18 17  1  0  0  0  0
 19 18  1  0  0  0  0
 20 22  1  0  0  0  0
 20 19  1  0  0  0  0
 21 20  2  0  0  0  0
 23 18  1  0  0  0  0
 23 24  2  0  0  0  0
 26 27  1  6  0  0  0
 26 25  1  0  0  0  0
 28 26  1  0  0  0  0
 29 30  1  0  0  0  0
 30 28  1  0  0  0  0
 32 31  1  0  0  0  0
 33 45  1  6  0  0  0
 33 32  1  0  0  0  0
 34 39  1  0  0  0  0
 35 34  2  0  0  0  0
 35 36  1  0  0  0  0
 36 37  2  0  0  0  0
 37 38  1  0  0  0  0
 38 33  1  0  0  0  0
 39 38  2  0  0  0  0
 40 41  1  0  0  0  0
 40 44  1  0  0  0  0
 41 35  1  1  0  0  0
 41 43  1  0  0  0  0
 42 43  1  0  0  0  0
 44 42  1  0  0  0  0
 46 45  1  0  0  0  0
 47 46  1  0  0  0  0
 48 47  1  0  0  0  0
 48 49  1  0  0  0  0
 49 55  1  6  0  0  0
 49 50  1  0  0  0  0
 50 51  1  1  0  0  0
 53 52  1  0  0  0  0
 53 50  1  0  0  0  0
 54 53  2  0  0  0  0
 56 55  1  0  0  0  0
M  END
>  <MODEL>
1

>  <REMARK>
 VINA RESULT:      -6.3      0.000      0.000
  Name = 
  25 active torsions:
  status: ('A' for Active; 'I' for Inactive)
    1  A    between atoms: C_1  and  C_17
    2  A    between atoms: C_3  and  C_38
    3  A    between atoms: C_3  and  C_52
    4  A    between atoms: N_4  and  C_16
    5  A    between atoms: N_4  and  N_26
    6  A    between atoms: C_5  and  C_17
    7  A    between atoms: C_5  and  C_36
    8  A    between atoms: C_8  and  C_20
    9  A    between atoms: N_12  and  C_52
   10  A    between atoms: C_14  and  N_24
   11  A    between atoms: C_15  and  C_38
   12  A    between atoms: C_15  and  C_44
   13  A    between atoms: C_16  and  N_48
   14  A    between atoms: C_17  and  N_26
   15  A    between atoms: C_18  and  C_22
   16  A    between atoms: N_24  and  C_43
   17  A    between atoms: N_27  and  N_28
   18  A    between atoms: C_29  and  N_39
   19  A    between atoms: N_30  and  C_34
   20  A    between atoms: N_30  and  N_39
   21  A    between atoms: S_31  and  C_52
   22  A    between atoms: C_34  and  C_45
   23  A    between atoms: C_34  and  N_48
   24  A    between atoms: C_37  and  C_43
   25  A    between atoms: C_37  and  C_52
                            x       y       z     vdW  Elec       q    Type
                         _______ _______ _______ _____ _____    ______ ____

>  <TORSDO>
F 25

$$$$
=
 OpenBabel11042413283D

 56 58  0  0  1  0  0  0  0  0999 V2000
  185.5430  179.7430  142.5060 C   0  0  0  0  0  2  0  0  0  0  0  0
  186.6110  177.9240  144.3740 C   0  0  0  0  0  2  0  0  0  0  0  0
  184.6350  179.4270  143.6990 C   0  0  2  0  0  3  0  0  0  0  0  0
  185.6110  179.4660  145.8820 F   0  0  0  0  0  0  0  0  0  0  0  0
  186.3230  178.5290  141.9510 C   0  0  2  0  0  3  0  0  0  0  0  0
  185.3280  178.6300  144.8200 C   0  0  2  0  0  3  0  0  0  0  0  0
  186.4380  177.3790  142.9580 C   0  0  0  0  0  2  0  0  0  0  0  0
  183.3560  178.7570  143.3020 C   0  0  0  0  0  0  0  0  0  0  0  0
  182.4500  178.5480  144.1470 O   0  0  0  0  0  0  0  0  0  0  0  0
  183.1180  178.4930  141.9210 N   0  0  0  0  0  2  0  0  0  0  0  0
  181.8480  178.1350  141.4440 N   0  0  0  0  0  2  0  0  0  0  0  0
  181.7220  177.3140  140.2860 C   0  0  0  0  0  0  0  0  0  0  0  0
  182.7500  177.0010  139.6250 O   0  0  0  0  0  0  0  0  0  0  0  0
  180.3570  176.8810  139.8420 C   0  0  1  0  0  3  0  0  0  0  0  0
  179.4110  177.9800  139.9330 N   0  0  0  0  0  1  0  0  0  0  0  0
  180.3270  176.2410  138.4500 C   0  0  0  0  0  2  0  0  0  0  0  0
  181.1790  174.9740  138.3770 C   0  0  0  0  0  2  0  0  0  0  0  0
  181.1850  174.3110  136.9950 C   0  0  1  0  0  0  0  0  0  0  0  0
  179.9930  173.4650  136.8540 N   0  0  0  0  0  2  0  0  0  0  0  0
  179.8060  172.1340  137.3520 C   0  0  0  0  0  0  0  0  0  0  0  0
  178.9620  171.3870  136.8060 O   0  0  0  0  0  0  0  0  0  0  0  0
  180.5790  171.6350  138.3940 O   0  0  0  0  0  1  0  0  0  0  0  0
  181.2820  175.5760  135.6930 S   0  0  0  0  0  3  0  0  0  0  0  0
  182.1530  174.9790  134.5940 O   0  0  0  0  0  0  0  0  0  0  0  0
  182.4720  173.4630  136.9530 C   0  0  0  0  0  2  0  0  0  0  0  0
  183.7590  174.0650  137.5350 C   0  0  1  0  0  3  0  0  0  0  0  0
  184.6840  173.0630  137.8310 O   0  0  0  0  0  1  0  0  0  0  0  0
  184.3410  175.0400  136.6250 N   0  0  0  0  0  2  0  0  0  0  0  0
  184.7090  177.4370  136.7870 C   0  0  0  0  0  1  0  0  0  0  0  0
  184.9440  176.0890  137.4320 C   0  0  0  0  0  2  0  0  0  0  0  0
  187.6700  178.9250  141.5460 N   0  0  0  0  0  2  0  0  0  0  0  0
  188.3300  177.7970  141.0230 N   0  0  0  0  0  2  0  0  0  0  0  0
  189.7510  177.9170  141.3500 C   0  0  1  0  0  3  0  0  0  0  0  0
  190.4230  178.6830  145.0070 C   0  0  0  0  0  3  0  0  0  0  0  0
  190.0460  177.4820  145.6290 C   0  0  0  0  0  0  0  0  0  0  0  0
  189.6950  176.3840  144.8230 C   0  0  0  0  0  3  0  0  0  0  0  0
  189.6430  176.5150  143.4290 C   0  0  0  0  0  3  0  0  0  0  0  0
  189.9660  177.7340  142.8220 C   0  0  0  0  0  0  0  0  0  0  0  0
  190.3700  178.8160  143.6180 C   0  0  0  0  0  3  0  0  0  0  0  0
  189.1600  176.2150  147.5980 C   0  0  0  0  0  2  0  0  0  0  0  0
  190.0090  177.3960  147.1380 C   0  0  2  0  0  3  0  0  0  0  0  0
  188.4320  178.1820  148.6730 C   0  0  0  0  0  2  0  0  0  0  0  0
  189.4190  178.6140  147.6920 N   0  0  0  0  0  2  0  0  0  0  0  0
  187.9490  176.8270  148.2450 C   0  0  0  0  0  2  0  0  0  0  0  0
  190.5210  176.9100  140.6220 N   0  0  0  0  0  2  0  0  0  0  0  0
  190.9950  177.5060  139.3860 C   0  0  0  0  0  2  0  0  0  0  0  0
  190.6080  176.6620  138.2630 N   0  0  0  0  0  2  0  0  0  0  0  0
  190.8400  175.3320  138.6470 N   0  0  0  0  0  2  0  0  0  0  0  0
  191.5590  174.6860  137.5520 C   0  0  2  0  0  3  0  0  0  0  0  0
  192.2480  175.7100  136.6470 C   0  0  2  0  0  3  0  0  0  0  0  0
  192.0140  175.3880  135.1800 C   0  0  0  0  0  1  0  0  0  0  0  0
  194.4200  174.9160  137.7240 N   0  0  0  0  0  1  0  0  0  0  0  0
  193.7130  175.8720  136.9380 C   0  0  0  0  0  0  0  0  0  0  0  0
  194.3230  176.8920  136.5130 O   0  0  0  0  0  0  0  0  0  0  0  0
  190.6400  173.7630  136.7660 C   0  0  0  0  0  2  0  0  0  0  0  0
  189.4140  173.6690  137.4210 O   0  0  0  0  0  1  0  0  0  0  0  0
  1  3  1  0  0  0  0
  2  6  1  0  0  0  0
  3  8  1  6  0  0  0
  3  6  1  0  0  0  0
  5 31  1  1  0  0  0
  5  1  1  0  0  0  0
  5  7  1  0  0  0  0
  6  4  1  1  0  0  0
  7  2  1  0  0  0  0
  8  9  2  0  0  0  0
 10  8  1  0  0  0  0
 11 10  1  0  0  0  0
 12 11  1  0  0  0  0
 13 12  2  0  0  0  0
 14 15  1  6  0  0  0
 14 12  1  0  0  0  0
 16 14  1  0  0  0  0
 17 16  1  0  0  0  0
 18 25  1  6  0  0  0
 18 17  1  0  0  0  0
 19 18  1  0  0  0  0
 19 20  1  0  0  0  0
 20 22  1  0  0  0  0
 21 20  2  0  0  0  0
 23 18  1  0  0  0  0
 24 23  2  0  0  0  0
 25 26  1  0  0  0  0
 26 27  1  6  0  0  0
 28 30  1  0  0  0  0
 28 26  1  0  0  0  0
 29 30  1  0  0  0  0
 32 33  1  0  0  0  0
 32 31  1  0  0  0  0
 33 45  1  6  0  0  0
 33 38  1  0  0  0  0
 34 35  1  0  0  0  0
 36 35  2  0  0  0  0
 37 36  1  0  0  0  0
 38 37  2  0  0  0  0
 38 39  1  0  0  0  0
 39 34  2  0  0  0  0
 40 44  1  0  0  0  0
 41 35  1  6  0  0  0
 41 40  1  0  0  0  0
 41 43  1  0  0  0  0
 43 42  1  0  0  0  0
 44 42  1  0  0  0  0
 46 45  1  0  0  0  0
 47 48  1  0  0  0  0
 47 46  1  0  0  0  0
 49 55  1  6  0  0  0
 49 48  1  0  0  0  0
 50 51  1  6  0  0  0
 50 53  1  0  0  0  0
 50 49  1  0  0  0  0
 53 52  1  0  0  0  0
 54 53  2  0  0  0  0
 55 56  1  0  0  0  0
M  END
>  <MODEL>
2

>  <REMARK>
 VINA RESULT:      -5.9      3.209      6.604
  Name = 
  25 active torsions:
  status: ('A' for Active; 'I' for Inactive)
    1  A    between atoms: C_1  and  C_17
    2  A    between atoms: C_3  and  C_38
    3  A    between atoms: C_3  and  C_52
    4  A    between atoms: N_4  and  C_16
    5  A    between atoms: N_4  and  N_26
    6  A    between atoms: C_5  and  C_17
    7  A    between atoms: C_5  and  C_36
    8  A    between atoms: C_8  and  C_20
    9  A    between atoms: N_12  and  C_52
   10  A    between atoms: C_14  and  N_24
   11  A    between atoms: C_15  and  C_38
   12  A    between atoms: C_15  and  C_44
   13  A    between atoms: C_16  and  N_48
   14  A    between atoms: C_17  and  N_26
   15  A    between atoms: C_18  and  C_22
   16  A    between atoms: N_24  and  C_43
   17  A    between atoms: N_27  and  N_28
   18  A    between atoms: C_29  and  N_39
   19  A    between atoms: N_30  and  C_34
   20  A    between atoms: N_30  and  N_39
   21  A    between atoms: S_31  and  C_52
   22  A    between atoms: C_34  and  C_45
   23  A    between atoms: C_34  and  N_48
   24  A    between atoms: C_37  and  C_43
   25  A    between atoms: C_37  and  C_52
                            x       y       z     vdW  Elec       q    Type
                         _______ _______ _______ _____ _____    ______ ____

>  <TORSDO>
F 25

$$$$
=
 OpenBabel11042413283D

 56 58  0  0  1  0  0  0  0  0999 V2000
  191.3780  178.1910  143.6770 C   0  0  0  0  0  2  0  0  0  0  0  0
  191.7790  175.4530  144.2100 C   0  0  0  0  0  2  0  0  0  0  0  0
  190.9450  177.7290  145.0730 C   0  0  2  0  0  3  0  0  0  0  0  0
  192.4560  176.3460  146.3070 F   0  0  0  0  0  0  0  0  0  0  0  0
  191.0610  177.1910  142.5410 C   0  0  2  0  0  3  0  0  0  0  0  0
  191.3940  176.2990  145.4270 C   0  0  2  0  0  3  0  0  0  0  0  0
  190.8400  175.7610  143.0460 C   0  0  0  0  0  2  0  0  0  0  0  0
  189.4740  177.8850  145.3130 C   0  0  0  0  0  0  0  0  0  0  0  0
  188.9980  177.7830  146.4720 O   0  0  0  0  0  0  0  0  0  0  0  0
  188.6420  178.3010  144.2320 N   0  0  0  0  0  2  0  0  0  0  0  0
  187.3250  178.7380  144.4400 N   0  0  0  0  0  2  0  0  0  0  0  0
  186.2460  177.8070  144.4020 C   0  0  0  0  0  0  0  0  0  0  0  0
  186.4640  176.6100  144.0710 O   0  0  0  0  0  0  0  0  0  0  0  0
  184.8570  178.2850  144.7020 C   0  0  1  0  0  3  0  0  0  0  0  0
  184.8450  179.1270  145.8860 N   0  0  0  0  0  1  0  0  0  0  0  0
  184.1680  178.9810  143.5240 C   0  0  0  0  0  2  0  0  0  0  0  0
  183.8610  178.0140  142.3800 C   0  0  0  0  0  2  0  0  0  0  0  0
  182.9830  178.6180  141.2780 C   0  0  1  0  0  0  0  0  0  0  0  0
  182.1500  179.6850  141.8470 N   0  0  0  0  0  2  0  0  0  0  0  0
  181.0160  179.5370  142.7130 C   0  0  0  0  0  0  0  0  0  0  0  0
  180.1590  180.4490  142.7620 O   0  0  0  0  0  0  0  0  0  0  0  0
  180.8200  178.3810  143.4580 O   0  0  0  0  0  1  0  0  0  0  0  0
  184.0180  179.2170  139.9100 S   0  0  0  0  0  3  0  0  0  0  0  0
  185.3340  179.6560  140.5410 O   0  0  0  0  0  0  0  0  0  0  0  0
  182.1130  177.4540  140.7630 C   0  0  0  0  0  2  0  0  0  0  0  0
  180.9110  177.7830  139.8690 C   0  0  1  0  0  3  0  0  0  0  0  0
  181.3070  177.9220  138.5380 O   0  0  0  0  0  1  0  0  0  0  0  0
  179.8750  176.7680  139.9860 N   0  0  0  0  0  2  0  0  0  0  0  0
  179.4860  174.4700  139.2970 C   0  0  0  0  0  1  0  0  0  0  0  0
  180.0770  175.8080  138.9120 C   0  0  0  0  0  2  0  0  0  0  0  0
  192.1410  177.1730  141.5580 N   0  0  0  0  0  2  0  0  0  0  0  0
  191.6830  177.7880  140.3780 N   0  0  0  0  0  2  0  0  0  0  0  0
  191.7210  176.7920  139.3070 C   0  0  1  0  0  3  0  0  0  0  0  0
  188.0840  177.3920  138.4000 C   0  0  0  0  0  3  0  0  0  0  0  0
  188.0770  177.1030  137.0260 C   0  0  0  0  0  0  0  0  0  0  0  0
  189.2450  176.5870  136.4370 C   0  0  0  0  0  3  0  0  0  0  0  0
  190.4160  176.4450  137.1920 C   0  0  0  0  0  3  0  0  0  0  0  0
  190.4290  176.7900  138.5470 C   0  0  0  0  0  0  0  0  0  0  0  0
  189.2520  177.2520  139.1530 C   0  0  0  0  0  3  0  0  0  0  0  0
  185.5860  177.3450  137.0910 C   0  0  0  0  0  2  0  0  0  0  0  0
  186.8300  177.3630  136.2100 C   0  0  2  0  0  3  0  0  0  0  0  0
  185.2870  175.8830  135.2680 C   0  0  0  0  0  2  0  0  0  0  0  0
  186.6740  176.3230  135.1940 N   0  0  0  0  0  2  0  0  0  0  0  0
  184.8240  176.1180  136.6760 C   0  0  0  0  0  2  0  0  0  0  0  0
  192.8200  177.0820  138.3880 N   0  0  0  0  0  2  0  0  0  0  0  0
  193.4440  175.8260  138.0130 C   0  0  0  0  0  2  0  0  0  0  0  0
  193.8130  175.8700  136.6050 N   0  0  0  0  0  2  0  0  0  0  0  0
  195.1930  175.6220  136.5320 N   0  0  0  0  0  2  0  0  0  0  0  0
  195.4150  174.2680  137.0320 C   0  0  2  0  0  3  0  0  0  0  0  0
  196.8720  174.0510  137.4470 C   0  0  2  0  0  3  0  0  0  0  0  0
  197.1880  172.5700  137.5820 C   0  0  0  0  0  1  0  0  0  0  0  0
  196.4150  174.8030  139.8410 N   0  0  0  0  0  1  0  0  0  0  0  0
  197.2560  174.8010  138.6910 C   0  0  0  0  0  0  0  0  0  0  0  0
  198.3230  175.4750  138.7070 O   0  0  0  0  0  0  0  0  0  0  0  0
  194.9530  173.2310  136.0200 C   0  0  0  0  0  2  0  0  0  0  0  0
  195.3500  173.6260  134.7440 O   0  0  0  0  0  1  0  0  0  0  0  0
  1  3  1  0  0  0  0
  2  6  1  0  0  0  0
  3  8  1  6  0  0  0
  3  6  1  0  0  0  0
  5 31  1  6  0  0  0
  5  7  1  0  0  0  0
  5  1  1  0  0  0  0
  6  4  1  1  0  0  0
  7  2  1  0  0  0  0
  8  9  2  0  0  0  0
 10 11  1  0  0  0  0
 10  8  1  0  0  0  0
 12 11  1  0  0  0  0
 12 14  1  0  0  0  0
 13 12  2  0  0  0  0
 14 15  1  1  0  0  0
 16 14  1  0  0  0  0
 17 16  1  0  0  0  0
 18 25  1  6  0  0  0
 18 19  1  0  0  0  0
 18 17  1  0  0  0  0
 19 20  1  0  0  0  0
 20 21  2  0  0  0  0
 20 22  1  0  0  0  0
 23 24  2  0  0  0  0
 23 18  1  0  0  0  0
 26 27  1  6  0  0  0
 26 28  1  0  0  0  0
 26 25  1  0  0  0  0
 30 29  1  0  0  0  0
 30 28  1  0  0  0  0
 32 31  1  0  0  0  0
 33 45  1  6  0  0  0
 33 32  1  0  0  0  0
 34 39  1  0  0  0  0
 35 34  2  0  0  0  0
 36 35  1  0  0  0  0
 36 37  2  0  0  0  0
 37 38  1  0  0  0  0
 38 39  2  0  0  0  0
 38 33  1  0  0  0  0
 41 35  1  1  0  0  0
 41 40  1  0  0  0  0
 42 44  1  0  0  0  0
 43 42  1  0  0  0  0
 43 41  1  0  0  0  0
 44 40  1  0  0  0  0
 46 45  1  0  0  0  0
 47 46  1  0  0  0  0
 48 47  1  0  0  0  0
 48 49  1  0  0  0  0
 49 55  1  6  0  0  0
 49 50  1  0  0  0  0
 50 51  1  1  0  0  0
 50 53  1  0  0  0  0
 53 54  2  0  0  0  0
 53 52  1  0  0  0  0
 56 55  1  0  0  0  0
M  END
>  <MODEL>
3

>  <REMARK>
 VINA RESULT:      -5.8      1.976      2.805
  Name = 
  25 active torsions:
  status: ('A' for Active; 'I' for Inactive)
    1  A    between atoms: C_1  and  C_17
    2  A    between atoms: C_3  and  C_38
    3  A    between atoms: C_3  and  C_52
    4  A    between atoms: N_4  and  C_16
    5  A    between atoms: N_4  and  N_26
    6  A    between atoms: C_5  and  C_17
    7  A    between atoms: C_5  and  C_36
    8  A    between atoms: C_8  and  C_20
    9  A    between atoms: N_12  and  C_52
   10  A    between atoms: C_14  and  N_24
   11  A    between atoms: C_15  and  C_38
   12  A    between atoms: C_15  and  C_44
   13  A    between atoms: C_16  and  N_48
   14  A    between atoms: C_17  and  N_26
   15  A    between atoms: C_18  and  C_22
   16  A    between atoms: N_24  and  C_43
   17  A    between atoms: N_27  and  N_28
   18  A    between atoms: C_29  and  N_39
   19  A    between atoms: N_30  and  C_34
   20  A    between atoms: N_30  and  N_39
   21  A    between atoms: S_31  and  C_52
   22  A    between atoms: C_34  and  C_45
   23  A    between atoms: C_34  and  N_48
   24  A    between atoms: C_37  and  C_43
   25  A    between atoms: C_37  and  C_52
                            x       y       z     vdW  Elec       q    Type
                         _______ _______ _______ _____ _____    ______ ____

>  <TORSDO>
F 25

$$$$
=
 OpenBabel11042413283D

 56 58  0  0  1  0  0  0  0  0999 V2000
  190.4820  178.2390  143.2230 C   0  0  0  0  0  2  0  0  0  0  0  0
  191.6470  176.0510  144.5650 C   0  0  0  0  0  2  0  0  0  0  0  0
  189.8950  177.9350  144.6060 C   0  0  2  0  0  3  0  0  0  0  0  0
  191.4240  177.5420  146.4030 F   0  0  0  0  0  0  0  0  0  0  0  0
  190.8250  176.9880  142.3810 C   0  0  2  0  0  3  0  0  0  0  0  0
  190.7010  176.9030  145.4160 C   0  0  2  0  0  3  0  0  0  0  0  0
  190.9870  175.7210  143.2280 C   0  0  0  0  0  2  0  0  0  0  0  0
  188.4500  177.5420  144.5580 C   0  0  0  0  0  0  0  0  0  0  0  0
  187.8560  177.1480  145.5930 O   0  0  0  0  0  0  0  0  0  0  0  0
  187.7180  177.7640  143.3540 N   0  0  0  0  0  2  0  0  0  0  0  0
  186.3180  177.6900  143.3170 N   0  0  0  0  0  2  0  0  0  0  0  0
  185.5870  178.4140  142.3300 C   0  0  0  0  0  0  0  0  0  0  0  0
  186.1930  179.2090  141.5610 O   0  0  0  0  0  0  0  0  0  0  0  0
  184.0970  178.2580  142.2620 C   0  0  1  0  0  3  0  0  0  0  0  0
  183.4440  179.1060  143.2440 N   0  0  0  0  0  1  0  0  0  0  0  0
  183.5100  178.4790  140.8640 C   0  0  0  0  0  2  0  0  0  0  0  0
  182.0700  177.9800  140.7560 C   0  0  0  0  0  2  0  0  0  0  0  0
  181.1990  178.8040  139.7990 C   0  0  1  0  0  0  0  0  0  0  0  0
  180.5020  179.8520  140.5550 N   0  0  0  0  0  2  0  0  0  0  0  0
  179.5910  180.8340  140.0440 C   0  0  0  0  0  0  0  0  0  0  0  0
  179.4220  181.9020  140.6770 O   0  0  0  0  0  1  0  0  0  0  0  0
  178.9310  180.6500  138.8360 O   0  0  0  0  0  0  0  0  0  0  0  0
  182.2170  179.4900  138.4590 S   0  0  0  0  0  3  0  0  0  0  0  0
  182.9600  180.6760  139.0630 O   0  0  0  0  0  0  0  0  0  0  0  0
  180.1980  177.8020  139.1910 C   0  0  0  0  0  2  0  0  0  0  0  0
  180.5060  176.3030  139.3080 C   0  0  1  0  0  3  0  0  0  0  0  0
  179.7950  175.7320  140.3640 O   0  0  0  0  0  1  0  0  0  0  0  0
  180.2120  175.6080  138.0640 N   0  0  0  0  0  2  0  0  0  0  0  0
  181.1400  173.8140  136.7120 C   0  0  0  0  0  1  0  0  0  0  0  0
  180.8790  174.3160  138.1140 C   0  0  0  0  0  2  0  0  0  0  0  0
  192.0580  177.2010  141.6270 N   0  0  0  0  0  2  0  0  0  0  0  0
  191.7360  177.8420  140.4160 N   0  0  0  0  0  2  0  0  0  0  0  0
  191.6280  176.8160  139.3790 C   0  0  1  0  0  3  0  0  0  0  0  0
  189.3140  177.0810  136.3810 C   0  0  0  0  0  3  0  0  0  0  0  0
  188.0510  177.1190  136.9920 C   0  0  0  0  0  0  0  0  0  0  0  0
  187.9800  177.1870  138.3950 C   0  0  0  0  0  3  0  0  0  0  0  0
  189.1480  177.1330  139.1670 C   0  0  0  0  0  3  0  0  0  0  0  0
  190.3990  177.0380  138.5490 C   0  0  0  0  0  0  0  0  0  0  0  0
  190.4780  177.0250  137.1490 C   0  0  0  0  0  3  0  0  0  0  0  0
  185.6230  176.5100  136.9300 C   0  0  0  0  0  2  0  0  0  0  0  0
  186.8010  177.0700  136.1410 C   0  0  2  0  0  3  0  0  0  0  0  0
  185.8610  175.3210  134.9100 C   0  0  0  0  0  2  0  0  0  0  0  0
  187.0200  176.2010  134.9850 N   0  0  0  0  0  2  0  0  0  0  0  0
  185.3260  175.1760  136.3040 C   0  0  0  0  0  2  0  0  0  0  0  0
  192.8050  176.8480  138.5130 N   0  0  0  0  0  2  0  0  0  0  0  0
  193.2900  175.4890  138.3530 C   0  0  0  0  0  2  0  0  0  0  0  0
  194.5590  175.5090  137.6380 N   0  0  0  0  0  2  0  0  0  0  0  0
  194.9540  174.1730  137.4630 N   0  0  0  0  0  2  0  0  0  0  0  0
  196.3630  174.0880  137.8350 C   0  0  2  0  0  3  0  0  0  0  0  0
  196.9620  172.7270  137.4690 C   0  0  2  0  0  3  0  0  0  0  0  0
  197.5250  172.7400  136.0570 C   0  0  0  0  0  1  0  0  0  0  0  0
  195.9610  170.4970  136.7390 N   0  0  0  0  0  1  0  0  0  0  0  0
  196.0050  171.5850  137.6590 C   0  0  0  0  0  0  0  0  0  0  0  0
  195.1960  171.6040  138.6280 O   0  0  0  0  0  0  0  0  0  0  0  0
  196.5590  174.4150  139.3080 C   0  0  0  0  0  2  0  0  0  0  0  0
  197.5740  175.3600  139.4370 O   0  0  0  0  0  1  0  0  0  0  0  0
  1  3  1  0  0  0  0
  2  6  1  0  0  0  0
  3  8  1  6  0  0  0
  3  6  1  0  0  0  0
  5 31  1  1  0  0  0
  5  1  1  0  0  0  0
  5  7  1  0  0  0  0
  6  4  1  1  0  0  0
  7  2  1  0  0  0  0
  8  9  2  0  0  0  0
 10  8  1  0  0  0  0
 11 10  1  0  0  0  0
 12 11  1  0  0  0  0
 13 12  2  0  0  0  0
 14 12  1  0  0  0  0
 14 15  1  1  0  0  0
 16 14  1  0  0  0  0
 17 16  1  0  0  0  0
 18 25  1  6  0  0  0
 18 19  1  0  0  0  0
 18 17  1  0  0  0  0
 20 19  1  0  0  0  0
 20 21  1  0  0  0  0
 22 20  2  0  0  0  0
 23 24  2  0  0  0  0
 23 18  1  0  0  0  0
 25 26  1  0  0  0  0
 26 27  1  1  0  0  0
 28 30  1  0  0  0  0
 28 26  1  0  0  0  0
 29 30  1  0  0  0  0
 32 31  1  0  0  0  0
 33 45  1  6  0  0  0
 33 32  1  0  0  0  0
 34 35  2  0  0  0  0
 34 39  1  0  0  0  0
 35 36  1  0  0  0  0
 36 37  2  0  0  0  0
 38 37  1  0  0  0  0
 38 33  1  0  0  0  0
 39 38  2  0  0  0  0
 41 40  1  0  0  0  0
 41 35  1  1  0  0  0
 42 43  1  0  0  0  0
 42 44  1  0  0  0  0
 43 41  1  0  0  0  0
 44 40  1  0  0  0  0
 46 45  1  0  0  0  0
 47 46  1  0  0  0  0
 48 47  1  0  0  0  0
 48 49  1  0  0  0  0
 49 55  1  1  0  0  0
 50 51  1  6  0  0  0
 50 53  1  0  0  0  0
 50 49  1  0  0  0  0
 52 53  1  0  0  0  0
 53 54  2  0  0  0  0
 55 56  1  0  0  0  0
M  END
>  <MODEL>
4

>  <REMARK>
 VINA RESULT:      -5.8      1.944      2.861
  Name = 
  25 active torsions:
  status: ('A' for Active; 'I' for Inactive)
    1  A    between atoms: C_1  and  C_17
    2  A    between atoms: C_3  and  C_38
    3  A    between atoms: C_3  and  C_52
    4  A    between atoms: N_4  and  C_16
    5  A    between atoms: N_4  and  N_26
    6  A    between atoms: C_5  and  C_17
    7  A    between atoms: C_5  and  C_36
    8  A    between atoms: C_8  and  C_20
    9  A    between atoms: N_12  and  C_52
   10  A    between atoms: C_14  and  N_24
   11  A    between atoms: C_15  and  C_38
   12  A    between atoms: C_15  and  C_44
   13  A    between atoms: C_16  and  N_48
   14  A    between atoms: C_17  and  N_26
   15  A    between atoms: C_18  and  C_22
   16  A    between atoms: N_24  and  C_43
   17  A    between atoms: N_27  and  N_28
   18  A    between atoms: C_29  and  N_39
   19  A    between atoms: N_30  and  C_34
   20  A    between atoms: N_30  and  N_39
   21  A    between atoms: S_31  and  C_52
   22  A    between atoms: C_34  and  C_45
   23  A    between atoms: C_34  and  N_48
   24  A    between atoms: C_37  and  C_43
   25  A    between atoms: C_37  and  C_52
                            x       y       z     vdW  Elec       q    Type
                         _______ _______ _______ _____ _____    ______ ____

>  <TORSDO>
F 25

$$$$
=
 OpenBabel11042413283D

 56 58  0  0  1  0  0  0  0  0999 V2000
  188.0160  179.4000  141.1860 C   0  0  0  0  0  2  0  0  0  0  0  0
  188.2520  176.8100  142.2720 C   0  0  0  0  0  2  0  0  0  0  0  0
  186.9110  179.0050  142.1720 C   0  0  2  0  0  3  0  0  0  0  0  0
  187.5710  177.9770  144.2290 F   0  0  0  0  0  0  0  0  0  0  0  0
  188.4650  178.2670  140.2340 C   0  0  2  0  0  3  0  0  0  0  0  0
  187.1900  177.6950  142.9330 C   0  0  2  0  0  3  0  0  0  0  0  0
  188.1060  176.8710  140.7540 C   0  0  0  0  0  2  0  0  0  0  0  0
  185.5520  178.9610  141.5450 C   0  0  0  0  0  0  0  0  0  0  0  0
  185.3010  179.6260  140.5090 O   0  0  0  0  0  0  0  0  0  0  0  0
  184.5900  178.0390  142.0540 N   0  0  0  0  0  2  0  0  0  0  0  0
  183.4120  177.7400  141.3540 N   0  0  0  0  0  2  0  0  0  0  0  0
  182.1920  178.3950  141.6910 C   0  0  0  0  0  0  0  0  0  0  0  0
  182.1480  179.1620  142.6910 O   0  0  0  0  0  0  0  0  0  0  0  0
  180.9630  178.1150  140.8780 C   0  0  1  0  0  3  0  0  0  0  0  0
  180.4250  179.3410  140.3150 N   0  0  0  0  0  1  0  0  0  0  0  0
  181.1600  177.0500  139.7950 C   0  0  0  0  0  2  0  0  0  0  0  0
  181.8340  177.6140  138.5440 C   0  0  0  0  0  2  0  0  0  0  0  0
  182.2700  176.5420  137.5390 C   0  0  1  0  0  0  0  0  0  0  0  0
  181.3950  175.3700  137.6660 N   0  0  0  0  0  2  0  0  0  0  0  0
  181.7010  174.0120  137.3200 C   0  0  0  0  0  0  0  0  0  0  0  0
  180.7660  173.2190  137.0620 O   0  0  0  0  0  0  0  0  0  0  0  0
  183.0140  173.5710  137.2130 O   0  0  0  0  0  1  0  0  0  0  0  0
  182.2630  177.2210  135.8540 S   0  0  0  0  0  3  0  0  0  0  0  0
  181.6360  178.6060  135.9630 O   0  0  0  0  0  0  0  0  0  0  0  0
  183.7220  176.1900  137.9210 C   0  0  0  0  0  2  0  0  0  0  0  0
  184.8610  176.8070  137.0970 C   0  0  1  0  0  3  0  0  0  0  0  0
  185.3790  177.9350  137.7350 O   0  0  0  0  0  1  0  0  0  0  0  0
  185.9150  175.8360  136.8480 N   0  0  0  0  0  2  0  0  0  0  0  0
  188.2980  175.8610  137.3300 C   0  0  0  0  0  1  0  0  0  0  0  0
  187.1530  176.5740  136.6450 C   0  0  0  0  0  2  0  0  0  0  0  0
  189.9080  178.3220  140.0160 N   0  0  0  0  0  2  0  0  0  0  0  0
  190.4900  177.1730  140.5830 N   0  0  0  0  0  2  0  0  0  0  0  0
  191.6950  177.5890  141.3020 C   0  0  1  0  0  3  0  0  0  0  0  0
  190.7480  178.2840  144.9120 C   0  0  0  0  0  3  0  0  0  0  0  0
  190.8390  177.0070  145.4860 C   0  0  0  0  0  0  0  0  0  0  0  0
  191.3380  175.9480  144.7060 C   0  0  0  0  0  3  0  0  0  0  0  0
  191.6580  176.1500  143.3580 C   0  0  0  0  0  3  0  0  0  0  0  0
  191.5090  177.4150  142.7790 C   0  0  0  0  0  0  0  0  0  0  0  0
  191.0650  178.4870  143.5670 C   0  0  0  0  0  3  0  0  0  0  0  0
  188.8820  176.5620  146.9840 C   0  0  0  0  0  2  0  0  0  0  0  0
  190.3890  176.7910  146.9140 C   0  0  2  0  0  3  0  0  0  0  0  0
  189.4930  178.2830  148.4740 C   0  0  0  0  0  2  0  0  0  0  0  0
  190.7010  177.9710  147.7190 N   0  0  0  0  0  2  0  0  0  0  0  0
  188.3300  177.7790  147.6720 C   0  0  0  0  0  2  0  0  0  0  0  0
  192.8410  176.7950  140.8640 N   0  0  0  0  0  2  0  0  0  0  0  0
  193.6310  177.6000  139.9500 C   0  0  0  0  0  2  0  0  0  0  0  0
  193.5190  177.0560  138.6030 N   0  0  0  0  0  2  0  0  0  0  0  0
  193.0050  175.7550  138.7260 N   0  0  0  0  0  2  0  0  0  0  0  0
  193.4760  174.9950  137.5720 C   0  0  2  0  0  3  0  0  0  0  0  0
  194.9920  174.7900  137.6120 C   0  0  2  0  0  3  0  0  0  0  0  0
  195.4660  173.9820  136.4140 C   0  0  0  0  0  1  0  0  0  0  0  0
  196.2170  174.9530  139.8430 N   0  0  0  0  0  1  0  0  0  0  0  0
  195.4780  174.1840  138.8980 C   0  0  0  0  0  0  0  0  0  0  0  0
  195.2630  172.9630  139.1320 O   0  0  0  0  0  0  0  0  0  0  0  0
  193.0250  175.6440  136.2710 C   0  0  0  0  0  2  0  0  0  0  0  0
  191.6330  175.6860  136.2380 O   0  0  0  0  0  1  0  0  0  0  0  0
  1  3  1  0  0  0  0
  2  6  1  0  0  0  0
  3  8  1  6  0  0  0
  3  6  1  0  0  0  0
  5 31  1  1  0  0  0
  5  7  1  0  0  0  0
  5  1  1  0  0  0  0
  6  4  1  1  0  0  0
  7  2  1  0  0  0  0
  8 10  1  0  0  0  0
  9  8  2  0  0  0  0
 11 12  1  0  0  0  0
 11 10  1  0  0  0  0
 12 13  2  0  0  0  0
 14 15  1  6  0  0  0
 14 12  1  0  0  0  0
 16 14  1  0  0  0  0
 17 16  1  0  0  0  0
 18 19  1  0  0  0  0
 18 25  1  1  0  0  0
 18 17  1  0  0  0  0
 20 19  1  0  0  0  0
 21 20  2  0  0  0  0
 22 20  1  0  0  0  0
 23 24  2  0  0  0  0
 23 18  1  0  0  0  0
 26 27  1  1  0  0  0
 26 25  1  0  0  0  0
 28 26  1  0  0  0  0
 30 28  1  0  0  0  0
 30 29  1  0  0  0  0
 31 32  1  0  0  0  0
 33 32  1  6  0  0  0
 33 38  1  0  0  0  0
 34 35  1  0  0  0  0
 36 35  2  0  0  0  0
 37 36  1  0  0  0  0
 38 37  2  0  0  0  0
 38 39  1  0  0  0  0
 39 34  2  0  0  0  0
 40 44  1  0  0  0  0
 41 35  1  6  0  0  0
 41 40  1  0  0  0  0
 41 43  1  0  0  0  0
 43 42  1  0  0  0  0
 44 42  1  0  0  0  0
 45 33  1  0  0  0  0
 46 45  1  0  0  0  0
 47 48  1  0  0  0  0
 47 46  1  0  0  0  0
 49 55  1  6  0  0  0
 49 50  1  0  0  0  0
 49 48  1  0  0  0  0
 50 51  1  6  0  0  0
 50 53  1  0  0  0  0
 53 54  2  0  0  0  0
 53 52  1  0  0  0  0
 56 55  1  0  0  0  0
M  END
>  <MODEL>
5

>  <REMARK>
 VINA RESULT:      -5.5      2.578      5.806
  Name = 
  25 active torsions:
  status: ('A' for Active; 'I' for Inactive)
    1  A    between atoms: C_1  and  C_17
    2  A    between atoms: C_3  and  C_38
    3  A    between atoms: C_3  and  C_52
    4  A    between atoms: N_4  and  C_16
    5  A    between atoms: N_4  and  N_26
    6  A    between atoms: C_5  and  C_17
    7  A    between atoms: C_5  and  C_36
    8  A    between atoms: C_8  and  C_20
    9  A    between atoms: N_12  and  C_52
   10  A    between atoms: C_14  and  N_24
   11  A    between atoms: C_15  and  C_38
   12  A    between atoms: C_15  and  C_44
   13  A    between atoms: C_16  and  N_48
   14  A    between atoms: C_17  and  N_26
   15  A    between atoms: C_18  and  C_22
   16  A    between atoms: N_24  and  C_43
   17  A    between atoms: N_27  and  N_28
   18  A    between atoms: C_29  and  N_39
   19  A    between atoms: N_30  and  C_34
   20  A    between atoms: N_30  and  N_39
   21  A    between atoms: S_31  and  C_52
   22  A    between atoms: C_34  and  C_45
   23  A    between atoms: C_34  and  N_48
   24  A    between atoms: C_37  and  C_43
   25  A    between atoms: C_37  and  C_52
                            x       y       z     vdW  Elec       q    Type
                         _______ _______ _______ _____ _____    ______ ____

>  <TORSDO>
F 25

$$$$
=
 OpenBabel11042413283D

 56 58  0  0  1  0  0  0  0  0999 V2000
  191.4540  178.3550  143.6740 C   0  0  0  0  0  2  0  0  0  0  0  0
  191.7330  175.5780  144.0610 C   0  0  0  0  0  2  0  0  0  0  0  0
  190.9040  177.8240  145.0020 C   0  0  2  0  0  3  0  0  0  0  0  0
  192.2770  176.3180  146.2550 F   0  0  0  0  0  0  0  0  0  0  0  0
  191.1950  177.4370  142.4570 C   0  0  2  0  0  3  0  0  0  0  0  0
  191.2830  176.3610  145.2980 C   0  0  2  0  0  3  0  0  0  0  0  0
  190.8950  175.9870  142.8530 C   0  0  0  0  0  2  0  0  0  0  0  0
  189.4250  178.0150  145.1440 C   0  0  0  0  0  0  0  0  0  0  0  0
  188.9020  178.1680  146.2760 O   0  0  0  0  0  0  0  0  0  0  0  0
  188.6370  178.1720  143.9650 N   0  0  0  0  0  2  0  0  0  0  0  0
  187.3130  178.6310  144.0180 N   0  0  0  0  0  2  0  0  0  0  0  0
  186.2400  177.7090  144.1910 C   0  0  0  0  0  0  0  0  0  0  0  0
  186.4730  176.4690  144.1850 O   0  0  0  0  0  0  0  0  0  0  0  0
  184.8400  178.2310  144.3210 C   0  0  1  0  0  3  0  0  0  0  0  0
  184.7100  179.0710  145.4990 N   0  0  0  0  0  1  0  0  0  0  0  0
  184.3230  178.9490  143.0710 C   0  0  0  0  0  2  0  0  0  0  0  0
  183.8060  177.9720  142.0150 C   0  0  0  0  0  2  0  0  0  0  0  0
  182.9860  178.6390  140.9040 C   0  0  1  0  0  0  0  0  0  0  0  0
  182.1290  179.6790  141.4870 N   0  0  0  0  0  2  0  0  0  0  0  0
  180.8720  179.5010  142.1540 C   0  0  0  0  0  0  0  0  0  0  0  0
  180.0630  180.4550  142.2030 O   0  0  0  0  0  0  0  0  0  0  0  0
  180.5110  178.2750  142.7010 O   0  0  0  0  0  1  0  0  0  0  0  0
  184.0900  179.3040  139.6220 S   0  0  0  0  0  3  0  0  0  0  0  0
  183.3730  180.5160  139.0390 O   0  0  0  0  0  0  0  0  0  0  0  0
  182.1390  177.5090  140.2850 C   0  0  0  0  0  2  0  0  0  0  0  0
  182.6710  176.8050  139.0300 C   0  0  1  0  0  3  0  0  0  0  0  0
  182.7220  175.4240  139.2210 O   0  0  0  0  0  1  0  0  0  0  0  0
  181.8620  177.1260  137.8650 N   0  0  0  0  0  2  0  0  0  0  0  0
  183.8850  177.2250  136.5210 C   0  0  0  0  0  1  0  0  0  0  0  0
  182.5320  176.5720  136.6980 C   0  0  0  0  0  2  0  0  0  0  0  0
  192.3450  177.4410  141.5570 N   0  0  0  0  0  2  0  0  0  0  0  0
  191.8760  177.5010  140.2310 N   0  0  0  0  0  2  0  0  0  0  0  0
  192.4670  176.3830  139.4950 C   0  0  1  0  0  3  0  0  0  0  0  0
  191.1070  174.6480  136.4040 C   0  0  0  0  0  3  0  0  0  0  0  0
  190.0460  175.4920  136.0410 C   0  0  0  0  0  0  0  0  0  0  0  0
  189.8690  176.6960  136.7440 C   0  0  0  0  0  3  0  0  0  0  0  0
  190.6860  177.0050  137.8400 C   0  0  0  0  0  3  0  0  0  0  0  0
  191.7050  176.1290  138.2290 C   0  0  0  0  0  0  0  0  0  0  0  0
  191.9220  174.9530  137.4970 C   0  0  0  0  0  3  0  0  0  0  0  0
  187.9480  176.0640  134.8010 C   0  0  0  0  0  2  0  0  0  0  0  0
  189.1130  175.0870  134.9220 C   0  0  2  0  0  3  0  0  0  0  0  0
  187.1220  173.8640  134.9630 C   0  0  0  0  0  2  0  0  0  0  0  0
  188.5580  173.7610  135.1910 N   0  0  0  0  0  2  0  0  0  0  0  0
  186.7340  175.2880  135.2290 C   0  0  0  0  0  2  0  0  0  0  0  0
  193.8600  176.6760  139.1680 N   0  0  0  0  0  2  0  0  0  0  0  0
  194.7010  176.1070  140.2070 C   0  0  0  0  0  2  0  0  0  0  0  0
  195.7180  175.2610  139.5980 N   0  0  0  0  0  2  0  0  0  0  0  0
  195.3070  175.0060  138.2800 N   0  0  0  0  0  2  0  0  0  0  0  0
  195.9020  173.7330  137.8810 C   0  0  2  0  0  3  0  0  0  0  0  0
  196.6040  173.8390  136.5250 C   0  0  2  0  0  3  0  0  0  0  0  0
  197.9650  173.1640  136.5600 C   0  0  0  0  0  1  0  0  0  0  0  0
  195.7820  175.7690  135.0730 N   0  0  0  0  0  1  0  0  0  0  0  0
  196.7130  175.2500  136.0190 C   0  0  0  0  0  0  0  0  0  0  0  0
  197.6670  175.9790  136.4070 O   0  0  0  0  0  0  0  0  0  0  0  0
  194.8660  172.6190  137.8980 C   0  0  0  0  0  2  0  0  0  0  0  0
  195.4080  171.4990  138.5250 O   0  0  0  0  0  1  0  0  0  0  0  0
  1  3  1  0  0  0  0
  2  6  1  0  0  0  0
  3  8  1  6  0  0  0
  3  6  1  0  0  0  0
  5 31  1  6  0  0  0
  5  7  1  0  0  0  0
  5  1  1  0  0  0  0
  6  4  1  1  0  0  0
  7  2  1  0  0  0  0
  8  9  2  0  0  0  0
 10 11  1  0  0  0  0
 10  8  1  0  0  0  0
 11 12  1  0  0  0  0
 12 14  1  0  0  0  0
 13 12  2  0  0  0  0
 14 15  1  1  0  0  0
 16 14  1  0  0  0  0
 17 16  1  0  0  0  0
 18 25  1  6  0  0  0
 18 19  1  0  0  0  0
 18 17  1  0  0  0  0
 19 20  1  0  0  0  0
 20 21  2  0  0  0  0
 20 22  1  0  0  0  0
 23 18  1  0  0  0  0
 24 23  2  0  0  0  0
 26 27  1  1  0  0  0
 26 25  1  0  0  0  0
 28 26  1  0  0  0  0
 29 30  1  0  0  0  0
 30 28  1  0  0  0  0
 32 31  1  0  0  0  0
 33 45  1  6  0  0  0
 33 32  1  0  0  0  0
 34 39  1  0  0  0  0
 35 34  2  0  0  0  0
 35 36  1  0  0  0  0
 36 37  2  0  0  0  0
 37 38  1  0  0  0  0
 38 33  1  0  0  0  0
 39 38  2  0  0  0  0
 40 41  1  0  0  0  0
 40 44  1  0  0  0  0
 41 43  1  0  0  0  0
 41 35  1  1  0  0  0
 42 43  1  0  0  0  0
 42 44  1  0  0  0  0
 45 46  1  0  0  0  0
 47 46  1  0  0  0  0
 48 47  1  0  0  0  0
 49 55  1  6  0  0  0
 49 48  1  0  0  0  0
 50 51  1  1  0  0  0
 50 49  1  0  0  0  0
 52 53  1  0  0  0  0
 53 54  2  0  0  0  0
 53 50  1  0  0  0  0
 55 56  1  0  0  0  0
M  END
>  <MODEL>
6

>  <REMARK>
 VINA RESULT:      -5.3      1.978      2.721
  Name = 
  25 active torsions:
  status: ('A' for Active; 'I' for Inactive)
    1  A    between atoms: C_1  and  C_17
    2  A    between atoms: C_3  and  C_38
    3  A    between atoms: C_3  and  C_52
    4  A    between atoms: N_4  and  C_16
    5  A    between atoms: N_4  and  N_26
    6  A    between atoms: C_5  and  C_17
    7  A    between atoms: C_5  and  C_36
    8  A    between atoms: C_8  and  C_20
    9  A    between atoms: N_12  and  C_52
   10  A    between atoms: C_14  and  N_24
   11  A    between atoms: C_15  and  C_38
   12  A    between atoms: C_15  and  C_44
   13  A    between atoms: C_16  and  N_48
   14  A    between atoms: C_17  and  N_26
   15  A    between atoms: C_18  and  C_22
   16  A    between atoms: N_24  and  C_43
   17  A    between atoms: N_27  and  N_28
   18  A    between atoms: C_29  and  N_39
   19  A    between atoms: N_30  and  C_34
   20  A    between atoms: N_30  and  N_39
   21  A    between atoms: S_31  and  C_52
   22  A    between atoms: C_34  and  C_45
   23  A    between atoms: C_34  and  N_48
   24  A    between atoms: C_37  and  C_43
   25  A    between atoms: C_37  and  C_52
                            x       y       z     vdW  Elec       q    Type
                         _______ _______ _______ _____ _____    ______ ____

>  <TORSDO>
F 25

$$$$
=
 OpenBabel11042413283D

 56 58  0  0  1  0  0  0  0  0999 V2000
  189.0520  176.3720  137.1940 C   0  0  0  0  0  2  0  0  0  0  0  0
  187.8130  178.8830  136.8710 C   0  0  0  0  0  2  0  0  0  0  0  0
  188.1620  176.5050  135.9530 C   0  0  2  0  0  3  0  0  0  0  0  0
  188.4130  178.4670  134.6080 F   0  0  0  0  0  0  0  0  0  0  0  0
  188.4930  177.0590  138.4620 C   0  0  2  0  0  3  0  0  0  0  0  0
  187.6970  177.9440  135.6660 C   0  0  2  0  0  3  0  0  0  0  0  0
  187.4460  178.1340  138.1490 C   0  0  0  0  0  2  0  0  0  0  0  0
  186.9890  175.5740  135.9680 C   0  0  0  0  0  0  0  0  0  0  0  0
  186.2720  175.4620  136.9940 O   0  0  0  0  0  0  0  0  0  0  0  0
  186.6080  174.9300  134.7550 N   0  0  0  0  0  2  0  0  0  0  0  0
  185.3730  174.2770  134.6220 N   0  0  0  0  0  2  0  0  0  0  0  0
  185.2180  172.9350  135.0750 C   0  0  0  0  0  0  0  0  0  0  0  0
  186.2210  172.2960  135.4940 O   0  0  0  0  0  0  0  0  0  0  0  0
  183.8680  172.2850  134.9920 C   0  0  1  0  0  3  0  0  0  0  0  0
  183.8520  171.0320  135.7260 N   0  0  0  0  0  1  0  0  0  0  0  0
  182.7120  173.1930  135.4220 C   0  0  0  0  0  2  0  0  0  0  0  0
  182.7500  173.5100  136.9170 C   0  0  0  0  0  2  0  0  0  0  0  0
  181.9780  174.7780  137.3000 C   0  0  1  0  0  0  0  0  0  0  0  0
  182.5190  175.3170  138.5540 N   0  0  0  0  0  2  0  0  0  0  0  0
  182.0210  176.4290  139.3110 C   0  0  0  0  0  0  0  0  0  0  0  0
  182.7950  177.0430  140.0810 O   0  0  0  0  0  1  0  0  0  0  0  0
  180.7120  176.8730  139.1690 O   0  0  0  0  0  0  0  0  0  0  0  0
  182.0520  175.9900  135.9480 S   0  0  0  0  0  3  0  0  0  0  0  0
  183.4410  176.6120  136.0180 O   0  0  0  0  0  0  0  0  0  0  0  0
  180.5140  174.3280  137.4780 C   0  0  0  0  0  2  0  0  0  0  0  0
  180.2400  172.8550  137.8090 C   0  0  1  0  0  3  0  0  0  0  0  0
  179.6910  172.7290  139.0850 O   0  0  0  0  0  1  0  0  0  0  0  0
  179.3650  172.2480  136.8180 N   0  0  0  0  0  2  0  0  0  0  0  0
  178.9520  170.0920  135.7720 C   0  0  0  0  0  1  0  0  0  0  0  0
  179.9900  171.0090  136.3810 C   0  0  0  0  0  2  0  0  0  0  0  0
  189.5730  177.6740  139.2300 N   0  0  0  0  0  2  0  0  0  0  0  0
  189.2030  177.6890  140.5880 N   0  0  0  0  0  2  0  0  0  0  0  0
  190.4210  177.8550  141.3820 C   0  0  1  0  0  3  0  0  0  0  0  0
  188.4730  177.6520  144.6350 C   0  0  0  0  0  3  0  0  0  0  0  0
  189.4690  177.2640  145.5450 C   0  0  0  0  0  0  0  0  0  0  0  0
  190.8020  177.1980  145.1020 C   0  0  0  0  0  3  0  0  0  0  0  0
  191.1150  177.4340  143.7570 C   0  0  0  0  0  3  0  0  0  0  0  0
  190.1070  177.7650  142.8460 C   0  0  0  0  0  0  0  0  0  0  0  0
  188.7830  177.8860  143.2940 C   0  0  0  0  0  3  0  0  0  0  0  0
  187.6040  177.1430  147.2110 C   0  0  0  0  0  2  0  0  0  0  0  0
  189.0920  176.9120  146.9670 C   0  0  2  0  0  3  0  0  0  0  0  0
  188.8610  178.2600  148.8620 C   0  0  0  0  0  2  0  0  0  0  0  0
  189.8350  177.7550  147.9030 N   0  0  0  0  0  2  0  0  0  0  0  0
  187.5350  178.3050  148.1620 C   0  0  0  0  0  2  0  0  0  0  0  0
  191.3930  176.8210  141.0340 N   0  0  0  0  0  2  0  0  0  0  0  0
  192.4140  177.4210  140.1940 C   0  0  0  0  0  2  0  0  0  0  0  0
  192.2850  176.9100  138.8360 N   0  0  0  0  0  2  0  0  0  0  0  0
  193.5530  176.4520  138.4450 N   0  0  0  0  0  2  0  0  0  0  0  0
  193.3640  175.6140  137.2640 C   0  0  2  0  0  3  0  0  0  0  0  0
  193.2370  174.1340  137.6360 C   0  0  2  0  0  3  0  0  0  0  0  0
  194.5670  173.4160  137.4810 C   0  0  0  0  0  1  0  0  0  0  0  0
  190.7730  173.7030  137.1390 N   0  0  0  0  0  1  0  0  0  0  0  0
  192.1470  173.4230  136.8860 C   0  0  0  0  0  0  0  0  0  0  0  0
  192.4490  172.5330  136.0430 O   0  0  0  0  0  0  0  0  0  0  0  0
  194.4700  175.8500  136.2460 C   0  0  0  0  0  2  0  0  0  0  0  0
  193.9150  175.9020  134.9700 O   0  0  0  0  0  1  0  0  0  0  0  0
  1  5  1  0  0  0  0
  2  7  1  0  0  0  0
  3  8  1  1  0  0  0
  3  1  1  0  0  0  0
  5 31  1  6  0  0  0
  6  4  1  6  0  0  0
  6  3  1  0  0  0  0
  6  2  1  0  0  0  0
  7  5  1  0  0  0  0
  8  9  2  0  0  0  0
 10  8  1  0  0  0  0
 11 10  1  0  0  0  0
 11 12  1  0  0  0  0
 12 13  2  0  0  0  0
 14 12  1  0  0  0  0
 14 16  1  0  0  0  0
 14 15  1  1  0  0  0
 16 17  1  0  0  0  0
 18 17  1  6  0  0  0
 18 25  1  0  0  0  0
 18 19  1  0  0  0  0
 19 20  1  0  0  0  0
 20 21  1  0  0  0  0
 22 20  2  0  0  0  0
 23 24  2  0  0  0  0
 23 18  1  0  0  0  0
 25 26  1  0  0  0  0
 26 27  1  1  0  0  0
 28 26  1  0  0  0  0
 29 30  1  0  0  0  0
 30 28  1  0  0  0  0
 31 32  1  0  0  0  0
 33 32  1  6  0  0  0
 33 38  1  0  0  0  0
 34 35  1  0  0  0  0
 36 35  2  0  0  0  0
 37 36  1  0  0  0  0
 38 39  1  0  0  0  0
 38 37  2  0  0  0  0
 39 34  2  0  0  0  0
 40 44  1  0  0  0  0
 41 35  1  6  0  0  0
 41 40  1  0  0  0  0
 41 43  1  0  0  0  0
 43 42  1  0  0  0  0
 44 42  1  0  0  0  0
 45 33  1  0  0  0  0
 46 45  1  0  0  0  0
 47 46  1  0  0  0  0
 48 47  1  0  0  0  0
 49 55  1  6  0  0  0
 49 50  1  0  0  0  0
 49 48  1  0  0  0  0
 50 51  1  6  0  0  0
 53 52  1  0  0  0  0
 53 50  1  0  0  0  0
 54 53  2  0  0  0  0
 56 55  1  0  0  0  0
M  END
>  <MODEL>
7

>  <REMARK>
 VINA RESULT:      -5.3      3.426      7.488
  Name = 
  25 active torsions:
  status: ('A' for Active; 'I' for Inactive)
    1  A    between atoms: C_1  and  C_17
    2  A    between atoms: C_3  and  C_38
    3  A    between atoms: C_3  and  C_52
    4  A    between atoms: N_4  and  C_16
    5  A    between atoms: N_4  and  N_26
    6  A    between atoms: C_5  and  C_17
    7  A    between atoms: C_5  and  C_36
    8  A    between atoms: C_8  and  C_20
    9  A    between atoms: N_12  and  C_52
   10  A    between atoms: C_14  and  N_24
   11  A    between atoms: C_15  and  C_38
   12  A    between atoms: C_15  and  C_44
   13  A    between atoms: C_16  and  N_48
   14  A    between atoms: C_17  and  N_26
   15  A    between atoms: C_18  and  C_22
   16  A    between atoms: N_24  and  C_43
   17  A    between atoms: N_27  and  N_28
   18  A    between atoms: C_29  and  N_39
   19  A    between atoms: N_30  and  C_34
   20  A    between atoms: N_30  and  N_39
   21  A    between atoms: S_31  and  C_52
   22  A    between atoms: C_34  and  C_45
   23  A    between atoms: C_34  and  N_48
   24  A    between atoms: C_37  and  C_43
   25  A    between atoms: C_37  and  C_52
                            x       y       z     vdW  Elec       q    Type
                         _______ _______ _______ _____ _____    ______ ____

>  <TORSDO>
F 25

$$$$
=
 OpenBabel11042413283D

 56 58  0  0  1  0  0  0  0  0999 V2000
  187.2530  175.3540  137.3670 C   0  0  0  0  0  2  0  0  0  0  0  0
  187.7980  174.1660  134.8710 C   0  0  0  0  0  2  0  0  0  0  0  0
  186.3850  174.1390  137.0210 C   0  0  2  0  0  3  0  0  0  0  0  0
  187.4830  172.1950  136.1630 F   0  0  0  0  0  0  0  0  0  0  0  0
  187.5420  176.2990  136.1770 C   0  0  2  0  0  3  0  0  0  0  0  0
  186.8590  173.3640  135.7770 C   0  0  2  0  0  3  0  0  0  0  0  0
  187.3460  175.6230  134.8150 C   0  0  0  0  0  2  0  0  0  0  0  0
  184.9300  174.4710  136.9010 C   0  0  0  0  0  0  0  0  0  0  0  0
  184.1870  174.4830  137.9150 O   0  0  0  0  0  0  0  0  0  0  0  0
  184.4300  174.9210  135.6440 N   0  0  0  0  0  2  0  0  0  0  0  0
  183.1640  175.5140  135.5210 N   0  0  0  0  0  2  0  0  0  0  0  0
  183.0410  176.8530  135.0480 C   0  0  0  0  0  0  0  0  0  0  0  0
  184.0780  177.5420  134.8450 O   0  0  0  0  0  0  0  0  0  0  0  0
  181.6740  177.4370  134.8530 C   0  0  1  0  0  3  0  0  0  0  0  0
  180.6510  176.4160  134.9930 N   0  0  0  0  0  1  0  0  0  0  0  0
  181.3770  178.6430  135.7500 C   0  0  0  0  0  2  0  0  0  0  0  0
  180.4770  178.2790  136.9300 C   0  0  0  0  0  2  0  0  0  0  0  0
  181.2090  178.2350  138.2760 C   0  0  1  0  0  0  0  0  0  0  0  0
  182.4890  178.9440  138.1580 N   0  0  0  0  0  2  0  0  0  0  0  0
  183.3770  179.3220  139.2190 C   0  0  0  0  0  0  0  0  0  0  0  0
  184.1740  180.2720  139.0430 O   0  0  0  0  0  0  0  0  0  0  0  0
  183.3360  178.6920  140.4570 O   0  0  0  0  0  1  0  0  0  0  0  0
  180.1590  178.9340  139.5850 S   0  0  0  0  0  3  0  0  0  0  0  0
  179.8680  180.3700  139.1660 O   0  0  0  0  0  0  0  0  0  0  0  0
  181.4320  176.7380  138.5720 C   0  0  0  0  0  2  0  0  0  0  0  0
  180.2220  175.8900  138.9860 C   0  0  1  0  0  3  0  0  0  0  0  0
  179.8780  174.9910  137.9760 O   0  0  0  0  0  1  0  0  0  0  0  0
  180.4790  175.1810  140.2300 N   0  0  0  0  0  2  0  0  0  0  0  0
  179.2890  173.7960  141.8350 C   0  0  0  0  0  1  0  0  0  0  0  0
  179.4480  174.1640  140.3770 C   0  0  0  0  0  2  0  0  0  0  0  0
  188.9080  176.8100  136.2480 N   0  0  0  0  0  2  0  0  0  0  0  0
  189.0550  177.5290  137.4490 N   0  0  0  0  0  2  0  0  0  0  0  0
  190.3320  177.1430  138.0510 C   0  0  1  0  0  3  0  0  0  0  0  0
  191.4210  177.5810  141.6610 C   0  0  0  0  0  3  0  0  0  0  0  0
  190.2140  177.9300  142.2870 C   0  0  0  0  0  0  0  0  0  0  0  0
  189.0260  177.8920  141.5360 C   0  0  0  0  0  3  0  0  0  0  0  0
  189.0610  177.5930  140.1680 C   0  0  0  0  0  3  0  0  0  0  0  0
  190.2770  177.3010  139.5410 C   0  0  0  0  0  0  0  0  0  0  0  0
  191.4580  177.2830  140.2970 C   0  0  0  0  0  3  0  0  0  0  0  0
  191.5910  178.1490  144.3670 C   0  0  0  0  0  2  0  0  0  0  0  0
  190.2150  178.3520  143.7400 C   0  0  2  0  0  3  0  0  0  0  0  0
  189.9520  177.0970  145.6930 C   0  0  0  0  0  2  0  0  0  0  0  0
  189.2560  177.5460  144.4940 N   0  0  0  0  0  2  0  0  0  0  0  0
  191.4130  177.0330  145.3580 C   0  0  0  0  0  2  0  0  0  0  0  0
  190.6410  175.7530  137.7250 N   0  0  0  0  0  2  0  0  0  0  0  0
  191.7350  175.7410  136.7700 C   0  0  0  0  0  2  0  0  0  0  0  0
  192.9790  176.0660  137.4550 N   0  0  0  0  0  2  0  0  0  0  0  0
  193.8320  174.9600  137.3060 N   0  0  0  0  0  2  0  0  0  0  0  0
  194.6320  175.1900  136.1070 C   0  0  2  0  0  3  0  0  0  0  0  0
  195.9590  174.4280  136.1590 C   0  0  2  0  0  3  0  0  0  0  0  0
  195.8580  173.1050  135.4170 C   0  0  0  0  0  1  0  0  0  0  0  0
  197.5140  173.2900  137.8300 N   0  0  0  0  0  1  0  0  0  0  0  0
  196.4760  174.2270  137.5550 C   0  0  0  0  0  0  0  0  0  0  0  0
  195.9580  174.8690  138.5100 O   0  0  0  0  0  0  0  0  0  0  0  0
  194.8420  176.6780  135.8690 C   0  0  0  0  0  2  0  0  0  0  0  0
  196.1960  176.9210  135.6500 O   0  0  0  0  0  1  0  0  0  0  0  0
  2  6  1  0  0  0  0
  3  8  1  6  0  0  0
  3  1  1  0  0  0  0
  5 31  1  1  0  0  0
  5  1  1  0  0  0  0
  6  4  1  1  0  0  0
  6  3  1  0  0  0  0
  7  2  1  0  0  0  0
  7  5  1  0  0  0  0
  8  9  2  0  0  0  0
 10  8  1  0  0  0  0
 11 10  1  0  0  0  0
 12 11  1  0  0  0  0
 13 12  2  0  0  0  0
 14 15  1  1  0  0  0
 14 12  1  0  0  0  0
 14 16  1  0  0  0  0
 16 17  1  0  0  0  0
 18 17  1  6  0  0  0
 18 25  1  0  0  0  0
 18 23  1  0  0  0  0
 19 18  1  0  0  0  0
 19 20  1  0  0  0  0
 20 22  1  0  0  0  0
 21 20  2  0  0  0  0
 24 23  2  0  0  0  0
 25 26  1  0  0  0  0
 26 27  1  6  0  0  0
 26 28  1  0  0  0  0
 28 30  1  0  0  0  0
 30 29  1  0  0  0  0
 31 32  1  0  0  0  0
 33 32  1  6  0  0  0
 33 38  1  0  0  0  0
 34 35  1  0  0  0  0
 36 35  2  0  0  0  0
 37 36  1  0  0  0  0
 38 37  2  0  0  0  0
 38 39  1  0  0  0  0
 39 34  2  0  0  0  0
 40 44  1  0  0  0  0
 41 35  1  6  0  0  0
 41 40  1  0  0  0  0
 41 43  1  0  0  0  0
 43 42  1  0  0  0  0
 44 42  1  0  0  0  0
 45 33  1  0  0  0  0
 46 47  1  0  0  0  0
 46 45  1  0  0  0  0
 48 47  1  0  0  0  0
 49 55  1  1  0  0  0
 49 50  1  0  0  0  0
 49 48  1  0  0  0  0
 50 51  1  1  0  0  0
 50 53  1  0  0  0  0
 53 52  1  0  0  0  0
 53 54  2  0  0  0  0
 56 55  1  0  0  0  0
M  END
>  <MODEL>
8

>  <REMARK>
 VINA RESULT:      -5.2      2.858      6.480
  Name = 
  25 active torsions:
  status: ('A' for Active; 'I' for Inactive)
    1  A    between atoms: C_1  and  C_17
    2  A    between atoms: C_3  and  C_38
    3  A    between atoms: C_3  and  C_52
    4  A    between atoms: N_4  and  C_16
    5  A    between atoms: N_4  and  N_26
    6  A    between atoms: C_5  and  C_17
    7  A    between atoms: C_5  and  C_36
    8  A    between atoms: C_8  and  C_20
    9  A    between atoms: N_12  and  C_52
   10  A    between atoms: C_14  and  N_24
   11  A    between atoms: C_15  and  C_38
   12  A    between atoms: C_15  and  C_44
   13  A    between atoms: C_16  and  N_48
   14  A    between atoms: C_17  and  N_26
   15  A    between atoms: C_18  and  C_22
   16  A    between atoms: N_24  and  C_43
   17  A    between atoms: N_27  and  N_28
   18  A    between atoms: C_29  and  N_39
   19  A    between atoms: N_30  and  C_34
   20  A    between atoms: N_30  and  N_39
   21  A    between atoms: S_31  and  C_52
   22  A    between atoms: C_34  and  C_45
   23  A    between atoms: C_34  and  N_48
   24  A    between atoms: C_37  and  C_43
   25  A    between atoms: C_37  and  C_52
                            x       y       z     vdW  Elec       q    Type
                         _______ _______ _______ _____ _____    ______ ____

>  <TORSDO>
F 25

$$$$
=
 OpenBabel11042413283D

 56 58  0  0  1  0  0  0  0  0999 V2000
  185.3510  177.5220  142.8980 C   0  0  0  0  0  2  0  0  0  0  0  0
  185.2270  179.3020  145.0790 C   0  0  0  0  0  2  0  0  0  0  0  0
  186.4520  177.3410  143.9490 C   0  0  2  0  0  3  0  0  0  0  0  0
  185.8000  177.3130  146.2500 F   0  0  0  0  0  0  0  0  0  0  0  0
  184.9840  178.9940  142.5960 C   0  0  2  0  0  3  0  0  0  0  0  0
  186.2260  178.1510  145.2390 C   0  0  2  0  0  3  0  0  0  0  0  0
  185.4050  179.9570  143.7120 C   0  0  0  0  0  2  0  0  0  0  0  0
  187.8260  177.5970  143.4100 C   0  0  0  0  0  0  0  0  0  0  0  0
  188.7800  177.8630  144.1830 O   0  0  0  0  0  0  0  0  0  0  0  0
  188.0680  177.3880  142.0210 N   0  0  0  0  0  0  0  0  0  0  0  0
  189.3690  177.3300  141.4980 N   0  0  0  0  0  0  0  0  0  0  0  0
  189.5760  177.3290  140.0880 C   0  0  0  0  0  0  0  0  0  0  0  0
  188.5860  177.2660  139.3100 O   0  0  0  0  0  0  0  0  0  0  0  0
  190.9780  177.3450  139.5540 C   0  0  1  0  0  3  0  0  0  0  0  0
  191.9350  177.5670  140.6240 N   0  0  0  0  0  1  0  0  0  0  0  0
  191.3460  176.1060  138.7320 C   0  0  0  0  0  2  0  0  0  0  0  0
  191.2750  176.3670  137.2280 C   0  0  0  0  0  2  0  0  0  0  0  0
  192.0420  175.3420  136.3850 C   0  0  1  0  0  0  0  0  0  0  0  0
  191.1080  174.6520  135.4860 N   0  0  0  0  0  2  0  0  0  0  0  0
  189.8640  175.1480  134.9740 C   0  0  0  0  0  0  0  0  0  0  0  0
  188.9860  174.3360  134.6020 O   0  0  0  0  0  0  0  0  0  0  0  0
  189.5910  176.5100  134.9320 O   0  0  0  0  0  1  0  0  0  0  0  0
  193.3870  176.1580  135.4750 S   0  0  0  0  0  3  0  0  0  0  0  0
  194.3610  176.6650  136.5330 O   0  0  0  0  0  0  0  0  0  0  0  0
  192.6610  174.3590  137.3990 C   0  0  0  0  0  2  0  0  0  0  0  0
  193.4360  173.1490  136.8600 C   0  0  1  0  0  3  0  0  0  0  0  0
  193.1150  172.9110  135.5230 O   0  0  0  0  0  1  0  0  0  0  0  0
  194.8710  173.3340  137.0120 N   0  0  0  0  0  2  0  0  0  0  0  0
  196.4710  174.0120  138.7120 C   0  0  0  0  0  1  0  0  0  0  0  0
  195.1720  173.2880  138.4350 C   0  0  0  0  0  2  0  0  0  0  0  0
  183.5460  179.1310  142.3840 N   0  0  0  0  0  2  0  0  0  0  0  0
  183.2690  178.8930  141.0250 N   0  0  0  0  0  2  0  0  0  0  0  0
  181.8260  178.6900  140.8890 C   0  0  1  0  0  3  0  0  0  0  0  0
  179.6580  181.5090  139.5610 C   0  0  0  0  0  3  0  0  0  0  0  0
  180.3340  181.8640  138.3830 C   0  0  0  0  0  0  0  0  0  0  0  0
  181.4290  181.0840  137.9700 C   0  0  0  0  0  3  0  0  0  0  0  0
  181.8850  180.0240  138.7650 C   0  0  0  0  0  3  0  0  0  0  0  0
  181.2380  179.7140  139.9660 C   0  0  0  0  0  0  0  0  0  0  0  0
  180.1120  180.4540  140.3550 C   0  0  0  0  0  3  0  0  0  0  0  0
  180.0170  182.8330  136.0970 C   0  0  0  0  0  2  0  0  0  0  0  0
  179.8870  183.0770  137.5970 C   0  0  2  0  0  3  0  0  0  0  0  0
  181.1190  184.8350  136.6740 C   0  0  0  0  0  2  0  0  0  0  0  0
  180.7230  184.2270  137.9380 N   0  0  0  0  0  2  0  0  0  0  0  0
  181.1230  183.7450  135.6420 C   0  0  0  0  0  2  0  0  0  0  0  0
  181.5530  177.3540  140.3630 N   0  0  0  0  0  2  0  0  0  0  0  0
  180.1680  177.0260  140.6490 C   0  0  0  0  0  2  0  0  0  0  0  0
  179.6150  176.2540  139.5440 N   0  0  0  0  0  2  0  0  0  0  0  0
  180.7000  175.7560  138.8050 N   0  0  0  0  0  2  0  0  0  0  0  0
  180.3270  175.8180  137.3950 C   0  0  2  0  0  3  0  0  0  0  0  0
  181.0150  174.7210  136.5800 C   0  0  2  0  0  3  0  0  0  0  0  0
  180.0260  173.6410  136.1710 C   0  0  0  0  0  1  0  0  0  0  0  0
  183.1130  174.9390  138.0150 N   0  0  0  0  0  1  0  0  0  0  0  0
  182.2090  174.1260  137.2710 C   0  0  0  0  0  0  0  0  0  0  0  0
  182.4410  172.8900  137.1610 O   0  0  0  0  0  0  0  0  0  0  0  0
  180.5930  177.2020  136.8210 C   0  0  0  0  0  2  0  0  0  0  0  0
  181.5040  177.0970  135.7730 O   0  0  0  0  0  1  0  0  0  0  0  0
  1  3  1  0  0  0  0
  2  6  1  0  0  0  0
  3  8  1  6  0  0  0
  3  6  1  0  0  0  0
  5 31  1  1  0  0  0
  5  1  1  0  0  0  0
  5  7  1  0  0  0  0
  6  4  1  1  0  0  0
  7  2  1  0  0  0  0
  8  9  2  0  0  0  0
 10  8  1  0  0  0  0
 11 10  2  0  0  0  0
 12 11  1  0  0  0  0
 13 12  2  0  0  0  0
 14 12  1  0  0  0  0
 14 15  1  1  0  0  0
 16 14  1  0  0  0  0
 17 16  1  0  0  0  0
 18 17  1  1  0  0  0
 18 25  1  0  0  0  0
 19 18  1  0  0  0  0
 20 19  1  0  0  0  0
 21 20  2  0  0  0  0
 22 20  1  0  0  0  0
 23 18  1  0  0  0  0
 23 24  2  0  0  0  0
 26 27  1  6  0  0  0
 26 28  1  0  0  0  0
 26 25  1  0  0  0  0
 28 30  1  0  0  0  0
 30 29  1  0  0  0  0
 32 31  1  0  0  0  0
 33 45  1  6  0  0  0
 33 32  1  0  0  0  0
 34 39  1  0  0  0  0
 35 34  2  0  0  0  0
 36 35  1  0  0  0  0
 36 37  2  0  0  0  0
 37 38  1  0  0  0  0
 38 39  2  0  0  0  0
 38 33  1  0  0  0  0
 40 41  1  0  0  0  0
 41 43  1  0  0  0  0
 41 35  1  1  0  0  0
 42 43  1  0  0  0  0
 44 40  1  0  0  0  0
 44 42  1  0  0  0  0
 45 46  1  0  0  0  0
 47 46  1  0  0  0  0
 48 47  1  0  0  0  0
 49 55  1  6  0  0  0
 49 48  1  0  0  0  0
 50 51  1  1  0  0  0
 50 53  1  0  0  0  0
 50 49  1  0  0  0  0
 53 52  1  0  0  0  0
 54 53  2  0  0  0  0
 56 55  1  0  0  0  0
M  END
>  <MODEL>
9

>  <REMARK>
 VINA RESULT:      -4.9      3.564     10.930
  Name = 
  25 active torsions:
  status: ('A' for Active; 'I' for Inactive)
    1  A    between atoms: C_1  and  C_17
    2  A    between atoms: C_3  and  C_38
    3  A    between atoms: C_3  and  C_52
    4  A    between atoms: N_4  and  C_16
    5  A    between atoms: N_4  and  N_26
    6  A    between atoms: C_5  and  C_17
    7  A    between atoms: C_5  and  C_36
    8  A    between atoms: C_8  and  C_20
    9  A    between atoms: N_12  and  C_52
   10  A    between atoms: C_14  and  N_24
   11  A    between atoms: C_15  and  C_38
   12  A    between atoms: C_15  and  C_44
   13  A    between atoms: C_16  and  N_48
   14  A    between atoms: C_17  and  N_26
   15  A    between atoms: C_18  and  C_22
   16  A    between atoms: N_24  and  C_43
   17  A    between atoms: N_27  and  N_28
   18  A    between atoms: C_29  and  N_39
   19  A    between atoms: N_30  and  C_34
   20  A    between atoms: N_30  and  N_39
   21  A    between atoms: S_31  and  C_52
   22  A    between atoms: C_34  and  C_45
   23  A    between atoms: C_34  and  N_48
   24  A    between atoms: C_37  and  C_43
   25  A    between atoms: C_37  and  C_52
                            x       y       z     vdW  Elec       q    Type
                         _______ _______ _______ _____ _____    ______ ____

>  <TORSDO>
F 25

$$$$
