=
 OpenBabel11042413033D

 40 45  0  0  1  0  0  0  0  0999 V2000
  190.4630  178.1090  137.8720 C   0  0  0  0  0  2  0  0  0  0  0  0
  189.0680  177.4720  141.8260 C   0  0  1  0  0  0  0  0  0  0  0  0
  192.8670  176.7070  139.9760 C   0  0  0  0  0  2  0  0  0  0  0  0
  184.4800  179.0910  142.8610 C   0  0  0  0  0  2  0  0  0  0  0  0
  188.4700  178.2420  144.1450 C   0  0  0  0  0  0  0  0  0  0  0  0
  191.2720  176.3040  141.4490 C   0  0  0  0  0  2  0  0  0  0  0  0
  189.7590  176.1400  141.5070 C   0  0  1  0  0  3  0  0  0  0  0  0
  188.4730  177.5590  139.3580 C   0  0  0  0  0  2  0  0  0  0  0  0
  186.7850  178.3320  142.3990 C   0  0  1  0  0  3  0  0  0  0  0  0
  189.5400  178.2190  143.1070 C   0  0  2  0  0  3  0  0  0  0  0  0
  190.6100  176.6830  137.4190 C   0  0  0  0  0  0  0  0  0  0  0  0
  188.4270  178.2290  140.7290 C   0  0  1  0  0  3  0  0  0  0  0  0
  187.3400  178.2090  146.0400 C   0  0  0  0  0  0  0  0  0  0  0  0
  187.1740  178.2670  143.8100 N   0  0  0  0  0  0  0  0  0  0  0  0
  184.9970  178.2490  145.1310 C   0  0  0  0  0  3  0  0  0  0  0  0
  189.7550  176.1990  136.6230 O   0  0  0  0  0  0  0  0  0  0  0  0
  187.5900  177.3900  141.6090 N   0  0  1  0  0  0  0  0  0  0  0  0
  191.7150  175.8740  137.8600 N   0  0  0  0  0  0  0  0  0  0  0  0
  184.0890  178.5810  144.2100 C   0  0  0  0  0  0  0  0  0  0  0  0
  186.4640  178.2630  144.9700 C   0  0  0  0  0  0  0  0  0  0  0  0
  190.0410  179.6230  142.8150 C   0  0  0  0  0  1  0  0  0  0  0  0
  188.6260  178.2080  145.5150 C   0  0  0  0  0  0  0  0  0  0  0  0
  185.3140  178.0470  142.1560 C   0  0  0  0  0  2  0  0  0  0  0  0
  192.8580  176.4510  138.5030 C   0  0  0  0  0  0  0  0  0  0  0  0
  191.6200  177.1580  140.4030 O   0  0  0  0  0  0  0  0  0  0  0  0
  188.9010  179.8090  138.5360 O   0  0  0  0  0  1  0  0  0  0  0  0
  189.0190  178.4490  138.2360 C   0  0  1  0  0  3  0  0  0  0  0  0
  193.9160  176.6330  137.8460 O   0  0  0  0  0  0  0  0  0  0  0  0
  189.4360  175.1900  142.4760 O   0  0  0  0  0  1  0  0  0  0  0  0
  189.9160  178.0580  146.2520 C   0  0  0  0  0  2  0  0  0  0  0  0
  190.3160  176.7240  146.2180 O   0  0  0  0  0  1  0  0  0  0  0  0
  191.7760  174.4660  137.4940 C   0  0  0  0  0  2  0  0  0  0  0  0
  192.3810  174.3280  136.2450 O   0  0  0  0  0  1  0  0  0  0  0  0
  182.7060  178.4300  144.5400 N   0  0  0  0  0  2  0  0  0  0  0  0
  181.0860  178.5270  142.7420 C   0  0  0  0  0  2  0  0  0  0  0  0
  180.3350  178.5320  144.0530 C   0  0  0  0  0  2  0  0  0  0  0  0
  181.6660  179.2500  143.9400 C   0  0  0  0  0  3  0  0  0  0  0  0
  186.9540  178.1590  147.3840 O   0  0  0  0  0  0  0  0  0  0  0  0
  188.4950  178.2350  149.2320 C   0  0  0  0  0  1  0  0  0  0  0  0
  187.6150  177.3640  148.3590 C   0  0  0  0  0  2  0  0  0  0  0  0
  1 27  1  0  0  0  0
  2 10  1  0  0  0  0
  3 25  1  0  0  0  0
  4 19  1  0  0  0  0
  5 22  2  0  0  0  0
  6  7  1  0  0  0  0
  7  2  1  0  0  0  0
  7 29  1  0  0  0  0
  8 12  1  0  0  0  0
  9 14  1  0  0  0  0
 10  5  1  0  0  0  0
 11 18  1  0  0  0  0
 11  1  1  0  0  0  0
 12 17  1  0  0  0  0
 12  2  1  0  0  0  0
 13 38  1  0  0  0  0
 14  5  1  0  0  0  0
 14 20  1  0  0  0  0
 16 11  2  0  0  0  0
 17  2  1  0  0  0  0
 17  9  1  0  0  0  0
 18 24  1  0  0  0  0
 19 34  1  0  0  0  0
 19 15  2  0  0  0  0
 20 15  1  0  0  0  0
 20 13  2  0  0  0  0
 21 10  1  0  0  0  0
 22 13  1  0  0  0  0
 22 30  1  0  0  0  0
 23  9  1  0  0  0  0
 23  4  1  0  0  0  0
 24  3  1  0  0  0  0
 25  6  1  0  0  0  0
 27 26  1  0  0  0  0
 27  8  1  0  0  0  0
 28 24  2  0  0  0  0
 31 30  1  0  0  0  0
 32 18  1  0  0  0  0
 33 32  1  0  0  0  0
 35 37  1  0  0  0  0
 35 36  1  0  0  0  0
 37 36  1  0  0  0  0
 37 34  1  0  0  0  0
 38 40  1  0  0  0  0
 40 39  1  0  0  0  0
M  END
>  <MODEL>
1

>  <REMARK>
 VINA RESULT:      -5.2      0.000      0.000
  Name = 
  6 active torsions:
  status: ('A' for Active; 'I' for Inactive)
    1  A    between atoms: N_5  and  C_24
    2  A    between atoms: N_5  and  C_36
    3  A    between atoms: C_15  and  O_29
    4  A    between atoms: C_18  and  C_31
    5  A    between atoms: N_23  and  C_27
    6  A    between atoms: C_25  and  O_29
                            x       y       z     vdW  Elec       q    Type
                         _______ _______ _______ _____ _____    ______ ____

>  <TORSDO>
F 6

$$$$
=
 OpenBabel11042413033D

 40 45  0  0  1  0  0  0  0  0999 V2000
  191.2880  178.2310  145.7050 C   0  0  0  0  0  2  0  0  0  0  0  0
  188.7580  177.4490  142.3930 C   0  0  1  0  0  0  0  0  0  0  0  0
  187.8980  178.2200  146.5290 C   0  0  0  0  0  2  0  0  0  0  0  0
  190.9610  177.0220  137.9530 C   0  0  0  0  0  2  0  0  0  0  0  0
  187.5480  178.1110  140.2890 C   0  0  0  0  0  0  0  0  0  0  0  0
  187.4730  177.3170  144.5600 C   0  0  0  0  0  2  0  0  0  0  0  0
  188.1790  176.5220  143.4690 C   0  0  1  0  0  3  0  0  0  0  0  0
  191.0130  177.0260  143.4820 C   0  0  0  0  0  2  0  0  0  0  0  0
  189.8280  177.2910  140.1320 C   0  0  1  0  0  3  0  0  0  0  0  0
  187.7710  178.4490  141.7240 C   0  0  2  0  0  3  0  0  0  0  0  0
  191.0720  176.9710  146.4960 C   0  0  0  0  0  0  0  0  0  0  0  0
  190.2070  177.7420  142.4010 C   0  0  1  0  0  3  0  0  0  0  0  0
  186.6740  177.7810  138.2900 C   0  0  0  0  0  0  0  0  0  0  0  0
  188.5070  177.5410  139.5490 N   0  0  0  0  0  0  0  0  0  0  0  0
  188.6410  176.7150  137.1440 C   0  0  0  0  0  3  0  0  0  0  0  0
  191.9780  176.0890  146.5090 O   0  0  0  0  0  0  0  0  0  0  0  0
  189.6860  176.7170  141.4770 N   0  0  1  0  0  0  0  0  0  0  0  0
  189.8640  176.7670  147.2500 N   0  0  0  0  0  0  0  0  0  0  0  0
  189.9520  176.5300  136.9670 C   0  0  0  0  0  0  0  0  0  0  0  0
  187.9870  177.3460  138.3080 C   0  0  0  0  0  0  0  0  0  0  0  0
  188.2100  179.8960  141.8760 C   0  0  0  0  0  1  0  0  0  0  0  0
  186.3930  178.2840  139.5540 C   0  0  0  0  0  0  0  0  0  0  0  0
  190.7040  176.3770  139.2940 C   0  0  0  0  0  2  0  0  0  0  0  0
  188.9550  177.8410  147.5170 C   0  0  0  0  0  0  0  0  0  0  0  0
  188.3880  178.1290  145.2280 O   0  0  0  0  0  0  0  0  0  0  0  0
  192.1910  179.1470  143.6750 O   0  0  0  0  0  1  0  0  0  0  0  0
  191.8940  177.9490  144.3310 C   0  0  1  0  0  3  0  0  0  0  0  0
  188.9600  178.3960  148.6460 O   0  0  0  0  0  0  0  0  0  0  0  0
  187.2770  175.6260  142.8940 O   0  0  0  0  0  1  0  0  0  0  0  0
  185.0830  178.7790  140.0720 C   0  0  0  0  0  2  0  0  0  0  0  0
  184.7040  179.9150  139.3610 O   0  0  0  0  0  1  0  0  0  0  0  0
  189.6330  175.4940  147.9200 C   0  0  0  0  0  2  0  0  0  0  0  0
  188.3070  175.4160  148.3430 O   0  0  0  0  0  1  0  0  0  0  0  0
  190.3830  175.8310  135.7970 N   0  0  0  0  0  2  0  0  0  0  0  0
  190.6700  173.5840  136.6560 C   0  0  0  0  0  2  0  0  0  0  0  0
  190.6790  173.5160  135.1460 C   0  0  0  0  0  2  0  0  0  0  0  0
  191.3000  174.7040  135.8540 C   0  0  0  0  0  3  0  0  0  0  0  0
  185.8230  177.7030  137.1810 O   0  0  0  0  0  0  0  0  0  0  0  0
  183.4540  177.3130  137.0110 C   0  0  0  0  0  1  0  0  0  0  0  0
  184.8360  176.6930  137.0220 C   0  0  0  0  0  2  0  0  0  0  0  0
  1 11  1  0  0  0  0
  2 12  1  0  0  0  0
  2  7  1  0  0  0  0
  3 24  1  0  0  0  0
  4 23  1  0  0  0  0
  5 10  1  0  0  0  0
  6 25  1  0  0  0  0
  7  6  1  0  0  0  0
  8 27  1  0  0  0  0
  9 17  1  0  0  0  0
 10 21  1  0  0  0  0
 10  2  1  0  0  0  0
 11 16  2  0  0  0  0
 11 18  1  0  0  0  0
 12  8  1  0  0  0  0
 13 20  2  0  0  0  0
 13 22  1  0  0  0  0
 14  9  1  0  0  0  0
 14  5  1  0  0  0  0
 15 20  1  0  0  0  0
 17  2  1  0  0  0  0
 17 12  1  0  0  0  0
 18 24  1  0  0  0  0
 18 32  1  0  0  0  0
 19 15  2  0  0  0  0
 19  4  1  0  0  0  0
 20 14  1  0  0  0  0
 22 30  1  0  0  0  0
 22  5  2  0  0  0  0
 23  9  1  0  0  0  0
 24 28  2  0  0  0  0
 25  3  1  0  0  0  0
 26 27  1  0  0  0  0
 27  1  1  0  0  0  0
 29  7  1  0  0  0  0
 31 30  1  0  0  0  0
 32 33  1  0  0  0  0
 34 37  1  0  0  0  0
 34 19  1  0  0  0  0
 36 37  1  0  0  0  0
 36 35  1  0  0  0  0
 37 35  1  0  0  0  0
 38 13  1  0  0  0  0
 39 40  1  0  0  0  0
 40 38  1  0  0  0  0
M  END
>  <MODEL>
2

>  <REMARK>
 VINA RESULT:      -4.7      3.222      8.465
  Name = 
  6 active torsions:
  status: ('A' for Active; 'I' for Inactive)
    1  A    between atoms: N_5  and  C_24
    2  A    between atoms: N_5  and  C_36
    3  A    between atoms: C_15  and  O_29
    4  A    between atoms: C_18  and  C_31
    5  A    between atoms: N_23  and  C_27
    6  A    between atoms: C_25  and  O_29
                            x       y       z     vdW  Elec       q    Type
                         _______ _______ _______ _____ _____    ______ ____

>  <TORSDO>
F 6

$$$$
=
 OpenBabel11042413033D

 40 45  0  0  1  0  0  0  0  0999 V2000
  192.2670  175.5950  138.6330 C   0  0  0  0  0  2  0  0  0  0  0  0
  188.4780  176.1840  136.8230 C   0  0  1  0  0  0  0  0  0  0  0  0
  191.9510  174.0070  135.5430 C   0  0  0  0  0  2  0  0  0  0  0  0
  185.1000  178.6870  139.4810 C   0  0  0  0  0  2  0  0  0  0  0  0
  186.0220  175.7090  136.5540 C   0  0  0  0  0  0  0  0  0  0  0  0
  190.1110  175.1740  135.1860 C   0  0  0  0  0  2  0  0  0  0  0  0
  189.4390  176.4570  135.6590 C   0  0  1  0  0  3  0  0  0  0  0  0
  190.2840  177.1570  138.3200 C   0  0  0  0  0  2  0  0  0  0  0  0
  186.7320  177.3860  138.1600 C   0  0  1  0  0  3  0  0  0  0  0  0
  187.3840  175.1020  136.5900 C   0  0  2  0  0  3  0  0  0  0  0  0
  193.1290  176.3840  137.6870 C   0  0  0  0  0  0  0  0  0  0  0  0
  188.9060  176.5100  138.2000 C   0  0  1  0  0  3  0  0  0  0  0  0
  183.9230  176.2040  136.0880 C   0  0  0  0  0  0  0  0  0  0  0  0
  185.7250  176.7990  137.2720 N   0  0  0  0  0  0  0  0  0  0  0  0
  183.6460  178.2460  137.5270 C   0  0  0  0  0  3  0  0  0  0  0  0
  193.5660  177.5140  138.0490 O   0  0  0  0  0  0  0  0  0  0  0  0
  188.0310  177.4530  137.4770 N   0  0  1  0  0  0  0  0  0  0  0  0
  193.4770  175.8630  136.3920 N   0  0  0  0  0  0  0  0  0  0  0  0
  183.9290  178.9860  138.6020 C   0  0  0  0  0  0  0  0  0  0  0  0
  184.4280  177.1070  137.0060 C   0  0  0  0  0  0  0  0  0  0  0  0
  187.4470  173.9760  137.6080 C   0  0  0  0  0  1  0  0  0  0  0  0
  184.9380  175.2990  135.8060 C   0  0  0  0  0  0  0  0  0  0  0  0
  186.3690  178.7700  138.6660 C   0  0  0  0  0  2  0  0  0  0  0  0
  193.2710  174.4870  136.0560 C   0  0  0  0  0  0  0  0  0  0  0  0
  190.9060  174.6490  136.2040 O   0  0  0  0  0  0  0  0  0  0  0  0
  190.5200  175.7300  140.2780 O   0  0  0  0  0  1  0  0  0  0  0  0
  191.2210  176.4700  139.3210 C   0  0  1  0  0  3  0  0  0  0  0  0
  194.2450  173.6890  136.0720 O   0  0  0  0  0  0  0  0  0  0  0  0
  188.7480  177.0350  134.5940 O   0  0  0  0  0  1  0  0  0  0  0  0
  184.9270  174.1940  134.8010 C   0  0  0  0  0  2  0  0  0  0  0  0
  184.4800  173.0210  135.4070 O   0  0  0  0  0  1  0  0  0  0  0  0
  194.2230  176.6910  135.4540 C   0  0  0  0  0  2  0  0  0  0  0  0
  195.5870  176.6120  135.7320 O   0  0  0  0  0  1  0  0  0  0  0  0
  183.0800  180.0970  138.9000 N   0  0  0  0  0  2  0  0  0  0  0  0
  180.7300  180.4830  139.3460 C   0  0  0  0  0  2  0  0  0  0  0  0
  181.2660  181.6690  138.5780 C   0  0  0  0  0  2  0  0  0  0  0  0
  181.7800  180.2760  138.2740 C   0  0  0  0  0  3  0  0  0  0  0  0
  182.6250  176.2390  135.5640 O   0  0  0  0  0  0  0  0  0  0  0  0
  181.5800  174.9770  137.3270 C   0  0  0  0  0  1  0  0  0  0  0  0
  181.6440  175.2480  135.8380 C   0  0  0  0  0  2  0  0  0  0  0  0
  1 27  1  0  0  0  0
  2 17  1  0  0  0  0
  2 12  1  0  0  0  0
  3 24  1  0  0  0  0
  3 25  1  0  0  0  0
  5 10  1  0  0  0  0
  5 14  1  0  0  0  0
  6  7  1  0  0  0  0
  6 25  1  0  0  0  0
  7  2  1  0  0  0  0
  8 27  1  0  0  0  0
  9 23  1  0  0  0  0
 10  2  1  0  0  0  0
 10 21  1  0  0  0  0
 11 16  2  0  0  0  0
 11  1  1  0  0  0  0
 12  8  1  0  0  0  0
 13 20  2  0  0  0  0
 14  9  1  0  0  0  0
 15 19  2  0  0  0  0
 17  9  1  0  0  0  0
 17 12  1  0  0  0  0
 18 11  1  0  0  0  0
 19 34  1  0  0  0  0
 19  4  1  0  0  0  0
 20 14  1  0  0  0  0
 20 15  1  0  0  0  0
 22 13  1  0  0  0  0
 22  5  2  0  0  0  0
 23  4  1  0  0  0  0
 24 28  2  0  0  0  0
 24 18  1  0  0  0  0
 27 26  1  0  0  0  0
 29  7  1  0  0  0  0
 30 31  1  0  0  0  0
 30 22  1  0  0  0  0
 32 33  1  0  0  0  0
 32 18  1  0  0  0  0
 36 35  1  0  0  0  0
 37 36  1  0  0  0  0
 37 34  1  0  0  0  0
 37 35  1  0  0  0  0
 38 40  1  0  0  0  0
 38 13  1  0  0  0  0
 40 39  1  0  0  0  0
M  END
>  <MODEL>
3

>  <REMARK>
 VINA RESULT:      -4.6      4.727      7.198
  Name = 
  6 active torsions:
  status: ('A' for Active; 'I' for Inactive)
    1  A    between atoms: N_5  and  C_24
    2  A    between atoms: N_5  and  C_36
    3  A    between atoms: C_15  and  O_29
    4  A    between atoms: C_18  and  C_31
    5  A    between atoms: N_23  and  C_27
    6  A    between atoms: C_25  and  O_29
                            x       y       z     vdW  Elec       q    Type
                         _______ _______ _______ _____ _____    ______ ____

>  <TORSDO>
F 6

$$$$
=
 OpenBabel11042413033D

 40 45  0  0  1  0  0  0  0  0999 V2000
  190.7690  178.8430  145.4660 C   0  0  0  0  0  2  0  0  0  0  0  0
  187.6620  177.8660  142.7500 C   0  0  1  0  0  0  0  0  0  0  0  0
  187.8210  177.8420  147.0410 C   0  0  0  0  0  2  0  0  0  0  0  0
  188.6030  178.6090  137.9220 C   0  0  0  0  0  2  0  0  0  0  0  0
  185.8090  178.4570  141.1550 C   0  0  0  0  0  0  0  0  0  0  0  0
  187.0810  177.1230  145.0890 C   0  0  0  0  0  2  0  0  0  0  0  0
  187.6170  176.6890  143.7320 C   0  0  1  0  0  3  0  0  0  0  0  0
  190.1660  177.9080  143.1790 C   0  0  0  0  0  2  0  0  0  0  0  0
  188.0800  178.2880  140.3150 C   0  0  1  0  0  3  0  0  0  0  0  0
  186.3370  178.6530  142.5360 C   0  0  2  0  0  3  0  0  0  0  0  0
  191.0580  177.4780  146.0270 C   0  0  0  0  0  0  0  0  0  0  0  0
  188.9590  178.5240  142.4760 C   0  0  1  0  0  3  0  0  0  0  0  0
  184.5140  178.1740  139.3910 C   0  0  0  0  0  0  0  0  0  0  0  0
  186.6290  178.2580  140.1160 N   0  0  0  0  0  0  0  0  0  0  0  0
  186.2760  177.8160  137.6340 C   0  0  0  0  0  3  0  0  0  0  0  0
  192.1020  176.8690  145.6570 O   0  0  0  0  0  0  0  0  0  0  0  0
  188.4410  177.5270  141.5190 N   0  0  1  0  0  0  0  0  0  0  0  0
  190.1770  176.8700  146.9880 N   0  0  0  0  0  0  0  0  0  0  0  0
  187.4960  178.0040  137.1230 C   0  0  0  0  0  0  0  0  0  0  0  0
  185.8450  178.0980  139.0170 C   0  0  0  0  0  0  0  0  0  0  0  0
  186.4740  180.1310  142.8580 C   0  0  0  0  0  1  0  0  0  0  0  0
  184.4880  178.4180  140.7580 C   0  0  0  0  0  0  0  0  0  0  0  0
  188.8710  177.7510  139.1360 C   0  0  0  0  0  2  0  0  0  0  0  0
  189.1650  177.6260  147.6620 C   0  0  0  0  0  0  0  0  0  0  0  0
  187.9440  178.0510  145.6690 O   0  0  0  0  0  0  0  0  0  0  0  0
  190.8590  180.2190  143.4980 O   0  0  0  0  0  1  0  0  0  0  0  0
  191.0220  178.9100  143.9610 C   0  0  1  0  0  3  0  0  0  0  0  0
  189.3580  178.0110  148.8450 O   0  0  0  0  0  0  0  0  0  0  0  0
  186.8100  175.6710  143.2210 O   0  0  0  0  0  1  0  0  0  0  0  0
  183.2950  178.4820  141.6540 C   0  0  0  0  0  2  0  0  0  0  0  0
  182.1780  178.8570  140.9100 O   0  0  0  0  0  1  0  0  0  0  0  0
  190.4220  175.5060  147.4350 C   0  0  0  0  0  2  0  0  0  0  0  0
  191.6680  175.4260  148.0540 O   0  0  0  0  0  1  0  0  0  0  0  0
  187.7310  177.5990  135.7720 N   0  0  0  0  0  2  0  0  0  0  0  0
  189.0240  175.5680  136.0380 C   0  0  0  0  0  2  0  0  0  0  0  0
  188.5890  175.6650  134.5940 C   0  0  0  0  0  2  0  0  0  0  0  0
  188.9500  176.9210  135.3610 C   0  0  0  0  0  3  0  0  0  0  0  0
  183.4310  178.0220  138.5180 O   0  0  0  0  0  0  0  0  0  0  0  0
  182.6790  175.8140  139.1130 C   0  0  0  0  0  1  0  0  0  0  0  0
  183.0240  176.7680  137.9880 C   0  0  0  0  0  2  0  0  0  0  0  0
  1 11  1  0  0  0  0
  2  7  1  0  0  0  0
  3 24  1  0  0  0  0
  4 23  1  0  0  0  0
  5 10  1  0  0  0  0
  6 25  1  0  0  0  0
  7  6  1  0  0  0  0
  8 27  1  0  0  0  0
  9 17  1  0  0  0  0
 10  2  1  0  0  0  0
 10 21  1  0  0  0  0
 11 18  1  0  0  0  0
 12  2  1  0  0  0  0
 12  8  1  0  0  0  0
 13 22  1  0  0  0  0
 14  9  1  0  0  0  0
 14  5  1  0  0  0  0
 15 20  1  0  0  0  0
 16 11  2  0  0  0  0
 17 12  1  0  0  0  0
 17  2  1  0  0  0  0
 18 32  1  0  0  0  0
 18 24  1  0  0  0  0
 19 15  2  0  0  0  0
 19  4  1  0  0  0  0
 20 13  2  0  0  0  0
 20 14  1  0  0  0  0
 22  5  2  0  0  0  0
 22 30  1  0  0  0  0
 23  9  1  0  0  0  0
 24 28  2  0  0  0  0
 25  3  1  0  0  0  0
 26 27  1  0  0  0  0
 27  1  1  0  0  0  0
 29  7  1  0  0  0  0
 31 30  1  0  0  0  0
 32 33  1  0  0  0  0
 34 19  1  0  0  0  0
 36 37  1  0  0  0  0
 36 35  1  0  0  0  0
 37 34  1  0  0  0  0
 37 35  1  0  0  0  0
 38 13  1  0  0  0  0
 40 38  1  0  0  0  0
 40 39  1  0  0  0  0
M  END
>  <MODEL>
4

>  <REMARK>
 VINA RESULT:      -4.2      3.351      7.852
  Name = 
  6 active torsions:
  status: ('A' for Active; 'I' for Inactive)
    1  A    between atoms: N_5  and  C_24
    2  A    between atoms: N_5  and  C_36
    3  A    between atoms: C_15  and  O_29
    4  A    between atoms: C_18  and  C_31
    5  A    between atoms: N_23  and  C_27
    6  A    between atoms: C_25  and  O_29
                            x       y       z     vdW  Elec       q    Type
                         _______ _______ _______ _____ _____    ______ ____

>  <TORSDO>
F 6

$$$$
=
 OpenBabel11042413033D

 40 45  0  0  1  0  0  0  0  0999 V2000
  189.9610  179.0860  145.9920 C   0  0  0  0  0  2  0  0  0  0  0  0
  189.5710  177.2110  142.2080 C   0  0  1  0  0  0  0  0  0  0  0  0
  186.7480  177.8740  145.3760 C   0  0  0  0  0  2  0  0  0  0  0  0
  193.5520  177.3450  139.2300 C   0  0  0  0  0  2  0  0  0  0  0  0
  189.3040  177.2400  139.7070 C   0  0  0  0  0  0  0  0  0  0  0  0
  187.5550  176.7520  143.6540 C   0  0  0  0  0  2  0  0  0  0  0  0
  188.8810  176.2070  143.1410 C   0  0  1  0  0  3  0  0  0  0  0  0
  191.1000  177.7250  144.1700 C   0  0  0  0  0  2  0  0  0  0  0  0
  191.5370  177.3150  140.6580 C   0  0  1  0  0  3  0  0  0  0  0  0
  188.7410  177.7290  140.9990 C   0  0  2  0  0  3  0  0  0  0  0  0
  189.8060  177.8900  146.8890 C   0  0  0  0  0  0  0  0  0  0  0  0
  190.6940  178.0200  142.7290 C   0  0  1  0  0  3  0  0  0  0  0  0
  189.5730  176.4820  137.6530 C   0  0  0  0  0  0  0  0  0  0  0  0
  190.6160  177.0200  139.5580 N   0  0  0  0  0  0  0  0  0  0  0  0
  192.0650  176.1490  137.6530 C   0  0  0  0  0  3  0  0  0  0  0  0
  190.8280  177.4090  147.4560 O   0  0  0  0  0  0  0  0  0  0  0  0
  190.9860  176.8170  141.9260 N   0  0  1  0  0  0  0  0  0  0  0  0
  188.5140  177.3020  147.1230 N   0  0  0  0  0  0  0  0  0  0  0  0
  193.3010  176.4520  138.0590 C   0  0  0  0  0  0  0  0  0  0  0  0
  190.7990  176.5670  138.2890 C   0  0  0  0  0  0  0  0  0  0  0  0
  188.6010  179.2420  140.9890 C   0  0  0  0  0  1  0  0  0  0  0  0
  188.6150  176.9260  138.5550 C   0  0  0  0  0  0  0  0  0  0  0  0
  192.9280  176.7380  140.4640 C   0  0  0  0  0  2  0  0  0  0  0  0
  187.3050  177.9780  146.7610 C   0  0  0  0  0  0  0  0  0  0  0  0
  187.7750  177.8870  144.4340 O   0  0  0  0  0  0  0  0  0  0  0  0
  191.3570  180.1390  144.3420 O   0  0  0  0  0  1  0  0  0  0  0  0
  191.1760  178.9610  145.0730 C   0  0  1  0  0  3  0  0  0  0  0  0
  186.6300  178.5670  147.6460 O   0  0  0  0  0  0  0  0  0  0  0  0
  188.6560  175.0060  142.4680 O   0  0  0  0  0  1  0  0  0  0  0  0
  187.1310  176.9330  138.3840 C   0  0  0  0  0  2  0  0  0  0  0  0
  186.6980  178.2370  138.1540 O   0  0  0  0  0  1  0  0  0  0  0  0
  188.4050  176.0810  147.9090 C   0  0  0  0  0  2  0  0  0  0  0  0
  187.7970  176.3570  149.1330 O   0  0  0  0  0  1  0  0  0  0  0  0
  194.4030  175.8880  137.3440 N   0  0  0  0  0  2  0  0  0  0  0  0
  194.4570  173.6410  136.4390 C   0  0  0  0  0  2  0  0  0  0  0  0
  195.8760  174.1570  136.5060 C   0  0  0  0  0  2  0  0  0  0  0  0
  194.8810  174.5360  137.5850 C   0  0  0  0  0  3  0  0  0  0  0  0
  189.3840  176.0230  136.3440 O   0  0  0  0  0  0  0  0  0  0  0  0
  189.7000  173.7130  135.7510 C   0  0  0  0  0  1  0  0  0  0  0  0
  188.7020  174.8170  136.0290 C   0  0  0  0  0  2  0  0  0  0  0  0
  1 11  1  0  0  0  0
  2 12  1  0  0  0  0
  2  7  1  0  0  0  0
  3 24  1  0  0  0  0
  4 23  1  0  0  0  0
  5 10  1  0  0  0  0
  6 25  1  0  0  0  0
  7  6  1  0  0  0  0
  8 27  1  0  0  0  0
  9 17  1  0  0  0  0
 10  2  1  0  0  0  0
 11 18  1  0  0  0  0
 11 16  2  0  0  0  0
 12  8  1  0  0  0  0
 13 20  2  0  0  0  0
 13 22  1  0  0  0  0
 14  5  1  0  0  0  0
 14  9  1  0  0  0  0
 15 19  2  0  0  0  0
 15 20  1  0  0  0  0
 17  2  1  0  0  0  0
 17 12  1  0  0  0  0
 18 32  1  0  0  0  0
 19  4  1  0  0  0  0
 20 14  1  0  0  0  0
 21 10  1  0  0  0  0
 22  5  2  0  0  0  0
 23  9  1  0  0  0  0
 24 18  1  0  0  0  0
 24 28  2  0  0  0  0
 25  3  1  0  0  0  0
 26 27  1  0  0  0  0
 27  1  1  0  0  0  0
 29  7  1  0  0  0  0
 30 22  1  0  0  0  0
 31 30  1  0  0  0  0
 32 33  1  0  0  0  0
 34 37  1  0  0  0  0
 34 19  1  0  0  0  0
 35 36  1  0  0  0  0
 35 37  1  0  0  0  0
 36 37  1  0  0  0  0
 38 13  1  0  0  0  0
 39 40  1  0  0  0  0
 40 38  1  0  0  0  0
M  END
>  <MODEL>
5

>  <REMARK>
 VINA RESULT:      -3.7      2.844      9.399
  Name = 
  6 active torsions:
  status: ('A' for Active; 'I' for Inactive)
    1  A    between atoms: N_5  and  C_24
    2  A    between atoms: N_5  and  C_36
    3  A    between atoms: C_15  and  O_29
    4  A    between atoms: C_18  and  C_31
    5  A    between atoms: N_23  and  C_27
    6  A    between atoms: C_25  and  O_29
                            x       y       z     vdW  Elec       q    Type
                         _______ _______ _______ _____ _____    ______ ____

>  <TORSDO>
F 6

$$$$
=
 OpenBabel11042413033D

 40 45  0  0  1  0  0  0  0  0999 V2000
  188.8020  176.3870  147.7160 C   0  0  0  0  0  2  0  0  0  0  0  0
  189.0980  177.5960  143.6630 C   0  0  1  0  0  0  0  0  0  0  0  0
  192.0570  176.2510  146.4690 C   0  0  0  0  0  2  0  0  0  0  0  0
  184.8320  178.6550  141.3320 C   0  0  0  0  0  2  0  0  0  0  0  0
  188.8580  177.2210  141.1870 C   0  0  0  0  0  0  0  0  0  0  0  0
  191.3820  177.4150  144.7180 C   0  0  0  0  0  2  0  0  0  0  0  0
  190.2570  178.3600  144.3150 C   0  0  1  0  0  3  0  0  0  0  0  0
  187.8860  177.8860  145.8760 C   0  0  0  0  0  2  0  0  0  0  0  0
  186.9630  178.0760  142.4400 C   0  0  1  0  0  3  0  0  0  0  0  0
  189.4490  176.6890  142.4480 C   0  0  2  0  0  3  0  0  0  0  0  0
  189.5310  177.5230  148.3770 C   0  0  0  0  0  0  0  0  0  0  0  0
  187.8820  177.3180  144.4590 C   0  0  1  0  0  3  0  0  0  0  0  0
  188.4870  177.8160  139.0950 C   0  0  0  0  0  0  0  0  0  0  0  0
  187.7030  177.8970  141.1880 N   0  0  0  0  0  0  0  0  0  0  0  0
  186.3160  179.0490  139.3900 C   0  0  0  0  0  3  0  0  0  0  0  0
  188.8680  178.4030  148.9970 O   0  0  0  0  0  0  0  0  0  0  0  0
  187.8830  178.4570  143.5210 N   0  0  1  0  0  0  0  0  0  0  0  0
  190.9660  177.6090  148.3300 N   0  0  0  0  0  0  0  0  0  0  0  0
  185.1530  179.2690  140.0090 C   0  0  0  0  0  0  0  0  0  0  0  0
  187.4520  178.2570  139.9010 C   0  0  0  0  0  0  0  0  0  0  0  0
  189.0480  175.2400  142.6640 C   0  0  0  0  0  1  0  0  0  0  0  0
  189.3830  177.1410  139.9130 C   0  0  0  0  0  0  0  0  0  0  0  0
  185.8510  179.1060  142.3520 C   0  0  0  0  0  2  0  0  0  0  0  0
  191.7720  176.5000  147.9160 C   0  0  0  0  0  0  0  0  0  0  0  0
  190.9320  176.5270  145.6940 O   0  0  0  0  0  0  0  0  0  0  0  0
  186.8410  175.7700  146.4710 O   0  0  0  0  0  1  0  0  0  0  0  0
  187.5570  176.8630  146.9690 C   0  0  1  0  0  3  0  0  0  0  0  0
  192.3530  175.7940  148.7810 O   0  0  0  0  0  0  0  0  0  0  0  0
  190.7550  179.3180  143.4310 O   0  0  0  0  0  1  0  0  0  0  0  0
  190.7100  176.5660  139.5400 C   0  0  0  0  0  2  0  0  0  0  0  0
  190.5200  175.4730  138.6970 O   0  0  0  0  0  1  0  0  0  0  0  0
  191.6420  178.7750  148.8850 C   0  0  0  0  0  2  0  0  0  0  0  0
  192.7560  178.3710  149.6190 O   0  0  0  0  0  1  0  0  0  0  0  0
  184.2030  180.1280  139.3730 N   0  0  0  0  0  2  0  0  0  0  0  0
  181.8460  179.5840  139.5160 C   0  0  0  0  0  2  0  0  0  0  0  0
  182.0130  180.6990  138.5100 C   0  0  0  0  0  2  0  0  0  0  0  0
  183.0680  179.6160  138.6210 C   0  0  0  0  0  3  0  0  0  0  0  0
  188.5730  178.0390  137.7160 O   0  0  0  0  0  0  0  0  0  0  0  0
  187.1480  177.8580  135.7850 C   0  0  0  0  0  1  0  0  0  0  0  0
  188.0690  177.1330  136.7440 C   0  0  0  0  0  2  0  0  0  0  0  0
  1 11  1  0  0  0  0
  2  7  1  0  0  0  0
  2 12  1  0  0  0  0
  3 24  1  0  0  0  0
  4 23  1  0  0  0  0
  5 14  1  0  0  0  0
  5 10  1  0  0  0  0
  6 25  1  0  0  0  0
  7  6  1  0  0  0  0
  8 27  1  0  0  0  0
  9 17  1  0  0  0  0
 10 21  1  0  0  0  0
 10  2  1  0  0  0  0
 11 16  2  0  0  0  0
 12  8  1  0  0  0  0
 13 20  2  0  0  0  0
 13 22  1  0  0  0  0
 14  9  1  0  0  0  0
 15 20  1  0  0  0  0
 15 19  2  0  0  0  0
 17  2  1  0  0  0  0
 17 12  1  0  0  0  0
 18 11  1  0  0  0  0
 18 32  1  0  0  0  0
 19  4  1  0  0  0  0
 20 14  1  0  0  0  0
 22  5  2  0  0  0  0
 23  9  1  0  0  0  0
 24 18  1  0  0  0  0
 24 28  2  0  0  0  0
 25  3  1  0  0  0  0
 26 27  1  0  0  0  0
 27  1  1  0  0  0  0
 29  7  1  0  0  0  0
 30 22  1  0  0  0  0
 31 30  1  0  0  0  0
 32 33  1  0  0  0  0
 34 19  1  0  0  0  0
 36 37  1  0  0  0  0
 36 35  1  0  0  0  0
 37 34  1  0  0  0  0
 37 35  1  0  0  0  0
 38 13  1  0  0  0  0
 39 40  1  0  0  0  0
 40 38  1  0  0  0  0
M  END
>  <MODEL>
6

>  <REMARK>
 VINA RESULT:      -2.5      2.602      7.485
  Name = 
  6 active torsions:
  status: ('A' for Active; 'I' for Inactive)
    1  A    between atoms: N_5  and  C_24
    2  A    between atoms: N_5  and  C_36
    3  A    between atoms: C_15  and  O_29
    4  A    between atoms: C_18  and  C_31
    5  A    between atoms: N_23  and  C_27
    6  A    between atoms: C_25  and  O_29
                            x       y       z     vdW  Elec       q    Type
                         _______ _______ _______ _____ _____    ______ ____

>  <TORSDO>
F 6

$$$$
=
 OpenBabel11042413033D

 40 45  0  0  1  0  0  0  0  0999 V2000
  189.8010  175.8730  138.7850 C   0  0  0  0  0  2  0  0  0  0  0  0
  186.0310  176.5190  136.9520 C   0  0  1  0  0  0  0  0  0  0  0  0
  189.2020  173.7580  136.0760 C   0  0  0  0  0  2  0  0  0  0  0  0
  183.0420  179.8570  139.1120 C   0  0  0  0  0  2  0  0  0  0  0  0
  183.5310  176.2800  136.8200 C   0  0  0  0  0  0  0  0  0  0  0  0
  187.4850  175.0320  135.5240 C   0  0  0  0  0  2  0  0  0  0  0  0
  186.9730  176.4490  135.7430 C   0  0  1  0  0  3  0  0  0  0  0  0
  187.9860  177.5570  138.1990 C   0  0  0  0  0  2  0  0  0  0  0  0
  184.4750  178.1480  138.0500 C   0  0  1  0  0  3  0  0  0  0  0  0
  184.8200  175.5420  136.9550 C   0  0  2  0  0  3  0  0  0  0  0  0
  190.7070  176.3600  137.6880 C   0  0  0  0  0  0  0  0  0  0  0  0
  186.5430  177.0580  138.2310 C   0  0  1  0  0  3  0  0  0  0  0  0
  181.4810  176.9060  136.2970 C   0  0  0  0  0  0  0  0  0  0  0  0
  183.3790  177.5160  137.3120 N   0  0  0  0  0  0  0  0  0  0  0  0
  181.4770  179.2090  137.3060 C   0  0  0  0  0  3  0  0  0  0  0  0
  191.2740  177.4830  137.8120 O   0  0  0  0  0  0  0  0  0  0  0  0
  185.7480  177.9330  137.3480 N   0  0  1  0  0  0  0  0  0  0  0  0
  190.9480  175.5610  136.5170 N   0  0  0  0  0  0  0  0  0  0  0  0
  181.8780  180.1070  138.2090 C   0  0  0  0  0  0  0  0  0  0  0  0
  182.1130  177.9100  137.0100 C   0  0  0  0  0  0  0  0  0  0  0  0
  184.8000  174.6380  138.1750 C   0  0  0  0  0  1  0  0  0  0  0  0
  182.3820  175.8550  136.1850 C   0  0  0  0  0  0  0  0  0  0  0  0
  184.2820  179.6360  138.2780 C   0  0  0  0  0  2  0  0  0  0  0  0
  190.5840  174.1770  136.4640 C   0  0  0  0  0  0  0  0  0  0  0  0
  188.2570  174.6300  136.6130 O   0  0  0  0  0  0  0  0  0  0  0  0
  188.1410  176.5220  140.3970 O   0  0  0  0  0  1  0  0  0  0  0  0
  188.8800  176.9780  139.3010 C   0  0  1  0  0  3  0  0  0  0  0  0
  191.4660  173.2940  136.6230 O   0  0  0  0  0  0  0  0  0  0  0  0
  186.3080  176.8820  134.5940 O   0  0  0  0  0  1  0  0  0  0  0  0
  182.2150  174.5840  135.4200 C   0  0  0  0  0  2  0  0  0  0  0  0
  181.5460  173.6520  136.2110 O   0  0  0  0  0  1  0  0  0  0  0  0
  191.7430  176.1010  135.4210 C   0  0  0  0  0  2  0  0  0  0  0  0
  190.9390  176.8840  134.5940 O   0  0  0  0  0  1  0  0  0  0  0  0
  181.1640  181.3430  138.2940 N   0  0  0  0  0  2  0  0  0  0  0  0
  179.7760  183.1470  137.4630 C   0  0  0  0  0  2  0  0  0  0  0  0
  181.2160  183.6060  137.4310 C   0  0  0  0  0  2  0  0  0  0  0  0
  180.8760  182.1600  137.1260 C   0  0  0  0  0  3  0  0  0  0  0  0
  180.1760  176.9840  135.7970 O   0  0  0  0  0  0  0  0  0  0  0  0
  179.4520  175.9260  137.8340 C   0  0  0  0  0  1  0  0  0  0  0  0
  179.0470  176.4430  136.4690 C   0  0  0  0  0  2  0  0  0  0  0  0
  1 27  1  0  0  0  0
  2 10  1  0  0  0  0
  2 17  1  0  0  0  0
  2 12  1  0  0  0  0
  3 24  1  0  0  0  0
  3 25  1  0  0  0  0
  5 10  1  0  0  0  0
  5 14  1  0  0  0  0
  6  7  1  0  0  0  0
  6 25  1  0  0  0  0
  7  2  1  0  0  0  0
  8 12  1  0  0  0  0
  8 27  1  0  0  0  0
  9 23  1  0  0  0  0
 10 21  1  0  0  0  0
 11 16  2  0  0  0  0
 11  1  1  0  0  0  0
 13 20  2  0  0  0  0
 14  9  1  0  0  0  0
 15 19  2  0  0  0  0
 17  9  1  0  0  0  0
 17 12  1  0  0  0  0
 18 11  1  0  0  0  0
 19 34  1  0  0  0  0
 19  4  1  0  0  0  0
 20 15  1  0  0  0  0
 20 14  1  0  0  0  0
 22 13  1  0  0  0  0
 22  5  2  0  0  0  0
 23  4  1  0  0  0  0
 24 18  1  0  0  0  0
 24 28  2  0  0  0  0
 27 26  1  0  0  0  0
 29  7  1  0  0  0  0
 30 22  1  0  0  0  0
 30 31  1  0  0  0  0
 32 18  1  0  0  0  0
 33 32  1  0  0  0  0
 36 35  1  0  0  0  0
 37 36  1  0  0  0  0
 37 35  1  0  0  0  0
 37 34  1  0  0  0  0
 38 13  1  0  0  0  0
 38 40  1  0  0  0  0
 40 39  1  0  0  0  0
M  END
>  <MODEL>
7

>  <REMARK>
 VINA RESULT:      -2.5      4.995      7.758
  Name = 
  6 active torsions:
  status: ('A' for Active; 'I' for Inactive)
    1  A    between atoms: N_5  and  C_24
    2  A    between atoms: N_5  and  C_36
    3  A    between atoms: C_15  and  O_29
    4  A    between atoms: C_18  and  C_31
    5  A    between atoms: N_23  and  C_27
    6  A    between atoms: C_25  and  O_29
                            x       y       z     vdW  Elec       q    Type
                         _______ _______ _______ _____ _____    ______ ____

>  <TORSDO>
F 6

$$$$
