=
 OpenBabel11032420273D

 39 44  0  0  1  0  0  0  0  0999 V2000
  182.9000  179.2460  145.4400 O   0  0  0  0  0  0  0  0  0  0  0  0
  188.1820  177.8760  145.2550 C   0  0  0  0  0  3  0  0  0  0  0  0
  186.0450  178.1620  144.2860 C   0  0  0  0  0  0  0  0  0  0  0  0
  183.0320  178.4890  142.3320 C   0  0  0  0  0  1  0  0  0  0  0  0
  184.8790  179.0120  146.5660 N   0  0  0  0  0  0  0  0  0  0  0  0
  189.1790  178.1030  140.9610 C   0  0  2  0  0  3  0  0  0  0  0  0
  185.4650  177.8390  142.2280 N   0  0  0  0  0  0  0  0  0  0  0  0
  190.1290  177.0750  143.8000 C   0  0  2  0  0  3  0  0  0  0  0  0
  187.7670  177.4120  142.8740 C   0  0  0  0  0  0  0  0  0  0  0  0
  186.4740  177.7790  143.0910 N   0  0  0  0  0  0  0  0  0  0  0  0
  190.5760  177.8570  141.4790 C   0  0  0  0  0  0  0  0  0  0  0  0
  188.2170  177.0470  141.4930 C   0  0  0  0  0  2  0  0  0  0  0  0
  192.2570  178.0600  143.1510 O   0  0  0  0  0  1  0  0  0  0  0  0
  184.7400  178.4890  144.2550 C   0  0  0  0  0  0  0  0  0  0  0  0
  186.2170  178.6800  146.5840 C   0  0  0  0  0  3  0  0  0  0  0  0
  190.8740  178.1070  142.9330 C   0  0  2  0  0  3  0  0  0  0  0  0
  188.6680  177.4440  143.9850 C   0  0  0  0  0  0  0  0  0  0  0  0
  184.3780  178.2760  142.9280 C   0  0  0  0  0  0  0  0  0  0  0  0
  184.1190  178.9290  145.4240 C   0  0  0  0  0  0  0  0  0  0  0  0
  186.8370  178.2380  145.4030 C   0  0  0  0  0  0  0  0  0  0  0  0
  191.4310  177.3670  140.7550 O   0  0  0  0  0  0  0  0  0  0  0  0
  192.1420  176.0810  147.4900 C   0  0  0  0  0  0  0  0  0  0  0  0
  191.7510  175.6470  145.1320 C   0  0  0  0  0  3  0  0  0  0  0  0
  192.4010  175.3380  146.3300 C   0  0  0  0  0  3  0  0  0  0  0  0
  190.8300  176.7050  145.0830 C   0  0  0  0  0  0  0  0  0  0  0  0
  190.5740  177.4510  146.2360 C   0  0  0  0  0  3  0  0  0  0  0  0
  191.2250  177.1410  147.4340 C   0  0  0  0  0  3  0  0  0  0  0  0
  193.4880  176.7730  149.5000 N   0  0  0  0  0  1  0  0  0  0  0  0
  192.8280  175.7550  148.7530 C   0  0  0  0  0  0  0  0  0  0  0  0
  192.8350  174.5720  149.1850 O   0  0  0  0  0  0  0  0  0  0  0  0
  189.0250  176.8290  137.6800 C   0  0  0  0  0  2  0  0  0  0  0  0
  189.8000  177.2590  138.7740 O   0  0  0  0  0  0  0  0  0  0  0  0
  189.0630  178.2580  139.4380 C   0  0  1  0  0  3  0  0  0  0  0  0
  187.6360  178.2560  138.9400 C   0  0  0  0  0  2  0  0  0  0  0  0
  187.7700  177.6670  137.5780 C   0  0  2  0  0  3  0  0  0  0  0  0
  185.8750  176.9240  136.0760 C   0  0  0  0  0  0  0  0  0  0  0  0
  184.7180  176.0220  135.8460 C   0  0  0  0  0  1  0  0  0  0  0  0
  186.6190  176.8240  137.2920 N   0  0  0  0  0  2  0  0  0  0  0  0
  186.1880  177.7730  135.1970 O   0  0  0  0  0  0  0  0  0  0  0  0
  2 20  2  0  0  0  0
  3 20  1  0  0  0  0
  4 18  1  0  0  0  0
  5 15  2  0  0  0  0
  6 11  1  0  0  0  0
  6 12  1  6  0  0  0
  7 18  2  0  0  0  0
  7 10  1  0  0  0  0
  8 17  1  0  0  0  0
  8 25  1  1  0  0  0
  9 10  1  0  0  0  0
  9 17  2  0  0  0  0
 10  3  1  0  0  0  0
 11 16  1  0  0  0  0
 12  9  1  0  0  0  0
 14  3  2  0  0  0  0
 14 19  1  0  0  0  0
 16 13  1  6  0  0  0
 16  8  1  0  0  0  0
 17  2  1  0  0  0  0
 18 14  1  0  0  0  0
 19  1  2  0  0  0  0
 19  5  1  0  0  0  0
 20 15  1  0  0  0  0
 21 11  2  0  0  0  0
 22 29  1  0  0  0  0
 23 24  1  0  0  0  0
 24 22  2  0  0  0  0
 25 23  2  0  0  0  0
 25 26  1  0  0  0  0
 26 27  2  0  0  0  0
 27 22  1  0  0  0  0
 29 30  2  0  0  0  0
 29 28  1  0  0  0  0
 31 32  1  0  0  0  0
 32 33  1  0  0  0  0
 33 34  1  1  0  0  0
 33  6  1  0  0  0  0
 35 38  1  1  0  0  0
 35 31  1  0  0  0  0
 35 34  1  0  0  0  0
 36 38  1  0  0  0  0
 37 36  1  0  0  0  0
 39 36  2  0  0  0  0
M  END
>  <MODEL>
1

>  <REMARK>
 VINA RESULT:     -10.1      0.000      0.000
  Name = 
  4 active torsions:
  status: ('A' for Active; 'I' for Inactive)
    1  A    between atoms: C_3  and  C_9
    2  A    between atoms: C_11  and  C_19
    3  A    between atoms: C_12  and  C_22
    4  A    between atoms: N_15  and  C_35
                            x       y       z     vdW  Elec       q    Type
                         _______ _______ _______ _____ _____    ______ ____

>  <TORSDO>
F 4

$$$$
=
 OpenBabel11032420273D

 39 44  0  0  1  0  0  0  0  0999 V2000
  190.6450  176.6760  136.6500 O   0  0  0  0  0  0  0  0  0  0  0  0
  189.4970  176.9310  141.9810 C   0  0  0  0  0  3  0  0  0  0  0  0
  189.1410  177.5180  139.7200 C   0  0  0  0  0  0  0  0  0  0  0  0
  188.1490  178.6690  136.4490 C   0  0  0  0  0  1  0  0  0  0  0  0
  191.1660  176.0050  138.7760 N   0  0  0  0  0  0  0  0  0  0  0  0
  185.3390  178.4080  142.0930 C   0  0  2  0  0  3  0  0  0  0  0  0
  187.6090  178.8110  138.9080 N   0  0  0  0  0  0  0  0  0  0  0  0
  187.9600  177.8890  143.7900 C   0  0  2  0  0  3  0  0  0  0  0  0
  187.6870  178.4570  141.3090 C   0  0  0  0  0  0  0  0  0  0  0  0
  188.1080  178.2920  140.0250 N   0  0  0  0  0  0  0  0  0  0  0  0
  185.4920  178.1260  143.5690 C   0  0  0  0  0  0  0  0  0  0  0  0
  186.4770  179.2920  141.5960 C   0  0  0  0  0  2  0  0  0  0  0  0
  186.4150  176.8920  145.3820 O   0  0  0  0  0  1  0  0  0  0  0  0
  189.3610  177.4990  138.3920 C   0  0  0  0  0  0  0  0  0  0  0  0
  190.9270  176.0280  140.1340 C   0  0  0  0  0  3  0  0  0  0  0  0
  186.5970  177.2150  144.0320 C   0  0  2  0  0  3  0  0  0  0  0  0
  188.4000  177.7690  142.3420 C   0  0  0  0  0  0  0  0  0  0  0  0
  188.3730  178.3340  137.8810 C   0  0  0  0  0  0  0  0  0  0  0  0
  190.4040  176.7240  137.8850 C   0  0  0  0  0  0  0  0  0  0  0  0
  189.8740  176.8110  140.6380 C   0  0  0  0  0  0  0  0  0  0  0  0
  184.7940  178.7060  144.3890 O   0  0  0  0  0  0  0  0  0  0  0  0
  191.0070  176.8770  146.6790 C   0  0  0  0  0  0  0  0  0  0  0  0
  190.3180  177.1420  144.3650 C   0  0  0  0  0  3  0  0  0  0  0  0
  191.2980  176.8230  145.3080 C   0  0  0  0  0  3  0  0  0  0  0  0
  189.0320  177.5190  144.7840 C   0  0  0  0  0  0  0  0  0  0  0  0
  188.7420  177.5810  146.1490 C   0  0  0  0  0  3  0  0  0  0  0  0
  189.7230  177.2600  147.0920 C   0  0  0  0  0  3  0  0  0  0  0  0
  192.7930  175.3360  147.5540 N   0  0  0  0  0  1  0  0  0  0  0  0
  192.0410  176.5410  147.6730 C   0  0  0  0  0  0  0  0  0  0  0  0
  192.2720  177.3170  148.6380 O   0  0  0  0  0  0  0  0  0  0  0  0
  182.8090  179.0470  139.7260 C   0  0  0  0  0  2  0  0  0  0  0  0
  184.0090  179.4420  140.3490 O   0  0  0  0  0  0  0  0  0  0  0  0
  183.9690  178.9580  141.6700 C   0  0  1  0  0  3  0  0  0  0  0  0
  182.8480  177.9540  141.8120 C   0  0  0  0  0  2  0  0  0  0  0  0
  181.9090  178.3610  140.7300 C   0  0  2  0  0  3  0  0  0  0  0  0
  180.0420  176.6610  140.5820 C   0  0  0  0  0  0  0  0  0  0  0  0
  179.4720  175.4590  139.9230 C   0  0  0  0  0  1  0  0  0  0  0  0
  181.2980  177.1810  140.1390 N   0  0  0  0  0  2  0  0  0  0  0  0
  179.4150  177.2120  141.5270 O   0  0  0  0  0  0  0  0  0  0  0  0
  1 19  2  0  0  0  0
  2 17  1  0  0  0  0
  3 10  1  0  0  0  0
  3 20  1  0  0  0  0
  4 18  1  0  0  0  0
  5 15  2  0  0  0  0
  6 12  1  1  0  0  0
  6 11  1  0  0  0  0
  7 10  1  0  0  0  0
  8 16  1  0  0  0  0
  8 25  1  1  0  0  0
  9 12  1  0  0  0  0
  9 17  2  0  0  0  0
 10  9  1  0  0  0  0
 11 16  1  0  0  0  0
 11 21  2  0  0  0  0
 14  3  2  0  0  0  0
 15 20  1  0  0  0  0
 16 13  1  1  0  0  0
 17  8  1  0  0  0  0
 18 14  1  0  0  0  0
 18  7  2  0  0  0  0
 19 14  1  0  0  0  0
 19  5  1  0  0  0  0
 20  2  2  0  0  0  0
 22 27  1  0  0  0  0
 22 29  1  0  0  0  0
 23 25  2  0  0  0  0
 23 24  1  0  0  0  0
 24 22  2  0  0  0  0
 25 26  1  0  0  0  0
 26 27  2  0  0  0  0
 28 29  1  0  0  0  0
 29 30  2  0  0  0  0
 31 32  1  0  0  0  0
 31 35  1  0  0  0  0
 32 33  1  0  0  0  0
 33 34  1  6  0  0  0
 33  6  1  0  0  0  0
 35 38  1  6  0  0  0
 35 34  1  0  0  0  0
 36 39  2  0  0  0  0
 37 36  1  0  0  0  0
 38 36  1  0  0  0  0
M  END
>  <MODEL>
2

>  <REMARK>
 VINA RESULT:     -10.1      2.576      5.847
  Name = 
  4 active torsions:
  status: ('A' for Active; 'I' for Inactive)
    1  A    between atoms: C_3  and  C_9
    2  A    between atoms: C_11  and  C_19
    3  A    between atoms: C_12  and  C_22
    4  A    between atoms: N_15  and  C_35
                            x       y       z     vdW  Elec       q    Type
                         _______ _______ _______ _____ _____    ______ ____

>  <TORSDO>
F 4

$$$$
=
 OpenBabel11032420273D

 39 44  0  0  1  0  0  0  0  0999 V2000
  190.3300  177.4620  147.8230 O   0  0  0  0  0  0  0  0  0  0  0  0
  190.5210  177.3250  142.3690 C   0  0  0  0  0  3  0  0  0  0  0  0
  189.3760  177.3700  144.4350 C   0  0  0  0  0  0  0  0  0  0  0  0
  187.1750  177.4980  147.2890 C   0  0  0  0  0  1  0  0  0  0  0  0
  191.6200  177.3970  145.9330 N   0  0  0  0  0  0  0  0  0  0  0  0
  186.5310  178.7550  141.1390 C   0  0  2  0  0  3  0  0  0  0  0  0
  187.2400  177.4220  144.7700 N   0  0  0  0  0  0  0  0  0  0  0  0
  189.1850  177.3180  140.1860 C   0  0  2  0  0  3  0  0  0  0  0  0
  188.0640  177.3530  142.4870 C   0  0  0  0  0  0  0  0  0  0  0  0
  188.1900  177.3760  143.8420 N   0  0  0  0  0  0  0  0  0  0  0  0
  187.1550  178.6960  139.7650 C   0  0  0  0  0  0  0  0  0  0  0  0
  186.7040  177.4240  141.8630 C   0  0  0  0  0  2  0  0  0  0  0  0
  189.0290  178.8540  138.3070 O   0  0  0  0  0  1  0  0  0  0  0  0
  189.2520  177.4110  145.7750 C   0  0  0  0  0  0  0  0  0  0  0  0
  191.7350  177.3610  144.5600 C   0  0  0  0  0  3  0  0  0  0  0  0
  188.6550  178.6570  139.6420 C   0  0  2  0  0  3  0  0  0  0  0  0
  189.2600  177.3150  141.7020 C   0  0  0  0  0  0  0  0  0  0  0  0
  187.8750  177.4420  145.9780 C   0  0  0  0  0  0  0  0  0  0  0  0
  190.4000  177.4240  146.5670 C   0  0  0  0  0  0  0  0  0  0  0  0
  190.5730  177.3490  143.7680 C   0  0  0  0  0  0  0  0  0  0  0  0
  186.4570  178.5810  138.7680 O   0  0  0  0  0  0  0  0  0  0  0  0
  192.7990  175.9420  138.2610 C   0  0  0  0  0  0  0  0  0  0  0  0
  190.3900  175.8030  138.5420 C   0  0  0  0  0  3  0  0  0  0  0  0
  191.5650  175.3700  137.9220 C   0  0  0  0  0  3  0  0  0  0  0  0
  190.4380  176.8150  139.5140 C   0  0  0  0  0  0  0  0  0  0  0  0
  191.6660  177.3910  139.8500 C   0  0  0  0  0  3  0  0  0  0  0  0
  192.8410  176.9570  139.2290 C   0  0  0  0  0  3  0  0  0  0  0  0
  194.5750  174.1980  137.8970 N   0  0  0  0  0  1  0  0  0  0  0  0
  194.0370  175.4850  137.6060 C   0  0  0  0  0  0  0  0  0  0  0  0
  194.6310  176.2280  136.7800 O   0  0  0  0  0  0  0  0  0  0  0  0
  183.3880  179.3550  139.6640 C   0  0  0  0  0  2  0  0  0  0  0  0
  184.6980  179.7940  139.9390 O   0  0  0  0  0  0  0  0  0  0  0  0
  185.0720  179.2330  141.1750 C   0  0  1  0  0  3  0  0  0  0  0  0
  184.0930  178.1480  141.5610 C   0  0  0  0  0  2  0  0  0  0  0  0
  182.8580  178.5530  140.8320 C   0  0  2  0  0  3  0  0  0  0  0  0
  180.7320  177.2910  140.2980 C   0  0  0  0  0  0  0  0  0  0  0  0
  180.0850  176.0540  139.7910 C   0  0  0  0  0  1  0  0  0  0  0  0
  182.1570  177.3690  140.3580 N   0  0  0  0  0  2  0  0  0  0  0  0
  180.0180  178.2590  140.6740 O   0  0  0  0  0  0  0  0  0  0  0  0
  2 20  2  0  0  0  0
  3 14  2  0  0  0  0
  5 19  1  0  0  0  0
  6 33  1  0  0  0  0
  6 12  1  6  0  0  0
  7 18  2  0  0  0  0
  8 25  1  6  0  0  0
  8 17  1  0  0  0  0
  9 10  1  0  0  0  0
 10  3  1  0  0  0  0
 10  7  1  0  0  0  0
 11  6  1  0  0  0  0
 12  9  1  0  0  0  0
 14 18  1  0  0  0  0
 14 19  1  0  0  0  0
 15  5  2  0  0  0  0
 16 13  1  6  0  0  0
 16 11  1  0  0  0  0
 16  8  1  0  0  0  0
 17  2  1  0  0  0  0
 17  9  2  0  0  0  0
 18  4  1  0  0  0  0
 19  1  2  0  0  0  0
 20  3  1  0  0  0  0
 20 15  1  0  0  0  0
 21 11  2  0  0  0  0
 22 27  1  0  0  0  0
 23 25  2  0  0  0  0
 24 22  2  0  0  0  0
 24 23  1  0  0  0  0
 25 26  1  0  0  0  0
 27 26  2  0  0  0  0
 29 28  1  0  0  0  0
 29 22  1  0  0  0  0
 30 29  2  0  0  0  0
 31 32  1  0  0  0  0
 31 35  1  0  0  0  0
 32 33  1  0  0  0  0
 33 34  1  6  0  0  0
 35 38  1  6  0  0  0
 35 34  1  0  0  0  0
 36 38  1  0  0  0  0
 36 39  2  0  0  0  0
 37 36  1  0  0  0  0
M  END
>  <MODEL>
3

>  <REMARK>
 VINA RESULT:     -10.0      3.093      6.338
  Name = 
  4 active torsions:
  status: ('A' for Active; 'I' for Inactive)
    1  A    between atoms: C_3  and  C_9
    2  A    between atoms: C_11  and  C_19
    3  A    between atoms: C_12  and  C_22
    4  A    between atoms: N_15  and  C_35
                            x       y       z     vdW  Elec       q    Type
                         _______ _______ _______ _____ _____    ______ ____

>  <TORSDO>
F 4

$$$$
=
 OpenBabel11032420273D

 39 44  0  0  1  0  0  0  0  0999 V2000
  191.8880  177.1990  140.2560 O   0  0  0  0  0  0  0  0  0  0  0  0
  186.6190  178.4080  141.0160 C   0  0  0  0  0  3  0  0  0  0  0  0
  188.7130  177.5760  141.7290 C   0  0  0  0  0  0  0  0  0  0  0  0
  191.6800  176.2750  143.3130 C   0  0  0  0  0  1  0  0  0  0  0  0
  189.9440  178.0210  139.3700 N   0  0  0  0  0  0  0  0  0  0  0  0
  186.2120  178.6300  145.4060 C   0  0  2  0  0  3  0  0  0  0  0  0
  189.2450  176.8140  143.6820 N   0  0  0  0  0  0  0  0  0  0  0  0
  184.6550  178.4520  142.6560 C   0  0  2  0  0  3  0  0  0  0  0  0
  186.9670  177.5650  143.3010 C   0  0  0  0  0  0  0  0  0  0  0  0
  188.2580  177.3140  142.9470 N   0  0  0  0  0  0  0  0  0  0  0  0
  184.8250  179.1100  145.0510 C   0  0  0  0  0  0  0  0  0  0  0  0
  186.5170  177.3090  144.7070 C   0  0  0  0  0  2  0  0  0  0  0  0
  183.3020  180.2340  143.6100 O   0  0  0  0  0  1  0  0  0  0  0  0
  190.0170  177.2590  141.6170 C   0  0  0  0  0  0  0  0  0  0  0  0
  188.6110  178.3470  139.4990 C   0  0  0  0  0  3  0  0  0  0  0  0
  184.5570  179.6160  143.6590 C   0  0  2  0  0  3  0  0  0  0  0  0
  186.0960  178.1220  142.3130 C   0  0  0  0  0  0  0  0  0  0  0  0
  190.3470  176.7690  142.8770 C   0  0  0  0  0  0  0  0  0  0  0  0
  190.6700  177.4810  140.4050 C   0  0  0  0  0  0  0  0  0  0  0  0
  187.9580  178.1220  140.7230 C   0  0  0  0  0  0  0  0  0  0  0  0
  183.9040  178.9980  145.8490 O   0  0  0  0  0  0  0  0  0  0  0  0
  182.0640  178.7530  139.2130 C   0  0  0  0  0  0  0  0  0  0  0  0
  184.1160  179.3770  140.3540 C   0  0  0  0  0  3  0  0  0  0  0  0
  183.2730  179.4630  139.2430 C   0  0  0  0  0  3  0  0  0  0  0  0
  183.7560  178.5800  141.4520 C   0  0  0  0  0  0  0  0  0  0  0  0
  182.5550  177.8670  141.4220 C   0  0  0  0  0  3  0  0  0  0  0  0
  181.7120  177.9530  140.3110 C   0  0  0  0  0  3  0  0  0  0  0  0
  181.1800  180.0080  137.2200 N   0  0  0  0  0  1  0  0  0  0  0  0
  181.1750  178.8430  138.0410 C   0  0  0  0  0  0  0  0  0  0  0  0
  180.4050  177.8900  137.7530 O   0  0  0  0  0  0  0  0  0  0  0  0
  187.3860  176.9900  148.2950 C   0  0  0  0  0  2  0  0  0  0  0  0
  186.3330  177.2480  147.3950 O   0  0  0  0  0  0  0  0  0  0  0  0
  186.5160  178.5570  146.9090 C   0  0  1  0  0  3  0  0  0  0  0  0
  187.9000  179.0470  147.2680 C   0  0  0  0  0  2  0  0  0  0  0  0
  188.2300  178.2330  148.4710 C   0  0  2  0  0  3  0  0  0  0  0  0
  190.2250  177.0470  147.4650 C   0  0  0  0  0  0  0  0  0  0  0  0
  191.6800  176.7520  147.5110 C   0  0  0  0  0  1  0  0  0  0  0  0
  189.6440  177.8910  148.4610 N   0  0  0  0  0  2  0  0  0  0  0  0
  189.5150  176.5480  146.5510 O   0  0  0  0  0  0  0  0  0  0  0  0
  1 19  2  0  0  0  0
  2 17  1  0  0  0  0
  3 10  1  0  0  0  0
  5 15  2  0  0  0  0
  5 19  1  0  0  0  0
  6 12  1  1  0  0  0
  6 33  1  0  0  0  0
  8 25  1  6  0  0  0
  8 16  1  0  0  0  0
  9 12  1  0  0  0  0
 10  9  1  0  0  0  0
 10  7  1  0  0  0  0
 11  6  1  0  0  0  0
 11 21  2  0  0  0  0
 14  3  2  0  0  0  0
 14 18  1  0  0  0  0
 15 20  1  0  0  0  0
 16 13  1  1  0  0  0
 16 11  1  0  0  0  0
 17  8  1  0  0  0  0
 17  9  2  0  0  0  0
 18  4  1  0  0  0  0
 18  7  2  0  0  0  0
 19 14  1  0  0  0  0
 20  2  2  0  0  0  0
 20  3  1  0  0  0  0
 22 24  2  0  0  0  0
 22 27  1  0  0  0  0
 23 25  2  0  0  0  0
 24 23  1  0  0  0  0
 26 25  1  0  0  0  0
 27 26  2  0  0  0  0
 28 29  1  0  0  0  0
 29 22  1  0  0  0  0
 30 29  2  0  0  0  0
 31 35  1  0  0  0  0
 32 31  1  0  0  0  0
 33 34  1  6  0  0  0
 33 32  1  0  0  0  0
 34 35  1  0  0  0  0
 35 38  1  6  0  0  0
 36 37  1  0  0  0  0
 36 38  1  0  0  0  0
 39 36  2  0  0  0  0
M  END
>  <MODEL>
4

>  <REMARK>
 VINA RESULT:      -9.7      2.645      9.539
  Name = 
  4 active torsions:
  status: ('A' for Active; 'I' for Inactive)
    1  A    between atoms: C_3  and  C_9
    2  A    between atoms: C_11  and  C_19
    3  A    between atoms: C_12  and  C_22
    4  A    between atoms: N_15  and  C_35
                            x       y       z     vdW  Elec       q    Type
                         _______ _______ _______ _____ _____    ______ ____

>  <TORSDO>
F 4

$$$$
=
 OpenBabel11032420273D

 39 44  0  0  1  0  0  0  0  0999 V2000
  188.8840  177.6970  145.1290 O   0  0  0  0  0  0  0  0  0  0  0  0
  185.0210  178.4450  141.3450 C   0  0  0  0  0  3  0  0  0  0  0  0
  187.2570  178.1170  142.0350 C   0  0  0  0  0  0  0  0  0  0  0  0
  190.7830  177.5680  142.5560 C   0  0  0  0  0  1  0  0  0  0  0  0
  186.6670  178.0330  144.6670 N   0  0  0  0  0  0  0  0  0  0  0  0
  186.8880  176.9690  137.6280 C   0  0  2  0  0  3  0  0  0  0  0  0
  189.0170  177.9260  140.7930 N   0  0  0  0  0  0  0  0  0  0  0  0
  184.4860  178.6300  138.8490 C   0  0  2  0  0  3  0  0  0  0  0  0
  186.8660  178.2860  139.7250 C   0  0  0  0  0  0  0  0  0  0  0  0
  187.7030  178.1190  140.7860 N   0  0  0  0  0  0  0  0  0  0  0  0
  185.5040  177.2090  137.0750 C   0  0  0  0  0  0  0  0  0  0  0  0
  187.4090  178.2180  138.3300 C   0  0  0  0  0  2  0  0  0  0  0  0
  183.1380  177.3040  137.3180 O   0  0  0  0  0  1  0  0  0  0  0  0
  188.2610  177.9220  142.9110 C   0  0  0  0  0  0  0  0  0  0  0  0
  185.6470  178.2260  143.7600 C   0  0  0  0  0  3  0  0  0  0  0  0
  184.3450  177.3340  138.0280 C   0  0  2  0  0  3  0  0  0  0  0  0
  185.4720  178.4680  139.9910 C   0  0  0  0  0  0  0  0  0  0  0  0
  189.3860  177.8020  142.1010 C   0  0  0  0  0  0  0  0  0  0  0  0
  187.9760  177.8770  144.2760 C   0  0  0  0  0  0  0  0  0  0  0  0
  185.9410  178.2700  142.3860 C   0  0  0  0  0  0  0  0  0  0  0  0
  185.3350  177.4000  135.8790 O   0  0  0  0  0  0  0  0  0  0  0  0
  180.7740  180.5050  140.0160 C   0  0  0  0  0  0  0  0  0  0  0  0
  182.3260  178.6440  140.1840 C   0  0  0  0  0  3  0  0  0  0  0  0
  181.1310  179.2630  140.5590 C   0  0  0  0  0  3  0  0  0  0  0  0
  183.1800  179.2630  139.2570 C   0  0  0  0  0  0  0  0  0  0  0  0
  182.8300  180.5040  138.7190 C   0  0  0  0  0  3  0  0  0  0  0  0
  181.6330  181.1220  139.0950 C   0  0  0  0  0  3  0  0  0  0  0  0
  178.9420  180.9040  141.6930 N   0  0  0  0  0  1  0  0  0  0  0  0
  179.5140  181.1570  140.4120 C   0  0  0  0  0  0  0  0  0  0  0  0
  178.9310  181.9460  139.6220 O   0  0  0  0  0  0  0  0  0  0  0  0
  189.7680  177.2370  135.6160 C   0  0  0  0  0  2  0  0  0  0  0  0
  188.3840  177.4440  135.7790 O   0  0  0  0  0  0  0  0  0  0  0  0
  187.9090  176.4200  136.6210 C   0  0  1  0  0  3  0  0  0  0  0  0
  189.0740  175.7100  137.2710 C   0  0  0  0  0  2  0  0  0  0  0  0
  190.1820  175.9560  136.3070 C   0  0  2  0  0  3  0  0  0  0  0  0
  192.3730  175.0960  137.2330 C   0  0  0  0  0  0  0  0  0  0  0  0
  193.6330  175.3700  137.9700 C   0  0  0  0  0  1  0  0  0  0  0  0
  191.4300  176.1500  137.0290 N   0  0  0  0  0  2  0  0  0  0  0  0
  192.1460  173.9360  136.7960 O   0  0  0  0  0  0  0  0  0  0  0  0
  2 20  2  0  0  0  0
  3 20  1  0  0  0  0
  3 14  2  0  0  0  0
  6 12  1  6  0  0  0
  7 18  2  0  0  0  0
  8 25  1  1  0  0  0
  8 17  1  0  0  0  0
  9 17  2  0  0  0  0
  9 10  1  0  0  0  0
 10  7  1  0  0  0  0
 10  3  1  0  0  0  0
 11  6  1  0  0  0  0
 11 16  1  0  0  0  0
 12  9  1  0  0  0  0
 14 19  1  0  0  0  0
 15  5  2  0  0  0  0
 16 13  1  6  0  0  0
 16  8  1  0  0  0  0
 17  2  1  0  0  0  0
 18  4  1  0  0  0  0
 18 14  1  0  0  0  0
 19  5  1  0  0  0  0
 19  1  2  0  0  0  0
 20 15  1  0  0  0  0
 21 11  2  0  0  0  0
 22 29  1  0  0  0  0
 22 24  1  0  0  0  0
 23 24  2  0  0  0  0
 25 23  1  0  0  0  0
 26 27  1  0  0  0  0
 26 25  2  0  0  0  0
 27 22  2  0  0  0  0
 29 28  1  0  0  0  0
 30 29  2  0  0  0  0
 31 32  1  0  0  0  0
 31 35  1  0  0  0  0
 32 33  1  0  0  0  0
 33 34  1  1  0  0  0
 33  6  1  0  0  0  0
 35 38  1  1  0  0  0
 35 34  1  0  0  0  0
 36 37  1  0  0  0  0
 38 36  1  0  0  0  0
 39 36  2  0  0  0  0
M  END
>  <MODEL>
5

>  <REMARK>
 VINA RESULT:      -8.7      3.325      8.357
  Name = 
  4 active torsions:
  status: ('A' for Active; 'I' for Inactive)
    1  A    between atoms: C_3  and  C_9
    2  A    between atoms: C_11  and  C_19
    3  A    between atoms: C_12  and  C_22
    4  A    between atoms: N_15  and  C_35
                            x       y       z     vdW  Elec       q    Type
                         _______ _______ _______ _____ _____    ______ ____

>  <TORSDO>
F 4

$$$$
=
 OpenBabel11032420273D

 39 44  0  0  1  0  0  0  0  0999 V2000
  189.2430  177.3140  146.4500 O   0  0  0  0  0  0  0  0  0  0  0  0
  186.0910  178.0060  142.0460 C   0  0  0  0  0  3  0  0  0  0  0  0
  188.1770  177.9470  143.1540 C   0  0  0  0  0  0  0  0  0  0  0  0
  191.5800  177.9140  144.3470 C   0  0  0  0  0  1  0  0  0  0  0  0
  187.1300  177.3480  145.5680 N   0  0  0  0  0  0  0  0  0  0  0  0
  188.8750  177.4710  138.6630 C   0  0  2  0  0  3  0  0  0  0  0  0
  190.1420  178.2500  142.3040 N   0  0  0  0  0  0  0  0  0  0  0  0
  186.0090  178.4940  139.5350 C   0  0  2  0  0  3  0  0  0  0  0  0
  188.2030  178.4150  140.8520 C   0  0  0  0  0  0  0  0  0  0  0  0
  188.8410  178.2220  142.0390 N   0  0  0  0  0  0  0  0  0  0  0  0
  187.5990  177.5630  137.8610 C   0  0  0  0  0  0  0  0  0  0  0  0
  189.0000  178.6610  139.6080 C   0  0  0  0  0  2  0  0  0  0  0  0
  185.2580  177.2250  137.6010 O   0  0  0  0  0  1  0  0  0  0  0  0
  189.0170  177.7840  144.1940 C   0  0  0  0  0  0  0  0  0  0  0  0
  186.2810  177.5110  144.4940 C   0  0  0  0  0  3  0  0  0  0  0  0
  186.2800  177.3410  138.5510 C   0  0  2  0  0  3  0  0  0  0  0  0
  186.7750  178.3180  140.8340 C   0  0  0  0  0  0  0  0  0  0  0  0
  190.2760  177.9830  143.6360 C   0  0  0  0  0  0  0  0  0  0  0  0
  188.4950  177.4750  145.4500 C   0  0  0  0  0  0  0  0  0  0  0  0
  186.8140  177.8210  143.2310 C   0  0  0  0  0  0  0  0  0  0  0  0
  187.6240  177.9120  136.6880 O   0  0  0  0  0  0  0  0  0  0  0  0
  181.8210  179.3880  140.1000 C   0  0  0  0  0  0  0  0  0  0  0  0
  183.9250  179.8290  138.9690 C   0  0  0  0  0  3  0  0  0  0  0  0
  182.5680  180.1060  139.1550 C   0  0  0  0  0  3  0  0  0  0  0  0
  184.5520  178.8290  139.7290 C   0  0  0  0  0  0  0  0  0  0  0  0
  183.8080  178.1080  140.6670 C   0  0  0  0  0  3  0  0  0  0  0  0
  182.4510  178.3860  140.8530 C   0  0  0  0  0  3  0  0  0  0  0  0
  179.9670  180.5380  141.3520 N   0  0  0  0  0  1  0  0  0  0  0  0
  180.3900  179.6800  140.2960 C   0  0  0  0  0  0  0  0  0  0  0  0
  179.5270  179.1740  139.5300 O   0  0  0  0  0  0  0  0  0  0  0  0
  192.0870  176.1230  138.1370 C   0  0  0  0  0  2  0  0  0  0  0  0
  191.2770  177.1410  138.6780 O   0  0  0  0  0  0  0  0  0  0  0  0
  190.1530  177.2660  137.8390 C   0  0  1  0  0  3  0  0  0  0  0  0
  190.0820  176.0820  136.9010 C   0  0  0  0  0  2  0  0  0  0  0  0
  191.5020  175.6400  136.8290 C   0  0  2  0  0  3  0  0  0  0  0  0
  192.2880  173.5020  135.7290 C   0  0  0  0  0  0  0  0  0  0  0  0
  192.3160  172.0170  135.7200 C   0  0  0  0  0  1  0  0  0  0  0  0
  191.5630  174.1890  136.7510 N   0  0  0  0  0  2  0  0  0  0  0  0
  192.9020  174.1430  134.8340 O   0  0  0  0  0  0  0  0  0  0  0  0
  2 20  2  0  0  0  0
  3 20  1  0  0  0  0
  3 14  2  0  0  0  0
  6 12  1  6  0  0  0
  7 18  2  0  0  0  0
  8 25  1  1  0  0  0
  8 17  1  0  0  0  0
  9 10  1  0  0  0  0
 10  7  1  0  0  0  0
 10  3  1  0  0  0  0
 11 16  1  0  0  0  0
 11  6  1  0  0  0  0
 12  9  1  0  0  0  0
 14 19  1  0  0  0  0
 15  5  2  0  0  0  0
 16 13  1  6  0  0  0
 16  8  1  0  0  0  0
 17  9  2  0  0  0  0
 17  2  1  0  0  0  0
 18 14  1  0  0  0  0
 18  4  1  0  0  0  0
 19  5  1  0  0  0  0
 19  1  2  0  0  0  0
 20 15  1  0  0  0  0
 21 11  2  0  0  0  0
 22 29  1  0  0  0  0
 22 27  1  0  0  0  0
 23 24  1  0  0  0  0
 23 25  2  0  0  0  0
 24 22  2  0  0  0  0
 25 26  1  0  0  0  0
 26 27  2  0  0  0  0
 29 28  1  0  0  0  0
 30 29  2  0  0  0  0
 31 32  1  0  0  0  0
 33 34  1  1  0  0  0
 33  6  1  0  0  0  0
 33 32  1  0  0  0  0
 35 38  1  1  0  0  0
 35 34  1  0  0  0  0
 35 31  1  0  0  0  0
 36 38  1  0  0  0  0
 37 36  1  0  0  0  0
 39 36  2  0  0  0  0
M  END
>  <MODEL>
6

>  <REMARK>
 VINA RESULT:      -8.6      3.134      7.689
  Name = 
  4 active torsions:
  status: ('A' for Active; 'I' for Inactive)
    1  A    between atoms: C_3  and  C_9
    2  A    between atoms: C_11  and  C_19
    3  A    between atoms: C_12  and  C_22
    4  A    between atoms: N_15  and  C_35
                            x       y       z     vdW  Elec       q    Type
                         _______ _______ _______ _____ _____    ______ ____

>  <TORSDO>
F 4

$$$$
=
 OpenBabel11032420273D

 39 44  0  0  1  0  0  0  0  0999 V2000
  183.8880  179.0640  138.3410 O   0  0  0  0  0  0  0  0  0  0  0  0
  188.5100  177.9440  141.0210 C   0  0  0  0  0  3  0  0  0  0  0  0
  187.0680  177.7920  139.1550 C   0  0  0  0  0  0  0  0  0  0  0  0
  185.2850  177.3080  136.0590 C   0  0  0  0  0  1  0  0  0  0  0  0
  185.1270  179.3120  140.2510 N   0  0  0  0  0  0  0  0  0  0  0  0
  191.3150  176.7480  137.8300 C   0  0  2  0  0  3  0  0  0  0  0  0
  187.4210  176.7680  137.2830 N   0  0  0  0  0  0  0  0  0  0  0  0
  190.7900  176.7830  140.9510 C   0  0  2  0  0  3  0  0  0  0  0  0
  189.1340  176.6850  139.0020 C   0  0  0  0  0  0  0  0  0  0  0  0
  187.9310  177.0460  138.4780 N   0  0  0  0  0  0  0  0  0  0  0  0
  192.3020  176.7530  138.9730 C   0  0  0  0  0  0  0  0  0  0  0  0
  190.1010  175.8930  138.1740 C   0  0  0  0  0  2  0  0  0  0  0  0
  193.0850  177.5820  141.0610 O   0  0  0  0  0  1  0  0  0  0  0  0
  185.9590  178.0320  138.4320 C   0  0  0  0  0  0  0  0  0  0  0  0
  186.2700  179.0640  140.9790 C   0  0  0  0  0  3  0  0  0  0  0  0
  191.9560  177.4920  140.2380 C   0  0  2  0  0  3  0  0  0  0  0  0
  189.4520  177.1300  140.3240 C   0  0  0  0  0  0  0  0  0  0  0  0
  186.1950  177.3680  137.2330 C   0  0  0  0  0  0  0  0  0  0  0  0
  184.9430  178.8150  138.9820 C   0  0  0  0  0  0  0  0  0  0  0  0
  187.2910  178.2750  140.4190 C   0  0  0  0  0  0  0  0  0  0  0  0
  193.3240  176.0840  138.9160 O   0  0  0  0  0  0  0  0  0  0  0  0
  190.8210  177.0510  145.2620 C   0  0  0  0  0  0  0  0  0  0  0  0
  190.3320  178.0510  143.1030 C   0  0  0  0  0  3  0  0  0  0  0  0
  190.3410  178.1240  144.4990 C   0  0  0  0  0  3  0  0  0  0  0  0
  190.8060  176.9000  142.4550 C   0  0  0  0  0  0  0  0  0  0  0  0
  191.2790  175.8260  143.2140 C   0  0  0  0  0  3  0  0  0  0  0  0
  191.2880  175.9010  144.6090 C   0  0  0  0  0  3  0  0  0  0  0  0
  189.6590  177.5260  147.4420 N   0  0  0  0  0  1  0  0  0  0  0  0
  190.8300  177.1280  146.7340 C   0  0  0  0  0  0  0  0  0  0  0  0
  191.8720  176.8410  147.3790 O   0  0  0  0  0  0  0  0  0  0  0  0
  193.9360  175.7120  135.7150 C   0  0  0  0  0  2  0  0  0  0  0  0
  193.2540  176.7550  136.3730 O   0  0  0  0  0  0  0  0  0  0  0  0
  191.9010  176.3740  136.4610 C   0  0  1  0  0  3  0  0  0  0  0  0
  191.7600  174.9060  136.1280 C   0  0  0  0  0  2  0  0  0  0  0  0
  192.9510  174.6540  135.2690 C   0  0  2  0  0  3  0  0  0  0  0  0
  192.7850  172.1320  135.1660 C   0  0  0  0  0  0  0  0  0  0  0  0
  193.3910  170.8080  135.4610 C   0  0  0  0  0  1  0  0  0  0  0  0
  193.4790  173.3250  135.5380 N   0  0  0  0  0  2  0  0  0  0  0  0
  191.6640  172.1910  134.5940 O   0  0  0  0  0  0  0  0  0  0  0  0
  1 19  2  0  0  0  0
  3 20  1  0  0  0  0
  4 18  1  0  0  0  0
  5 15  2  0  0  0  0
  6 12  1  1  0  0  0
  6 11  1  0  0  0  0
  7 10  1  0  0  0  0
  8 25  1  1  0  0  0
  9 17  2  0  0  0  0
 10  9  1  0  0  0  0
 10  3  1  0  0  0  0
 11 16  1  0  0  0  0
 12  9  1  0  0  0  0
 14 19  1  0  0  0  0
 14  3  2  0  0  0  0
 16  8  1  0  0  0  0
 16 13  1  1  0  0  0
 17  8  1  0  0  0  0
 17  2  1  0  0  0  0
 18  7  2  0  0  0  0
 18 14  1  0  0  0  0
 19  5  1  0  0  0  0
 20 15  1  0  0  0  0
 20  2  2  0  0  0  0
 21 11  2  0  0  0  0
 22 29  1  0  0  0  0
 23 24  1  0  0  0  0
 24 22  2  0  0  0  0
 25 23  2  0  0  0  0
 25 26  1  0  0  0  0
 26 27  2  0  0  0  0
 27 22  1  0  0  0  0
 29 30  2  0  0  0  0
 29 28  1  0  0  0  0
 31 32  1  0  0  0  0
 32 33  1  0  0  0  0
 33 34  1  1  0  0  0
 33  6  1  0  0  0  0
 35 38  1  1  0  0  0
 35 31  1  0  0  0  0
 35 34  1  0  0  0  0
 36 37  1  0  0  0  0
 36 38  1  0  0  0  0
 39 36  2  0  0  0  0
M  END
>  <MODEL>
7

>  <REMARK>
 VINA RESULT:      -8.1      3.331      5.208
  Name = 
  4 active torsions:
  status: ('A' for Active; 'I' for Inactive)
    1  A    between atoms: C_3  and  C_9
    2  A    between atoms: C_11  and  C_19
    3  A    between atoms: C_12  and  C_22
    4  A    between atoms: N_15  and  C_35
                            x       y       z     vdW  Elec       q    Type
                         _______ _______ _______ _____ _____    ______ ____

>  <TORSDO>
F 4

$$$$
=
 OpenBabel11032420273D

 39 44  0  0  1  0  0  0  0  0999 V2000
  189.9450  176.9170  146.9850 O   0  0  0  0  0  0  0  0  0  0  0  0
  185.7900  177.8810  143.5780 C   0  0  0  0  0  3  0  0  0  0  0  0
  188.0840  177.8420  144.1430 C   0  0  0  0  0  0  0  0  0  0  0  0
  191.6740  177.9090  144.4810 C   0  0  0  0  0  1  0  0  0  0  0  0
  187.6820  176.9040  146.6410 N   0  0  0  0  0  0  0  0  0  0  0  0
  187.6850  177.9240  139.5910 C   0  0  2  0  0  3  0  0  0  0  0  0
  189.7690  178.3730  142.8960 N   0  0  0  0  0  0  0  0  0  0  0  0
  185.0800  178.6430  141.2400 C   0  0  2  0  0  3  0  0  0  0  0  0
  187.5290  178.5660  141.9780 C   0  0  0  0  0  0  0  0  0  0  0  0
  188.4440  178.2860  142.9460 N   0  0  0  0  0  0  0  0  0  0  0  0
  186.2490  178.0180  139.1330 C   0  0  0  0  0  0  0  0  0  0  0  0
  187.9890  179.0060  140.6220 C   0  0  0  0  0  2  0  0  0  0  0  0
  183.9310  177.5510  139.3950 O   0  0  0  0  0  1  0  0  0  0  0  0
  189.1570  177.6210  144.9250 C   0  0  0  0  0  0  0  0  0  0  0  0
  186.5910  177.1280  145.8280 C   0  0  0  0  0  3  0  0  0  0  0  0
  185.1480  177.6290  140.0820 C   0  0  2  0  0  3  0  0  0  0  0  0
  186.1450  178.3750  142.2870 C   0  0  0  0  0  0  0  0  0  0  0  0
  190.2340  177.9680  144.1140 C   0  0  0  0  0  0  0  0  0  0  0  0
  188.9700  177.1380  146.2200 C   0  0  0  0  0  0  0  0  0  0  0  0
  186.7870  177.6150  144.5240 C   0  0  0  0  0  0  0  0  0  0  0  0
  185.9740  178.4970  138.0410 O   0  0  0  0  0  0  0  0  0  0  0  0
  181.1160  179.2820  142.8310 C   0  0  0  0  0  0  0  0  0  0  0  0
  183.5000  179.0020  143.1950 C   0  0  0  0  0  3  0  0  0  0  0  0
  182.2140  179.2140  143.6990 C   0  0  0  0  0  3  0  0  0  0  0  0
  183.7010  178.8520  141.8140 C   0  0  0  0  0  0  0  0  0  0  0  0
  182.6080  178.9260  140.9460 C   0  0  0  0  0  3  0  0  0  0  0  0
  181.3220  179.1380  141.4510 C   0  0  0  0  0  3  0  0  0  0  0  0
  179.2140  178.6280  144.3430 N   0  0  0  0  0  1  0  0  0  0  0  0
  179.7590  179.5060  143.3620 C   0  0  0  0  0  0  0  0  0  0  0  0
  179.0700  180.4790  142.9550 O   0  0  0  0  0  0  0  0  0  0  0  0
  190.8420  177.1040  138.2600 C   0  0  0  0  0  2  0  0  0  0  0  0
  190.0340  177.9950  138.9940 O   0  0  0  0  0  0  0  0  0  0  0  0
  188.7310  177.9020  138.4680 C   0  0  1  0  0  3  0  0  0  0  0  0
  188.6270  176.6880  137.5730 C   0  0  0  0  0  2  0  0  0  0  0  0
  190.0370  176.4840  137.1390 C   0  0  2  0  0  3  0  0  0  0  0  0
  191.2850  174.5280  136.1310 C   0  0  0  0  0  0  0  0  0  0  0  0
  191.5300  173.0640  136.0940 C   0  0  0  0  0  1  0  0  0  0  0  0
  190.3190  175.0600  137.0400 N   0  0  0  0  0  2  0  0  0  0  0  0
  191.9290  175.2890  135.3590 O   0  0  0  0  0  0  0  0  0  0  0  0
  2 20  2  0  0  0  0
  3 20  1  0  0  0  0
  3 14  2  0  0  0  0
  6 12  1  1  0  0  0
  7 10  1  0  0  0  0
  7 18  2  0  0  0  0
  8 25  1  1  0  0  0
  8 17  1  0  0  0  0
  9 17  2  0  0  0  0
  9 10  1  0  0  0  0
 10  3  1  0  0  0  0
 11  6  1  0  0  0  0
 11 16  1  0  0  0  0
 12  9  1  0  0  0  0
 14 19  1  0  0  0  0
 15  5  2  0  0  0  0
 16 13  1  6  0  0  0
 16  8  1  0  0  0  0
 17  2  1  0  0  0  0
 18  4  1  0  0  0  0
 18 14  1  0  0  0  0
 19  5  1  0  0  0  0
 19  1  2  0  0  0  0
 20 15  1  0  0  0  0
 21 11  2  0  0  0  0
 22 29  1  0  0  0  0
 22 24  1  0  0  0  0
 23 24  2  0  0  0  0
 25 23  1  0  0  0  0
 26 27  1  0  0  0  0
 26 25  2  0  0  0  0
 27 22  2  0  0  0  0
 29 28  1  0  0  0  0
 30 29  2  0  0  0  0
 31 32  1  0  0  0  0
 33 34  1  1  0  0  0
 33 32  1  0  0  0  0
 33  6  1  0  0  0  0
 35 38  1  1  0  0  0
 35 34  1  0  0  0  0
 35 31  1  0  0  0  0
 36 38  1  0  0  0  0
 37 36  1  0  0  0  0
 39 36  2  0  0  0  0
M  END
>  <MODEL>
8

>  <REMARK>
 VINA RESULT:      -7.9      2.724      7.253
  Name = 
  4 active torsions:
  status: ('A' for Active; 'I' for Inactive)
    1  A    between atoms: C_3  and  C_9
    2  A    between atoms: C_11  and  C_19
    3  A    between atoms: C_12  and  C_22
    4  A    between atoms: N_15  and  C_35
                            x       y       z     vdW  Elec       q    Type
                         _______ _______ _______ _____ _____    ______ ____

>  <TORSDO>
F 4

$$$$
=
 OpenBabel11032420273D

 39 44  0  0  1  0  0  0  0  0999 V2000
  188.9360  177.6710  144.9570 O   0  0  0  0  0  0  0  0  0  0  0  0
  184.9950  178.4790  141.2660 C   0  0  0  0  0  3  0  0  0  0  0  0
  187.2420  178.1200  141.9030 C   0  0  0  0  0  0  0  0  0  0  0  0
  190.7720  177.5240  142.3390 C   0  0  0  0  0  1  0  0  0  0  0  0
  186.7130  178.0370  144.5470 N   0  0  0  0  0  0  0  0  0  0  0  0
  186.7550  176.9870  137.5030 C   0  0  2  0  0  3  0  0  0  0  0  0
  188.9700  177.9080  140.6190 N   0  0  0  0  0  0  0  0  0  0  0  0
  184.4040  178.6760  138.7830 C   0  0  2  0  0  3  0  0  0  0  0  0
  186.7990  178.2990  139.6030 C   0  0  0  0  0  0  0  0  0  0  0  0
  187.6580  178.1190  140.6430 N   0  0  0  0  0  0  0  0  0  0  0  0
  185.3610  177.2460  136.9840 C   0  0  0  0  0  0  0  0  0  0  0  0
  187.3080  178.2280  138.1950 C   0  0  0  0  0  2  0  0  0  0  0  0
  183.0030  177.3710  137.2820 O   0  0  0  0  0  1  0  0  0  0  0  0
  188.2640  177.9100  142.7540 C   0  0  0  0  0  0  0  0  0  0  0  0
  185.6750  178.2460  143.6650 C   0  0  0  0  0  3  0  0  0  0  0  0
  184.2260  177.3840  137.9630 C   0  0  2  0  0  3  0  0  0  0  0  0
  185.4140  178.4980  139.9020 C   0  0  0  0  0  0  0  0  0  0  0  0
  189.3680  177.7770  141.9180 C   0  0  0  0  0  0  0  0  0  0  0  0
  188.0110  177.8650  144.1250 C   0  0  0  0  0  0  0  0  0  0  0  0
  185.9360  178.2890  142.2850 C   0  0  0  0  0  0  0  0  0  0  0  0
  185.1660  177.4420  135.7920 O   0  0  0  0  0  0  0  0  0  0  0  0
  180.7450  180.5960  140.0380 C   0  0  0  0  0  0  0  0  0  0  0  0
  182.3060  178.7440  140.2120 C   0  0  0  0  0  3  0  0  0  0  0  0
  181.1270  179.3770  140.6150 C   0  0  0  0  0  3  0  0  0  0  0  0
  183.1160  179.3250  139.2240 C   0  0  0  0  0  0  0  0  0  0  0  0
  182.7400  180.5430  138.6520 C   0  0  0  0  0  3  0  0  0  0  0  0
  181.5600  181.1750  139.0550 C   0  0  0  0  0  3  0  0  0  0  0  0
  178.9310  182.3010  139.6700 N   0  0  0  0  0  1  0  0  0  0  0  0
  179.5020  181.2640  140.4640 C   0  0  0  0  0  0  0  0  0  0  0  0
  178.9310  180.9230  141.5340 O   0  0  0  0  0  0  0  0  0  0  0  0
  189.3630  174.8420  136.4990 C   0  0  0  0  0  2  0  0  0  0  0  0
  188.9550  176.0550  137.0860 O   0  0  0  0  0  0  0  0  0  0  0  0
  187.7440  176.4270  136.4710 C   0  0  1  0  0  3  0  0  0  0  0  0
  187.1940  175.2610  135.6810 C   0  0  0  0  0  2  0  0  0  0  0  0
  188.4180  174.4680  135.3780 C   0  0  2  0  0  3  0  0  0  0  0  0
  189.0840  172.0380  135.1640 C   0  0  0  0  0  0  0  0  0  0  0  0
  188.6990  170.6050  135.2450 C   0  0  0  0  0  1  0  0  0  0  0  0
  188.1090  173.0480  135.4280 N   0  0  0  0  0  2  0  0  0  0  0  0
  190.2670  172.3490  134.8590 O   0  0  0  0  0  0  0  0  0  0  0  0
  2 20  2  0  0  0  0
  3 20  1  0  0  0  0
  3 14  2  0  0  0  0
  6 12  1  6  0  0  0
  7 10  1  0  0  0  0
  7 18  2  0  0  0  0
  8 25  1  1  0  0  0
  8 17  1  0  0  0  0
  9 17  2  0  0  0  0
  9 10  1  0  0  0  0
 10  3  1  0  0  0  0
 11  6  1  0  0  0  0
 11 16  1  0  0  0  0
 12  9  1  0  0  0  0
 14 19  1  0  0  0  0
 15  5  2  0  0  0  0
 16 13  1  6  0  0  0
 16  8  1  0  0  0  0
 17  2  1  0  0  0  0
 18  4  1  0  0  0  0
 18 14  1  0  0  0  0
 19  5  1  0  0  0  0
 19  1  2  0  0  0  0
 20 15  1  0  0  0  0
 21 11  2  0  0  0  0
 22 29  1  0  0  0  0
 22 24  1  0  0  0  0
 23 24  2  0  0  0  0
 25 23  1  0  0  0  0
 26 27  1  0  0  0  0
 26 25  2  0  0  0  0
 27 22  2  0  0  0  0
 28 29  1  0  0  0  0
 29 30  2  0  0  0  0
 31 32  1  0  0  0  0
 33 34  1  1  0  0  0
 33 32  1  0  0  0  0
 33  6  1  0  0  0  0
 35 38  1  1  0  0  0
 35 34  1  0  0  0  0
 35 31  1  0  0  0  0
 36 37  1  0  0  0  0
 36 38  1  0  0  0  0
 39 36  2  0  0  0  0
M  END
>  <MODEL>
9

>  <REMARK>
 VINA RESULT:      -7.7      3.421      8.330
  Name = 
  4 active torsions:
  status: ('A' for Active; 'I' for Inactive)
    1  A    between atoms: C_3  and  C_9
    2  A    between atoms: C_11  and  C_19
    3  A    between atoms: C_12  and  C_22
    4  A    between atoms: N_15  and  C_35
                            x       y       z     vdW  Elec       q    Type
                         _______ _______ _______ _____ _____    ______ ____

>  <TORSDO>
F 4

$$$$
