=
 OpenBabel11042411453D

 25 28  0  0  1  0  0  0  0  0999 V2000
  189.4000  178.3020  148.0740 C   0  0  0  0  0  3  0  0  0  0  0  0
  186.5280  177.5090  144.3790 N   0  0  0  0  0  0  0  0  0  0  0  0
  191.9390  179.1400  144.7170 C   0  0  0  0  0  1  0  0  0  0  0  0
  189.4750  177.7040  146.7440 N   0  0  0  0  0  0  0  0  0  0  0  0
  188.4610  177.2220  141.3600 O   0  0  0  0  0  0  0  0  0  0  0  0
  188.0160  177.2610  142.6910 C   0  0  0  0  0  0  0  0  0  0  0  0
  189.8200  176.9980  140.9660 C   0  0  2  0  0  3  0  0  0  0  0  0
  190.1000  177.8990  143.6650 N   0  0  0  0  0  0  0  0  0  0  0  0
  187.9390  178.5740  148.2920 C   0  0  0  0  0  3  0  0  0  0  0  0
  190.0820  175.6700  145.7470 O   0  0  0  0  0  0  0  0  0  0  0  0
  187.8590  177.5860  144.8830 C   0  0  2  0  0  3  0  0  0  0  0  0
  188.1670  177.7930  146.1770 C   0  0  0  0  0  0  0  0  0  0  0  0
  188.7750  177.4050  143.7650 C   0  0  0  0  0  0  0  0  0  0  0  0
  191.2710  177.9970  142.7530 C   0  0  2  0  0  3  0  0  0  0  0  0
  190.9920  179.0910  143.5380 C   0  0  2  0  0  3  0  0  0  0  0  0
  190.4060  176.6390  146.4850 C   0  0  0  0  0  0  0  0  0  0  0  0
  186.6130  177.3030  143.1020 C   0  0  0  0  0  3  0  0  0  0  0  0
  187.2540  178.2720  147.2030 C   0  0  0  0  0  0  0  0  0  0  0  0
  190.7250  178.1790  141.3440 C   0  0  0  0  0  2  0  0  0  0  0  0
  191.7410  176.6270  147.1560 C   0  0  0  0  0  2  0  0  0  0  0  0
  192.4340  175.4640  146.8210 O   0  0  0  0  0  1  0  0  0  0  0  0
  190.9090  175.8280  139.1300 N   0  0  0  0  0  1  0  0  0  0  0  0
  189.8660  176.7820  139.4650 C   0  0  0  0  0  2  0  0  0  0  0  0
  184.6850  178.5940  146.9940 N   0  0  0  0  0  0  0  0  0  0  0  0
  185.8300  178.4500  147.0880 C   0  0  0  0  0  0  0  0  0  0  0  0
  1  9  2  0  0  0  0
  2 11  1  0  0  0  0
  4  1  1  0  0  0  0
  5  6  1  0  0  0  0
  6 17  1  0  0  0  0
  6 13  2  0  0  0  0
  7 23  1  6  0  0  0
  7 19  1  0  0  0  0
  7  5  1  0  0  0  0
  8 13  1  0  0  0  0
 10 16  2  0  0  0  0
 11 12  1  6  0  0  0
 12  4  1  0  0  0  0
 12 18  2  0  0  0  0
 13 11  1  0  0  0  0
 14 19  1  6  0  0  0
 14 15  1  0  0  0  0
 14  8  1  0  0  0  0
 15  8  1  0  0  0  0
 15  3  1  1  0  0  0
 16  4  1  0  0  0  0
 16 20  1  0  0  0  0
 17  2  2  0  0  0  0
 18  9  1  0  0  0  0
 21 20  1  0  0  0  0
 22 23  1  0  0  0  0
 24 25  3  0  0  0  0
 25 18  1  0  0  0  0
M  END
>  <MODEL>
1

>  <REMARK>
 VINA RESULT:      -6.6      0.000      0.000
  Name = 
  3 active torsions:
  status: ('A' for Active; 'I' for Inactive)
    1  A    between atoms: C_2  and  C_21
    2  A    between atoms: C_9  and  C_11
    3  A    between atoms: C_18  and  C_23
                            x       y       z     vdW  Elec       q    Type
                         _______ _______ _______ _____ _____    ______ ____

>  <TORSDO>
F 3

$$$$
=
 OpenBabel11042411453D

 25 28  0  0  1  0  0  0  0  0999 V2000
  190.4320  177.3730  144.9760 C   0  0  0  0  0  3  0  0  0  0  0  0
  185.8870  178.0560  146.1620 N   0  0  0  0  0  0  0  0  0  0  0  0
  188.7430  178.9360  141.3530 C   0  0  0  0  0  1  0  0  0  0  0  0
  189.1110  177.2090  144.3740 N   0  0  0  0  0  0  0  0  0  0  0  0
  183.8990  178.5130  143.1990 O   0  0  0  0  0  0  0  0  0  0  0  0
  184.9010  178.1860  144.1280 C   0  0  0  0  0  0  0  0  0  0  0  0
  183.9960  178.2820  141.7880 C   0  0  2  0  0  3  0  0  0  0  0  0
  186.7370  178.2750  142.6050 N   0  0  0  0  0  0  0  0  0  0  0  0
  190.1590  177.7140  146.4130 C   0  0  0  0  0  3  0  0  0  0  0  0
  187.8160  175.5290  143.3740 O   0  0  0  0  0  0  0  0  0  0  0  0
  186.8500  177.8370  145.1340 C   0  0  0  0  0  0  0  0  0  0  0  0
  188.1560  177.6030  145.3600 C   0  0  0  0  0  0  0  0  0  0  0  0
  186.1650  177.9140  143.8510 C   0  0  0  0  0  0  0  0  0  0  0  0
  186.4170  178.5270  141.1740 C   0  0  2  0  0  3  0  0  0  0  0  0
  187.3470  179.3500  141.7650 C   0  0  2  0  0  3  0  0  0  0  0  0
  188.8930  176.1850  143.3880 C   0  0  0  0  0  0  0  0  0  0  0  0
  184.7440  178.2450  145.5810 C   0  0  0  0  0  2  0  0  0  0  0  0
  188.8580  177.8340  146.6130 C   0  0  0  0  0  0  0  0  0  0  0  0
  185.0470  179.1890  141.1330 C   0  0  0  0  0  2  0  0  0  0  0  0
  189.9730  175.8300  142.4200 C   0  0  0  0  0  2  0  0  0  0  0  0
  190.8200  174.8720  142.9790 O   0  0  0  0  0  1  0  0  0  0  0  0
  181.6780  178.9150  142.1760 N   0  0  0  0  0  1  0  0  0  0  0  0
  182.6400  178.5340  141.1560 C   0  0  0  0  0  2  0  0  0  0  0  0
  187.8160  178.4690  148.9050 N   0  0  0  0  0  0  0  0  0  0  0  0
  188.2800  178.1860  147.8830 C   0  0  0  0  0  0  0  0  0  0  0  0
  1  9  2  0  0  0  0
  4  1  1  0  0  0  0
  4 12  1  0  0  0  0
  5  6  1  0  0  0  0
  6 17  1  0  0  0  0
  7 23  1  6  0  0  0
  7  5  1  0  0  0  0
  8 13  1  0  0  0  0
  9 18  1  0  0  0  0
 10 16  2  0  0  0  0
 11 12  1  0  0  0  0
 11  2  2  0  0  0  0
 12 18  2  0  0  0  0
 13  6  2  0  0  0  0
 13 11  1  0  0  0  0
 14 19  1  1  0  0  0
 14 15  1  0  0  0  0
 14  8  1  0  0  0  0
 15  3  1  6  0  0  0
 15  8  1  0  0  0  0
 16  4  1  0  0  0  0
 17  2  1  0  0  0  0
 18 25  1  0  0  0  0
 19  7  1  0  0  0  0
 20 21  1  0  0  0  0
 20 16  1  0  0  0  0
 23 22  1  0  0  0  0
 25 24  3  0  0  0  0
M  END
>  <MODEL>
2

>  <REMARK>
 VINA RESULT:      -6.5      2.574      4.415
  Name = 
  3 active torsions:
  status: ('A' for Active; 'I' for Inactive)
    1  A    between atoms: C_2  and  C_21
    2  A    between atoms: C_9  and  C_11
    3  A    between atoms: C_18  and  C_23
                            x       y       z     vdW  Elec       q    Type
                         _______ _______ _______ _____ _____    ______ ____

>  <TORSDO>
F 3

$$$$
=
 OpenBabel11042411453D

 25 28  0  0  1  0  0  0  0  0999 V2000
  180.1500  178.3210  142.4910 C   0  0  0  0  0  3  0  0  0  0  0  0
  184.8130  179.2030  142.3550 N   0  0  0  0  0  0  0  0  0  0  0  0
  181.3900  176.2630  138.9340 C   0  0  0  0  0  1  0  0  0  0  0  0
  181.1720  178.6370  141.4950 N   0  0  0  0  0  0  0  0  0  0  0  0
  186.1140  178.4320  139.0910 O   0  0  0  0  0  0  0  0  0  0  0  0
  185.2990  178.7460  140.1910 C   0  0  0  0  0  0  0  0  0  0  0  0
  185.6300  178.2110  137.7610 C   0  0  2  0  0  3  0  0  0  0  0  0
  183.2980  177.7500  139.3510 N   0  0  0  0  0  0  0  0  0  0  0  0
  180.8370  178.4940  143.8150 C   0  0  0  0  0  3  0  0  0  0  0  0
  181.5840  180.2290  139.8230 O   0  0  0  0  0  0  0  0  0  0  0  0
  183.6240  178.8590  141.6460 C   0  0  1  0  0  3  0  0  0  0  0  0
  182.4000  178.8050  142.2040 C   0  0  0  0  0  0  0  0  0  0  0  0
  183.9870  178.5920  140.2610 C   0  0  0  0  0  0  0  0  0  0  0  0
  183.3500  177.1850  137.9760 C   0  0  2  0  0  3  0  0  0  0  0  0
  182.8990  176.3590  138.9790 C   0  0  2  0  0  3  0  0  0  0  0  0
  180.8140  179.3510  140.2990 C   0  0  0  0  0  0  0  0  0  0  0  0
  185.7910  179.1530  141.5060 C   0  0  0  0  0  3  0  0  0  0  0  0
  182.1160  178.7750  143.6300 C   0  0  0  0  0  0  0  0  0  0  0  0
  184.8130  176.9150  137.6590 C   0  0  0  0  0  2  0  0  0  0  0  0
  179.4870  179.1210  139.6540 C   0  0  0  0  0  2  0  0  0  0  0  0
  179.5910  179.2900  138.2730 O   0  0  0  0  0  1  0  0  0  0  0  0
  187.8570  179.0510  137.2550 N   0  0  0  0  0  1  0  0  0  0  0  0
  186.8130  178.1430  136.8140 C   0  0  0  0  0  2  0  0  0  0  0  0
  183.7990  179.1230  145.5770 N   0  0  0  0  0  0  0  0  0  0  0  0
  183.0490  178.9680  144.7090 C   0  0  0  0  0  0  0  0  0  0  0  0
  1  9  2  0  0  0  0
  4 12  1  0  0  0  0
  4  1  1  0  0  0  0
  5  6  1  0  0  0  0
  6 13  2  0  0  0  0
  6 17  1  0  0  0  0
  7 23  1  6  0  0  0
  7  5  1  0  0  0  0
  8 13  1  0  0  0  0
 10 16  2  0  0  0  0
 11 12  1  6  0  0  0
 11  2  1  0  0  0  0
 12 18  2  0  0  0  0
 13 11  1  0  0  0  0
 14 19  1  1  0  0  0
 14 15  1  0  0  0  0
 14  8  1  0  0  0  0
 15  3  1  6  0  0  0
 15  8  1  0  0  0  0
 16  4  1  0  0  0  0
 17  2  2  0  0  0  0
 18  9  1  0  0  0  0
 18 25  1  0  0  0  0
 19  7  1  0  0  0  0
 20 16  1  0  0  0  0
 21 20  1  0  0  0  0
 23 22  1  0  0  0  0
 25 24  3  0  0  0  0
M  END
>  <MODEL>
3

>  <REMARK>
 VINA RESULT:      -6.4      5.666      8.371
  Name = 
  3 active torsions:
  status: ('A' for Active; 'I' for Inactive)
    1  A    between atoms: C_2  and  C_21
    2  A    between atoms: C_9  and  C_11
    3  A    between atoms: C_18  and  C_23
                            x       y       z     vdW  Elec       q    Type
                         _______ _______ _______ _____ _____    ______ ____

>  <TORSDO>
F 3

$$$$
=
 OpenBabel11042411453D

 25 28  0  0  1  0  0  0  0  0999 V2000
  182.2690  178.7300  141.1780 C   0  0  0  0  0  3  0  0  0  0  0  0
  187.0090  178.5800  141.3910 N   0  0  0  0  0  0  0  0  0  0  0  0
  183.3140  176.8320  137.4730 C   0  0  0  0  0  1  0  0  0  0  0  0
  183.4070  178.9160  140.2810 N   0  0  0  0  0  0  0  0  0  0  0  0
  188.3640  177.8880  138.1310 O   0  0  0  0  0  0  0  0  0  0  0  0
  187.5520  178.2550  139.2170 C   0  0  0  0  0  0  0  0  0  0  0  0
  187.9470  177.9170  136.7610 C   0  0  2  0  0  3  0  0  0  0  0  0
  185.4560  177.8140  138.1620 N   0  0  0  0  0  0  0  0  0  0  0  0
  182.8740  178.6100  142.5470 C   0  0  0  0  0  3  0  0  0  0  0  0
  184.2740  180.5440  138.8320 O   0  0  0  0  0  0  0  0  0  0  0  0
  185.8330  178.5810  140.5850 C   0  0  0  0  0  0  0  0  0  0  0  0
  184.5860  178.7380  141.0680 C   0  0  0  0  0  0  0  0  0  0  0  0
  186.2350  178.3860  139.1990 C   0  0  0  0  0  0  0  0  0  0  0  0
  185.4920  177.3970  136.7340 C   0  0  2  0  0  3  0  0  0  0  0  0
  184.8020  176.5900  137.6080 C   0  0  2  0  0  3  0  0  0  0  0  0
  183.3010  179.8110  139.1610 C   0  0  0  0  0  0  0  0  0  0  0  0
  188.0170  178.4070  140.5950 C   0  0  0  0  0  2  0  0  0  0  0  0
  184.1930  178.6220  142.4640 C   0  0  0  0  0  0  0  0  0  0  0  0
  186.8850  176.8480  136.4650 C   0  0  0  0  0  2  0  0  0  0  0  0
  182.0090  179.9450  138.4240 C   0  0  0  0  0  2  0  0  0  0  0  0
  181.3860  181.1460  138.7650 O   0  0  0  0  0  1  0  0  0  0  0  0
  189.1550  176.3310  135.3650 N   0  0  0  0  0  1  0  0  0  0  0  0
  189.1580  177.6910  135.8750 C   0  0  0  0  0  2  0  0  0  0  0  0
  185.7580  178.3900  144.5240 N   0  0  0  0  0  0  0  0  0  0  0  0
  185.0600  178.4940  143.6050 C   0  0  0  0  0  0  0  0  0  0  0  0
  1  9  2  0  0  0  0
  4 12  1  0  0  0  0
  4  1  1  0  0  0  0
  5  6  1  0  0  0  0
  6 17  1  0  0  0  0
  7 23  1  6  0  0  0
  7  5  1  0  0  0  0
  8 13  1  0  0  0  0
 10 16  2  0  0  0  0
 11 12  1  0  0  0  0
 11  2  2  0  0  0  0
 12 18  2  0  0  0  0
 13  6  2  0  0  0  0
 13 11  1  0  0  0  0
 14 19  1  1  0  0  0
 14 15  1  0  0  0  0
 14  8  1  0  0  0  0
 15  3  1  6  0  0  0
 15  8  1  0  0  0  0
 16  4  1  0  0  0  0
 17  2  1  0  0  0  0
 18  9  1  0  0  0  0
 18 25  1  0  0  0  0
 19  7  1  0  0  0  0
 20 21  1  0  0  0  0
 20 16  1  0  0  0  0
 22 23  1  0  0  0  0
 25 24  3  0  0  0  0
M  END
>  <MODEL>
4

>  <REMARK>
 VINA RESULT:      -6.0      4.778      7.677
  Name = 
  3 active torsions:
  status: ('A' for Active; 'I' for Inactive)
    1  A    between atoms: C_2  and  C_21
    2  A    between atoms: C_9  and  C_11
    3  A    between atoms: C_18  and  C_23
                            x       y       z     vdW  Elec       q    Type
                         _______ _______ _______ _____ _____    ______ ____

>  <TORSDO>
F 3

$$$$
=
 OpenBabel11042411453D

 25 28  0  0  1  0  0  0  0  0999 V2000
  190.8290  175.7430  134.8030 C   0  0  0  0  0  3  0  0  0  0  0  0
  193.3950  176.6920  138.6810 N   0  0  0  0  0  0  0  0  0  0  0  0
  188.0260  177.8320  137.2930 C   0  0  0  0  0  1  0  0  0  0  0  0
  190.6480  175.7620  136.2520 N   0  0  0  0  0  0  0  0  0  0  0  0
  191.2250  177.6410  141.3890 O   0  0  0  0  0  0  0  0  0  0  0  0
  191.7760  177.1280  140.2020 C   0  0  0  0  0  0  0  0  0  0  0  0
  189.8390  177.5570  141.7400 C   0  0  2  0  0  3  0  0  0  0  0  0
  189.7760  177.2200  138.9020 N   0  0  0  0  0  0  0  0  0  0  0  0
  192.3020  175.9480  134.5960 C   0  0  0  0  0  3  0  0  0  0  0  0
  189.9660  174.3210  137.9720 O   0  0  0  0  0  0  0  0  0  0  0  0
  192.1080  176.5010  138.0980 C   0  0  0  0  0  0  0  0  0  0  0  0
  191.9060  176.1290  136.8200 C   0  0  0  0  0  0  0  0  0  0  0  0
  191.1060  176.7770  139.1180 C   0  0  0  0  0  0  0  0  0  0  0  0
  188.5350  177.6530  139.5980 C   0  0  2  0  0  3  0  0  0  0  0  0
  188.8750  178.3210  138.4460 C   0  0  2  0  0  3  0  0  0  0  0  0
  189.7000  174.8740  136.8710 C   0  0  0  0  0  0  0  0  0  0  0  0
  193.2070  177.0430  139.9150 C   0  0  0  0  0  2  0  0  0  0  0  0
  192.8980  176.1600  135.7570 C   0  0  0  0  0  0  0  0  0  0  0  0
  188.9660  178.4330  140.8320 C   0  0  0  0  0  2  0  0  0  0  0  0
  188.4240  174.5320  136.1740 C   0  0  0  0  0  2  0  0  0  0  0  0
  187.4110  174.3180  137.1090 O   0  0  0  0  0  1  0  0  0  0  0  0
  190.9660  178.3280  143.7550 N   0  0  0  0  0  1  0  0  0  0  0  0
  189.6730  177.9950  143.1840 C   0  0  0  0  0  2  0  0  0  0  0  0
  195.4410  176.6310  135.9930 N   0  0  0  0  0  0  0  0  0  0  0  0
  194.3070  176.4220  135.8880 C   0  0  0  0  0  0  0  0  0  0  0  0
  1  4  1  0  0  0  0
  2 17  1  0  0  0  0
  4 12  1  0  0  0  0
  4 16  1  0  0  0  0
  5  7  1  0  0  0  0
  6  5  1  0  0  0  0
  7 23  1  1  0  0  0
  8 13  1  0  0  0  0
  8 14  1  0  0  0  0
  9  1  2  0  0  0  0
  9 18  1  0  0  0  0
 11  2  2  0  0  0  0
 11 13  1  0  0  0  0
 12 11  1  0  0  0  0
 13  6  2  0  0  0  0
 14 19  1  1  0  0  0
 15  3  1  6  0  0  0
 15  8  1  0  0  0  0
 15 14  1  0  0  0  0
 16 10  2  0  0  0  0
 17  6  1  0  0  0  0
 18 25  1  0  0  0  0
 18 12  2  0  0  0  0
 19  7  1  0  0  0  0
 20 16  1  0  0  0  0
 20 21  1  0  0  0  0
 23 22  1  0  0  0  0
 25 24  3  0  0  0  0
M  END
>  <MODEL>
5

>  <REMARK>
 VINA RESULT:      -5.8      3.721      9.140
  Name = 
  3 active torsions:
  status: ('A' for Active; 'I' for Inactive)
    1  A    between atoms: C_2  and  C_21
    2  A    between atoms: C_9  and  C_11
    3  A    between atoms: C_18  and  C_23
                            x       y       z     vdW  Elec       q    Type
                         _______ _______ _______ _____ _____    ______ ____

>  <TORSDO>
F 3

$$$$
=
 OpenBabel11042411453D

 25 28  0  0  1  0  0  0  0  0999 V2000
  190.6590  176.7800  139.7190 C   0  0  0  0  0  3  0  0  0  0  0  0
  186.3210  178.7010  139.8620 N   0  0  0  0  0  0  0  0  0  0  0  0
  189.2500  175.6220  143.6040 C   0  0  0  0  0  1  0  0  0  0  0  0
  189.8020  177.4660  140.6820 N   0  0  0  0  0  0  0  0  0  0  0  0
  185.1110  178.7500  143.2500 O   0  0  0  0  0  0  0  0  0  0  0  0
  185.8970  178.7000  142.0870 C   0  0  0  0  0  0  0  0  0  0  0  0
  185.6260  178.6310  144.5810 C   0  0  2  0  0  3  0  0  0  0  0  0
  187.6870  177.4190  143.0120 N   0  0  0  0  0  0  0  0  0  0  0  0
  189.9370  176.9000  138.4080 C   0  0  0  0  0  3  0  0  0  0  0  0
  189.8610  179.3460  142.0840 O   0  0  0  0  0  0  0  0  0  0  0  0
  187.4520  178.2100  140.5780 C   0  0  0  0  0  0  0  0  0  0  0  0
  188.5940  177.7970  139.9960 C   0  0  0  0  0  0  0  0  0  0  0  0
  187.1360  178.2460  142.0000 C   0  0  0  0  0  0  0  0  0  0  0  0
  187.6080  177.0960  144.4620 C   0  0  2  0  0  3  0  0  0  0  0  0
  187.7990  176.0480  143.5940 C   0  0  2  0  0  3  0  0  0  0  0  0
  190.3870  178.2550  141.7320 C   0  0  0  0  0  0  0  0  0  0  0  0
  185.4150  179.0030  140.7390 C   0  0  0  0  0  2  0  0  0  0  0  0
  188.7660  177.4870  138.5860 C   0  0  0  0  0  0  0  0  0  0  0  0
  186.1460  177.2150  144.8670 C   0  0  0  0  0  2  0  0  0  0  0  0
  191.6740  177.8320  142.3630 C   0  0  0  0  0  2  0  0  0  0  0  0
  191.6900  178.1980  143.7090 O   0  0  0  0  0  1  0  0  0  0  0  0
  184.9330  178.6280  146.9150 N   0  0  0  0  0  1  0  0  0  0  0  0
  184.5240  178.9770  145.5660 C   0  0  0  0  0  2  0  0  0  0  0  0
  187.0680  177.9040  136.6660 N   0  0  0  0  0  0  0  0  0  0  0  0
  187.8250  177.7180  137.5220 C   0  0  0  0  0  0  0  0  0  0  0  0
  1  4  1  0  0  0  0
  2 11  2  0  0  0  0
  2 17  1  0  0  0  0
  4 16  1  0  0  0  0
  5  7  1  0  0  0  0
  6  5  1  0  0  0  0
  7 19  1  0  0  0  0
  7 23  1  1  0  0  0
  8 15  1  0  0  0  0
  8 14  1  0  0  0  0
  9 18  1  0  0  0  0
  9  1  2  0  0  0  0
 11 13  1  0  0  0  0
 12 11  1  0  0  0  0
 12  4  1  0  0  0  0
 13  6  2  0  0  0  0
 13  8  1  0  0  0  0
 14 19  1  6  0  0  0
 15  3  1  1  0  0  0
 15 14  1  0  0  0  0
 16 10  2  0  0  0  0
 16 20  1  0  0  0  0
 17  6  1  0  0  0  0
 18 12  2  0  0  0  0
 20 21  1  0  0  0  0
 23 22  1  0  0  0  0
 24 25  3  0  0  0  0
 25 18  1  0  0  0  0
M  END
>  <MODEL>
6

>  <REMARK>
 VINA RESULT:      -5.8      2.634      6.392
  Name = 
  3 active torsions:
  status: ('A' for Active; 'I' for Inactive)
    1  A    between atoms: C_2  and  C_21
    2  A    between atoms: C_9  and  C_11
    3  A    between atoms: C_18  and  C_23
                            x       y       z     vdW  Elec       q    Type
                         _______ _______ _______ _____ _____    ______ ____

>  <TORSDO>
F 3

$$$$
=
 OpenBabel11042411453D

 25 28  0  0  1  0  0  0  0  0999 V2000
  187.0010  178.0860  139.8320 C   0  0  0  0  0  3  0  0  0  0  0  0
  191.6600  177.6070  140.5990 N   0  0  0  0  0  0  0  0  0  0  0  0
  188.1290  175.1320  136.9310 C   0  0  0  0  0  1  0  0  0  0  0  0
  188.2220  177.9140  139.0500 N   0  0  0  0  0  0  0  0  0  0  0  0
  193.1930  175.9040  137.8260 O   0  0  0  0  0  0  0  0  0  0  0  0
  192.3410  176.6330  138.6720 C   0  0  0  0  0  0  0  0  0  0  0  0
  192.8960  175.5770  136.4630 C   0  0  2  0  0  3  0  0  0  0  0  0
  190.3030  176.0860  137.5550 N   0  0  0  0  0  0  0  0  0  0  0  0
  187.4730  178.3110  141.2400 C   0  0  0  0  0  3  0  0  0  0  0  0
  189.3810  178.9840  137.3140 O   0  0  0  0  0  0  0  0  0  0  0  0
  190.5620  177.4770  139.7000 C   0  0  0  0  0  0  0  0  0  0  0  0
  189.3050  177.8690  139.9810 C   0  0  0  0  0  0  0  0  0  0  0  0
  191.0530  176.8620  138.4740 C   0  0  0  0  0  0  0  0  0  0  0  0
  190.4090  175.2790  136.3100 C   0  0  2  0  0  3  0  0  0  0  0  0
  189.5640  174.8150  137.2900 C   0  0  2  0  0  3  0  0  0  0  0  0
  188.3090  178.4590  137.7220 C   0  0  0  0  0  0  0  0  0  0  0  0
  192.7050  177.1300  139.9980 C   0  0  0  0  0  2  0  0  0  0  0  0
  188.7880  178.1890  141.3020 C   0  0  0  0  0  0  0  0  0  0  0  0
  191.7500  174.5610  136.3570 C   0  0  0  0  0  2  0  0  0  0  0  0
  187.1050  178.4850  136.8390 C   0  0  0  0  0  2  0  0  0  0  0  0
  187.4630  178.1600  135.5310 O   0  0  0  0  0  1  0  0  0  0  0  0
  195.3290  175.5150  136.4810 N   0  0  0  0  0  1  0  0  0  0  0  0
  194.1440  175.0080  135.8130 C   0  0  0  0  0  2  0  0  0  0  0  0
  190.1430  178.4210  143.5050 N   0  0  0  0  0  0  0  0  0  0  0  0
  189.5390  178.3170  142.5230 C   0  0  0  0  0  0  0  0  0  0  0  0
  1  9  2  0  0  0  0
  4  1  1  0  0  0  0
  4 12  1  0  0  0  0
  5  6  1  0  0  0  0
  6 17  1  0  0  0  0
  7 23  1  1  0  0  0
  7  5  1  0  0  0  0
  8 13  1  0  0  0  0
  9 18  1  0  0  0  0
 10 16  2  0  0  0  0
 11 12  1  0  0  0  0
 11  2  2  0  0  0  0
 12 18  2  0  0  0  0
 13  6  2  0  0  0  0
 13 11  1  0  0  0  0
 14 19  1  1  0  0  0
 14 15  1  0  0  0  0
 14  8  1  0  0  0  0
 15  3  1  6  0  0  0
 15  8  1  0  0  0  0
 16  4  1  0  0  0  0
 17  2  1  0  0  0  0
 18 25  1  0  0  0  0
 19  7  1  0  0  0  0
 20 16  1  0  0  0  0
 21 20  1  0  0  0  0
 23 22  1  0  0  0  0
 25 24  3  0  0  0  0
M  END
>  <MODEL>
7

>  <REMARK>
 VINA RESULT:      -5.7      4.394      7.472
  Name = 
  3 active torsions:
  status: ('A' for Active; 'I' for Inactive)
    1  A    between atoms: C_2  and  C_21
    2  A    between atoms: C_9  and  C_11
    3  A    between atoms: C_18  and  C_23
                            x       y       z     vdW  Elec       q    Type
                         _______ _______ _______ _____ _____    ______ ____

>  <TORSDO>
F 3

$$$$
=
 OpenBabel11042411453D

 25 28  0  0  1  0  0  0  0  0999 V2000
  185.9060  178.7040  144.1400 C   0  0  0  0  0  3  0  0  0  0  0  0
  187.5310  178.2230  139.7060 N   0  0  0  0  0  0  0  0  0  0  0  0
  190.1570  178.9830  144.6640 C   0  0  0  0  0  1  0  0  0  0  0  0
  187.0130  178.0460  143.4500 N   0  0  0  0  0  0  0  0  0  0  0  0
  191.0550  177.5030  139.7600 O   0  0  0  0  0  0  0  0  0  0  0  0
  189.6950  177.6690  140.0720 C   0  0  0  0  0  0  0  0  0  0  0  0
  192.0490  177.0490  140.6860 C   0  0  2  0  0  3  0  0  0  0  0  0
  189.9860  178.0080  142.4180 N   0  0  0  0  0  0  0  0  0  0  0  0
  185.0170  179.2140  143.0430 C   0  0  0  0  0  3  0  0  0  0  0  0
  187.9310  175.9000  143.2170 O   0  0  0  0  0  0  0  0  0  0  0  0
  187.7790  178.1080  141.1050 C   0  0  2  0  0  3  0  0  0  0  0  0
  186.8500  178.3180  142.0570 C   0  0  0  0  0  0  0  0  0  0  0  0
  189.1750  177.7350  141.2870 C   0  0  0  0  0  0  0  0  0  0  0  0
  191.3670  177.8790  142.9540 C   0  0  2  0  0  3  0  0  0  0  0  0
  190.6840  179.0350  143.2470 C   0  0  2  0  0  3  0  0  0  0  0  0
  187.5770  176.8360  143.9840 C   0  0  0  0  0  0  0  0  0  0  0  0
  188.6430  177.9520  139.0970 C   0  0  0  0  0  3  0  0  0  0  0  0
  185.5690  178.9790  141.8650 C   0  0  0  0  0  0  0  0  0  0  0  0
  192.3200  178.0850  141.7850 C   0  0  0  0  0  2  0  0  0  0  0  0
  187.6720  176.6400  145.4620 C   0  0  0  0  0  2  0  0  0  0  0  0
  188.9990  176.7560  145.8760 O   0  0  0  0  0  1  0  0  0  0  0  0
  193.0730  176.7530  138.4980 N   0  0  0  0  0  1  0  0  0  0  0  0
  193.3320  176.7640  139.9270 C   0  0  0  0  0  2  0  0  0  0  0  0
  184.4930  179.6980  139.6130 N   0  0  0  0  0  0  0  0  0  0  0  0
  184.9730  179.3780  140.6170 C   0  0  0  0  0  0  0  0  0  0  0  0
  2 11  1  0  0  0  0
  4 16  1  0  0  0  0
  4  1  1  0  0  0  0
  5  6  1  0  0  0  0
  5  7  1  0  0  0  0
  6 13  2  0  0  0  0
  7 23  1  6  0  0  0
  7 19  1  0  0  0  0
  8 14  1  0  0  0  0
  8 15  1  0  0  0  0
  9  1  2  0  0  0  0
 10 16  2  0  0  0  0
 11 13  1  0  0  0  0
 11 12  1  1  0  0  0
 12  4  1  0  0  0  0
 13  8  1  0  0  0  0
 14 19  1  6  0  0  0
 14 15  1  0  0  0  0
 15  3  1  1  0  0  0
 16 20  1  0  0  0  0
 17  2  2  0  0  0  0
 17  6  1  0  0  0  0
 18 12  2  0  0  0  0
 18  9  1  0  0  0  0
 20 21  1  0  0  0  0
 22 23  1  0  0  0  0
 24 25  3  0  0  0  0
 25 18  1  0  0  0  0
M  END
>  <MODEL>
8

>  <REMARK>
 VINA RESULT:      -5.5      2.414      4.028
  Name = 
  3 active torsions:
  status: ('A' for Active; 'I' for Inactive)
    1  A    between atoms: C_2  and  C_21
    2  A    between atoms: C_9  and  C_11
    3  A    between atoms: C_18  and  C_23
                            x       y       z     vdW  Elec       q    Type
                         _______ _______ _______ _____ _____    ______ ____

>  <TORSDO>
F 3

$$$$
=
 OpenBabel11042411453D

 25 28  0  0  1  0  0  0  0  0999 V2000
  191.7740  175.4190  135.8180 C   0  0  0  0  0  3  0  0  0  0  0  0
  190.4900  177.3470  139.9610 N   0  0  0  0  0  0  0  0  0  0  0  0
  188.1400  177.4690  134.8120 C   0  0  0  0  0  1  0  0  0  0  0  0
  190.5500  175.6500  136.5800 N   0  0  0  0  0  0  0  0  0  0  0  0
  187.0570  178.4090  139.8100 O   0  0  0  0  0  0  0  0  0  0  0  0
  188.3010  177.7930  139.5960 C   0  0  0  0  0  0  0  0  0  0  0  0
  185.8930  178.1880  139.0040 C   0  0  2  0  0  3  0  0  0  0  0  0
  188.0130  177.3840  137.2620 N   0  0  0  0  0  0  0  0  0  0  0  0
  192.8870  175.7950  136.7540 C   0  0  0  0  0  3  0  0  0  0  0  0
  188.7440  174.4290  137.4470 O   0  0  0  0  0  0  0  0  0  0  0  0
  190.1020  176.8820  138.6710 C   0  0  0  0  0  0  0  0  0  0  0  0
  190.9370  176.2800  137.8020 C   0  0  0  0  0  0  0  0  0  0  0  0
  188.6870  177.1760  138.4920 C   0  0  0  0  0  0  0  0  0  0  0  0
  186.6980  177.7450  136.6690 C   0  0  2  0  0  3  0  0  0  0  0  0
  187.8210  178.2560  136.0640 C   0  0  2  0  0  3  0  0  0  0  0  0
  189.4360  174.7510  136.4420 C   0  0  0  0  0  0  0  0  0  0  0  0
  189.4380  177.8650  140.5130 C   0  0  0  0  0  2  0  0  0  0  0  0
  192.3890  176.2770  137.8800 C   0  0  0  0  0  0  0  0  0  0  0  0
  186.0580  178.7710  137.5940 C   0  0  0  0  0  2  0  0  0  0  0  0
  189.1370  174.1210  135.1220 C   0  0  0  0  0  2  0  0  0  0  0  0
  187.7690  173.8660  135.0120 O   0  0  0  0  0  1  0  0  0  0  0  0
  184.4260  180.1280  139.0940 N   0  0  0  0  0  1  0  0  0  0  0  0
  184.6980  178.8290  139.6840 C   0  0  0  0  0  2  0  0  0  0  0  0
  193.8600  177.1380  139.8400 N   0  0  0  0  0  0  0  0  0  0  0  0
  193.2040  176.7540  138.9660 C   0  0  0  0  0  0  0  0  0  0  0  0
  1  4  1  0  0  0  0
  1  9  2  0  0  0  0
  2 17  1  0  0  0  0
  4 12  1  0  0  0  0
  6  5  1  0  0  0  0
  6 17  1  0  0  0  0
  7 23  1  1  0  0  0
  7  5  1  0  0  0  0
  8 13  1  0  0  0  0
  9 18  1  0  0  0  0
 11  2  2  0  0  0  0
 12 18  2  0  0  0  0
 12 11  1  0  0  0  0
 13 11  1  0  0  0  0
 13  6  2  0  0  0  0
 14  8  1  0  0  0  0
 14 19  1  1  0  0  0
 15  3  1  6  0  0  0
 15 14  1  0  0  0  0
 15  8  1  0  0  0  0
 16  4  1  0  0  0  0
 16 10  2  0  0  0  0
 18 25  1  0  0  0  0
 19  7  1  0  0  0  0
 20 16  1  0  0  0  0
 21 20  1  0  0  0  0
 22 23  1  0  0  0  0
 25 24  3  0  0  0  0
M  END
>  <MODEL>
9

>  <REMARK>
 VINA RESULT:      -5.5      5.531      8.871
  Name = 
  3 active torsions:
  status: ('A' for Active; 'I' for Inactive)
    1  A    between atoms: C_2  and  C_21
    2  A    between atoms: C_9  and  C_11
    3  A    between atoms: C_18  and  C_23
                            x       y       z     vdW  Elec       q    Type
                         _______ _______ _______ _____ _____    ______ ____

>  <TORSDO>
F 3

$$$$
