=
 OpenBabel11042412403D

 43 46  0  0  1  0  0  0  0  0999 V2000
  189.5130  176.8720  147.9270 C   0  0  0  0  0  3  0  0  0  0  0  0
  186.6240  177.5250  144.1340 C   0  0  0  0  0  0  0  0  0  0  0  0
  189.7160  178.9980  141.7100 C   0  0  0  0  0  2  0  0  0  0  0  0
  188.3740  177.2280  147.2090 C   0  0  0  0  0  3  0  0  0  0  0  0
  190.7120  178.0160  141.0900 C   0  0  0  0  0  2  0  0  0  0  0  0
  190.8860  177.5390  146.0650 C   0  0  0  0  0  3  0  0  0  0  0  0
  185.3140  177.8230  143.7490 C   0  0  0  0  0  3  0  0  0  0  0  0
  188.4620  177.7330  145.9010 C   0  0  0  0  0  0  0  0  0  0  0  0
  190.0200  176.7070  140.7010 C   0  0  1  0  0  3  0  0  0  0  0  0
  190.7790  177.0250  147.3630 C   0  0  0  0  0  0  0  0  0  0  0  0
  186.3830  179.0700  145.9770 C   0  0  0  0  0  3  0  0  0  0  0  0
  187.1790  178.1530  145.2770 C   0  0  0  0  0  0  0  0  0  0  0  0
  185.1200  179.3570  145.5620 N   0  0  0  0  0  0  0  0  0  0  0  0
  189.7550  177.8870  145.3180 C   0  0  0  0  0  0  0  0  0  0  0  0
  189.0680  178.4110  142.9640 C   0  0  2  0  0  3  0  0  0  0  0  0
  184.5720  178.7550  144.4760 C   0  0  0  0  0  0  0  0  0  0  0  0
  190.0060  178.3770  144.0270 O   0  0  0  0  0  0  0  0  0  0  0  0
  189.3550  176.0500  141.9140 C   0  0  0  0  0  2  0  0  0  0  0  0
  188.5350  177.0300  142.6970 C   0  0  0  0  0  0  0  0  0  0  0  0
  187.4010  176.6300  143.2650 C   0  0  0  0  0  3  0  0  0  0  0  0
  191.3090  173.6150  136.7500 N   0  0  0  0  0  2  0  0  0  0  0  0
  188.3490  176.6780  137.4370 O   0  0  0  0  0  0  0  0  0  0  0  0
  190.4570  174.7660  136.8260 C   0  0  0  0  0  0  0  0  0  0  0  0
  189.0560  176.9410  139.6330 N   0  0  0  0  0  2  0  0  0  0  0  0
  190.1110  175.2870  138.1130 N   0  0  0  0  0  2  0  0  0  0  0  0
  189.1430  176.3190  138.3500 C   0  0  0  0  0  0  0  0  0  0  0  0
  190.0540  175.3340  135.7740 O   0  0  0  0  0  0  0  0  0  0  0  0
  192.2940  174.0560  134.6890 O   0  0  0  0  0  1  0  0  0  0  0  0
  191.8180  173.0320  135.5090 C   0  0  0  0  0  0  0  0  0  0  0  0
  190.7090  172.2940  134.7820 C   0  0  0  0  0  1  0  0  0  0  0  0
  192.9590  172.0720  135.8030 C   0  0  0  0  0  1  0  0  0  0  0  0
  192.6820  175.3560  147.8800 C   0  0  0  0  0  1  0  0  0  0  0  0
  192.4460  177.4280  149.0060 O   0  0  0  0  0  0  0  0  0  0  0  0
  191.9850  176.6500  148.1280 C   0  0  0  0  0  0  0  0  0  0  0  0
  183.1630  179.0470  144.0980 C   0  0  0  0  0  2  0  0  0  0  0  0
  181.7990  178.8090  142.1860 C   0  0  0  0  0  3  0  0  0  0  0  0
  182.9430  178.6420  142.7360 N   0  0  0  0  0  0  0  0  0  0  0  0
  181.5660  178.3870  140.7700 C   0  0  0  0  0  2  0  0  0  0  0  0
  182.1010  179.4230  139.7880 C   0  0  0  0  0  2  0  0  0  0  0  0
  183.0960  178.8250  138.9060 N   0  0  0  0  0  2  0  0  0  0  0  0
  184.9700  179.6680  140.2370 O   0  0  0  0  0  1  0  0  0  0  0  0
  184.4970  178.9170  139.1660 C   0  0  0  0  0  0  0  0  0  0  0  0
  185.3120  178.3150  138.4180 O   0  0  0  0  0  0  0  0  0  0  0  0
  2 12  1  0  0  0  0
  4  1  2  0  0  0  0
  5  3  1  0  0  0  0
  6 10  2  0  0  0  0
  7  2  2  0  0  0  0
  7 16  1  0  0  0  0
  8  4  1  0  0  0  0
  9 24  1  6  0  0  0
  9  5  1  0  0  0  0
  9 18  1  0  0  0  0
 10  1  1  0  0  0  0
 10 34  1  0  0  0  0
 12  8  1  0  0  0  0
 12 11  2  0  0  0  0
 13 11  1  0  0  0  0
 14  8  2  0  0  0  0
 14  6  1  0  0  0  0
 15  3  1  6  0  0  0
 15 17  1  0  0  0  0
 16 13  2  0  0  0  0
 17 14  1  0  0  0  0
 18 19  1  0  0  0  0
 19 15  1  0  0  0  0
 19 20  2  0  0  0  0
 20  2  1  0  0  0  0
 21 23  1  0  0  0  0
 22 26  2  0  0  0  0
 23 25  1  0  0  0  0
 25 26  1  0  0  0  0
 26 24  1  0  0  0  0
 27 23  2  0  0  0  0
 28 29  1  0  0  0  0
 29 31  1  0  0  0  0
 29 21  1  0  0  0  0
 30 29  1  0  0  0  0
 32 34  1  0  0  0  0
 34 33  2  0  0  0  0
 35 16  1  0  0  0  0
 36 37  2  0  0  0  0
 37 35  1  0  0  0  0
 38 36  1  0  0  0  0
 39 38  1  0  0  0  0
 40 42  1  0  0  0  0
 40 39  1  0  0  0  0
 42 41  1  0  0  0  0
 43 42  2  0  0  0  0
M  END
>  <MODEL>
1

>  <REMARK>
 VINA RESULT:      -8.1      0.000      0.000
  Name = 
  8 active torsions:
  status: ('A' for Active; 'I' for Inactive)
    1  A    between atoms: N_1  and  C_13
    2  A    between atoms: N_5  and  C_31
    3  A    between atoms: C_6  and  C_29
    4  A    between atoms: C_6  and  C_31
    5  A    between atoms: C_17  and  N_23
    6  A    between atoms: C_18  and  C_35
    7  A    between atoms: C_33  and  C_40
    8  A    between atoms: C_40  and  N_43
                            x       y       z     vdW  Elec       q    Type
                         _______ _______ _______ _____ _____    ______ ____

>  <TORSDO>
F 8

$$$$
=
 OpenBabel11042412403D

 43 46  0  0  1  0  0  0  0  0999 V2000
  189.5120  176.8410  147.8810 C   0  0  0  0  0  3  0  0  0  0  0  0
  186.7180  177.4070  144.0030 C   0  0  0  0  0  0  0  0  0  0  0  0
  189.8400  178.9480  141.6620 C   0  0  0  0  0  2  0  0  0  0  0  0
  188.3850  177.1660  147.1280 C   0  0  0  0  0  3  0  0  0  0  0  0
  190.8780  177.9900  141.0750 C   0  0  0  0  0  2  0  0  0  0  0  0
  190.9200  177.5360  146.0560 C   0  0  0  0  0  3  0  0  0  0  0  0
  185.4130  177.6700  143.5780 C   0  0  0  0  0  3  0  0  0  0  0  0
  188.4980  177.6680  145.8210 C   0  0  0  0  0  0  0  0  0  0  0  0
  190.2310  176.6630  140.6720 C   0  0  1  0  0  3  0  0  0  0  0  0
  190.7890  177.0250  147.3520 C   0  0  0  0  0  0  0  0  0  0  0  0
  186.3850  178.9530  145.8310 C   0  0  0  0  0  3  0  0  0  0  0  0
  187.2240  178.0530  145.1580 C   0  0  0  0  0  0  0  0  0  0  0  0
  185.1280  179.2060  145.3790 N   0  0  0  0  0  0  0  0  0  0  0  0
  189.8030  177.8530  145.2750 C   0  0  0  0  0  0  0  0  0  0  0  0
  189.1720  178.3500  142.8990 C   0  0  2  0  0  3  0  0  0  0  0  0
  184.6270  178.5860  144.2800 C   0  0  0  0  0  0  0  0  0  0  0  0
  190.0780  178.3440  143.9900 O   0  0  0  0  0  0  0  0  0  0  0  0
  189.5480  175.9930  141.8690 C   0  0  0  0  0  2  0  0  0  0  0  0
  188.6810  176.9550  142.6230 C   0  0  0  0  0  0  0  0  0  0  0  0
  187.5410  176.5290  143.1610 C   0  0  0  0  0  3  0  0  0  0  0  0
  191.6470  173.5100  136.8140 N   0  0  0  0  0  2  0  0  0  0  0  0
  188.6440  176.5590  137.3680 O   0  0  0  0  0  0  0  0  0  0  0  0
  190.7840  174.6550  136.8470 C   0  0  0  0  0  0  0  0  0  0  0  0
  189.2920  176.8680  139.5760 N   0  0  0  0  0  2  0  0  0  0  0  0
  190.4000  175.1960  138.1140 N   0  0  0  0  0  2  0  0  0  0  0  0
  189.4180  176.2240  138.3080 C   0  0  0  0  0  0  0  0  0  0  0  0
  190.4030  175.1990  135.7740 O   0  0  0  0  0  0  0  0  0  0  0  0
  192.7790  173.9100  134.8210 O   0  0  0  0  0  1  0  0  0  0  0  0
  192.1920  172.9090  135.5980 C   0  0  0  0  0  0  0  0  0  0  0  0
  191.0860  172.2480  134.7960 C   0  0  0  0  0  1  0  0  0  0  0  0
  193.2530  171.8770  135.9460 C   0  0  0  0  0  1  0  0  0  0  0  0
  192.6760  175.3750  147.9810 C   0  0  0  0  0  1  0  0  0  0  0  0
  192.4330  177.5020  148.9990 O   0  0  0  0  0  0  0  0  0  0  0  0
  191.9810  176.6830  148.1530 C   0  0  0  0  0  0  0  0  0  0  0  0
  183.2220  178.8410  143.8600 C   0  0  0  0  0  2  0  0  0  0  0  0
  182.0070  178.8680  141.8370 C   0  0  0  0  0  3  0  0  0  0  0  0
  183.0930  178.5860  142.4510 N   0  0  0  0  0  0  0  0  0  0  0  0
  181.8690  178.6030  140.3710 C   0  0  0  0  0  2  0  0  0  0  0  0
  182.5490  177.2970  139.9770 C   0  0  0  0  0  2  0  0  0  0  0  0
  181.8540  176.6750  138.8580 N   0  0  0  0  0  2  0  0  0  0  0  0
  180.6060  175.1520  140.3110 O   0  0  0  0  0  1  0  0  0  0  0  0
  180.8720  175.6560  139.0430 C   0  0  0  0  0  0  0  0  0  0  0  0
  180.2420  175.2070  138.0490 O   0  0  0  0  0  0  0  0  0  0  0  0
  2 12  1  0  0  0  0
  4  1  2  0  0  0  0
  5  3  1  0  0  0  0
  6 10  2  0  0  0  0
  7  2  2  0  0  0  0
  7 16  1  0  0  0  0
  8  4  1  0  0  0  0
  9 24  1  6  0  0  0
  9  5  1  0  0  0  0
  9 18  1  0  0  0  0
 10  1  1  0  0  0  0
 10 34  1  0  0  0  0
 12  8  1  0  0  0  0
 12 11  2  0  0  0  0
 13 11  1  0  0  0  0
 14  8  2  0  0  0  0
 14  6  1  0  0  0  0
 15  3  1  6  0  0  0
 15 17  1  0  0  0  0
 16 13  2  0  0  0  0
 17 14  1  0  0  0  0
 18 19  1  0  0  0  0
 19 15  1  0  0  0  0
 19 20  2  0  0  0  0
 20  2  1  0  0  0  0
 21 23  1  0  0  0  0
 22 26  2  0  0  0  0
 23 25  1  0  0  0  0
 25 26  1  0  0  0  0
 26 24  1  0  0  0  0
 27 23  2  0  0  0  0
 28 29  1  0  0  0  0
 29 31  1  0  0  0  0
 29 21  1  0  0  0  0
 30 29  1  0  0  0  0
 32 34  1  0  0  0  0
 34 33  2  0  0  0  0
 35 16  1  0  0  0  0
 36 37  2  0  0  0  0
 37 35  1  0  0  0  0
 38 36  1  0  0  0  0
 39 38  1  0  0  0  0
 40 42  1  0  0  0  0
 40 39  1  0  0  0  0
 42 41  1  0  0  0  0
 43 42  2  0  0  0  0
M  END
>  <MODEL>
2

>  <REMARK>
 VINA RESULT:      -7.1      1.477      1.617
  Name = 
  8 active torsions:
  status: ('A' for Active; 'I' for Inactive)
    1  A    between atoms: N_1  and  C_13
    2  A    between atoms: N_5  and  C_31
    3  A    between atoms: C_6  and  C_29
    4  A    between atoms: C_6  and  C_31
    5  A    between atoms: C_17  and  N_23
    6  A    between atoms: C_18  and  C_35
    7  A    between atoms: C_33  and  C_40
    8  A    between atoms: C_40  and  N_43
                            x       y       z     vdW  Elec       q    Type
                         _______ _______ _______ _____ _____    ______ ____

>  <TORSDO>
F 8

$$$$
=
 OpenBabel11042412403D

 43 46  0  0  1  0  0  0  0  0999 V2000
  192.4860  175.7220  134.9780 C   0  0  0  0  0  3  0  0  0  0  0  0
  188.0980  175.7250  136.9540 C   0  0  0  0  0  0  0  0  0  0  0  0
  189.5740  176.2230  140.8500 C   0  0  0  0  0  2  0  0  0  0  0  0
  191.1640  175.3470  135.2040 C   0  0  0  0  0  3  0  0  0  0  0  0
  190.0430  177.6070  141.3000 C   0  0  0  0  0  2  0  0  0  0  0  0
  192.7360  176.2240  137.3190 C   0  0  0  0  0  3  0  0  0  0  0  0
  186.7990  175.2270  136.8230 C   0  0  0  0  0  3  0  0  0  0  0  0
  190.5930  175.4140  136.4860 C   0  0  0  0  0  0  0  0  0  0  0  0
  189.1710  178.7060  140.6880 C   0  0  1  0  0  3  0  0  0  0  0  0
  193.2840  176.1630  136.0330 C   0  0  0  0  0  0  0  0  0  0  0  0
  188.9400  173.6060  136.1530 C   0  0  0  0  0  3  0  0  0  0  0  0
  189.2010  174.9050  136.6080 C   0  0  0  0  0  0  0  0  0  0  0  0
  187.6650  173.1420  136.0590 N   0  0  0  0  0  0  0  0  0  0  0  0
  191.4050  175.8680  137.5680 C   0  0  0  0  0  0  0  0  0  0  0  0
  189.6330  176.0860  139.3290 C   0  0  2  0  0  3  0  0  0  0  0  0
  186.5980  173.9200  136.3770 C   0  0  0  0  0  0  0  0  0  0  0  0
  190.9810  175.9900  138.9000 O   0  0  0  0  0  0  0  0  0  0  0  0
  189.1900  178.6420  139.1580 C   0  0  0  0  0  2  0  0  0  0  0  0
  188.9550  177.2490  138.6580 C   0  0  0  0  0  0  0  0  0  0  0  0
  188.2570  177.0620  137.5410 C   0  0  0  0  0  3  0  0  0  0  0  0
  189.4970  177.8920  145.7930 N   0  0  0  0  0  2  0  0  0  0  0  0
  186.3040  178.1280  142.9000 O   0  0  0  0  0  0  0  0  0  0  0  0
  188.4150  177.7320  144.8660 C   0  0  0  0  0  0  0  0  0  0  0  0
  187.8100  178.6200  141.2030 N   0  0  0  0  0  2  0  0  0  0  0  0
  188.5560  178.2550  143.5420 N   0  0  0  0  0  2  0  0  0  0  0  0
  187.5060  178.3190  142.5650 C   0  0  0  0  0  0  0  0  0  0  0  0
  187.3730  177.1050  145.2010 O   0  0  0  0  0  0  0  0  0  0  0  0
  188.5620  176.3320  147.2440 O   0  0  0  0  0  1  0  0  0  0  0  0
  189.5300  177.3320  147.1440 C   0  0  0  0  0  0  0  0  0  0  0  0
  189.2310  178.4110  148.1680 C   0  0  0  0  0  1  0  0  0  0  0  0
  190.8930  176.7220  147.4320 C   0  0  0  0  0  1  0  0  0  0  0  0
  195.7750  175.5390  135.7470 C   0  0  0  0  0  1  0  0  0  0  0  0
  194.9830  177.7690  135.6130 O   0  0  0  0  0  0  0  0  0  0  0  0
  194.6870  176.5570  135.7910 C   0  0  0  0  0  0  0  0  0  0  0  0
  185.2170  173.3960  136.1940 C   0  0  0  0  0  2  0  0  0  0  0  0
  183.4320  174.2400  137.4850 C   0  0  0  0  0  3  0  0  0  0  0  0
  184.2710  174.4220  136.5360 N   0  0  0  0  0  0  0  0  0  0  0  0
  182.4440  175.3050  137.8440 C   0  0  0  0  0  2  0  0  0  0  0  0
  182.9400  176.1510  139.0110 C   0  0  0  0  0  2  0  0  0  0  0  0
  183.6810  177.3080  138.5260 N   0  0  0  0  0  2  0  0  0  0  0  0
  183.8000  178.3270  140.7490 O   0  0  0  0  0  1  0  0  0  0  0  0
  184.1340  178.3430  139.3990 C   0  0  0  0  0  0  0  0  0  0  0  0
  184.8390  179.2810  138.9420 O   0  0  0  0  0  0  0  0  0  0  0  0
  1  4  2  0  0  0  0
  1 10  1  0  0  0  0
  2 20  1  0  0  0  0
  3  5  1  0  0  0  0
  4  8  1  0  0  0  0
  6 14  1  0  0  0  0
  7  2  1  0  0  0  0
  8 12  1  0  0  0  0
  8 14  2  0  0  0  0
  9 24  1  1  0  0  0
  9  5  1  0  0  0  0
 10  6  2  0  0  0  0
 11 12  1  0  0  0  0
 12  2  2  0  0  0  0
 13 11  2  0  0  0  0
 13 16  1  0  0  0  0
 14 17  1  0  0  0  0
 15  3  1  1  0  0  0
 16  7  2  0  0  0  0
 17 15  1  0  0  0  0
 18  9  1  0  0  0  0
 19 18  1  0  0  0  0
 19 15  1  0  0  0  0
 20 19  2  0  0  0  0
 21 29  1  0  0  0  0
 23 27  2  0  0  0  0
 23 21  1  0  0  0  0
 24 26  1  0  0  0  0
 25 23  1  0  0  0  0
 26 22  2  0  0  0  0
 26 25  1  0  0  0  0
 29 28  1  0  0  0  0
 29 31  1  0  0  0  0
 29 30  1  0  0  0  0
 32 34  1  0  0  0  0
 33 34  2  0  0  0  0
 34 10  1  0  0  0  0
 35 16  1  0  0  0  0
 35 37  1  0  0  0  0
 36 38  1  0  0  0  0
 37 36  2  0  0  0  0
 38 39  1  0  0  0  0
 40 39  1  0  0  0  0
 40 42  1  0  0  0  0
 42 41  1  0  0  0  0
 43 42  2  0  0  0  0
M  END
>  <MODEL>
3

>  <REMARK>
 VINA RESULT:      -6.0      2.948      8.705
  Name = 
  8 active torsions:
  status: ('A' for Active; 'I' for Inactive)
    1  A    between atoms: N_1  and  C_13
    2  A    between atoms: N_5  and  C_31
    3  A    between atoms: C_6  and  C_29
    4  A    between atoms: C_6  and  C_31
    5  A    between atoms: C_17  and  N_23
    6  A    between atoms: C_18  and  C_35
    7  A    between atoms: C_33  and  C_40
    8  A    between atoms: C_40  and  N_43
                            x       y       z     vdW  Elec       q    Type
                         _______ _______ _______ _____ _____    ______ ____

>  <TORSDO>
F 8

$$$$
=
 OpenBabel11042412403D

 43 46  0  0  1  0  0  0  0  0999 V2000
  186.1010  179.3880  143.3970 C   0  0  0  0  0  3  0  0  0  0  0  0
  185.2460  178.9060  138.6860 C   0  0  0  0  0  0  0  0  0  0  0  0
  181.9530  176.3750  139.2820 C   0  0  0  0  0  2  0  0  0  0  0  0
  186.3660  179.2190  142.0390 C   0  0  0  0  0  3  0  0  0  0  0  0
  180.6140  176.9790  139.7100 C   0  0  0  0  0  2  0  0  0  0  0  0
  184.0610  178.1340  143.1450 C   0  0  0  0  0  3  0  0  0  0  0  0
  185.8470  178.8850  137.4240 C   0  0  0  0  0  3  0  0  0  0  0  0
  185.4820  178.5190  141.2020 C   0  0  0  0  0  0  0  0  0  0  0  0
  180.3950  178.3440  139.0550 C   0  0  1  0  0  3  0  0  0  0  0  0
  184.9470  178.8450  143.9620 C   0  0  0  0  0  0  0  0  0  0  0  0
  187.1790  177.7590  139.5730 C   0  0  0  0  0  3  0  0  0  0  0  0
  185.9220  178.3380  139.7940 C   0  0  0  0  0  0  0  0  0  0  0  0
  187.7270  177.7330  138.3290 N   0  0  0  0  0  0  0  0  0  0  0  0
  184.2980  177.9670  141.7760 C   0  0  0  0  0  0  0  0  0  0  0  0
  183.1190  177.2830  139.6710 C   0  0  2  0  0  3  0  0  0  0  0  0
  187.0950  178.2830  137.2600 C   0  0  0  0  0  0  0  0  0  0  0  0
  183.3210  177.2440  141.0740 O   0  0  0  0  0  0  0  0  0  0  0  0
  181.5220  179.3180  139.4100 C   0  0  0  0  0  2  0  0  0  0  0  0
  182.8730  178.6970  139.2200 C   0  0  0  0  0  0  0  0  0  0  0  0
  183.8820  179.4430  138.7790 C   0  0  0  0  0  3  0  0  0  0  0  0
  180.8120  183.0700  136.9760 N   0  0  0  0  0  2  0  0  0  0  0  0
  179.9870  179.1040  135.4910 O   0  0  0  0  0  0  0  0  0  0  0  0
  180.3130  181.8340  136.4490 C   0  0  0  0  0  0  0  0  0  0  0  0
  180.2600  178.1980  137.6110 N   0  0  0  0  0  2  0  0  0  0  0  0
  180.5330  180.6280  137.1860 N   0  0  0  0  0  2  0  0  0  0  0  0
  180.2430  179.3060  136.7100 C   0  0  0  0  0  0  0  0  0  0  0  0
  179.6540  181.8170  135.3730 O   0  0  0  0  0  0  0  0  0  0  0  0
  181.5430  185.2760  136.8650 O   0  0  0  0  0  1  0  0  0  0  0  0
  180.5830  184.3860  136.3800 C   0  0  0  0  0  0  0  0  0  0  0  0
  179.2040  184.8990  136.7510 C   0  0  0  0  0  1  0  0  0  0  0  0
  180.7080  184.3120  134.8670 C   0  0  0  0  0  1  0  0  0  0  0  0
  185.7790  179.0750  146.3970 C   0  0  0  0  0  1  0  0  0  0  0  0
  183.4830  179.1350  145.8100 O   0  0  0  0  0  0  0  0  0  0  0  0
  184.6700  179.0230  145.4020 C   0  0  0  0  0  0  0  0  0  0  0  0
  187.7610  178.2920  135.9290 C   0  0  0  0  0  2  0  0  0  0  0  0
  189.3680  176.9530  134.8380 C   0  0  0  0  0  3  0  0  0  0  0  0
  188.8520  177.3560  135.9370 N   0  0  0  0  0  0  0  0  0  0  0  0
  190.5030  175.9770  134.8410 C   0  0  0  0  0  2  0  0  0  0  0  0
  191.2590  176.0110  136.1650 C   0  0  0  0  0  2  0  0  0  0  0  0
  192.6670  175.6970  135.9580 N   0  0  0  0  0  2  0  0  0  0  0  0
  193.3660  176.9170  137.9620 O   0  0  0  0  0  1  0  0  0  0  0  0
  193.6810  176.1100  136.8730 C   0  0  0  0  0  0  0  0  0  0  0  0
  194.8730  175.7450  136.6920 O   0  0  0  0  0  0  0  0  0  0  0  0
  1 10  1  0  0  0  0
  2 20  1  0  0  0  0
  2 12  1  0  0  0  0
  3  5  1  0  0  0  0
  4  1  2  0  0  0  0
  6 10  2  0  0  0  0
  7  2  2  0  0  0  0
  8 14  2  0  0  0  0
  8  4  1  0  0  0  0
  9 24  1  6  0  0  0
  9 18  1  0  0  0  0
  9  5  1  0  0  0  0
 10 34  1  0  0  0  0
 11 12  2  0  0  0  0
 12  8  1  0  0  0  0
 13 11  1  0  0  0  0
 14  6  1  0  0  0  0
 15  3  1  1  0  0  0
 15 17  1  0  0  0  0
 16  7  1  0  0  0  0
 16 13  2  0  0  0  0
 17 14  1  0  0  0  0
 19 18  1  0  0  0  0
 19 15  1  0  0  0  0
 20 19  2  0  0  0  0
 22 26  2  0  0  0  0
 23 21  1  0  0  0  0
 23 25  1  0  0  0  0
 26 25  1  0  0  0  0
 26 24  1  0  0  0  0
 27 23  2  0  0  0  0
 29 30  1  0  0  0  0
 29 28  1  0  0  0  0
 29 21  1  0  0  0  0
 31 29  1  0  0  0  0
 34 33  2  0  0  0  0
 34 32  1  0  0  0  0
 35 37  1  0  0  0  0
 35 16  1  0  0  0  0
 36 38  1  0  0  0  0
 36 37  2  0  0  0  0
 38 39  1  0  0  0  0
 40 39  1  0  0  0  0
 40 42  1  0  0  0  0
 42 41  1  0  0  0  0
 43 42  2  0  0  0  0
M  END
>  <MODEL>
4

>  <REMARK>
 VINA RESULT:      -5.7      4.113      9.850
  Name = 
  8 active torsions:
  status: ('A' for Active; 'I' for Inactive)
    1  A    between atoms: N_1  and  C_13
    2  A    between atoms: N_5  and  C_31
    3  A    between atoms: C_6  and  C_29
    4  A    between atoms: C_6  and  C_31
    5  A    between atoms: C_17  and  N_23
    6  A    between atoms: C_18  and  C_35
    7  A    between atoms: C_33  and  C_40
    8  A    between atoms: C_40  and  N_43
                            x       y       z     vdW  Elec       q    Type
                         _______ _______ _______ _____ _____    ______ ____

>  <TORSDO>
F 8

$$$$
=
 OpenBabel11042412403D

 43 46  0  0  1  0  0  0  0  0999 V2000
  187.9400  173.8620  134.6470 C   0  0  0  0  0  3  0  0  0  0  0  0
  191.6610  175.8080  136.9960 C   0  0  0  0  0  0  0  0  0  0  0  0
  189.2970  178.7530  138.8230 C   0  0  0  0  0  2  0  0  0  0  0  0
  189.2310  174.3340  134.8690 C   0  0  0  0  0  3  0  0  0  0  0  0
  188.4250  178.3750  140.0220 C   0  0  0  0  0  2  0  0  0  0  0  0
  187.0740  175.5640  136.1120 C   0  0  0  0  0  3  0  0  0  0  0  0
  193.0380  176.0410  136.9390 C   0  0  0  0  0  3  0  0  0  0  0  0
  189.4760  175.4200  135.7260 C   0  0  0  0  0  0  0  0  0  0  0  0
  189.1220  177.3310  140.8980 C   0  0  1  0  0  3  0  0  0  0  0  0
  186.8490  174.4730  135.2650 C   0  0  0  0  0  0  0  0  0  0  0  0
  191.5440  176.1950  134.6140 C   0  0  0  0  0  3  0  0  0  0  0  0
  190.8880  175.8790  135.8120 C   0  0  0  0  0  0  0  0  0  0  0  0
  192.8810  176.4400  134.5940 N   0  0  0  0  0  0  0  0  0  0  0  0
  188.3630  176.0460  136.3640 C   0  0  0  0  0  0  0  0  0  0  0  0
  189.6040  177.5330  137.9560 C   0  0  2  0  0  3  0  0  0  0  0  0
  193.6360  176.3650  135.7200 C   0  0  0  0  0  0  0  0  0  0  0  0
  188.4450  177.1370  137.2430 O   0  0  0  0  0  0  0  0  0  0  0  0
  189.4530  176.0670  140.0970 C   0  0  0  0  0  2  0  0  0  0  0  0
  190.1160  176.3940  138.7940 C   0  0  0  0  0  0  0  0  0  0  0  0
  191.0650  175.5900  138.3210 C   0  0  0  0  0  3  0  0  0  0  0  0
  188.4860  177.1240  146.0340 N   0  0  0  0  0  2  0  0  0  0  0  0
  191.4760  178.7010  143.3530 O   0  0  0  0  0  0  0  0  0  0  0  0
  189.3980  177.8640  145.2120 C   0  0  0  0  0  0  0  0  0  0  0  0
  190.3190  177.8970  141.5080 N   0  0  0  0  0  2  0  0  0  0  0  0
  189.4910  177.5450  143.8210 N   0  0  0  0  0  2  0  0  0  0  0  0
  190.4680  178.0800  142.9160 C   0  0  0  0  0  0  0  0  0  0  0  0
  190.0760  178.8090  145.7000 O   0  0  0  0  0  0  0  0  0  0  0  0
  188.1470  176.1890  148.1380 O   0  0  0  0  0  1  0  0  0  0  0  0
  188.2200  177.3990  147.4460 C   0  0  0  0  0  0  0  0  0  0  0  0
  186.9020  178.1350  147.5990 C   0  0  0  0  0  1  0  0  0  0  0  0
  189.3410  178.2350  148.0430 C   0  0  0  0  0  1  0  0  0  0  0  0
  185.1270  172.5480  135.2840 C   0  0  0  0  0  1  0  0  0  0  0  0
  184.5870  174.7510  134.5960 O   0  0  0  0  0  0  0  0  0  0  0  0
  185.4810  173.9720  135.0250 C   0  0  0  0  0  0  0  0  0  0  0  0
  195.1080  176.5730  135.6420 C   0  0  0  0  0  2  0  0  0  0  0  0
  196.9130  175.0540  135.5980 C   0  0  0  0  0  3  0  0  0  0  0  0
  195.7800  175.3860  136.0930 N   0  0  0  0  0  0  0  0  0  0  0  0
  197.6160  173.8180  136.0640 C   0  0  0  0  0  2  0  0  0  0  0  0
  198.3260  174.0510  137.3920 C   0  0  0  0  0  2  0  0  0  0  0  0
  197.5480  174.9480  138.2380 N   0  0  0  0  0  2  0  0  0  0  0  0
  196.0280  173.1660  138.9510 O   0  0  0  0  0  0  0  0  0  0  0  0
  196.4530  174.4880  139.0300 C   0  0  0  0  0  0  0  0  0  0  0  0
  195.8650  175.2870  139.8050 O   0  0  0  0  0  1  0  0  0  0  0  0
  1  4  2  0  0  0  0
  1 10  1  0  0  0  0
  2 20  1  0  0  0  0
  3  5  1  0  0  0  0
  4  8  1  0  0  0  0
  5  9  1  0  0  0  0
  6 14  1  0  0  0  0
  7  2  1  0  0  0  0
  8 12  1  0  0  0  0
  8 14  2  0  0  0  0
  9 24  1  6  0  0  0
 10  6  2  0  0  0  0
 11 12  1  0  0  0  0
 12  2  2  0  0  0  0
 13 11  2  0  0  0  0
 13 16  1  0  0  0  0
 14 17  1  0  0  0  0
 15 19  1  0  0  0  0
 15  3  1  1  0  0  0
 16  7  2  0  0  0  0
 17 15  1  0  0  0  0
 18  9  1  0  0  0  0
 19 18  1  0  0  0  0
 20 19  2  0  0  0  0
 21 29  1  0  0  0  0
 23 27  2  0  0  0  0
 23 21  1  0  0  0  0
 24 26  1  0  0  0  0
 25 23  1  0  0  0  0
 26 22  2  0  0  0  0
 26 25  1  0  0  0  0
 29 30  1  0  0  0  0
 29 31  1  0  0  0  0
 29 28  1  0  0  0  0
 33 34  2  0  0  0  0
 34 10  1  0  0  0  0
 34 32  1  0  0  0  0
 35 16  1  0  0  0  0
 35 37  1  0  0  0  0
 36 38  1  0  0  0  0
 36 37  2  0  0  0  0
 38 39  1  0  0  0  0
 39 40  1  0  0  0  0
 40 42  1  0  0  0  0
 41 42  2  0  0  0  0
 42 43  1  0  0  0  0
M  END
>  <MODEL>
5

>  <REMARK>
 VINA RESULT:      -5.5      3.710     11.540
  Name = 
  8 active torsions:
  status: ('A' for Active; 'I' for Inactive)
    1  A    between atoms: N_1  and  C_13
    2  A    between atoms: N_5  and  C_31
    3  A    between atoms: C_6  and  C_29
    4  A    between atoms: C_6  and  C_31
    5  A    between atoms: C_17  and  N_23
    6  A    between atoms: C_18  and  C_35
    7  A    between atoms: C_33  and  C_40
    8  A    between atoms: C_40  and  N_43
                            x       y       z     vdW  Elec       q    Type
                         _______ _______ _______ _____ _____    ______ ____

>  <TORSDO>
F 8

$$$$
