=
 OpenBabel11042411583D

 28 32  0  0  1  0  0  0  0  0999 V2000
  186.3350  178.0460  143.8700 C   0  0  1  0  0  3  0  0  0  0  0  0
  190.0960  176.4290  144.0940 O   0  0  0  0  0  0  0  0  0  0  0  0
  189.1120  177.4100  144.1770 C   0  0  1  0  0  0  0  0  0  0  0  0
  186.0910  178.1950  146.7450 S   0  0  0  0  0  0  0  0  0  0  0  0
  189.0390  176.7170  142.0210 O   0  0  0  0  0  0  0  0  0  0  0  0
  187.2730  178.0690  142.7950 O   0  0  0  0  0  0  0  0  0  0  0  0
  189.3980  176.3560  147.3510 C   0  0  0  0  0  1  0  0  0  0  0  0
  190.0860  176.0620  142.7170 C   0  0  1  0  0  3  0  0  0  0  0  0
  187.6820  178.1230  147.5750 C   0  0  0  0  0  0  0  0  0  0  0  0
  189.7470  178.7970  144.0030 C   0  0  0  0  0  1  0  0  0  0  0  0
  188.1950  177.0420  143.0640 C   0  0  2  0  0  3  0  0  0  0  0  0
  187.8350  178.5710  148.7000 O   0  0  0  0  0  0  0  0  0  0  0  0
  187.0600  178.3280  145.2200 C   0  0  1  0  0  3  0  0  0  0  0  0
  188.8370  177.6350  146.7580 C   0  0  2  0  0  3  0  0  0  0  0  0
  188.2160  177.3430  145.4060 C   0  0  2  0  0  3  0  0  0  0  0  0
  183.8440  178.5000  143.8980 C   0  0  0  0  0  1  0  0  0  0  0  0
  185.2220  179.0730  143.6050 C   0  0  2  0  0  3  0  0  0  0  0  0
  184.5870  179.0250  141.1040 C   0  0  0  0  0  0  0  0  0  0  0  0
  184.7280  179.6130  139.8850 N   0  0  0  0  0  0  0  0  0  0  0  0
  183.7860  177.8790  141.2290 C   0  0  0  0  0  3  0  0  0  0  0  0
  185.2660  179.5880  142.2350 N   0  0  0  0  0  2  0  0  0  0  0  0
  183.3090  177.9860  138.8650 C   0  0  0  0  0  3  0  0  0  0  0  0
  184.1120  179.1240  138.7750 C   0  0  0  0  0  3  0  0  0  0  0  0
  183.1460  177.3620  140.1020 C   0  0  0  0  0  3  0  0  0  0  0  0
  191.4280  176.3980  142.0860 C   0  0  0  0  0  2  0  0  0  0  0  0
  191.2470  177.4020  140.9650 C   0  0  0  0  0  3  0  0  0  0  0  0
  192.4270  177.5280  140.2670 O   0  0  0  0  0  0  0  0  0  0  0  0
  191.4390  176.7790  139.7530 O   0  0  0  0  0  0  0  0  0  0  0  0
  1 17  1  6  0  0  0
  1 13  1  0  0  0  0
  2  3  1  0  0  0  0
  3 10  1  6  0  0  0
  3 15  1  0  0  0  0
  4  9  1  0  0  0  0
  5  8  1  0  0  0  0
  6 11  1  0  0  0  0
  6  1  1  0  0  0  0
  8 25  1  6  0  0  0
  8  2  1  0  0  0  0
  9 12  2  0  0  0  0
 11  5  1  6  0  0  0
 11  3  1  0  0  0  0
 13 15  1  0  0  0  0
 13  4  1  1  0  0  0
 14  7  1  1  0  0  0
 14  9  1  0  0  0  0
 15 14  1  0  0  0  0
 17 16  1  0  0  0  0
 18 20  1  0  0  0  0
 18 21  1  0  0  0  0
 19 18  2  0  0  0  0
 21 17  1  0  0  0  0
 22 24  1  0  0  0  0
 23 22  2  0  0  0  0
 23 19  1  0  0  0  0
 24 20  2  0  0  0  0
 26 25  1  0  0  0  0
 27 26  1  0  0  0  0
 28 27  1  0  0  0  0
 28 26  1  0  0  0  0
M  END
>  <MODEL>
1

>  <REMARK>
 VINA RESULT:      -8.6      0.000      0.000
  Name = 
  4 active torsions:
  status: ('A' for Active; 'I' for Inactive)
    1  A    between atoms: C_1  and  C_17
    2  A    between atoms: C_9  and  C_19
    3  A    between atoms: N_12  and  C_17
    4  A    between atoms: C_14  and  C_19
                            x       y       z     vdW  Elec       q    Type
                         _______ _______ _______ _____ _____    ______ ____

>  <TORSDO>
F 4

$$$$
=
 OpenBabel11042411583D

 28 32  0  0  1  0  0  0  0  0999 V2000
  187.9020  178.2200  142.2740 C   0  0  1  0  0  3  0  0  0  0  0  0
  191.6480  177.1190  143.5240 O   0  0  0  0  0  0  0  0  0  0  0  0
  190.3930  176.9710  142.9430 C   0  0  1  0  0  0  0  0  0  0  0  0
  188.6910  178.2180  139.4950 S   0  0  0  0  0  0  0  0  0  0  0  0
  189.9570  177.5850  145.0800 O   0  0  0  0  0  0  0  0  0  0  0  0
  188.1720  177.6290  143.5450 O   0  0  0  0  0  0  0  0  0  0  0  0
  192.3800  177.5690  140.3050 C   0  0  0  0  0  1  0  0  0  0  0  0
  191.3530  177.4300  144.8830 C   0  0  1  0  0  3  0  0  0  0  0  0
  190.1860  177.2660  139.2050 C   0  0  0  0  0  0  0  0  0  0  0  0
  189.9730  175.4950  142.9860 C   0  0  0  0  0  1  0  0  0  0  0  0
  189.5390  177.8470  143.7900 C   0  0  2  0  0  3  0  0  0  0  0  0
  190.4440  176.8050  138.1050 O   0  0  0  0  0  0  0  0  0  0  0  0
  188.7540  177.5270  141.1690 C   0  0  1  0  0  3  0  0  0  0  0  0
  191.0070  176.9330  140.4110 C   0  0  2  0  0  3  0  0  0  0  0  0
  190.2360  177.5680  141.5520 C   0  0  2  0  0  3  0  0  0  0  0  0
  185.9760  179.1050  140.8890 C   0  0  0  0  0  1  0  0  0  0  0  0
  186.3990  178.1220  141.9690 C   0  0  2  0  0  3  0  0  0  0  0  0
  184.1620  178.5160  143.1940 C   0  0  0  0  0  0  0  0  0  0  0  0
  183.5380  178.6930  144.3910 N   0  0  0  0  0  0  0  0  0  0  0  0
  183.4060  178.5370  142.0120 C   0  0  0  0  0  3  0  0  0  0  0  0
  185.5820  178.3190  143.1690 N   0  0  0  0  0  2  0  0  0  0  0  0
  181.4130  178.9140  143.3220 C   0  0  0  0  0  3  0  0  0  0  0  0
  182.1940  178.8880  144.4790 C   0  0  0  0  0  3  0  0  0  0  0  0
  182.0260  178.7370  142.0820 C   0  0  0  0  0  3  0  0  0  0  0  0
  191.8930  176.3350  145.7900 C   0  0  0  0  0  2  0  0  0  0  0  0
  191.2620  176.4310  147.1650 C   0  0  0  0  0  3  0  0  0  0  0  0
  191.9970  175.6860  148.0600 O   0  0  0  0  0  0  0  0  0  0  0  0
  192.1470  177.0190  148.0380 O   0  0  0  0  0  0  0  0  0  0  0  0
  1 17  1  6  0  0  0
  1  6  1  0  0  0  0
  2  8  1  0  0  0  0
  3 10  1  1  0  0  0
  3  2  1  0  0  0  0
  3 11  1  0  0  0  0
  8  5  1  0  0  0  0
  8 25  1  1  0  0  0
  9  4  1  0  0  0  0
  9 14  1  0  0  0  0
 11  6  1  1  0  0  0
 11  5  1  0  0  0  0
 12  9  2  0  0  0  0
 13  4  1  6  0  0  0
 13 15  1  0  0  0  0
 13  1  1  0  0  0  0
 14  7  1  6  0  0  0
 14 15  1  0  0  0  0
 15  3  1  0  0  0  0
 16 17  1  0  0  0  0
 17 21  1  0  0  0  0
 18 19  2  0  0  0  0
 19 23  1  0  0  0  0
 20 24  2  0  0  0  0
 20 18  1  0  0  0  0
 21 18  1  0  0  0  0
 22 23  2  0  0  0  0
 24 22  1  0  0  0  0
 25 26  1  0  0  0  0
 26 28  1  0  0  0  0
 26 27  1  0  0  0  0
 28 27  1  0  0  0  0
M  END
>  <MODEL>
2

>  <REMARK>
 VINA RESULT:      -8.3      2.627      5.192
  Name = 
  4 active torsions:
  status: ('A' for Active; 'I' for Inactive)
    1  A    between atoms: C_1  and  C_17
    2  A    between atoms: C_9  and  C_19
    3  A    between atoms: N_12  and  C_17
    4  A    between atoms: C_14  and  C_19
                            x       y       z     vdW  Elec       q    Type
                         _______ _______ _______ _____ _____    ______ ____

>  <TORSDO>
F 4

$$$$
=
 OpenBabel11042411583D

 28 32  0  0  1  0  0  0  0  0999 V2000
  186.6480  177.7510  144.6280 C   0  0  1  0  0  3  0  0  0  0  0  0
  190.4470  176.4090  143.8690 O   0  0  0  0  0  0  0  0  0  0  0  0
  189.4490  177.3190  144.2050 C   0  0  1  0  0  0  0  0  0  0  0  0
  187.1430  177.9330  147.4680 S   0  0  0  0  0  0  0  0  0  0  0  0
  188.8730  176.5840  142.1400 O   0  0  0  0  0  0  0  0  0  0  0  0
  187.2720  177.8210  143.3460 O   0  0  0  0  0  0  0  0  0  0  0  0
  190.6210  176.3450  147.1960 C   0  0  0  0  0  1  0  0  0  0  0  0
  190.1090  176.0180  142.5410 C   0  0  1  0  0  3  0  0  0  0  0  0
  188.8960  177.9890  147.8580 C   0  0  0  0  0  0  0  0  0  0  0  0
  189.9140  178.7440  143.8740 C   0  0  0  0  0  1  0  0  0  0  0  0
  188.3050  176.8670  143.3670 C   0  0  2  0  0  3  0  0  0  0  0  0
  189.3000  178.4680  148.9050 O   0  0  0  0  0  0  0  0  0  0  0  0
  187.6740  178.1080  145.7440 C   0  0  1  0  0  3  0  0  0  0  0  0
  189.8330  177.5700  146.7700 C   0  0  2  0  0  3  0  0  0  0  0  0
  188.9080  177.2100  145.6240 C   0  0  2  0  0  3  0  0  0  0  0  0
  184.4440  178.2980  145.7470 C   0  0  0  0  0  1  0  0  0  0  0  0
  185.4320  178.6900  144.6610 C   0  0  2  0  0  3  0  0  0  0  0  0
  183.3300  178.7730  143.1650 C   0  0  0  0  0  0  0  0  0  0  0  0
  182.8400  178.8230  141.8960 N   0  0  0  0  0  0  0  0  0  0  0  0
  182.4380  178.7390  144.2480 C   0  0  0  0  0  3  0  0  0  0  0  0
  184.7500  178.7500  143.3660 N   0  0  0  0  0  2  0  0  0  0  0  0
  180.5900  178.8110  142.6970 C   0  0  0  0  0  3  0  0  0  0  0  0
  181.5040  178.8440  141.6420 C   0  0  0  0  0  3  0  0  0  0  0  0
  181.0640  178.7590  144.0080 C   0  0  0  0  0  3  0  0  0  0  0  0
  191.2150  176.4370  141.5850 C   0  0  0  0  0  2  0  0  0  0  0  0
  190.6220  176.9560  140.2900 C   0  0  0  0  0  3  0  0  0  0  0  0
  191.5890  176.9530  139.3100 O   0  0  0  0  0  0  0  0  0  0  0  0
  190.6750  175.9710  139.3310 O   0  0  0  0  0  0  0  0  0  0  0  0
  1 17  1  6  0  0  0
  1 13  1  0  0  0  0
  2  3  1  0  0  0  0
  3 10  1  6  0  0  0
  3 15  1  0  0  0  0
  4  9  1  0  0  0  0
  5  8  1  0  0  0  0
  6 11  1  0  0  0  0
  6  1  1  0  0  0  0
  8 25  1  6  0  0  0
  8  2  1  0  0  0  0
  9 12  2  0  0  0  0
 11  5  1  6  0  0  0
 11  3  1  0  0  0  0
 13  4  1  1  0  0  0
 14  7  1  1  0  0  0
 14  9  1  0  0  0  0
 15 13  1  0  0  0  0
 15 14  1  0  0  0  0
 17 16  1  0  0  0  0
 18 21  1  0  0  0  0
 18 20  1  0  0  0  0
 19 18  2  0  0  0  0
 21 17  1  0  0  0  0
 22 24  1  0  0  0  0
 23 19  1  0  0  0  0
 23 22  2  0  0  0  0
 24 20  2  0  0  0  0
 26 25  1  0  0  0  0
 27 28  1  0  0  0  0
 27 26  1  0  0  0  0
 28 26  1  0  0  0  0
M  END
>  <MODEL>
3

>  <REMARK>
 VINA RESULT:      -8.2      1.602      1.966
  Name = 
  4 active torsions:
  status: ('A' for Active; 'I' for Inactive)
    1  A    between atoms: C_1  and  C_17
    2  A    between atoms: C_9  and  C_19
    3  A    between atoms: N_12  and  C_17
    4  A    between atoms: C_14  and  C_19
                            x       y       z     vdW  Elec       q    Type
                         _______ _______ _______ _____ _____    ______ ____

>  <TORSDO>
F 4

$$$$
=
 OpenBabel11042411583D

 28 32  0  0  1  0  0  0  0  0999 V2000
  189.6910  176.9500  140.4690 C   0  0  1  0  0  3  0  0  0  0  0  0
  189.6220  177.0450  144.5670 O   0  0  0  0  0  0  0  0  0  0  0  0
  189.6730  177.5490  143.2710 C   0  0  1  0  0  0  0  0  0  0  0  0
  186.9920  177.9620  140.2750 S   0  0  0  0  0  0  0  0  0  0  0  0
  191.4820  176.1930  143.4220 O   0  0  0  0  0  0  0  0  0  0  0  0
  190.8650  176.9580  141.2820 O   0  0  0  0  0  0  0  0  0  0  0  0
  186.4220  177.8250  144.0620 C   0  0  0  0  0  1  0  0  0  0  0  0
  190.8060  176.2580  144.6660 C   0  0  1  0  0  3  0  0  0  0  0  0
  186.4530  178.7800  141.7800 C   0  0  0  0  0  0  0  0  0  0  0  0
  190.3540  178.9250  143.2770 C   0  0  0  0  0  1  0  0  0  0  0  0
  190.4580  176.5100  142.5510 C   0  0  2  0  0  3  0  0  0  0  0  0
  185.5550  179.6050  141.7710 O   0  0  0  0  0  0  0  0  0  0  0  0
  188.6260  177.9240  141.0570 C   0  0  1  0  0  3  0  0  0  0  0  0
  187.2680  178.5150  143.0080 C   0  0  2  0  0  3  0  0  0  0  0  0
  188.3490  177.5720  142.5200 C   0  0  2  0  0  3  0  0  0  0  0  0
  189.4050  178.6290  138.5960 C   0  0  0  0  0  1  0  0  0  0  0  0
  190.0620  177.3270  139.0260 C   0  0  2  0  0  3  0  0  0  0  0  0
  190.6370  175.2910  137.5470 C   0  0  0  0  0  0  0  0  0  0  0  0
  190.1780  174.3620  136.6660 N   0  0  0  0  0  0  0  0  0  0  0  0
  191.9910  175.2840  137.9140 C   0  0  0  0  0  3  0  0  0  0  0  0
  189.7250  176.2630  138.0780 N   0  0  0  0  0  2  0  0  0  0  0  0
  192.3470  173.3830  136.4700 C   0  0  0  0  0  3  0  0  0  0  0  0
  190.9950  173.4180  136.1260 C   0  0  0  0  0  3  0  0  0  0  0  0
  192.8450  174.3240  137.3700 C   0  0  0  0  0  3  0  0  0  0  0  0
  191.7210  176.8380  145.7330 C   0  0  0  0  0  2  0  0  0  0  0  0
  191.3920  176.2450  147.0890 C   0  0  0  0  0  3  0  0  0  0  0  0
  192.5170  175.6540  147.6170 O   0  0  0  0  0  0  0  0  0  0  0  0
  192.1470  176.8650  148.0580 O   0  0  0  0  0  0  0  0  0  0  0  0
  1 17  1  6  0  0  0
  1 13  1  0  0  0  0
  1  6  1  0  0  0  0
  2  8  1  0  0  0  0
  3 10  1  6  0  0  0
  3  2  1  0  0  0  0
  4  9  1  0  0  0  0
  5  8  1  0  0  0  0
  8 25  1  1  0  0  0
  9 14  1  0  0  0  0
 11  6  1  6  0  0  0
 11  3  1  0  0  0  0
 11  5  1  0  0  0  0
 12  9  2  0  0  0  0
 13  4  1  6  0  0  0
 13 15  1  0  0  0  0
 14  7  1  1  0  0  0
 15 14  1  0  0  0  0
 15  3  1  0  0  0  0
 16 17  1  0  0  0  0
 18 20  1  0  0  0  0
 18 21  1  0  0  0  0
 19 18  2  0  0  0  0
 21 17  1  0  0  0  0
 22 24  1  0  0  0  0
 23 22  2  0  0  0  0
 23 19  1  0  0  0  0
 24 20  2  0  0  0  0
 25 26  1  0  0  0  0
 26 27  1  0  0  0  0
 26 28  1  0  0  0  0
 27 28  1  0  0  0  0
M  END
>  <MODEL>
4

>  <REMARK>
 VINA RESULT:      -7.7      3.699      6.319
  Name = 
  4 active torsions:
  status: ('A' for Active; 'I' for Inactive)
    1  A    between atoms: C_1  and  C_17
    2  A    between atoms: C_9  and  C_19
    3  A    between atoms: N_12  and  C_17
    4  A    between atoms: C_14  and  C_19
                            x       y       z     vdW  Elec       q    Type
                         _______ _______ _______ _____ _____    ______ ____

>  <TORSDO>
F 4

$$$$
=
 OpenBabel11042411583D

 28 32  0  0  1  0  0  0  0  0999 V2000
  188.1310  178.7290  141.7930 C   0  0  1  0  0  3  0  0  0  0  0  0
  191.6560  177.1330  143.1490 O   0  0  0  0  0  0  0  0  0  0  0  0
  190.3930  177.1480  142.5650 C   0  0  1  0  0  0  0  0  0  0  0  0
  188.9120  178.4280  139.0280 S   0  0  0  0  0  0  0  0  0  0  0  0
  190.0580  177.9560  144.6550 O   0  0  0  0  0  0  0  0  0  0  0  0
  188.3030  178.1840  143.1010 O   0  0  0  0  0  0  0  0  0  0  0  0
  192.4520  177.2600  139.9160 C   0  0  0  0  0  1  0  0  0  0  0  0
  191.4110  177.5710  144.4830 C   0  0  1  0  0  3  0  0  0  0  0  0
  190.2380  177.2360  138.8130 C   0  0  0  0  0  0  0  0  0  0  0  0
  189.7460  175.7620  142.6950 C   0  0  0  0  0  1  0  0  0  0  0  0
  189.6870  178.1990  143.3470 C   0  0  2  0  0  3  0  0  0  0  0  0
  190.4220  176.6730  137.7470 O   0  0  0  0  0  0  0  0  0  0  0  0
  188.8640  177.8430  140.7420 C   0  0  1  0  0  3  0  0  0  0  0  0
  190.9950  176.8550  140.0470 C   0  0  2  0  0  3  0  0  0  0  0  0
  190.3330  177.6740  141.1370 C   0  0  2  0  0  3  0  0  0  0  0  0
  185.7730  178.2530  142.5830 C   0  0  0  0  0  1  0  0  0  0  0  0
  186.6310  178.8490  141.4790 C   0  0  2  0  0  3  0  0  0  0  0  0
  185.0660  178.4250  139.4710 C   0  0  0  0  0  0  0  0  0  0  0  0
  184.8860  177.7780  138.2870 N   0  0  0  0  0  0  0  0  0  0  0  0
  184.0500  179.2610  139.9610 C   0  0  0  0  0  3  0  0  0  0  0  0
  186.2890  178.2330  140.1950 N   0  0  0  0  0  2  0  0  0  0  0  0
  182.7180  178.7410  138.0160 C   0  0  0  0  0  3  0  0  0  0  0  0
  183.7470  177.9170  137.5570 C   0  0  0  0  0  3  0  0  0  0  0  0
  182.8740  179.4160  139.2270 C   0  0  0  0  0  3  0  0  0  0  0  0
  191.7720  176.4650  145.4610 C   0  0  0  0  0  2  0  0  0  0  0  0
  191.0750  176.6880  146.7890 C   0  0  0  0  0  3  0  0  0  0  0  0
  191.4500  175.7030  147.6750 O   0  0  0  0  0  0  0  0  0  0  0  0
  192.0150  176.9160  147.7690 O   0  0  0  0  0  0  0  0  0  0  0  0
  1 17  1  6  0  0  0
  1  6  1  0  0  0  0
  2  8  1  0  0  0  0
  3 10  1  1  0  0  0
  3  2  1  0  0  0  0
  3 11  1  0  0  0  0
  8  5  1  0  0  0  0
  8 25  1  1  0  0  0
  9  4  1  0  0  0  0
  9 14  1  0  0  0  0
 11  6  1  1  0  0  0
 11  5  1  0  0  0  0
 12  9  2  0  0  0  0
 13  4  1  6  0  0  0
 13 15  1  0  0  0  0
 13  1  1  0  0  0  0
 14  7  1  6  0  0  0
 14 15  1  0  0  0  0
 15  3  1  0  0  0  0
 17 16  1  0  0  0  0
 18 20  1  0  0  0  0
 18 21  1  0  0  0  0
 19 18  2  0  0  0  0
 21 17  1  0  0  0  0
 22 24  1  0  0  0  0
 23 22  2  0  0  0  0
 23 19  1  0  0  0  0
 24 20  2  0  0  0  0
 25 26  1  0  0  0  0
 26 27  1  0  0  0  0
 26 28  1  0  0  0  0
 27 28  1  0  0  0  0
M  END
>  <MODEL>
5

>  <REMARK>
 VINA RESULT:      -7.7      2.621      5.014
  Name = 
  4 active torsions:
  status: ('A' for Active; 'I' for Inactive)
    1  A    between atoms: C_1  and  C_17
    2  A    between atoms: C_9  and  C_19
    3  A    between atoms: N_12  and  C_17
    4  A    between atoms: C_14  and  C_19
                            x       y       z     vdW  Elec       q    Type
                         _______ _______ _______ _____ _____    ______ ____

>  <TORSDO>
F 4

$$$$
=
 OpenBabel11042411583D

 28 32  0  0  1  0  0  0  0  0999 V2000
  189.8130  177.7780  141.8700 C   0  0  1  0  0  3  0  0  0  0  0  0
  186.6780  178.3060  144.4570 O   0  0  0  0  0  0  0  0  0  0  0  0
  187.6580  177.6160  143.7510 C   0  0  1  0  0  0  0  0  0  0  0  0
  191.6800  177.3200  144.0260 S   0  0  0  0  0  0  0  0  0  0  0  0
  186.3820  178.5820  142.1470 O   0  0  0  0  0  0  0  0  0  0  0  0
  188.4430  177.6520  141.4900 O   0  0  0  0  0  0  0  0  0  0  0  0
  189.0980  178.1290  146.7400 C   0  0  0  0  0  1  0  0  0  0  0  0
  185.8430  178.8410  143.4330 C   0  0  1  0  0  3  0  0  0  0  0  0
  190.8630  176.8610  145.5580 C   0  0  0  0  0  0  0  0  0  0  0  0
  187.2440  176.1470  143.5910 C   0  0  0  0  0  1  0  0  0  0  0  0
  187.7080  178.3550  142.4610 C   0  0  2  0  0  3  0  0  0  0  0  0
  191.4490  176.2440  146.4330 O   0  0  0  0  0  0  0  0  0  0  0  0
  190.0430  177.1390  143.2720 C   0  0  1  0  0  3  0  0  0  0  0  0
  189.3930  177.1330  145.6340 C   0  0  2  0  0  3  0  0  0  0  0  0
  189.0760  177.7530  144.2880 C   0  0  2  0  0  3  0  0  0  0  0  0
  192.1670  177.5010  140.9790 C   0  0  0  0  0  1  0  0  0  0  0  0
  190.7050  177.1240  140.8020 C   0  0  2  0  0  3  0  0  0  0  0  0
  190.4740  176.6490  138.2750 C   0  0  0  0  0  0  0  0  0  0  0  0
  190.0130  177.0930  137.0740 N   0  0  0  0  0  0  0  0  0  0  0  0
  191.1450  175.4190  138.3460 C   0  0  0  0  0  3  0  0  0  0  0  0
  190.2670  177.4550  139.4440 N   0  0  0  0  0  2  0  0  0  0  0  0
  190.8450  175.1480  135.9660 C   0  0  0  0  0  3  0  0  0  0  0  0
  190.1810  176.3750  135.9310 C   0  0  0  0  0  3  0  0  0  0  0  0
  191.3280  174.6690  137.1830 C   0  0  0  0  0  3  0  0  0  0  0  0
  184.4470  178.2510  143.5470 C   0  0  0  0  0  2  0  0  0  0  0  0
  183.4850  179.2790  144.1110 C   0  0  0  0  0  3  0  0  0  0  0  0
  182.4300  178.6350  144.7180 O   0  0  0  0  0  0  0  0  0  0  0  0
  183.4130  179.1410  145.4780 O   0  0  0  0  0  0  0  0  0  0  0  0
  1 17  1  6  0  0  0
  1 13  1  0  0  0  0
  3 10  1  6  0  0  0
  3 15  1  0  0  0  0
  3  2  1  0  0  0  0
  4  9  1  0  0  0  0
  5 11  1  0  0  0  0
  5  8  1  0  0  0  0
  6  1  1  0  0  0  0
  8 25  1  6  0  0  0
  8  2  1  0  0  0  0
  9 14  1  0  0  0  0
  9 12  2  0  0  0  0
 11  6  1  6  0  0  0
 11  3  1  0  0  0  0
 13  4  1  1  0  0  0
 13 15  1  0  0  0  0
 14  7  1  1  0  0  0
 15 14  1  0  0  0  0
 17 16  1  0  0  0  0
 18 20  1  0  0  0  0
 18 21  1  0  0  0  0
 19 18  2  0  0  0  0
 21 17  1  0  0  0  0
 22 24  1  0  0  0  0
 23 22  2  0  0  0  0
 23 19  1  0  0  0  0
 24 20  2  0  0  0  0
 25 26  1  0  0  0  0
 26 27  1  0  0  0  0
 26 28  1  0  0  0  0
 27 28  1  0  0  0  0
M  END
>  <MODEL>
6

>  <REMARK>
 VINA RESULT:      -7.6      3.274      6.174
  Name = 
  4 active torsions:
  status: ('A' for Active; 'I' for Inactive)
    1  A    between atoms: C_1  and  C_17
    2  A    between atoms: C_9  and  C_19
    3  A    between atoms: N_12  and  C_17
    4  A    between atoms: C_14  and  C_19
                            x       y       z     vdW  Elec       q    Type
                         _______ _______ _______ _____ _____    ______ ____

>  <TORSDO>
F 4

$$$$
=
 OpenBabel11042411583D

 28 32  0  0  1  0  0  0  0  0999 V2000
  189.8170  177.4570  141.8430 C   0  0  1  0  0  3  0  0  0  0  0  0
  186.7180  178.3020  144.3910 O   0  0  0  0  0  0  0  0  0  0  0  0
  187.6700  177.5230  143.7400 C   0  0  1  0  0  0  0  0  0  0  0  0
  191.6800  177.1080  144.0230 S   0  0  0  0  0  0  0  0  0  0  0  0
  186.4170  178.4020  142.0680 O   0  0  0  0  0  0  0  0  0  0  0  0
  188.4410  177.3500  141.4800 O   0  0  0  0  0  0  0  0  0  0  0  0
  189.1450  178.2230  146.6720 C   0  0  0  0  0  1  0  0  0  0  0  0
  185.8960  178.7820  143.3300 C   0  0  1  0  0  3  0  0  0  0  0  0
  190.8570  176.8030  145.5900 C   0  0  0  0  0  0  0  0  0  0  0  0
  187.2030  176.0610  143.6990 C   0  0  0  0  0  1  0  0  0  0  0  0
  187.7370  178.1550  142.3930 C   0  0  2  0  0  3  0  0  0  0  0  0
  191.4260  176.2380  146.5090 O   0  0  0  0  0  0  0  0  0  0  0  0
  190.0330  176.9260  143.2920 C   0  0  1  0  0  3  0  0  0  0  0  0
  189.3980  177.1320  145.6490 C   0  0  2  0  0  3  0  0  0  0  0  0
  189.0950  177.6530  144.2580 C   0  0  2  0  0  3  0  0  0  0  0  0
  191.8100  177.5470  140.2850 C   0  0  0  0  0  1  0  0  0  0  0  0
  190.6790  176.6890  140.8290 C   0  0  2  0  0  3  0  0  0  0  0  0
  189.3590  176.9190  138.6230 C   0  0  0  0  0  0  0  0  0  0  0  0
  188.6250  176.2870  137.6670 N   0  0  0  0  0  0  0  0  0  0  0  0
  189.5850  178.3000  138.5180 C   0  0  0  0  0  3  0  0  0  0  0  0
  189.8800  176.1590  139.7210 N   0  0  0  0  0  2  0  0  0  0  0  0
  188.3080  178.3280  136.4690 C   0  0  0  0  0  3  0  0  0  0  0  0
  188.1020  176.9550  136.6030 C   0  0  0  0  0  3  0  0  0  0  0  0
  189.0560  179.0030  137.4340 C   0  0  0  0  0  3  0  0  0  0  0  0
  184.4810  178.2530  143.4970 C   0  0  0  0  0  2  0  0  0  0  0  0
  183.5990  179.3020  144.1450 C   0  0  0  0  0  3  0  0  0  0  0  0
  182.4490  178.7080  144.6140 O   0  0  0  0  0  0  0  0  0  0  0  0
  183.4320  179.0030  145.4780 O   0  0  0  0  0  0  0  0  0  0  0  0
  1 17  1  6  0  0  0
  1 13  1  0  0  0  0
  3 10  1  6  0  0  0
  3 15  1  0  0  0  0
  3  2  1  0  0  0  0
  4  9  1  0  0  0  0
  5 11  1  0  0  0  0
  5  8  1  0  0  0  0
  6  1  1  0  0  0  0
  8 25  1  1  0  0  0
  8  2  1  0  0  0  0
  9 14  1  0  0  0  0
  9 12  2  0  0  0  0
 11  6  1  6  0  0  0
 11  3  1  0  0  0  0
 13  4  1  1  0  0  0
 13 15  1  0  0  0  0
 14  7  1  1  0  0  0
 15 14  1  0  0  0  0
 16 17  1  0  0  0  0
 18 21  1  0  0  0  0
 19 18  2  0  0  0  0
 20 18  1  0  0  0  0
 21 17  1  0  0  0  0
 22 23  2  0  0  0  0
 22 24  1  0  0  0  0
 23 19  1  0  0  0  0
 24 20  2  0  0  0  0
 25 26  1  0  0  0  0
 26 27  1  0  0  0  0
 26 28  1  0  0  0  0
 27 28  1  0  0  0  0
M  END
>  <MODEL>
7

>  <REMARK>
 VINA RESULT:      -7.6      3.162      5.682
  Name = 
  4 active torsions:
  status: ('A' for Active; 'I' for Inactive)
    1  A    between atoms: C_1  and  C_17
    2  A    between atoms: C_9  and  C_19
    3  A    between atoms: N_12  and  C_17
    4  A    between atoms: C_14  and  C_19
                            x       y       z     vdW  Elec       q    Type
                         _______ _______ _______ _____ _____    ______ ____

>  <TORSDO>
F 4

$$$$
=
 OpenBabel11042411583D

 28 32  0  0  1  0  0  0  0  0999 V2000
  189.9740  177.4930  139.7920 C   0  0  1  0  0  3  0  0  0  0  0  0
  192.1620  176.2610  136.5510 O   0  0  0  0  0  0  0  0  0  0  0  0
  191.2100  176.1830  137.5630 C   0  0  1  0  0  0  0  0  0  0  0  0
  187.5960  177.8780  138.1990 S   0  0  0  0  0  0  0  0  0  0  0  0
  193.1700  176.4960  138.6550 O   0  0  0  0  0  0  0  0  0  0  0  0
  191.1800  176.7350  139.8910 O   0  0  0  0  0  0  0  0  0  0  0  0
  189.4090  177.1540  134.9010 C   0  0  0  0  0  1  0  0  0  0  0  0
  193.3930  176.3800  137.2600 C   0  0  1  0  0  3  0  0  0  0  0  0
  187.6590  176.9870  136.6410 C   0  0  0  0  0  0  0  0  0  0  0  0
  190.9330  174.7120  137.9020 C   0  0  0  0  0  1  0  0  0  0  0  0
  191.8590  176.9290  138.6750 C   0  0  2  0  0  3  0  0  0  0  0  0
  186.6420  176.6840  136.0390 O   0  0  0  0  0  0  0  0  0  0  0  0
  189.1050  176.9650  138.6120 C   0  0  1  0  0  3  0  0  0  0  0  0
  189.0060  176.4990  136.2090 C   0  0  2  0  0  3  0  0  0  0  0  0
  189.9260  176.9650  137.3200 C   0  0  2  0  0  3  0  0  0  0  0  0
  188.3020  178.6270  141.3170 C   0  0  0  0  0  1  0  0  0  0  0  0
  189.2130  177.4250  141.1250 C   0  0  2  0  0  3  0  0  0  0  0  0
  189.7300  177.2720  143.6490 C   0  0  0  0  0  0  0  0  0  0  0  0
  190.6900  177.1570  144.6070 N   0  0  0  0  0  0  0  0  0  0  0  0
  188.3830  177.3660  144.0310 C   0  0  0  0  0  3  0  0  0  0  0  0
  190.1190  177.3000  142.2690 N   0  0  0  0  0  2  0  0  0  0  0  0
  189.0540  177.2190  146.3450 C   0  0  0  0  0  3  0  0  0  0  0  0
  190.3840  177.1280  145.9320 C   0  0  0  0  0  3  0  0  0  0  0  0
  188.0490  177.3390  145.3850 C   0  0  0  0  0  3  0  0  0  0  0  0
  194.2740  175.1760  136.9660 C   0  0  0  0  0  2  0  0  0  0  0  0
  194.7530  174.5450  138.2590 C   0  0  0  0  0  3  0  0  0  0  0  0
  195.7740  173.6630  137.9880 O   0  0  0  0  0  0  0  0  0  0  0  0
  196.0710  174.8780  138.4730 O   0  0  0  0  0  0  0  0  0  0  0  0
  1  6  1  0  0  0  0
  1 17  1  1  0  0  0
  2  8  1  0  0  0  0
  2  3  1  0  0  0  0
  3 10  1  1  0  0  0
  3 11  1  0  0  0  0
  8 25  1  1  0  0  0
  8  5  1  0  0  0  0
  9  4  1  0  0  0  0
 11  5  1  1  0  0  0
 11  6  1  0  0  0  0
 12  9  2  0  0  0  0
 13  4  1  6  0  0  0
 13  1  1  0  0  0  0
 14  7  1  6  0  0  0
 14  9  1  0  0  0  0
 14 15  1  0  0  0  0
 15  3  1  0  0  0  0
 15 13  1  0  0  0  0
 17 16  1  0  0  0  0
 17 21  1  0  0  0  0
 18 20  1  0  0  0  0
 18 19  2  0  0  0  0
 19 23  1  0  0  0  0
 20 24  2  0  0  0  0
 21 18  1  0  0  0  0
 23 22  2  0  0  0  0
 24 22  1  0  0  0  0
 25 26  1  0  0  0  0
 26 28  1  0  0  0  0
 27 26  1  0  0  0  0
 27 28  1  0  0  0  0
M  END
>  <MODEL>
8

>  <REMARK>
 VINA RESULT:      -7.4      4.220      7.650
  Name = 
  4 active torsions:
  status: ('A' for Active; 'I' for Inactive)
    1  A    between atoms: C_1  and  C_17
    2  A    between atoms: C_9  and  C_19
    3  A    between atoms: N_12  and  C_17
    4  A    between atoms: C_14  and  C_19
                            x       y       z     vdW  Elec       q    Type
                         _______ _______ _______ _____ _____    ______ ____

>  <TORSDO>
F 4

$$$$
=
 OpenBabel11042411583D

 28 32  0  0  1  0  0  0  0  0999 V2000
  187.4020  177.5970  144.5870 C   0  0  1  0  0  3  0  0  0  0  0  0
  190.9070  176.5210  142.7520 O   0  0  0  0  0  0  0  0  0  0  0  0
  190.0300  177.3210  143.4790 C   0  0  1  0  0  0  0  0  0  0  0  0
  188.5130  177.2020  147.2240 S   0  0  0  0  0  0  0  0  0  0  0  0
  188.9960  177.0150  141.4860 O   0  0  0  0  0  0  0  0  0  0  0  0
  187.7310  177.9430  143.2420 O   0  0  0  0  0  0  0  0  0  0  0  0
  191.8050  175.7770  145.8730 C   0  0  0  0  0  1  0  0  0  0  0  0
  190.2760  176.4040  141.4800 C   0  0  1  0  0  3  0  0  0  0  0  0
  190.3100  177.2130  147.2220 C   0  0  0  0  0  0  0  0  0  0  0  0
  190.4470  178.7930  143.3540 C   0  0  0  0  0  1  0  0  0  0  0  0
  188.7190  177.0270  142.8390 C   0  0  2  0  0  3  0  0  0  0  0  0
  190.9460  177.4740  148.2300 O   0  0  0  0  0  0  0  0  0  0  0  0
  188.6570  177.7380  145.4990 C   0  0  1  0  0  3  0  0  0  0  0  0
  190.9740  177.0460  145.8910 C   0  0  2  0  0  3  0  0  0  0  0  0
  189.8110  176.9110  144.9280 C   0  0  2  0  0  3  0  0  0  0  0  0
  186.0840  178.4140  146.5890 C   0  0  0  0  0  1  0  0  0  0  0  0
  186.2470  178.4850  145.0790 C   0  0  2  0  0  3  0  0  0  0  0  0
  184.6420  178.4230  143.0580 C   0  0  0  0  0  0  0  0  0  0  0  0
  183.4180  178.0550  142.5910 N   0  0  0  0  0  0  0  0  0  0  0  0
  185.5440  179.0680  142.1980 C   0  0  0  0  0  3  0  0  0  0  0  0
  184.9800  178.1480  144.4250 N   0  0  0  0  0  2  0  0  0  0  0  0
  183.9110  178.9310  140.4250 C   0  0  0  0  0  3  0  0  0  0  0  0
  183.0380  178.2920  141.3060 C   0  0  0  0  0  3  0  0  0  0  0  0
  185.1720  179.3200  140.8770 C   0  0  0  0  0  3  0  0  0  0  0  0
  191.1540  177.0340  140.4110 C   0  0  0  0  0  2  0  0  0  0  0  0
  190.8990  176.3800  139.0670 C   0  0  0  0  0  3  0  0  0  0  0  0
  190.6530  177.3520  138.1230 O   0  0  0  0  0  0  0  0  0  0  0  0
  191.8650  176.7790  138.1700 O   0  0  0  0  0  0  0  0  0  0  0  0
  1 17  1  1  0  0  0
  1 13  1  0  0  0  0
  2  3  1  0  0  0  0
  3 10  1  6  0  0  0
  3 15  1  0  0  0  0
  6  1  1  0  0  0  0
  8 25  1  6  0  0  0
  8  5  1  0  0  0  0
  8  2  1  0  0  0  0
  9  4  1  0  0  0  0
  9 12  2  0  0  0  0
 11  5  1  6  0  0  0
 11  6  1  0  0  0  0
 11  3  1  0  0  0  0
 13  4  1  1  0  0  0
 14  7  1  1  0  0  0
 14  9  1  0  0  0  0
 15 13  1  0  0  0  0
 15 14  1  0  0  0  0
 17 16  1  0  0  0  0
 18 21  1  0  0  0  0
 19 18  2  0  0  0  0
 20 18  1  0  0  0  0
 21 17  1  0  0  0  0
 22 24  1  0  0  0  0
 22 23  2  0  0  0  0
 23 19  1  0  0  0  0
 24 20  2  0  0  0  0
 26 25  1  0  0  0  0
 27 28  1  0  0  0  0
 27 26  1  0  0  0  0
 28 26  1  0  0  0  0
M  END
>  <MODEL>
9

>  <REMARK>
 VINA RESULT:      -7.3      1.654      2.222
  Name = 
  4 active torsions:
  status: ('A' for Active; 'I' for Inactive)
    1  A    between atoms: C_1  and  C_17
    2  A    between atoms: C_9  and  C_19
    3  A    between atoms: N_12  and  C_17
    4  A    between atoms: C_14  and  C_19
                            x       y       z     vdW  Elec       q    Type
                         _______ _______ _______ _____ _____    ______ ____

>  <TORSDO>
F 4

$$$$
