=
 OpenBabel11042413083D

 32 33  0  0  1  0  0  0  0  0999 V2000
  188.6800  177.4830  140.0370 C   0  0  1  0  0  3  0  0  0  0  0  0
  189.5330  177.1090  141.1550 N   0  0  0  0  0  0  0  0  0  0  0  0
  190.8230  177.1100  141.0460 C   0  0  0  0  0  3  0  0  0  0  0  0
  191.7850  175.7730  144.2460 O   0  0  0  0  0  0  0  0  0  0  0  0
  191.6620  176.7570  142.1510 N   0  0  0  0  0  2  0  0  0  0  0  0
  191.2450  176.6500  143.5200 C   0  0  0  0  0  0  0  0  0  0  0  0
  190.5060  178.8540  144.2780 C   0  0  0  0  0  2  0  0  0  0  0  0
  190.2420  177.5620  144.1180 C   0  0  0  0  0  0  0  0  0  0  0  0
  189.0050  177.0050  144.7530 C   0  0  0  0  0  2  0  0  0  0  0  0
  188.0970  177.8730  146.7820 O   0  0  0  0  0  0  0  0  0  0  0  0
  189.0200  177.2200  146.2300 C   0  0  0  0  0  0  0  0  0  0  0  0
  190.0690  176.7260  146.9930 O   0  0  0  0  0  1  0  0  0  0  0  0
  187.9770  179.2640  141.4520 O   0  0  0  0  0  0  0  0  0  0  0  0
  186.4260  178.6170  139.8340 N   0  0  0  0  0  2  0  0  0  0  0  0
  187.6910  178.5050  140.4870 C   0  0  0  0  0  0  0  0  0  0  0  0
  185.4830  179.5650  140.2450 N   0  0  0  0  0  2  0  0  0  0  0  0
  181.3220  178.5010  143.0110 N   0  0  0  0  0  0  0  0  0  0  0  0
  181.9510  178.8240  140.7180 C   0  0  0  0  0  3  0  0  0  0  0  0
  184.1730  178.8860  145.1840 C   0  0  0  0  0  0  0  0  0  0  0  0
  183.2860  179.0610  141.0570 C   0  0  0  0  0  0  0  0  0  0  0  0
  185.2040  179.1690  144.2810 C   0  0  0  0  0  3  0  0  0  0  0  0
  182.9060  178.6690  144.7430 N   0  0  0  0  0  0  0  0  0  0  0  0
  184.4560  178.8220  146.5760 N   0  0  0  0  0  1  0  0  0  0  0  0
  184.1160  179.3070  140.0820 N   0  0  0  0  0  0  0  0  0  0  0  0
  182.5950  178.7210  143.4230 C   0  0  0  0  0  0  0  0  0  0  0  0
  184.9440  179.2350  142.9120 C   0  0  0  0  0  3  0  0  0  0  0  0
  183.6520  179.0180  142.4260 C   0  0  1  0  0  3  0  0  0  0  0  0
  180.9890  178.5490  141.6950 C   0  0  0  0  0  3  0  0  0  0  0  0
  189.5110  178.0520  138.8930 C   0  0  0  0  0  2  0  0  0  0  0  0
  189.0110  177.5440  137.5560 C   0  0  0  0  0  2  0  0  0  0  0  0
  187.1730  176.2860  136.8750 C   0  0  0  0  0  1  0  0  0  0  0  0
  188.3330  176.2740  137.7450 N   0  0  0  0  0  2  0  0  0  0  0  0
  1 29  1  6  0  0  0
  1 15  1  0  0  0  0
  1  2  1  0  0  0  0
  3  2  2  0  0  0  0
  3  5  1  0  0  0  0
  5  6  1  0  0  0  0
  6  8  1  0  0  0  0
  6  4  2  0  0  0  0
  8  7  2  0  0  0  0
  8  9  1  0  0  0  0
  9 11  1  0  0  0  0
 11 10  2  0  0  0  0
 11 12  1  0  0  0  0
 14 16  1  0  0  0  0
 14 15  1  0  0  0  0
 15 13  2  0  0  0  0
 17 25  2  0  0  0  0
 18 20  1  0  0  0  0
 18 28  2  0  0  0  0
 19 23  1  0  0  0  0
 20 27  1  0  0  0  0
 21 19  1  0  0  0  0
 22 19  2  0  0  0  0
 24 16  1  0  0  0  0
 24 20  2  0  0  0  0
 25 22  1  0  0  0  0
 26 21  2  0  0  0  0
 27 26  1  6  0  0  0
 27 25  1  0  0  0  0
 28 17  1  0  0  0  0
 30 32  1  0  0  0  0
 30 29  1  0  0  0  0
 31 32  1  0  0  0  0
M  END
>  <MODEL>
1

>  <REMARK>
 VINA RESULT:      -7.7      0.000      0.000
  Name = 
  10 active torsions:
  status: ('A' for Active; 'I' for Inactive)
    1  A    between atoms: N_1  and  C_5
    2  A    between atoms: C_4  and  N_18
    3  A    between atoms: C_4  and  C_30
    4  A    between atoms: C_5  and  C_28
    5  A    between atoms: C_5  and  C_30
    6  A    between atoms: N_6  and  N_17
    7  A    between atoms: N_6  and  N_23
    8  A    between atoms: C_20  and  C_24
    9  A    between atoms: C_20  and  C_31
   10  A    between atoms: C_22  and  C_24
                            x       y       z     vdW  Elec       q    Type
                         _______ _______ _______ _____ _____    ______ ____

>  <TORSDO>
F 10

$$$$
=
 OpenBabel11042413083D

 32 33  0  0  1  0  0  0  0  0999 V2000
  190.3150  177.5750  139.7100 C   0  0  1  0  0  3  0  0  0  0  0  0
  189.3650  177.7090  138.6150 N   0  0  0  0  0  0  0  0  0  0  0  0
  189.1340  178.8570  138.0640 C   0  0  0  0  0  3  0  0  0  0  0  0
  186.4930  178.0000  135.7750 O   0  0  0  0  0  0  0  0  0  0  0  0
  188.2110  178.9860  136.9770 N   0  0  0  0  0  2  0  0  0  0  0  0
  187.6750  177.9060  136.1990 C   0  0  0  0  0  0  0  0  0  0  0  0
  189.5580  176.8210  135.0770 C   0  0  0  0  0  2  0  0  0  0  0  0
  188.4760  176.7120  135.8410 C   0  0  0  0  0  0  0  0  0  0  0  0
  187.9580  175.3400  136.1450 C   0  0  0  0  0  2  0  0  0  0  0  0
  189.6960  174.3870  137.4730 O   0  0  0  0  0  1  0  0  0  0  0  0
  189.0800  174.3840  136.3760 C   0  0  0  0  0  0  0  0  0  0  0  0
  189.4670  173.5120  135.3680 O   0  0  0  0  0  0  0  0  0  0  0  0
  190.0370  176.1950  141.6300 O   0  0  0  0  0  0  0  0  0  0  0  0
  188.4000  177.8330  141.3450 N   0  0  0  0  0  0  0  0  0  0  0  0
  189.5920  177.1550  140.9460 C   0  0  0  0  0  0  0  0  0  0  0  0
  187.7040  177.4500  142.4970 N   0  0  0  0  0  0  0  0  0  0  0  0
  184.5090  178.8200  146.2390 N   0  0  0  0  0  0  0  0  0  0  0  0
  184.5140  178.5590  143.8540 C   0  0  0  0  0  3  0  0  0  0  0  0
  187.7380  178.0060  147.6210 C   0  0  0  0  0  0  0  0  0  0  0  0
  185.8520  178.1560  143.8430 C   0  0  0  0  0  0  0  0  0  0  0  0
  188.4740  177.6610  146.4820 C   0  0  0  0  0  3  0  0  0  0  0  0
  186.4360  178.3830  147.5160 N   0  0  0  0  0  0  0  0  0  0  0  0
  188.3570  177.9580  148.9000 N   0  0  0  0  0  1  0  0  0  0  0  0
  186.3810  177.8680  142.6860 N   0  0  0  0  0  0  0  0  0  0  0  0
  185.8080  178.4400  146.3140 C   0  0  0  0  0  0  0  0  0  0  0  0
  187.8820  177.7010  145.2200 C   0  0  0  0  0  3  0  0  0  0  0  0
  186.5450  178.0850  145.0770 C   0  0  1  0  0  3  0  0  0  0  0  0
  183.8610  178.8850  145.0470 C   0  0  0  0  0  3  0  0  0  0  0  0
  191.3820  176.5410  139.3730 C   0  0  0  0  0  2  0  0  0  0  0  0
  192.7720  177.1190  139.5560 C   0  0  0  0  0  2  0  0  0  0  0  0
  193.0610  175.6080  137.8080 C   0  0  0  0  0  1  0  0  0  0  0  0
  193.5690  176.8430  138.3750 N   0  0  0  0  0  2  0  0  0  0  0  0
  1 29  1  6  0  0  0
  1 15  1  0  0  0  0
  2  1  1  0  0  0  0
  3  2  2  0  0  0  0
  4  6  2  0  0  0  0
  5  3  1  0  0  0  0
  6  5  1  0  0  0  0
  7  8  2  0  0  0  0
  8  9  1  0  0  0  0
  8  6  1  0  0  0  0
  9 11  1  0  0  0  0
 11 10  1  0  0  0  0
 12 11  2  0  0  0  0
 14 16  2  0  0  0  0
 15 14  1  0  0  0  0
 15 13  2  0  0  0  0
 16 24  1  0  0  0  0
 17 25  2  0  0  0  0
 18 28  2  0  0  0  0
 19 23  1  0  0  0  0
 20 18  1  0  0  0  0
 20 27  1  0  0  0  0
 21 19  1  0  0  0  0
 22 19  2  0  0  0  0
 24 20  2  0  0  0  0
 25 22  1  0  0  0  0
 26 21  2  0  0  0  0
 27 26  1  1  0  0  0
 27 25  1  0  0  0  0
 28 17  1  0  0  0  0
 29 30  1  0  0  0  0
 31 32  1  0  0  0  0
 32 30  1  0  0  0  0
M  END
>  <MODEL>
2

>  <REMARK>
 VINA RESULT:      -7.3      3.086      6.068
  Name = 
  10 active torsions:
  status: ('A' for Active; 'I' for Inactive)
    1  A    between atoms: N_1  and  C_5
    2  A    between atoms: C_4  and  N_18
    3  A    between atoms: C_4  and  C_30
    4  A    between atoms: C_5  and  C_28
    5  A    between atoms: C_5  and  C_30
    6  A    between atoms: N_6  and  N_17
    7  A    between atoms: N_6  and  N_23
    8  A    between atoms: C_20  and  C_24
    9  A    between atoms: C_20  and  C_31
   10  A    between atoms: C_22  and  C_24
                            x       y       z     vdW  Elec       q    Type
                         _______ _______ _______ _____ _____    ______ ____

>  <TORSDO>
F 10

$$$$
=
 OpenBabel11042413083D

 32 33  0  0  1  0  0  0  0  0999 V2000
  190.6820  177.3130  138.6980 C   0  0  1  0  0  3  0  0  0  0  0  0
  189.3060  177.4740  138.2530 N   0  0  0  0  0  0  0  0  0  0  0  0
  188.8660  178.6140  137.8270 C   0  0  0  0  0  3  0  0  0  0  0  0
  185.3840  177.8620  137.3190 O   0  0  0  0  0  0  0  0  0  0  0  0
  187.5160  178.7670  137.3750 N   0  0  0  0  0  2  0  0  0  0  0  0
  186.6080  177.7000  137.0680 C   0  0  0  0  0  0  0  0  0  0  0  0
  187.3770  176.4080  135.1400 C   0  0  0  0  0  2  0  0  0  0  0  0
  187.0510  176.4400  136.4280 C   0  0  0  0  0  0  0  0  0  0  0  0
  186.9280  175.1400  137.1610 C   0  0  0  0  0  2  0  0  0  0  0  0
  184.6370  174.5170  136.9180 O   0  0  0  0  0  1  0  0  0  0  0  0
  185.8330  174.3040  136.5870 C   0  0  0  0  0  0  0  0  0  0  0  0
  186.1340  173.2710  135.7110 O   0  0  0  0  0  0  0  0  0  0  0  0
  191.8360  177.5350  140.7680 O   0  0  0  0  0  0  0  0  0  0  0  0
  189.5360  177.1910  140.9510 N   0  0  0  0  0  0  0  0  0  0  0  0
  190.7310  177.3570  140.1880 C   0  0  0  0  0  0  0  0  0  0  0  0
  189.5620  177.2230  142.3500 N   0  0  0  0  0  0  0  0  0  0  0  0
  187.8560  177.4380  147.1590 N   0  0  0  0  0  0  0  0  0  0  0  0
  187.0350  177.7190  144.9220 C   0  0  0  0  0  3  0  0  0  0  0  0
  191.3670  176.6190  147.1400 C   0  0  0  0  0  0  0  0  0  0  0  0
  188.2880  177.4470  144.3660 C   0  0  0  0  0  0  0  0  0  0  0  0
  191.6650  176.6030  145.7730 C   0  0  0  0  0  3  0  0  0  0  0  0
  190.1070  176.8950  147.5720 N   0  0  0  0  0  0  0  0  0  0  0  0
  192.3910  176.3400  148.0860 N   0  0  0  0  0  1  0  0  0  0  0  0
  188.3850  177.4720  143.0660 N   0  0  0  0  0  0  0  0  0  0  0  0
  189.1020  177.1650  146.7010 C   0  0  0  0  0  0  0  0  0  0  0  0
  190.6710  176.8720  144.8310 C   0  0  0  0  0  3  0  0  0  0  0  0
  189.3670  177.1610  145.2410 C   0  0  1  0  0  3  0  0  0  0  0  0
  186.8350  177.7120  146.3060 C   0  0  0  0  0  3  0  0  0  0  0  0
  191.2540  175.9870  138.2120 C   0  0  0  0  0  2  0  0  0  0  0  0
  192.2990  176.2100  137.1360 C   0  0  0  0  0  2  0  0  0  0  0  0
  194.1470  175.0770  137.9880 C   0  0  0  0  0  1  0  0  0  0  0  0
  193.5970  176.4000  137.7570 N   0  0  0  0  0  2  0  0  0  0  0  0
  1 29  1  1  0  0  0
  1 15  1  0  0  0  0
  2  1  1  0  0  0  0
  3  2  2  0  0  0  0
  5  3  1  0  0  0  0
  6  4  2  0  0  0  0
  6  5  1  0  0  0  0
  7  8  2  0  0  0  0
  8  6  1  0  0  0  0
  8  9  1  0  0  0  0
 11 10  1  0  0  0  0
 11  9  1  0  0  0  0
 12 11  2  0  0  0  0
 14 16  2  0  0  0  0
 15 13  2  0  0  0  0
 15 14  1  0  0  0  0
 16 24  1  0  0  0  0
 18 28  2  0  0  0  0
 19 22  2  0  0  0  0
 19 23  1  0  0  0  0
 20 18  1  0  0  0  0
 20 27  1  0  0  0  0
 21 19  1  0  0  0  0
 24 20  2  0  0  0  0
 25 17  2  0  0  0  0
 25 22  1  0  0  0  0
 26 21  2  0  0  0  0
 27 26  1  6  0  0  0
 27 25  1  0  0  0  0
 28 17  1  0  0  0  0
 30 32  1  0  0  0  0
 30 29  1  0  0  0  0
 32 31  1  0  0  0  0
M  END
>  <MODEL>
3

>  <REMARK>
 VINA RESULT:      -7.2      3.857      7.161
  Name = 
  10 active torsions:
  status: ('A' for Active; 'I' for Inactive)
    1  A    between atoms: N_1  and  C_5
    2  A    between atoms: C_4  and  N_18
    3  A    between atoms: C_4  and  C_30
    4  A    between atoms: C_5  and  C_28
    5  A    between atoms: C_5  and  C_30
    6  A    between atoms: N_6  and  N_17
    7  A    between atoms: N_6  and  N_23
    8  A    between atoms: C_20  and  C_24
    9  A    between atoms: C_20  and  C_31
   10  A    between atoms: C_22  and  C_24
                            x       y       z     vdW  Elec       q    Type
                         _______ _______ _______ _____ _____    ______ ____

>  <TORSDO>
F 10

$$$$
=
 OpenBabel11042413083D

 32 33  0  0  1  0  0  0  0  0999 V2000
  188.7830  177.9270  139.5140 C   0  0  1  0  0  3  0  0  0  0  0  0
  187.4420  178.4820  139.4060 N   0  0  0  0  0  0  0  0  0  0  0  0
  186.7030  178.2540  138.3680 C   0  0  0  0  0  3  0  0  0  0  0  0
  183.8440  180.3150  139.0950 O   0  0  0  0  0  0  0  0  0  0  0  0
  185.3780  178.7870  138.2690 N   0  0  0  0  0  2  0  0  0  0  0  0
  184.6190  179.3540  139.3470 C   0  0  0  0  0  0  0  0  0  0  0  0
  185.4760  179.3770  141.6370 C   0  0  0  0  0  2  0  0  0  0  0  0
  184.6820  178.8220  140.7270 C   0  0  0  0  0  0  0  0  0  0  0  0
  184.0230  177.5190  141.0610 C   0  0  0  0  0  2  0  0  0  0  0  0
  182.8640  176.4970  139.2430 O   0  0  0  0  0  0  0  0  0  0  0  0
  182.8160  177.2970  140.2130 C   0  0  0  0  0  0  0  0  0  0  0  0
  181.6460  177.9980  140.4730 O   0  0  0  0  0  1  0  0  0  0  0  0
  190.1750  177.0900  141.2540 O   0  0  0  0  0  0  0  0  0  0  0  0
  187.9630  177.5030  141.8710 N   0  0  0  0  0  2  0  0  0  0  0  0
  189.0260  177.4850  140.9180 C   0  0  0  0  0  0  0  0  0  0  0  0
  188.1700  177.0860  143.1900 N   0  0  0  0  0  2  0  0  0  0  0  0
  188.1690  177.9250  148.2280 N   0  0  0  0  0  0  0  0  0  0  0  0
  186.6860  178.1120  146.3520 C   0  0  0  0  0  3  0  0  0  0  0  0
  191.3900  176.6780  147.1930 C   0  0  0  0  0  0  0  0  0  0  0  0
  187.6570  177.6390  145.4640 C   0  0  0  0  0  0  0  0  0  0  0  0
  191.2180  176.5070  145.8160 C   0  0  0  0  0  2  0  0  0  0  0  0
  190.3730  177.1440  147.9670 N   0  0  0  0  0  0  0  0  0  0  0  0
  192.6390  176.3560  147.7910 N   0  0  0  0  0  1  0  0  0  0  0  0
  187.3210  177.5400  144.2070 N   0  0  0  0  0  0  0  0  0  0  0  0
  189.1650  177.4610  147.4350 C   0  0  0  0  0  0  0  0  0  0  0  0
  189.9980  176.8160  145.2130 C   0  0  0  0  0  3  0  0  0  0  0  0
  188.9330  177.2980  145.9780 C   0  0  0  0  0  0  0  0  0  0  0  0
  186.9530  178.2490  147.7180 C   0  0  0  0  0  3  0  0  0  0  0  0
  188.9530  176.7400  138.5730 C   0  0  0  0  0  2  0  0  0  0  0  0
  190.2590  176.8370  137.8100 C   0  0  0  0  0  2  0  0  0  0  0  0
  192.5000  176.3460  138.2110 C   0  0  0  0  0  1  0  0  0  0  0  0
  191.1600  175.7930  138.2620 N   0  0  0  0  0  2  0  0  0  0  0  0
  1 29  1  6  0  0  0
  1 15  1  0  0  0  0
  2  1  1  0  0  0  0
  3  2  2  0  0  0  0
  4  6  2  0  0  0  0
  5  3  1  0  0  0  0
  5  6  1  0  0  0  0
  6  8  1  0  0  0  0
  8  9  1  0  0  0  0
  8  7  2  0  0  0  0
 10 11  2  0  0  0  0
 11 12  1  0  0  0  0
 11  9  1  0  0  0  0
 14 16  1  0  0  0  0
 15 13  2  0  0  0  0
 15 14  1  0  0  0  0
 16 24  1  0  0  0  0
 18 28  2  0  0  0  0
 19 23  1  0  0  0  0
 19 22  2  0  0  0  0
 20 27  1  0  0  0  0
 20 18  1  0  0  0  0
 21 19  1  0  0  0  0
 24 20  2  0  0  0  0
 25 22  1  0  0  0  0
 25 17  2  0  0  0  0
 26 21  1  0  0  0  0
 26 27  2  0  0  0  0
 27 25  1  0  0  0  0
 28 17  1  0  0  0  0
 30 32  1  0  0  0  0
 30 29  1  0  0  0  0
 31 32  1  0  0  0  0
M  END
>  <MODEL>
4

>  <REMARK>
 VINA RESULT:      -7.2      3.091      6.642
  Name = 
  10 active torsions:
  status: ('A' for Active; 'I' for Inactive)
    1  A    between atoms: N_1  and  C_5
    2  A    between atoms: C_4  and  N_18
    3  A    between atoms: C_4  and  C_30
    4  A    between atoms: C_5  and  C_28
    5  A    between atoms: C_5  and  C_30
    6  A    between atoms: N_6  and  N_17
    7  A    between atoms: N_6  and  N_23
    8  A    between atoms: C_20  and  C_24
    9  A    between atoms: C_20  and  C_31
   10  A    between atoms: C_22  and  C_24
                            x       y       z     vdW  Elec       q    Type
                         _______ _______ _______ _____ _____    ______ ____

>  <TORSDO>
F 10

$$$$
=
 OpenBabel11042413083D

 32 33  0  0  1  0  0  0  0  0999 V2000
  189.9960  177.8380  139.4670 C   0  0  1  0  0  3  0  0  0  0  0  0
  189.2050  177.8350  138.2460 N   0  0  0  0  0  0  0  0  0  0  0  0
  189.7540  177.6360  137.0910 C   0  0  0  0  0  3  0  0  0  0  0  0
  186.9440  178.1370  134.8980 O   0  0  0  0  0  0  0  0  0  0  0  0
  188.9730  177.6170  135.8910 N   0  0  0  0  0  2  0  0  0  0  0  0
  187.5420  177.5230  135.8220 C   0  0  0  0  0  0  0  0  0  0  0  0
  187.2530  175.5700  137.2640 C   0  0  0  0  0  2  0  0  0  0  0  0
  186.7550  176.6970  136.7670 C   0  0  0  0  0  0  0  0  0  0  0  0
  185.3080  177.0000  137.0030 C   0  0  0  0  0  2  0  0  0  0  0  0
  184.2180  177.7190  139.0000 O   0  0  0  0  0  1  0  0  0  0  0  0
  185.1360  177.9210  138.1640 C   0  0  0  0  0  0  0  0  0  0  0  0
  185.9690  179.0220  138.3050 O   0  0  0  0  0  0  0  0  0  0  0  0
  187.8790  177.6950  140.5470 O   0  0  0  0  0  0  0  0  0  0  0  0
  189.6890  176.9530  141.8180 N   0  0  0  0  0  2  0  0  0  0  0  0
  189.1210  177.4960  140.6260 C   0  0  0  0  0  0  0  0  0  0  0  0
  188.8860  176.6310  142.9180 N   0  0  0  0  0  2  0  0  0  0  0  0
  187.6220  177.9860  147.6770 N   0  0  0  0  0  0  0  0  0  0  0  0
  189.4820  177.0540  146.4840 C   0  0  0  0  0  3  0  0  0  0  0  0
  184.8640  178.6290  145.4460 C   0  0  0  0  0  0  0  0  0  0  0  0
  188.7960  177.0930  145.2670 C   0  0  0  0  0  0  0  0  0  0  0  0
  185.3700  178.2090  144.2120 C   0  0  0  0  0  2  0  0  0  0  0  0
  185.6230  178.5480  146.5720 N   0  0  0  0  0  0  0  0  0  0  0  0
  183.5430  179.1510  145.5230 N   0  0  0  0  0  1  0  0  0  0  0  0
  189.4260  176.6610  144.2100 N   0  0  0  0  0  0  0  0  0  0  0  0
  186.8880  178.0570  146.5410 C   0  0  0  0  0  0  0  0  0  0  0  0
  186.6650  177.6960  144.1190 C   0  0  0  0  0  3  0  0  0  0  0  0
  187.4710  177.5970  145.2560 C   0  0  0  0  0  0  0  0  0  0  0  0
  188.8890  177.4980  147.6700 C   0  0  0  0  0  3  0  0  0  0  0  0
  191.1330  176.8280  139.3750 C   0  0  0  0  0  2  0  0  0  0  0  0
  192.4150  177.4020  139.9440 C   0  0  0  0  0  2  0  0  0  0  0  0
  193.0010  176.2200  138.0250 C   0  0  0  0  0  1  0  0  0  0  0  0
  193.5460  176.9100  139.1790 N   0  0  0  0  0  2  0  0  0  0  0  0
  1 29  1  6  0  0  0
  1 15  1  0  0  0  0
  2  1  1  0  0  0  0
  3  2  2  0  0  0  0
  4  6  2  0  0  0  0
  5  3  1  0  0  0  0
  6  5  1  0  0  0  0
  6  8  1  0  0  0  0
  8  9  1  0  0  0  0
  8  7  2  0  0  0  0
  9 11  1  0  0  0  0
 11 12  2  0  0  0  0
 11 10  1  0  0  0  0
 13 15  2  0  0  0  0
 14 16  1  0  0  0  0
 15 14  1  0  0  0  0
 16 24  1  0  0  0  0
 18 28  2  0  0  0  0
 19 23  1  0  0  0  0
 19 22  2  0  0  0  0
 20 18  1  0  0  0  0
 21 19  1  0  0  0  0
 24 20  2  0  0  0  0
 25 22  1  0  0  0  0
 25 17  2  0  0  0  0
 26 21  1  0  0  0  0
 26 27  2  0  0  0  0
 27 20  1  0  0  0  0
 27 25  1  0  0  0  0
 28 17  1  0  0  0  0
 29 30  1  0  0  0  0
 31 32  1  0  0  0  0
 32 30  1  0  0  0  0
M  END
>  <MODEL>
5

>  <REMARK>
 VINA RESULT:      -7.2      3.118      6.376
  Name = 
  10 active torsions:
  status: ('A' for Active; 'I' for Inactive)
    1  A    between atoms: N_1  and  C_5
    2  A    between atoms: C_4  and  N_18
    3  A    between atoms: C_4  and  C_30
    4  A    between atoms: C_5  and  C_28
    5  A    between atoms: C_5  and  C_30
    6  A    between atoms: N_6  and  N_17
    7  A    between atoms: N_6  and  N_23
    8  A    between atoms: C_20  and  C_24
    9  A    between atoms: C_20  and  C_31
   10  A    between atoms: C_22  and  C_24
                            x       y       z     vdW  Elec       q    Type
                         _______ _______ _______ _____ _____    ______ ____

>  <TORSDO>
F 10

$$$$
=
 OpenBabel11042413083D

 32 33  0  0  1  0  0  0  0  0999 V2000
  191.9230  176.3720  137.9160 C   0  0  1  0  0  3  0  0  0  0  0  0
  190.7620  176.7380  137.1180 N   0  0  0  0  0  0  0  0  0  0  0  0
  190.0610  175.8410  136.5030 C   0  0  0  0  0  3  0  0  0  0  0  0
  187.7320  177.9090  134.6990 O   0  0  0  0  0  0  0  0  0  0  0  0
  188.9100  176.2000  135.7300 N   0  0  0  0  0  2  0  0  0  0  0  0
  188.2380  177.4680  135.7650 C   0  0  0  0  0  0  0  0  0  0  0  0
  188.8160  179.3330  137.2380 C   0  0  0  0  0  2  0  0  0  0  0  0
  188.0810  178.2480  137.0140 C   0  0  0  0  0  0  0  0  0  0  0  0
  187.2540  177.7070  138.1400 C   0  0  0  0  0  2  0  0  0  0  0  0
  185.4300  179.1240  138.7390 O   0  0  0  0  0  1  0  0  0  0  0  0
  185.8380  178.1660  138.0320 C   0  0  0  0  0  0  0  0  0  0  0  0
  184.9610  177.5150  137.1760 O   0  0  0  0  0  0  0  0  0  0  0  0
  192.5570  177.4000  139.9670 O   0  0  0  0  0  0  0  0  0  0  0  0
  190.4750  176.3490  139.9920 N   0  0  0  0  0  2  0  0  0  0  0  0
  191.6830  176.7420  139.3410 C   0  0  0  0  0  0  0  0  0  0  0  0
  190.2340  176.6820  141.3290 N   0  0  0  0  0  2  0  0  0  0  0  0
  187.5840  177.5040  145.6170 N   0  0  0  0  0  0  0  0  0  0  0  0
  187.2320  177.4340  143.2450 C   0  0  0  0  0  3  0  0  0  0  0  0
  191.0340  176.8300  146.4190 C   0  0  0  0  0  0  0  0  0  0  0  0
  188.5750  177.1360  142.9960 C   0  0  0  0  0  0  0  0  0  0  0  0
  191.6030  176.6330  145.1560 C   0  0  0  0  0  3  0  0  0  0  0  0
  189.7100  177.1140  146.5460 N   0  0  0  0  0  0  0  0  0  0  0  0
  191.8470  176.7270  147.5800 N   0  0  0  0  0  1  0  0  0  0  0  0
  188.9330  176.9820  141.7520 N   0  0  0  0  0  0  0  0  0  0  0  0
  188.8990  177.2190  145.4620 C   0  0  0  0  0  0  0  0  0  0  0  0
  190.8190  176.7280  144.0060 C   0  0  0  0  0  3  0  0  0  0  0  0
  189.4560  177.0190  144.1010 C   0  0  2  0  0  3  0  0  0  0  0  0
  186.7550  177.6140  144.5470 C   0  0  0  0  0  3  0  0  0  0  0  0
  192.1910  174.8750  137.8210 C   0  0  0  0  0  2  0  0  0  0  0  0
  193.6760  174.5980  137.6910 C   0  0  0  0  0  2  0  0  0  0  0  0
  195.3780  175.2190  136.2280 C   0  0  0  0  0  1  0  0  0  0  0  0
  194.3290  175.7420  137.0820 N   0  0  0  0  0  2  0  0  0  0  0  0
  1 29  1  1  0  0  0
  1 15  1  0  0  0  0
  2  1  1  0  0  0  0
  3  2  2  0  0  0  0
  4  6  2  0  0  0  0
  5  6  1  0  0  0  0
  5  3  1  0  0  0  0
  6  8  1  0  0  0  0
  8  7  2  0  0  0  0
  8  9  1  0  0  0  0
 11  9  1  0  0  0  0
 11 10  1  0  0  0  0
 12 11  2  0  0  0  0
 14 16  1  0  0  0  0
 15 13  2  0  0  0  0
 15 14  1  0  0  0  0
 16 24  1  0  0  0  0
 18 28  2  0  0  0  0
 19 22  2  0  0  0  0
 19 23  1  0  0  0  0
 20 18  1  0  0  0  0
 20 27  1  0  0  0  0
 21 19  1  0  0  0  0
 24 20  2  0  0  0  0
 25 17  2  0  0  0  0
 25 22  1  0  0  0  0
 26 21  2  0  0  0  0
 27 26  1  6  0  0  0
 27 25  1  0  0  0  0
 28 17  1  0  0  0  0
 30 29  1  0  0  0  0
 31 32  1  0  0  0  0
 32 30  1  0  0  0  0
M  END
>  <MODEL>
6

>  <REMARK>
 VINA RESULT:      -7.2      3.878      6.863
  Name = 
  10 active torsions:
  status: ('A' for Active; 'I' for Inactive)
    1  A    between atoms: N_1  and  C_5
    2  A    between atoms: C_4  and  N_18
    3  A    between atoms: C_4  and  C_30
    4  A    between atoms: C_5  and  C_28
    5  A    between atoms: C_5  and  C_30
    6  A    between atoms: N_6  and  N_17
    7  A    between atoms: N_6  and  N_23
    8  A    between atoms: C_20  and  C_24
    9  A    between atoms: C_20  and  C_31
   10  A    between atoms: C_22  and  C_24
                            x       y       z     vdW  Elec       q    Type
                         _______ _______ _______ _____ _____    ______ ____

>  <TORSDO>
F 10

$$$$
=
 OpenBabel11042413083D

 32 33  0  0  1  0  0  0  0  0999 V2000
  190.3790  177.5870  139.5220 C   0  0  1  0  0  3  0  0  0  0  0  0
  189.4490  177.7680  138.4170 N   0  0  0  0  0  0  0  0  0  0  0  0
  189.8040  177.5310  137.1950 C   0  0  0  0  0  3  0  0  0  0  0  0
  186.8630  178.5870  135.4090 O   0  0  0  0  0  0  0  0  0  0  0  0
  188.8840  177.6950  136.1100 N   0  0  0  0  0  2  0  0  0  0  0  0
  187.4620  177.8430  136.2310 C   0  0  0  0  0  0  0  0  0  0  0  0
  186.5660  175.7940  137.2200 C   0  0  0  0  0  2  0  0  0  0  0  0
  186.6730  177.1180  137.2540 C   0  0  0  0  0  0  0  0  0  0  0  0
  185.8030  177.8760  138.2080 C   0  0  0  0  0  2  0  0  0  0  0  0
  183.9310  177.5020  136.7780 O   0  0  0  0  0  0  0  0  0  0  0  0
  184.3600  177.5920  137.9570 C   0  0  0  0  0  0  0  0  0  0  0  0
  183.4820  177.4600  139.0240 O   0  0  0  0  0  1  0  0  0  0  0  0
  190.0570  176.2740  141.4820 O   0  0  0  0  0  0  0  0  0  0  0  0
  188.4120  177.8810  141.0880 N   0  0  0  0  0  0  0  0  0  0  0  0
  189.6230  177.2040  140.7490 C   0  0  0  0  0  0  0  0  0  0  0  0
  187.6860  177.5330  142.2310 N   0  0  0  0  0  0  0  0  0  0  0  0
  184.4110  178.8670  145.9160 N   0  0  0  0  0  0  0  0  0  0  0  0
  184.4910  178.7040  143.5240 C   0  0  0  0  0  3  0  0  0  0  0  0
  187.5570  177.8770  147.3720 C   0  0  0  0  0  0  0  0  0  0  0  0
  185.8140  178.2520  143.5410 C   0  0  0  0  0  0  0  0  0  0  0  0
  188.3200  177.5520  146.2460 C   0  0  0  0  0  3  0  0  0  0  0  0
  186.2730  178.3060  147.2390 N   0  0  0  0  0  0  0  0  0  0  0  0
  188.1280  177.7540  148.6680 N   0  0  0  0  0  1  0  0  0  0  0  0
  186.3730  177.9920  142.3920 N   0  0  0  0  0  0  0  0  0  0  0  0
  185.6910  178.4370  146.0200 C   0  0  0  0  0  0  0  0  0  0  0  0
  187.7750  177.6650  144.9670 C   0  0  0  0  0  3  0  0  0  0  0  0
  186.4590  178.1040  144.7950 C   0  0  2  0  0  3  0  0  0  0  0  0
  183.8080  179.0050  144.7070 C   0  0  0  0  0  3  0  0  0  0  0  0
  191.3970  176.5010  139.1960 C   0  0  0  0  0  2  0  0  0  0  0  0
  192.8120  177.0250  139.3400 C   0  0  0  0  0  2  0  0  0  0  0  0
  193.0560  175.4940  137.6020 C   0  0  0  0  0  1  0  0  0  0  0  0
  193.5540  176.7530  138.1220 N   0  0  0  0  0  2  0  0  0  0  0  0
  1 29  1  6  0  0  0
  1 15  1  0  0  0  0
  2  1  1  0  0  0  0
  3  2  2  0  0  0  0
  4  6  2  0  0  0  0
  5  6  1  0  0  0  0
  5  3  1  0  0  0  0
  6  8  1  0  0  0  0
  7  8  2  0  0  0  0
  8  9  1  0  0  0  0
 10 11  2  0  0  0  0
 11  9  1  0  0  0  0
 11 12  1  0  0  0  0
 14 16  2  0  0  0  0
 15 14  1  0  0  0  0
 15 13  2  0  0  0  0
 16 24  1  0  0  0  0
 17 25  2  0  0  0  0
 18 20  1  0  0  0  0
 18 28  2  0  0  0  0
 19 23  1  0  0  0  0
 20 27  1  0  0  0  0
 21 19  1  0  0  0  0
 22 19  2  0  0  0  0
 24 20  2  0  0  0  0
 25 22  1  0  0  0  0
 26 21  2  0  0  0  0
 27 26  1  6  0  0  0
 27 25  1  0  0  0  0
 28 17  1  0  0  0  0
 29 30  1  0  0  0  0
 31 32  1  0  0  0  0
 32 30  1  0  0  0  0
M  END
>  <MODEL>
7

>  <REMARK>
 VINA RESULT:      -7.2      2.834      5.785
  Name = 
  10 active torsions:
  status: ('A' for Active; 'I' for Inactive)
    1  A    between atoms: N_1  and  C_5
    2  A    between atoms: C_4  and  N_18
    3  A    between atoms: C_4  and  C_30
    4  A    between atoms: C_5  and  C_28
    5  A    between atoms: C_5  and  C_30
    6  A    between atoms: N_6  and  N_17
    7  A    between atoms: N_6  and  N_23
    8  A    between atoms: C_20  and  C_24
    9  A    between atoms: C_20  and  C_31
   10  A    between atoms: C_22  and  C_24
                            x       y       z     vdW  Elec       q    Type
                         _______ _______ _______ _____ _____    ______ ____

>  <TORSDO>
F 10

$$$$
=
 OpenBabel11042413083D

 32 33  0  0  1  0  0  0  0  0999 V2000
  190.1470  177.5890  139.4710 C   0  0  1  0  0  3  0  0  0  0  0  0
  189.1990  177.0070  138.5330 N   0  0  0  0  0  0  0  0  0  0  0  0
  188.1130  177.6280  138.2030 C   0  0  0  0  0  3  0  0  0  0  0  0
  186.5050  175.1560  136.1410 O   0  0  0  0  0  0  0  0  0  0  0  0
  187.1880  177.0620  137.2680 N   0  0  0  0  0  2  0  0  0  0  0  0
  187.4480  175.9500  136.3990 C   0  0  0  0  0  0  0  0  0  0  0  0
  189.4330  176.7420  135.2100 C   0  0  0  0  0  2  0  0  0  0  0  0
  188.7680  175.7320  135.7630 C   0  0  0  0  0  0  0  0  0  0  0  0
  189.2720  174.3410  135.5340 C   0  0  0  0  0  2  0  0  0  0  0  0
  190.3560  173.8100  137.5920 O   0  0  0  0  0  1  0  0  0  0  0  0
  189.3840  173.5950  136.8220 C   0  0  0  0  0  0  0  0  0  0  0  0
  188.4350  172.6390  137.1560 O   0  0  0  0  0  0  0  0  0  0  0  0
  188.8580  178.4240  141.2900 O   0  0  0  0  0  0  0  0  0  0  0  0
  189.9080  176.3780  141.6810 N   0  0  0  0  0  2  0  0  0  0  0  0
  189.5960  177.5000  140.8540 C   0  0  0  0  0  0  0  0  0  0  0  0
  189.4070  176.2800  142.9830 N   0  0  0  0  0  2  0  0  0  0  0  0
  189.4610  177.6240  147.9100 N   0  0  0  0  0  0  0  0  0  0  0  0
  190.9500  176.7480  146.2460 C   0  0  0  0  0  3  0  0  0  0  0  0
  186.1730  178.1560  146.5310 C   0  0  0  0  0  0  0  0  0  0  0  0
  189.9530  176.7550  145.2670 C   0  0  0  0  0  0  0  0  0  0  0  0
  186.3330  177.7440  145.2030 C   0  0  0  0  0  2  0  0  0  0  0  0
  187.2150  178.1090  147.4020 N   0  0  0  0  0  0  0  0  0  0  0  0
  184.9070  178.6330  146.9710 N   0  0  0  0  0  1  0  0  0  0  0  0
  190.2810  176.3370  144.0760 N   0  0  0  0  0  0  0  0  0  0  0  0
  188.4390  177.6620  147.0210 C   0  0  0  0  0  0  0  0  0  0  0  0
  187.5680  177.2760  144.7540 C   0  0  0  0  0  3  0  0  0  0  0  0
  188.6600  177.2130  145.6240 C   0  0  0  0  0  0  0  0  0  0  0  0
  190.6930  177.1800  147.5510 C   0  0  0  0  0  3  0  0  0  0  0  0
  191.4820  176.8580  139.4100 C   0  0  0  0  0  2  0  0  0  0  0  0
  191.9600  176.7220  137.9780 C   0  0  0  0  0  2  0  0  0  0  0  0
  193.7100  175.2160  137.6750 C   0  0  0  0  0  1  0  0  0  0  0  0
  193.4070  176.6050  137.9600 N   0  0  0  0  0  2  0  0  0  0  0  0
  1 29  1  1  0  0  0
  1 15  1  0  0  0  0
  2  1  1  0  0  0  0
  3  2  2  0  0  0  0
  4  6  2  0  0  0  0
  5  3  1  0  0  0  0
  6  5  1  0  0  0  0
  7  8  2  0  0  0  0
  8  6  1  0  0  0  0
  9  8  1  0  0  0  0
  9 11  1  0  0  0  0
 11 12  2  0  0  0  0
 11 10  1  0  0  0  0
 14 16  1  0  0  0  0
 15 13  2  0  0  0  0
 15 14  1  0  0  0  0
 16 24  1  0  0  0  0
 18 28  2  0  0  0  0
 19 23  1  0  0  0  0
 19 22  2  0  0  0  0
 20 27  1  0  0  0  0
 20 18  1  0  0  0  0
 21 19  1  0  0  0  0
 24 20  2  0  0  0  0
 25 22  1  0  0  0  0
 25 17  2  0  0  0  0
 26 21  1  0  0  0  0
 26 27  2  0  0  0  0
 27 25  1  0  0  0  0
 28 17  1  0  0  0  0
 30 29  1  0  0  0  0
 31 32  1  0  0  0  0
 32 30  1  0  0  0  0
M  END
>  <MODEL>
8

>  <REMARK>
 VINA RESULT:      -7.1      3.431      6.980
  Name = 
  10 active torsions:
  status: ('A' for Active; 'I' for Inactive)
    1  A    between atoms: N_1  and  C_5
    2  A    between atoms: C_4  and  N_18
    3  A    between atoms: C_4  and  C_30
    4  A    between atoms: C_5  and  C_28
    5  A    between atoms: C_5  and  C_30
    6  A    between atoms: N_6  and  N_17
    7  A    between atoms: N_6  and  N_23
    8  A    between atoms: C_20  and  C_24
    9  A    between atoms: C_20  and  C_31
   10  A    between atoms: C_22  and  C_24
                            x       y       z     vdW  Elec       q    Type
                         _______ _______ _______ _____ _____    ______ ____

>  <TORSDO>
F 10

$$$$
=
 OpenBabel11042413083D

 32 33  0  0  1  0  0  0  0  0999 V2000
  185.1120  179.1570  142.6760 C   0  0  1  0  0  3  0  0  0  0  0  0
  186.0080  178.7110  143.7320 N   0  0  0  0  0  0  0  0  0  0  0  0
  185.6000  177.9150  144.6680 C   0  0  0  0  0  3  0  0  0  0  0  0
  188.5170  177.7730  146.7700 O   0  0  0  0  0  0  0  0  0  0  0  0
  186.4860  177.4640  145.6980 N   0  0  0  0  0  2  0  0  0  0  0  0
  187.9170  177.5730  145.6810 C   0  0  0  0  0  0  0  0  0  0  0  0
  188.5420  176.3550  143.6550 C   0  0  0  0  0  2  0  0  0  0  0  0
  188.7100  177.4140  144.4400 C   0  0  0  0  0  0  0  0  0  0  0  0
  189.8670  178.3250  144.1650 C   0  0  0  0  0  2  0  0  0  0  0  0
  191.7290  177.4520  142.9570 O   0  0  0  0  0  0  0  0  0  0  0  0
  191.1410  177.5560  144.0650 C   0  0  0  0  0  0  0  0  0  0  0  0
  191.6640  176.9280  145.1870 O   0  0  0  0  0  1  0  0  0  0  0  0
  185.2900  179.6660  140.3580 O   0  0  0  0  0  0  0  0  0  0  0  0
  187.1630  178.6340  141.2890 N   0  0  0  0  0  2  0  0  0  0  0  0
  185.8450  179.1750  141.3770 C   0  0  0  0  0  0  0  0  0  0  0  0
  187.8640  178.6360  140.0780 N   0  0  0  0  0  2  0  0  0  0  0  0
  189.3160  175.5990  136.2370 N   0  0  0  0  0  0  0  0  0  0  0  0
  187.3310  176.6570  137.0700 C   0  0  0  0  0  3  0  0  0  0  0  0
  192.1510  176.3730  138.3250 C   0  0  0  0  0  0  0  0  0  0  0  0
  188.0190  177.2390  138.1390 C   0  0  0  0  0  0  0  0  0  0  0  0
  191.5860  177.1950  139.3070 C   0  0  0  0  0  3  0  0  0  0  0  0
  191.3850  175.8610  137.3250 N   0  0  0  0  0  0  0  0  0  0  0  0
  193.5400  176.0740  138.3730 N   0  0  0  0  0  1  0  0  0  0  0  0
  187.3320  177.9820  138.9600 N   0  0  0  0  0  2  0  0  0  0  0  0
  190.0560  176.1230  137.2440 C   0  0  0  0  0  0  0  0  0  0  0  0
  190.2250  177.4990  139.2750 C   0  0  0  0  0  3  0  0  0  0  0  0
  189.4090  176.9890  138.2610 C   0  0  2  0  0  3  0  0  0  0  0  0
  187.9840  175.8470  136.1360 C   0  0  0  0  0  2  0  0  0  0  0  0
  183.9080  178.2300  142.5650 C   0  0  0  0  0  2  0  0  0  0  0  0
  182.6120  179.0130  142.6460 C   0  0  0  0  0  2  0  0  0  0  0  0
  180.7100  178.5410  143.9050 C   0  0  0  0  0  1  0  0  0  0  0  0
  182.0970  178.9540  144.0020 N   0  0  0  0  0  2  0  0  0  0  0  0
  1 29  1  6  0  0  0
  1  2  1  0  0  0  0
  2  3  2  0  0  0  0
  3  5  1  0  0  0  0
  6  5  1  0  0  0  0
  6  4  2  0  0  0  0
  7  8  2  0  0  0  0
  8  6  1  0  0  0  0
  9  8  1  0  0  0  0
 10 11  2  0  0  0  0
 11  9  1  0  0  0  0
 11 12  1  0  0  0  0
 13 15  2  0  0  0  0
 14 15  1  0  0  0  0
 15  1  1  0  0  0  0
 16 14  1  0  0  0  0
 17 25  2  0  0  0  0
 18 20  2  0  0  0  0
 19 23  1  0  0  0  0
 19 21  1  0  0  0  0
 20 27  1  0  0  0  0
 20 24  1  0  0  0  0
 22 19  2  0  0  0  0
 24 16  1  0  0  0  0
 25 22  1  0  0  0  0
 25 27  1  0  0  0  0
 26 21  2  0  0  0  0
 27 26  1  1  0  0  0
 28 17  1  0  0  0  0
 28 18  1  0  0  0  0
 29 30  1  0  0  0  0
 30 32  1  0  0  0  0
 31 32  1  0  0  0  0
M  END
>  <MODEL>
9

>  <REMARK>
 VINA RESULT:      -7.0      1.851      6.886
  Name = 
  10 active torsions:
  status: ('A' for Active; 'I' for Inactive)
    1  A    between atoms: N_1  and  C_5
    2  A    between atoms: C_4  and  N_18
    3  A    between atoms: C_4  and  C_30
    4  A    between atoms: C_5  and  C_28
    5  A    between atoms: C_5  and  C_30
    6  A    between atoms: N_6  and  N_17
    7  A    between atoms: N_6  and  N_23
    8  A    between atoms: C_20  and  C_24
    9  A    between atoms: C_20  and  C_31
   10  A    between atoms: C_22  and  C_24
                            x       y       z     vdW  Elec       q    Type
                         _______ _______ _______ _____ _____    ______ ____

>  <TORSDO>
F 10

$$$$
