=
 OpenBabel11032419213D

 70 77  0  0  1  0  0  0  0  0999 V2000
  192.9550  175.2500  137.8860 C   0  0  0  0  0  0  0  0  0  0  0  0
  186.8160  178.4520  143.7650 C   0  0  0  0  0  2  0  0  0  0  0  0
  185.6840  179.4380  143.5600 C   0  0  0  0  0  2  0  0  0  0  0  0
  181.0040  181.9070  139.3480 C   0  0  0  0  0  2  0  0  0  0  0  0
  189.7160  175.5430  139.5570 C   0  0  0  0  0  2  0  0  0  0  0  0
  188.4620  176.2940  139.1290 C   0  0  1  0  0  3  0  0  0  0  0  0
  185.0410  179.8470  137.5240 C   0  0  0  0  0  2  0  0  0  0  0  0
  183.7200  181.6890  138.3300 O   0  0  0  0  0  0  0  0  0  0  0  0
  190.6200  175.2250  138.3610 C   0  0  1  0  0  3  0  0  0  0  0  0
  180.5170  179.5920  142.7070 C   0  0  1  0  0  3  0  0  0  0  0  0
  181.5900  178.6850  143.3340 C   0  0  1  0  0  3  0  0  0  0  0  0
  189.9080  177.5080  137.3830 C   0  0  0  0  0  2  0  0  0  0  0  0
  191.4950  176.0830  136.0770 C   0  0  0  0  0  2  0  0  0  0  0  0
  190.3250  176.0640  137.0810 C   0  0  1  0  0  3  0  0  0  0  0  0
  185.4040  179.2720  138.8900 C   0  0  2  0  0  3  0  0  0  0  0  0
  188.6540  177.4490  142.4340 C   0  0  0  0  0  0  0  0  0  0  0  0
  182.1460  179.2570  144.4920 O   0  0  0  0  0  0  0  0  0  0  0  0
  187.5140  176.6020  140.2590 C   0  0  0  0  0  0  0  0  0  0  0  0
  187.8850  178.7050  142.7240 C   0  0  0  0  0  2  0  0  0  0  0  0
  180.7010  180.4530  139.2280 C   0  0  0  0  0  3  0  0  0  0  0  0
  184.8540  181.3570  137.5890 C   0  0  0  0  0  2  0  0  0  0  0  0
  189.9850  177.4350  142.3920 C   0  0  0  0  0  3  0  0  0  0  0  0
  184.5240  179.0630  144.4500 C   0  0  0  0  0  2  0  0  0  0  0  0
  192.0070  175.3330  138.7580 N   0  0  0  0  0  0  0  0  0  0  0  0
  186.3300  178.0560  138.7550 C   0  0  1  0  0  3  0  0  0  0  0  0
  182.7060  181.8660  137.3870 C   0  0  0  0  0  2  0  0  0  0  0  0
  192.6130  175.1010  136.4320 C   0  0  0  0  0  2  0  0  0  0  0  0
  187.6520  178.4540  138.0530 C   0  0  0  0  0  2  0  0  0  0  0  0
  180.3910  179.7730  140.2920 C   0  0  0  0  0  0  0  0  0  0  0  0
  186.5660  177.4530  140.0570 N   0  0  0  0  0  0  0  0  0  0  0  0
  180.0950  179.0910  141.3650 C   0  0  0  0  0  3  0  0  0  0  0  0
  188.8670  177.6290  138.5010 C   0  0  1  0  0  3  0  0  0  0  0  0
  183.3140  179.8900  144.0650 C   0  0  0  0  0  2  0  0  0  0  0  0
  181.4820  182.5300  138.0310 C   0  0  1  0  0  3  0  0  0  0  0  0
  187.7620  175.9750  141.9280 S   0  0  0  0  0  0  0  0  0  0  0  0
  196.1090  177.3340  140.0730 O   0  0  0  0  0  1  0  0  0  0  0  0
  194.4870  175.5480  139.8220 C   0  0  0  0  0  2  0  0  0  0  0  0
  195.8630  175.9870  140.3460 C   0  0  1  0  0  3  0  0  0  0  0  0
  197.3070  174.9640  138.4470 C   0  0  1  0  0  3  0  0  0  0  0  0
  196.9250  173.8440  140.5370 O   0  0  0  0  0  1  0  0  0  0  0  0
  197.0600  175.1050  139.9550 C   0  0  2  0  0  3  0  0  0  0  0  0
  197.1890  176.1930  137.7880 O   0  0  0  0  0  0  0  0  0  0  0  0
  196.0550  176.0640  136.9780 C   0  0  2  0  0  3  0  0  0  0  0  0
  198.6880  174.3880  138.1990 C   0  0  0  0  0  1  0  0  0  0  0  0
  196.2530  176.8500  135.6970 C   0  0  0  0  0  1  0  0  0  0  0  0
  194.9270  176.5450  137.6520 O   0  0  0  0  0  0  0  0  0  0  0  0
  194.3820  175.4270  138.2980 C   0  0  2  0  0  3  0  0  0  0  0  0
  179.8540  177.0000  143.2090 C   0  0  2  0  0  3  0  0  0  0  0  0
  180.8380  176.4960  142.2450 N   0  0  0  0  0  2  0  0  0  0  0  0
  181.2510  177.1790  143.4780 C   0  0  1  0  0  0  0  0  0  0  0  0
  180.3470  176.8650  144.5880 N   0  0  0  0  0  2  0  0  0  0  0  0
  179.1330  181.0900  143.5630 C   0  0  0  0  0  1  0  0  0  0  0  0
  179.4110  179.7240  143.5510 O   0  0  0  0  0  0  0  0  0  0  0  0
  184.1440  178.9590  139.7060 C   0  0  0  0  0  2  0  0  0  0  0  0
  184.3790  177.8620  140.7350 C   0  0  0  0  0  1  0  0  0  0  0  0
  191.3850  178.7020  143.8940 C   0  0  0  0  0  2  0  0  0  0  0  0
  190.8040  178.6070  142.7100 C   0  0  0  0  0  3  0  0  0  0  0  0
  180.4310  182.8300  137.1340 O   0  0  0  0  0  0  0  0  0  0  0  0
  179.6400  181.6840  136.9400 C   0  0  0  0  0  2  0  0  0  0  0  0
  179.1030  181.6390  135.5200 C   0  0  2  0  0  3  0  0  0  0  0  0
  179.9480  180.6520  134.7310 C   0  0  0  0  0  2  0  0  0  0  0  0
  180.0040  179.3020  135.4220 C   0  0  0  0  0  2  0  0  0  0  0  0
  180.8540  178.3600  134.5940 C   0  0  0  0  0  2  0  0  0  0  0  0
  183.1020  177.7150  134.7000 C   0  0  0  0  0  2  0  0  0  0  0  0
  181.8340  177.7050  135.4420 N   0  0  0  0  0  0  0  0  0  0  0  0
  182.2830  176.5130  134.7080 C   0  0  0  0  0  2  0  0  0  0  0  0
  179.1810  183.0240  134.8990 C   0  0  0  0  0  2  0  0  0  0  0  0
  180.6110  183.5320  134.8870 C   0  0  0  0  0  2  0  0  0  0  0  0
  180.8430  184.2870  136.0360 O   0  0  0  0  0  0  0  0  0  0  0  0
  181.0330  185.5860  135.5660 C   0  0  0  0  0  1  0  0  0  0  0  0
  1 24  2  0  0  0  0
  3  2  1  0  0  0  0
  3 23  1  0  0  0  0
  6  5  1  1  0  0  0
  6 18  1  0  0  0  0
  7 21  1  0  0  0  0
  7 15  1  0  0  0  0
  9 24  1  0  0  0  0
  9  5  1  1  0  0  0
 10 11  1  0  0  0  0
 10 53  1  1  0  0  0
 11 50  1  0  0  0  0
 11 17  1  1  0  0  0
 13 27  1  0  0  0  0
 14 13  1  6  0  0  0
 14 12  1  0  0  0  0
 14  9  1  0  0  0  0
 15 54  1  6  0  0  0
 16 19  1  0  0  0  0
 18 35  1  0  0  0  0
 19  2  1  0  0  0  0
 20  4  1  0  0  0  0
 20 29  2  0  0  0  0
 21  8  1  0  0  0  0
 22 16  2  0  0  0  0
 22 57  1  0  0  0  0
 25 28  1  1  0  0  0
 25 15  1  0  0  0  0
 25 30  1  0  0  0  0
 26 34  1  0  0  0  0
 26  8  1  0  0  0  0
 27  1  1  0  0  0  0
 28 32  1  0  0  0  0
 29 31  2  0  0  0  0
 30 18  2  0  0  0  0
 31 10  1  0  0  0  0
 32 12  1  6  0  0  0
 32  6  1  0  0  0  0
 33 23  1  0  0  0  0
 33 17  1  0  0  0  0
 34 58  1  6  0  0  0
 34  4  1  0  0  0  0
 35 16  1  0  0  0  0
 37 38  1  0  0  0  0
 38 36  1  6  0  0  0
 39 44  1  1  0  0  0
 39 41  1  0  0  0  0
 41 38  1  0  0  0  0
 41 40  1  6  0  0  0
 42 39  1  0  0  0  0
 43 45  1  6  0  0  0
 43 46  1  0  0  0  0
 43 42  1  0  0  0  0
 46 47  1  0  0  0  0
 47  1  1  1  0  0  0
 47 37  1  0  0  0  0
 48 49  1  6  0  0  0
 48 50  1  0  0  0  0
 48 51  1  0  0  0  0
 50 49  1  6  0  0  0
 50 51  1  0  0  0  0
 53 52  1  0  0  0  0
 54 55  1  0  0  0  0
 57 56  2  0  0  0  0
 59 58  1  0  0  0  0
 60 61  1  6  0  0  0
 60 59  1  0  0  0  0
 61 62  1  0  0  0  0
 63 62  1  0  0  0  0
 63 65  1  0  0  0  0
 64 66  1  0  0  0  0
 64 65  1  0  0  0  0
 66 65  1  0  0  0  0
 67 60  1  0  0  0  0
 68 67  1  0  0  0  0
 68 69  1  0  0  0  0
 70 69  1  0  0  0  0
M  END
>  <MODEL>
1

>  <REMARK>
 VINA RESULT:      18.1      0.000      0.000
  Name = 
  15 active torsions:
  status: ('A' for Active; 'I' for Inactive)
    1  A    between atoms: C_1  and  C_6
    2  A    between atoms: C_1  and  C_18
    3  A    between atoms: O_2  and  C_44
    4  A    between atoms: C_5  and  C_34
    5  A    between atoms: C_6  and  C_11
    6  A    between atoms: C_7  and  C_70
    7  A    between atoms: C_11  and  N_57
    8  A    between atoms: C_18  and  C_54
    9  A    between atoms: C_18  and  C_58
   10  A    between atoms: C_24  and  O_36
   11  A    between atoms: C_25  and  C_50
   12  A    between atoms: O_31  and  C_54
   13  A    between atoms: O_31  and  C_65
   14  A    between atoms: C_38  and  C_43
   15  A    between atoms: C_44  and  C_58
                            x       y       z     vdW  Elec       q    Type
                         _______ _______ _______ _____ _____    ______ ____

>  <TORSDO>
F 15

$$$$
=
 OpenBabel11032419213D

 70 77  0  0  1  0  0  0  0  0999 V2000
  192.8740  175.7430  138.5770 C   0  0  0  0  0  0  0  0  0  0  0  0
  186.3810  178.5360  144.2820 C   0  0  0  0  0  2  0  0  0  0  0  0
  185.2110  179.4690  144.0520 C   0  0  0  0  0  2  0  0  0  0  0  0
  180.5670  181.7850  139.7150 C   0  0  0  0  0  2  0  0  0  0  0  0
  189.5680  175.8480  140.1340 C   0  0  0  0  0  2  0  0  0  0  0  0
  188.2940  176.5450  139.6730 C   0  0  1  0  0  3  0  0  0  0  0  0
  184.7620  179.9570  138.0040 C   0  0  0  0  0  2  0  0  0  0  0  0
  183.3250  181.7180  138.7930 O   0  0  0  0  0  0  0  0  0  0  0  0
  190.5270  175.5950  138.9670 C   0  0  1  0  0  3  0  0  0  0  0  0
  180.0750  179.3890  143.0150 C   0  0  1  0  0  3  0  0  0  0  0  0
  181.1690  178.5230  143.6660 C   0  0  1  0  0  3  0  0  0  0  0  0
  189.7400  177.8590  138.0010 C   0  0  0  0  0  2  0  0  0  0  0  0
  191.4390  176.5370  136.7300 C   0  0  0  0  0  2  0  0  0  0  0  0
  190.2370  176.4430  137.6910 C   0  0  1  0  0  3  0  0  0  0  0  0
  185.1040  179.3750  139.3730 C   0  0  2  0  0  3  0  0  0  0  0  0
  188.3120  177.6480  143.0020 C   0  0  0  0  0  0  0  0  0  0  0  0
  181.6540  179.1010  144.8530 O   0  0  0  0  0  0  0  0  0  0  0  0
  187.2930  176.7860  140.7730 C   0  0  0  0  0  0  0  0  0  0  0  0
  187.4720  178.8590  143.2840 C   0  0  0  0  0  2  0  0  0  0  0  0
  180.3400  180.3210  139.5610 C   0  0  0  0  0  3  0  0  0  0  0  0
  184.4990  181.4550  138.0880 C   0  0  0  0  0  2  0  0  0  0  0  0
  189.6420  177.6990  143.0080 C   0  0  0  0  0  3  0  0  0  0  0  0
  184.0390  179.0230  144.8940 C   0  0  0  0  0  2  0  0  0  0  0  0
  191.8930  175.7640  139.4150 N   0  0  0  0  0  0  0  0  0  0  0  0
  186.0930  178.2090  139.2510 C   0  0  1  0  0  3  0  0  0  0  0  0
  182.3360  181.8630  137.8170 C   0  0  0  0  0  2  0  0  0  0  0  0
  192.5910  175.6040  137.1090 C   0  0  0  0  0  2  0  0  0  0  0  0
  187.4180  178.6820  138.6040 C   0  0  0  0  0  2  0  0  0  0  0  0
  180.0260  179.6070  140.6010 C   0  0  0  0  0  0  0  0  0  0  0  0
  186.3120  177.5930  140.5510 N   0  0  0  0  0  0  0  0  0  0  0  0
  179.7260  178.8930  141.6510 C   0  0  0  0  0  3  0  0  0  0  0  0
  188.6550  177.9090  139.0820 C   0  0  1  0  0  3  0  0  0  0  0  0
  182.8050  179.7970  144.4790 C   0  0  0  0  0  2  0  0  0  0  0  0
  181.0600  182.4550  138.4260 C   0  0  1  0  0  3  0  0  0  0  0  0
  187.5120  176.1410  142.4390 S   0  0  0  0  0  0  0  0  0  0  0  0
  196.0860  178.3560  139.9610 O   0  0  0  0  0  1  0  0  0  0  0  0
  194.2740  176.7900  140.3440 C   0  0  0  0  0  2  0  0  0  0  0  0
  195.6500  177.3150  140.7830 C   0  0  1  0  0  3  0  0  0  0  0  0
  197.0960  175.4170  139.7610 C   0  0  1  0  0  3  0  0  0  0  0  0
  196.4120  175.4340  142.0630 O   0  0  0  0  0  1  0  0  0  0  0  0
  196.7520  176.2640  140.9940 C   0  0  2  0  0  3  0  0  0  0  0  0
  197.1880  176.2030  138.6060 O   0  0  0  0  0  0  0  0  0  0  0  0
  196.1140  175.7980  137.8050 C   0  0  2  0  0  3  0  0  0  0  0  0
  198.4070  174.6880  139.9810 C   0  0  0  0  0  1  0  0  0  0  0  0
  196.5100  175.8790  136.3440 C   0  0  0  0  0  1  0  0  0  0  0  0
  195.0070  176.6230  138.0350 O   0  0  0  0  0  0  0  0  0  0  0  0
  194.2750  175.9810  139.0420 C   0  0  2  0  0  3  0  0  0  0  0  0
  179.5130  176.7640  143.4910 C   0  0  2  0  0  3  0  0  0  0  0  0
  180.5240  176.3280  142.5220 N   0  0  0  0  0  2  0  0  0  0  0  0
  180.8990  177.0000  143.7720 C   0  0  1  0  0  0  0  0  0  0  0  0
  180.0050  176.6190  144.8690 N   0  0  0  0  0  2  0  0  0  0  0  0
  179.0140  180.6930  144.4520 C   0  0  0  0  0  1  0  0  0  0  0  0
  178.9350  179.4510  143.8220 O   0  0  0  0  0  0  0  0  0  0  0  0
  183.8320  178.9870  140.1380 C   0  0  0  0  0  2  0  0  0  0  0  0
  183.1310  177.7860  139.5190 C   0  0  0  0  0  1  0  0  0  0  0  0
  191.4670  178.8020  144.1370 C   0  0  0  0  0  2  0  0  0  0  0  0
  190.3910  178.9030  143.3740 C   0  0  0  0  0  3  0  0  0  0  0  0
  180.0280  182.7200  137.4970 O   0  0  0  0  0  0  0  0  0  0  0  0
  179.5540  181.5080  136.9660 C   0  0  0  0  0  2  0  0  0  0  0  0
  180.1290  181.2700  135.5800 C   0  0  2  0  0  3  0  0  0  0  0  0
  180.0790  182.5850  134.8200 C   0  0  0  0  0  2  0  0  0  0  0  0
  180.2690  183.7650  135.7540 C   0  0  0  0  0  2  0  0  0  0  0  0
  178.9340  184.4540  135.9550 C   0  0  0  0  0  2  0  0  0  0  0  0
  180.3070  186.2640  136.5220 C   0  0  0  0  0  2  0  0  0  0  0  0
  179.0890  185.8880  135.7900 N   0  0  0  0  0  0  0  0  0  0  0  0
  179.0060  186.4690  137.1380 C   0  0  0  0  0  2  0  0  0  0  0  0
  179.3100  180.2080  134.8630 C   0  0  0  0  0  2  0  0  0  0  0  0
  180.1440  178.9710  134.5940 C   0  0  0  0  0  2  0  0  0  0  0  0
  180.3510  178.2830  135.7890 O   0  0  0  0  0  0  0  0  0  0  0  0
  181.6290  178.6640  136.1940 C   0  0  0  0  0  1  0  0  0  0  0  0
  1 24  2  0  0  0  0
  3  2  1  0  0  0  0
  3 23  1  0  0  0  0
  6  5  1  1  0  0  0
  6 18  1  0  0  0  0
  7 21  1  0  0  0  0
  7 15  1  0  0  0  0
  9 24  1  0  0  0  0
  9  5  1  1  0  0  0
 10 11  1  0  0  0  0
 10 53  1  1  0  0  0
 11 50  1  0  0  0  0
 11 17  1  1  0  0  0
 13 27  1  0  0  0  0
 14 13  1  1  0  0  0
 14 12  1  0  0  0  0
 14  9  1  0  0  0  0
 15 54  1  6  0  0  0
 16 22  2  0  0  0  0
 16 19  1  0  0  0  0
 18 35  1  0  0  0  0
 19  2  1  0  0  0  0
 20  4  1  0  0  0  0
 20 29  2  0  0  0  0
 21  8  1  0  0  0  0
 22 57  1  0  0  0  0
 25 28  1  1  0  0  0
 25 15  1  0  0  0  0
 25 30  1  0  0  0  0
 26 34  1  0  0  0  0
 26  8  1  0  0  0  0
 27  1  1  0  0  0  0
 28 32  1  0  0  0  0
 29 31  2  0  0  0  0
 30 18  2  0  0  0  0
 31 10  1  0  0  0  0
 32 12  1  6  0  0  0
 32  6  1  0  0  0  0
 33 17  1  0  0  0  0
 33 23  1  0  0  0  0
 34 58  1  6  0  0  0
 34  4  1  0  0  0  0
 35 16  1  0  0  0  0
 37 38  1  0  0  0  0
 38 36  1  6  0  0  0
 38 41  1  0  0  0  0
 39 44  1  1  0  0  0
 39 41  1  0  0  0  0
 41 40  1  1  0  0  0
 42 39  1  0  0  0  0
 43 45  1  6  0  0  0
 43 46  1  0  0  0  0
 43 42  1  0  0  0  0
 46 47  1  0  0  0  0
 47  1  1  6  0  0  0
 47 37  1  0  0  0  0
 48 49  1  6  0  0  0
 48 50  1  0  0  0  0
 48 51  1  0  0  0  0
 50 49  1  6  0  0  0
 50 51  1  0  0  0  0
 53 52  1  0  0  0  0
 55 54  1  0  0  0  0
 57 56  2  0  0  0  0
 59 58  1  0  0  0  0
 60 61  1  6  0  0  0
 60 59  1  0  0  0  0
 61 62  1  0  0  0  0
 62 63  1  0  0  0  0
 64 66  1  0  0  0  0
 65 63  1  0  0  0  0
 65 64  1  0  0  0  0
 65 66  1  0  0  0  0
 67 60  1  0  0  0  0
 68 67  1  0  0  0  0
 68 69  1  0  0  0  0
 69 70  1  0  0  0  0
M  END
>  <MODEL>
2

>  <REMARK>
 VINA RESULT:      18.7      1.488      2.672
  Name = 
  15 active torsions:
  status: ('A' for Active; 'I' for Inactive)
    1  A    between atoms: C_1  and  C_6
    2  A    between atoms: C_1  and  C_18
    3  A    between atoms: O_2  and  C_44
    4  A    between atoms: C_5  and  C_34
    5  A    between atoms: C_6  and  C_11
    6  A    between atoms: C_7  and  C_70
    7  A    between atoms: C_11  and  N_57
    8  A    between atoms: C_18  and  C_54
    9  A    between atoms: C_18  and  C_58
   10  A    between atoms: C_24  and  O_36
   11  A    between atoms: C_25  and  C_50
   12  A    between atoms: O_31  and  C_54
   13  A    between atoms: O_31  and  C_65
   14  A    between atoms: C_38  and  C_43
   15  A    between atoms: C_44  and  C_58
                            x       y       z     vdW  Elec       q    Type
                         _______ _______ _______ _____ _____    ______ ____

>  <TORSDO>
F 15

$$$$
