=
 OpenBabel11042413003D

 40 42  0  0  1  0  0  0  0  0999 V2000
  184.9850  178.6190  141.0960 N   0  0  0  0  0  0  0  0  0  0  0  0
  182.2590  179.0440  141.0820 C   0  0  0  0  0  0  0  0  0  0  0  0
  184.4680  178.9640  139.9530 C   0  0  0  0  0  0  0  0  0  0  0  0
  184.1640  178.0910  142.1830 C   0  0  2  0  0  3  0  0  0  0  0  0
  182.8410  178.6870  142.1780 N   0  0  0  0  0  0  0  0  0  0  0  0
  182.5260  179.9690  138.7640 C   0  0  0  0  0  1  0  0  0  0  0  0
  182.9740  178.8970  139.7500 C   0  0  2  0  0  3  0  0  0  0  0  0
  186.0110  177.6880  143.7950 N   0  0  0  0  0  0  0  0  0  0  0  0
  186.4460  178.0110  145.0280 C   0  0  0  0  0  0  0  0  0  0  0  0
  185.3860  179.0750  145.7830 S   0  0  0  0  0  0  0  0  0  0  0  0
  184.8330  178.3020  143.4990 C   0  0  0  0  0  0  0  0  0  0  0  0
  184.3040  179.1330  144.4940 C   0  0  0  0  0  3  0  0  0  0  0  0
  187.7830  177.7750  147.0930 C   0  0  0  0  0  1  0  0  0  0  0  0
  187.7310  177.5060  145.6020 C   0  0  2  0  0  3  0  0  0  0  0  0
  191.3830  179.3300  144.0380 C   0  0  0  0  0  1  0  0  0  0  0  0
  190.4790  175.8860  142.5930 C   0  0  0  0  0  2  0  0  0  0  0  0
  190.6170  178.2990  143.3560 N   0  0  0  0  0  0  0  0  0  0  0  0
  189.2480  176.2720  143.4090 C   0  0  0  0  0  2  0  0  0  0  0  0
  188.8660  178.1490  144.9490 N   0  0  0  0  0  0  0  0  0  0  0  0
  191.2930  177.4140  141.9950 S   0  0  0  0  0  0  0  0  0  0  0  0
  189.5390  177.6170  143.9720 C   0  0  0  0  0  0  0  0  0  0  0  0
  179.9790  178.4460  140.8450 O   0  0  0  0  0  1  0  0  0  0  0  0
  180.8370  179.5060  141.1430 C   0  0  0  0  0  2  0  0  0  0  0  0
  185.2940  179.3900  138.9030 O   0  0  0  0  0  0  0  0  0  0  0  0
  185.7990  178.5040  137.9070 C   0  0  0  0  0  2  0  0  0  0  0  0
  187.1580  177.9570  138.3180 C   0  0  0  0  0  2  0  0  0  0  0  0
  188.2110  178.8580  137.8740 N   0  0  0  0  0  2  0  0  0  0  0  0
  189.1850  178.0530  137.1570 C   0  0  0  0  0  2  0  0  0  0  0  0
  188.6520  176.6400  136.9880 C   0  0  0  0  0  2  0  0  0  0  0  0
  189.7180  175.6750  137.2050 N   0  0  0  0  0  2  0  0  0  0  0  0
  190.8600  176.4130  137.7230 C   0  0  0  0  0  2  0  0  0  0  0  0
  191.6000  174.1500  137.8190 O   0  0  0  0  0  1  0  0  0  0  0  0
  191.9280  175.4480  138.2130 C   0  0  1  0  0  3  0  0  0  0  0  0
  193.5670  177.0320  137.4980 O   0  0  0  0  0  0  0  0  0  0  0  0
  193.2730  175.8180  137.6790 C   0  0  0  0  0  0  0  0  0  0  0  0
  194.1940  174.8070  137.4010 O   0  0  0  0  0  0  0  0  0  0  0  0
  195.4210  175.3140  139.6880 O   0  0  0  0  0  1  0  0  0  0  0  0
  196.9710  174.7300  137.6560 O   0  0  0  0  0  0  0  0  0  0  0  0
  195.5080  174.4440  138.4540 P   0  0  0  0  0  0  0  0  0  0  0  0
  195.4280  172.8200  138.9100 O   0  0  0  0  0  1  0  0  0  0  0  0
  1  4  1  0  0  0  0
  2 23  1  0  0  0  0
  2  5  2  0  0  0  0
  3  1  2  0  0  0  0
  4 11  1  1  0  0  0
  5  4  1  0  0  0  0
  7  6  1  6  0  0  0
  7  3  1  0  0  0  0
  7  2  1  0  0  0  0
  8  9  2  0  0  0  0
  9 14  1  0  0  0  0
  9 10  1  0  0  0  0
 11  8  1  0  0  0  0
 11 12  2  0  0  0  0
 12 10  1  0  0  0  0
 14 13  1  1  0  0  0
 16 18  1  0  0  0  0
 17 21  1  0  0  0  0
 17 15  1  0  0  0  0
 18 21  1  0  0  0  0
 19 14  1  0  0  0  0
 20 16  1  0  0  0  0
 20 17  1  0  0  0  0
 21 19  2  0  0  0  0
 22 23  1  0  0  0  0
 24  3  1  0  0  0  0
 25 26  1  0  0  0  0
 25 24  1  0  0  0  0
 27 26  1  0  0  0  0
 28 27  1  0  0  0  0
 29 28  1  0  0  0  0
 29 30  1  0  0  0  0
 30 31  1  0  0  0  0
 31 33  1  0  0  0  0
 33 32  1  6  0  0  0
 34 35  2  0  0  0  0
 35 33  1  0  0  0  0
 36 35  1  0  0  0  0
 36 39  1  0  0  0  0
 38 39  2  0  0  0  0
 39 40  1  0  0  0  0
 39 37  1  0  0  0  0
M  END
>  <MODEL>
1

>  <REMARK>
 VINA RESULT:      -7.3      0.000      0.000
  Name = 
  16 active torsions:
  status: ('A' for Active; 'I' for Inactive)
    1  A    between atoms: C_3  and  N_20
    2  A    between atoms: C_3  and  C_39
    3  A    between atoms: C_9  and  C_40
    4  A    between atoms: CA_10  and  C_22
    5  A    between atoms: C_11  and  C_18
    6  A    between atoms: C_11  and  C_19
    7  A    between atoms: O_13  and  C_18
    8  A    between atoms: O_13  and  P_29
    9  A    between atoms: N_17  and  C_19
   10  A    between atoms: N_17  and  C_34
   11  A    between atoms: N_20  and  C_32
   12  A    between atoms: C_23  and  O_36
   13  A    between atoms: C_24  and  C_25
   14  A    between atoms: N_30  and  C_40
   15  A    between atoms: C_32  and  C_34
   16  A    between atoms: O_36  and  C_39
                            x       y       z     vdW  Elec       q    Type
                         _______ _______ _______ _____ _____    ______ ____

>  <TORSDO>
F 16

$$$$
=
 OpenBabel11042413003D

 40 42  0  0  1  0  0  0  0  0999 V2000
  187.0110  177.7000  143.7350 N   0  0  0  0  0  0  0  0  0  0  0  0
  187.8090  177.2940  146.3460 C   0  0  0  0  0  0  0  0  0  0  0  0
  186.1480  178.0290  144.6530 C   0  0  0  0  0  0  0  0  0  0  0  0
  188.1350  176.8100  144.0200 C   0  0  2  0  0  3  0  0  0  0  0  0
  188.6070  176.9810  145.3810 N   0  0  0  0  0  0  0  0  0  0  0  0
  185.7620  178.5630  147.0520 C   0  0  0  0  0  1  0  0  0  0  0  0
  186.3370  177.5490  146.0710 C   0  0  2  0  0  3  0  0  0  0  0  0
  188.9880  177.1750  141.7150 N   0  0  0  0  0  0  0  0  0  0  0  0
  190.1200  177.3640  141.0100 C   0  0  0  0  0  0  0  0  0  0  0  0
  191.4650  177.3660  142.0160 S   0  0  0  0  0  0  0  0  0  0  0  0
  189.2420  177.0300  143.0450 C   0  0  0  0  0  0  0  0  0  0  0  0
  190.5860  177.1040  143.4280 C   0  0  0  0  0  3  0  0  0  0  0  0
  188.8690  178.2920  139.0920 C   0  0  0  0  0  1  0  0  0  0  0  0
  190.1350  177.5830  139.5310 C   0  0  2  0  0  3  0  0  0  0  0  0
  190.2410  173.9700  137.0720 C   0  0  0  0  0  1  0  0  0  0  0  0
  193.5140  175.9760  137.2430 C   0  0  0  0  0  2  0  0  0  0  0  0
  191.4120  174.6160  137.6420 N   0  0  0  0  0  0  0  0  0  0  0  0
  192.6280  176.6360  138.2970 C   0  0  0  0  0  2  0  0  0  0  0  0
  190.2510  176.3090  138.8300 N   0  0  0  0  0  0  0  0  0  0  0  0
  193.0320  174.2160  137.0860 S   0  0  0  0  0  0  0  0  0  0  0  0
  191.3500  175.8760  138.2880 C   0  0  0  0  0  0  0  0  0  0  0  0
  189.2600  178.3410  147.8970 O   0  0  0  0  0  1  0  0  0  0  0  0
  188.3410  177.3020  147.7450 C   0  0  0  0  0  2  0  0  0  0  0  0
  185.0370  178.8190  144.3270 O   0  0  0  0  0  0  0  0  0  0  0  0
  184.0430  178.4080  143.3920 C   0  0  0  0  0  2  0  0  0  0  0  0
  182.6990  179.0360  143.7300 C   0  0  0  0  0  2  0  0  0  0  0  0
  181.8030  178.9370  142.5890 N   0  0  0  0  0  2  0  0  0  0  0  0
  180.5540  179.5740  142.9720 C   0  0  0  0  0  2  0  0  0  0  0  0
  179.7400  179.8870  141.7270 C   0  0  0  0  0  2  0  0  0  0  0  0
  180.5720  179.7540  140.5410 N   0  0  0  0  0  2  0  0  0  0  0  0
  180.5600  181.0430  139.8660 C   0  0  0  0  0  2  0  0  0  0  0  0
  181.3740  182.1310  137.9090 O   0  0  0  0  0  1  0  0  0  0  0  0
  181.0210  180.8840  138.4260 C   0  0  1  0  0  3  0  0  0  0  0  0
  182.0960  178.9040  137.6310 O   0  0  0  0  0  0  0  0  0  0  0  0
  182.1820  179.9470  138.3340 C   0  0  0  0  0  0  0  0  0  0  0  0
  183.3570  180.2550  139.0210 O   0  0  0  0  0  0  0  0  0  0  0  0
  185.3940  178.7330  138.2960 O   0  0  0  0  0  0  0  0  0  0  0  0
  183.6880  177.6530  139.9690 O   0  0  0  0  0  1  0  0  0  0  0  0
  184.5010  179.0510  139.4750 P   0  0  0  0  0  0  0  0  0  0  0  0
  185.4470  179.6290  140.7500 O   0  0  0  0  0  1  0  0  0  0  0  0
  1  4  1  0  0  0  0
  1  3  2  0  0  0  0
  2 23  1  0  0  0  0
  3  7  1  0  0  0  0
  4 11  1  6  0  0  0
  4  5  1  0  0  0  0
  5  2  2  0  0  0  0
  7  2  1  0  0  0  0
  7  6  1  1  0  0  0
  8 11  1  0  0  0  0
  9  8  2  0  0  0  0
  9 10  1  0  0  0  0
 10 12  1  0  0  0  0
 11 12  2  0  0  0  0
 14 13  1  6  0  0  0
 14  9  1  0  0  0  0
 15 17  1  0  0  0  0
 16 18  1  0  0  0  0
 17 21  1  0  0  0  0
 19 14  1  0  0  0  0
 20 16  1  0  0  0  0
 20 17  1  0  0  0  0
 21 18  1  0  0  0  0
 21 19  2  0  0  0  0
 23 22  1  0  0  0  0
 24  3  1  0  0  0  0
 25 26  1  0  0  0  0
 25 24  1  0  0  0  0
 27 28  1  0  0  0  0
 27 26  1  0  0  0  0
 29 28  1  0  0  0  0
 30 29  1  0  0  0  0
 31 30  1  0  0  0  0
 33 32  1  1  0  0  0
 33 31  1  0  0  0  0
 34 35  2  0  0  0  0
 35 33  1  0  0  0  0
 35 36  1  0  0  0  0
 36 39  1  0  0  0  0
 37 39  2  0  0  0  0
 39 38  1  0  0  0  0
 39 40  1  0  0  0  0
M  END
>  <MODEL>
2

>  <REMARK>
 VINA RESULT:      -7.3      4.846      8.825
  Name = 
  16 active torsions:
  status: ('A' for Active; 'I' for Inactive)
    1  A    between atoms: C_3  and  N_20
    2  A    between atoms: C_3  and  C_39
    3  A    between atoms: C_9  and  C_40
    4  A    between atoms: CA_10  and  C_22
    5  A    between atoms: C_11  and  C_18
    6  A    between atoms: C_11  and  C_19
    7  A    between atoms: O_13  and  C_18
    8  A    between atoms: O_13  and  P_29
    9  A    between atoms: N_17  and  C_19
   10  A    between atoms: N_17  and  C_34
   11  A    between atoms: N_20  and  C_32
   12  A    between atoms: C_23  and  O_36
   13  A    between atoms: C_24  and  C_25
   14  A    between atoms: N_30  and  C_40
   15  A    between atoms: C_32  and  C_34
   16  A    between atoms: O_36  and  C_39
                            x       y       z     vdW  Elec       q    Type
                         _______ _______ _______ _____ _____    ______ ____

>  <TORSDO>
F 16

$$$$
=
 OpenBabel11042413003D

 40 42  0  0  1  0  0  0  0  0999 V2000
  187.4840  177.6100  144.9760 N   0  0  0  0  0  0  0  0  0  0  0  0
  189.8000  177.0770  146.3780 C   0  0  0  0  0  0  0  0  0  0  0  0
  187.4300  177.8050  146.2620 C   0  0  0  0  0  0  0  0  0  0  0  0
  188.5280  176.7890  144.3660 C   0  0  2  0  0  3  0  0  0  0  0  0
  189.7740  176.8960  145.1000 N   0  0  0  0  0  0  0  0  0  0  0  0
  188.7050  178.1330  148.3740 C   0  0  0  0  0  1  0  0  0  0  0  0
  188.5060  177.2380  147.1560 C   0  0  2  0  0  3  0  0  0  0  0  0
  189.7410  176.6300  142.2040 N   0  0  0  0  0  0  0  0  0  0  0  0
  189.7410  177.0930  140.9390 C   0  0  0  0  0  0  0  0  0  0  0  0
  188.4720  178.1670  140.6900 S   0  0  0  0  0  0  0  0  0  0  0  0
  188.7230  177.1610  142.9350 C   0  0  0  0  0  0  0  0  0  0  0  0
  187.8860  178.0600  142.2650 C   0  0  0  0  0  3  0  0  0  0  0  0
  192.0120  177.4500  140.0340 C   0  0  0  0  0  1  0  0  0  0  0  0
  190.7280  176.6540  139.9060 C   0  0  2  0  0  3  0  0  0  0  0  0
  189.3670  177.5520  135.8500 C   0  0  0  0  0  1  0  0  0  0  0  0
  191.7190  174.5330  136.1980 C   0  0  0  0  0  2  0  0  0  0  0  0
  189.8620  176.2570  136.2870 N   0  0  0  0  0  0  0  0  0  0  0  0
  191.3840  174.9010  137.6410 C   0  0  0  0  0  2  0  0  0  0  0  0
  190.1740  176.8300  138.5680 N   0  0  0  0  0  0  0  0  0  0  0  0
  190.3150  175.0170  135.1250 S   0  0  0  0  0  0  0  0  0  0  0  0
  190.4500  176.0560  137.5610 C   0  0  0  0  0  0  0  0  0  0  0  0
  191.5490  175.6980  147.1840 O   0  0  0  0  0  1  0  0  0  0  0  0
  191.1190  177.0220  147.0840 C   0  0  0  0  0  2  0  0  0  0  0  0
  186.3690  178.5300  146.8220 O   0  0  0  0  0  0  0  0  0  0  0  0
  185.0040  178.2740  146.5060 C   0  0  0  0  0  2  0  0  0  0  0  0
  184.5900  179.0450  145.2600 C   0  0  0  0  0  2  0  0  0  0  0  0
  183.1400  179.0650  145.1480 N   0  0  0  0  0  2  0  0  0  0  0  0
  182.8240  179.1210  143.7300 C   0  0  0  0  0  2  0  0  0  0  0  0
  181.3180  179.2060  143.5480 C   0  0  0  0  0  2  0  0  0  0  0  0
  180.9050  178.3860  142.4200 N   0  0  0  0  0  2  0  0  0  0  0  0
  181.5020  178.9690  141.2280 C   0  0  0  0  0  2  0  0  0  0  0  0
  180.6750  178.9740  138.9940 O   0  0  0  0  0  1  0  0  0  0  0  0
  181.1490  178.1370  140.0050 C   0  0  1  0  0  3  0  0  0  0  0  0
  182.5300  176.1890  139.9170 O   0  0  0  0  0  0  0  0  0  0  0  0
  182.3350  177.3690  139.5170 C   0  0  0  0  0  0  0  0  0  0  0  0
  183.2040  177.9720  138.6070 O   0  0  0  0  0  0  0  0  0  0  0  0
  185.7250  178.6790  138.2370 O   0  0  0  0  0  0  0  0  0  0  0  0
  184.8960  178.6320  140.7240 O   0  0  0  0  0  1  0  0  0  0  0  0
  184.5220  178.9610  139.1080 P   0  0  0  0  0  0  0  0  0  0  0  0
  184.0910  180.5880  138.9530 O   0  0  0  0  0  1  0  0  0  0  0  0
  1  3  2  0  0  0  0
  2 23  1  0  0  0  0
  2  7  1  0  0  0  0
  3 24  1  0  0  0  0
  3  7  1  0  0  0  0
  4 11  1  6  0  0  0
  4  1  1  0  0  0  0
  4  5  1  0  0  0  0
  5  2  2  0  0  0  0
  7  6  1  1  0  0  0
  8 11  1  0  0  0  0
  9  8  2  0  0  0  0
 10  9  1  0  0  0  0
 10 12  1  0  0  0  0
 12 11  2  0  0  0  0
 14 13  1  6  0  0  0
 14  9  1  0  0  0  0
 15 17  1  0  0  0  0
 16 18  1  0  0  0  0
 17 21  1  0  0  0  0
 19 14  1  0  0  0  0
 20 16  1  0  0  0  0
 20 17  1  0  0  0  0
 21 18  1  0  0  0  0
 21 19  2  0  0  0  0
 23 22  1  0  0  0  0
 25 24  1  0  0  0  0
 26 25  1  0  0  0  0
 27 26  1  0  0  0  0
 28 27  1  0  0  0  0
 29 28  1  0  0  0  0
 30 29  1  0  0  0  0
 31 30  1  0  0  0  0
 33 32  1  6  0  0  0
 33 31  1  0  0  0  0
 35 34  2  0  0  0  0
 35 33  1  0  0  0  0
 36 39  1  0  0  0  0
 36 35  1  0  0  0  0
 37 39  2  0  0  0  0
 39 38  1  0  0  0  0
 40 39  1  0  0  0  0
M  END
>  <MODEL>
3

>  <REMARK>
 VINA RESULT:      -7.2      4.521      9.119
  Name = 
  16 active torsions:
  status: ('A' for Active; 'I' for Inactive)
    1  A    between atoms: C_3  and  N_20
    2  A    between atoms: C_3  and  C_39
    3  A    between atoms: C_9  and  C_40
    4  A    between atoms: CA_10  and  C_22
    5  A    between atoms: C_11  and  C_18
    6  A    between atoms: C_11  and  C_19
    7  A    between atoms: O_13  and  C_18
    8  A    between atoms: O_13  and  P_29
    9  A    between atoms: N_17  and  C_19
   10  A    between atoms: N_17  and  C_34
   11  A    between atoms: N_20  and  C_32
   12  A    between atoms: C_23  and  O_36
   13  A    between atoms: C_24  and  C_25
   14  A    between atoms: N_30  and  C_40
   15  A    between atoms: C_32  and  C_34
   16  A    between atoms: O_36  and  C_39
                            x       y       z     vdW  Elec       q    Type
                         _______ _______ _______ _____ _____    ______ ____

>  <TORSDO>
F 16

$$$$
=
 OpenBabel11042413003D

 40 42  0  0  1  0  0  0  0  0999 V2000
  187.1710  177.8390  143.8770 N   0  0  0  0  0  0  0  0  0  0  0  0
  187.7280  177.3730  146.5390 C   0  0  0  0  0  0  0  0  0  0  0  0
  186.2410  178.1780  144.7220 C   0  0  0  0  0  0  0  0  0  0  0  0
  188.2410  176.9130  144.2430 C   0  0  2  0  0  3  0  0  0  0  0  0
  188.5990  177.0520  145.6420 N   0  0  0  0  0  0  0  0  0  0  0  0
  185.6620  178.6890  147.0880 C   0  0  0  0  0  1  0  0  0  0  0  0
  186.2930  177.6730  146.1430 C   0  0  2  0  0  3  0  0  0  0  0  0
  189.4320  176.7040  142.0730 N   0  0  0  0  0  0  0  0  0  0  0  0
  190.6010  176.9800  141.4610 C   0  0  0  0  0  0  0  0  0  0  0  0
  191.6640  177.7500  142.5100 S   0  0  0  0  0  0  0  0  0  0  0  0
  189.4340  177.1150  143.3710 C   0  0  0  0  0  0  0  0  0  0  0  0
  190.6060  177.7330  143.8200 C   0  0  0  0  0  3  0  0  0  0  0  0
  192.2980  177.0150  139.6650 C   0  0  0  0  0  1  0  0  0  0  0  0
  190.8660  176.6670  140.0230 C   0  0  2  0  0  3  0  0  0  0  0  0
  188.5130  179.1300  137.2830 C   0  0  0  0  0  1  0  0  0  0  0  0
  189.0530  175.4800  136.2110 C   0  0  0  0  0  2  0  0  0  0  0  0
  188.4710  177.6780  137.3320 N   0  0  0  0  0  0  0  0  0  0  0  0
  189.5830  175.5200  137.6420 C   0  0  0  0  0  2  0  0  0  0  0  0
  189.9520  177.4140  139.1650 N   0  0  0  0  0  0  0  0  0  0  0  0
  187.7410  176.7450  136.0320 S   0  0  0  0  0  0  0  0  0  0  0  0
  189.3720  176.9150  138.1150 C   0  0  0  0  0  0  0  0  0  0  0  0
  189.0050  178.4060  148.2450 O   0  0  0  0  0  1  0  0  0  0  0  0
  188.1370  177.3460  147.9790 C   0  0  0  0  0  2  0  0  0  0  0  0
  185.1830  179.0030  144.3140 O   0  0  0  0  0  0  0  0  0  0  0  0
  184.0950  178.5330  143.5250 C   0  0  0  0  0  2  0  0  0  0  0  0
  182.7740  178.7600  144.2460 C   0  0  0  0  0  2  0  0  0  0  0  0
  181.7480  179.1530  143.2930 N   0  0  0  0  0  2  0  0  0  0  0  0
  180.4880  178.6160  143.7780 C   0  0  0  0  0  2  0  0  0  0  0  0
  179.4020  178.8500  142.7410 C   0  0  0  0  0  2  0  0  0  0  0  0
  179.2500  177.6710  141.9040 N   0  0  0  0  0  2  0  0  0  0  0  0
  179.8320  177.9900  140.6090 C   0  0  0  0  0  2  0  0  0  0  0  0
  180.3290  175.9340  139.5140 O   0  0  0  0  0  1  0  0  0  0  0  0
  180.9020  176.9710  140.2510 C   0  0  1  0  0  3  0  0  0  0  0  0
  181.8570  177.8230  138.2330 O   0  0  0  0  0  0  0  0  0  0  0  0
  182.0050  177.6040  139.4660 C   0  0  0  0  0  0  0  0  0  0  0  0
  183.1850  177.9600  140.1220 O   0  0  0  0  0  0  0  0  0  0  0  0
  184.9970  178.4180  138.2520 O   0  0  0  0  0  0  0  0  0  0  0  0
  185.4770  179.4740  140.6040 O   0  0  0  0  0  1  0  0  0  0  0  0
  184.3200  179.0620  139.4420 P   0  0  0  0  0  0  0  0  0  0  0  0
  183.5130  180.4570  138.9350 O   0  0  0  0  0  1  0  0  0  0  0  0
  1  4  1  0  0  0  0
  1  3  2  0  0  0  0
  2 23  1  0  0  0  0
  3  7  1  0  0  0  0
  4 11  1  6  0  0  0
  4  5  1  0  0  0  0
  5  2  2  0  0  0  0
  7  2  1  0  0  0  0
  7  6  1  1  0  0  0
  8 11  1  0  0  0  0
  9  8  2  0  0  0  0
  9 10  1  0  0  0  0
 10 12  1  0  0  0  0
 11 12  2  0  0  0  0
 14 13  1  6  0  0  0
 14  9  1  0  0  0  0
 15 17  1  0  0  0  0
 16 18  1  0  0  0  0
 17 21  1  0  0  0  0
 18 21  1  0  0  0  0
 19 14  1  0  0  0  0
 20 16  1  0  0  0  0
 20 17  1  0  0  0  0
 21 19  2  0  0  0  0
 23 22  1  0  0  0  0
 24  3  1  0  0  0  0
 25 26  1  0  0  0  0
 25 24  1  0  0  0  0
 27 28  1  0  0  0  0
 27 26  1  0  0  0  0
 29 28  1  0  0  0  0
 30 29  1  0  0  0  0
 31 30  1  0  0  0  0
 33 32  1  6  0  0  0
 33 31  1  0  0  0  0
 34 35  2  0  0  0  0
 35 36  1  0  0  0  0
 35 33  1  0  0  0  0
 37 39  2  0  0  0  0
 39 36  1  0  0  0  0
 39 38  1  0  0  0  0
 40 39  1  0  0  0  0
M  END
>  <MODEL>
4

>  <REMARK>
 VINA RESULT:      -7.1      4.899      8.836
  Name = 
  16 active torsions:
  status: ('A' for Active; 'I' for Inactive)
    1  A    between atoms: C_3  and  N_20
    2  A    between atoms: C_3  and  C_39
    3  A    between atoms: C_9  and  C_40
    4  A    between atoms: CA_10  and  C_22
    5  A    between atoms: C_11  and  C_18
    6  A    between atoms: C_11  and  C_19
    7  A    between atoms: O_13  and  C_18
    8  A    between atoms: O_13  and  P_29
    9  A    between atoms: N_17  and  C_19
   10  A    between atoms: N_17  and  C_34
   11  A    between atoms: N_20  and  C_32
   12  A    between atoms: C_23  and  O_36
   13  A    between atoms: C_24  and  C_25
   14  A    between atoms: N_30  and  C_40
   15  A    between atoms: C_32  and  C_34
   16  A    between atoms: O_36  and  C_39
                            x       y       z     vdW  Elec       q    Type
                         _______ _______ _______ _____ _____    ______ ____

>  <TORSDO>
F 16

$$$$
=
 OpenBabel11042413003D

 40 42  0  0  1  0  0  0  0  0999 V2000
  187.0720  177.3780  143.4790 N   0  0  0  0  0  0  0  0  0  0  0  0
  187.8260  177.6180  146.1220 C   0  0  0  0  0  0  0  0  0  0  0  0
  186.1380  177.7480  144.3070 C   0  0  0  0  0  0  0  0  0  0  0  0
  188.3020  176.7400  143.9420 C   0  0  2  0  0  3  0  0  0  0  0  0
  188.6960  177.2440  145.2440 N   0  0  0  0  0  0  0  0  0  0  0  0
  185.5930  178.6800  146.5490 C   0  0  0  0  0  1  0  0  0  0  0  0
  186.3440  177.5900  145.7940 C   0  0  2  0  0  3  0  0  0  0  0  0
  189.1310  177.0430  141.6200 N   0  0  0  0  0  0  0  0  0  0  0  0
  190.2560  177.2050  140.8970 C   0  0  0  0  0  0  0  0  0  0  0  0
  191.6130  177.2160  141.8870 S   0  0  0  0  0  0  0  0  0  0  0  0
  189.3990  176.9250  142.9500 C   0  0  0  0  0  0  0  0  0  0  0  0
  190.7480  176.9950  143.3150 C   0  0  0  0  0  3  0  0  0  0  0  0
  188.9650  178.0490  138.9670 C   0  0  0  0  0  1  0  0  0  0  0  0
  190.2560  177.3910  139.4130 C   0  0  2  0  0  3  0  0  0  0  0  0
  190.4490  173.7230  137.0430 C   0  0  0  0  0  1  0  0  0  0  0  0
  193.6240  175.8860  137.0440 C   0  0  0  0  0  2  0  0  0  0  0  0
  191.6070  174.4380  137.5540 N   0  0  0  0  0  0  0  0  0  0  0  0
  192.7450  176.5310  138.1130 C   0  0  0  0  0  2  0  0  0  0  0  0
  190.4080  176.1050  138.7410 N   0  0  0  0  0  0  0  0  0  0  0  0
  193.2230  174.1010  136.9490 S   0  0  0  0  0  0  0  0  0  0  0  0
  191.5060  175.7100  138.1700 C   0  0  0  0  0  0  0  0  0  0  0  0
  188.0950  176.9090  148.3660 O   0  0  0  0  0  1  0  0  0  0  0  0
  188.3020  177.9800  147.4940 C   0  0  0  0  0  2  0  0  0  0  0  0
  184.9360  178.2830  143.8230 O   0  0  0  0  0  0  0  0  0  0  0  0
  184.8880  179.3290  142.8580 C   0  0  0  0  0  2  0  0  0  0  0  0
  184.3700  178.8060  141.5260 C   0  0  0  0  0  2  0  0  0  0  0  0
  185.0520  179.4760  140.4300 N   0  0  0  0  0  2  0  0  0  0  0  0
  184.1400  179.4770  139.2990 C   0  0  0  0  0  2  0  0  0  0  0  0
  184.4120  178.2640  138.4250 C   0  0  0  0  0  2  0  0  0  0  0  0
  183.1630  177.7420  137.8930 N   0  0  0  0  0  2  0  0  0  0  0  0
  183.5020  176.9110  136.7480 C   0  0  0  0  0  2  0  0  0  0  0  0
  182.9950  175.0960  138.2050 O   0  0  0  0  0  1  0  0  0  0  0  0
  183.8780  175.5120  137.2090 C   0  0  1  0  0  3  0  0  0  0  0  0
  182.7730  174.3280  135.4530 O   0  0  0  0  0  0  0  0  0  0  0  0
  183.8510  174.5460  136.0690 C   0  0  0  0  0  0  0  0  0  0  0  0
  185.0350  173.9090  135.6920 O   0  0  0  0  0  0  0  0  0  0  0  0
  187.0440  174.7010  137.2170 O   0  0  0  0  0  1  0  0  0  0  0  0
  187.2780  172.3160  136.1530 O   0  0  0  0  0  0  0  0  0  0  0  0
  186.2490  173.4730  136.8330 P   0  0  0  0  0  0  0  0  0  0  0  0
  185.5170  172.8290  138.2120 O   0  0  0  0  0  1  0  0  0  0  0  0
  1  4  1  0  0  0  0
  1  3  2  0  0  0  0
  2 23  1  0  0  0  0
  3  7  1  0  0  0  0
  4 11  1  6  0  0  0
  4  5  1  0  0  0  0
  5  2  2  0  0  0  0
  7  2  1  0  0  0  0
  7  6  1  1  0  0  0
  8 11  1  0  0  0  0
  9  8  2  0  0  0  0
  9 10  1  0  0  0  0
 10 12  1  0  0  0  0
 11 12  2  0  0  0  0
 14 13  1  6  0  0  0
 14  9  1  0  0  0  0
 15 17  1  0  0  0  0
 16 18  1  0  0  0  0
 17 21  1  0  0  0  0
 18 21  1  0  0  0  0
 19 14  1  0  0  0  0
 20 16  1  0  0  0  0
 20 17  1  0  0  0  0
 21 19  2  0  0  0  0
 23 22  1  0  0  0  0
 24  3  1  0  0  0  0
 25 24  1  0  0  0  0
 26 25  1  0  0  0  0
 27 26  1  0  0  0  0
 28 27  1  0  0  0  0
 29 28  1  0  0  0  0
 30 29  1  0  0  0  0
 31 33  1  0  0  0  0
 31 30  1  0  0  0  0
 33 32  1  1  0  0  0
 34 35  2  0  0  0  0
 35 33  1  0  0  0  0
 36 35  1  0  0  0  0
 36 39  1  0  0  0  0
 38 39  2  0  0  0  0
 39 37  1  0  0  0  0
 39 40  1  0  0  0  0
M  END
>  <MODEL>
5

>  <REMARK>
 VINA RESULT:      -7.0      4.068      7.403
  Name = 
  16 active torsions:
  status: ('A' for Active; 'I' for Inactive)
    1  A    between atoms: C_3  and  N_20
    2  A    between atoms: C_3  and  C_39
    3  A    between atoms: C_9  and  C_40
    4  A    between atoms: CA_10  and  C_22
    5  A    between atoms: C_11  and  C_18
    6  A    between atoms: C_11  and  C_19
    7  A    between atoms: O_13  and  C_18
    8  A    between atoms: O_13  and  P_29
    9  A    between atoms: N_17  and  C_19
   10  A    between atoms: N_17  and  C_34
   11  A    between atoms: N_20  and  C_32
   12  A    between atoms: C_23  and  O_36
   13  A    between atoms: C_24  and  C_25
   14  A    between atoms: N_30  and  C_40
   15  A    between atoms: C_32  and  C_34
   16  A    between atoms: O_36  and  C_39
                            x       y       z     vdW  Elec       q    Type
                         _______ _______ _______ _____ _____    ______ ____

>  <TORSDO>
F 16

$$$$
=
 OpenBabel11042413003D

 40 42  0  0  1  0  0  0  0  0999 V2000
  188.5120  177.3580  144.5650 N   0  0  0  0  0  0  0  0  0  0  0  0
  190.2870  176.9050  146.6280 C   0  0  0  0  0  0  0  0  0  0  0  0
  188.0600  177.5820  145.7640 C   0  0  0  0  0  0  0  0  0  0  0  0
  189.7030  176.5440  144.3310 C   0  0  2  0  0  3  0  0  0  0  0  0
  190.6600  176.6930  145.4100 N   0  0  0  0  0  0  0  0  0  0  0  0
  188.6150  177.9850  148.1570 C   0  0  0  0  0  1  0  0  0  0  0  0
  188.8130  177.0580  146.9630 C   0  0  2  0  0  3  0  0  0  0  0  0
  189.5800  176.9590  141.8840 N   0  0  0  0  0  0  0  0  0  0  0  0
  190.3310  177.2830  140.8140 C   0  0  0  0  0  0  0  0  0  0  0  0
  191.9400  177.4980  141.2480 S   0  0  0  0  0  0  0  0  0  0  0  0
  190.3270  176.8870  143.0200 C   0  0  0  0  0  0  0  0  0  0  0  0
  191.6930  177.1560  142.8790 C   0  0  0  0  0  3  0  0  0  0  0  0
  188.3600  178.0230  139.5220 C   0  0  0  0  0  1  0  0  0  0  0  0
  189.7660  177.4620  139.4410 C   0  0  2  0  0  3  0  0  0  0  0  0
  189.3810  173.8420  137.0210 C   0  0  0  0  0  1  0  0  0  0  0  0
  192.5510  175.9290  136.4210 C   0  0  0  0  0  2  0  0  0  0  0  0
  190.6370  174.5190  137.3010 N   0  0  0  0  0  0  0  0  0  0  0  0
  191.9210  176.5710  137.6550 C   0  0  0  0  0  2  0  0  0  0  0  0
  189.7450  176.1880  138.7310 N   0  0  0  0  0  0  0  0  0  0  0  0
  192.0900  174.1570  136.3790 S   0  0  0  0  0  0  0  0  0  0  0  0
  190.6960  175.7790  137.9450 C   0  0  0  0  0  0  0  0  0  0  0  0
  192.4230  176.1360  147.3030 O   0  0  0  0  0  1  0  0  0  0  0  0
  191.3230  176.8940  147.7080 C   0  0  0  0  0  2  0  0  0  0  0  0
  186.8690  178.2990  145.9490 O   0  0  0  0  0  0  0  0  0  0  0  0
  185.5810  177.7240  145.7480 C   0  0  0  0  0  2  0  0  0  0  0  0
  184.5280  178.8130  145.5960 C   0  0  0  0  0  2  0  0  0  0  0  0
  183.8630  178.6830  144.3090 N   0  0  0  0  0  2  0  0  0  0  0  0
  184.5480  179.5720  143.3850 C   0  0  0  0  0  2  0  0  0  0  0  0
  185.4700  178.7610  142.4890 C   0  0  0  0  0  2  0  0  0  0  0  0
  185.3200  179.1840  141.1060 N   0  0  0  0  0  2  0  0  0  0  0  0
  183.9140  179.0270  140.7630 C   0  0  0  0  0  2  0  0  0  0  0  0
  184.9020  179.7380  138.7160 O   0  0  0  0  0  1  0  0  0  0  0  0
  183.6980  179.3300  139.2890 C   0  0  1  0  0  3  0  0  0  0  0  0
  182.0160  178.1620  138.0580 O   0  0  0  0  0  0  0  0  0  0  0  0
  183.1700  178.1320  138.5670 C   0  0  0  0  0  0  0  0  0  0  0  0
  183.9760  176.9990  138.4550 O   0  0  0  0  0  0  0  0  0  0  0  0
  185.4340  175.2160  137.1560 O   0  0  0  0  0  1  0  0  0  0  0  0
  185.4820  177.6580  136.2020 O   0  0  0  0  0  1  0  0  0  0  0  0
  184.5710  176.4390  136.9390 P   0  0  0  0  0  0  0  0  0  0  0  0
  183.2700  176.0330  135.9410 O   0  0  0  0  0  0  0  0  0  0  0  0
  1  3  2  0  0  0  0
  2  7  1  0  0  0  0
  2 23  1  0  0  0  0
  3 24  1  0  0  0  0
  3  7  1  0  0  0  0
  4 11  1  6  0  0  0
  4  1  1  0  0  0  0
  4  5  1  0  0  0  0
  5  2  2  0  0  0  0
  7  6  1  1  0  0  0
  8 11  1  0  0  0  0
  9 10  1  0  0  0  0
  9  8  2  0  0  0  0
 10 12  1  0  0  0  0
 12 11  2  0  0  0  0
 14 13  1  1  0  0  0
 14  9  1  0  0  0  0
 15 17  1  0  0  0  0
 16 18  1  0  0  0  0
 17 21  1  0  0  0  0
 18 21  1  0  0  0  0
 19 14  1  0  0  0  0
 20 16  1  0  0  0  0
 20 17  1  0  0  0  0
 21 19  2  0  0  0  0
 22 23  1  0  0  0  0
 25 24  1  0  0  0  0
 26 25  1  0  0  0  0
 27 26  1  0  0  0  0
 28 27  1  0  0  0  0
 29 28  1  0  0  0  0
 30 29  1  0  0  0  0
 31 30  1  0  0  0  0
 33 32  1  6  0  0  0
 33 31  1  0  0  0  0
 34 35  2  0  0  0  0
 35 33  1  0  0  0  0
 36 35  1  0  0  0  0
 38 39  1  0  0  0  0
 39 37  1  0  0  0  0
 39 36  1  0  0  0  0
 40 39  2  0  0  0  0
M  END
>  <MODEL>
6

>  <REMARK>
 VINA RESULT:      -6.9      4.341      8.708
  Name = 
  16 active torsions:
  status: ('A' for Active; 'I' for Inactive)
    1  A    between atoms: C_3  and  N_20
    2  A    between atoms: C_3  and  C_39
    3  A    between atoms: C_9  and  C_40
    4  A    between atoms: CA_10  and  C_22
    5  A    between atoms: C_11  and  C_18
    6  A    between atoms: C_11  and  C_19
    7  A    between atoms: O_13  and  C_18
    8  A    between atoms: O_13  and  P_29
    9  A    between atoms: N_17  and  C_19
   10  A    between atoms: N_17  and  C_34
   11  A    between atoms: N_20  and  C_32
   12  A    between atoms: C_23  and  O_36
   13  A    between atoms: C_24  and  C_25
   14  A    between atoms: N_30  and  C_40
   15  A    between atoms: C_32  and  C_34
   16  A    between atoms: O_36  and  C_39
                            x       y       z     vdW  Elec       q    Type
                         _______ _______ _______ _____ _____    ______ ____

>  <TORSDO>
F 16

$$$$
=
 OpenBabel11042413003D

 40 42  0  0  1  0  0  0  0  0999 V2000
  184.7620  178.3710  141.7320 N   0  0  0  0  0  0  0  0  0  0  0  0
  182.0910  179.0600  141.7980 C   0  0  0  0  0  0  0  0  0  0  0  0
  184.2200  178.4380  142.9130 C   0  0  0  0  0  0  0  0  0  0  0  0
  184.1470  179.0040  140.5670 C   0  0  2  0  0  3  0  0  0  0  0  0
  182.7000  178.9850  140.6620 N   0  0  0  0  0  0  0  0  0  0  0  0
  182.1130  178.4740  144.2380 C   0  0  0  0  0  1  0  0  0  0  0  0
  182.8840  179.1180  143.0920 C   0  0  2  0  0  3  0  0  0  0  0  0
  185.8810  178.4900  138.8630 N   0  0  0  0  0  0  0  0  0  0  0  0
  186.0880  177.8170  137.7140 C   0  0  0  0  0  0  0  0  0  0  0  0
  184.6940  177.0180  137.2240 S   0  0  0  0  0  0  0  0  0  0  0  0
  184.6030  178.3460  139.3080 C   0  0  0  0  0  0  0  0  0  0  0  0
  183.7620  177.5500  138.5220 C   0  0  0  0  0  3  0  0  0  0  0  0
  187.2740  178.2900  135.5990 C   0  0  0  0  0  1  0  0  0  0  0  0
  187.4100  177.7740  137.0180 C   0  0  2  0  0  3  0  0  0  0  0  0
  188.9110  173.7040  136.4740 C   0  0  0  0  0  1  0  0  0  0  0  0
  191.5620  176.3800  137.2310 C   0  0  0  0  0  2  0  0  0  0  0  0
  189.6170  174.7560  137.1870 N   0  0  0  0  0  0  0  0  0  0  0  0
  190.2390  177.1080  137.4510 C   0  0  0  0  0  2  0  0  0  0  0  0
  187.9270  176.4100  136.9950 N   0  0  0  0  0  0  0  0  0  0  0  0
  191.3220  174.5990  137.5850 S   0  0  0  0  0  0  0  0  0  0  0  0
  189.1740  176.1020  137.1940 C   0  0  0  0  0  0  0  0  0  0  0  0
  180.1970  180.0900  140.8170 O   0  0  0  0  0  1  0  0  0  0  0  0
  180.6000  179.1890  141.8050 C   0  0  0  0  0  2  0  0  0  0  0  0
  184.8760  177.8900  144.0240 O   0  0  0  0  0  0  0  0  0  0  0  0
  185.7330  178.6520  144.8700 C   0  0  0  0  0  2  0  0  0  0  0  0
  185.0720  178.8990  146.2180 C   0  0  0  0  0  2  0  0  0  0  0  0
  186.0790  178.9260  147.2680 N   0  0  0  0  0  2  0  0  0  0  0  0
  187.1740  178.0770  146.8280 C   0  0  0  0  0  2  0  0  0  0  0  0
  187.9870  177.6310  148.0320 C   0  0  0  0  0  2  0  0  0  0  0  0
  189.4030  177.8480  147.7840 N   0  0  0  0  0  2  0  0  0  0  0  0
  189.8710  176.7300  146.9790 C   0  0  0  0  0  2  0  0  0  0  0  0
  192.2120  176.3950  146.6890 O   0  0  0  0  0  1  0  0  0  0  0  0
  191.1230  177.1240  146.2110 C   0  0  1  0  0  3  0  0  0  0  0  0
  191.5770  175.9440  144.1850 O   0  0  0  0  0  0  0  0  0  0  0  0
  190.9520  176.8840  144.7460 C   0  0  0  0  0  0  0  0  0  0  0  0
  190.0830  177.7020  144.0220 O   0  0  0  0  0  0  0  0  0  0  0  0
  188.1170  178.1560  142.3140 O   0  0  0  0  0  1  0  0  0  0  0  0
  188.3170  175.7010  143.2130 O   0  0  0  0  0  1  0  0  0  0  0  0
  189.1240  177.1040  142.7240 P   0  0  0  0  0  0  0  0  0  0  0  0
  190.1210  176.7460  141.4080 O   0  0  0  0  0  0  0  0  0  0  0  0
  1  3  2  0  0  0  0
  2 23  1  0  0  0  0
  2  7  1  0  0  0  0
  3  7  1  0  0  0  0
  3 24  1  0  0  0  0
  4 11  1  6  0  0  0
  4  5  1  0  0  0  0
  4  1  1  0  0  0  0
  5  2  2  0  0  0  0
  7  6  1  1  0  0  0
  8 11  1  0  0  0  0
  9  8  2  0  0  0  0
 10  9  1  0  0  0  0
 10 12  1  0  0  0  0
 12 11  2  0  0  0  0
 14 13  1  6  0  0  0
 14  9  1  0  0  0  0
 15 17  1  0  0  0  0
 16 18  1  0  0  0  0
 16 20  1  0  0  0  0
 17 21  1  0  0  0  0
 17 20  1  0  0  0  0
 19 14  1  0  0  0  0
 19 21  2  0  0  0  0
 21 18  1  0  0  0  0
 22 23  1  0  0  0  0
 24 25  1  0  0  0  0
 25 26  1  0  0  0  0
 26 27  1  0  0  0  0
 28 27  1  0  0  0  0
 28 29  1  0  0  0  0
 30 29  1  0  0  0  0
 31 30  1  0  0  0  0
 33 32  1  1  0  0  0
 33 31  1  0  0  0  0
 34 35  2  0  0  0  0
 35 33  1  0  0  0  0
 36 35  1  0  0  0  0
 37 39  1  0  0  0  0
 39 38  1  0  0  0  0
 39 36  1  0  0  0  0
 40 39  2  0  0  0  0
M  END
>  <MODEL>
7

>  <REMARK>
 VINA RESULT:      -6.9      3.621      7.278
  Name = 
  16 active torsions:
  status: ('A' for Active; 'I' for Inactive)
    1  A    between atoms: C_3  and  N_20
    2  A    between atoms: C_3  and  C_39
    3  A    between atoms: C_9  and  C_40
    4  A    between atoms: CA_10  and  C_22
    5  A    between atoms: C_11  and  C_18
    6  A    between atoms: C_11  and  C_19
    7  A    between atoms: O_13  and  C_18
    8  A    between atoms: O_13  and  P_29
    9  A    between atoms: N_17  and  C_19
   10  A    between atoms: N_17  and  C_34
   11  A    between atoms: N_20  and  C_32
   12  A    between atoms: C_23  and  O_36
   13  A    between atoms: C_24  and  C_25
   14  A    between atoms: N_30  and  C_40
   15  A    between atoms: C_32  and  C_34
   16  A    between atoms: O_36  and  C_39
                            x       y       z     vdW  Elec       q    Type
                         _______ _______ _______ _____ _____    ______ ____

>  <TORSDO>
F 16

$$$$
=
 OpenBabel11042413003D

 40 42  0  0  1  0  0  0  0  0999 V2000
  187.0950  177.4690  143.2710 N   0  0  0  0  0  0  0  0  0  0  0  0
  187.6660  177.5880  145.9680 C   0  0  0  0  0  0  0  0  0  0  0  0
  186.1280  177.8760  144.0410 C   0  0  0  0  0  0  0  0  0  0  0  0
  188.2450  176.7390  143.8020 C   0  0  2  0  0  3  0  0  0  0  0  0
  188.5720  177.1810  145.1440 N   0  0  0  0  0  0  0  0  0  0  0  0
  185.4790  178.7830  146.2660 C   0  0  0  0  0  1  0  0  0  0  0  0
  186.2130  177.6660  145.5330 C   0  0  2  0  0  3  0  0  0  0  0  0
  189.2610  177.0570  141.5570 N   0  0  0  0  0  0  0  0  0  0  0  0
  190.4450  177.1620  140.9230 C   0  0  0  0  0  0  0  0  0  0  0  0
  191.7230  177.0470  142.0070 S   0  0  0  0  0  0  0  0  0  0  0  0
  189.4220  176.8790  142.8970 C   0  0  0  0  0  0  0  0  0  0  0  0
  190.7420  176.8420  143.3600 C   0  0  0  0  0  3  0  0  0  0  0  0
  189.4020  178.2280  138.9530 C   0  0  0  0  0  1  0  0  0  0  0  0
  190.5670  177.3950  139.4510 C   0  0  2  0  0  3  0  0  0  0  0  0
  190.3910  173.7930  136.9800 C   0  0  0  0  0  1  0  0  0  0  0  0
  193.6880  175.7610  136.8400 C   0  0  0  0  0  2  0  0  0  0  0  0
  191.6190  174.4230  137.4360 N   0  0  0  0  0  0  0  0  0  0  0  0
  192.9160  176.4260  137.9770 C   0  0  0  0  0  2  0  0  0  0  0  0
  190.5990  176.1230  138.7370 N   0  0  0  0  0  0  0  0  0  0  0  0
  193.1730  174.0080  136.7240 S   0  0  0  0  0  0  0  0  0  0  0  0
  191.6350  175.6800  138.0900 C   0  0  0  0  0  0  0  0  0  0  0  0
  189.1870  177.1310  147.7250 O   0  0  0  0  0  1  0  0  0  0  0  0
  188.0600  177.8810  147.3820 C   0  0  0  0  0  2  0  0  0  0  0  0
  185.0020  178.5020  143.4880 O   0  0  0  0  0  0  0  0  0  0  0  0
  184.5760  178.2840  142.1460 C   0  0  0  0  0  2  0  0  0  0  0  0
  185.3990  179.1250  141.1810 C   0  0  0  0  0  2  0  0  0  0  0  0
  184.5590  179.5940  140.0900 N   0  0  0  0  0  2  0  0  0  0  0  0
  184.5350  178.5410  139.0890 C   0  0  0  0  0  2  0  0  0  0  0  0
  183.2040  178.5660  138.3560 C   0  0  0  0  0  2  0  0  0  0  0  0
  182.1180  178.7660  139.3020 N   0  0  0  0  0  2  0  0  0  0  0  0
  180.9290  179.0830  138.5250 C   0  0  0  0  0  2  0  0  0  0  0  0
  180.7370  179.8560  136.2800 O   0  0  0  0  0  1  0  0  0  0  0  0
  181.2310  180.2000  137.5390 C   0  0  1  0  0  3  0  0  0  0  0  0
  179.5280  181.4910  138.6050 O   0  0  0  0  0  0  0  0  0  0  0  0
  180.6280  181.4910  137.9880 C   0  0  0  0  0  0  0  0  0  0  0  0
  181.3060  182.6830  137.7290 O   0  0  0  0  0  0  0  0  0  0  0  0
  181.5360  185.0690  136.6130 O   0  0  0  0  0  1  0  0  0  0  0  0
  179.6010  184.7970  138.3620 O   0  0  0  0  0  1  0  0  0  0  0  0
  180.5080  184.0840  137.1260 P   0  0  0  0  0  0  0  0  0  0  0  0
  179.4800  183.6420  135.8600 O   0  0  0  0  0  0  0  0  0  0  0  0
  1  4  1  0  0  0  0
  1  3  2  0  0  0  0
  2 23  1  0  0  0  0
  3  7  1  0  0  0  0
  4 11  1  6  0  0  0
  4  5  1  0  0  0  0
  5  2  2  0  0  0  0
  7  2  1  0  0  0  0
  7  6  1  1  0  0  0
  8 11  1  0  0  0  0
  9  8  2  0  0  0  0
  9 10  1  0  0  0  0
 10 12  1  0  0  0  0
 11 12  2  0  0  0  0
 14 13  1  6  0  0  0
 14  9  1  0  0  0  0
 15 17  1  0  0  0  0
 16 18  1  0  0  0  0
 17 21  1  0  0  0  0
 18 21  1  0  0  0  0
 19 14  1  0  0  0  0
 20 16  1  0  0  0  0
 20 17  1  0  0  0  0
 21 19  2  0  0  0  0
 23 22  1  0  0  0  0
 24  3  1  0  0  0  0
 25 24  1  0  0  0  0
 26 25  1  0  0  0  0
 27 26  1  0  0  0  0
 28 27  1  0  0  0  0
 29 28  1  0  0  0  0
 29 30  1  0  0  0  0
 31 30  1  0  0  0  0
 33 32  1  6  0  0  0
 33 35  1  0  0  0  0
 33 31  1  0  0  0  0
 35 34  2  0  0  0  0
 36 35  1  0  0  0  0
 37 39  1  0  0  0  0
 39 36  1  0  0  0  0
 39 38  1  0  0  0  0
 40 39  2  0  0  0  0
M  END
>  <MODEL>
8

>  <REMARK>
 VINA RESULT:      -6.8      5.616      9.718
  Name = 
  16 active torsions:
  status: ('A' for Active; 'I' for Inactive)
    1  A    between atoms: C_3  and  N_20
    2  A    between atoms: C_3  and  C_39
    3  A    between atoms: C_9  and  C_40
    4  A    between atoms: CA_10  and  C_22
    5  A    between atoms: C_11  and  C_18
    6  A    between atoms: C_11  and  C_19
    7  A    between atoms: O_13  and  C_18
    8  A    between atoms: O_13  and  P_29
    9  A    between atoms: N_17  and  C_19
   10  A    between atoms: N_17  and  C_34
   11  A    between atoms: N_20  and  C_32
   12  A    between atoms: C_23  and  O_36
   13  A    between atoms: C_24  and  C_25
   14  A    between atoms: N_30  and  C_40
   15  A    between atoms: C_32  and  C_34
   16  A    between atoms: O_36  and  C_39
                            x       y       z     vdW  Elec       q    Type
                         _______ _______ _______ _____ _____    ______ ____

>  <TORSDO>
F 16

$$$$
=
 OpenBabel11042413003D

 40 42  0  0  1  0  0  0  0  0999 V2000
  186.9780  177.7300  143.7600 N   0  0  0  0  0  0  0  0  0  0  0  0
  187.8340  177.5070  146.3740 C   0  0  0  0  0  0  0  0  0  0  0  0
  186.1310  178.1100  144.6710 C   0  0  0  0  0  0  0  0  0  0  0  0
  188.1180  176.8730  144.0780 C   0  0  2  0  0  3  0  0  0  0  0  0
  188.6160  177.1380  145.4150 N   0  0  0  0  0  0  0  0  0  0  0  0
  185.7880  178.7980  147.0380 C   0  0  0  0  0  1  0  0  0  0  0  0
  186.3540  177.7270  146.1140 C   0  0  2  0  0  3  0  0  0  0  0  0
  188.9120  177.1910  141.7460 N   0  0  0  0  0  0  0  0  0  0  0  0
  190.0280  177.3260  141.0030 C   0  0  0  0  0  0  0  0  0  0  0  0
  191.4040  177.2700  141.9670 S   0  0  0  0  0  0  0  0  0  0  0  0
  189.2010  177.0380  143.0670 C   0  0  0  0  0  0  0  0  0  0  0  0
  190.5590  177.0530  143.4070 C   0  0  0  0  0  3  0  0  0  0  0  0
  188.7080  178.2050  139.1090 C   0  0  0  0  0  1  0  0  0  0  0  0
  190.0060  177.5400  139.5240 C   0  0  2  0  0  3  0  0  0  0  0  0
  190.1950  173.9280  137.0690 C   0  0  0  0  0  1  0  0  0  0  0  0
  193.4350  175.9840  137.2760 C   0  0  0  0  0  2  0  0  0  0  0  0
  191.3500  174.5920  137.6520 N   0  0  0  0  0  0  0  0  0  0  0  0
  192.5260  176.6310  138.3190 C   0  0  0  0  0  2  0  0  0  0  0  0
  190.1490  176.2670  138.8250 N   0  0  0  0  0  0  0  0  0  0  0  0
  192.9810  174.2170  137.1150 S   0  0  0  0  0  0  0  0  0  0  0  0
  191.2600  175.8500  138.2960 C   0  0  0  0  0  0  0  0  0  0  0  0
  189.7800  177.4400  147.7210 O   0  0  0  0  0  1  0  0  0  0  0  0
  188.3950  177.6120  147.7570 C   0  0  0  0  0  2  0  0  0  0  0  0
  185.0030  178.8650  144.3180 O   0  0  0  0  0  0  0  0  0  0  0  0
  184.0560  178.4320  143.3470 C   0  0  0  0  0  2  0  0  0  0  0  0
  182.8110  179.3070  143.3870 C   0  0  0  0  0  2  0  0  0  0  0  0
  181.7520  178.6310  144.1180 N   0  0  0  0  0  2  0  0  0  0  0  0
  180.4900  179.1250  143.5930 C   0  0  0  0  0  2  0  0  0  0  0  0
  180.6820  179.5840  142.1570 C   0  0  0  0  0  2  0  0  0  0  0  0
  179.4080  179.9990  141.5920 N   0  0  0  0  0  2  0  0  0  0  0  0
  179.0070  178.9710  140.6440 C   0  0  0  0  0  2  0  0  0  0  0  0
  179.7790  176.7300  140.3970 O   0  0  0  0  0  1  0  0  0  0  0  0
  180.1860  178.0630  140.3260 C   0  0  1  0  0  3  0  0  0  0  0  0
  180.1950  177.8600  137.9460 O   0  0  0  0  0  0  0  0  0  0  0  0
  180.7390  178.3570  138.9700 C   0  0  0  0  0  0  0  0  0  0  0  0
  181.8500  179.1950  138.8580 O   0  0  0  0  0  0  0  0  0  0  0  0
  183.5980  177.5970  140.0330 O   0  0  0  0  0  1  0  0  0  0  0  0
  184.5370  179.8800  139.1490 O   0  0  0  0  0  1  0  0  0  0  0  0
  183.4630  178.5970  138.9060 P   0  0  0  0  0  0  0  0  0  0  0  0
  183.8230  177.8360  137.4410 O   0  0  0  0  0  0  0  0  0  0  0  0
  1  4  1  0  0  0  0
  1  3  2  0  0  0  0
  2 23  1  0  0  0  0
  3  7  1  0  0  0  0
  4 11  1  6  0  0  0
  4  5  1  0  0  0  0
  5  2  2  0  0  0  0
  7  2  1  0  0  0  0
  7  6  1  1  0  0  0
  8 11  1  0  0  0  0
  9  8  2  0  0  0  0
  9 10  1  0  0  0  0
 10 12  1  0  0  0  0
 11 12  2  0  0  0  0
 14 13  1  6  0  0  0
 14  9  1  0  0  0  0
 15 17  1  0  0  0  0
 16 18  1  0  0  0  0
 17 21  1  0  0  0  0
 19 14  1  0  0  0  0
 20 16  1  0  0  0  0
 20 17  1  0  0  0  0
 21 18  1  0  0  0  0
 21 19  2  0  0  0  0
 22 23  1  0  0  0  0
 24  3  1  0  0  0  0
 25 26  1  0  0  0  0
 25 24  1  0  0  0  0
 26 27  1  0  0  0  0
 28 27  1  0  0  0  0
 29 28  1  0  0  0  0
 30 29  1  0  0  0  0
 31 30  1  0  0  0  0
 33 32  1  6  0  0  0
 33 31  1  0  0  0  0
 34 35  2  0  0  0  0
 35 33  1  0  0  0  0
 36 39  1  0  0  0  0
 36 35  1  0  0  0  0
 39 38  1  0  0  0  0
 39 37  1  0  0  0  0
 40 39  2  0  0  0  0
M  END
>  <MODEL>
9

>  <REMARK>
 VINA RESULT:      -6.7      5.016      9.104
  Name = 
  16 active torsions:
  status: ('A' for Active; 'I' for Inactive)
    1  A    between atoms: C_3  and  N_20
    2  A    between atoms: C_3  and  C_39
    3  A    between atoms: C_9  and  C_40
    4  A    between atoms: CA_10  and  C_22
    5  A    between atoms: C_11  and  C_18
    6  A    between atoms: C_11  and  C_19
    7  A    between atoms: O_13  and  C_18
    8  A    between atoms: O_13  and  P_29
    9  A    between atoms: N_17  and  C_19
   10  A    between atoms: N_17  and  C_34
   11  A    between atoms: N_20  and  C_32
   12  A    between atoms: C_23  and  O_36
   13  A    between atoms: C_24  and  C_25
   14  A    between atoms: N_30  and  C_40
   15  A    between atoms: C_32  and  C_34
   16  A    between atoms: O_36  and  C_39
                            x       y       z     vdW  Elec       q    Type
                         _______ _______ _______ _____ _____    ______ ____

>  <TORSDO>
F 16

$$$$
