=
 OpenBabel11042411223D

 25 28  0  0  1  0  0  0  0  0999 V2000
  187.2430  178.7080  140.5340 N   0  0  0  0  0  0  0  0  0  0  0  0
  188.0660  178.0550  142.6220 C   0  0  1  0  0  3  0  0  0  0  0  0
  189.0790  177.8230  141.5330 C   0  0  0  0  0  0  0  0  0  0  0  0
  190.3340  177.3690  141.7090 C   0  0  0  0  0  0  0  0  0  0  0  0
  191.1310  177.2370  139.3330 N   0  0  0  0  0  0  0  0  0  0  0  0
  186.9600  178.6620  141.9010 N   0  0  0  0  0  2  0  0  0  0  0  0
  191.2720  177.0670  140.6120 C   0  0  0  0  0  3  0  0  0  0  0  0
  190.0670  177.7640  138.5360 C   0  0  0  0  0  3  0  0  0  0  0  0
  188.4180  178.2370  140.3000 C   0  0  0  0  0  0  0  0  0  0  0  0
  188.9240  178.1870  138.9690 N   0  0  0  0  0  0  0  0  0  0  0  0
  191.3930  175.9900  143.4310 N   0  0  0  0  0  0  0  0  0  0  0  0
  190.8070  178.0940  144.1960 C   0  0  0  0  0  2  0  0  0  0  0  0
  191.4510  177.3230  145.3480 C   0  0  2  0  0  3  0  0  0  0  0  0
  191.7680  176.0290  144.7720 N   0  0  0  0  0  2  0  0  0  0  0  0
  190.8770  177.1130  143.0690 C   0  0  0  0  0  0  0  0  0  0  0  0
  190.4820  177.1540  146.4340 C   0  0  0  0  0  0  0  0  0  0  0  0
  189.7170  177.0190  147.2910 N   0  0  0  0  0  0  0  0  0  0  0  0
  187.6150  176.7470  143.1980 C   0  0  0  0  0  3  0  0  0  0  0  0
  186.8310  176.6260  144.2720 C   0  0  0  0  0  3  0  0  0  0  0  0
  186.3000  177.7380  145.0820 C   0  0  0  0  0  0  0  0  0  0  0  0
  184.9630  179.3790  145.7580 N   0  0  0  0  0  0  0  0  0  0  0  0
  186.0060  179.2060  146.6020 C   0  0  0  0  0  3  0  0  0  0  0  0
  185.1620  178.4500  144.8120 C   0  0  0  0  0  0  0  0  0  0  0  0
  184.2970  178.2540  143.6990 N   0  0  0  0  0  1  0  0  0  0  0  0
  186.8400  178.2110  146.2190 N   0  0  0  0  0  2  0  0  0  0  0  0
  1  6  1  0  0  0  0
  2 18  1  6  0  0  0
  3  4  2  0  0  0  0
  3  2  1  0  0  0  0
  4 15  1  0  0  0  0
  5  7  2  0  0  0  0
  6  2  1  0  0  0  0
  7  4  1  0  0  0  0
  8 10  2  0  0  0  0
  8  5  1  0  0  0  0
  9  1  2  0  0  0  0
  9  3  1  0  0  0  0
 10  9  1  0  0  0  0
 11 14  1  0  0  0  0
 12 13  1  0  0  0  0
 13 16  1  1  0  0  0
 14 13  1  0  0  0  0
 15 11  2  0  0  0  0
 15 12  1  0  0  0  0
 16 17  3  0  0  0  0
 18 19  2  0  0  0  0
 19 20  1  0  0  0  0
 20 25  1  0  0  0  0
 21 22  2  0  0  0  0
 23 20  2  0  0  0  0
 23 21  1  0  0  0  0
 24 23  1  0  0  0  0
 25 22  1  0  0  0  0
M  END
>  <MODEL>
1

>  <REMARK>
 VINA RESULT:      -8.0      0.000      0.000
  Name = 
  4 active torsions:
  status: ('A' for Active; 'I' for Inactive)
    1  A    between atoms: C_3  and  C_6
    2  A    between atoms: C_4  and  C_16
    3  A    between atoms: C_8  and  C_12
    4  A    between atoms: C_10  and  C_22
                            x       y       z     vdW  Elec       q    Type
                         _______ _______ _______ _____ _____    ______ ____

>  <TORSDO>
F 4

$$$$
=
 OpenBabel11042411223D

 25 28  0  0  1  0  0  0  0  0999 V2000
  188.2660  177.8200  146.4200 N   0  0  0  0  0  0  0  0  0  0  0  0
  188.1530  177.6800  144.0900 C   0  0  1  0  0  3  0  0  0  0  0  0
  186.8280  178.0750  144.6840 C   0  0  0  0  0  0  0  0  0  0  0  0
  185.7160  178.3890  143.9910 C   0  0  0  0  0  0  0  0  0  0  0  0
  184.0850  178.7800  145.8570 N   0  0  0  0  0  0  0  0  0  0  0  0
  189.0100  177.5900  145.2610 N   0  0  0  0  0  2  0  0  0  0  0  0
  184.4090  178.6850  144.6040 C   0  0  0  0  0  3  0  0  0  0  0  0
  184.8380  178.6500  147.0670 C   0  0  0  0  0  3  0  0  0  0  0  0
  187.0410  178.0850  146.1280 C   0  0  0  0  0  0  0  0  0  0  0  0
  186.0950  178.3570  147.1570 N   0  0  0  0  0  0  0  0  0  0  0  0
  186.7210  178.8730  141.8140 N   0  0  0  0  0  0  0  0  0  0  0  0
  184.5510  178.0840  141.6490 C   0  0  0  0  0  2  0  0  0  0  0  0
  185.0750  178.3560  140.2390 C   0  0  2  0  0  3  0  0  0  0  0  0
  186.4230  178.8510  140.4530 N   0  0  0  0  0  2  0  0  0  0  0  0
  185.7250  178.4420  142.5060 C   0  0  0  0  0  0  0  0  0  0  0  0
  184.2640  179.3960  139.6020 C   0  0  0  0  0  0  0  0  0  0  0  0
  183.6250  180.2190  139.0990 N   0  0  0  0  0  0  0  0  0  0  0  0
  188.0530  176.3270  143.4530 C   0  0  0  0  0  3  0  0  0  0  0  0
  188.9520  175.8250  142.6040 C   0  0  0  0  0  3  0  0  0  0  0  0
  190.1680  176.5110  142.1300 C   0  0  0  0  0  0  0  0  0  0  0  0
  191.5610  177.6130  140.7940 N   0  0  0  0  0  0  0  0  0  0  0  0
  192.1070  177.3940  142.0120 C   0  0  0  0  0  3  0  0  0  0  0  0
  190.3450  177.0540  140.8860 C   0  0  0  0  0  0  0  0  0  0  0  0
  189.3940  177.0450  139.8270 N   0  0  0  0  0  1  0  0  0  0  0  0
  191.2830  176.7250  142.8520 N   0  0  0  0  0  2  0  0  0  0  0  0
  2 18  1  1  0  0  0
  2  3  1  0  0  0  0
  2  6  1  0  0  0  0
  3  9  1  0  0  0  0
  4  7  1  0  0  0  0
  4  3  2  0  0  0  0
  5  8  1  0  0  0  0
  6  1  1  0  0  0  0
  7  5  2  0  0  0  0
  8 10  2  0  0  0  0
  9  1  2  0  0  0  0
  9 10  1  0  0  0  0
 11 15  2  0  0  0  0
 12 15  1  0  0  0  0
 13 16  1  1  0  0  0
 13 14  1  0  0  0  0
 13 12  1  0  0  0  0
 14 11  1  0  0  0  0
 15  4  1  0  0  0  0
 17 16  3  0  0  0  0
 19 18  2  0  0  0  0
 20 19  1  0  0  0  0
 20 25  1  0  0  0  0
 21 23  1  0  0  0  0
 21 22  2  0  0  0  0
 22 25  1  0  0  0  0
 23 20  2  0  0  0  0
 24 23  1  0  0  0  0
M  END
>  <MODEL>
2

>  <REMARK>
 VINA RESULT:      -7.8      1.957      6.903
  Name = 
  4 active torsions:
  status: ('A' for Active; 'I' for Inactive)
    1  A    between atoms: C_3  and  C_6
    2  A    between atoms: C_4  and  C_16
    3  A    between atoms: C_8  and  C_12
    4  A    between atoms: C_10  and  C_22
                            x       y       z     vdW  Elec       q    Type
                         _______ _______ _______ _____ _____    ______ ____

>  <TORSDO>
F 4

$$$$
=
 OpenBabel11042411223D

 25 28  0  0  1  0  0  0  0  0999 V2000
  185.8870  179.1180  141.6380 N   0  0  0  0  0  0  0  0  0  0  0  0
  187.3550  178.1990  143.2060 C   0  0  1  0  0  3  0  0  0  0  0  0
  187.8450  177.9830  141.8000 C   0  0  0  0  0  0  0  0  0  0  0  0
  189.0110  177.4050  141.4520 C   0  0  0  0  0  0  0  0  0  0  0  0
  188.8270  177.4290  138.9500 N   0  0  0  0  0  0  0  0  0  0  0  0
  186.1380  178.9670  143.0030 N   0  0  0  0  0  2  0  0  0  0  0  0
  189.4200  177.1270  140.0630 C   0  0  0  0  0  3  0  0  0  0  0  0
  187.6100  178.1220  138.6550 C   0  0  0  0  0  3  0  0  0  0  0  0
  186.8200  178.5690  140.9420 C   0  0  0  0  0  0  0  0  0  0  0  0
  186.7750  178.6010  139.5190 N   0  0  0  0  0  0  0  0  0  0  0  0
  190.3520  175.7490  142.6540 N   0  0  0  0  0  0  0  0  0  0  0  0
  190.6090  177.8930  143.4870 C   0  0  0  0  0  2  0  0  0  0  0  0
  191.4830  176.9470  144.3100 C   0  0  2  0  0  3  0  0  0  0  0  0
  191.2440  175.6420  143.7190 N   0  0  0  0  0  2  0  0  0  0  0  0
  189.9930  176.9730  142.4800 C   0  0  0  0  0  0  0  0  0  0  0  0
  191.0350  176.9460  145.7040 C   0  0  0  0  0  0  0  0  0  0  0  0
  190.6820  176.9450  146.8060 N   0  0  0  0  0  0  0  0  0  0  0  0
  187.0040  176.8870  143.8410 C   0  0  0  0  0  3  0  0  0  0  0  0
  186.6640  176.7360  145.1230 C   0  0  0  0  0  3  0  0  0  0  0  0
  186.6000  177.8110  146.1300 C   0  0  0  0  0  0  0  0  0  0  0  0
  185.7940  179.4770  147.3610 N   0  0  0  0  0  0  0  0  0  0  0  0
  187.0630  179.1660  147.7120 C   0  0  0  0  0  3  0  0  0  0  0  0
  185.5200  178.6170  146.3700 C   0  0  0  0  0  0  0  0  0  0  0  0
  184.2730  178.5700  145.6840 N   0  0  0  0  0  1  0  0  0  0  0  0
  187.5840  178.1530  146.9810 N   0  0  0  0  0  2  0  0  0  0  0  0
  1  6  1  0  0  0  0
  2 18  1  6  0  0  0
  3  2  1  0  0  0  0
  4  3  2  0  0  0  0
  4 15  1  0  0  0  0
  5  7  2  0  0  0  0
  6  2  1  0  0  0  0
  7  4  1  0  0  0  0
  8  5  1  0  0  0  0
  8 10  2  0  0  0  0
  9  1  2  0  0  0  0
  9  3  1  0  0  0  0
 10  9  1  0  0  0  0
 11 14  1  0  0  0  0
 12 13  1  0  0  0  0
 13 16  1  1  0  0  0
 14 13  1  0  0  0  0
 15 11  2  0  0  0  0
 15 12  1  0  0  0  0
 16 17  3  0  0  0  0
 18 19  2  0  0  0  0
 19 20  1  0  0  0  0
 20 23  2  0  0  0  0
 20 25  1  0  0  0  0
 21 22  2  0  0  0  0
 23 21  1  0  0  0  0
 24 23  1  0  0  0  0
 25 22  1  0  0  0  0
M  END
>  <MODEL>
3

>  <REMARK>
 VINA RESULT:      -7.4      1.220      1.517
  Name = 
  4 active torsions:
  status: ('A' for Active; 'I' for Inactive)
    1  A    between atoms: C_3  and  C_6
    2  A    between atoms: C_4  and  C_16
    3  A    between atoms: C_8  and  C_12
    4  A    between atoms: C_10  and  C_22
                            x       y       z     vdW  Elec       q    Type
                         _______ _______ _______ _____ _____    ______ ____

>  <TORSDO>
F 4

$$$$
=
 OpenBabel11042411223D

 25 28  0  0  1  0  0  0  0  0999 V2000
  184.4660  178.3950  142.2830 N   0  0  0  0  0  0  0  0  0  0  0  0
  186.7440  177.9260  142.0570 C   0  0  1  0  0  3  0  0  0  0  0  0
  186.3460  178.0420  143.5040 C   0  0  0  0  0  0  0  0  0  0  0  0
  187.1530  177.8360  144.5620 C   0  0  0  0  0  0  0  0  0  0  0  0
  185.6010  178.3740  146.4580 N   0  0  0  0  0  0  0  0  0  0  0  0
  185.4800  178.1150  141.3650 N   0  0  0  0  0  2  0  0  0  0  0  0
  186.7560  178.0450  145.9660 C   0  0  0  0  0  3  0  0  0  0  0  0
  184.3290  178.6370  145.8580 C   0  0  0  0  0  3  0  0  0  0  0  0
  184.9240  178.3700  143.4860 C   0  0  0  0  0  0  0  0  0  0  0  0
  184.0650  178.6250  144.5920 N   0  0  0  0  0  0  0  0  0  0  0  0
  188.8840  176.2950  143.7760 N   0  0  0  0  0  0  0  0  0  0  0  0
  189.7450  178.0910  144.9560 C   0  0  0  0  0  2  0  0  0  0  0  0
  190.9060  177.1980  144.5200 C   0  0  2  0  0  3  0  0  0  0  0  0
  190.2650  176.1090  143.8050 N   0  0  0  0  0  2  0  0  0  0  0  0
  188.5570  177.3840  144.3820 C   0  0  0  0  0  0  0  0  0  0  0  0
  191.5970  176.6740  145.7000 C   0  0  0  0  0  0  0  0  0  0  0  0
  192.1430  176.2600  146.6320 N   0  0  0  0  0  0  0  0  0  0  0  0
  187.6770  179.0390  141.6840 C   0  0  0  0  0  3  0  0  0  0  0  0
  188.4830  179.0220  140.6210 C   0  0  0  0  0  3  0  0  0  0  0  0
  188.6160  177.9160  139.6550 C   0  0  0  0  0  0  0  0  0  0  0  0
  188.2320  176.6300  137.8840 N   0  0  0  0  0  0  0  0  0  0  0  0
  189.2770  176.1760  138.6130 C   0  0  0  0  0  3  0  0  0  0  0  0
  187.8310  177.7220  138.5510 C   0  0  0  0  0  0  0  0  0  0  0  0
  186.7420  178.5440  138.1440 N   0  0  0  0  0  1  0  0  0  0  0  0
  189.5390  176.9390  139.7000 N   0  0  0  0  0  2  0  0  0  0  0  0
  1  9  2  0  0  0  0
  2 18  1  6  0  0  0
  2  3  1  0  0  0  0
  3  4  2  0  0  0  0
  4  7  1  0  0  0  0
  6  2  1  0  0  0  0
  6  1  1  0  0  0  0
  7  5  2  0  0  0  0
  8  5  1  0  0  0  0
  9  3  1  0  0  0  0
  9 10  1  0  0  0  0
 10  8  2  0  0  0  0
 11 14  1  0  0  0  0
 11 15  2  0  0  0  0
 13 12  1  0  0  0  0
 13 16  1  1  0  0  0
 14 13  1  0  0  0  0
 15  4  1  0  0  0  0
 15 12  1  0  0  0  0
 16 17  3  0  0  0  0
 19 18  2  0  0  0  0
 20 25  1  0  0  0  0
 20 19  1  0  0  0  0
 21 23  1  0  0  0  0
 21 22  2  0  0  0  0
 22 25  1  0  0  0  0
 23 20  2  0  0  0  0
 24 23  1  0  0  0  0
M  END
>  <MODEL>
4

>  <REMARK>
 VINA RESULT:      -7.4      1.645      5.423
  Name = 
  4 active torsions:
  status: ('A' for Active; 'I' for Inactive)
    1  A    between atoms: C_3  and  C_6
    2  A    between atoms: C_4  and  C_16
    3  A    between atoms: C_8  and  C_12
    4  A    between atoms: C_10  and  C_22
                            x       y       z     vdW  Elec       q    Type
                         _______ _______ _______ _____ _____    ______ ____

>  <TORSDO>
F 4

$$$$
=
 OpenBabel11042411223D

 25 28  0  0  1  0  0  0  0  0999 V2000
  185.5390  178.3530  145.6270 N   0  0  0  0  0  0  0  0  0  0  0  0
  187.1280  178.0920  143.9330 C   0  0  1  0  0  3  0  0  0  0  0  0
  185.7680  178.4060  143.3700 C   0  0  0  0  0  0  0  0  0  0  0  0
  185.4790  178.5940  142.0680 C   0  0  0  0  0  0  0  0  0  0  0  0
  182.9970  178.9410  142.1760 N   0  0  0  0  0  0  0  0  0  0  0  0
  186.8930  178.1290  145.3670 N   0  0  0  0  0  2  0  0  0  0  0  0
  184.1210  178.8120  141.5400 C   0  0  0  0  0  3  0  0  0  0  0  0
  182.6620  178.9310  143.5660 C   0  0  0  0  0  3  0  0  0  0  0  0
  184.8860  178.5030  144.5280 C   0  0  0  0  0  0  0  0  0  0  0  0
  183.4830  178.7460  144.5490 N   0  0  0  0  0  0  0  0  0  0  0  0
  186.3190  178.3840  139.7790 N   0  0  0  0  0  0  0  0  0  0  0  0
  188.0070  178.6880  141.3340 C   0  0  0  0  0  2  0  0  0  0  0  0
  188.6420  178.5650  139.9490 C   0  0  2  0  0  3  0  0  0  0  0  0
  187.5120  178.3700  139.0590 N   0  0  0  0  0  2  0  0  0  0  0  0
  186.5460  178.5750  141.0330 C   0  0  0  0  0  0  0  0  0  0  0  0
  189.5120  177.3880  139.9060 C   0  0  0  0  0  0  0  0  0  0  0  0
  190.2000  176.4580  139.8700 N   0  0  0  0  0  0  0  0  0  0  0  0
  187.5440  176.7050  143.5420 C   0  0  0  0  0  3  0  0  0  0  0  0
  188.7980  176.2510  143.5960 C   0  0  0  0  0  3  0  0  0  0  0  0
  189.9790  177.0260  144.0180 C   0  0  0  0  0  0  0  0  0  0  0  0
  191.5290  177.9240  145.3330 N   0  0  0  0  0  0  0  0  0  0  0  0
  191.7410  178.2300  144.0320 C   0  0  0  0  0  3  0  0  0  0  0  0
  190.4220  177.1680  145.3060 C   0  0  2  0  0  3  0  0  0  0  0  0
  189.8180  176.6050  146.4650 N   0  0  0  0  0  1  0  0  0  0  0  0
  190.8140  177.6960  143.2030 N   0  0  0  0  0  0  0  0  0  0  0  0
  2 18  1  6  0  0  0
  2  6  1  0  0  0  0
  3  2  1  0  0  0  0
  3  9  1  0  0  0  0
  4  3  2  0  0  0  0
  5  8  1  0  0  0  0
  6  1  1  0  0  0  0
  7  4  1  0  0  0  0
  7  5  2  0  0  0  0
  8 10  2  0  0  0  0
  9 10  1  0  0  0  0
  9  1  2  0  0  0  0
 11 15  2  0  0  0  0
 13 16  1  1  0  0  0
 13 12  1  0  0  0  0
 14 11  1  0  0  0  0
 14 13  1  0  0  0  0
 15 12  1  0  0  0  0
 15  4  1  0  0  0  0
 17 16  3  0  0  0  0
 18 19  2  0  0  0  0
 19 20  1  0  0  0  0
 20 23  1  0  0  0  0
 22 21  2  0  0  0  0
 23 21  1  0  0  0  0
 23 24  1  6  0  0  0
 25 20  2  0  0  0  0
 25 22  1  0  0  0  0
M  END
>  <MODEL>
5

>  <REMARK>
 VINA RESULT:      -7.3      1.641      5.900
  Name = 
  4 active torsions:
  status: ('A' for Active; 'I' for Inactive)
    1  A    between atoms: C_3  and  C_6
    2  A    between atoms: C_4  and  C_16
    3  A    between atoms: C_8  and  C_12
    4  A    between atoms: C_10  and  C_22
                            x       y       z     vdW  Elec       q    Type
                         _______ _______ _______ _____ _____    ______ ____

>  <TORSDO>
F 4

$$$$
=
 OpenBabel11042411223D

 25 28  0  0  1  0  0  0  0  0999 V2000
  191.2970  176.8110  140.9010 N   0  0  0  0  0  0  0  0  0  0  0  0
  189.8190  177.4410  142.5990 C   0  0  1  0  0  3  0  0  0  0  0  0
  189.2010  177.6140  141.2370 C   0  0  0  0  0  0  0  0  0  0  0  0
  187.9370  178.0070  140.9910 C   0  0  0  0  0  0  0  0  0  0  0  0
  187.9400  178.0800  138.4830 N   0  0  0  0  0  0  0  0  0  0  0  0
  191.1240  176.8830  142.2840 N   0  0  0  0  0  2  0  0  0  0  0  0
  187.3890  178.2530  139.6450 C   0  0  0  0  0  3  0  0  0  0  0  0
  189.2260  177.5980  138.0810 C   0  0  0  0  0  3  0  0  0  0  0  0
  190.2400  177.2220  140.2910 C   0  0  0  0  0  0  0  0  0  0  0  0
  190.1870  177.2350  138.8680 N   0  0  0  0  0  0  0  0  0  0  0  0
  186.8560  177.4730  143.1200 N   0  0  0  0  0  0  0  0  0  0  0  0
  185.9810  179.3660  142.1160 C   0  0  0  0  0  2  0  0  0  0  0  0
  185.2340  179.1250  143.4270 C   0  0  2  0  0  3  0  0  0  0  0  0
  185.8450  177.9230  143.9660 N   0  0  0  0  0  2  0  0  0  0  0  0
  186.9760  178.2480  142.0990 C   0  0  0  0  0  0  0  0  0  0  0  0
  183.8170  178.8750  143.1510 C   0  0  0  0  0  0  0  0  0  0  0  0
  182.6980  178.6760  142.9340 N   0  0  0  0  0  0  0  0  0  0  0  0
  190.0050  178.7750  143.2580 C   0  0  0  0  0  3  0  0  0  0  0  0
  190.3260  178.9430  144.5420 C   0  0  0  0  0  3  0  0  0  0  0  0
  190.5280  177.8670  145.5290 C   0  0  0  0  0  0  0  0  0  0  0  0
  190.0850  176.3780  147.1190 N   0  0  0  0  0  0  0  0  0  0  0  0
  191.3780  176.3160  146.7230 C   0  0  0  0  0  3  0  0  0  0  0  0
  189.5680  177.3540  146.3590 C   0  0  2  0  0  3  0  0  0  0  0  0
  188.2090  177.7750  146.4250 N   0  0  0  0  0  1  0  0  0  0  0  0
  191.6810  177.2100  145.7540 N   0  0  0  0  0  0  0  0  0  0  0  0
  1  6  1  0  0  0  0
  2 18  1  6  0  0  0
  3  2  1  0  0  0  0
  4  3  2  0  0  0  0
  4 15  1  0  0  0  0
  5  7  2  0  0  0  0
  6  2  1  0  0  0  0
  7  4  1  0  0  0  0
  8  5  1  0  0  0  0
  8 10  2  0  0  0  0
  9  1  2  0  0  0  0
  9  3  1  0  0  0  0
 10  9  1  0  0  0  0
 11 14  1  0  0  0  0
 12 13  1  0  0  0  0
 13 16  1  6  0  0  0
 13 14  1  0  0  0  0
 15 12  1  0  0  0  0
 15 11  2  0  0  0  0
 17 16  3  0  0  0  0
 18 19  2  0  0  0  0
 19 20  1  0  0  0  0
 20 25  2  0  0  0  0
 20 23  1  0  0  0  0
 22 21  2  0  0  0  0
 23 24  1  6  0  0  0
 23 21  1  0  0  0  0
 25 22  1  0  0  0  0
M  END
>  <MODEL>
6

>  <REMARK>
 VINA RESULT:      -7.0      1.631      4.742
  Name = 
  4 active torsions:
  status: ('A' for Active; 'I' for Inactive)
    1  A    between atoms: C_3  and  C_6
    2  A    between atoms: C_4  and  C_16
    3  A    between atoms: C_8  and  C_12
    4  A    between atoms: C_10  and  C_22
                            x       y       z     vdW  Elec       q    Type
                         _______ _______ _______ _____ _____    ______ ____

>  <TORSDO>
F 4

$$$$
=
 OpenBabel11042411223D

 25 28  0  0  1  0  0  0  0  0999 V2000
  185.5030  178.8500  138.3350 N   0  0  0  0  0  0  0  0  0  0  0  0
  184.2660  178.8850  140.3170 C   0  0  1  0  0  3  0  0  0  0  0  0
  185.7300  178.6600  140.5840 C   0  0  0  0  0  0  0  0  0  0  0  0
  186.3020  178.5620  141.8000 C   0  0  0  0  0  0  0  0  0  0  0  0
  188.6850  178.0960  141.1680 N   0  0  0  0  0  0  0  0  0  0  0  0
  184.2290  179.0430  138.8720 N   0  0  0  0  0  2  0  0  0  0  0  0
  187.7250  178.2510  142.0270 C   0  0  0  0  0  3  0  0  0  0  0  0
  188.7310  178.1720  139.7400 C   0  0  0  0  0  3  0  0  0  0  0  0
  186.3590  178.6260  139.2690 C   0  0  0  0  0  0  0  0  0  0  0  0
  187.7300  178.4020  138.9540 N   0  0  0  0  0  0  0  0  0  0  0  0
  184.6780  179.7160  143.2210 N   0  0  0  0  0  0  0  0  0  0  0  0
  185.6390  177.8820  144.2570 C   0  0  0  0  0  2  0  0  0  0  0  0
  184.6520  178.5250  145.2300 C   0  0  2  0  0  3  0  0  0  0  0  0
  184.1190  179.6580  144.4950 N   0  0  0  0  0  2  0  0  0  0  0  0
  185.5070  178.7460  143.0420 C   0  0  0  0  0  0  0  0  0  0  0  0
  185.3660  179.0010  146.4170 C   0  0  0  0  0  0  0  0  0  0  0  0
  185.9310  179.3750  147.3550 N   0  0  0  0  0  0  0  0  0  0  0  0
  183.4760  177.6690  140.6960 C   0  0  0  0  0  3  0  0  0  0  0  0
  182.1740  177.6770  140.9940 C   0  0  0  0  0  3  0  0  0  0  0  0
  181.3050  178.8670  141.0270 C   0  0  0  0  0  0  0  0  0  0  0  0
  180.0350  180.5060  141.8270 N   0  0  0  0  0  0  0  0  0  0  0  0
  180.1560  180.5810  140.4820 C   0  0  0  0  0  3  0  0  0  0  0  0
  180.7620  179.4280  142.1520 C   0  0  2  0  0  3  0  0  0  0  0  0
  180.9300  178.9570  143.4850 N   0  0  0  0  0  1  0  0  0  0  0  0
  180.9260  179.5960  139.9620 N   0  0  0  0  0  0  0  0  0  0  0  0
  1  6  1  0  0  0  0
  1  9  2  0  0  0  0
  2  3  1  0  0  0  0
  2 18  1  6  0  0  0
  3  4  2  0  0  0  0
  4  7  1  0  0  0  0
  4 15  1  0  0  0  0
  5  7  2  0  0  0  0
  6  2  1  0  0  0  0
  8  5  1  0  0  0  0
  9  3  1  0  0  0  0
 10  9  1  0  0  0  0
 10  8  2  0  0  0  0
 11 14  1  0  0  0  0
 12 13  1  0  0  0  0
 13 16  1  1  0  0  0
 14 13  1  0  0  0  0
 15 11  2  0  0  0  0
 15 12  1  0  0  0  0
 16 17  3  0  0  0  0
 18 19  2  0  0  0  0
 19 20  1  0  0  0  0
 20 23  1  0  0  0  0
 21 23  1  0  0  0  0
 22 21  2  0  0  0  0
 23 24  1  1  0  0  0
 25 22  1  0  0  0  0
 25 20  2  0  0  0  0
M  END
>  <MODEL>
7

>  <REMARK>
 VINA RESULT:      -6.8      3.398      5.398
  Name = 
  4 active torsions:
  status: ('A' for Active; 'I' for Inactive)
    1  A    between atoms: C_3  and  C_6
    2  A    between atoms: C_4  and  C_16
    3  A    between atoms: C_8  and  C_12
    4  A    between atoms: C_10  and  C_22
                            x       y       z     vdW  Elec       q    Type
                         _______ _______ _______ _____ _____    ______ ____

>  <TORSDO>
F 4

$$$$
=
 OpenBabel11042411223D

 25 28  0  0  1  0  0  0  0  0999 V2000
  185.7270  178.2090  145.6070 N   0  0  0  0  0  0  0  0  0  0  0  0
  187.2790  177.8540  143.8960 C   0  0  1  0  0  3  0  0  0  0  0  0
  185.9460  178.2890  143.3500 C   0  0  0  0  0  0  0  0  0  0  0  0
  185.6660  178.5270  142.0540 C   0  0  0  0  0  0  0  0  0  0  0  0
  183.2200  179.0720  142.1870 N   0  0  0  0  0  0  0  0  0  0  0  0
  187.0560  177.8810  145.3330 N   0  0  0  0  0  2  0  0  0  0  0  0
  184.3260  178.8650  141.5410 C   0  0  0  0  0  3  0  0  0  0  0  0
  182.8940  179.0620  143.5800 C   0  0  0  0  0  3  0  0  0  0  0  0
  185.0810  178.4340  144.5170 C   0  0  0  0  0  0  0  0  0  0  0  0
  183.7030  178.7910  144.5530 N   0  0  0  0  0  0  0  0  0  0  0  0
  187.8470  179.0630  141.0830 N   0  0  0  0  0  0  0  0  0  0  0  0
  186.5650  177.7010  139.7200 C   0  0  0  0  0  2  0  0  0  0  0  0
  187.8940  177.9740  139.0180 C   0  0  2  0  0  3  0  0  0  0  0  0
  188.6110  178.8350  139.9410 N   0  0  0  0  0  2  0  0  0  0  0  0
  186.7210  178.4420  141.0110 C   0  0  0  0  0  0  0  0  0  0  0  0
  187.6530  178.6900  137.7630 C   0  0  0  0  0  0  0  0  0  0  0  0
  187.4620  179.2560  136.7720 N   0  0  0  0  0  0  0  0  0  0  0  0
  187.5780  176.4470  143.4750 C   0  0  0  0  0  3  0  0  0  0  0  0
  188.7940  175.9970  143.1560 C   0  0  0  0  0  3  0  0  0  0  0  0
  190.0320  176.7980  143.1370 C   0  0  0  0  0  0  0  0  0  0  0  0
  191.8890  177.7570  142.3830 N   0  0  0  0  0  0  0  0  0  0  0  0
  191.6510  178.0790  143.6750 C   0  0  0  0  0  3  0  0  0  0  0  0
  190.8650  176.9550  142.0610 C   0  0  0  0  0  0  0  0  0  0  0  0
  190.6900  176.3670  140.7770 N   0  0  0  0  0  1  0  0  0  0  0  0
  190.5240  177.5110  144.1650 N   0  0  0  0  0  2  0  0  0  0  0  0
  2 18  1  6  0  0  0
  2  6  1  0  0  0  0
  3  2  1  0  0  0  0
  3  9  1  0  0  0  0
  4  3  2  0  0  0  0
  5  8  1  0  0  0  0
  6  1  1  0  0  0  0
  7  4  1  0  0  0  0
  7  5  2  0  0  0  0
  8 10  2  0  0  0  0
  9 10  1  0  0  0  0
  9  1  2  0  0  0  0
 12 15  1  0  0  0  0
 13 16  1  6  0  0  0
 13 12  1  0  0  0  0
 13 14  1  0  0  0  0
 14 11  1  0  0  0  0
 15 11  2  0  0  0  0
 15  4  1  0  0  0  0
 17 16  3  0  0  0  0
 19 18  2  0  0  0  0
 20 19  1  0  0  0  0
 20 25  1  0  0  0  0
 21 22  2  0  0  0  0
 22 25  1  0  0  0  0
 23 21  1  0  0  0  0
 23 20  2  0  0  0  0
 24 23  1  0  0  0  0
M  END
>  <MODEL>
8

>  <REMARK>
 VINA RESULT:      -6.8      1.792      6.335
  Name = 
  4 active torsions:
  status: ('A' for Active; 'I' for Inactive)
    1  A    between atoms: C_3  and  C_6
    2  A    between atoms: C_4  and  C_16
    3  A    between atoms: C_8  and  C_12
    4  A    between atoms: C_10  and  C_22
                            x       y       z     vdW  Elec       q    Type
                         _______ _______ _______ _____ _____    ______ ____

>  <TORSDO>
F 4

$$$$
=
 OpenBabel11042411223D

 25 28  0  0  1  0  0  0  0  0999 V2000
  184.0190  179.1470  145.9070 N   0  0  0  0  0  0  0  0  0  0  0  0
  186.1580  178.3010  145.4950 C   0  0  1  0  0  3  0  0  0  0  0  0
  185.3590  178.4210  144.2250 C   0  0  0  0  0  0  0  0  0  0  0  0
  185.8080  178.1560  142.9830 C   0  0  0  0  0  0  0  0  0  0  0  0
  183.7320  178.5510  141.6310 N   0  0  0  0  0  0  0  0  0  0  0  0
  185.2450  178.8300  146.4950 N   0  0  0  0  0  2  0  0  0  0  0  0
  184.9730  178.1970  141.7700 C   0  0  0  0  0  3  0  0  0  0  0  0
  182.7480  179.0220  142.5570 C   0  0  0  0  0  3  0  0  0  0  0  0
  184.0520  178.9200  144.6410 C   0  0  0  0  0  0  0  0  0  0  0  0
  182.9080  179.1750  143.8310 N   0  0  0  0  0  0  0  0  0  0  0  0
  187.7110  176.6190  143.0540 N   0  0  0  0  0  0  0  0  0  0  0  0
  188.2620  178.6970  142.1960 C   0  0  0  0  0  2  0  0  0  0  0  0
  189.5180  177.8260  142.1980 C   0  0  2  0  0  3  0  0  0  0  0  0
  189.0710  176.5640  142.7570 N   0  0  0  0  0  2  0  0  0  0  0  0
  187.2230  177.7700  142.7430 C   0  0  0  0  0  0  0  0  0  0  0  0
  190.5310  178.4210  143.0720 C   0  0  0  0  0  0  0  0  0  0  0  0
  191.3320  178.8900  143.7630 N   0  0  0  0  0  0  0  0  0  0  0  0
  186.4350  176.8590  145.7990 C   0  0  0  0  0  3  0  0  0  0  0  0
  187.3370  176.4360  146.6880 C   0  0  0  0  0  3  0  0  0  0  0  0
  188.2230  177.2950  147.4940 C   0  0  0  0  0  0  0  0  0  0  0  0
  190.0650  178.3160  148.2030 N   0  0  0  0  0  0  0  0  0  0  0  0
  188.9840  178.6730  148.9330 C   0  0  0  0  0  3  0  0  0  0  0  0
  189.5700  177.4530  147.3040 C   0  0  0  0  0  0  0  0  0  0  0  0
  190.3550  176.8110  146.3050 N   0  0  0  0  0  1  0  0  0  0  0  0
  187.8440  178.0690  148.5260 N   0  0  0  0  0  2  0  0  0  0  0  0
  1  6  1  0  0  0  0
  2 18  1  1  0  0  0
  2  6  1  0  0  0  0
  3  9  1  0  0  0  0
  3  2  1  0  0  0  0
  4  3  2  0  0  0  0
  5  7  2  0  0  0  0
  5  8  1  0  0  0  0
  7  4  1  0  0  0  0
  8 10  2  0  0  0  0
  9  1  2  0  0  0  0
 10  9  1  0  0  0  0
 12 13  1  0  0  0  0
 12 15  1  0  0  0  0
 13 14  1  0  0  0  0
 13 16  1  1  0  0  0
 14 11  1  0  0  0  0
 15  4  1  0  0  0  0
 15 11  2  0  0  0  0
 16 17  3  0  0  0  0
 18 19  2  0  0  0  0
 19 20  1  0  0  0  0
 20 25  1  0  0  0  0
 21 22  2  0  0  0  0
 23 20  2  0  0  0  0
 23 21  1  0  0  0  0
 24 23  1  0  0  0  0
 25 22  1  0  0  0  0
M  END
>  <MODEL>
9

>  <REMARK>
 VINA RESULT:      -6.4      2.144      5.061
  Name = 
  4 active torsions:
  status: ('A' for Active; 'I' for Inactive)
    1  A    between atoms: C_3  and  C_6
    2  A    between atoms: C_4  and  C_16
    3  A    between atoms: C_8  and  C_12
    4  A    between atoms: C_10  and  C_22
                            x       y       z     vdW  Elec       q    Type
                         _______ _______ _______ _____ _____    ______ ____

>  <TORSDO>
F 4

$$$$
