=
 OpenBabel11032420233D

 39 42  0  0  1  0  0  0  0  0999 V2000
  188.5610  178.6150  140.2320 C   0  0  2  0  0  3  0  0  0  0  0  0
  190.2450  177.3190  139.2670 C   0  0  2  0  0  3  0  0  0  0  0  0
  187.9220  177.5130  139.4060 C   0  0  0  0  0  2  0  0  0  0  0  0
  189.9650  178.1290  140.5340 C   0  0  2  0  0  3  0  0  0  0  0  0
  188.9950  176.7350  138.7900 N   0  0  0  0  0  2  0  0  0  0  0  0
  190.0610  177.3580  141.8750 C   0  0  2  0  0  3  0  0  0  0  0  0
  191.2240  177.8440  142.7050 C   0  0  0  0  0  0  0  0  0  0  0  0
  192.3520  177.5000  142.3970 O   0  0  0  0  0  0  0  0  0  0  0  0
  191.0380  178.7560  143.8820 C   0  0  0  0  0  2  0  0  0  0  0  0
  191.3000  177.2720  145.8720 C   0  0  0  0  0  3  0  0  0  0  0  0
  190.7780  176.6210  146.9940 C   0  0  0  0  0  3  0  0  0  0  0  0
  189.4180  176.7450  147.3040 C   0  0  0  0  0  3  0  0  0  0  0  0
  190.4630  178.0380  145.0560 C   0  0  0  0  0  0  0  0  0  0  0  0
  189.1030  178.1660  145.3730 C   0  0  0  0  0  3  0  0  0  0  0  0
  188.5800  177.5180  146.4940 C   0  0  0  0  0  3  0  0  0  0  0  0
  190.0630  175.9700  141.6930 O   0  0  0  0  0  0  0  0  0  0  0  0
  188.2580  175.7910  143.0840 O   0  0  0  0  0  1  0  0  0  0  0  0
  189.5910  175.4240  142.8900 C   0  0  0  0  0  2  0  0  0  0  0  0
  191.4410  176.3500  139.2540 C   0  0  0  0  0  2  0  0  0  0  0  0
  193.8630  174.6590  135.4460 C   0  0  0  0  0  0  0  0  0  0  0  0
  192.6590  175.6000  137.2140 C   0  0  0  0  0  0  0  0  0  0  0  0
  195.1070  174.6760  134.9400 N   0  0  0  0  0  0  0  0  0  0  0  0
  196.9410  176.3780  135.0350 C   0  0  0  0  0  1  0  0  0  0  0  0
  193.6500  175.7570  136.1800 C   0  0  0  0  0  0  0  0  0  0  0  0
  192.3790  176.5480  138.1050 C   0  0  0  0  0  2  0  0  0  0  0  0
  192.8530  173.2440  135.8360 S   0  0  0  0  0  0  0  0  0  0  0  0
  195.5650  175.8910  135.3440 C   0  0  0  0  0  0  0  0  0  0  0  0
  192.0690  174.2130  137.2100 C   0  0  0  0  0  3  0  0  0  0  0  0
  194.7220  176.5660  136.1650 N   0  0  0  0  0  2  0  0  0  0  0  0
  187.7190  179.0080  141.4370 C   0  0  0  0  0  2  0  0  0  0  0  0
  186.4170  178.2350  141.4150 C   0  0  0  0  0  2  0  0  0  0  0  0
  185.2440  179.1320  141.7790 C   0  0  1  0  0  3  0  0  0  0  0  0
  184.5720  179.4980  140.6080 O   0  0  0  0  0  1  0  0  0  0  0  0
  182.8430  178.8220  142.4590 C   0  0  0  0  0  1  0  0  0  0  0  0
  184.2850  178.4140  142.7400 C   0  0  2  0  0  3  0  0  0  0  0  0
  185.0980  179.9740  144.3740 F   0  0  0  0  0  0  0  0  0  0  0  0
  184.6180  178.6850  144.2160 C   0  0  0  0  0  0  0  0  0  0  0  0
  185.5970  177.8070  144.6490 F   0  0  0  0  0  0  0  0  0  0  0  0
  183.4880  178.5240  145.0020 F   0  0  0  0  0  0  0  0  0  0  0  0
  1  4  1  0  0  0  0
  1 30  1  1  0  0  0
  2 19  1  1  0  0  0
  2  4  1  0  0  0  0
  3  1  1  0  0  0  0
  4  6  1  1  0  0  0
  5  2  1  0  0  0  0
  5  3  1  0  0  0  0
  6 16  1  6  0  0  0
  6  7  1  0  0  0  0
  7  9  1  0  0  0  0
  8  7  2  0  0  0  0
  9 13  1  0  0  0  0
 10 11  1  0  0  0  0
 11 12  2  0  0  0  0
 13 14  1  0  0  0  0
 13 10  2  0  0  0  0
 14 15  2  0  0  0  0
 15 12  1  0  0  0  0
 16 18  1  0  0  0  0
 18 17  1  0  0  0  0
 20 26  1  0  0  0  0
 20 24  2  0  0  0  0
 21 25  1  0  0  0  0
 22 27  2  0  0  0  0
 22 20  1  0  0  0  0
 23 27  1  0  0  0  0
 24 21  1  0  0  0  0
 25 19  1  0  0  0  0
 26 28  1  0  0  0  0
 27 29  1  0  0  0  0
 28 21  2  0  0  0  0
 29 24  1  0  0  0  0
 31 30  1  0  0  0  0
 31 32  1  0  0  0  0
 32 33  1  6  0  0  0
 32 35  1  0  0  0  0
 35 34  1  6  0  0  0
 35 37  1  0  0  0  0
 37 36  1  0  0  0  0
 37 38  1  0  0  0  0
 37 39  1  0  0  0  0
M  END
>  <MODEL>
1

>  <REMARK>
 VINA RESULT:      -7.9      0.000      0.000
  Name = 
  13 active torsions:
  status: ('A' for Active; 'I' for Inactive)
    1  A    between atoms: O_1  and  C_11
    2  A    between atoms: O_1  and  C_21
    3  A    between atoms: C_3  and  C_35
    4  A    between atoms: C_9  and  C_28
    5  A    between atoms: C_9  and  C_29
    6  A    between atoms: C_11  and  C_20
    7  A    between atoms: C_11  and  C_26
    8  A    between atoms: C_12  and  C_28
    9  A    between atoms: C_15  and  C_22
   10  A    between atoms: C_18  and  C_22
   11  A    between atoms: C_19  and  C_20
   12  A    between atoms: C_19  and  C_27
   13  A    between atoms: C_29  and  C_35
                            x       y       z     vdW  Elec       q    Type
                         _______ _______ _______ _____ _____    ______ ____

>  <TORSDO>
F 13

$$$$
=
 OpenBabel11032420233D

 39 42  0  0  1  0  0  0  0  0999 V2000
  189.8600  176.0380  138.3420 C   0  0  2  0  0  3  0  0  0  0  0  0
  188.8560  177.8360  139.4420 C   0  0  2  0  0  3  0  0  0  0  0  0
  189.9880  177.2790  137.4760 C   0  0  0  0  0  2  0  0  0  0  0  0
  189.6290  176.5520  139.7500 C   0  0  2  0  0  3  0  0  0  0  0  0
  189.3280  178.3820  138.1720 N   0  0  0  0  0  2  0  0  0  0  0  0
  190.9430  176.7200  140.5540 C   0  0  2  0  0  3  0  0  0  0  0  0
  190.6880  176.6640  142.0400 C   0  0  0  0  0  0  0  0  0  0  0  0
  190.1200  175.6900  142.5040 O   0  0  0  0  0  0  0  0  0  0  0  0
  191.1320  177.7570  142.9680 C   0  0  0  0  0  2  0  0  0  0  0  0
  189.4280  177.8430  144.7910 C   0  0  0  0  0  3  0  0  0  0  0  0
  189.0160  177.5690  146.0980 C   0  0  0  0  0  3  0  0  0  0  0  0
  189.8920  176.9350  146.9890 C   0  0  0  0  0  3  0  0  0  0  0  0
  190.7160  177.4920  144.3760 C   0  0  0  0  0  0  0  0  0  0  0  0
  191.5880  176.8510  145.2680 C   0  0  0  0  0  3  0  0  0  0  0  0
  191.1790  176.5750  146.5740 C   0  0  0  0  0  3  0  0  0  0  0  0
  191.6640  177.8560  140.1660 O   0  0  0  0  0  0  0  0  0  0  0  0
  193.4970  177.1190  139.0170 O   0  0  0  0  0  1  0  0  0  0  0  0
  193.0140  177.5080  140.2670 C   0  0  0  0  0  2  0  0  0  0  0  0
  188.6840  178.8830  140.5550 C   0  0  0  0  0  2  0  0  0  0  0  0
  184.3590  178.3260  142.6080 C   0  0  0  0  0  0  0  0  0  0  0  0
  186.4910  178.4630  141.6630 C   0  0  0  0  0  0  0  0  0  0  0  0
  183.7490  178.5660  143.7810 N   0  0  0  0  0  0  0  0  0  0  0  0
  184.5870  178.5970  146.1400 C   0  0  0  0  0  1  0  0  0  0  0  0
  185.6690  178.1400  142.8010 C   0  0  0  0  0  0  0  0  0  0  0  0
  187.8220  178.4340  141.6930 C   0  0  0  0  0  2  0  0  0  0  0  0
  183.8730  178.8720  140.9830 S   0  0  0  0  0  0  0  0  0  0  0  0
  184.7650  178.4110  144.6700 C   0  0  0  0  0  0  0  0  0  0  0  0
  185.6610  178.9230  140.4930 C   0  0  0  0  0  3  0  0  0  0  0  0
  185.9820  178.2090  144.1050 N   0  0  0  0  0  2  0  0  0  0  0  0
  191.0280  175.0780  138.1670 C   0  0  0  0  0  2  0  0  0  0  0  0
  190.7210  174.1130  137.0410 C   0  0  0  0  0  2  0  0  0  0  0  0
  191.7610  174.2150  135.9360 C   0  0  1  0  0  3  0  0  0  0  0  0
  191.1850  174.8420  134.8270 O   0  0  0  0  0  1  0  0  0  0  0  0
  193.4080  176.0260  135.3650 C   0  0  0  0  0  1  0  0  0  0  0  0
  192.9900  175.0030  136.4150 C   0  0  2  0  0  3  0  0  0  0  0  0
  194.2530  173.0410  135.8480 F   0  0  0  0  0  0  0  0  0  0  0  0
  194.1810  174.0910  136.7480 C   0  0  0  0  0  0  0  0  0  0  0  0
  194.0290  173.5590  138.0160 F   0  0  0  0  0  0  0  0  0  0  0  0
  195.3650  174.8090  136.6990 F   0  0  0  0  0  0  0  0  0  0  0  0
  1 30  1  1  0  0  0
  1  4  1  0  0  0  0
  2  4  1  0  0  0  0
  2 19  1  1  0  0  0
  3  5  1  0  0  0  0
  3  1  1  0  0  0  0
  4  6  1  6  0  0  0
  5  2  1  0  0  0  0
  6 16  1  1  0  0  0
  6  7  1  0  0  0  0
  7  8  2  0  0  0  0
  7  9  1  0  0  0  0
  9 13  1  0  0  0  0
 10 11  1  0  0  0  0
 11 12  2  0  0  0  0
 13 10  2  0  0  0  0
 13 14  1  0  0  0  0
 14 15  2  0  0  0  0
 15 12  1  0  0  0  0
 16 18  1  0  0  0  0
 17 18  1  0  0  0  0
 19 25  1  0  0  0  0
 20 24  2  0  0  0  0
 20 22  1  0  0  0  0
 21 25  1  0  0  0  0
 21 24  1  0  0  0  0
 22 27  2  0  0  0  0
 24 29  1  0  0  0  0
 26 20  1  0  0  0  0
 27 23  1  0  0  0  0
 28 26  1  0  0  0  0
 28 21  2  0  0  0  0
 29 27  1  0  0  0  0
 31 30  1  0  0  0  0
 32 33  1  6  0  0  0
 32 35  1  0  0  0  0
 32 31  1  0  0  0  0
 35 34  1  6  0  0  0
 35 37  1  0  0  0  0
 36 37  1  0  0  0  0
 37 38  1  0  0  0  0
 39 37  1  0  0  0  0
M  END
>  <MODEL>
2

>  <REMARK>
 VINA RESULT:      -7.3      4.591      8.655
  Name = 
  13 active torsions:
  status: ('A' for Active; 'I' for Inactive)
    1  A    between atoms: O_1  and  C_11
    2  A    between atoms: O_1  and  C_21
    3  A    between atoms: C_3  and  C_35
    4  A    between atoms: C_9  and  C_28
    5  A    between atoms: C_9  and  C_29
    6  A    between atoms: C_11  and  C_20
    7  A    between atoms: C_11  and  C_26
    8  A    between atoms: C_12  and  C_28
    9  A    between atoms: C_15  and  C_22
   10  A    between atoms: C_18  and  C_22
   11  A    between atoms: C_19  and  C_20
   12  A    between atoms: C_19  and  C_27
   13  A    between atoms: C_29  and  C_35
                            x       y       z     vdW  Elec       q    Type
                         _______ _______ _______ _____ _____    ______ ____

>  <TORSDO>
F 13

$$$$
=
 OpenBabel11032420233D

 39 42  0  0  1  0  0  0  0  0999 V2000
  190.2420  177.5220  142.3660 C   0  0  2  0  0  3  0  0  0  0  0  0
  190.2060  176.6450  140.2030 C   0  0  2  0  0  3  0  0  0  0  0  0
  191.5730  177.8110  141.6950 C   0  0  0  0  0  2  0  0  0  0  0  0
  189.2650  177.2740  141.2330 C   0  0  2  0  0  3  0  0  0  0  0  0
  191.5360  177.2280  140.3550 N   0  0  0  0  0  2  0  0  0  0  0  0
  188.5210  178.5580  140.7860 C   0  0  2  0  0  3  0  0  0  0  0  0
  187.2070  178.7100  141.5110 C   0  0  0  0  0  0  0  0  0  0  0  0
  186.5480  179.7200  141.3310 O   0  0  0  0  0  0  0  0  0  0  0  0
  186.6710  177.6470  142.4260 C   0  0  0  0  0  2  0  0  0  0  0  0
  184.2870  178.3350  142.6960 C   0  0  0  0  0  3  0  0  0  0  0  0
  183.2200  178.7770  143.4840 C   0  0  0  0  0  3  0  0  0  0  0  0
  183.4160  179.0290  144.8480 C   0  0  0  0  0  3  0  0  0  0  0  0
  185.5490  178.1530  143.2680 C   0  0  0  0  0  0  0  0  0  0  0  0
  185.7410  178.4000  144.6350 C   0  0  0  0  0  3  0  0  0  0  0  0
  184.6760  178.8410  145.4240 C   0  0  0  0  0  3  0  0  0  0  0  0
  188.3910  178.6420  139.3950 O   0  0  0  0  0  0  0  0  0  0  0  0
  186.7140  178.6790  137.8420 O   0  0  0  0  0  1  0  0  0  0  0  0
  187.0920  178.2170  139.1040 C   0  0  0  0  0  2  0  0  0  0  0  0
  189.7330  176.5210  138.7440 C   0  0  0  0  0  2  0  0  0  0  0  0
  192.5590  174.3860  135.4760 C   0  0  0  0  0  0  0  0  0  0  0  0
  191.1790  175.5370  136.9690 C   0  0  0  0  0  0  0  0  0  0  0  0
  193.8620  174.2940  135.1590 N   0  0  0  0  0  0  0  0  0  0  0  0
  195.7700  175.8970  135.3950 C   0  0  0  0  0  1  0  0  0  0  0  0
  192.3160  175.5520  136.0840 C   0  0  0  0  0  0  0  0  0  0  0  0
  190.8370  176.5710  137.7350 C   0  0  0  0  0  2  0  0  0  0  0  0
  191.4140  173.0650  135.8180 S   0  0  0  0  0  0  0  0  0  0  0  0
  194.3350  175.5120  135.5330 C   0  0  0  0  0  0  0  0  0  0  0  0
  190.5060  174.1880  136.9830 C   0  0  0  0  0  3  0  0  0  0  0  0
  193.4290  176.2990  136.1660 N   0  0  0  0  0  2  0  0  0  0  0  0
  189.8430  178.5980  143.3660 C   0  0  0  0  0  2  0  0  0  0  0  0
  190.3080  178.1960  144.7500 C   0  0  0  0  0  2  0  0  0  0  0  0
  189.1240  177.8930  145.6560 C   0  0  1  0  0  3  0  0  0  0  0  0
  188.5440  176.6840  145.2560 O   0  0  0  0  0  1  0  0  0  0  0  0
  190.5160  176.6330  147.3290 C   0  0  0  0  0  1  0  0  0  0  0  0
  189.5680  177.8100  147.1240 C   0  0  2  0  0  3  0  0  0  0  0  0
  187.2800  178.3680  147.5950 F   0  0  0  0  0  0  0  0  0  0  0  0
  188.3800  177.6880  148.0920 C   0  0  0  0  0  0  0  0  0  0  0  0
  188.7100  178.2420  149.3160 F   0  0  0  0  0  0  0  0  0  0  0  0
  188.0430  176.3570  148.2750 F   0  0  0  0  0  0  0  0  0  0  0  0
  1 30  1  6  0  0  0
  2 19  1  6  0  0  0
  2  5  1  0  0  0  0
  2  4  1  0  0  0  0
  3  1  1  0  0  0  0
  4  6  1  6  0  0  0
  4  1  1  0  0  0  0
  5  3  1  0  0  0  0
  6 16  1  6  0  0  0
  6  7  1  0  0  0  0
  7  9  1  0  0  0  0
  8  7  2  0  0  0  0
  9 13  1  0  0  0  0
 10 13  2  0  0  0  0
 10 11  1  0  0  0  0
 11 12  2  0  0  0  0
 12 15  1  0  0  0  0
 13 14  1  0  0  0  0
 14 15  2  0  0  0  0
 17 18  1  0  0  0  0
 18 16  1  0  0  0  0
 20 26  1  0  0  0  0
 20 24  2  0  0  0  0
 21 28  2  0  0  0  0
 21 25  1  0  0  0  0
 22 20  1  0  0  0  0
 22 27  2  0  0  0  0
 23 27  1  0  0  0  0
 24 29  1  0  0  0  0
 24 21  1  0  0  0  0
 25 19  1  0  0  0  0
 26 28  1  0  0  0  0
 27 29  1  0  0  0  0
 30 31  1  0  0  0  0
 31 32  1  0  0  0  0
 32 33  1  6  0  0  0
 32 35  1  0  0  0  0
 35 34  1  6  0  0  0
 35 37  1  0  0  0  0
 36 37  1  0  0  0  0
 37 39  1  0  0  0  0
 37 38  1  0  0  0  0
M  END
>  <MODEL>
3

>  <REMARK>
 VINA RESULT:      -7.1      1.971      4.616
  Name = 
  13 active torsions:
  status: ('A' for Active; 'I' for Inactive)
    1  A    between atoms: O_1  and  C_11
    2  A    between atoms: O_1  and  C_21
    3  A    between atoms: C_3  and  C_35
    4  A    between atoms: C_9  and  C_28
    5  A    between atoms: C_9  and  C_29
    6  A    between atoms: C_11  and  C_20
    7  A    between atoms: C_11  and  C_26
    8  A    between atoms: C_12  and  C_28
    9  A    between atoms: C_15  and  C_22
   10  A    between atoms: C_18  and  C_22
   11  A    between atoms: C_19  and  C_20
   12  A    between atoms: C_19  and  C_27
   13  A    between atoms: C_29  and  C_35
                            x       y       z     vdW  Elec       q    Type
                         _______ _______ _______ _____ _____    ______ ____

>  <TORSDO>
F 13

$$$$
=
 OpenBabel11032420233D

 39 42  0  0  1  0  0  0  0  0999 V2000
  189.6200  176.8880  139.0670 C   0  0  2  0  0  3  0  0  0  0  0  0
  187.9040  178.1070  140.0750 C   0  0  2  0  0  3  0  0  0  0  0  0
  189.7130  178.3350  138.6160 C   0  0  0  0  0  2  0  0  0  0  0  0
  188.8250  176.9190  140.3580 C   0  0  2  0  0  3  0  0  0  0  0  0
  188.6130  179.0700  139.2360 N   0  0  0  0  0  2  0  0  0  0  0  0
  189.7220  177.0330  141.6170 C   0  0  2  0  0  3  0  0  0  0  0  0
  189.2190  176.1500  142.7310 C   0  0  0  0  0  0  0  0  0  0  0  0
  189.8820  175.1810  143.0600 O   0  0  0  0  0  0  0  0  0  0  0  0
  187.9410  176.4390  143.4640 C   0  0  0  0  0  2  0  0  0  0  0  0
  187.1140  177.2760  145.6650 C   0  0  0  0  0  3  0  0  0  0  0  0
  187.3400  177.7250  146.9700 C   0  0  0  0  0  3  0  0  0  0  0  0
  188.6500  177.8420  147.4520 C   0  0  0  0  0  3  0  0  0  0  0  0
  188.1950  176.9510  144.8410 C   0  0  0  0  0  0  0  0  0  0  0  0
  189.5060  177.0620  145.3300 C   0  0  0  0  0  3  0  0  0  0  0  0
  189.7340  177.5100  146.6320 C   0  0  0  0  0  3  0  0  0  0  0  0
  189.9140  178.3610  142.0160 O   0  0  0  0  0  0  0  0  0  0  0  0
  192.0620  177.5820  141.9890 O   0  0  0  0  0  1  0  0  0  0  0  0
  191.1500  178.3930  142.6660 C   0  0  0  0  0  2  0  0  0  0  0  0
  187.1260  178.7380  141.2430 C   0  0  0  0  0  2  0  0  0  0  0  0
  182.5640  178.9940  142.7770 C   0  0  0  0  0  0  0  0  0  0  0  0
  184.7470  178.9830  141.9430 C   0  0  0  0  0  0  0  0  0  0  0  0
  181.3570  178.4890  142.4730 N   0  0  0  0  0  0  0  0  0  0  0  0
  180.3250  177.7760  140.3070 C   0  0  0  0  0  1  0  0  0  0  0  0
  183.3310  179.0410  141.6820 C   0  0  0  0  0  0  0  0  0  0  0  0
  185.6640  178.9200  140.9810 C   0  0  0  0  0  2  0  0  0  0  0  0
  183.4230  178.9340  144.3370 S   0  0  0  0  0  0  0  0  0  0  0  0
  181.4400  178.3360  141.1260 C   0  0  0  0  0  0  0  0  0  0  0  0
  185.0350  178.9050  143.4210 C   0  0  0  0  0  3  0  0  0  0  0  0
  182.6620  178.6060  140.6020 N   0  0  0  0  0  2  0  0  0  0  0  0
  190.9790  176.2080  139.1390 C   0  0  0  0  0  2  0  0  0  0  0  0
  191.5420  176.0590  137.7410 C   0  0  0  0  0  2  0  0  0  0  0  0
  192.4930  174.8750  137.6580 C   0  0  1  0  0  3  0  0  0  0  0  0
  192.1210  174.0680  136.5790 O   0  0  0  0  0  1  0  0  0  0  0  0
  194.1200  176.0610  136.1520 C   0  0  0  0  0  1  0  0  0  0  0  0
  193.9440  175.3520  137.4900 C   0  0  2  0  0  3  0  0  0  0  0  0
  194.9760  173.4600  136.4310 F   0  0  0  0  0  0  0  0  0  0  0  0
  194.9580  174.2020  137.6000 C   0  0  0  0  0  0  0  0  0  0  0  0
  194.6060  173.3590  138.6390 F   0  0  0  0  0  0  0  0  0  0  0  0
  196.2290  174.7020  137.8360 F   0  0  0  0  0  0  0  0  0  0  0  0
  1 30  1  1  0  0  0
  1  4  1  0  0  0  0
  2  4  1  0  0  0  0
  2 19  1  1  0  0  0
  3  1  1  0  0  0  0
  3  5  1  0  0  0  0
  4  6  1  1  0  0  0
  5  2  1  0  0  0  0
  6 16  1  1  0  0  0
  6  7  1  0  0  0  0
  7  8  2  0  0  0  0
  7  9  1  0  0  0  0
  9 13  1  0  0  0  0
 10 11  1  0  0  0  0
 11 12  2  0  0  0  0
 13 14  1  0  0  0  0
 13 10  2  0  0  0  0
 14 15  2  0  0  0  0
 15 12  1  0  0  0  0
 16 18  1  0  0  0  0
 17 18  1  0  0  0  0
 20 26  1  0  0  0  0
 21 28  2  0  0  0  0
 22 20  1  0  0  0  0
 23 27  1  0  0  0  0
 24 21  1  0  0  0  0
 24 20  2  0  0  0  0
 25 19  1  0  0  0  0
 25 21  1  0  0  0  0
 27 22  2  0  0  0  0
 28 26  1  0  0  0  0
 29 27  1  0  0  0  0
 29 24  1  0  0  0  0
 31 30  1  0  0  0  0
 32 33  1  6  0  0  0
 32 31  1  0  0  0  0
 35 34  1  6  0  0  0
 35 37  1  0  0  0  0
 35 32  1  0  0  0  0
 36 37  1  0  0  0  0
 37 39  1  0  0  0  0
 37 38  1  0  0  0  0
M  END
>  <MODEL>
4

>  <REMARK>
 VINA RESULT:      -6.8      4.816      9.127
  Name = 
  13 active torsions:
  status: ('A' for Active; 'I' for Inactive)
    1  A    between atoms: O_1  and  C_11
    2  A    between atoms: O_1  and  C_21
    3  A    between atoms: C_3  and  C_35
    4  A    between atoms: C_9  and  C_28
    5  A    between atoms: C_9  and  C_29
    6  A    between atoms: C_11  and  C_20
    7  A    between atoms: C_11  and  C_26
    8  A    between atoms: C_12  and  C_28
    9  A    between atoms: C_15  and  C_22
   10  A    between atoms: C_18  and  C_22
   11  A    between atoms: C_19  and  C_20
   12  A    between atoms: C_19  and  C_27
   13  A    between atoms: C_29  and  C_35
                            x       y       z     vdW  Elec       q    Type
                         _______ _______ _______ _____ _____    ______ ____

>  <TORSDO>
F 13

$$$$
=
 OpenBabel11032420233D

 39 42  0  0  1  0  0  0  0  0999 V2000
  190.9880  176.6450  143.2980 C   0  0  2  0  0  3  0  0  0  0  0  0
  191.1670  176.8150  140.9770 C   0  0  2  0  0  3  0  0  0  0  0  0
  191.9770  177.7460  142.9590 C   0  0  0  0  0  2  0  0  0  0  0  0
  190.1370  176.4720  142.0550 C   0  0  2  0  0  3  0  0  0  0  0  0
  192.0930  177.8130  141.5040 N   0  0  0  0  0  2  0  0  0  0  0  0
  188.8540  177.3410  142.0780 C   0  0  2  0  0  3  0  0  0  0  0  0
  187.9340  176.9310  143.2000 C   0  0  0  0  0  0  0  0  0  0  0  0
  187.5910  175.7640  143.2850 O   0  0  0  0  0  0  0  0  0  0  0  0
  187.4470  177.9080  144.2310 C   0  0  0  0  0  2  0  0  0  0  0  0
  185.2450  178.5760  145.1990 C   0  0  0  0  0  3  0  0  0  0  0  0
  183.8860  178.8780  145.0640 C   0  0  0  0  0  3  0  0  0  0  0  0
  183.2760  178.8040  143.8050 C   0  0  0  0  0  3  0  0  0  0  0  0
  185.9900  178.1930  144.0810 C   0  0  0  0  0  0  0  0  0  0  0  0
  185.3780  178.1270  142.8210 C   0  0  0  0  0  3  0  0  0  0  0  0
  184.0220  178.4290  142.6830 C   0  0  0  0  0  3  0  0  0  0  0  0
  188.2140  177.3790  140.8330 O   0  0  0  0  0  0  0  0  0  0  0  0
  186.8040  178.7520  139.6700 O   0  0  0  0  0  1  0  0  0  0  0  0
  187.7860  178.6980  140.6610 C   0  0  0  0  0  2  0  0  0  0  0  0
  190.6770  177.1000  139.5470 C   0  0  0  0  0  2  0  0  0  0  0  0
  189.0900  174.9430  135.5400 C   0  0  0  0  0  0  0  0  0  0  0  0
  189.9780  175.9020  137.4760 C   0  0  0  0  0  0  0  0  0  0  0  0
  188.3460  173.8830  135.1790 N   0  0  0  0  0  0  0  0  0  0  0  0
  187.9870  171.6400  136.2290 C   0  0  0  0  0  1  0  0  0  0  0  0
  189.6720  174.7130  136.7220 C   0  0  0  0  0  0  0  0  0  0  0  0
  190.4700  175.8750  138.7130 C   0  0  0  0  0  2  0  0  0  0  0  0
  188.8600  176.6520  135.0940 S   0  0  0  0  0  0  0  0  0  0  0  0
  188.6090  172.9950  136.1730 C   0  0  0  0  0  0  0  0  0  0  0  0
  189.5820  177.1500  136.7280 C   0  0  0  0  0  3  0  0  0  0  0  0
  189.3730  173.4870  137.1800 N   0  0  0  0  0  2  0  0  0  0  0  0
  190.2330  176.9130  144.5910 C   0  0  0  0  0  2  0  0  0  0  0  0
  191.2170  177.2640  145.6860 C   0  0  0  0  0  2  0  0  0  0  0  0
  190.6890  176.8450  147.0500 C   0  0  1  0  0  3  0  0  0  0  0  0
  191.7210  176.9480  147.9880 O   0  0  0  0  0  1  0  0  0  0  0  0
  189.9030  178.6590  148.6040 C   0  0  0  0  0  1  0  0  0  0  0  0
  189.5010  177.7240  147.4680 C   0  0  2  0  0  3  0  0  0  0  0  0
  187.2590  177.0270  146.9610 F   0  0  0  0  0  0  0  0  0  0  0  0
  188.2770  176.8960  147.8920 C   0  0  0  0  0  0  0  0  0  0  0  0
  187.8030  177.3440  149.1120 F   0  0  0  0  0  0  0  0  0  0  0  0
  188.6170  175.5570  148.0030 F   0  0  0  0  0  0  0  0  0  0  0  0
  1 30  1  1  0  0  0
  2 19  1  6  0  0  0
  2  5  1  0  0  0  0
  2  4  1  0  0  0  0
  3  1  1  0  0  0  0
  4  6  1  1  0  0  0
  4  1  1  0  0  0  0
  5  3  1  0  0  0  0
  6 16  1  6  0  0  0
  6  7  1  0  0  0  0
  7  8  2  0  0  0  0
  7  9  1  0  0  0  0
 11 10  1  0  0  0  0
 12 11  2  0  0  0  0
 13  9  1  0  0  0  0
 13 10  2  0  0  0  0
 14 13  1  0  0  0  0
 15 14  2  0  0  0  0
 15 12  1  0  0  0  0
 17 18  1  0  0  0  0
 18 16  1  0  0  0  0
 20 24  2  0  0  0  0
 21 25  1  0  0  0  0
 22 20  1  0  0  0  0
 22 27  2  0  0  0  0
 24 29  1  0  0  0  0
 24 21  1  0  0  0  0
 25 19  1  0  0  0  0
 26 20  1  0  0  0  0
 26 28  1  0  0  0  0
 27 23  1  0  0  0  0
 27 29  1  0  0  0  0
 28 21  2  0  0  0  0
 30 31  1  0  0  0  0
 31 32  1  0  0  0  0
 32 35  1  0  0  0  0
 32 33  1  1  0  0  0
 35 37  1  0  0  0  0
 35 34  1  1  0  0  0
 36 37  1  0  0  0  0
 37 39  1  0  0  0  0
 37 38  1  0  0  0  0
M  END
>  <MODEL>
5

>  <REMARK>
 VINA RESULT:      -6.7      3.091      5.642
  Name = 
  13 active torsions:
  status: ('A' for Active; 'I' for Inactive)
    1  A    between atoms: O_1  and  C_11
    2  A    between atoms: O_1  and  C_21
    3  A    between atoms: C_3  and  C_35
    4  A    between atoms: C_9  and  C_28
    5  A    between atoms: C_9  and  C_29
    6  A    between atoms: C_11  and  C_20
    7  A    between atoms: C_11  and  C_26
    8  A    between atoms: C_12  and  C_28
    9  A    between atoms: C_15  and  C_22
   10  A    between atoms: C_18  and  C_22
   11  A    between atoms: C_19  and  C_20
   12  A    between atoms: C_19  and  C_27
   13  A    between atoms: C_29  and  C_35
                            x       y       z     vdW  Elec       q    Type
                         _______ _______ _______ _____ _____    ______ ____

>  <TORSDO>
F 13

$$$$
=
 OpenBabel11032420233D

 39 42  0  0  1  0  0  0  0  0999 V2000
  188.1680  178.5230  139.9180 C   0  0  2  0  0  3  0  0  0  0  0  0
  190.2690  177.6520  139.3950 C   0  0  2  0  0  3  0  0  0  0  0  0
  188.0730  177.7600  138.6090 C   0  0  0  0  0  2  0  0  0  0  0  0
  189.4020  177.9810  140.6120 C   0  0  2  0  0  3  0  0  0  0  0  0
  189.4040  177.2500  138.2890 N   0  0  0  0  0  2  0  0  0  0  0  0
  189.0880  176.8010  141.5670 C   0  0  2  0  0  3  0  0  0  0  0  0
  188.5600  177.2940  142.8920 C   0  0  0  0  0  0  0  0  0  0  0  0
  188.9470  178.3690  143.3170 O   0  0  0  0  0  0  0  0  0  0  0  0
  187.5550  176.5160  143.6900 C   0  0  0  0  0  2  0  0  0  0  0  0
  187.1370  177.5030  145.9440 C   0  0  0  0  0  3  0  0  0  0  0  0
  186.4270  178.3520  146.7990 C   0  0  0  0  0  3  0  0  0  0  0  0
  185.3510  179.1000  146.3060 C   0  0  0  0  0  3  0  0  0  0  0  0
  186.7680  177.3960  144.6010 C   0  0  0  0  0  0  0  0  0  0  0  0
  185.6940  178.1520  144.1080 C   0  0  0  0  0  3  0  0  0  0  0  0
  184.9840  179.0010  144.9590 C   0  0  0  0  0  3  0  0  0  0  0  0
  190.1690  175.9220  141.7030 O   0  0  0  0  0  0  0  0  0  0  0  0
  191.8050  176.6290  143.1340 O   0  0  0  0  0  1  0  0  0  0  0  0
  190.5620  176.0000  143.0410 C   0  0  0  0  0  2  0  0  0  0  0  0
  191.5080  176.7600  139.5850 C   0  0  0  0  0  2  0  0  0  0  0  0
  193.5750  174.5970  135.8060 C   0  0  0  0  0  0  0  0  0  0  0  0
  192.5640  175.7680  137.5570 C   0  0  0  0  0  0  0  0  0  0  0  0
  194.8000  174.3930  135.2940 N   0  0  0  0  0  0  0  0  0  0  0  0
  196.8950  175.7610  135.3390 C   0  0  0  0  0  1  0  0  0  0  0  0
  193.5570  175.7320  136.5150 C   0  0  0  0  0  0  0  0  0  0  0  0
  192.4560  176.7700  138.4270 C   0  0  0  0  0  2  0  0  0  0  0  0
  192.3440  173.3830  136.2350 S   0  0  0  0  0  0  0  0  0  0  0  0
  195.4600  175.5210  135.6660 C   0  0  0  0  0  0  0  0  0  0  0  0
  191.7470  174.5020  137.5890 C   0  0  0  0  0  3  0  0  0  0  0  0
  194.7500  176.3470  136.4750 N   0  0  0  0  0  2  0  0  0  0  0  0
  186.8760  178.4740  140.7220 C   0  0  0  0  0  2  0  0  0  0  0  0
  185.7120  178.2220  139.7870 C   0  0  0  0  0  2  0  0  0  0  0  0
  184.4860  179.0120  140.2190 C   0  0  1  0  0  3  0  0  0  0  0  0
  184.3480  180.1280  139.3870 O   0  0  0  0  0  1  0  0  0  0  0  0
  182.6070  178.2010  138.7580 C   0  0  0  0  0  1  0  0  0  0  0  0
  183.2230  178.1400  140.1510 C   0  0  2  0  0  3  0  0  0  0  0  0
  181.2070  177.5570  141.3190 F   0  0  0  0  0  0  0  0  0  0  0  0
  182.1710  178.5440  141.1970 C   0  0  0  0  0  0  0  0  0  0  0  0
  181.5420  179.7130  140.8080 F   0  0  0  0  0  0  0  0  0  0  0  0
  182.7710  178.7430  142.4310 F   0  0  0  0  0  0  0  0  0  0  0  0
  1  4  1  0  0  0  0
  1 30  1  1  0  0  0
  2 19  1  1  0  0  0
  2  4  1  0  0  0  0
  3  1  1  0  0  0  0
  4  6  1  6  0  0  0
  5  3  1  0  0  0  0
  5  2  1  0  0  0  0
  6 16  1  1  0  0  0
  6  7  1  0  0  0  0
  7  8  2  0  0  0  0
  7  9  1  0  0  0  0
  9 13  1  0  0  0  0
 10 11  1  0  0  0  0
 12 11  2  0  0  0  0
 13 10  2  0  0  0  0
 14 13  1  0  0  0  0
 14 15  2  0  0  0  0
 15 12  1  0  0  0  0
 16 18  1  0  0  0  0
 18 17  1  0  0  0  0
 20 26  1  0  0  0  0
 20 24  2  0  0  0  0
 21 28  2  0  0  0  0
 21 25  1  0  0  0  0
 22 27  2  0  0  0  0
 22 20  1  0  0  0  0
 23 27  1  0  0  0  0
 24 21  1  0  0  0  0
 25 19  1  0  0  0  0
 26 28  1  0  0  0  0
 27 29  1  0  0  0  0
 29 24  1  0  0  0  0
 31 32  1  0  0  0  0
 31 30  1  0  0  0  0
 32 33  1  6  0  0  0
 35 34  1  6  0  0  0
 35 32  1  0  0  0  0
 35 37  1  0  0  0  0
 37 36  1  0  0  0  0
 37 39  1  0  0  0  0
 38 37  1  0  0  0  0
M  END
>  <MODEL>
6

>  <REMARK>
 VINA RESULT:      -6.5      1.811      2.705
  Name = 
  13 active torsions:
  status: ('A' for Active; 'I' for Inactive)
    1  A    between atoms: O_1  and  C_11
    2  A    between atoms: O_1  and  C_21
    3  A    between atoms: C_3  and  C_35
    4  A    between atoms: C_9  and  C_28
    5  A    between atoms: C_9  and  C_29
    6  A    between atoms: C_11  and  C_20
    7  A    between atoms: C_11  and  C_26
    8  A    between atoms: C_12  and  C_28
    9  A    between atoms: C_15  and  C_22
   10  A    between atoms: C_18  and  C_22
   11  A    between atoms: C_19  and  C_20
   12  A    between atoms: C_19  and  C_27
   13  A    between atoms: C_29  and  C_35
                            x       y       z     vdW  Elec       q    Type
                         _______ _______ _______ _____ _____    ______ ____

>  <TORSDO>
F 13

$$$$
=
 OpenBabel11032420233D

 39 42  0  0  1  0  0  0  0  0999 V2000
  189.3930  176.9470  139.9860 C   0  0  2  0  0  3  0  0  0  0  0  0
  190.3900  175.6720  138.3040 C   0  0  2  0  0  3  0  0  0  0  0  0
  190.7800  177.4980  139.7060 C   0  0  0  0  0  2  0  0  0  0  0  0
  189.0100  176.1690  138.7420 C   0  0  2  0  0  3  0  0  0  0  0  0
  191.3930  176.6670  138.6720 N   0  0  0  0  0  2  0  0  0  0  0  0
  188.2320  177.0240  137.7100 C   0  0  2  0  0  3  0  0  0  0  0  0
  187.0060  176.3010  137.2120 C   0  0  0  0  0  0  0  0  0  0  0  0
  186.9890  175.0820  137.2390 O   0  0  0  0  0  0  0  0  0  0  0  0
  185.7960  177.0330  136.7070 C   0  0  0  0  0  2  0  0  0  0  0  0
  183.8070  176.6580  138.1680 C   0  0  0  0  0  3  0  0  0  0  0  0
  182.9790  177.0290  139.2320 C   0  0  0  0  0  3  0  0  0  0  0  0
  183.2510  178.1980  139.9540 C   0  0  0  0  0  3  0  0  0  0  0  0
  184.8990  177.4580  137.8210 C   0  0  0  0  0  0  0  0  0  0  0  0
  185.1730  178.6240  138.5510 C   0  0  0  0  0  3  0  0  0  0  0  0
  184.3490  178.9960  139.6140 C   0  0  0  0  0  3  0  0  0  0  0  0
  189.0520  177.4870  136.6740 O   0  0  0  0  0  0  0  0  0  0  0  0
  188.8880  179.5360  137.6730 O   0  0  0  0  0  1  0  0  0  0  0  0
  188.7100  178.8290  136.4830 C   0  0  0  0  0  2  0  0  0  0  0  0
  190.5570  175.1000  136.8850 C   0  0  0  0  0  2  0  0  0  0  0  0
  195.2630  175.3220  135.8710 C   0  0  0  0  0  0  0  0  0  0  0  0
  192.9550  175.2270  136.2180 C   0  0  0  0  0  0  0  0  0  0  0  0
  196.2340  176.2400  135.7330 N   0  0  0  0  0  0  0  0  0  0  0  0
  196.2070  178.6150  134.9420 C   0  0  0  0  0  1  0  0  0  0  0  0
  194.0760  175.8600  135.5720 C   0  0  0  0  0  0  0  0  0  0  0  0
  191.7060  175.6790  136.1220 C   0  0  0  0  0  2  0  0  0  0  0  0
  195.2350  173.9020  136.9470 S   0  0  0  0  0  0  0  0  0  0  0  0
  195.5510  177.3100  135.2470 C   0  0  0  0  0  0  0  0  0  0  0  0
  193.3920  174.0690  137.0780 C   0  0  0  0  0  3  0  0  0  0  0  0
  194.2060  177.1410  135.1900 N   0  0  0  0  0  2  0  0  0  0  0  0
  188.4120  178.0240  140.4250 C   0  0  0  0  0  2  0  0  0  0  0  0
  188.5860  178.2890  141.9060 C   0  0  0  0  0  2  0  0  0  0  0  0
  187.7140  177.3560  142.7330 C   0  0  1  0  0  3  0  0  0  0  0  0
  188.5300  176.4090  143.3600 O   0  0  0  0  0  1  0  0  0  0  0  0
  186.9070  177.4060  145.1140 C   0  0  0  0  0  1  0  0  0  0  0  0
  186.9130  178.1440  143.7800 C   0  0  2  0  0  3  0  0  0  0  0  0
  185.0900  177.5160  142.3480 F   0  0  0  0  0  0  0  0  0  0  0  0
  185.4660  178.4130  143.3350 C   0  0  0  0  0  0  0  0  0  0  0  0
  185.3600  179.6900  142.8160 F   0  0  0  0  0  0  0  0  0  0  0  0
  184.6010  178.2890  144.4100 F   0  0  0  0  0  0  0  0  0  0  0  0
  1 30  1  6  0  0  0
  2 19  1  6  0  0  0
  2  5  1  0  0  0  0
  2  4  1  0  0  0  0
  3  1  1  0  0  0  0
  4  6  1  6  0  0  0
  4  1  1  0  0  0  0
  5  3  1  0  0  0  0
  6 16  1  6  0  0  0
  7  8  2  0  0  0  0
  7  6  1  0  0  0  0
  9  7  1  0  0  0  0
  9 13  1  0  0  0  0
 10 11  1  0  0  0  0
 11 12  2  0  0  0  0
 13 10  2  0  0  0  0
 13 14  1  0  0  0  0
 14 15  2  0  0  0  0
 15 12  1  0  0  0  0
 18 16  1  0  0  0  0
 18 17  1  0  0  0  0
 20 26  1  0  0  0  0
 21 28  2  0  0  0  0
 22 20  1  0  0  0  0
 23 27  1  0  0  0  0
 24 20  2  0  0  0  0
 24 21  1  0  0  0  0
 25 21  1  0  0  0  0
 25 19  1  0  0  0  0
 26 28  1  0  0  0  0
 27 22  2  0  0  0  0
 29 27  1  0  0  0  0
 29 24  1  0  0  0  0
 30 31  1  0  0  0  0
 31 32  1  0  0  0  0
 32 33  1  1  0  0  0
 32 35  1  0  0  0  0
 35 34  1  1  0  0  0
 36 37  1  0  0  0  0
 37 35  1  0  0  0  0
 37 39  1  0  0  0  0
 38 37  1  0  0  0  0
M  END
>  <MODEL>
7

>  <REMARK>
 VINA RESULT:      -6.5      2.557      5.208
  Name = 
  13 active torsions:
  status: ('A' for Active; 'I' for Inactive)
    1  A    between atoms: O_1  and  C_11
    2  A    between atoms: O_1  and  C_21
    3  A    between atoms: C_3  and  C_35
    4  A    between atoms: C_9  and  C_28
    5  A    between atoms: C_9  and  C_29
    6  A    between atoms: C_11  and  C_20
    7  A    between atoms: C_11  and  C_26
    8  A    between atoms: C_12  and  C_28
    9  A    between atoms: C_15  and  C_22
   10  A    between atoms: C_18  and  C_22
   11  A    between atoms: C_19  and  C_20
   12  A    between atoms: C_19  and  C_27
   13  A    between atoms: C_29  and  C_35
                            x       y       z     vdW  Elec       q    Type
                         _______ _______ _______ _____ _____    ______ ____

>  <TORSDO>
F 13

$$$$
=
 OpenBabel11032420233D

 39 42  0  0  1  0  0  0  0  0999 V2000
  189.4840  177.0570  141.3240 C   0  0  2  0  0  3  0  0  0  0  0  0
  190.7010  176.4330  139.4330 C   0  0  2  0  0  3  0  0  0  0  0  0
  190.8880  177.6240  141.4330 C   0  0  0  0  0  2  0  0  0  0  0  0
  189.2710  176.7870  139.8470 C   0  0  2  0  0  3  0  0  0  0  0  0
  191.6370  177.1960  140.2530 N   0  0  0  0  0  2  0  0  0  0  0  0
  188.6190  177.9810  139.1040 C   0  0  2  0  0  3  0  0  0  0  0  0
  187.3800  177.5520  138.3590 C   0  0  0  0  0  0  0  0  0  0  0  0
  187.3200  176.4160  137.9200 O   0  0  0  0  0  0  0  0  0  0  0  0
  186.2080  178.4700  138.1620 C   0  0  0  0  0  2  0  0  0  0  0  0
  184.0660  177.5230  139.0260 C   0  0  0  0  0  3  0  0  0  0  0  0
  183.1270  177.3450  140.0460 C   0  0  0  0  0  3  0  0  0  0  0  0
  183.3230  177.9560  141.2910 C   0  0  0  0  0  3  0  0  0  0  0  0
  185.1950  178.3160  139.2460 C   0  0  0  0  0  0  0  0  0  0  0  0
  185.3930  178.9210  140.4960 C   0  0  0  0  0  3  0  0  0  0  0  0
  184.4570  178.7440  141.5170 C   0  0  0  0  0  3  0  0  0  0  0  0
  189.5320  178.6680  138.2950 O   0  0  0  0  0  0  0  0  0  0  0  0
  189.2950  178.4110  136.0360 O   0  0  0  0  0  1  0  0  0  0  0  0
  188.8160  179.0750  137.1660 C   0  0  0  0  0  2  0  0  0  0  0  0
  191.0530  176.4010  137.9360 C   0  0  0  0  0  2  0  0  0  0  0  0
  194.5860  173.4910  136.4240 C   0  0  0  0  0  0  0  0  0  0  0  0
  192.9400  175.0120  137.0840 C   0  0  0  0  0  0  0  0  0  0  0  0
  195.8000  173.0710  136.8190 N   0  0  0  0  0  0  0  0  0  0  0  0
  197.6140  174.1720  138.1470 C   0  0  0  0  0  1  0  0  0  0  0  0
  194.3380  174.7090  136.9190 C   0  0  0  0  0  0  0  0  0  0  0  0
  192.4980  176.1330  137.6500 C   0  0  0  0  0  2  0  0  0  0  0  0
  193.1610  172.5060  136.0080 S   0  0  0  0  0  0  0  0  0  0  0  0
  196.2750  174.1540  137.4890 C   0  0  0  0  0  0  0  0  0  0  0  0
  192.0680  173.8690  136.6300 C   0  0  0  0  0  3  0  0  0  0  0  0
  195.3820  175.1660  137.6300 N   0  0  0  0  0  2  0  0  0  0  0  0
  188.4410  177.9380  141.9970 C   0  0  0  0  0  2  0  0  0  0  0  0
  187.6610  177.1180  143.0010 C   0  0  0  0  0  2  0  0  0  0  0  0
  187.4970  177.8720  144.3120 C   0  0  1  0  0  3  0  0  0  0  0  0
  186.1340  177.9800  144.6060 O   0  0  0  0  0  1  0  0  0  0  0  0
  187.6920  177.6040  146.8040 C   0  0  0  0  0  1  0  0  0  0  0  0
  188.2320  177.1510  145.4520 C   0  0  2  0  0  3  0  0  0  0  0  0
  190.2890  177.3120  146.6800 F   0  0  0  0  0  0  0  0  0  0  0  0
  189.7530  177.3710  145.4050 C   0  0  0  0  0  0  0  0  0  0  0  0
  190.0330  178.6200  144.8790 F   0  0  0  0  0  0  0  0  0  0  0  0
  190.3540  176.4030  144.6160 F   0  0  0  0  0  0  0  0  0  0  0  0
  1  3  1  0  0  0  0
  1 30  1  6  0  0  0
  2 19  1  6  0  0  0
  2  4  1  0  0  0  0
  2  5  1  0  0  0  0
  4  6  1  6  0  0  0
  4  1  1  0  0  0  0
  5  3  1  0  0  0  0
  6 16  1  6  0  0  0
  7  6  1  0  0  0  0
  8  7  2  0  0  0  0
  9  7  1  0  0  0  0
  9 13  1  0  0  0  0
 10 13  2  0  0  0  0
 10 11  1  0  0  0  0
 11 12  2  0  0  0  0
 12 15  1  0  0  0  0
 13 14  1  0  0  0  0
 14 15  2  0  0  0  0
 17 18  1  0  0  0  0
 18 16  1  0  0  0  0
 20 22  1  0  0  0  0
 20 24  2  0  0  0  0
 21 25  1  0  0  0  0
 22 27  2  0  0  0  0
 24 21  1  0  0  0  0
 24 29  1  0  0  0  0
 25 19  1  0  0  0  0
 26 20  1  0  0  0  0
 26 28  1  0  0  0  0
 27 29  1  0  0  0  0
 27 23  1  0  0  0  0
 28 21  2  0  0  0  0
 30 31  1  0  0  0  0
 31 32  1  0  0  0  0
 32 33  1  1  0  0  0
 32 35  1  0  0  0  0
 35 34  1  1  0  0  0
 37 35  1  0  0  0  0
 37 36  1  0  0  0  0
 38 37  1  0  0  0  0
 39 37  1  0  0  0  0
M  END
>  <MODEL>
8

>  <REMARK>
 VINA RESULT:      -6.4      2.678      5.110
  Name = 
  13 active torsions:
  status: ('A' for Active; 'I' for Inactive)
    1  A    between atoms: O_1  and  C_11
    2  A    between atoms: O_1  and  C_21
    3  A    between atoms: C_3  and  C_35
    4  A    between atoms: C_9  and  C_28
    5  A    between atoms: C_9  and  C_29
    6  A    between atoms: C_11  and  C_20
    7  A    between atoms: C_11  and  C_26
    8  A    between atoms: C_12  and  C_28
    9  A    between atoms: C_15  and  C_22
   10  A    between atoms: C_18  and  C_22
   11  A    between atoms: C_19  and  C_20
   12  A    between atoms: C_19  and  C_27
   13  A    between atoms: C_29  and  C_35
                            x       y       z     vdW  Elec       q    Type
                         _______ _______ _______ _____ _____    ______ ____

>  <TORSDO>
F 13

$$$$
=
 OpenBabel11032420233D

 39 42  0  0  1  0  0  0  0  0999 V2000
  187.4350  175.7840  136.8050 C   0  0  2  0  0  3  0  0  0  0  0  0
  185.8100  177.2680  137.5830 C   0  0  2  0  0  3  0  0  0  0  0  0
  186.8270  176.5140  135.6210 C   0  0  0  0  0  2  0  0  0  0  0  0
  187.1480  176.6600  138.0090 C   0  0  2  0  0  3  0  0  0  0  0  0
  185.7950  177.4140  136.1300 N   0  0  0  0  0  2  0  0  0  0  0  0
  188.2910  177.6630  138.3110 C   0  0  2  0  0  3  0  0  0  0  0  0
  188.7600  177.5450  139.7400 C   0  0  0  0  0  0  0  0  0  0  0  0
  189.4010  176.5620  140.0700 O   0  0  0  0  0  0  0  0  0  0  0  0
  188.4840  178.6100  140.7610 C   0  0  0  0  0  2  0  0  0  0  0  0
  189.7550  178.3020  142.8870 C   0  0  0  0  0  3  0  0  0  0  0  0
  189.8500  177.8430  144.2040 C   0  0  0  0  0  3  0  0  0  0  0  0
  188.7690  177.1710  144.7890 C   0  0  0  0  0  3  0  0  0  0  0  0
  188.5870  178.0840  142.1530 C   0  0  0  0  0  0  0  0  0  0  0  0
  187.5030  177.4170  142.7440 C   0  0  0  0  0  3  0  0  0  0  0  0
  187.5950  176.9580  144.0590 C   0  0  0  0  0  3  0  0  0  0  0  0
  187.9580  178.9740  137.9510 O   0  0  0  0  0  0  0  0  0  0  0  0
  189.3190  178.6160  136.1510 O   0  0  0  0  0  1  0  0  0  0  0  0
  189.0480  179.4630  137.2260 C   0  0  0  0  0  2  0  0  0  0  0  0
  185.2740  178.4910  138.3470 C   0  0  0  0  0  2  0  0  0  0  0  0
  182.1210  178.6350  141.9890 C   0  0  0  0  0  0  0  0  0  0  0  0
  183.6870  178.4300  140.2680 C   0  0  0  0  0  0  0  0  0  0  0  0
  182.0720  179.0030  143.2810 N   0  0  0  0  0  0  0  0  0  0  0  0
  183.7930  179.0020  145.0990 C   0  0  0  0  0  1  0  0  0  0  0  0
  183.3660  178.2700  141.6630 C   0  0  0  0  0  0  0  0  0  0  0  0
  184.9020  178.2120  139.7690 C   0  0  0  0  0  2  0  0  0  0  0  0
  181.0850  179.1840  140.6480 S   0  0  0  0  0  0  0  0  0  0  0  0
  183.3360  178.7380  143.7030 C   0  0  0  0  0  0  0  0  0  0  0  0
  182.5130  178.9600  139.4860 C   0  0  0  0  0  3  0  0  0  0  0  0
  184.1870  178.3430  142.7230 N   0  0  0  0  0  2  0  0  0  0  0  0
  188.8950  175.4160  136.5820 C   0  0  0  0  0  2  0  0  0  0  0  0
  189.0500  173.9110  136.6500 C   0  0  0  0  0  2  0  0  0  0  0  0
  188.1130  173.2210  135.6700 C   0  0  1  0  0  3  0  0  0  0  0  0
  188.8610  172.7340  134.5940 O   0  0  0  0  0  1  0  0  0  0  0  0
  187.5690  170.7680  135.5980 C   0  0  0  0  0  1  0  0  0  0  0  0
  187.3560  172.0740  136.3550 C   0  0  2  0  0  3  0  0  0  0  0  0
  185.4910  173.4320  135.6890 F   0  0  0  0  0  0  0  0  0  0  0  0
  185.8500  172.3550  136.4830 C   0  0  0  0  0  0  0  0  0  0  0  0
  185.5370  172.6660  137.7940 F   0  0  0  0  0  0  0  0  0  0  0  0
  185.1190  171.2440  136.0950 F   0  0  0  0  0  0  0  0  0  0  0  0
  1 30  1  6  0  0  0
  1  4  1  0  0  0  0
  2  4  1  0  0  0  0
  2 19  1  1  0  0  0
  3  5  1  0  0  0  0
  3  1  1  0  0  0  0
  4  6  1  6  0  0  0
  5  2  1  0  0  0  0
  6 16  1  1  0  0  0
  6  7  1  0  0  0  0
  7  8  2  0  0  0  0
  7  9  1  0  0  0  0
  9 13  1  0  0  0  0
 10 11  1  0  0  0  0
 11 12  2  0  0  0  0
 13 14  1  0  0  0  0
 13 10  2  0  0  0  0
 14 15  2  0  0  0  0
 15 12  1  0  0  0  0
 17 18  1  0  0  0  0
 18 16  1  0  0  0  0
 19 25  1  0  0  0  0
 20 22  1  0  0  0  0
 21 24  1  0  0  0  0
 22 27  2  0  0  0  0
 24 20  2  0  0  0  0
 24 29  1  0  0  0  0
 25 21  1  0  0  0  0
 26 20  1  0  0  0  0
 27 23  1  0  0  0  0
 28 21  2  0  0  0  0
 28 26  1  0  0  0  0
 29 27  1  0  0  0  0
 30 31  1  0  0  0  0
 32 33  1  6  0  0  0
 32 35  1  0  0  0  0
 32 31  1  0  0  0  0
 35 34  1  6  0  0  0
 35 37  1  0  0  0  0
 36 37  1  0  0  0  0
 37 38  1  0  0  0  0
 39 37  1  0  0  0  0
M  END
>  <MODEL>
9

>  <REMARK>
 VINA RESULT:      -6.4      5.020      8.843
  Name = 
  13 active torsions:
  status: ('A' for Active; 'I' for Inactive)
    1  A    between atoms: O_1  and  C_11
    2  A    between atoms: O_1  and  C_21
    3  A    between atoms: C_3  and  C_35
    4  A    between atoms: C_9  and  C_28
    5  A    between atoms: C_9  and  C_29
    6  A    between atoms: C_11  and  C_20
    7  A    between atoms: C_11  and  C_26
    8  A    between atoms: C_12  and  C_28
    9  A    between atoms: C_15  and  C_22
   10  A    between atoms: C_18  and  C_22
   11  A    between atoms: C_19  and  C_20
   12  A    between atoms: C_19  and  C_27
   13  A    between atoms: C_29  and  C_35
                            x       y       z     vdW  Elec       q    Type
                         _______ _______ _______ _____ _____    ______ ____

>  <TORSDO>
F 13

$$$$
