=
 OpenBabel11032420043D

 46 52  0  0  1  0  0  0  0  0999 V2000
  183.5610  178.3750  142.0630 C   0  0  2  0  0  3  0  0  0  0  0  0
  185.1440  179.2740  143.7200 C   0  0  0  0  0  3  0  0  0  0  0  0
  183.9920  179.4140  143.0560 C   0  0  0  0  0  3  0  0  0  0  0  0
  182.6230  178.9100  139.9640 N   0  0  0  0  0  0  0  0  0  0  0  0
  186.6650  178.1040  142.1000 C   0  0  0  0  0  0  0  0  0  0  0  0
  186.0290  178.0820  143.4790 C   0  0  1  0  0  3  0  0  0  0  0  0
  184.5370  178.3860  140.9010 C   0  0  0  0  0  0  0  0  0  0  0  0
  183.9910  178.7260  139.7720 N   0  0  0  0  0  0  0  0  0  0  0  0
  182.3310  178.7850  141.3190 C   0  0  0  0  0  0  0  0  0  0  0  0
  181.1870  179.3290  141.7050 C   0  0  0  0  0  0  0  0  0  0  0  0
  185.9570  178.2190  141.0100 N   0  0  0  0  0  0  0  0  0  0  0  0
  181.7680  179.8300  139.2480 C   0  0  0  0  0  2  0  0  0  0  0  0
  180.3190  180.1130  140.3440 S   0  0  0  0  0  0  0  0  0  0  0  0
  189.6620  177.7190  148.2990 C   0  0  0  0  0  2  0  0  0  0  0  0
  188.8600  177.5900  145.5720 C   0  0  0  0  0  0  0  0  0  0  0  0
  188.3050  177.7000  144.3550 N   0  0  0  0  0  0  0  0  0  0  0  0
  186.7200  177.9980  145.8660 C   0  0  0  0  0  3  0  0  0  0  0  0
  188.1550  177.6520  148.0070 C   0  0  2  0  0  3  0  0  0  0  0  0
  187.9090  177.8050  146.5380 C   0  0  0  0  0  0  0  0  0  0  0  0
  187.0140  177.9440  144.5490 N   0  0  0  0  0  0  0  0  0  0  0  0
  187.5020  178.6590  148.7150 O   0  0  0  0  0  1  0  0  0  0  0  0
  190.3090  177.3660  145.8710 C   0  0  0  0  0  2  0  0  0  0  0  0
  190.4690  176.8550  147.3100 C   0  0  1  0  0  3  0  0  0  0  0  0
  192.3250  175.6560  147.1890 C   0  0  0  0  0  1  0  0  0  0  0  0
  191.8210  176.8690  147.6630 O   0  0  0  0  0  0  0  0  0  0  0  0
  188.1600  177.9800  141.9730 C   0  0  1  0  0  3  0  0  0  0  0  0
  188.6300  176.5450  142.1630 C   0  0  0  0  0  1  0  0  0  0  0  0
  188.6930  178.6030  140.6810 C   0  0  0  0  0  2  0  0  0  0  0  0
  189.8630  177.8160  140.1020 C   0  0  0  0  0  2  0  0  0  0  0  0
  189.7220  177.6580  138.5940 C   0  0  1  0  0  3  0  0  0  0  0  0
  189.6550  175.3500  137.5600 C   0  0  0  0  0  3  0  0  0  0  0  0
  193.9380  175.1850  137.5750 C   0  0  0  0  0  1  0  0  0  0  0  0
  190.3090  174.2220  137.0550 C   0  0  0  0  0  3  0  0  0  0  0  0
  192.4490  175.2240  137.5700 C   0  0  0  0  0  0  0  0  0  0  0  0
  192.3360  173.0260  136.5580 O   0  0  0  0  0  1  0  0  0  0  0  0
  191.7050  174.1530  137.0640 C   0  0  0  0  0  0  0  0  0  0  0  0
  191.7920  176.3520  138.0730 C   0  0  0  0  0  3  0  0  0  0  0  0
  190.3970  176.4160  138.0850 C   0  0  0  0  0  0  0  0  0  0  0  0
  187.8100  178.9750  138.0450 O   0  0  0  0  0  0  0  0  0  0  0  0
  188.2530  177.6510  138.2130 C   0  0  1  0  0  3  0  0  0  0  0  0
  188.0770  178.2450  136.8750 C   0  0  1  0  0  3  0  0  0  0  0  0
  186.8710  177.7950  134.8800 O   0  0  0  0  0  1  0  0  0  0  0  0
  186.7720  177.7790  136.2710 C   0  0  0  0  0  2  0  0  0  0  0  0
  180.7300  179.4350  143.0570 N   0  0  0  0  0  2  0  0  0  0  0  0
  179.6700  177.5020  144.3620 N   0  0  0  0  0  0  0  0  0  0  0  0
  180.1480  178.3750  143.7700 C   0  0  0  0  0  0  0  0  0  0  0  0
  1  3  1  1  0  0  0
  3  2  2  0  0  0  0
  4  9  1  0  0  0  0
  5  6  1  0  0  0  0
  6  2  1  1  0  0  0
  6 20  1  0  0  0  0
  7 11  1  0  0  0  0
  7  1  1  0  0  0  0
  8  4  1  0  0  0  0
  8  7  2  0  0  0  0
  9 10  2  0  0  0  0
  9  1  1  0  0  0  0
 10 44  1  0  0  0  0
 11  5  2  0  0  0  0
 12  4  1  0  0  0  0
 12 13  1  0  0  0  0
 13 10  1  0  0  0  0
 15 22  1  0  0  0  0
 15 19  1  0  0  0  0
 16 20  1  0  0  0  0
 16 15  2  0  0  0  0
 17 19  2  0  0  0  0
 18 14  1  0  0  0  0
 18 21  1  1  0  0  0
 19 18  1  0  0  0  0
 20 17  1  0  0  0  0
 22 23  1  0  0  0  0
 23 25  1  1  0  0  0
 23 14  1  0  0  0  0
 24 25  1  0  0  0  0
 26  5  1  0  0  0  0
 26 27  1  6  0  0  0
 28 26  1  0  0  0  0
 29 28  1  0  0  0  0
 30 29  1  1  0  0  0
 31 38  1  0  0  0  0
 33 36  1  0  0  0  0
 33 31  2  0  0  0  0
 34 32  1  0  0  0  0
 34 37  1  0  0  0  0
 35 36  1  0  0  0  0
 36 34  2  0  0  0  0
 37 38  2  0  0  0  0
 38 30  1  0  0  0  0
 39 40  1  0  0  0  0
 40 30  1  1  0  0  0
 41 43  1  6  0  0  0
 41 39  1  0  0  0  0
 41 40  1  0  0  0  0
 42 43  1  0  0  0  0
 44 46  1  0  0  0  0
 46 45  3  0  0  0  0
M  END
>  <MODEL>
1

>  <REMARK>
 VINA RESULT:      -9.3      0.000      0.000
  Name = 
  11 active torsions:
  status: ('A' for Active; 'I' for Inactive)
    1  A    between atoms: C_3  and  C_17
    2  A    between atoms: C_3  and  C_42
    3  A    between atoms: C_3  and  C_44
    4  A    between atoms: C_8  and  C_16
    5  A    between atoms: C_8  and  C_28
    6  A    between atoms: C_12  and  C_19
    7  A    between atoms: C_18  and  N_27
    8  A    between atoms: C_28  and  C_44
    9  A    between atoms: C_34  and  N_45
   10  A    between atoms: C_36  and  O_43
   11  A    between atoms: N_45  and  C_46
                            x       y       z     vdW  Elec       q    Type
                         _______ _______ _______ _____ _____    ______ ____

>  <TORSDO>
F 11

$$$$
=
 OpenBabel11032420043D

 46 52  0  0  1  0  0  0  0  0999 V2000
  188.6250  178.4470  142.3020 C   0  0  2  0  0  3  0  0  0  0  0  0
  186.2940  177.7600  141.9040 C   0  0  0  0  0  3  0  0  0  0  0  0
  187.3980  177.6580  142.6520 C   0  0  0  0  0  3  0  0  0  0  0  0
  190.8040  177.5400  142.3710 N   0  0  0  0  0  0  0  0  0  0  0  0
  187.1490  178.1450  139.5740 C   0  0  0  0  0  0  0  0  0  0  0  0
  186.2660  178.6590  140.6970 C   0  0  1  0  0  3  0  0  0  0  0  0
  189.1600  177.9400  140.9740 C   0  0  0  0  0  0  0  0  0  0  0  0
  190.3420  177.4110  141.0620 N   0  0  0  0  0  0  0  0  0  0  0  0
  189.7930  178.0820  143.1600 C   0  0  0  0  0  0  0  0  0  0  0  0
  189.9220  177.8830  144.4630 C   0  0  0  0  0  0  0  0  0  0  0  0
  188.4110  177.8680  139.7530 N   0  0  0  0  0  0  0  0  0  0  0  0
  191.6870  176.6320  143.0680 C   0  0  0  0  0  2  0  0  0  0  0  0
  191.3910  176.9290  144.8580 S   0  0  0  0  0  0  0  0  0  0  0  0
  180.4320  179.1110  139.1720 C   0  0  0  0  0  2  0  0  0  0  0  0
  183.1870  179.8020  139.3370 C   0  0  0  0  0  0  0  0  0  0  0  0
  184.5230  179.8780  139.4450 N   0  0  0  0  0  0  0  0  0  0  0  0
  183.8240  178.1920  140.6900 C   0  0  0  0  0  3  0  0  0  0  0  0
  181.2690  178.4280  140.2650 C   0  0  2  0  0  3  0  0  0  0  0  0
  182.7210  178.7410  140.0710 C   0  0  0  0  0  0  0  0  0  0  0  0
  184.8920  178.9010  140.2660 N   0  0  0  0  0  0  0  0  0  0  0  0
  181.0610  177.0510  140.2140 O   0  0  0  0  0  1  0  0  0  0  0  0
  182.3150  180.6640  138.4790 C   0  0  0  0  0  2  0  0  0  0  0  0
  180.8600  180.5770  138.9650 C   0  0  1  0  0  3  0  0  0  0  0  0
  180.3290  182.5470  138.1110 C   0  0  0  0  0  1  0  0  0  0  0  0
  180.0190  181.1880  138.0320 O   0  0  0  0  0  0  0  0  0  0  0  0
  186.5620  177.9540  138.2010 C   0  0  1  0  0  3  0  0  0  0  0  0
  187.3170  178.7460  137.1440 C   0  0  0  0  0  1  0  0  0  0  0  0
  186.4090  176.4790  137.8270 C   0  0  0  0  0  2  0  0  0  0  0  0
  185.5030  176.2820  136.6160 C   0  0  0  0  0  2  0  0  0  0  0  0
  184.2690  175.4690  136.9840 C   0  0  1  0  0  3  0  0  0  0  0  0
  183.0000  177.4420  136.0350 C   0  0  0  0  0  3  0  0  0  0  0  0
  179.2840  175.6440  137.1880 C   0  0  0  0  0  1  0  0  0  0  0  0
  181.7950  178.0930  135.7540 C   0  0  0  0  0  3  0  0  0  0  0  0
  180.5680  176.2850  136.7880 C   0  0  0  0  0  0  0  0  0  0  0  0
  179.3930  178.1840  135.8450 O   0  0  0  0  0  1  0  0  0  0  0  0
  180.5780  177.5220  136.1340 C   0  0  0  0  0  0  0  0  0  0  0  0
  181.7740  175.6340  137.0670 C   0  0  0  0  0  3  0  0  0  0  0  0
  182.9930  176.2130  136.7070 C   0  0  0  0  0  0  0  0  0  0  0  0
  185.4680  173.4570  136.5310 O   0  0  0  0  0  0  0  0  0  0  0  0
  184.2810  174.1500  136.2340 C   0  0  1  0  0  3  0  0  0  0  0  0
  184.3050  173.0270  137.1910 C   0  0  1  0  0  3  0  0  0  0  0  0
  182.7070  171.2720  137.2470 O   0  0  0  0  0  1  0  0  0  0  0  0
  183.7910  171.7710  136.5260 C   0  0  0  0  0  2  0  0  0  0  0  0
  188.9570  178.2350  145.4580 N   0  0  0  0  0  2  0  0  0  0  0  0
  188.5840  176.9010  147.6140 N   0  0  0  0  0  0  0  0  0  0  0  0
  188.7510  177.5050  146.6400 C   0  0  0  0  0  0  0  0  0  0  0  0
  1  3  1  1  0  0  0
  1  9  1  0  0  0  0
  2  3  2  0  0  0  0
  4 12  1  0  0  0  0
  4  9  1  0  0  0  0
  5 11  2  0  0  0  0
  5  6  1  0  0  0  0
  6 20  1  6  0  0  0
  6  2  1  0  0  0  0
  7  8  2  0  0  0  0
  7  1  1  0  0  0  0
  8  4  1  0  0  0  0
  9 10  2  0  0  0  0
 10 13  1  0  0  0  0
 10 44  1  0  0  0  0
 11  7  1  0  0  0  0
 12 13  1  0  0  0  0
 14 18  1  0  0  0  0
 15 16  2  0  0  0  0
 15 19  1  0  0  0  0
 16 20  1  0  0  0  0
 18 21  1  6  0  0  0
 19 18  1  0  0  0  0
 19 17  2  0  0  0  0
 20 17  1  0  0  0  0
 22 23  1  0  0  0  0
 22 15  1  0  0  0  0
 23 25  1  6  0  0  0
 23 14  1  0  0  0  0
 25 24  1  0  0  0  0
 26 27  1  6  0  0  0
 26  5  1  0  0  0  0
 28 26  1  0  0  0  0
 29 28  1  0  0  0  0
 30 29  1  6  0  0  0
 31 38  1  0  0  0  0
 33 31  2  0  0  0  0
 33 36  1  0  0  0  0
 34 37  1  0  0  0  0
 34 32  1  0  0  0  0
 35 36  1  0  0  0  0
 36 34  2  0  0  0  0
 38 30  1  0  0  0  0
 38 37  2  0  0  0  0
 39 41  1  0  0  0  0
 40 39  1  0  0  0  0
 40 30  1  1  0  0  0
 40 41  1  0  0  0  0
 41 43  1  6  0  0  0
 43 42  1  0  0  0  0
 44 46  1  0  0  0  0
 46 45  3  0  0  0  0
M  END
>  <MODEL>
2

>  <REMARK>
 VINA RESULT:      -9.3      4.404      8.967
  Name = 
  11 active torsions:
  status: ('A' for Active; 'I' for Inactive)
    1  A    between atoms: C_3  and  C_17
    2  A    between atoms: C_3  and  C_42
    3  A    between atoms: C_3  and  C_44
    4  A    between atoms: C_8  and  C_16
    5  A    between atoms: C_8  and  C_28
    6  A    between atoms: C_12  and  C_19
    7  A    between atoms: C_18  and  N_27
    8  A    between atoms: C_28  and  C_44
    9  A    between atoms: C_34  and  N_45
   10  A    between atoms: C_36  and  O_43
   11  A    between atoms: N_45  and  C_46
                            x       y       z     vdW  Elec       q    Type
                         _______ _______ _______ _____ _____    ______ ____

>  <TORSDO>
F 11

$$$$
=
 OpenBabel11032420043D

 46 52  0  0  1  0  0  0  0  0999 V2000
  188.5320  178.4370  142.0490 C   0  0  2  0  0  3  0  0  0  0  0  0
  186.1740  177.8130  141.7170 C   0  0  0  0  0  3  0  0  0  0  0  0
  187.2990  177.6700  142.4260 C   0  0  0  0  0  3  0  0  0  0  0  0
  190.6900  177.4800  142.0280 N   0  0  0  0  0  0  0  0  0  0  0  0
  186.9590  178.2250  139.3670 C   0  0  0  0  0  0  0  0  0  0  0  0
  186.1260  178.7360  140.5300 C   0  0  1  0  0  3  0  0  0  0  0  0
  189.0100  177.9460  140.6950 C   0  0  0  0  0  0  0  0  0  0  0  0
  190.1820  177.3880  140.7330 N   0  0  0  0  0  0  0  0  0  0  0  0
  189.7190  178.0280  142.8610 C   0  0  0  0  0  0  0  0  0  0  0  0
  189.8870  177.8000  144.1540 C   0  0  0  0  0  0  0  0  0  0  0  0
  188.2200  177.9160  139.4990 N   0  0  0  0  0  0  0  0  0  0  0  0
  191.5740  176.5380  142.6760 C   0  0  0  0  0  2  0  0  0  0  0  0
  191.3450  176.8050  144.4800 S   0  0  0  0  0  0  0  0  0  0  0  0
  180.2600  179.3460  139.1990 C   0  0  0  0  0  2  0  0  0  0  0  0
  183.0290  179.9860  139.3110 C   0  0  0  0  0  0  0  0  0  0  0  0
  184.3690  180.0350  139.3830 N   0  0  0  0  0  0  0  0  0  0  0  0
  183.6770  178.3090  140.5750 C   0  0  0  0  0  3  0  0  0  0  0  0
  181.1160  178.6040  140.2370 C   0  0  2  0  0  3  0  0  0  0  0  0
  182.5670  178.9020  140.0130 C   0  0  0  0  0  0  0  0  0  0  0  0
  184.7440  179.0180  140.1500 N   0  0  0  0  0  0  0  0  0  0  0  0
  180.8820  177.2340  140.1340 O   0  0  0  0  0  1  0  0  0  0  0  0
  182.1480  180.8970  138.5170 C   0  0  0  0  0  2  0  0  0  0  0  0
  180.7060  180.8120  139.0410 C   0  0  1  0  0  3  0  0  0  0  0  0
  179.0910  182.3220  138.9720 C   0  0  0  0  0  1  0  0  0  0  0  0
  179.8490  181.4760  138.1610 O   0  0  0  0  0  0  0  0  0  0  0  0
  186.3220  178.0770  138.0110 C   0  0  1  0  0  3  0  0  0  0  0  0
  187.1950  178.6530  136.9070 C   0  0  0  0  0  1  0  0  0  0  0  0
  185.8860  176.6390  137.7220 C   0  0  0  0  0  2  0  0  0  0  0  0
  186.5650  176.0690  136.4820 C   0  0  0  0  0  2  0  0  0  0  0  0
  187.3330  174.7980  136.8160 C   0  0  1  0  0  3  0  0  0  0  0  0
  187.2380  172.7420  135.3440 C   0  0  0  0  0  3  0  0  0  0  0  0
  183.4540  171.6630  137.0440 C   0  0  0  0  0  1  0  0  0  0  0  0
  186.5910  171.5770  134.9200 C   0  0  0  0  0  3  0  0  0  0  0  0
  184.7650  172.0280  136.4390 C   0  0  0  0  0  0  0  0  0  0  0  0
  184.7270  170.0600  135.0260 O   0  0  0  0  0  1  0  0  0  0  0  0
  185.3520  171.2200  135.4600 C   0  0  0  0  0  0  0  0  0  0  0  0
  185.4130  173.1930  136.8620 C   0  0  0  0  0  3  0  0  0  0  0  0
  186.6420  173.5630  136.3100 C   0  0  0  0  0  0  0  0  0  0  0  0
  189.3170  176.1080  136.6220 O   0  0  0  0  0  0  0  0  0  0  0  0
  188.7380  174.8820  136.2490 C   0  0  1  0  0  3  0  0  0  0  0  0
  189.7200  174.9730  137.3470 C   0  0  1  0  0  3  0  0  0  0  0  0
  191.9280  174.3460  137.9530 O   0  0  0  0  0  1  0  0  0  0  0  0
  191.0800  174.5300  136.8610 C   0  0  0  0  0  2  0  0  0  0  0  0
  188.9640  178.1530  145.1880 N   0  0  0  0  0  2  0  0  0  0  0  0
  189.2850  177.5480  147.6570 N   0  0  0  0  0  0  0  0  0  0  0  0
  189.1400  177.8200  146.5410 C   0  0  0  0  0  0  0  0  0  0  0  0
  1  3  1  1  0  0  0
  1  9  1  0  0  0  0
  2  3  2  0  0  0  0
  4 12  1  0  0  0  0
  4  9  1  0  0  0  0
  5 11  2  0  0  0  0
  5  6  1  0  0  0  0
  6 20  1  6  0  0  0
  6  2  1  0  0  0  0
  7  8  2  0  0  0  0
  7  1  1  0  0  0  0
  8  4  1  0  0  0  0
  9 10  2  0  0  0  0
 10 13  1  0  0  0  0
 10 44  1  0  0  0  0
 11  7  1  0  0  0  0
 12 13  1  0  0  0  0
 14 18  1  0  0  0  0
 15 16  2  0  0  0  0
 15 19  1  0  0  0  0
 16 20  1  0  0  0  0
 18 21  1  6  0  0  0
 19 18  1  0  0  0  0
 19 17  2  0  0  0  0
 20 17  1  0  0  0  0
 22 23  1  0  0  0  0
 22 15  1  0  0  0  0
 23 25  1  6  0  0  0
 23 14  1  0  0  0  0
 25 24  1  0  0  0  0
 26 27  1  6  0  0  0
 26  5  1  0  0  0  0
 28 26  1  0  0  0  0
 29 28  1  0  0  0  0
 30 29  1  6  0  0  0
 31 38  1  0  0  0  0
 33 31  2  0  0  0  0
 33 36  1  0  0  0  0
 34 37  1  0  0  0  0
 34 32  1  0  0  0  0
 35 36  1  0  0  0  0
 36 34  2  0  0  0  0
 38 30  1  0  0  0  0
 38 37  2  0  0  0  0
 39 41  1  0  0  0  0
 40 39  1  0  0  0  0
 40 30  1  1  0  0  0
 40 41  1  0  0  0  0
 41 43  1  6  0  0  0
 43 42  1  0  0  0  0
 44 46  1  0  0  0  0
 46 45  3  0  0  0  0
M  END
>  <MODEL>
3

>  <REMARK>
 VINA RESULT:      -9.3      3.836      8.161
  Name = 
  11 active torsions:
  status: ('A' for Active; 'I' for Inactive)
    1  A    between atoms: C_3  and  C_17
    2  A    between atoms: C_3  and  C_42
    3  A    between atoms: C_3  and  C_44
    4  A    between atoms: C_8  and  C_16
    5  A    between atoms: C_8  and  C_28
    6  A    between atoms: C_12  and  C_19
    7  A    between atoms: C_18  and  N_27
    8  A    between atoms: C_28  and  C_44
    9  A    between atoms: C_34  and  N_45
   10  A    between atoms: C_36  and  O_43
   11  A    between atoms: N_45  and  C_46
                            x       y       z     vdW  Elec       q    Type
                         _______ _______ _______ _____ _____    ______ ____

>  <TORSDO>
F 11

$$$$
=
 OpenBabel11032420043D

 46 52  0  0  1  0  0  0  0  0999 V2000
  188.6440  178.3050  143.6470 C   0  0  2  0  0  3  0  0  0  0  0  0
  186.5580  177.4680  142.6420 C   0  0  0  0  0  3  0  0  0  0  0  0
  187.4810  177.3580  143.6030 C   0  0  0  0  0  3  0  0  0  0  0  0
  190.8550  177.6120  144.0960 N   0  0  0  0  0  0  0  0  0  0  0  0
  187.8320  178.2860  140.6380 C   0  0  0  0  0  0  0  0  0  0  0  0
  186.6720  178.5350  141.5870 C   0  0  1  0  0  3  0  0  0  0  0  0
  189.5090  178.0620  142.4230 C   0  0  0  0  0  0  0  0  0  0  0  0
  190.7030  177.6410  142.7110 N   0  0  0  0  0  0  0  0  0  0  0  0
  189.6390  177.9260  144.6960 C   0  0  0  0  0  0  0  0  0  0  0  0
  189.5130  177.5420  145.9570 C   0  0  0  0  0  0  0  0  0  0  0  0
  189.0520  178.1070  141.0650 N   0  0  0  0  0  0  0  0  0  0  0  0
  191.6780  176.6950  144.8530 C   0  0  0  0  0  2  0  0  0  0  0  0
  190.9730  176.6840  146.5510 S   0  0  0  0  0  0  0  0  0  0  0  0
  181.2710  178.6690  138.8720 C   0  0  0  0  0  2  0  0  0  0  0  0
  183.8490  179.5570  139.6830 C   0  0  0  0  0  0  0  0  0  0  0  0
  185.1190  179.7270  140.0840 N   0  0  0  0  0  0  0  0  0  0  0  0
  184.3430  177.8790  141.0140 C   0  0  0  0  0  3  0  0  0  0  0  0
  181.9240  177.9520  140.0640 C   0  0  2  0  0  3  0  0  0  0  0  0
  183.3460  178.3960  140.2150 C   0  0  0  0  0  0  0  0  0  0  0  0
  185.4010  178.7080  140.8870 N   0  0  0  0  0  0  0  0  0  0  0  0
  181.8660  176.5740  139.8630 O   0  0  0  0  0  1  0  0  0  0  0  0
  183.0960  180.4250  138.7260 C   0  0  0  0  0  2  0  0  0  0  0  0
  181.5870  180.1770  138.8760 C   0  0  1  0  0  3  0  0  0  0  0  0
  181.2210  182.1600  137.9660 C   0  0  0  0  0  1  0  0  0  0  0  0
  180.9040  180.8070  137.8330 O   0  0  0  0  0  0  0  0  0  0  0  0
  187.5800  178.2540  139.1550 C   0  0  1  0  0  3  0  0  0  0  0  0
  188.8060  178.6750  138.3590 C   0  0  0  0  0  1  0  0  0  0  0  0
  187.0100  176.9140  138.6850 C   0  0  0  0  0  2  0  0  0  0  0  0
  186.3010  177.0290  137.3400 C   0  0  0  0  0  2  0  0  0  0  0  0
  186.6230  175.8370  136.4490 C   0  0  1  0  0  3  0  0  0  0  0  0
  188.5970  176.7770  135.1740 C   0  0  0  0  0  3  0  0  0  0  0  0
  191.1440  173.7530  136.8300 C   0  0  0  0  0  1  0  0  0  0  0  0
  189.9540  176.7500  134.8390 C   0  0  0  0  0  3  0  0  0  0  0  0
  190.2700  174.8060  136.2410 C   0  0  0  0  0  0  0  0  0  0  0  0
  192.1360  175.7530  135.0200 O   0  0  0  0  0  1  0  0  0  0  0  0
  190.7920  175.7630  135.3650 C   0  0  0  0  0  0  0  0  0  0  0  0
  188.9130  174.8350  136.5770 C   0  0  0  0  0  3  0  0  0  0  0  0
  188.0680  175.8070  136.0370 C   0  0  0  0  0  0  0  0  0  0  0  0
  184.8780  174.5550  137.4490 O   0  0  0  0  0  0  0  0  0  0  0  0
  186.2540  174.5490  137.1610 C   0  0  1  0  0  3  0  0  0  0  0  0
  185.2890  173.7840  136.3490 C   0  0  1  0  0  3  0  0  0  0  0  0
  184.0260  171.8950  137.0370 O   0  0  0  0  0  1  0  0  0  0  0  0
  185.3200  172.3260  136.7470 C   0  0  0  0  0  2  0  0  0  0  0  0
  188.3220  177.6440  146.7420 N   0  0  0  0  0  2  0  0  0  0  0  0
  188.2980  178.2530  149.2310 N   0  0  0  0  0  0  0  0  0  0  0  0
  188.3100  177.9770  148.1060 C   0  0  0  0  0  0  0  0  0  0  0  0
  1  3  1  6  0  0  0
  1  9  1  0  0  0  0
  2  3  2  0  0  0  0
  4  9  1  0  0  0  0
  4 12  1  0  0  0  0
  5 11  2  0  0  0  0
  5  6  1  0  0  0  0
  6 20  1  6  0  0  0
  6  2  1  0  0  0  0
  7  8  2  0  0  0  0
  7  1  1  0  0  0  0
  8  4  1  0  0  0  0
  9 10  2  0  0  0  0
 10 13  1  0  0  0  0
 10 44  1  0  0  0  0
 11  7  1  0  0  0  0
 12 13  1  0  0  0  0
 14 23  1  0  0  0  0
 14 18  1  0  0  0  0
 15 16  2  0  0  0  0
 15 19  1  0  0  0  0
 16 20  1  0  0  0  0
 18 21  1  6  0  0  0
 18 19  1  0  0  0  0
 19 17  2  0  0  0  0
 20 17  1  0  0  0  0
 22 23  1  0  0  0  0
 22 15  1  0  0  0  0
 23 25  1  6  0  0  0
 25 24  1  0  0  0  0
 26 27  1  6  0  0  0
 26  5  1  0  0  0  0
 28 26  1  0  0  0  0
 29 28  1  0  0  0  0
 30 29  1  1  0  0  0
 31 38  1  0  0  0  0
 33 31  2  0  0  0  0
 33 36  1  0  0  0  0
 34 37  1  0  0  0  0
 34 32  1  0  0  0  0
 35 36  1  0  0  0  0
 36 34  2  0  0  0  0
 38 30  1  0  0  0  0
 38 37  2  0  0  0  0
 40 30  1  6  0  0  0
 40 39  1  0  0  0  0
 41 43  1  1  0  0  0
 41 40  1  0  0  0  0
 41 39  1  0  0  0  0
 43 42  1  0  0  0  0
 44 46  1  0  0  0  0
 46 45  3  0  0  0  0
M  END
>  <MODEL>
4

>  <REMARK>
 VINA RESULT:      -9.2      3.919      7.508
  Name = 
  11 active torsions:
  status: ('A' for Active; 'I' for Inactive)
    1  A    between atoms: C_3  and  C_17
    2  A    between atoms: C_3  and  C_42
    3  A    between atoms: C_3  and  C_44
    4  A    between atoms: C_8  and  C_16
    5  A    between atoms: C_8  and  C_28
    6  A    between atoms: C_12  and  C_19
    7  A    between atoms: C_18  and  N_27
    8  A    between atoms: C_28  and  C_44
    9  A    between atoms: C_34  and  N_45
   10  A    between atoms: C_36  and  O_43
   11  A    between atoms: N_45  and  C_46
                            x       y       z     vdW  Elec       q    Type
                         _______ _______ _______ _____ _____    ______ ____

>  <TORSDO>
F 11

$$$$
=
 OpenBabel11032420043D

 46 52  0  0  1  0  0  0  0  0999 V2000
  185.1310  175.9350  136.5680 C   0  0  2  0  0  3  0  0  0  0  0  0
  187.3160  174.9960  137.2050 C   0  0  0  0  0  3  0  0  0  0  0  0
  185.9950  174.8260  137.0940 C   0  0  0  0  0  3  0  0  0  0  0  0
  183.0490  176.5090  137.5200 N   0  0  0  0  0  0  0  0  0  0  0  0
  187.5920  177.4290  137.7610 C   0  0  0  0  0  0  0  0  0  0  0  0
  187.9580  176.2990  136.8140 C   0  0  1  0  0  3  0  0  0  0  0  0
  185.1660  177.0830  137.5610 C   0  0  0  0  0  0  0  0  0  0  0  0
  184.0100  177.3400  138.0940 N   0  0  0  0  0  0  0  0  0  0  0  0
  183.6760  175.6080  136.6640 C   0  0  0  0  0  0  0  0  0  0  0  0
  182.9790  174.5190  136.3770 C   0  0  0  0  0  0  0  0  0  0  0  0
  186.3530  177.7360  138.0310 N   0  0  0  0  0  0  0  0  0  0  0  0
  181.8580  175.9970  138.1620 C   0  0  0  0  0  2  0  0  0  0  0  0
  181.3880  174.4970  137.2080 S   0  0  0  0  0  0  0  0  0  0  0  0
  193.9790  175.7480  136.8000 C   0  0  0  0  0  2  0  0  0  0  0  0
  191.3290  175.8590  135.7740 C   0  0  0  0  0  0  0  0  0  0  0  0
  190.0300  176.0530  135.4950 N   0  0  0  0  0  0  0  0  0  0  0  0
  190.2660  176.0070  137.6920 C   0  0  0  0  0  3  0  0  0  0  0  0
  192.8260  175.5620  137.7980 C   0  0  2  0  0  3  0  0  0  0  0  0
  191.5180  175.8610  137.1320 C   0  0  0  0  0  0  0  0  0  0  0  0
  189.4020  176.1390  136.6630 N   0  0  0  0  0  0  0  0  0  0  0  0
  193.0170  176.4060  138.8890 O   0  0  0  0  0  1  0  0  0  0  0  0
  192.4430  175.7510  134.7810 C   0  0  0  0  0  2  0  0  0  0  0  0
  193.6640  175.0940  135.4410 C   0  0  1  0  0  3  0  0  0  0  0  0
  195.6120  176.1210  135.2270 C   0  0  0  0  0  1  0  0  0  0  0  0
  194.7700  175.2050  134.5940 O   0  0  0  0  0  0  0  0  0  0  0  0
  188.6870  178.2360  138.4070 C   0  0  1  0  0  3  0  0  0  0  0  0
  189.0570  179.4580  137.5790 C   0  0  0  0  0  1  0  0  0  0  0  0
  188.3750  178.5890  139.8620 C   0  0  0  0  0  2  0  0  0  0  0  0
  188.2230  177.3490  140.7360 C   0  0  0  0  0  2  0  0  0  0  0  0
  188.8050  177.5830  142.1230 C   0  0  1  0  0  3  0  0  0  0  0  0
  188.0200  177.5620  144.5290 C   0  0  0  0  0  3  0  0  0  0  0  0
  184.1040  178.7920  143.2940 C   0  0  0  0  0  1  0  0  0  0  0  0
  187.0200  177.7620  145.4850 C   0  0  0  0  0  3  0  0  0  0  0  0
  185.4580  178.3570  143.7380 C   0  0  0  0  0  0  0  0  0  0  0  0
  184.7580  178.3460  146.0580 O   0  0  0  0  0  1  0  0  0  0  0  0
  185.7370  178.1530  145.0930 C   0  0  0  0  0  0  0  0  0  0  0  0
  186.4610  178.1590  142.7830 C   0  0  0  0  0  3  0  0  0  0  0  0
  187.7380  177.7480  143.1690 C   0  0  0  0  0  0  0  0  0  0  0  0
  190.8710  176.4790  141.6720 O   0  0  0  0  0  0  0  0  0  0  0  0
  189.7300  176.4380  142.4930 C   0  0  1  0  0  3  0  0  0  0  0  0
  191.0170  176.9690  142.9810 C   0  0  1  0  0  3  0  0  0  0  0  0
  191.7320  176.3430  145.1570 O   0  0  0  0  0  1  0  0  0  0  0  0
  191.7170  175.9290  143.8250 C   0  0  0  0  0  2  0  0  0  0  0  0
  183.4560  173.4010  135.6230 N   0  0  0  0  0  2  0  0  0  0  0  0
  181.9680  171.4680  134.8390 N   0  0  0  0  0  0  0  0  0  0  0  0
  182.6390  172.3430  135.1940 C   0  0  0  0  0  0  0  0  0  0  0  0
  1  9  1  0  0  0  0
  1  3  1  1  0  0  0
  1  7  1  0  0  0  0
  3  2  2  0  0  0  0
  4  8  1  0  0  0  0
  4 12  1  0  0  0  0
  5 11  2  0  0  0  0
  5 26  1  0  0  0  0
  6 20  1  1  0  0  0
  6  2  1  0  0  0  0
  6  5  1  0  0  0  0
  7 11  1  0  0  0  0
  7  8  2  0  0  0  0
  9  4  1  0  0  0  0
 10  9  2  0  0  0  0
 10 13  1  0  0  0  0
 13 12  1  0  0  0  0
 14 18  1  0  0  0  0
 15 19  1  0  0  0  0
 16 15  2  0  0  0  0
 16 20  1  0  0  0  0
 18 21  1  1  0  0  0
 19 17  2  0  0  0  0
 19 18  1  0  0  0  0
 20 17  1  0  0  0  0
 22 23  1  0  0  0  0
 22 15  1  0  0  0  0
 23 25  1  6  0  0  0
 23 14  1  0  0  0  0
 25 24  1  0  0  0  0
 26 27  1  6  0  0  0
 26 28  1  0  0  0  0
 28 29  1  0  0  0  0
 30 29  1  6  0  0  0
 30 38  1  0  0  0  0
 31 33  1  0  0  0  0
 32 34  1  0  0  0  0
 34 36  1  0  0  0  0
 36 33  2  0  0  0  0
 36 35  1  0  0  0  0
 37 38  1  0  0  0  0
 37 34  2  0  0  0  0
 38 31  2  0  0  0  0
 39 40  1  0  0  0  0
 39 41  1  0  0  0  0
 40 30  1  6  0  0  0
 40 41  1  0  0  0  0
 41 43  1  1  0  0  0
 43 42  1  0  0  0  0
 44 10  1  0  0  0  0
 45 46  3  0  0  0  0
 46 44  1  0  0  0  0
M  END
>  <MODEL>
5

>  <REMARK>
 VINA RESULT:      -9.1      3.477      8.599
  Name = 
  11 active torsions:
  status: ('A' for Active; 'I' for Inactive)
    1  A    between atoms: C_3  and  C_17
    2  A    between atoms: C_3  and  C_42
    3  A    between atoms: C_3  and  C_44
    4  A    between atoms: C_8  and  C_16
    5  A    between atoms: C_8  and  C_28
    6  A    between atoms: C_12  and  C_19
    7  A    between atoms: C_18  and  N_27
    8  A    between atoms: C_28  and  C_44
    9  A    between atoms: C_34  and  N_45
   10  A    between atoms: C_36  and  O_43
   11  A    between atoms: N_45  and  C_46
                            x       y       z     vdW  Elec       q    Type
                         _______ _______ _______ _____ _____    ______ ____

>  <TORSDO>
F 11

$$$$
=
 OpenBabel11032420043D

 46 52  0  0  1  0  0  0  0  0999 V2000
  183.6250  178.3340  142.0620 C   0  0  2  0  0  3  0  0  0  0  0  0
  185.2300  179.2200  143.7050 C   0  0  0  0  0  3  0  0  0  0  0  0
  184.0760  179.3730  143.0460 C   0  0  0  0  0  3  0  0  0  0  0  0
  182.6850  178.8680  139.9640 N   0  0  0  0  0  0  0  0  0  0  0  0
  186.7250  178.0170  142.0850 C   0  0  0  0  0  0  0  0  0  0  0  0
  186.0960  178.0130  143.4680 C   0  0  1  0  0  3  0  0  0  0  0  0
  184.5950  178.3230  140.8940 C   0  0  0  0  0  0  0  0  0  0  0  0
  184.0490  178.6630  139.7670 N   0  0  0  0  0  0  0  0  0  0  0  0
  182.3980  178.7560  141.3210 C   0  0  0  0  0  0  0  0  0  0  0  0
  181.2640  179.3200  141.7090 C   0  0  0  0  0  0  0  0  0  0  0  0
  186.0130  178.1360  140.9980 N   0  0  0  0  0  0  0  0  0  0  0  0
  181.8400  179.7970  139.2460 C   0  0  0  0  0  2  0  0  0  0  0  0
  180.4000  180.1080  140.3470 S   0  0  0  0  0  0  0  0  0  0  0  0
  189.7250  177.5480  148.2820 C   0  0  0  0  0  2  0  0  0  0  0  0
  188.9490  177.5840  145.5450 C   0  0  0  0  0  0  0  0  0  0  0  0
  188.3920  177.7500  144.3350 N   0  0  0  0  0  0  0  0  0  0  0  0
  186.7810  177.7860  145.8470 C   0  0  0  0  0  3  0  0  0  0  0  0
  188.2300  177.3810  147.9680 C   0  0  2  0  0  3  0  0  0  0  0  0
  187.9780  177.6370  146.5140 C   0  0  0  0  0  0  0  0  0  0  0  0
  187.0840  177.8680  144.5340 N   0  0  0  0  0  0  0  0  0  0  0  0
  187.4910  178.2670  148.7500 O   0  0  0  0  0  1  0  0  0  0  0  0
  190.4100  177.4560  145.8410 C   0  0  0  0  0  2  0  0  0  0  0  0
  190.6060  176.8410  147.2340 C   0  0  1  0  0  3  0  0  0  0  0  0
  192.4300  175.6280  147.5420 C   0  0  0  0  0  1  0  0  0  0  0  0
  191.9500  176.9370  147.6030 O   0  0  0  0  0  0  0  0  0  0  0  0
  188.2170  177.8700  141.9520 C   0  0  1  0  0  3  0  0  0  0  0  0
  188.6810  176.4570  142.2720 C   0  0  0  0  0  1  0  0  0  0  0  0
  188.7380  178.3640  140.6000 C   0  0  0  0  0  2  0  0  0  0  0  0
  190.1540  177.8780  140.3160 C   0  0  0  0  0  2  0  0  0  0  0  0
  190.1860  176.9700  139.0940 C   0  0  1  0  0  3  0  0  0  0  0  0
  188.9630  178.4330  137.4300 C   0  0  0  0  0  3  0  0  0  0  0  0
  186.0120  175.3750  136.8660 C   0  0  0  0  0  1  0  0  0  0  0  0
  187.9100  178.6380  136.5320 C   0  0  0  0  0  3  0  0  0  0  0  0
  187.0260  176.4500  137.0570 C   0  0  0  0  0  0  0  0  0  0  0  0
  185.9010  177.8750  135.4520 O   0  0  0  0  0  1  0  0  0  0  0  0
  186.9370  177.6520  136.3480 C   0  0  0  0  0  0  0  0  0  0  0  0
  188.0800  176.2450  137.9530 C   0  0  0  0  0  3  0  0  0  0  0  0
  189.0430  177.2360  138.1550 C   0  0  0  0  0  0  0  0  0  0  0  0
  192.5600  176.7900  139.2380 O   0  0  0  0  0  0  0  0  0  0  0  0
  191.5090  177.1300  138.3680 C   0  0  1  0  0  3  0  0  0  0  0  0
  192.1960  175.8280  138.2810 C   0  0  1  0  0  3  0  0  0  0  0  0
  194.4740  175.5920  137.6530 O   0  0  0  0  0  1  0  0  0  0  0  0
  193.1980  175.8480  137.1500 C   0  0  0  0  0  2  0  0  0  0  0  0
  180.8150  179.4410  143.0620 N   0  0  0  0  0  2  0  0  0  0  0  0
  179.6800  177.5490  144.3650 N   0  0  0  0  0  0  0  0  0  0  0  0
  180.1950  178.4040  143.7760 C   0  0  0  0  0  0  0  0  0  0  0  0
  1  3  1  1  0  0  0
  3  2  2  0  0  0  0
  4  9  1  0  0  0  0
  5  6  1  0  0  0  0
  6  2  1  1  0  0  0
  6 20  1  0  0  0  0
  7 11  1  0  0  0  0
  7  1  1  0  0  0  0
  8  4  1  0  0  0  0
  8  7  2  0  0  0  0
  9 10  2  0  0  0  0
  9  1  1  0  0  0  0
 10 44  1  0  0  0  0
 11  5  2  0  0  0  0
 12  4  1  0  0  0  0
 12 13  1  0  0  0  0
 13 10  1  0  0  0  0
 15 22  1  0  0  0  0
 15 19  1  0  0  0  0
 16 20  1  0  0  0  0
 16 15  2  0  0  0  0
 17 19  2  0  0  0  0
 18 14  1  0  0  0  0
 18 21  1  1  0  0  0
 19 18  1  0  0  0  0
 20 17  1  0  0  0  0
 22 23  1  0  0  0  0
 23 25  1  1  0  0  0
 23 14  1  0  0  0  0
 24 25  1  0  0  0  0
 26  5  1  0  0  0  0
 26 27  1  6  0  0  0
 28 26  1  0  0  0  0
 29 28  1  0  0  0  0
 30 29  1  1  0  0  0
 31 38  1  0  0  0  0
 32 34  1  0  0  0  0
 33 31  2  0  0  0  0
 34 37  1  0  0  0  0
 35 36  1  0  0  0  0
 36 33  1  0  0  0  0
 36 34  2  0  0  0  0
 37 38  2  0  0  0  0
 38 30  1  0  0  0  0
 40 30  1  1  0  0  0
 40 39  1  0  0  0  0
 41 43  1  6  0  0  0
 41 40  1  0  0  0  0
 41 39  1  0  0  0  0
 43 42  1  0  0  0  0
 44 46  1  0  0  0  0
 46 45  3  0  0  0  0
M  END
>  <MODEL>
6

>  <REMARK>
 VINA RESULT:      -9.1      1.071      3.059
  Name = 
  11 active torsions:
  status: ('A' for Active; 'I' for Inactive)
    1  A    between atoms: C_3  and  C_17
    2  A    between atoms: C_3  and  C_42
    3  A    between atoms: C_3  and  C_44
    4  A    between atoms: C_8  and  C_16
    5  A    between atoms: C_8  and  C_28
    6  A    between atoms: C_12  and  C_19
    7  A    between atoms: C_18  and  N_27
    8  A    between atoms: C_28  and  C_44
    9  A    between atoms: C_34  and  N_45
   10  A    between atoms: C_36  and  O_43
   11  A    between atoms: N_45  and  C_46
                            x       y       z     vdW  Elec       q    Type
                         _______ _______ _______ _____ _____    ______ ____

>  <TORSDO>
F 11

$$$$
=
 OpenBabel11032420043D

 46 52  0  0  1  0  0  0  0  0999 V2000
  188.4720  178.1600  144.2700 C   0  0  2  0  0  3  0  0  0  0  0  0
  186.5350  177.2960  143.0200 C   0  0  0  0  0  3  0  0  0  0  0  0
  187.3690  177.1660  144.0570 C   0  0  0  0  0  3  0  0  0  0  0  0
  190.6650  177.5400  144.8870 N   0  0  0  0  0  0  0  0  0  0  0  0
  187.9460  178.3000  141.2010 C   0  0  0  0  0  0  0  0  0  0  0  0
  186.6910  178.4330  142.0470 C   0  0  1  0  0  3  0  0  0  0  0  0
  189.4590  178.0370  143.1220 C   0  0  0  0  0  0  0  0  0  0  0  0
  190.6410  177.6530  143.4970 N   0  0  0  0  0  0  0  0  0  0  0  0
  189.3840  177.7590  145.3840 C   0  0  0  0  0  0  0  0  0  0  0  0
  189.1600  177.2890  146.6020 C   0  0  0  0  0  0  0  0  0  0  0  0
  189.1280  178.1500  141.7310 N   0  0  0  0  0  0  0  0  0  0  0  0
  191.4600  176.6150  145.6630 C   0  0  0  0  0  2  0  0  0  0  0  0
  190.6020  176.4620  147.2810 S   0  0  0  0  0  0  0  0  0  0  0  0
  181.5030  178.5470  138.9440 C   0  0  0  0  0  2  0  0  0  0  0  0
  184.0750  179.3770  139.8340 C   0  0  0  0  0  0  0  0  0  0  0  0
  185.3240  179.5220  140.3050 N   0  0  0  0  0  0  0  0  0  0  0  0
  184.3680  177.8470  141.3840 C   0  0  0  0  0  3  0  0  0  0  0  0
  182.0270  177.9440  140.2560 C   0  0  2  0  0  3  0  0  0  0  0  0
  183.4620  178.3200  140.4590 C   0  0  0  0  0  0  0  0  0  0  0  0
  185.4840  178.5930  141.2400 N   0  0  0  0  0  0  0  0  0  0  0  0
  181.8930  176.5570  140.2130 O   0  0  0  0  0  1  0  0  0  0  0  0
  183.4460  180.1660  138.7290 C   0  0  0  0  0  2  0  0  0  0  0  0
  181.9170  180.0240  138.7950 C   0  0  1  0  0  3  0  0  0  0  0  0
  181.2320  181.9280  137.9010 C   0  0  0  0  0  1  0  0  0  0  0  0
  181.3480  180.5620  137.6390 O   0  0  0  0  0  0  0  0  0  0  0  0
  187.8350  178.3530  139.7010 C   0  0  1  0  0  3  0  0  0  0  0  0
  189.0530  179.0030  139.0620 C   0  0  0  0  0  1  0  0  0  0  0  0
  187.5110  176.9890  139.0880 C   0  0  0  0  0  2  0  0  0  0  0  0
  187.1080  177.0980  137.6210 C   0  0  0  0  0  2  0  0  0  0  0  0
  186.6050  175.7620  137.0930 C   0  0  1  0  0  3  0  0  0  0  0  0
  184.3450  174.7300  137.5770 C   0  0  0  0  0  3  0  0  0  0  0  0
  182.4100  177.8680  135.3900 C   0  0  0  0  0  1  0  0  0  0  0  0
  182.9510  174.7460  137.4690 C   0  0  0  0  0  3  0  0  0  0  0  0
  183.0690  176.7670  136.1470 C   0  0  0  0  0  0  0  0  0  0  0  0
  180.9260  175.7570  136.6550 O   0  0  0  0  0  1  0  0  0  0  0  0
  182.3100  175.7580  136.7500 C   0  0  0  0  0  0  0  0  0  0  0  0
  184.4630  176.7510  136.2570 C   0  0  0  0  0  3  0  0  0  0  0  0
  185.1080  175.7290  136.9570 C   0  0  0  0  0  0  0  0  0  0  0  0
  188.4540  176.1910  135.6480 O   0  0  0  0  0  0  0  0  0  0  0  0
  187.2590  175.4580  135.7570 C   0  0  1  0  0  3  0  0  0  0  0  0
  188.5770  174.8300  135.9740 C   0  0  1  0  0  3  0  0  0  0  0  0
  190.3760  174.1140  134.6000 O   0  0  0  0  0  1  0  0  0  0  0  0
  188.9900  174.0590  134.7420 C   0  0  0  0  0  2  0  0  0  0  0  0
  187.8980  177.2840  147.2740 N   0  0  0  0  0  2  0  0  0  0  0  0
  186.2900  179.2790  147.3020 N   0  0  0  0  0  0  0  0  0  0  0  0
  187.0160  178.3770  147.2880 C   0  0  0  0  0  0  0  0  0  0  0  0
  1  3  1  6  0  0  0
  1  9  1  0  0  0  0
  2  3  2  0  0  0  0
  4  9  1  0  0  0  0
  4 12  1  0  0  0  0
  5 11  2  0  0  0  0
  5  6  1  0  0  0  0
  6 20  1  6  0  0  0
  6  2  1  0  0  0  0
  7  8  2  0  0  0  0
  7  1  1  0  0  0  0
  8  4  1  0  0  0  0
  9 10  2  0  0  0  0
 10 44  1  0  0  0  0
 10 13  1  0  0  0  0
 11  7  1  0  0  0  0
 12 13  1  0  0  0  0
 14 18  1  0  0  0  0
 15 16  2  0  0  0  0
 15 19  1  0  0  0  0
 16 20  1  0  0  0  0
 18 21  1  6  0  0  0
 18 19  1  0  0  0  0
 19 17  2  0  0  0  0
 20 17  1  0  0  0  0
 22 23  1  0  0  0  0
 22 15  1  0  0  0  0
 23 25  1  6  0  0  0
 23 14  1  0  0  0  0
 25 24  1  0  0  0  0
 26 27  1  6  0  0  0
 26  5  1  0  0  0  0
 28 26  1  0  0  0  0
 29 28  1  0  0  0  0
 30 29  1  6  0  0  0
 32 34  1  0  0  0  0
 33 31  1  0  0  0  0
 34 37  2  0  0  0  0
 34 36  1  0  0  0  0
 35 36  1  0  0  0  0
 36 33  2  0  0  0  0
 37 38  1  0  0  0  0
 38 30  1  0  0  0  0
 38 31  2  0  0  0  0
 39 40  1  0  0  0  0
 39 41  1  0  0  0  0
 40 41  1  0  0  0  0
 40 30  1  1  0  0  0
 41 43  1  6  0  0  0
 42 43  1  0  0  0  0
 44 46  1  0  0  0  0
 46 45  3  0  0  0  0
M  END
>  <MODEL>
7

>  <REMARK>
 VINA RESULT:      -9.0      3.961      8.030
  Name = 
  11 active torsions:
  status: ('A' for Active; 'I' for Inactive)
    1  A    between atoms: C_3  and  C_17
    2  A    between atoms: C_3  and  C_42
    3  A    between atoms: C_3  and  C_44
    4  A    between atoms: C_8  and  C_16
    5  A    between atoms: C_8  and  C_28
    6  A    between atoms: C_12  and  C_19
    7  A    between atoms: C_18  and  N_27
    8  A    between atoms: C_28  and  C_44
    9  A    between atoms: C_34  and  N_45
   10  A    between atoms: C_36  and  O_43
   11  A    between atoms: N_45  and  C_46
                            x       y       z     vdW  Elec       q    Type
                         _______ _______ _______ _____ _____    ______ ____

>  <TORSDO>
F 11

$$$$
=
 OpenBabel11032420043D

 46 52  0  0  1  0  0  0  0  0999 V2000
  188.4670  176.8950  138.1250 C   0  0  2  0  0  3  0  0  0  0  0  0
  186.8960  178.7530  137.7480 C   0  0  0  0  0  3  0  0  0  0  0  0
  188.0610  178.1700  137.4460 C   0  0  0  0  0  3  0  0  0  0  0  0
  190.6570  176.4930  138.9090 N   0  0  0  0  0  0  0  0  0  0  0  0
  186.5470  178.2370  140.1810 C   0  0  0  0  0  0  0  0  0  0  0  0
  185.9780  178.1480  138.7750 C   0  0  1  0  0  3  0  0  0  0  0  0
  188.6930  177.1850  139.5980 C   0  0  0  0  0  0  0  0  0  0  0  0
  189.9180  176.9930  139.9800 N   0  0  0  0  0  0  0  0  0  0  0  0
  189.8600  176.4860  137.7690 C   0  0  0  0  0  0  0  0  0  0  0  0
  190.5160  176.4390  136.6190 C   0  0  0  0  0  0  0  0  0  0  0  0
  187.7320  177.7790  140.4810 N   0  0  0  0  0  0  0  0  0  0  0  0
  192.0640  176.7100  138.6570 C   0  0  0  0  0  2  0  0  0  0  0  0
  192.2950  176.4170  136.8560 S   0  0  0  0  0  0  0  0  0  0  0  0
  180.2450  179.9630  138.1530 C   0  0  0  0  0  2  0  0  0  0  0  0
  183.0320  180.1340  138.6970 C   0  0  0  0  0  0  0  0  0  0  0  0
  184.3650  180.0160  138.7960 N   0  0  0  0  0  0  0  0  0  0  0  0
  183.5130  177.9990  138.4940 C   0  0  0  0  0  3  0  0  0  0  0  0
  180.9960  178.6490  138.4200 C   0  0  2  0  0  3  0  0  0  0  0  0
  182.4710  178.9020  138.4720 C   0  0  0  0  0  0  0  0  0  0  0  0
  184.6390  178.7220  138.6730 N   0  0  0  0  0  0  0  0  0  0  0  0
  180.6980  177.7330  137.4130 O   0  0  0  0  0  1  0  0  0  0  0  0
  182.2500  181.4100  138.7230 C   0  0  0  0  0  2  0  0  0  0  0  0
  180.7760  181.1080  139.0360 C   0  0  1  0  0  3  0  0  0  0  0  0
  180.6280  182.9120  137.7630 C   0  0  0  0  0  1  0  0  0  0  0  0
  180.0110  182.2590  138.8310 O   0  0  0  0  0  0  0  0  0  0  0  0
  185.7220  178.8610  141.2740 C   0  0  1  0  0  3  0  0  0  0  0  0
  184.3600  178.1970  141.4090 C   0  0  0  0  0  1  0  0  0  0  0  0
  186.4710  178.9360  142.6050 C   0  0  0  0  0  2  0  0  0  0  0  0
  185.6300  178.4260  143.7700 C   0  0  0  0  0  2  0  0  0  0  0  0
  186.4980  177.7270  144.8070 C   0  0  1  0  0  3  0  0  0  0  0  0
  188.1200  176.2100  143.5940 C   0  0  0  0  0  3  0  0  0  0  0  0
  191.2390  179.1110  144.0750 C   0  0  0  0  0  1  0  0  0  0  0  0
  189.3940  175.9540  143.0790 C   0  0  0  0  0  3  0  0  0  0  0  0
  190.1670  178.0900  143.9060 C   0  0  0  0  0  0  0  0  0  0  0  0
  191.6790  176.6140  142.7190 O   0  0  0  0  0  1  0  0  0  0  0  0
  190.4220  176.8870  143.2380 C   0  0  0  0  0  0  0  0  0  0  0  0
  188.8920  178.3450  144.4200 C   0  0  0  0  0  3  0  0  0  0  0  0
  187.8680  177.4050  144.2800 C   0  0  0  0  0  0  0  0  0  0  0  0
  185.5680  178.2480  146.9410 O   0  0  0  0  0  0  0  0  0  0  0  0
  186.6030  178.5880  146.0530 C   0  0  1  0  0  3  0  0  0  0  0  0
  186.8430  177.7360  147.2330 C   0  0  1  0  0  3  0  0  0  0  0  0
  188.6490  177.9490  148.7600 O   0  0  0  0  0  1  0  0  0  0  0  0
  187.4650  178.5550  148.3420 C   0  0  0  0  0  2  0  0  0  0  0  0
  189.9260  176.5440  135.3200 N   0  0  0  0  0  2  0  0  0  0  0  0
  187.8380  175.2480  134.5940 N   0  0  0  0  0  0  0  0  0  0  0  0
  188.7830  175.8330  134.9210 C   0  0  0  0  0  0  0  0  0  0  0  0
  1  3  1  6  0  0  0
  1  7  1  0  0  0  0
  3  2  2  0  0  0  0
  4  8  1  0  0  0  0
  5 11  2  0  0  0  0
  5 26  1  0  0  0  0
  6  2  1  6  0  0  0
  6  5  1  0  0  0  0
  7  8  2  0  0  0  0
  7 11  1  0  0  0  0
  9  1  1  0  0  0  0
  9  4  1  0  0  0  0
 10 13  1  0  0  0  0
 10  9  2  0  0  0  0
 12  4  1  0  0  0  0
 13 12  1  0  0  0  0
 14 18  1  0  0  0  0
 14 23  1  0  0  0  0
 15 22  1  0  0  0  0
 15 16  2  0  0  0  0
 17 20  1  0  0  0  0
 18 21  1  6  0  0  0
 18 19  1  0  0  0  0
 19 17  2  0  0  0  0
 19 15  1  0  0  0  0
 20  6  1  0  0  0  0
 20 16  1  0  0  0  0
 22 23  1  0  0  0  0
 23 25  1  6  0  0  0
 24 25  1  0  0  0  0
 26 27  1  1  0  0  0
 26 28  1  0  0  0  0
 28 29  1  0  0  0  0
 30 29  1  6  0  0  0
 31 38  1  0  0  0  0
 33 36  1  0  0  0  0
 33 31  2  0  0  0  0
 34 32  1  0  0  0  0
 34 37  1  0  0  0  0
 35 36  1  0  0  0  0
 36 34  2  0  0  0  0
 38 37  2  0  0  0  0
 38 30  1  0  0  0  0
 39 41  1  0  0  0  0
 40 30  1  6  0  0  0
 40 39  1  0  0  0  0
 40 41  1  0  0  0  0
 41 43  1  1  0  0  0
 43 42  1  0  0  0  0
 44 10  1  0  0  0  0
 45 46  3  0  0  0  0
 46 44  1  0  0  0  0
M  END
>  <MODEL>
8

>  <REMARK>
 VINA RESULT:      -8.9      3.595      9.394
  Name = 
  11 active torsions:
  status: ('A' for Active; 'I' for Inactive)
    1  A    between atoms: C_3  and  C_17
    2  A    between atoms: C_3  and  C_42
    3  A    between atoms: C_3  and  C_44
    4  A    between atoms: C_8  and  C_16
    5  A    between atoms: C_8  and  C_28
    6  A    between atoms: C_12  and  C_19
    7  A    between atoms: C_18  and  N_27
    8  A    between atoms: C_28  and  C_44
    9  A    between atoms: C_34  and  N_45
   10  A    between atoms: C_36  and  O_43
   11  A    between atoms: N_45  and  C_46
                            x       y       z     vdW  Elec       q    Type
                         _______ _______ _______ _____ _____    ______ ____

>  <TORSDO>
F 11

$$$$
=
 OpenBabel11032420043D

 46 52  0  0  1  0  0  0  0  0999 V2000
  185.8570  175.5900  136.1830 C   0  0  2  0  0  3  0  0  0  0  0  0
  187.8870  174.4450  136.9770 C   0  0  0  0  0  3  0  0  0  0  0  0
  186.5780  174.3840  136.7100 C   0  0  0  0  0  3  0  0  0  0  0  0
  183.7230  176.2510  136.9460 N   0  0  0  0  0  0  0  0  0  0  0  0
  188.2610  176.8050  137.7480 C   0  0  0  0  0  0  0  0  0  0  0  0
  188.6560  175.7200  136.7610 C   0  0  1  0  0  3  0  0  0  0  0  0
  185.8550  176.6590  137.2600 C   0  0  0  0  0  0  0  0  0  0  0  0
  184.6660  176.9650  137.6830 N   0  0  0  0  0  0  0  0  0  0  0  0
  184.3810  175.3690  136.0940 C   0  0  0  0  0  0  0  0  0  0  0  0
  183.6490  174.3590  135.6490 C   0  0  0  0  0  0  0  0  0  0  0  0
  187.0230  177.1850  137.9050 N   0  0  0  0  0  0  0  0  0  0  0  0
  182.4350  175.7870  137.4130 C   0  0  0  0  0  2  0  0  0  0  0  0
  181.9760  174.3990  136.2990 S   0  0  0  0  0  0  0  0  0  0  0  0
  194.6440  175.0570  136.2580 C   0  0  0  0  0  2  0  0  0  0  0  0
  192.0040  174.6210  137.2240 C   0  0  0  0  0  0  0  0  0  0  0  0
  190.6860  174.4980  137.4490 N   0  0  0  0  0  0  0  0  0  0  0  0
  190.9970  176.2050  136.0810 C   0  0  0  0  0  3  0  0  0  0  0  0
  193.5940  176.1380  135.9600 C   0  0  2  0  0  3  0  0  0  0  0  0
  192.2310  175.6510  136.3470 C   0  0  0  0  0  0  0  0  0  0  0  0
  190.0930  175.4620  136.7540 N   0  0  0  0  0  0  0  0  0  0  0  0
  193.6270  176.4520  134.6020 O   0  0  0  0  0  1  0  0  0  0  0  0
  193.0820  173.7270  137.7510 C   0  0  0  0  0  2  0  0  0  0  0  0
  194.4400  174.4390  137.6550 C   0  0  1  0  0  3  0  0  0  0  0  0
  196.6430  174.2510  137.7270 C   0  0  0  0  0  1  0  0  0  0  0  0
  195.4650  173.5300  137.9260 O   0  0  0  0  0  0  0  0  0  0  0  0
  189.3270  177.4800  138.5700 C   0  0  1  0  0  3  0  0  0  0  0  0
  189.1580  178.9910  138.5930 C   0  0  0  0  0  1  0  0  0  0  0  0
  189.4520  176.8840  139.9730 C   0  0  0  0  0  2  0  0  0  0  0  0
  189.0750  177.8840  141.0600 C   0  0  0  0  0  2  0  0  0  0  0  0
  188.3890  177.1890  142.2280 C   0  0  1  0  0  3  0  0  0  0  0  0
  190.6640  177.1180  143.3350 C   0  0  0  0  0  3  0  0  0  0  0  0
  188.8150  177.1030  147.2020 C   0  0  0  0  0  1  0  0  0  0  0  0
  191.4580  177.0950  144.4860 C   0  0  0  0  0  3  0  0  0  0  0  0
  189.4720  177.1010  145.8650 C   0  0  0  0  0  0  0  0  0  0  0  0
  191.6720  177.0570  146.8810 O   0  0  0  0  0  1  0  0  0  0  0  0
  190.8660  177.0800  145.7520 C   0  0  0  0  0  0  0  0  0  0  0  0
  188.6800  177.1250  144.7130 C   0  0  0  0  0  3  0  0  0  0  0  0
  189.2670  177.1200  143.4460 C   0  0  0  0  0  0  0  0  0  0  0  0
  187.0960  179.1770  141.9720 O   0  0  0  0  0  0  0  0  0  0  0  0
  187.0890  177.8990  142.5580 C   0  0  1  0  0  3  0  0  0  0  0  0
  186.3440  178.1870  141.3180 C   0  0  1  0  0  3  0  0  0  0  0  0
  184.4280  179.5560  141.0160 O   0  0  0  0  0  1  0  0  0  0  0  0
  184.8800  178.3880  141.6300 C   0  0  0  0  0  2  0  0  0  0  0  0
  184.1320  173.2640  134.8650 N   0  0  0  0  0  2  0  0  0  0  0  0
  184.3700  170.8700  135.7490 N   0  0  0  0  0  0  0  0  0  0  0  0
  184.2620  171.9530  135.3510 C   0  0  0  0  0  0  0  0  0  0  0  0
  1  3  1  1  0  0  0
  1  7  1  0  0  0  0
  3  2  2  0  0  0  0
  4 12  1  0  0  0  0
  4  8  1  0  0  0  0
  5 11  2  0  0  0  0
  5 26  1  0  0  0  0
  6 20  1  1  0  0  0
  6  2  1  0  0  0  0
  6  5  1  0  0  0  0
  7  8  2  0  0  0  0
  7 11  1  0  0  0  0
  9  1  1  0  0  0  0
  9  4  1  0  0  0  0
 10  9  2  0  0  0  0
 10 13  1  0  0  0  0
 13 12  1  0  0  0  0
 14 23  1  0  0  0  0
 15 16  2  0  0  0  0
 15 22  1  0  0  0  0
 17 19  2  0  0  0  0
 17 20  1  0  0  0  0
 18 21  1  6  0  0  0
 18 14  1  0  0  0  0
 18 19  1  0  0  0  0
 19 15  1  0  0  0  0
 20 16  1  0  0  0  0
 23 22  1  0  0  0  0
 23 25  1  6  0  0  0
 24 25  1  0  0  0  0
 26 27  1  1  0  0  0
 26 28  1  0  0  0  0
 28 29  1  0  0  0  0
 30 29  1  6  0  0  0
 30 38  1  0  0  0  0
 31 38  2  0  0  0  0
 31 33  1  0  0  0  0
 33 36  2  0  0  0  0
 34 32  1  0  0  0  0
 36 34  1  0  0  0  0
 36 35  1  0  0  0  0
 37 34  2  0  0  0  0
 38 37  1  0  0  0  0
 39 40  1  0  0  0  0
 40 30  1  6  0  0  0
 41 43  1  1  0  0  0
 41 39  1  0  0  0  0
 41 40  1  0  0  0  0
 42 43  1  0  0  0  0
 44 46  1  0  0  0  0
 44 10  1  0  0  0  0
 46 45  3  0  0  0  0
M  END
>  <MODEL>
9

>  <REMARK>
 VINA RESULT:      -8.8      3.435      8.328
  Name = 
  11 active torsions:
  status: ('A' for Active; 'I' for Inactive)
    1  A    between atoms: C_3  and  C_17
    2  A    between atoms: C_3  and  C_42
    3  A    between atoms: C_3  and  C_44
    4  A    between atoms: C_8  and  C_16
    5  A    between atoms: C_8  and  C_28
    6  A    between atoms: C_12  and  C_19
    7  A    between atoms: C_18  and  N_27
    8  A    between atoms: C_28  and  C_44
    9  A    between atoms: C_34  and  N_45
   10  A    between atoms: C_36  and  O_43
   11  A    between atoms: N_45  and  C_46
                            x       y       z     vdW  Elec       q    Type
                         _______ _______ _______ _____ _____    ______ ____

>  <TORSDO>
F 11

$$$$
