=
 OpenBabel11042413053D

 40 44  0  0  1  0  0  0  0  0999 V2000
  187.4680  178.0640  140.2050 C   0  0  0  0  0  1  0  0  0  0  0  0
  184.0460  176.2840  136.7790 C   0  0  0  0  0  1  0  0  0  0  0  0
  183.5190  177.2190  137.8480 C   0  0  1  0  0  0  0  0  0  0  0  0
  180.4450  177.9790  139.3030 C   0  0  0  0  0  2  0  0  0  0  0  0
  184.6210  177.5150  138.8870 C   0  0  1  0  0  3  0  0  0  0  0  0
  182.7170  178.1490  140.5480 C   0  0  1  0  0  0  0  0  0  0  0  0
  185.7920  178.4010  138.4760 C   0  0  1  0  0  3  0  0  0  0  0  0
  181.7370  177.2710  139.7350 C   0  0  2  0  0  3  0  0  0  0  0  0
  180.1010  179.2570  140.0870 C   0  0  2  0  0  3  0  0  0  0  0  0
  182.3390  178.6150  141.9540 C   0  0  0  0  0  2  0  0  0  0  0  0
  183.0680  178.3900  137.2320 O   0  0  0  0  0  1  0  0  0  0  0  0
  184.1360  178.2580  140.1080 C   0  0  2  0  0  0  0  0  0  0  0  0
  179.8390  179.0460  141.5940 C   0  0  1  0  0  3  0  0  0  0  0  0
  186.4130  178.9520  139.7100 N   0  0  0  0  0  0  0  0  0  0  0  0
  183.1570  179.2220  139.7660 O   0  0  0  0  0  0  0  0  0  0  0  0
  185.2880  179.0580  140.6770 C   0  0  2  0  0  3  0  0  0  0  0  0
  182.3580  176.5030  138.5530 C   0  0  0  0  0  2  0  0  0  0  0  0
  180.9090  178.2100  142.3140 C   0  0  0  0  0  2  0  0  0  0  0  0
  185.6030  178.7660  142.1260 C   0  0  0  0  0  0  0  0  0  0  0  0
  186.1660  178.2830  144.8280 C   0  0  0  0  0  0  0  0  0  0  0  0
  185.2730  179.2970  144.4700 C   0  0  0  0  0  3  0  0  0  0  0  0
  184.9940  179.5400  143.1210 C   0  0  0  0  0  3  0  0  0  0  0  0
  186.7820  177.5110  143.8380 C   0  0  0  0  0  3  0  0  0  0  0  0
  186.5040  177.7530  142.4900 C   0  0  0  0  0  3  0  0  0  0  0  0
  186.6820  177.8330  147.3290 N   0  0  0  0  0  0  0  0  0  0  0  0
  186.4520  178.0340  146.2120 C   0  0  0  0  0  0  0  0  0  0  0  0
  179.6850  180.3890  142.2970 C   0  0  0  0  0  2  0  0  0  0  0  0
  179.3030  180.1940  143.6240 O   0  0  0  0  0  1  0  0  0  0  0  0
  186.7380  177.8420  137.3900 C   0  0  1  0  0  3  0  0  0  0  0  0
  187.5400  178.9460  136.7260 C   0  0  0  0  0  1  0  0  0  0  0  0
  187.8280  176.4900  137.9640 S   0  0  0  0  0  0  0  0  0  0  0  0
  189.0670  176.7990  136.6710 C   0  0  2  0  0  3  0  0  0  0  0  0
  189.0070  175.6790  135.6510 C   0  0  0  0  0  1  0  0  0  0  0  0
  190.3940  176.8490  137.2660 N   0  0  0  0  0  2  0  0  0  0  0  0
  190.9600  176.8160  139.5210 O   0  0  0  0  0  1  0  0  0  0  0  0
  190.3530  176.0840  138.5020 C   0  0  0  0  0  3  0  0  0  0  0  0
  191.0340  174.8770  138.3320 O   0  0  0  0  0  1  0  0  0  0  0  0
  178.9310  179.9660  139.4100 C   0  0  0  0  0  2  0  0  0  0  0  0
  179.9470  181.8400  138.8370 C   0  0  0  0  0  1  0  0  0  0  0  0
  179.3680  180.6920  138.2990 O   0  0  0  0  0  0  0  0  0  0  0  0
  3  2  1  6  0  0  0
  3 17  1  0  0  0  0
  3  5  1  0  0  0  0
  4  8  1  0  0  0  0
  4  9  1  0  0  0  0
  5 12  1  0  0  0  0
  6 10  1  0  0  0  0
  7  5  1  0  0  0  0
  7 14  1  0  0  0  0
  8  6  1  0  0  0  0
  9 13  1  0  0  0  0
 10 18  1  0  0  0  0
 11  3  1  0  0  0  0
 12  6  1  0  0  0  0
 12 16  1  0  0  0  0
 13 27  1  0  0  0  0
 13 18  1  0  0  0  0
 14  1  1  0  0  0  0
 14 16  1  0  0  0  0
 15 12  1  0  0  0  0
 15  6  1  0  0  0  0
 16 19  1  0  0  0  0
 17  8  1  0  0  0  0
 19 24  2  0  0  0  0
 19 22  1  0  0  0  0
 20 26  1  0  0  0  0
 21 20  1  0  0  0  0
 22 21  2  0  0  0  0
 23 20  2  0  0  0  0
 24 23  1  0  0  0  0
 26 25  3  0  0  0  0
 27 28  1  0  0  0  0
 29 31  1  0  0  0  0
 29  7  1  0  0  0  0
 30 29  1  0  0  0  0
 32 34  1  0  0  0  0
 32 31  1  0  0  0  0
 33 32  1  0  0  0  0
 34 36  1  0  0  0  0
 36 35  1  0  0  0  0
 37 36  1  0  0  0  0
 38  9  1  0  0  0  0
 40 39  1  0  0  0  0
 40 38  1  0  0  0  0
M  END
>  <MODEL>
1

>  <REMARK>
 VINA RESULT:      -6.4      0.000      0.000
  Name = 
  10 active torsions:
  status: ('A' for Active; 'I' for Inactive)
    1  A    between atoms: C_7  and  C_21
    2  A    between atoms: C_9  and  C_20
    3  A    between atoms: C_10  and  C_30
    4  A    between atoms: C_14  and  N_29
    5  A    between atoms: C_14  and  S_32
    6  A    between atoms: C_16  and  C_36
    7  A    between atoms: O_19  and  C_30
    8  A    between atoms: C_21  and  S_32
    9  A    between atoms: C_22  and  C_40
   10  A    between atoms: C_24  and  N_29
                            x       y       z     vdW  Elec       q    Type
                         _______ _______ _______ _____ _____    ______ ____

>  <TORSDO>
F 10

$$$$
=
 OpenBabel11042413053D

 40 44  0  0  1  0  0  0  0  0999 V2000
  188.0380  178.1100  140.7630 C   0  0  0  0  0  1  0  0  0  0  0  0
  185.9910  175.7460  136.6610 C   0  0  0  0  0  1  0  0  0  0  0  0
  185.0990  176.7200  137.4030 C   0  0  1  0  0  0  0  0  0  0  0  0
  181.6840  177.3290  137.7370 C   0  0  0  0  0  2  0  0  0  0  0  0
  185.7940  177.2010  138.6940 C   0  0  1  0  0  3  0  0  0  0  0  0
  183.4280  177.8050  139.6000 C   0  0  1  0  0  0  0  0  0  0  0  0
  186.9840  178.1470  138.5730 C   0  0  1  0  0  3  0  0  0  0  0  0
  182.8100  176.7770  138.6240 C   0  0  2  0  0  3  0  0  0  0  0  0
  181.0380  178.6340  138.2290 C   0  0  2  0  0  3  0  0  0  0  0  0
  182.5970  178.3570  140.7590 C   0  0  0  0  0  2  0  0  0  0  0  0
  184.8020  177.7890  136.5520 O   0  0  0  0  0  1  0  0  0  0  0  0
  184.9050  178.0000  139.6140 C   0  0  2  0  0  0  0  0  0  0  0  0
  180.3220  178.5320  139.5930 C   0  0  1  0  0  3  0  0  0  0  0  0
  187.1470  178.8550  139.8700 N   0  0  0  0  0  0  0  0  0  0  0  0
  184.0340  178.8410  138.8810 O   0  0  0  0  0  0  0  0  0  0  0  0
  185.7700  178.9450  140.4220 C   0  0  2  0  0  3  0  0  0  0  0  0
  183.8160  175.9670  137.7860 C   0  0  0  0  0  2  0  0  0  0  0  0
  181.1520  177.8600  140.6990 C   0  0  0  0  0  2  0  0  0  0  0  0
  185.6220  178.8090  141.9190 C   0  0  0  0  0  0  0  0  0  0  0  0
  185.3320  178.6160  144.6990 C   0  0  0  0  0  0  0  0  0  0  0  0
  184.7060  179.6510  144.0010 C   0  0  0  0  0  3  0  0  0  0  0  0
  184.8530  179.7490  142.6140 C   0  0  0  0  0  3  0  0  0  0  0  0
  186.1070  177.6770  144.0130 C   0  0  0  0  0  3  0  0  0  0  0  0
  186.2550  177.7730  142.6260 C   0  0  0  0  0  3  0  0  0  0  0  0
  185.0600  178.4370  147.2720 N   0  0  0  0  0  0  0  0  0  0  0  0
  185.1810  178.5160  146.1240 C   0  0  0  0  0  0  0  0  0  0  0  0
  179.8760  179.9120  140.0610 C   0  0  0  0  0  2  0  0  0  0  0  0
  179.4710  179.8590  141.3950 O   0  0  0  0  0  1  0  0  0  0  0  0
  188.2560  177.5820  137.9040 C   0  0  1  0  0  3  0  0  0  0  0  0
  189.0650  178.6750  137.2300 C   0  0  0  0  0  1  0  0  0  0  0  0
  189.3050  176.5730  139.0110 S   0  0  0  0  0  0  0  0  0  0  0  0
  190.2810  175.8900  137.6380 C   0  0  2  0  0  3  0  0  0  0  0  0
  189.5040  174.7570  136.9950 C   0  0  0  0  0  1  0  0  0  0  0  0
  191.5510  175.3900  138.1410 N   0  0  0  0  0  2  0  0  0  0  0  0
  192.9430  175.8050  136.3250 O   0  0  0  0  0  1  0  0  0  0  0  0
  192.6040  176.2390  137.6050 C   0  0  0  0  0  3  0  0  0  0  0  0
  193.7280  176.1720  138.4300 O   0  0  0  0  0  1  0  0  0  0  0  0
  180.1060  179.1770  137.1490 C   0  0  0  0  0  2  0  0  0  0  0  0
  180.7580  181.2300  136.6690 C   0  0  0  0  0  1  0  0  0  0  0  0
  180.8220  179.9170  136.2040 O   0  0  0  0  0  0  0  0  0  0  0  0
  3  2  1  6  0  0  0
  3 17  1  0  0  0  0
  3  5  1  0  0  0  0
  4  9  1  0  0  0  0
  4  8  1  0  0  0  0
  5 12  1  0  0  0  0
  6 12  1  0  0  0  0
  6 10  1  0  0  0  0
  7  5  1  0  0  0  0
  7 14  1  0  0  0  0
  8  6  1  0  0  0  0
  9 13  1  0  0  0  0
 11  3  1  0  0  0  0
 12 16  1  0  0  0  0
 13 27  1  0  0  0  0
 13 18  1  0  0  0  0
 14 16  1  0  0  0  0
 14  1  1  0  0  0  0
 15  6  1  0  0  0  0
 15 12  1  0  0  0  0
 16 19  1  0  0  0  0
 17  8  1  0  0  0  0
 18 10  1  0  0  0  0
 19 22  2  0  0  0  0
 19 24  1  0  0  0  0
 20 26  1  0  0  0  0
 21 20  2  0  0  0  0
 22 21  1  0  0  0  0
 23 20  1  0  0  0  0
 24 23  2  0  0  0  0
 26 25  3  0  0  0  0
 27 28  1  0  0  0  0
 29  7  1  0  0  0  0
 29 31  1  0  0  0  0
 30 29  1  0  0  0  0
 32 34  1  0  0  0  0
 32 31  1  0  0  0  0
 33 32  1  0  0  0  0
 35 36  1  0  0  0  0
 36 34  1  0  0  0  0
 36 37  1  0  0  0  0
 38  9  1  0  0  0  0
 40 39  1  0  0  0  0
 40 38  1  0  0  0  0
M  END
>  <MODEL>
2

>  <REMARK>
 VINA RESULT:      -5.8      1.552      1.801
  Name = 
  10 active torsions:
  status: ('A' for Active; 'I' for Inactive)
    1  A    between atoms: C_7  and  C_21
    2  A    between atoms: C_9  and  C_20
    3  A    between atoms: C_10  and  C_30
    4  A    between atoms: C_14  and  N_29
    5  A    between atoms: C_14  and  S_32
    6  A    between atoms: C_16  and  C_36
    7  A    between atoms: O_19  and  C_30
    8  A    between atoms: C_21  and  S_32
    9  A    between atoms: C_22  and  C_40
   10  A    between atoms: C_24  and  N_29
                            x       y       z     vdW  Elec       q    Type
                         _______ _______ _______ _____ _____    ______ ____

>  <TORSDO>
F 10

$$$$
=
 OpenBabel11042413053D

 40 44  0  0  1  0  0  0  0  0999 V2000
  183.7590  179.6950  138.4480 C   0  0  0  0  0  1  0  0  0  0  0  0
  178.9310  178.3450  137.2320 C   0  0  0  0  0  1  0  0  0  0  0  0
  179.9340  177.2210  137.3920 C   0  0  1  0  0  0  0  0  0  0  0  0
  180.2520  173.9020  136.3780 C   0  0  0  0  0  2  0  0  0  0  0  0
  181.3540  177.7970  137.5770 C   0  0  1  0  0  3  0  0  0  0  0  0
  182.2640  175.4950  136.7660 C   0  0  1  0  0  0  0  0  0  0  0  0
  181.6950  178.4910  138.8920 C   0  0  1  0  0  3  0  0  0  0  0  0
  180.9240  175.2400  136.0380 C   0  0  2  0  0  3  0  0  0  0  0  0
  181.1720  172.8440  137.0070 C   0  0  2  0  0  3  0  0  0  0  0  0
  183.4880  174.6390  136.4400 C   0  0  0  0  0  2  0  0  0  0  0  0
  179.5540  176.4350  138.4830 O   0  0  0  0  0  1  0  0  0  0  0  0
  182.4520  176.7640  137.5240 C   0  0  2  0  0  0  0  0  0  0  0  0
  182.3360  172.3750  136.1070 C   0  0  1  0  0  3  0  0  0  0  0  0
  183.1730  178.4920  139.0460 N   0  0  0  0  0  0  0  0  0  0  0  0
  182.0510  175.5590  138.1480 O   0  0  0  0  0  0  0  0  0  0  0  0
  183.6220  177.2590  138.3480 C   0  0  2  0  0  3  0  0  0  0  0  0
  179.9050  176.3930  136.0990 C   0  0  0  0  0  2  0  0  0  0  0  0
  183.1410  173.5150  135.4630 C   0  0  0  0  0  2  0  0  0  0  0  0
  184.9320  177.3350  137.6000 C   0  0  0  0  0  0  0  0  0  0  0  0
  187.3320  177.4580  136.1590 C   0  0  0  0  0  0  0  0  0  0  0  0
  186.1090  177.4720  135.4830 C   0  0  0  0  0  3  0  0  0  0  0  0
  184.9120  177.4080  136.2020 C   0  0  0  0  0  3  0  0  0  0  0  0
  187.3600  177.3790  137.5540 C   0  0  0  0  0  3  0  0  0  0  0  0
  186.1640  177.3150  138.2740 C   0  0  0  0  0  3  0  0  0  0  0  0
  189.5520  177.5750  134.8240 N   0  0  0  0  0  0  0  0  0  0  0  0
  188.5620  177.5230  135.4200 C   0  0  0  0  0  0  0  0  0  0  0  0
  183.2770  171.4670  136.8890 C   0  0  0  0  0  2  0  0  0  0  0  0
  183.5580  170.3170  136.1510 O   0  0  0  0  0  1  0  0  0  0  0  0
  180.9430  179.8050  139.1980 C   0  0  1  0  0  3  0  0  0  0  0  0
  180.5800  179.9110  140.6680 C   0  0  0  0  0  1  0  0  0  0  0  0
  181.8000  181.3140  138.6230 S   0  0  0  0  0  0  0  0  0  0  0  0
  180.3850  181.8650  137.6240 C   0  0  2  0  0  3  0  0  0  0  0  0
  180.6340  181.5040  136.1730 C   0  0  0  0  0  1  0  0  0  0  0  0
  180.2270  183.3060  137.7510 N   0  0  0  0  0  2  0  0  0  0  0  0
  182.1270  184.5870  137.3610 O   0  0  0  0  0  1  0  0  0  0  0  0
  181.0640  183.9330  136.7410 C   0  0  0  0  0  3  0  0  0  0  0  0
  180.3130  184.8570  136.0140 O   0  0  0  0  0  1  0  0  0  0  0  0
  180.3320  171.6660  137.4930 C   0  0  0  0  0  2  0  0  0  0  0  0
  179.1800  170.3880  136.1100 C   0  0  0  0  0  1  0  0  0  0  0  0
  179.1220  171.6000  136.7960 O   0  0  0  0  0  0  0  0  0  0  0  0
  1 14  1  0  0  0  0
  3  2  1  6  0  0  0
  3  5  1  0  0  0  0
  3 11  1  0  0  0  0
  4  9  1  0  0  0  0
  5  7  1  0  0  0  0
  6 12  1  0  0  0  0
  6 15  1  0  0  0  0
  7 14  1  0  0  0  0
  7 29  1  0  0  0  0
  8 17  1  0  0  0  0
  8  4  1  0  0  0  0
  8  6  1  0  0  0  0
  9 38  1  0  0  0  0
 10  6  1  0  0  0  0
 12  5  1  0  0  0  0
 12 15  1  0  0  0  0
 12 16  1  0  0  0  0
 13 27  1  0  0  0  0
 13  9  1  0  0  0  0
 16 14  1  0  0  0  0
 17  3  1  0  0  0  0
 18 13  1  0  0  0  0
 18 10  1  0  0  0  0
 19 24  1  0  0  0  0
 19 16  1  0  0  0  0
 20 23  1  0  0  0  0
 21 20  2  0  0  0  0
 21 22  1  0  0  0  0
 22 19  2  0  0  0  0
 23 24  2  0  0  0  0
 25 26  3  0  0  0  0
 26 20  1  0  0  0  0
 28 27  1  0  0  0  0
 29 30  1  0  0  0  0
 31 29  1  0  0  0  0
 32 34  1  0  0  0  0
 32 31  1  0  0  0  0
 33 32  1  0  0  0  0
 36 35  1  0  0  0  0
 36 34  1  0  0  0  0
 37 36  1  0  0  0  0
 39 40  1  0  0  0  0
 40 38  1  0  0  0  0
M  END
>  <MODEL>
3

>  <REMARK>
 VINA RESULT:      -4.8      4.249      8.212
  Name = 
  10 active torsions:
  status: ('A' for Active; 'I' for Inactive)
    1  A    between atoms: C_7  and  C_21
    2  A    between atoms: C_9  and  C_20
    3  A    between atoms: C_10  and  C_30
    4  A    between atoms: C_14  and  N_29
    5  A    between atoms: C_14  and  S_32
    6  A    between atoms: C_16  and  C_36
    7  A    between atoms: O_19  and  C_30
    8  A    between atoms: C_21  and  S_32
    9  A    between atoms: C_22  and  C_40
   10  A    between atoms: C_24  and  N_29
                            x       y       z     vdW  Elec       q    Type
                         _______ _______ _______ _____ _____    ______ ____

>  <TORSDO>
F 10

$$$$
=
 OpenBabel11042413053D

 40 44  0  0  1  0  0  0  0  0999 V2000
  182.1150  180.4350  139.4420 C   0  0  0  0  0  1  0  0  0  0  0  0
  180.3570  179.4250  134.6980 C   0  0  0  0  0  1  0  0  0  0  0  0
  180.9490  178.2630  135.4680 C   0  0  1  0  0  0  0  0  0  0  0  0
  182.3040  175.1330  134.7510 C   0  0  0  0  0  2  0  0  0  0  0  0
  181.5830  178.7640  136.7830 C   0  0  1  0  0  3  0  0  0  0  0  0
  183.0200  176.5900  136.7770 C   0  0  1  0  0  0  0  0  0  0  0  0
  180.6640  179.2350  137.9040 C   0  0  1  0  0  3  0  0  0  0  0  0
  182.8300  176.4890  135.2460 C   0  0  2  0  0  3  0  0  0  0  0  0
  182.4650  173.9650  135.7380 C   0  0  2  0  0  3  0  0  0  0  0  0
  184.1000  175.7610  137.4720 C   0  0  0  0  0  2  0  0  0  0  0  0
  179.9380  177.3280  135.7110 O   0  0  0  0  0  1  0  0  0  0  0  0
  182.3900  177.7210  137.5160 C   0  0  2  0  0  0  0  0  0  0  0  0
  183.9240  173.6090  136.0920 C   0  0  1  0  0  3  0  0  0  0  0  0
  181.4200  179.1720  139.1820 N   0  0  0  0  0  0  0  0  0  0  0  0
  181.7850  176.4450  137.4210 O   0  0  0  0  0  0  0  0  0  0  0  0
  182.3760  178.0490  138.9940 C   0  0  2  0  0  3  0  0  0  0  0  0
  182.0510  177.6460  134.5940 C   0  0  0  0  0  2  0  0  0  0  0  0
  184.7930  174.8120  136.4930 C   0  0  0  0  0  2  0  0  0  0  0  0
  183.7430  178.2040  139.6180 C   0  0  0  0  0  0  0  0  0  0  0  0
  186.2520  178.5020  140.8300 C   0  0  0  0  0  0  0  0  0  0  0  0
  185.1300  178.2050  141.6080 C   0  0  0  0  0  3  0  0  0  0  0  0
  183.8780  178.0580  141.0030 C   0  0  0  0  0  3  0  0  0  0  0  0
  186.1240  178.6550  139.4470 C   0  0  0  0  0  3  0  0  0  0  0  0
  184.8730  178.5090  138.8410 C   0  0  0  0  0  3  0  0  0  0  0  0
  188.5740  178.7740  141.9530 N   0  0  0  0  0  0  0  0  0  0  0  0
  187.5370  178.6530  141.4520 C   0  0  0  0  0  0  0  0  0  0  0  0
  183.9590  172.5650  137.2020 C   0  0  0  0  0  2  0  0  0  0  0  0
  185.1500  172.6700  137.9210 O   0  0  0  0  0  1  0  0  0  0  0  0
  179.8300  180.5070  137.6300 C   0  0  1  0  0  3  0  0  0  0  0  0
  178.9310  180.8490  138.8040 C   0  0  0  0  0  1  0  0  0  0  0  0
  180.8170  181.9570  137.1130 S   0  0  0  0  0  0  0  0  0  0  0  0
  179.3490  182.9200  136.6440 C   0  0  2  0  0  3  0  0  0  0  0  0
  179.5240  183.4280  135.2260 C   0  0  0  0  0  1  0  0  0  0  0  0
  179.1920  184.0470  137.5510 N   0  0  0  0  0  2  0  0  0  0  0  0
  181.1800  185.2520  137.5880 O   0  0  0  0  0  1  0  0  0  0  0  0
  179.9240  185.1720  136.9900 C   0  0  0  0  0  3  0  0  0  0  0  0
  179.2220  186.3550  137.2270 O   0  0  0  0  0  1  0  0  0  0  0  0
  181.7050  172.7500  135.2120 C   0  0  0  0  0  2  0  0  0  0  0  0
  180.1070  173.3240  136.6210 C   0  0  0  0  0  1  0  0  0  0  0  0
  180.8600  172.2300  136.1950 O   0  0  0  0  0  0  0  0  0  0  0  0
  3  2  1  6  0  0  0
  3 11  1  0  0  0  0
  3  5  1  0  0  0  0
  4  8  1  0  0  0  0
  4  9  1  0  0  0  0
  5 12  1  0  0  0  0
  5  7  1  0  0  0  0
  6 15  1  0  0  0  0
  6 10  1  0  0  0  0
  6 12  1  0  0  0  0
  7 14  1  0  0  0  0
  8  6  1  0  0  0  0
  9 13  1  0  0  0  0
 12 16  1  0  0  0  0
 13 18  1  0  0  0  0
 13 27  1  0  0  0  0
 14  1  1  0  0  0  0
 15 12  1  0  0  0  0
 16 14  1  0  0  0  0
 16 19  1  0  0  0  0
 17  8  1  0  0  0  0
 17  3  1  0  0  0  0
 18 10  1  0  0  0  0
 19 22  1  0  0  0  0
 20 26  1  0  0  0  0
 20 21  1  0  0  0  0
 22 21  2  0  0  0  0
 23 20  2  0  0  0  0
 24 23  1  0  0  0  0
 24 19  2  0  0  0  0
 26 25  3  0  0  0  0
 27 28  1  0  0  0  0
 29  7  1  0  0  0  0
 29 30  1  0  0  0  0
 31 29  1  0  0  0  0
 32 31  1  0  0  0  0
 32 34  1  0  0  0  0
 33 32  1  0  0  0  0
 36 37  1  0  0  0  0
 36 34  1  0  0  0  0
 36 35  1  0  0  0  0
 38  9  1  0  0  0  0
 38 40  1  0  0  0  0
 40 39  1  0  0  0  0
M  END
>  <MODEL>
4

>  <REMARK>
 VINA RESULT:      -4.8      3.735      7.773
  Name = 
  10 active torsions:
  status: ('A' for Active; 'I' for Inactive)
    1  A    between atoms: C_7  and  C_21
    2  A    between atoms: C_9  and  C_20
    3  A    between atoms: C_10  and  C_30
    4  A    between atoms: C_14  and  N_29
    5  A    between atoms: C_14  and  S_32
    6  A    between atoms: C_16  and  C_36
    7  A    between atoms: O_19  and  C_30
    8  A    between atoms: C_21  and  S_32
    9  A    between atoms: C_22  and  C_40
   10  A    between atoms: C_24  and  N_29
                            x       y       z     vdW  Elec       q    Type
                         _______ _______ _______ _____ _____    ______ ____

>  <TORSDO>
F 10

$$$$
=
 OpenBabel11042413053D

 40 44  0  0  1  0  0  0  0  0999 V2000
  189.9710  173.7740  134.7390 C   0  0  0  0  0  1  0  0  0  0  0  0
  194.3250  175.6020  136.8150 C   0  0  0  0  0  1  0  0  0  0  0  0
  193.0910  175.6180  137.6940 C   0  0  1  0  0  0  0  0  0  0  0  0
  191.9880  177.3000  140.5390 C   0  0  0  0  0  2  0  0  0  0  0  0
  191.8490  175.2090  136.8740 C   0  0  1  0  0  3  0  0  0  0  0  0
  190.4100  176.4300  138.6700 C   0  0  1  0  0  0  0  0  0  0  0  0
  191.7080  173.7540  136.4400 C   0  0  1  0  0  3  0  0  0  0  0  0
  191.6380  177.2920  139.0440 C   0  0  2  0  0  3  0  0  0  0  0  0
  190.8590  176.8490  141.4810 C   0  0  2  0  0  3  0  0  0  0  0  0
  189.0140  176.8440  139.1350 C   0  0  0  0  0  2  0  0  0  0  0  0
  193.3010  174.7530  138.7720 O   0  0  0  0  0  1  0  0  0  0  0  0
  190.5400  175.4040  137.5970 C   0  0  2  0  0  0  0  0  0  0  0  0
  189.6000  177.7430  141.4620 C   0  0  1  0  0  3  0  0  0  0  0  0
  190.2740  173.4950  136.1450 N   0  0  0  0  0  0  0  0  0  0  0  0
  190.6610  175.0870  138.9710 O   0  0  0  0  0  0  0  0  0  0  0  0
  189.5350  174.4080  137.0560 C   0  0  2  0  0  3  0  0  0  0  0  0
  192.9000  177.0580  138.1910 C   0  0  0  0  0  2  0  0  0  0  0  0
  189.0690  178.0640  140.0550 C   0  0  0  0  0  2  0  0  0  0  0  0
  188.2630  175.0250  136.5220 C   0  0  0  0  0  0  0  0  0  0  0  0
  185.9350  176.2230  135.5230 C   0  0  0  0  0  0  0  0  0  0  0  0
  187.1840  176.7890  135.2530 C   0  0  0  0  0  3  0  0  0  0  0  0
  188.3460  176.1920  135.7530 C   0  0  0  0  0  3  0  0  0  0  0  0
  185.8460  175.0610  136.2950 C   0  0  0  0  0  3  0  0  0  0  0  0
  187.0050  174.4640  136.7960 C   0  0  0  0  0  3  0  0  0  0  0  0
  183.7820  177.3310  134.5950 N   0  0  0  0  0  0  0  0  0  0  0  0
  184.7430  176.8360  135.0090 C   0  0  0  0  0  0  0  0  0  0  0  0
  188.4900  177.1090  142.2920 C   0  0  0  0  0  2  0  0  0  0  0  0
  187.8290  178.0870  143.0360 O   0  0  0  0  0  1  0  0  0  0  0  0
  192.7510  173.2250  135.4310 C   0  0  1  0  0  3  0  0  0  0  0  0
  193.6140  174.3470  134.8810 C   0  0  0  0  0  1  0  0  0  0  0  0
  193.7800  171.8520  136.0620 S   0  0  0  0  0  0  0  0  0  0  0  0
  195.3240  172.5840  135.4410 C   0  0  2  0  0  3  0  0  0  0  0  0
  196.0530  171.5580  134.5960 C   0  0  0  0  0  1  0  0  0  0  0  0
  196.1630  172.9810  136.5620 N   0  0  0  0  0  2  0  0  0  0  0  0
  195.7510  173.0060  138.8500 O   0  0  0  0  0  1  0  0  0  0  0  0
  195.7580  172.1950  137.7170 C   0  0  0  0  0  3  0  0  0  0  0  0
  196.6550  171.1420  137.9080 O   0  0  0  0  0  1  0  0  0  0  0  0
  191.4120  176.6930  142.8950 C   0  0  0  0  0  2  0  0  0  0  0  0
  191.5530  177.6270  144.8900 C   0  0  0  0  0  1  0  0  0  0  0  0
  191.5020  177.9340  143.5310 O   0  0  0  0  0  0  0  0  0  0  0  0
  1 14  1  0  0  0  0
  3  2  1  6  0  0  0
  3 17  1  0  0  0  0
  3 11  1  0  0  0  0
  4  9  1  0  0  0  0
  5 12  1  0  0  0  0
  5  3  1  0  0  0  0
  6 15  1  0  0  0  0
  6  8  1  0  0  0  0
  6 10  1  0  0  0  0
  7  5  1  0  0  0  0
  8  4  1  0  0  0  0
  9 38  1  0  0  0  0
 10 18  1  0  0  0  0
 12  6  1  0  0  0  0
 12 15  1  0  0  0  0
 13  9  1  0  0  0  0
 13 27  1  0  0  0  0
 14  7  1  0  0  0  0
 14 16  1  0  0  0  0
 16 12  1  0  0  0  0
 17  8  1  0  0  0  0
 18 13  1  0  0  0  0
 19 24  1  0  0  0  0
 19 16  1  0  0  0  0
 20 23  1  0  0  0  0
 21 20  2  0  0  0  0
 21 22  1  0  0  0  0
 22 19  2  0  0  0  0
 23 24  2  0  0  0  0
 25 26  3  0  0  0  0
 26 20  1  0  0  0  0
 27 28  1  0  0  0  0
 29 31  1  0  0  0  0
 29  7  1  0  0  0  0
 30 29  1  0  0  0  0
 32 31  1  0  0  0  0
 32 34  1  0  0  0  0
 33 32  1  0  0  0  0
 34 36  1  0  0  0  0
 36 37  1  0  0  0  0
 36 35  1  0  0  0  0
 38 40  1  0  0  0  0
 40 39  1  0  0  0  0
M  END
>  <MODEL>
5

>  <REMARK>
 VINA RESULT:      -4.7      5.687      9.249
  Name = 
  10 active torsions:
  status: ('A' for Active; 'I' for Inactive)
    1  A    between atoms: C_7  and  C_21
    2  A    between atoms: C_9  and  C_20
    3  A    between atoms: C_10  and  C_30
    4  A    between atoms: C_14  and  N_29
    5  A    between atoms: C_14  and  S_32
    6  A    between atoms: C_16  and  C_36
    7  A    between atoms: O_19  and  C_30
    8  A    between atoms: C_21  and  S_32
    9  A    between atoms: C_22  and  C_40
   10  A    between atoms: C_24  and  N_29
                            x       y       z     vdW  Elec       q    Type
                         _______ _______ _______ _____ _____    ______ ____

>  <TORSDO>
F 10

$$$$
=
 OpenBabel11042413053D

 40 44  0  0  1  0  0  0  0  0999 V2000
  184.9850  178.1650  137.8170 C   0  0  0  0  0  1  0  0  0  0  0  0
  183.9080  178.1940  142.8620 C   0  0  0  0  0  1  0  0  0  0  0  0
  185.3700  178.2870  142.4760 C   0  0  1  0  0  0  0  0  0  0  0  0
  188.4620  177.6850  143.9670 C   0  0  0  0  0  2  0  0  0  0  0  0
  185.5320  178.0870  140.9530 C   0  0  1  0  0  3  0  0  0  0  0  0
  188.0050  177.4190  141.4250 C   0  0  1  0  0  0  0  0  0  0  0  0
  185.0580  179.1940  140.0180 C   0  0  1  0  0  3  0  0  0  0  0  0
  187.6080  177.0330  142.8690 C   0  0  2  0  0  3  0  0  0  0  0  0
  189.8180  178.2420  143.5040 C   0  0  2  0  0  3  0  0  0  0  0  0
  189.3450  176.9590  140.8500 C   0  0  0  0  0  2  0  0  0  0  0  0
  185.8610  179.5300  142.8840 O   0  0  0  0  0  1  0  0  0  0  0  0
  186.9630  177.9420  140.4980 C   0  0  2  0  0  0  0  0  0  0  0  0
  190.7990  177.1860  142.9480 C   0  0  1  0  0  3  0  0  0  0  0  0
  185.7540  179.0300  138.7150 N   0  0  0  0  0  0  0  0  0  0  0  0
  187.8230  178.7930  141.2320 O   0  0  0  0  0  0  0  0  0  0  0  0
  187.0660  178.4250  139.0670 C   0  0  2  0  0  3  0  0  0  0  0  0
  186.1090  177.1530  143.2010 C   0  0  0  0  0  2  0  0  0  0  0  0
  190.1880  176.2390  141.9030 C   0  0  0  0  0  2  0  0  0  0  0  0
  187.6330  177.4120  138.1000 C   0  0  0  0  0  0  0  0  0  0  0  0
  188.7160  175.5800  136.2770 C   0  0  0  0  0  0  0  0  0  0  0  0
  189.3270  176.8220  136.4670 C   0  0  0  0  0  3  0  0  0  0  0  0
  188.7850  177.7380  137.3750 C   0  0  0  0  0  3  0  0  0  0  0  0
  187.5620  175.2520  136.9930 C   0  0  0  0  0  3  0  0  0  0  0  0
  187.0190  176.1650  137.9010 C   0  0  0  0  0  3  0  0  0  0  0  0
  189.7220  173.8830  134.5940 N   0  0  0  0  0  0  0  0  0  0  0  0
  189.2730  174.6410  135.3450 C   0  0  0  0  0  0  0  0  0  0  0  0
  192.0290  177.8660  142.3610 C   0  0  0  0  0  2  0  0  0  0  0  0
  192.4440  177.1950  141.2100 O   0  0  0  0  0  1  0  0  0  0  0  0
  183.5390  179.4730  139.9860 C   0  0  1  0  0  3  0  0  0  0  0  0
  183.1790  180.4770  138.9060 C   0  0  0  0  0  1  0  0  0  0  0  0
  182.5000  177.9740  139.8630 S   0  0  0  0  0  0  0  0  0  0  0  0
  180.9500  178.9050  140.0460 C   0  0  2  0  0  3  0  0  0  0  0  0
  180.8100  179.3540  141.4870 C   0  0  0  0  0  1  0  0  0  0  0  0
  179.8240  178.0560  139.6850 N   0  0  0  0  0  2  0  0  0  0  0  0
  179.9380  175.7520  139.3970 O   0  0  0  0  0  1  0  0  0  0  0  0
  180.0090  176.7720  140.3430 C   0  0  0  0  0  3  0  0  0  0  0  0
  179.0110  176.5850  141.3010 O   0  0  0  0  0  1  0  0  0  0  0  0
  190.4480  179.0490  144.6360 C   0  0  0  0  0  2  0  0  0  0  0  0
  191.0100  177.7060  146.2950 C   0  0  0  0  0  1  0  0  0  0  0  0
  190.0090  178.5830  145.8790 O   0  0  0  0  0  0  0  0  0  0  0  0
  1 14  1  0  0  0  0
  3  2  1  1  0  0  0
  3 11  1  0  0  0  0
  3 17  1  0  0  0  0
  5  3  1  0  0  0  0
  6  8  1  0  0  0  0
  7  5  1  0  0  0  0
  8 17  1  0  0  0  0
  8  4  1  0  0  0  0
  9  4  1  0  0  0  0
  9 38  1  0  0  0  0
 10  6  1  0  0  0  0
 10 18  1  0  0  0  0
 12  5  1  0  0  0  0
 12 15  1  0  0  0  0
 12  6  1  0  0  0  0
 13  9  1  0  0  0  0
 14 16  1  0  0  0  0
 14  7  1  0  0  0  0
 15  6  1  0  0  0  0
 16 12  1  0  0  0  0
 18 13  1  0  0  0  0
 19 16  1  0  0  0  0
 20 21  2  0  0  0  0
 20 23  1  0  0  0  0
 21 22  1  0  0  0  0
 22 19  2  0  0  0  0
 23 24  2  0  0  0  0
 24 19  1  0  0  0  0
 25 26  3  0  0  0  0
 26 20  1  0  0  0  0
 27 13  1  0  0  0  0
 28 27  1  0  0  0  0
 29  7  1  0  0  0  0
 30 29  1  0  0  0  0
 31 29  1  0  0  0  0
 31 32  1  0  0  0  0
 32 33  1  0  0  0  0
 34 32  1  0  0  0  0
 34 36  1  0  0  0  0
 35 36  1  0  0  0  0
 36 37  1  0  0  0  0
 38 40  1  0  0  0  0
 40 39  1  0  0  0  0
M  END
>  <MODEL>
6

>  <REMARK>
 VINA RESULT:      -4.6      3.014      8.732
  Name = 
  10 active torsions:
  status: ('A' for Active; 'I' for Inactive)
    1  A    between atoms: C_7  and  C_21
    2  A    between atoms: C_9  and  C_20
    3  A    between atoms: C_10  and  C_30
    4  A    between atoms: C_14  and  N_29
    5  A    between atoms: C_14  and  S_32
    6  A    between atoms: C_16  and  C_36
    7  A    between atoms: O_19  and  C_30
    8  A    between atoms: C_21  and  S_32
    9  A    between atoms: C_22  and  C_40
   10  A    between atoms: C_24  and  N_29
                            x       y       z     vdW  Elec       q    Type
                         _______ _______ _______ _____ _____    ______ ____

>  <TORSDO>
F 10

$$$$
=
 OpenBabel11042413053D

 40 44  0  0  1  0  0  0  0  0999 V2000
  186.2350  178.1350  138.1530 C   0  0  0  0  0  1  0  0  0  0  0  0
  183.8540  177.9820  142.7260 C   0  0  0  0  0  1  0  0  0  0  0  0
  185.3670  178.0680  142.7470 C   0  0  1  0  0  0  0  0  0  0  0  0
  187.9470  177.3620  144.9800 C   0  0  0  0  0  2  0  0  0  0  0  0
  185.9270  177.9260  141.3160 C   0  0  1  0  0  3  0  0  0  0  0  0
  188.1830  177.2030  142.4000 C   0  0  1  0  0  0  0  0  0  0  0  0
  185.7240  179.0760  140.3350 C   0  0  1  0  0  3  0  0  0  0  0  0
  187.4140  176.7660  143.6690 C   0  0  2  0  0  3  0  0  0  0  0  0
  189.3800  177.9160  144.9180 C   0  0  2  0  0  3  0  0  0  0  0  0
  189.6250  176.7450  142.1830 C   0  0  0  0  0  2  0  0  0  0  0  0
  185.7360  179.2860  143.3230 O   0  0  0  0  0  1  0  0  0  0  0  0
  187.4270  177.7780  141.2510 C   0  0  2  0  0  0  0  0  0  0  0  0
  190.4690  176.8680  144.5990 C   0  0  1  0  0  3  0  0  0  0  0  0
  186.7410  178.9520  139.2580 N   0  0  0  0  0  0  0  0  0  0  0  0
  188.0640  178.5860  142.2230 O   0  0  0  0  0  0  0  0  0  0  0  0
  187.9100  178.3150  139.9200 C   0  0  2  0  0  3  0  0  0  0  0  0
  185.8820  176.8960  143.5950 C   0  0  0  0  0  2  0  0  0  0  0  0
  190.1550  175.9720  143.3910 C   0  0  0  0  0  2  0  0  0  0  0  0
  188.7100  177.3320  139.0980 C   0  0  0  0  0  0  0  0  0  0  0  0
  190.2420  175.5500  137.5720 C   0  0  0  0  0  0  0  0  0  0  0  0
  190.8690  176.5570  138.3100 C   0  0  0  0  0  3  0  0  0  0  0  0
  190.1040  177.4470  139.0700 C   0  0  0  0  0  3  0  0  0  0  0  0
  188.8490  175.4340  137.5890 C   0  0  0  0  0  3  0  0  0  0  0  0
  188.0830  176.3230  138.3480 C   0  0  0  0  0  3  0  0  0  0  0  0
  191.6620  173.8990  136.1640 N   0  0  0  0  0  0  0  0  0  0  0  0
  191.0280  174.6360  136.7920 C   0  0  0  0  0  0  0  0  0  0  0  0
  191.8150  177.5520  144.3890 C   0  0  0  0  0  2  0  0  0  0  0  0
  191.6370  178.7630  143.7190 O   0  0  0  0  0  1  0  0  0  0  0  0
  184.2700  179.3790  139.9120 C   0  0  1  0  0  3  0  0  0  0  0  0
  184.2090  180.4830  138.8720 C   0  0  0  0  0  1  0  0  0  0  0  0
  183.3220  177.9120  139.3710 S   0  0  0  0  0  0  0  0  0  0  0  0
  181.7160  178.7210  139.6370 C   0  0  2  0  0  3  0  0  0  0  0  0
  180.9020  177.8940  140.6130 C   0  0  0  0  0  1  0  0  0  0  0  0
  181.0040  178.8260  138.3720 N   0  0  0  0  0  2  0  0  0  0  0  0
  181.1270  180.8000  137.1510 O   0  0  0  0  0  1  0  0  0  0  0  0
  180.5220  180.1920  138.2490 C   0  0  0  0  0  3  0  0  0  0  0  0
  180.8350  180.9090  139.4050 O   0  0  0  0  0  1  0  0  0  0  0  0
  189.6890  178.6680  146.2090 C   0  0  0  0  0  2  0  0  0  0  0  0
  189.0260  178.3340  148.2880 C   0  0  0  0  0  1  0  0  0  0  0  0
  189.8160  177.7800  147.2810 O   0  0  0  0  0  0  0  0  0  0  0  0
  1 14  1  0  0  0  0
  3  2  1  6  0  0  0
  3 11  1  0  0  0  0
  3 17  1  0  0  0  0
  5  3  1  0  0  0  0
  6  8  1  0  0  0  0
  7  5  1  0  0  0  0
  8  4  1  0  0  0  0
  9  4  1  0  0  0  0
  9 38  1  0  0  0  0
 10  6  1  0  0  0  0
 10 18  1  0  0  0  0
 12  5  1  0  0  0  0
 12 15  1  0  0  0  0
 12  6  1  0  0  0  0
 13  9  1  0  0  0  0
 14 16  1  0  0  0  0
 14  7  1  0  0  0  0
 15  6  1  0  0  0  0
 16 12  1  0  0  0  0
 17  8  1  0  0  0  0
 18 13  1  0  0  0  0
 19 16  1  0  0  0  0
 20 23  2  0  0  0  0
 20 21  1  0  0  0  0
 21 22  2  0  0  0  0
 22 19  1  0  0  0  0
 23 24  1  0  0  0  0
 24 19  2  0  0  0  0
 25 26  3  0  0  0  0
 26 20  1  0  0  0  0
 27 13  1  0  0  0  0
 28 27  1  0  0  0  0
 29  7  1  0  0  0  0
 30 29  1  0  0  0  0
 31 32  1  0  0  0  0
 31 29  1  0  0  0  0
 32 33  1  0  0  0  0
 34 32  1  0  0  0  0
 35 36  1  0  0  0  0
 36 34  1  0  0  0  0
 36 37  1  0  0  0  0
 38 40  1  0  0  0  0
 40 39  1  0  0  0  0
M  END
>  <MODEL>
7

>  <REMARK>
 VINA RESULT:      -4.5      2.926      8.511
  Name = 
  10 active torsions:
  status: ('A' for Active; 'I' for Inactive)
    1  A    between atoms: C_7  and  C_21
    2  A    between atoms: C_9  and  C_20
    3  A    between atoms: C_10  and  C_30
    4  A    between atoms: C_14  and  N_29
    5  A    between atoms: C_14  and  S_32
    6  A    between atoms: C_16  and  C_36
    7  A    between atoms: O_19  and  C_30
    8  A    between atoms: C_21  and  S_32
    9  A    between atoms: C_22  and  C_40
   10  A    between atoms: C_24  and  N_29
                            x       y       z     vdW  Elec       q    Type
                         _______ _______ _______ _____ _____    ______ ____

>  <TORSDO>
F 10

$$$$
=
 OpenBabel11042413053D

 40 44  0  0  1  0  0  0  0  0999 V2000
  188.7880  177.3190  139.4830 C   0  0  0  0  0  1  0  0  0  0  0  0
  186.0560  175.3010  135.5990 C   0  0  0  0  0  1  0  0  0  0  0  0
  185.4070  176.4270  136.3770 C   0  0  1  0  0  0  0  0  0  0  0  0
  182.1870  177.6360  136.9380 C   0  0  0  0  0  2  0  0  0  0  0  0
  186.2710  176.7940  137.6030 C   0  0  1  0  0  3  0  0  0  0  0  0
  184.1220  177.8200  138.6600 C   0  0  1  0  0  0  0  0  0  0  0  0
  187.5960  177.5130  137.3730 C   0  0  1  0  0  3  0  0  0  0  0  0
  183.2610  176.9050  137.7570 C   0  0  2  0  0  3  0  0  0  0  0  0
  181.8190  179.0410  137.4410 C   0  0  2  0  0  3  0  0  0  0  0  0
  183.4900  178.5240  139.8600 C   0  0  0  0  0  2  0  0  0  0  0  0
  185.2400  177.5210  135.5230 O   0  0  0  0  0  1  0  0  0  0  0  0
  185.6070  177.7510  138.5620 C   0  0  2  0  0  0  0  0  0  0  0  0
  181.2000  179.0850  138.8550 C   0  0  1  0  0  3  0  0  0  0  0  0
  187.9770  178.1980  138.6360 N   0  0  0  0  0  0  0  0  0  0  0  0
  184.8450  178.7230  137.8720 O   0  0  0  0  0  0  0  0  0  0  0  0
  186.6820  178.5380  139.2820 C   0  0  2  0  0  3  0  0  0  0  0  0
  184.0450  175.9190  136.8700 C   0  0  0  0  0  2  0  0  0  0  0  0
  181.9800  178.2900  139.9150 C   0  0  0  0  0  2  0  0  0  0  0  0
  186.6250  178.4490  140.7890 C   0  0  0  0  0  0  0  0  0  0  0  0
  186.5570  178.2320  143.5820 C   0  0  0  0  0  0  0  0  0  0  0  0
  187.5760  177.6100  142.8570 C   0  0  0  0  0  3  0  0  0  0  0  0
  187.6090  177.7160  141.4630 C   0  0  0  0  0  3  0  0  0  0  0  0
  185.5680  178.9600  142.9150 C   0  0  0  0  0  3  0  0  0  0  0  0
  185.5990  179.0670  141.5220 C   0  0  0  0  0  3  0  0  0  0  0  0
  186.4980  178.0350  146.1670 N   0  0  0  0  0  0  0  0  0  0  0  0
  186.5240  178.1230  145.0130 C   0  0  0  0  0  0  0  0  0  0  0  0
  181.0400  180.5280  139.3180 C   0  0  0  0  0  2  0  0  0  0  0  0
  182.0270  181.3280  138.7430 O   0  0  0  0  0  1  0  0  0  0  0  0
  188.6950  176.7230  136.6290 C   0  0  1  0  0  3  0  0  0  0  0  0
  189.6670  177.6500  135.9220 C   0  0  0  0  0  1  0  0  0  0  0  0
  189.5820  175.5070  137.6670 S   0  0  0  0  0  0  0  0  0  0  0  0
  191.1870  175.8560  136.8900 C   0  0  2  0  0  3  0  0  0  0  0  0
  191.6670  174.6130  136.1670 C   0  0  0  0  0  1  0  0  0  0  0  0
  192.1540  176.2340  137.9100 N   0  0  0  0  0  2  0  0  0  0  0  0
  194.2840  175.4340  138.3880 O   0  0  0  0  0  1  0  0  0  0  0  0
  193.4820  175.9670  137.3810 C   0  0  0  0  0  3  0  0  0  0  0  0
  194.0510  177.1540  136.9170 O   0  0  0  0  0  1  0  0  0  0  0  0
  180.9180  179.7260  136.4160 C   0  0  0  0  0  2  0  0  0  0  0  0
  179.1810  179.2690  135.1340 C   0  0  0  0  0  1  0  0  0  0  0  0
  179.6290  179.1880  136.4520 O   0  0  0  0  0  0  0  0  0  0  0  0
  3  2  1  6  0  0  0
  3 17  1  0  0  0  0
  3  5  1  0  0  0  0
  4  9  1  0  0  0  0
  4  8  1  0  0  0  0
  5 12  1  0  0  0  0
  6 10  1  0  0  0  0
  7  5  1  0  0  0  0
  7 14  1  0  0  0  0
  8  6  1  0  0  0  0
  9 13  1  0  0  0  0
 10 18  1  0  0  0  0
 11  3  1  0  0  0  0
 12  6  1  0  0  0  0
 12 16  1  0  0  0  0
 13 27  1  0  0  0  0
 13 18  1  0  0  0  0
 14 16  1  0  0  0  0
 14  1  1  0  0  0  0
 15 12  1  0  0  0  0
 15  6  1  0  0  0  0
 16 19  1  0  0  0  0
 17  8  1  0  0  0  0
 19 22  2  0  0  0  0
 19 24  1  0  0  0  0
 20 26  1  0  0  0  0
 21 20  2  0  0  0  0
 22 21  1  0  0  0  0
 23 20  1  0  0  0  0
 24 23  2  0  0  0  0
 26 25  3  0  0  0  0
 28 27  1  0  0  0  0
 29  7  1  0  0  0  0
 29 31  1  0  0  0  0
 30 29  1  0  0  0  0
 32 31  1  0  0  0  0
 32 34  1  0  0  0  0
 33 32  1  0  0  0  0
 36 34  1  0  0  0  0
 36 35  1  0  0  0  0
 37 36  1  0  0  0  0
 38 40  1  0  0  0  0
 38  9  1  0  0  0  0
 39 40  1  0  0  0  0
M  END
>  <MODEL>
8

>  <REMARK>
 VINA RESULT:      -4.4      1.988      2.787
  Name = 
  10 active torsions:
  status: ('A' for Active; 'I' for Inactive)
    1  A    between atoms: C_7  and  C_21
    2  A    between atoms: C_9  and  C_20
    3  A    between atoms: C_10  and  C_30
    4  A    between atoms: C_14  and  N_29
    5  A    between atoms: C_14  and  S_32
    6  A    between atoms: C_16  and  C_36
    7  A    between atoms: O_19  and  C_30
    8  A    between atoms: C_21  and  S_32
    9  A    between atoms: C_22  and  C_40
   10  A    between atoms: C_24  and  N_29
                            x       y       z     vdW  Elec       q    Type
                         _______ _______ _______ _____ _____    ______ ____

>  <TORSDO>
F 10

$$$$
=
 OpenBabel11042413053D

 40 44  0  0  1  0  0  0  0  0999 V2000
  184.1350  177.6320  136.1780 C   0  0  0  0  0  1  0  0  0  0  0  0
  189.2690  178.1270  136.3020 C   0  0  0  0  0  1  0  0  0  0  0  0
  188.5860  177.7640  137.6050 C   0  0  1  0  0  0  0  0  0  0  0  0
  189.3010  177.9370  141.0120 C   0  0  0  0  0  2  0  0  0  0  0  0
  187.0530  177.8300  137.4390 C   0  0  1  0  0  3  0  0  0  0  0  0
  186.9050  178.1020  140.0260 C   0  0  1  0  0  0  0  0  0  0  0  0
  186.3630  176.7570  136.6030 C   0  0  1  0  0  3  0  0  0  0  0  0
  188.3520  178.6470  140.0350 C   0  0  2  0  0  3  0  0  0  0  0  0
  188.6150  177.1300  142.1260 C   0  0  2  0  0  3  0  0  0  0  0  0
  186.0090  178.2910  141.2500 C   0  0  0  0  0  2  0  0  0  0  0  0
  189.0060  176.4870  137.9880 O   0  0  0  0  0  1  0  0  0  0  0  0
  186.2860  177.7000  138.7320 C   0  0  2  0  0  0  0  0  0  0  0  0
  187.7530  177.9650  143.0980 C   0  0  1  0  0  3  0  0  0  0  0  0
  184.9300  176.7130  136.9970 N   0  0  0  0  0  0  0  0  0  0  0  0
  186.9010  176.7690  139.6020 O   0  0  0  0  0  0  0  0  0  0  0  0
  184.9240  177.1110  138.4290 C   0  0  2  0  0  3  0  0  0  0  0  0
  189.0120  178.8040  138.6520 C   0  0  0  0  0  2  0  0  0  0  0  0
  186.7730  178.9290  142.4110 C   0  0  0  0  0  2  0  0  0  0  0  0
  183.7570  177.9460  138.9020 C   0  0  0  0  0  0  0  0  0  0  0  0
  181.5580  179.4430  139.7820 C   0  0  0  0  0  0  0  0  0  0  0  0
  181.6110  178.0680  140.0250 C   0  0  0  0  0  3  0  0  0  0  0  0
  182.7080  177.3200  139.5840 C   0  0  0  0  0  3  0  0  0  0  0  0
  182.6000  180.0720  139.0960 C   0  0  0  0  0  3  0  0  0  0  0  0
  183.6960  179.3270  138.6540 C   0  0  0  0  0  3  0  0  0  0  0  0
  179.5240  180.8270  140.6010 N   0  0  0  0  0  0  0  0  0  0  0  0
  180.4320  180.2090  140.2360 C   0  0  0  0  0  0  0  0  0  0  0  0
  186.9870  177.0500  144.0450 C   0  0  0  0  0  2  0  0  0  0  0  0
  186.1090  177.7980  144.8290 O   0  0  0  0  0  1  0  0  0  0  0  0
  186.6900  176.7360  135.0940 C   0  0  1  0  0  3  0  0  0  0  0  0
  187.1080  178.1070  134.5940 C   0  0  0  0  0  1  0  0  0  0  0  0
  187.9040  175.4580  134.6040 S   0  0  0  0  0  0  0  0  0  0  0  0
  187.3100  174.2690  135.8440 C   0  0  2  0  0  3  0  0  0  0  0  0
  188.4800  173.4360  136.3290 C   0  0  0  0  0  1  0  0  0  0  0  0
  186.3050  173.4010  135.2480 N   0  0  0  0  0  2  0  0  0  0  0  0
  185.0680  171.8600  136.4730 O   0  0  0  0  0  1  0  0  0  0  0  0
  185.2430  173.2200  136.2250 C   0  0  0  0  0  3  0  0  0  0  0  0
  184.0530  173.7570  135.7320 O   0  0  0  0  0  1  0  0  0  0  0  0
  189.6620  176.3080  142.8730 C   0  0  0  0  0  2  0  0  0  0  0  0
  191.6690  177.0200  143.4500 C   0  0  0  0  0  1  0  0  0  0  0  0
  190.3270  177.0930  143.8180 O   0  0  0  0  0  0  0  0  0  0  0  0
  1 14  1  0  0  0  0
  3  2  1  6  0  0  0
  3 11  1  0  0  0  0
  3 17  1  0  0  0  0
  4  9  1  0  0  0  0
  5  3  1  0  0  0  0
  5 12  1  0  0  0  0
  6  8  1  0  0  0  0
  6 10  1  0  0  0  0
  7 14  1  0  0  0  0
  7  5  1  0  0  0  0
  8  4  1  0  0  0  0
  9 38  1  0  0  0  0
  9 13  1  0  0  0  0
 10 18  1  0  0  0  0
 12 15  1  0  0  0  0
 12  6  1  0  0  0  0
 13 27  1  0  0  0  0
 14 16  1  0  0  0  0
 15  6  1  0  0  0  0
 16 12  1  0  0  0  0
 16 19  1  0  0  0  0
 17  8  1  0  0  0  0
 18 13  1  0  0  0  0
 19 22  1  0  0  0  0
 20 21  1  0  0  0  0
 20 26  1  0  0  0  0
 22 21  2  0  0  0  0
 23 20  2  0  0  0  0
 24 19  2  0  0  0  0
 24 23  1  0  0  0  0
 26 25  3  0  0  0  0
 27 28  1  0  0  0  0
 29  7  1  0  0  0  0
 30 29  1  0  0  0  0
 31 29  1  0  0  0  0
 31 32  1  0  0  0  0
 32 33  1  0  0  0  0
 34 32  1  0  0  0  0
 34 36  1  0  0  0  0
 36 35  1  0  0  0  0
 37 36  1  0  0  0  0
 38 40  1  0  0  0  0
 39 40  1  0  0  0  0
M  END
>  <MODEL>
9

>  <REMARK>
 VINA RESULT:      -4.3      3.263      6.704
  Name = 
  10 active torsions:
  status: ('A' for Active; 'I' for Inactive)
    1  A    between atoms: C_7  and  C_21
    2  A    between atoms: C_9  and  C_20
    3  A    between atoms: C_10  and  C_30
    4  A    between atoms: C_14  and  N_29
    5  A    between atoms: C_14  and  S_32
    6  A    between atoms: C_16  and  C_36
    7  A    between atoms: O_19  and  C_30
    8  A    between atoms: C_21  and  S_32
    9  A    between atoms: C_22  and  C_40
   10  A    between atoms: C_24  and  N_29
                            x       y       z     vdW  Elec       q    Type
                         _______ _______ _______ _____ _____    ______ ____

>  <TORSDO>
F 10

$$$$
