=
 OpenBabel11032419433D

 45 49  0  0  1  0  0  0  0  0999 V2000
  187.4050  178.3040  140.4920 C   0  0  0  0  0  0  0  0  0  0  0  0
  189.3190  177.4520  141.5860 C   0  0  0  0  0  0  0  0  0  0  0  0
  189.9230  177.1450  140.4030 C   0  0  0  0  0  3  0  0  0  0  0  0
  188.0320  178.0010  141.6120 C   0  0  0  0  0  3  0  0  0  0  0  0
  189.2860  177.4510  139.2310 C   0  0  0  0  0  0  0  0  0  0  0  0
  188.0020  177.9960  139.3220 C   0  0  0  0  0  3  0  0  0  0  0  0
  189.9190  177.0820  142.8940 C   0  0  0  0  0  0  0  0  0  0  0  0
  190.8450  176.6650  145.5250 N   0  0  0  0  0  0  0  0  0  0  0  0
  189.1940  177.3490  143.9110 N   0  0  0  0  0  0  0  0  0  0  0  0
  191.2070  176.5430  143.1630 C   0  0  0  0  0  3  0  0  0  0  0  0
  191.6900  176.3350  144.4910 C   0  0  0  0  0  3  0  0  0  0  0  0
  189.6110  177.1610  145.2170 C   0  0  0  0  0  0  0  0  0  0  0  0
  187.2000  177.9430  145.6580 C   0  0  0  0  0  2  0  0  0  0  0  0
  188.7000  177.8580  147.4480 C   0  0  0  0  0  3  0  0  0  0  0  0
  188.4800  177.6210  146.0910 C   0  0  0  0  0  0  0  0  0  0  0  0
  187.7410  178.3830  148.3120 N   0  0  0  0  0  2  0  0  0  0  0  0
  186.1890  178.5010  146.5980 C   0  0  0  0  0  0  0  0  0  0  0  0
  186.5320  178.6840  147.8840 N   0  0  0  0  0  0  0  0  0  0  0  0
  184.8280  179.3690  144.7940 C   0  0  0  0  0  1  0  0  0  0  0  0
  184.9200  178.8320  146.1020 O   0  0  0  0  0  0  0  0  0  0  0  0
  186.1550  179.0070  140.5060 N   0  0  0  0  0  2  0  0  0  0  0  0
  184.7220  178.9060  139.4970 S   0  0  0  0  0  0  0  0  0  0  0  0
  184.3480  180.2880  139.1320 O   0  0  0  0  0  0  0  0  0  0  0  0
  184.9150  178.0670  138.2600 O   0  0  0  0  0  0  0  0  0  0  0  0
  183.9080  177.9130  141.7960 N   0  0  0  0  0  1  0  0  0  0  0  0
  183.3950  178.2070  140.4770 C   0  0  1  0  0  3  0  0  0  0  0  0
  181.0390  178.6030  141.4780 C   0  0  1  0  0  3  0  0  0  0  0  0
  181.0970  178.3470  139.3780 C   0  0  0  0  0  2  0  0  0  0  0  0
  179.6020  178.4140  140.4440 S   0  0  0  0  0  0  0  0  0  0  0  0
  182.0280  178.9010  140.4100 C   0  0  2  0  0  3  0  0  0  0  0  0
  180.9450  179.3100  142.7620 C   0  0  0  0  0  3  0  0  0  0  0  0
  180.9890  178.6580  143.9290 C   0  0  0  0  0  2  0  0  0  0  0  0
  189.6130  176.6730  138.0370 C   0  0  0  0  0  2  0  0  0  0  0  0
  192.9600  173.4490  136.8540 C   0  0  0  0  0  2  0  0  0  0  0  0
  195.1460  174.7210  137.1470 C   0  0  2  0  0  3  0  0  0  0  0  0
  190.4260  174.2710  137.6810 O   0  0  0  0  0  0  0  0  0  0  0  0
  194.5130  173.4750  136.5810 C   0  0  0  0  0  2  0  0  0  0  0  0
  191.3470  175.1570  137.6340 C   0  0  0  0  0  0  0  0  0  0  0  0
  191.0110  176.5440  137.7320 N   0  0  0  0  0  2  0  0  0  0  0  0
  192.6810  174.7050  137.4100 N   0  0  0  0  0  0  0  0  0  0  0  0
  193.8890  175.5510  137.4710 C   0  0  0  0  0  2  0  0  0  0  0  0
  196.4020  175.2380  136.6780 O   0  0  0  0  0  0  0  0  0  0  0  0
  198.3420  175.3850  138.6320 O   0  0  0  0  0  0  0  0  0  0  0  0
  197.7210  174.5850  137.5030 P   0  0  0  0  0  0  0  0  0  0  0  0
  198.0730  173.0840  137.5830 O   0  0  0  0  0  0  0  0  0  0  0  0
  1 21  1  0  0  0  0
  1  4  1  0  0  0  0
  2  4  2  0  0  0  0
  2  7  1  0  0  0  0
  3  2  1  0  0  0  0
  5  6  1  0  0  0  0
  5  3  2  0  0  0  0
  6  1  2  0  0  0  0
  7 10  1  0  0  0  0
  7  9  2  0  0  0  0
  9 12  1  0  0  0  0
 10 11  2  0  0  0  0
 11  8  1  0  0  0  0
 12  8  2  0  0  0  0
 12 15  1  0  0  0  0
 13 15  1  0  0  0  0
 13 17  1  0  0  0  0
 14 16  1  0  0  0  0
 15 14  2  0  0  0  0
 17 18  2  0  0  0  0
 18 16  1  0  0  0  0
 19 20  1  0  0  0  0
 20 17  1  0  0  0  0
 22 26  1  0  0  0  0
 22 21  1  0  0  0  0
 23 22  2  0  0  0  0
 24 22  2  0  0  0  0
 26 25  1  1  0  0  0
 27 31  1  1  0  0  0
 28 30  1  0  0  0  0
 28 29  1  0  0  0  0
 29 27  1  0  0  0  0
 30 26  1  1  0  0  0
 30 27  1  0  0  0  0
 31 32  2  0  0  0  0
 33  5  1  0  0  0  0
 34 40  1  0  0  0  0
 35 42  1  6  0  0  0
 35 41  1  0  0  0  0
 37 34  1  0  0  0  0
 37 35  1  0  0  0  0
 38 36  2  0  0  0  0
 38 39  1  0  0  0  0
 39 33  1  0  0  0  0
 40 41  1  0  0  0  0
 40 38  1  0  0  0  0
 42 44  1  0  0  0  0
 44 45  2  0  0  0  0
 44 43  2  0  0  0  0
M  END
>  <MODEL>
1

>  <REMARK>
 VINA RESULT:      -9.5      0.000      0.000
  Name = 
  12 active torsions:
  status: ('A' for Active; 'I' for Inactive)
    1  A    between atoms: C_2  and  C_6
    2  A    between atoms: S_3  and  N_9
    3  A    between atoms: S_3  and  C_38
    4  A    between atoms: C_4  and  C_12
    5  A    between atoms: C_8  and  N_9
    6  A    between atoms: C_10  and  O_18
    7  A    between atoms: C_17  and  C_26
    8  A    between atoms: C_17  and  N_36
    9  A    between atoms: O_18  and  P_19
   10  A    between atoms: O_27  and  C_41
   11  A    between atoms: C_33  and  C_37
   12  A    between atoms: C_38  and  C_45
                            x       y       z     vdW  Elec       q    Type
                         _______ _______ _______ _____ _____    ______ ____

>  <TORSDO>
F 12

$$$$
=
 OpenBabel11032419433D

 45 49  0  0  1  0  0  0  0  0999 V2000
  190.6080  177.2680  140.1520 C   0  0  0  0  0  0  0  0  0  0  0  0
  190.9670  176.1200  138.1170 C   0  0  0  0  0  0  0  0  0  0  0  0
  190.0400  176.8790  137.4650 C   0  0  0  0  0  3  0  0  0  0  0  0
  191.2120  176.3060  139.4820 C   0  0  0  0  0  3  0  0  0  0  0  0
  189.4030  177.8810  138.1450 C   0  0  0  0  0  0  0  0  0  0  0  0
  189.6890  178.0160  139.5070 C   0  0  0  0  0  3  0  0  0  0  0  0
  191.6420  174.9700  137.4620 C   0  0  0  0  0  0  0  0  0  0  0  0
  193.2340  173.0150  136.1990 N   0  0  0  0  0  0  0  0  0  0  0  0
  192.9090  174.9320  137.6200 N   0  0  0  0  0  0  0  0  0  0  0  0
  191.0790  173.9600  136.6350 C   0  0  0  0  0  3  0  0  0  0  0  0
  191.8770  172.9690  135.9830 C   0  0  0  0  0  3  0  0  0  0  0  0
  193.7260  173.9920  137.0170 C   0  0  0  0  0  0  0  0  0  0  0  0
  195.6520  174.1490  138.7140 C   0  0  0  0  0  3  0  0  0  0  0  0
  195.9990  174.9420  136.5440 C   0  0  0  0  0  3  0  0  0  0  0  0
  195.1290  174.3190  137.4390 C   0  0  0  0  0  0  0  0  0  0  0  0
  197.2810  175.3750  136.8780 N   0  0  0  0  0  0  0  0  0  0  0  0
  197.0250  174.6160  139.0500 C   0  0  0  0  0  0  0  0  0  0  0  0
  197.7610  175.2060  138.0930 N   0  0  0  0  0  0  0  0  0  0  0  0
  197.5250  175.5650  141.2210 C   0  0  0  0  0  1  0  0  0  0  0  0
  197.4940  174.4400  140.3600 O   0  0  0  0  0  0  0  0  0  0  0  0
  190.9650  177.5670  141.5090 N   0  0  0  0  0  2  0  0  0  0  0  0
  190.6290  176.7620  143.0320 S   0  0  0  0  0  0  0  0  0  0  0  0
  190.1420  175.4050  142.7090 O   0  0  0  0  0  0  0  0  0  0  0  0
  191.8230  176.6890  143.9490 O   0  0  0  0  0  0  0  0  0  0  0  0
  188.3210  178.0180  142.8700 N   0  0  0  0  0  1  0  0  0  0  0  0
  189.3110  177.6500  143.8570 C   0  0  1  0  0  3  0  0  0  0  0  0
  187.7210  177.8120  145.8960 C   0  0  1  0  0  3  0  0  0  0  0  0
  189.7050  177.2270  146.3420 C   0  0  0  0  0  2  0  0  0  0  0  0
  188.3850  177.6670  147.5410 S   0  0  0  0  0  0  0  0  0  0  0  0
  188.7840  177.0660  145.1750 C   0  0  2  0  0  3  0  0  0  0  0  0
  186.2790  177.6690  145.6590 C   0  0  0  0  0  3  0  0  0  0  0  0
  185.3880  178.4910  146.2230 C   0  0  0  0  0  2  0  0  0  0  0  0
  188.0840  178.3080  137.6810 C   0  0  0  0  0  2  0  0  0  0  0  0
  183.4800  177.3230  138.5900 C   0  0  0  0  0  2  0  0  0  0  0  0
  182.9850  178.6660  140.6960 C   0  0  2  0  0  3  0  0  0  0  0  0
  185.7510  177.5140  136.9830 O   0  0  0  0  0  0  0  0  0  0  0  0
  182.4790  177.5770  139.7830 C   0  0  0  0  0  2  0  0  0  0  0  0
  185.8100  178.0330  138.1500 C   0  0  0  0  0  0  0  0  0  0  0  0
  187.0700  178.4370  138.6920 N   0  0  0  0  0  2  0  0  0  0  0  0
  184.5950  178.1160  138.8920 N   0  0  0  0  0  0  0  0  0  0  0  0
  184.4310  178.8110  140.1840 C   0  0  0  0  0  2  0  0  0  0  0  0
  182.5540  178.8000  142.0600 O   0  0  0  0  0  0  0  0  0  0  0  0
  179.9190  177.9920  142.1200 O   0  0  0  0  0  0  0  0  0  0  0  0
  180.9070  179.1400  142.1910 P   0  0  0  0  0  0  0  0  0  0  0  0
  180.3030  180.3970  142.8550 O   0  0  0  0  0  0  0  0  0  0  0  0
  1 21  1  0  0  0  0
  2  4  1  0  0  0  0
  3  2  2  0  0  0  0
  3  5  1  0  0  0  0
  4  1  2  0  0  0  0
  5  6  2  0  0  0  0
  6  1  1  0  0  0  0
  7  9  2  0  0  0  0
  7  2  1  0  0  0  0
  8 12  2  0  0  0  0
 10  7  1  0  0  0  0
 11  8  1  0  0  0  0
 11 10  2  0  0  0  0
 12 15  1  0  0  0  0
 12  9  1  0  0  0  0
 13 17  1  0  0  0  0
 14 16  2  0  0  0  0
 14 15  1  0  0  0  0
 15 13  2  0  0  0  0
 16 18  1  0  0  0  0
 17 20  1  0  0  0  0
 18 17  2  0  0  0  0
 20 19  1  0  0  0  0
 21 22  1  0  0  0  0
 22 26  1  0  0  0  0
 22 24  2  0  0  0  0
 23 22  2  0  0  0  0
 26 25  1  6  0  0  0
 27 31  1  1  0  0  0
 27 29  1  0  0  0  0
 28 29  1  0  0  0  0
 30 26  1  6  0  0  0
 30 27  1  0  0  0  0
 30 28  1  0  0  0  0
 31 32  2  0  0  0  0
 33  5  1  0  0  0  0
 33 39  1  0  0  0  0
 34 40  1  0  0  0  0
 34 37  1  0  0  0  0
 35 42  1  1  0  0  0
 36 38  2  0  0  0  0
 37 35  1  0  0  0  0
 38 39  1  0  0  0  0
 38 40  1  0  0  0  0
 40 41  1  0  0  0  0
 41 35  1  0  0  0  0
 42 44  1  0  0  0  0
 43 44  2  0  0  0  0
 44 45  2  0  0  0  0
M  END
>  <MODEL>
2

>  <REMARK>
 VINA RESULT:      -9.1      4.158     10.317
  Name = 
  12 active torsions:
  status: ('A' for Active; 'I' for Inactive)
    1  A    between atoms: C_2  and  C_6
    2  A    between atoms: S_3  and  N_9
    3  A    between atoms: S_3  and  C_38
    4  A    between atoms: C_4  and  C_12
    5  A    between atoms: C_8  and  N_9
    6  A    between atoms: C_10  and  O_18
    7  A    between atoms: C_17  and  C_26
    8  A    between atoms: C_17  and  N_36
    9  A    between atoms: O_18  and  P_19
   10  A    between atoms: O_27  and  C_41
   11  A    between atoms: C_33  and  C_37
   12  A    between atoms: C_38  and  C_45
                            x       y       z     vdW  Elec       q    Type
                         _______ _______ _______ _____ _____    ______ ____

>  <TORSDO>
F 12

$$$$
=
 OpenBabel11032419433D

 45 49  0  0  1  0  0  0  0  0999 V2000
  187.0850  178.5300  140.9610 C   0  0  0  0  0  0  0  0  0  0  0  0
  189.0870  177.5560  141.7560 C   0  0  0  0  0  0  0  0  0  0  0  0
  189.5190  177.2860  140.4910 C   0  0  0  0  0  3  0  0  0  0  0  0
  187.8390  178.1500  141.9750 C   0  0  0  0  0  3  0  0  0  0  0  0
  188.7490  177.6720  139.4280 C   0  0  0  0  0  0  0  0  0  0  0  0
  187.5120  178.2590  139.7110 C   0  0  0  0  0  3  0  0  0  0  0  0
  189.8360  177.1000  142.9560 C   0  0  0  0  0  0  0  0  0  0  0  0
  191.0690  176.5140  145.4230 N   0  0  0  0  0  0  0  0  0  0  0  0
  189.2480  177.3200  144.0680 N   0  0  0  0  0  0  0  0  0  0  0  0
  191.1330  176.5220  143.0310 C   0  0  0  0  0  3  0  0  0  0  0  0
  191.7710  176.2300  144.2750 C   0  0  0  0  0  3  0  0  0  0  0  0
  189.8190  177.0490  145.3000 C   0  0  0  0  0  0  0  0  0  0  0  0
  187.5380  177.9510  146.0730 C   0  0  0  0  0  2  0  0  0  0  0  0
  189.1790  177.5200  147.6800 C   0  0  0  0  0  3  0  0  0  0  0  0
  188.8180  177.4780  146.3330 C   0  0  0  0  0  0  0  0  0  0  0  0
  188.3520  178.0000  148.6930 N   0  0  0  0  0  2  0  0  0  0  0  0
  186.6690  178.4580  147.1710 C   0  0  0  0  0  0  0  0  0  0  0  0
  187.1410  178.4470  148.4290 N   0  0  0  0  0  0  0  0  0  0  0  0
  184.9820  178.9090  145.4940 C   0  0  0  0  0  1  0  0  0  0  0  0
  185.3950  178.9480  146.8490 O   0  0  0  0  0  0  0  0  0  0  0  0
  185.8790  179.2770  141.1710 N   0  0  0  0  0  2  0  0  0  0  0  0
  184.1870  178.8130  141.2290 S   0  0  0  0  0  0  0  0  0  0  0  0
  184.1400  177.3370  141.2190 O   0  0  0  0  0  0  0  0  0  0  0  0
  183.4550  179.3560  142.4290 O   0  0  0  0  0  0  0  0  0  0  0  0
  184.3390  180.2200  139.0090 N   0  0  0  0  0  1  0  0  0  0  0  0
  183.3920  179.4100  139.7390 C   0  0  1  0  0  3  0  0  0  0  0  0
  183.0630  178.0470  137.5610 C   0  0  1  0  0  3  0  0  0  0  0  0
  181.3100  178.9380  138.3410 C   0  0  0  0  0  2  0  0  0  0  0  0
  181.4990  178.1090  136.7120 S   0  0  0  0  0  0  0  0  0  0  0  0
  182.5780  178.3970  138.9200 C   0  0  2  0  0  3  0  0  0  0  0  0
  184.0340  176.9860  137.2580 C   0  0  0  0  0  3  0  0  0  0  0  0
  185.3270  177.2540  137.0470 C   0  0  0  0  0  2  0  0  0  0  0  0
  188.8850  176.9420  138.1680 C   0  0  0  0  0  2  0  0  0  0  0  0
  191.2440  173.2820  136.1590 C   0  0  0  0  0  2  0  0  0  0  0  0
  193.6700  173.7070  136.8040 C   0  0  2  0  0  3  0  0  0  0  0  0
  188.9940  174.5880  137.1670 O   0  0  0  0  0  0  0  0  0  0  0  0
  192.7550  172.9050  135.9120 C   0  0  0  0  0  2  0  0  0  0  0  0
  190.1330  175.1320  137.3720 C   0  0  0  0  0  0  0  0  0  0  0  0
  190.2070  176.4790  137.8470 N   0  0  0  0  0  2  0  0  0  0  0  0
  191.2920  174.3720  137.0380 N   0  0  0  0  0  0  0  0  0  0  0  0
  192.6830  174.7650  137.3380 C   0  0  0  0  0  2  0  0  0  0  0  0
  195.0580  173.9220  136.5030 O   0  0  0  0  0  0  0  0  0  0  0  0
  197.1430  175.0570  137.9050 O   0  0  0  0  0  0  0  0  0  0  0  0
  196.0110  174.0490  137.8900 P   0  0  0  0  0  0  0  0  0  0  0  0
  195.5830  173.6230  139.3110 O   0  0  0  0  0  0  0  0  0  0  0  0
  1 21  1  0  0  0  0
  1  4  1  0  0  0  0
  2  4  2  0  0  0  0
  2  7  1  0  0  0  0
  3  2  1  0  0  0  0
  5  6  1  0  0  0  0
  5  3  2  0  0  0  0
  6  1  2  0  0  0  0
  7 10  1  0  0  0  0
  7  9  2  0  0  0  0
  9 12  1  0  0  0  0
 10 11  2  0  0  0  0
 11  8  1  0  0  0  0
 12  8  2  0  0  0  0
 12 15  1  0  0  0  0
 13 15  1  0  0  0  0
 13 17  1  0  0  0  0
 14 16  1  0  0  0  0
 15 14  2  0  0  0  0
 17 18  2  0  0  0  0
 18 16  1  0  0  0  0
 19 20  1  0  0  0  0
 20 17  1  0  0  0  0
 21 22  1  0  0  0  0
 22 24  2  0  0  0  0
 23 22  2  0  0  0  0
 26 25  1  6  0  0  0
 26 22  1  0  0  0  0
 27 31  1  1  0  0  0
 27 30  1  0  0  0  0
 28 30  1  0  0  0  0
 29 27  1  0  0  0  0
 29 28  1  0  0  0  0
 30 26  1  6  0  0  0
 32 31  2  0  0  0  0
 33  5  1  0  0  0  0
 34 40  1  0  0  0  0
 35 42  1  6  0  0  0
 35 41  1  0  0  0  0
 36 38  2  0  0  0  0
 37 34  1  0  0  0  0
 37 35  1  0  0  0  0
 38 39  1  0  0  0  0
 39 33  1  0  0  0  0
 40 41  1  0  0  0  0
 40 38  1  0  0  0  0
 42 44  1  0  0  0  0
 44 43  2  0  0  0  0
 44 45  2  0  0  0  0
M  END
>  <MODEL>
3

>  <REMARK>
 VINA RESULT:      -9.0      1.708      2.373
  Name = 
  12 active torsions:
  status: ('A' for Active; 'I' for Inactive)
    1  A    between atoms: C_2  and  C_6
    2  A    between atoms: S_3  and  N_9
    3  A    between atoms: S_3  and  C_38
    4  A    between atoms: C_4  and  C_12
    5  A    between atoms: C_8  and  N_9
    6  A    between atoms: C_10  and  O_18
    7  A    between atoms: C_17  and  C_26
    8  A    between atoms: C_17  and  N_36
    9  A    between atoms: O_18  and  P_19
   10  A    between atoms: O_27  and  C_41
   11  A    between atoms: C_33  and  C_37
   12  A    between atoms: C_38  and  C_45
                            x       y       z     vdW  Elec       q    Type
                         _______ _______ _______ _____ _____    ______ ____

>  <TORSDO>
F 12

$$$$
=
 OpenBabel11032419433D

 45 49  0  0  1  0  0  0  0  0999 V2000
  189.0240  176.9240  141.7210 C   0  0  0  0  0  0  0  0  0  0  0  0
  188.6360  177.6240  139.4970 C   0  0  0  0  0  0  0  0  0  0  0  0
  187.6520  178.4840  139.8840 C   0  0  0  0  0  3  0  0  0  0  0  0
  189.2910  176.8170  140.4340 C   0  0  0  0  0  3  0  0  0  0  0  0
  187.3610  178.6070  141.2160 C   0  0  0  0  0  0  0  0  0  0  0  0
  188.0480  177.7730  142.1020 C   0  0  0  0  0  3  0  0  0  0  0  0
  188.9530  177.3860  138.0650 C   0  0  0  0  0  0  0  0  0  0  0  0
  189.9190  176.8850  135.4630 N   0  0  0  0  0  0  0  0  0  0  0  0
  189.9640  176.6340  137.8580 N   0  0  0  0  0  0  0  0  0  0  0  0
  188.3290  177.9350  136.9110 C   0  0  0  0  0  3  0  0  0  0  0  0
  188.8150  177.6950  135.5890 C   0  0  0  0  0  3  0  0  0  0  0  0
  190.4710  176.3650  136.5990 C   0  0  0  0  0  0  0  0  0  0  0  0
  192.7270  175.7300  137.6580 C   0  0  0  0  0  3  0  0  0  0  0  0
  191.8170  174.3260  136.0280 C   0  0  0  0  0  3  0  0  0  0  0  0
  191.6620  175.4740  136.8040 C   0  0  0  0  0  0  0  0  0  0  0  0
  192.9360  173.4980  136.0760 N   0  0  0  0  0  0  0  0  0  0  0  0
  193.9140  174.8320  137.6960 C   0  0  0  0  0  0  0  0  0  0  0  0
  193.9390  173.7560  136.8920 N   0  0  0  0  0  0  0  0  0  0  0  0
  195.7860  174.0990  139.0450 C   0  0  0  0  0  1  0  0  0  0  0  0
  194.9720  175.1520  138.5600 O   0  0  0  0  0  0  0  0  0  0  0  0
  189.7960  176.2160  142.7020 N   0  0  0  0  0  2  0  0  0  0  0  0
  191.2570  176.6230  143.5850 S   0  0  0  0  0  0  0  0  0  0  0  0
  191.8480  175.3540  144.0570 O   0  0  0  0  0  0  0  0  0  0  0  0
  192.2580  177.3990  142.7670 O   0  0  0  0  0  0  0  0  0  0  0  0
  190.5220  178.9450  144.5850 N   0  0  0  0  0  1  0  0  0  0  0  0
  190.7940  177.5930  145.0170 C   0  0  1  0  0  3  0  0  0  0  0  0
  188.5040  177.6780  146.2250 C   0  0  1  0  0  3  0  0  0  0  0  0
  190.1460  177.1270  147.4410 C   0  0  0  0  0  2  0  0  0  0  0  0
  188.4380  177.5140  147.9960 S   0  0  0  0  0  0  0  0  0  0  0  0
  189.7890  176.9700  145.9970 C   0  0  2  0  0  3  0  0  0  0  0  0
  187.2900  177.5080  145.4150 C   0  0  0  0  0  3  0  0  0  0  0  0
  186.1250  178.0590  145.7690 C   0  0  0  0  0  2  0  0  0  0  0  0
  186.0210  179.0520  141.5980 C   0  0  0  0  0  2  0  0  0  0  0  0
  181.3970  178.7840  140.3570 C   0  0  0  0  0  2  0  0  0  0  0  0
  181.4260  179.1960  137.8450 C   0  0  2  0  0  3  0  0  0  0  0  0
  183.6030  178.3120  141.9980 O   0  0  0  0  0  0  0  0  0  0  0  0
  180.5480  179.1060  139.0670 C   0  0  0  0  0  2  0  0  0  0  0  0
  183.8260  178.7960  140.8360 C   0  0  0  0  0  0  0  0  0  0  0  0
  185.1150  179.3250  140.5160 N   0  0  0  0  0  2  0  0  0  0  0  0
  182.7290  178.8480  139.9260 N   0  0  0  0  0  0  0  0  0  0  0  0
  182.8200  179.2310  138.5030 C   0  0  0  0  0  2  0  0  0  0  0  0
  181.0360  179.9020  136.6560 O   0  0  0  0  0  0  0  0  0  0  0  0
  179.3260  182.0540  136.4330 O   0  0  0  0  0  0  0  0  0  0  0  0
  180.6430  181.5150  136.9580 P   0  0  0  0  0  0  0  0  0  0  0  0
  181.2140  182.3760  138.1060 O   0  0  0  0  0  0  0  0  0  0  0  0
  1  6  1  0  0  0  0
  1 21  1  0  0  0  0
  2  3  2  0  0  0  0
  2  4  1  0  0  0  0
  3  5  1  0  0  0  0
  4  1  2  0  0  0  0
  5 33  1  0  0  0  0
  5  6  2  0  0  0  0
  7  2  1  0  0  0  0
  8 11  1  0  0  0  0
  8 12  2  0  0  0  0
  9  7  2  0  0  0  0
 10  7  1  0  0  0  0
 11 10  2  0  0  0  0
 12 15  1  0  0  0  0
 12  9  1  0  0  0  0
 13 17  1  0  0  0  0
 14 16  2  0  0  0  0
 14 15  1  0  0  0  0
 15 13  2  0  0  0  0
 16 18  1  0  0  0  0
 17 20  1  0  0  0  0
 18 17  2  0  0  0  0
 20 19  1  0  0  0  0
 21 22  1  0  0  0  0
 22 23  2  0  0  0  0
 22 26  1  0  0  0  0
 24 22  2  0  0  0  0
 26 25  1  6  0  0  0
 27 31  1  6  0  0  0
 27 29  1  0  0  0  0
 28 29  1  0  0  0  0
 30 26  1  6  0  0  0
 30 27  1  0  0  0  0
 30 28  1  0  0  0  0
 31 32  2  0  0  0  0
 35 42  1  1  0  0  0
 35 41  1  0  0  0  0
 35 37  1  0  0  0  0
 37 34  1  0  0  0  0
 38 36  2  0  0  0  0
 39 38  1  0  0  0  0
 39 33  1  0  0  0  0
 40 34  1  0  0  0  0
 40 38  1  0  0  0  0
 41 40  1  0  0  0  0
 42 44  1  0  0  0  0
 43 44  2  0  0  0  0
 44 45  2  0  0  0  0
M  END
>  <MODEL>
4

>  <REMARK>
 VINA RESULT:      -8.9      4.119     10.659
  Name = 
  12 active torsions:
  status: ('A' for Active; 'I' for Inactive)
    1  A    between atoms: C_2  and  C_6
    2  A    between atoms: S_3  and  N_9
    3  A    between atoms: S_3  and  C_38
    4  A    between atoms: C_4  and  C_12
    5  A    between atoms: C_8  and  N_9
    6  A    between atoms: C_10  and  O_18
    7  A    between atoms: C_17  and  C_26
    8  A    between atoms: C_17  and  N_36
    9  A    between atoms: O_18  and  P_19
   10  A    between atoms: O_27  and  C_41
   11  A    between atoms: C_33  and  C_37
   12  A    between atoms: C_38  and  C_45
                            x       y       z     vdW  Elec       q    Type
                         _______ _______ _______ _____ _____    ______ ____

>  <TORSDO>
F 12

$$$$
=
 OpenBabel11032419433D

 45 49  0  0  1  0  0  0  0  0999 V2000
  182.9630  176.3620  138.5260 C   0  0  0  0  0  0  0  0  0  0  0  0
  183.4830  177.9490  140.1990 C   0  0  0  0  0  0  0  0  0  0  0  0
  184.4610  178.5120  139.4340 C   0  0  0  0  0  3  0  0  0  0  0  0
  182.7640  176.8400  139.7390 C   0  0  0  0  0  3  0  0  0  0  0  0
  184.6830  178.0280  138.1740 C   0  0  0  0  0  0  0  0  0  0  0  0
  183.9330  176.9180  137.7720 C   0  0  0  0  0  3  0  0  0  0  0  0
  183.2380  178.3750  141.6020 C   0  0  0  0  0  0  0  0  0  0  0  0
  183.0400  178.9230  144.3600 N   0  0  0  0  0  0  0  0  0  0  0  0
  184.2310  178.2200  142.3890 N   0  0  0  0  0  0  0  0  0  0  0  0
  182.0380  178.8610  142.1890 C   0  0  0  0  0  3  0  0  0  0  0  0
  181.9230  179.1340  143.5860 C   0  0  0  0  0  3  0  0  0  0  0  0
  184.1750  178.4740  143.7480 C   0  0  0  0  0  0  0  0  0  0  0  0
  185.8930  178.1630  145.6370 C   0  0  0  0  0  3  0  0  0  0  0  0
  186.5880  177.8670  143.4270 C   0  0  0  0  0  3  0  0  0  0  0  0
  185.5320  178.1390  144.2970 C   0  0  0  0  0  0  0  0  0  0  0  0
  187.9010  177.6470  143.8400 N   0  0  0  0  0  0  0  0  0  0  0  0
  187.3010  177.9240  146.0590 C   0  0  0  0  0  0  0  0  0  0  0  0
  188.2260  177.6750  145.1170 N   0  0  0  0  0  0  0  0  0  0  0  0
  188.8330  177.4120  147.8620 C   0  0  0  0  0  1  0  0  0  0  0  0
  187.6130  177.9850  147.4250 O   0  0  0  0  0  0  0  0  0  0  0  0
  182.1270  175.3290  137.9870 N   0  0  0  0  0  2  0  0  0  0  0  0
  180.5790  175.3610  137.1610 S   0  0  0  0  0  0  0  0  0  0  0  0
  180.8460  175.1430  135.7250 O   0  0  0  0  0  0  0  0  0  0  0  0
  179.6000  174.3370  137.6770 O   0  0  0  0  0  0  0  0  0  0  0  0
  179.3710  177.1160  138.7080 N   0  0  0  0  0  1  0  0  0  0  0  0
  179.8730  176.9950  137.3580 C   0  0  1  0  0  3  0  0  0  0  0  0
  180.4030  179.5310  137.3750 C   0  0  1  0  0  3  0  0  0  0  0  0
  180.2740  178.6480  135.4560 C   0  0  0  0  0  2  0  0  0  0  0  0
  180.4000  180.4400  135.8440 S   0  0  0  0  0  0  0  0  0  0  0  0
  180.6830  178.1830  136.8170 C   0  0  2  0  0  3  0  0  0  0  0  0
  181.0340  180.0960  138.5750 C   0  0  0  0  0  3  0  0  0  0  0  0
  182.0530  180.9580  138.4960 C   0  0  0  0  0  2  0  0  0  0  0  0
  186.0080  178.2060  137.5830 C   0  0  0  0  0  2  0  0  0  0  0  0
  190.5470  176.7570  138.1260 C   0  0  0  0  0  2  0  0  0  0  0  0
  191.0140  177.1660  140.5960 C   0  0  2  0  0  3  0  0  0  0  0  0
  188.0670  176.8670  136.8560 O   0  0  0  0  0  0  0  0  0  0  0  0
  191.6400  176.8500  139.2600 C   0  0  0  0  0  2  0  0  0  0  0  0
  188.1580  177.3940  138.0170 C   0  0  0  0  0  0  0  0  0  0  0  0
  187.1110  178.2380  138.5040 N   0  0  0  0  0  2  0  0  0  0  0  0
  189.3590  177.1620  138.7490 N   0  0  0  0  0  0  0  0  0  0  0  0
  189.5910  177.5570  140.1530 C   0  0  0  0  0  2  0  0  0  0  0  0
  191.7520  177.7480  141.6820 O   0  0  0  0  0  0  0  0  0  0  0  0
  191.6790  177.6940  144.4370 O   0  0  0  0  0  0  0  0  0  0  0  0
  191.5200  176.9290  143.1380 P   0  0  0  0  0  0  0  0  0  0  0  0
  190.6970  175.6340  143.3150 O   0  0  0  0  0  0  0  0  0  0  0  0
  1  4  1  0  0  0  0
  2  7  1  0  0  0  0
  3  2  1  0  0  0  0
  4  2  2  0  0  0  0
  5  3  2  0  0  0  0
  6  5  1  0  0  0  0
  6  1  2  0  0  0  0
  7 10  1  0  0  0  0
  7  9  2  0  0  0  0
  9 12  1  0  0  0  0
 10 11  2  0  0  0  0
 11  8  1  0  0  0  0
 12 15  1  0  0  0  0
 12  8  2  0  0  0  0
 13 17  1  0  0  0  0
 14 16  2  0  0  0  0
 14 15  1  0  0  0  0
 15 13  2  0  0  0  0
 16 18  1  0  0  0  0
 17 20  1  0  0  0  0
 18 17  2  0  0  0  0
 20 19  1  0  0  0  0
 21  1  1  0  0  0  0
 22 26  1  0  0  0  0
 22 24  2  0  0  0  0
 22 21  1  0  0  0  0
 23 22  2  0  0  0  0
 26 25  1  1  0  0  0
 27 31  1  1  0  0  0
 28 29  1  0  0  0  0
 28 30  1  0  0  0  0
 29 27  1  0  0  0  0
 30 26  1  1  0  0  0
 30 27  1  0  0  0  0
 32 31  2  0  0  0  0
 33  5  1  0  0  0  0
 33 39  1  0  0  0  0
 34 40  1  0  0  0  0
 34 37  1  0  0  0  0
 35 42  1  6  0  0  0
 36 38  2  0  0  0  0
 37 35  1  0  0  0  0
 38 39  1  0  0  0  0
 38 40  1  0  0  0  0
 40 41  1  0  0  0  0
 41 35  1  0  0  0  0
 42 44  1  0  0  0  0
 44 45  2  0  0  0  0
 44 43  2  0  0  0  0
M  END
>  <MODEL>
5

>  <REMARK>
 VINA RESULT:      -8.8      3.648      5.764
  Name = 
  12 active torsions:
  status: ('A' for Active; 'I' for Inactive)
    1  A    between atoms: C_2  and  C_6
    2  A    between atoms: S_3  and  N_9
    3  A    between atoms: S_3  and  C_38
    4  A    between atoms: C_4  and  C_12
    5  A    between atoms: C_8  and  N_9
    6  A    between atoms: C_10  and  O_18
    7  A    between atoms: C_17  and  C_26
    8  A    between atoms: C_17  and  N_36
    9  A    between atoms: O_18  and  P_19
   10  A    between atoms: O_27  and  C_41
   11  A    between atoms: C_33  and  C_37
   12  A    between atoms: C_38  and  C_45
                            x       y       z     vdW  Elec       q    Type
                         _______ _______ _______ _____ _____    ______ ____

>  <TORSDO>
F 12

$$$$
=
 OpenBabel11032419433D

 45 49  0  0  1  0  0  0  0  0999 V2000
  185.4000  178.6070  139.7990 C   0  0  0  0  0  0  0  0  0  0  0  0
  183.0550  178.7960  140.0260 C   0  0  0  0  0  0  0  0  0  0  0  0
  183.1390  178.8580  141.3860 C   0  0  0  0  0  3  0  0  0  0  0  0
  184.2040  178.6320  139.2450 C   0  0  0  0  0  3  0  0  0  0  0  0
  184.3720  178.8320  141.9790 C   0  0  0  0  0  0  0  0  0  0  0  0
  185.4820  178.6640  141.1440 C   0  0  0  0  0  3  0  0  0  0  0  0
  181.7480  178.7450  139.3220 C   0  0  0  0  0  0  0  0  0  0  0  0
  179.3050  179.0290  137.9430 N   0  0  0  0  0  0  0  0  0  0  0  0
  181.5670  179.6700  138.4600 N   0  0  0  0  0  0  0  0  0  0  0  0
  180.6590  177.8540  139.5280 C   0  0  0  0  0  3  0  0  0  0  0  0
  179.4130  177.9940  138.8420 C   0  0  0  0  0  3  0  0  0  0  0  0
  180.3840  179.8460  137.7640 C   0  0  0  0  0  0  0  0  0  0  0  0
  180.7010  182.3610  137.3260 C   0  0  0  0  0  3  0  0  0  0  0  0
  180.5600  180.9110  135.5000 C   0  0  0  0  0  3  0  0  0  0  0  0
  180.5840  181.0480  136.8880 C   0  0  0  0  0  0  0  0  0  0  0  0
  180.6330  181.9810  134.6100 N   0  0  0  0  0  0  0  0  0  0  0  0
  180.7810  183.4900  136.3590 C   0  0  0  0  0  0  0  0  0  0  0  0
  180.7430  183.2200  135.0440 N   0  0  0  0  0  0  0  0  0  0  0  0
  179.8850  185.2410  137.7700 C   0  0  0  0  0  1  0  0  0  0  0  0
  180.8740  184.7970  136.8580 O   0  0  0  0  0  0  0  0  0  0  0  0
  186.5910  178.5950  139.0000 N   0  0  0  0  0  2  0  0  0  0  0  0
  187.0500  177.6950  137.5640 S   0  0  0  0  0  0  0  0  0  0  0  0
  186.8160  176.2660  137.8520 O   0  0  0  0  0  0  0  0  0  0  0  0
  186.2980  178.1140  136.3260 O   0  0  0  0  0  0  0  0  0  0  0  0
  189.1390  179.2950  137.6370 N   0  0  0  0  0  1  0  0  0  0  0  0
  188.8040  177.9330  137.2910 C   0  0  1  0  0  3  0  0  0  0  0  0
  190.7670  177.2160  138.8220 C   0  0  1  0  0  3  0  0  0  0  0  0
  190.8360  176.4540  136.8490 C   0  0  0  0  0  2  0  0  0  0  0  0
  192.1560  176.3500  138.1220 S   0  0  0  0  0  0  0  0  0  0  0  0
  189.7520  176.8400  137.8050 C   0  0  2  0  0  3  0  0  0  0  0  0
  190.5460  177.2200  140.2740 C   0  0  0  0  0  3  0  0  0  0  0  0
  189.3190  177.2920  140.8000 C   0  0  0  0  0  2  0  0  0  0  0  0
  184.4740  178.3460  143.3540 C   0  0  0  0  0  2  0  0  0  0  0  0
  187.1570  177.8080  147.2920 C   0  0  0  0  0  2  0  0  0  0  0  0
  189.5170  177.5390  146.3760 C   0  0  2  0  0  3  0  0  0  0  0  0
  184.8930  178.5990  145.8680 O   0  0  0  0  0  0  0  0  0  0  0  0
  188.6480  177.4000  147.6020 C   0  0  0  0  0  2  0  0  0  0  0  0
  185.9130  178.2260  145.1930 C   0  0  0  0  0  0  0  0  0  0  0  0
  185.7880  177.9640  143.7930 N   0  0  0  0  0  2  0  0  0  0  0  0
  187.1300  178.0160  145.9070 N   0  0  0  0  0  0  0  0  0  0  0  0
  188.4410  177.7310  145.2900 C   0  0  0  0  0  2  0  0  0  0  0  0
  190.7590  176.8340  146.2190 O   0  0  0  0  0  0  0  0  0  0  0  0
  191.4130  175.8190  143.7410 O   0  0  0  0  0  0  0  0  0  0  0  0
  191.4170  177.0130  144.6760 P   0  0  0  0  0  0  0  0  0  0  0  0
  191.5790  178.3510  143.9210 O   0  0  0  0  0  0  0  0  0  0  0  0
  1  6  1  0  0  0  0
  2  3  2  0  0  0  0
  3  5  1  0  0  0  0
  4  1  2  0  0  0  0
  4  2  1  0  0  0  0
  5 33  1  0  0  0  0
  6  5  2  0  0  0  0
  7 10  1  0  0  0  0
  7  2  1  0  0  0  0
  8 11  1  0  0  0  0
  9  7  2  0  0  0  0
 11 10  2  0  0  0  0
 12  8  2  0  0  0  0
 12  9  1  0  0  0  0
 14 15  1  0  0  0  0
 15 13  2  0  0  0  0
 15 12  1  0  0  0  0
 16 18  1  0  0  0  0
 16 14  2  0  0  0  0
 17 20  1  0  0  0  0
 17 13  1  0  0  0  0
 18 17  2  0  0  0  0
 20 19  1  0  0  0  0
 21  1  1  0  0  0  0
 22 23  2  0  0  0  0
 22 21  1  0  0  0  0
 24 22  2  0  0  0  0
 26 22  1  0  0  0  0
 26 25  1  1  0  0  0
 27 31  1  1  0  0  0
 28 30  1  0  0  0  0
 28 29  1  0  0  0  0
 29 27  1  0  0  0  0
 30 26  1  6  0  0  0
 30 27  1  0  0  0  0
 31 32  2  0  0  0  0
 33 39  1  0  0  0  0
 34 37  1  0  0  0  0
 35 42  1  6  0  0  0
 35 37  1  0  0  0  0
 38 36  2  0  0  0  0
 38 40  1  0  0  0  0
 39 38  1  0  0  0  0
 40 34  1  0  0  0  0
 41 40  1  0  0  0  0
 41 35  1  0  0  0  0
 43 44  2  0  0  0  0
 44 42  1  0  0  0  0
 45 44  2  0  0  0  0
M  END
>  <MODEL>
6

>  <REMARK>
 VINA RESULT:      -8.7      4.139     10.051
  Name = 
  12 active torsions:
  status: ('A' for Active; 'I' for Inactive)
    1  A    between atoms: C_2  and  C_6
    2  A    between atoms: S_3  and  N_9
    3  A    between atoms: S_3  and  C_38
    4  A    between atoms: C_4  and  C_12
    5  A    between atoms: C_8  and  N_9
    6  A    between atoms: C_10  and  O_18
    7  A    between atoms: C_17  and  C_26
    8  A    between atoms: C_17  and  N_36
    9  A    between atoms: O_18  and  P_19
   10  A    between atoms: O_27  and  C_41
   11  A    between atoms: C_33  and  C_37
   12  A    between atoms: C_38  and  C_45
                            x       y       z     vdW  Elec       q    Type
                         _______ _______ _______ _____ _____    ______ ____

>  <TORSDO>
F 12

$$$$
=
 OpenBabel11032419433D

 45 49  0  0  1  0  0  0  0  0999 V2000
  189.0970  176.9220  141.5470 C   0  0  0  0  0  0  0  0  0  0  0  0
  188.7560  177.5660  139.2990 C   0  0  0  0  0  0  0  0  0  0  0  0
  187.7730  178.4450  139.6450 C   0  0  0  0  0  3  0  0  0  0  0  0
  189.3860  176.7780  140.2680 C   0  0  0  0  0  3  0  0  0  0  0  0
  187.4600  178.6060  140.9680 C   0  0  0  0  0  0  0  0  0  0  0  0
  188.1230  177.7890  141.8880 C   0  0  0  0  0  3  0  0  0  0  0  0
  189.0960  177.2870  137.8790 C   0  0  0  0  0  0  0  0  0  0  0  0
  190.1090  176.7580  135.3020 N   0  0  0  0  0  0  0  0  0  0  0  0
  190.1880  176.6480  137.7060 N   0  0  0  0  0  0  0  0  0  0  0  0
  188.4100  177.6940  136.7020 C   0  0  0  0  0  3  0  0  0  0  0  0
  188.9180  177.4400  135.3910 C   0  0  0  0  0  3  0  0  0  0  0  0
  190.7210  176.3700  136.4600 C   0  0  0  0  0  0  0  0  0  0  0  0
  192.8030  175.7520  137.8380 C   0  0  0  0  0  3  0  0  0  0  0  0
  192.5550  174.8340  135.7030 C   0  0  0  0  0  3  0  0  0  0  0  0
  192.0080  175.6370  136.7050 C   0  0  0  0  0  0  0  0  0  0  0  0
  193.7920  174.2010  135.8020 N   0  0  0  0  0  0  0  0  0  0  0  0
  194.1210  175.0650  137.9240 C   0  0  0  0  0  0  0  0  0  0  0  0
  194.5340  174.3210  136.8850 N   0  0  0  0  0  0  0  0  0  0  0  0
  196.1010  174.5050  139.2000 C   0  0  0  0  0  1  0  0  0  0  0  0
  194.8930  175.2350  139.0830 O   0  0  0  0  0  0  0  0  0  0  0  0
  189.8440  176.2330  142.5600 N   0  0  0  0  0  2  0  0  0  0  0  0
  191.2840  176.6570  143.4700 S   0  0  0  0  0  0  0  0  0  0  0  0
  191.8680  175.3960  143.9730 O   0  0  0  0  0  0  0  0  0  0  0  0
  192.3010  177.4240  142.6650 O   0  0  0  0  0  0  0  0  0  0  0  0
  190.5410  178.9950  144.4240 N   0  0  0  0  0  1  0  0  0  0  0  0
  190.7860  177.6450  144.8780 C   0  0  1  0  0  3  0  0  0  0  0  0
  188.5510  177.8560  146.1700 C   0  0  1  0  0  3  0  0  0  0  0  0
  190.1540  177.0220  147.2700 C   0  0  0  0  0  2  0  0  0  0  0  0
  188.5130  177.5320  147.9200 S   0  0  0  0  0  0  0  0  0  0  0  0
  189.7460  177.0410  145.8320 C   0  0  2  0  0  3  0  0  0  0  0  0
  187.3050  177.8920  145.3920 C   0  0  0  0  0  3  0  0  0  0  0  0
  186.1080  177.7700  145.9740 C   0  0  0  0  0  2  0  0  0  0  0  0
  186.1180  179.0730  141.3130 C   0  0  0  0  0  2  0  0  0  0  0  0
  182.4910  178.7270  138.1950 C   0  0  0  0  0  2  0  0  0  0  0  0
  181.1020  176.7970  139.1050 C   0  0  2  0  0  3  0  0  0  0  0  0
  184.5950  180.0250  139.4870 O   0  0  0  0  0  0  0  0  0  0  0  0
  181.3290  177.6980  137.9170 C   0  0  0  0  0  2  0  0  0  0  0  0
  184.2210  178.8960  139.9580 C   0  0  0  0  0  0  0  0  0  0  0  0
  185.0320  178.2180  140.9210 N   0  0  0  0  0  2  0  0  0  0  0  0
  183.0230  178.3310  139.4300 N   0  0  0  0  0  0  0  0  0  0  0  0
  182.3540  177.1200  139.9440 C   0  0  0  0  0  2  0  0  0  0  0  0
  180.4630  175.5150  138.9990 O   0  0  0  0  0  0  0  0  0  0  0  0
  179.6490  173.7580  140.9610 O   0  0  0  0  0  0  0  0  0  0  0  0
  179.5270  175.1410  140.3520 P   0  0  0  0  0  0  0  0  0  0  0  0
  178.9310  176.1680  141.3390 O   0  0  0  0  0  0  0  0  0  0  0  0
  1  6  1  0  0  0  0
  1 21  1  0  0  0  0
  2  3  2  0  0  0  0
  2  4  1  0  0  0  0
  3  5  1  0  0  0  0
  4  1  2  0  0  0  0
  5 33  1  0  0  0  0
  5  6  2  0  0  0  0
  7  2  1  0  0  0  0
  8 11  1  0  0  0  0
  8 12  2  0  0  0  0
  9  7  2  0  0  0  0
 10  7  1  0  0  0  0
 11 10  2  0  0  0  0
 12 15  1  0  0  0  0
 12  9  1  0  0  0  0
 13 17  1  0  0  0  0
 14 16  2  0  0  0  0
 14 15  1  0  0  0  0
 15 13  2  0  0  0  0
 16 18  1  0  0  0  0
 17 20  1  0  0  0  0
 18 17  2  0  0  0  0
 20 19  1  0  0  0  0
 21 22  1  0  0  0  0
 22 23  2  0  0  0  0
 22 26  1  0  0  0  0
 24 22  2  0  0  0  0
 26 25  1  6  0  0  0
 27 31  1  6  0  0  0
 27 29  1  0  0  0  0
 28 29  1  0  0  0  0
 30 26  1  6  0  0  0
 30 27  1  0  0  0  0
 30 28  1  0  0  0  0
 31 32  2  0  0  0  0
 34 40  1  0  0  0  0
 35 42  1  6  0  0  0
 35 41  1  0  0  0  0
 36 38  2  0  0  0  0
 37 34  1  0  0  0  0
 37 35  1  0  0  0  0
 38 39  1  0  0  0  0
 39 33  1  0  0  0  0
 40 41  1  0  0  0  0
 40 38  1  0  0  0  0
 42 44  1  0  0  0  0
 44 43  2  0  0  0  0
 44 45  2  0  0  0  0
M  END
>  <MODEL>
7

>  <REMARK>
 VINA RESULT:      -8.7      4.221     10.525
  Name = 
  12 active torsions:
  status: ('A' for Active; 'I' for Inactive)
    1  A    between atoms: C_2  and  C_6
    2  A    between atoms: S_3  and  N_9
    3  A    between atoms: S_3  and  C_38
    4  A    between atoms: C_4  and  C_12
    5  A    between atoms: C_8  and  N_9
    6  A    between atoms: C_10  and  O_18
    7  A    between atoms: C_17  and  C_26
    8  A    between atoms: C_17  and  N_36
    9  A    between atoms: O_18  and  P_19
   10  A    between atoms: O_27  and  C_41
   11  A    between atoms: C_33  and  C_37
   12  A    between atoms: C_38  and  C_45
                            x       y       z     vdW  Elec       q    Type
                         _______ _______ _______ _____ _____    ______ ____

>  <TORSDO>
F 12

$$$$
=
 OpenBabel11032419433D

 45 49  0  0  1  0  0  0  0  0999 V2000
  185.2050  178.6460  140.5540 C   0  0  0  0  0  0  0  0  0  0  0  0
  182.8960  178.2670  140.8880 C   0  0  0  0  0  0  0  0  0  0  0  0
  182.9860  178.5610  142.2170 C   0  0  0  0  0  3  0  0  0  0  0  0
  184.0330  178.2780  140.0730 C   0  0  0  0  0  3  0  0  0  0  0  0
  184.1940  178.9440  142.7330 C   0  0  0  0  0  0  0  0  0  0  0  0
  185.2940  178.9340  141.8690 C   0  0  0  0  0  3  0  0  0  0  0  0
  181.6340  177.7740  140.2770 C   0  0  0  0  0  0  0  0  0  0  0  0
  179.4610  176.7170  138.8250 N   0  0  0  0  0  0  0  0  0  0  0  0
  181.7730  176.7750  139.4940 N   0  0  0  0  0  0  0  0  0  0  0  0
  180.3210  178.3070  140.3930 C   0  0  0  0  0  3  0  0  0  0  0  0
  179.2140  177.7850  139.6560 C   0  0  0  0  0  3  0  0  0  0  0  0
  180.7340  176.2280  138.7620 C   0  0  0  0  0  0  0  0  0  0  0  0
  180.6130  174.1060  137.3130 C   0  0  0  0  0  2  0  0  0  0  0  0
  182.7120  174.9410  137.9100 C   0  0  0  0  0  3  0  0  0  0  0  0
  181.3270  175.1050  137.9620 C   0  0  0  0  0  0  0  0  0  0  0  0
  183.3460  173.8720  137.2800 N   0  0  0  0  0  2  0  0  0  0  0  0
  181.3100  172.9730  136.6440 C   0  0  0  0  0  0  0  0  0  0  0  0
  182.6520  172.9320  136.6700 N   0  0  0  0  0  0  0  0  0  0  0  0
  179.7450  171.1370  136.8430 C   0  0  0  0  0  1  0  0  0  0  0  0
  180.5370  171.9790  136.0250 O   0  0  0  0  0  0  0  0  0  0  0  0
  186.3430  178.8110  139.6970 N   0  0  0  0  0  2  0  0  0  0  0  0
  186.7390  178.1720  138.1110 S   0  0  0  0  0  0  0  0  0  0  0  0
  186.1700  176.8110  138.0350 O   0  0  0  0  0  0  0  0  0  0  0  0
  186.2280  179.0210  136.9750 O   0  0  0  0  0  0  0  0  0  0  0  0
  189.0580  179.3610  137.7370 N   0  0  0  0  0  1  0  0  0  0  0  0
  188.5210  178.0430  137.9880 C   0  0  1  0  0  3  0  0  0  0  0  0
  189.7040  177.8750  140.2870 C   0  0  1  0  0  3  0  0  0  0  0  0
  190.6520  176.8360  138.7050 C   0  0  0  0  0  2  0  0  0  0  0  0
  191.3180  177.1300  140.3920 S   0  0  0  0  0  0  0  0  0  0  0  0
  189.2420  177.1980  139.0480 C   0  0  2  0  0  3  0  0  0  0  0  0
  188.8930  178.0700  141.4960 C   0  0  0  0  0  3  0  0  0  0  0  0
  188.5000  177.0410  142.2540 C   0  0  0  0  0  2  0  0  0  0  0  0
  184.4440  178.7240  144.1560 C   0  0  0  0  0  2  0  0  0  0  0  0
  187.3780  178.0320  147.8860 C   0  0  0  0  0  2  0  0  0  0  0  0
  189.6310  177.5640  146.7970 C   0  0  2  0  0  3  0  0  0  0  0  0
  185.0780  178.9790  146.6250 O   0  0  0  0  0  0  0  0  0  0  0  0
  188.8530  177.5130  148.0880 C   0  0  0  0  0  2  0  0  0  0  0  0
  186.0090  178.5160  145.8810 C   0  0  0  0  0  0  0  0  0  0  0  0
  185.7560  178.2450  144.5000 N   0  0  0  0  0  2  0  0  0  0  0  0
  187.2590  178.2220  146.5030 N   0  0  0  0  0  0  0  0  0  0  0  0
  188.4910  177.8250  145.7940 C   0  0  0  0  0  2  0  0  0  0  0  0
  190.7980  176.7620  146.5590 O   0  0  0  0  0  0  0  0  0  0  0  0
  191.6840  178.1060  144.3210 O   0  0  0  0  0  0  0  0  0  0  0  0
  191.2840  176.7830  144.9440 P   0  0  0  0  0  0  0  0  0  0  0  0
  191.8380  175.5730  144.1600 O   0  0  0  0  0  0  0  0  0  0  0  0
  1  6  1  0  0  0  0
  2  3  2  0  0  0  0
  3  5  1  0  0  0  0
  4  1  2  0  0  0  0
  4  2  1  0  0  0  0
  5 33  1  0  0  0  0
  6  5  2  0  0  0  0
  7 10  1  0  0  0  0
  7  2  1  0  0  0  0
  8 11  1  0  0  0  0
  9  7  2  0  0  0  0
 11 10  2  0  0  0  0
 12  8  2  0  0  0  0
 12  9  1  0  0  0  0
 13 15  1  0  0  0  0
 14 15  2  0  0  0  0
 15 12  1  0  0  0  0
 16 14  1  0  0  0  0
 17 18  2  0  0  0  0
 17 13  1  0  0  0  0
 18 16  1  0  0  0  0
 20 17  1  0  0  0  0
 20 19  1  0  0  0  0
 21  1  1  0  0  0  0
 22 21  1  0  0  0  0
 23 22  2  0  0  0  0
 24 22  2  0  0  0  0
 26 25  1  1  0  0  0
 26 22  1  0  0  0  0
 27 29  1  0  0  0  0
 27 31  1  1  0  0  0
 28 30  1  0  0  0  0
 28 29  1  0  0  0  0
 30 26  1  6  0  0  0
 30 27  1  0  0  0  0
 31 32  2  0  0  0  0
 33 39  1  0  0  0  0
 34 37  1  0  0  0  0
 35 42  1  6  0  0  0
 35 37  1  0  0  0  0
 38 40  1  0  0  0  0
 38 36  2  0  0  0  0
 39 38  1  0  0  0  0
 40 34  1  0  0  0  0
 41 40  1  0  0  0  0
 41 35  1  0  0  0  0
 43 44  2  0  0  0  0
 44 42  1  0  0  0  0
 45 44  2  0  0  0  0
M  END
>  <MODEL>
8

>  <REMARK>
 VINA RESULT:      -8.6      3.961      9.701
  Name = 
  12 active torsions:
  status: ('A' for Active; 'I' for Inactive)
    1  A    between atoms: C_2  and  C_6
    2  A    between atoms: S_3  and  N_9
    3  A    between atoms: S_3  and  C_38
    4  A    between atoms: C_4  and  C_12
    5  A    between atoms: C_8  and  N_9
    6  A    between atoms: C_10  and  O_18
    7  A    between atoms: C_17  and  C_26
    8  A    between atoms: C_17  and  N_36
    9  A    between atoms: O_18  and  P_19
   10  A    between atoms: O_27  and  C_41
   11  A    between atoms: C_33  and  C_37
   12  A    between atoms: C_38  and  C_45
                            x       y       z     vdW  Elec       q    Type
                         _______ _______ _______ _____ _____    ______ ____

>  <TORSDO>
F 12

$$$$
=
 OpenBabel11032419433D

 45 49  0  0  1  0  0  0  0  0999 V2000
  187.3440  178.2550  139.1330 C   0  0  0  0  0  0  0  0  0  0  0  0
  188.7950  177.6430  140.8960 C   0  0  0  0  0  0  0  0  0  0  0  0
  189.6640  177.0350  140.0390 C   0  0  0  0  0  3  0  0  0  0  0  0
  187.6100  178.2190  140.4240 C   0  0  0  0  0  3  0  0  0  0  0  0
  189.4030  177.0620  138.6960 C   0  0  0  0  0  0  0  0  0  0  0  0
  188.2040  177.6510  138.2870 C   0  0  0  0  0  3  0  0  0  0  0  0
  188.9770  177.5890  142.3700 C   0  0  0  0  0  0  0  0  0  0  0  0
  189.0230  177.7280  145.1850 N   0  0  0  0  0  0  0  0  0  0  0  0
  187.9160  177.7970  143.0480 N   0  0  0  0  0  0  0  0  0  0  0  0
  190.1760  177.4070  143.1130 C   0  0  0  0  0  3  0  0  0  0  0  0
  190.2130  177.4840  144.5390 C   0  0  0  0  0  3  0  0  0  0  0  0
  187.8960  177.8750  144.4300 C   0  0  0  0  0  0  0  0  0  0  0  0
  185.3970  178.2440  143.9410 C   0  0  0  0  0  2  0  0  0  0  0  0
  186.1570  178.4640  146.1400 C   0  0  0  0  0  3  0  0  0  0  0  0
  186.4730  178.1570  144.8160 C   0  0  0  0  0  0  0  0  0  0  0  0
  184.8860  178.8390  146.5700 N   0  0  0  0  0  2  0  0  0  0  0  0
  184.0460  178.6440  144.4220 C   0  0  0  0  0  0  0  0  0  0  0  0
  183.8770  178.9170  145.7260 N   0  0  0  0  0  0  0  0  0  0  0  0
  181.6940  179.0000  143.9690 C   0  0  0  0  0  1  0  0  0  0  0  0
  183.0020  178.7400  143.4900 O   0  0  0  0  0  0  0  0  0  0  0  0
  186.2140  178.9780  138.6260 N   0  0  0  0  0  2  0  0  0  0  0  0
  184.5220  179.0200  139.0930 S   0  0  0  0  0  0  0  0  0  0  0  0
  184.4260  178.4110  140.4360 O   0  0  0  0  0  0  0  0  0  0  0  0
  183.9340  180.4080  139.1000 O   0  0  0  0  0  0  0  0  0  0  0  0
  184.1320  176.6570  137.9990 N   0  0  0  0  0  1  0  0  0  0  0  0
  183.5990  177.9990  137.9470 C   0  0  1  0  0  3  0  0  0  0  0  0
  181.3240  177.5330  139.0950 C   0  0  1  0  0  3  0  0  0  0  0  0
  181.3570  177.2320  137.0010 C   0  0  0  0  0  2  0  0  0  0  0  0
  180.0060  176.7810  138.1620 S   0  0  0  0  0  0  0  0  0  0  0  0
  182.0690  178.1320  137.9590 C   0  0  2  0  0  3  0  0  0  0  0  0
  181.0440  178.2050  140.3710 C   0  0  0  0  0  3  0  0  0  0  0  0
  180.5410  179.4420  140.4190 C   0  0  0  0  0  2  0  0  0  0  0  0
  189.9640  176.0040  137.8570 C   0  0  0  0  0  2  0  0  0  0  0  0
  193.5860  173.0370  136.8220 C   0  0  0  0  0  2  0  0  0  0  0  0
  195.6330  174.2530  137.7250 C   0  0  2  0  0  3  0  0  0  0  0  0
  190.9150  173.6980  137.2770 O   0  0  0  0  0  0  0  0  0  0  0  0
  195.1610  173.1140  136.8550 C   0  0  0  0  0  2  0  0  0  0  0  0
  191.7960  174.5840  137.5490 C   0  0  0  0  0  0  0  0  0  0  0  0
  191.3990  175.9340  137.8040 N   0  0  0  0  0  2  0  0  0  0  0  0
  193.1640  174.1810  137.5110 N   0  0  0  0  0  0  0  0  0  0  0  0
  194.3080  175.0120  137.9350 C   0  0  0  0  0  2  0  0  0  0  0  0
  196.9340  174.8460  137.5920 O   0  0  0  0  0  0  0  0  0  0  0  0
  198.6260  175.6110  135.5540 O   0  0  0  0  0  0  0  0  0  0  0  0
  197.2000  175.4930  136.0570 P   0  0  0  0  0  0  0  0  0  0  0  0
  196.1660  175.5300  134.9100 O   0  0  0  0  0  0  0  0  0  0  0  0
  1  4  1  0  0  0  0
  2  7  1  0  0  0  0
  3  2  1  0  0  0  0
  4  2  2  0  0  0  0
  5  3  2  0  0  0  0
  6  5  1  0  0  0  0
  6  1  2  0  0  0  0
  7  9  2  0  0  0  0
  7 10  1  0  0  0  0
  9 12  1  0  0  0  0
 10 11  2  0  0  0  0
 11  8  1  0  0  0  0
 12 15  1  0  0  0  0
 12  8  2  0  0  0  0
 13 17  1  0  0  0  0
 13 15  1  0  0  0  0
 14 16  1  0  0  0  0
 15 14  2  0  0  0  0
 17 18  2  0  0  0  0
 18 16  1  0  0  0  0
 20 19  1  0  0  0  0
 20 17  1  0  0  0  0
 21 22  1  0  0  0  0
 21  1  1  0  0  0  0
 22 24  2  0  0  0  0
 22 23  2  0  0  0  0
 26 25  1  1  0  0  0
 26 22  1  0  0  0  0
 27 31  1  1  0  0  0
 28 30  1  0  0  0  0
 28 29  1  0  0  0  0
 29 27  1  0  0  0  0
 30 26  1  1  0  0  0
 30 27  1  0  0  0  0
 31 32  2  0  0  0  0
 33  5  1  0  0  0  0
 34 37  1  0  0  0  0
 34 40  1  0  0  0  0
 35 42  1  6  0  0  0
 35 41  1  0  0  0  0
 36 38  2  0  0  0  0
 37 35  1  0  0  0  0
 38 39  1  0  0  0  0
 39 33  1  0  0  0  0
 40 38  1  0  0  0  0
 40 41  1  0  0  0  0
 43 44  2  0  0  0  0
 44 42  1  0  0  0  0
 45 44  2  0  0  0  0
M  END
>  <MODEL>
9

>  <REMARK>
 VINA RESULT:      -8.5      1.631      2.222
  Name = 
  12 active torsions:
  status: ('A' for Active; 'I' for Inactive)
    1  A    between atoms: C_2  and  C_6
    2  A    between atoms: S_3  and  N_9
    3  A    between atoms: S_3  and  C_38
    4  A    between atoms: C_4  and  C_12
    5  A    between atoms: C_8  and  N_9
    6  A    between atoms: C_10  and  O_18
    7  A    between atoms: C_17  and  C_26
    8  A    between atoms: C_17  and  N_36
    9  A    between atoms: O_18  and  P_19
   10  A    between atoms: O_27  and  C_41
   11  A    between atoms: C_33  and  C_37
   12  A    between atoms: C_38  and  C_45
                            x       y       z     vdW  Elec       q    Type
                         _______ _______ _______ _____ _____    ______ ____

>  <TORSDO>
F 12

$$$$
