=
 OpenBabel11042412513D

 43 49  0  0  1  0  0  0  0  0999 V2000
  186.9780  177.8700  141.5260 N   0  0  0  0  0  0  0  0  0  0  0  0
  185.7450  178.3180  140.9030 C   0  0  0  0  0  2  0  0  0  0  0  0
  188.2580  178.2350  141.3660 C   0  0  0  0  0  0  0  0  0  0  0  0
  188.2850  176.5270  137.9520 C   0  0  0  0  0  2  0  0  0  0  0  0
  186.8080  177.6890  142.8250 C   0  0  0  0  0  0  0  0  0  0  0  0
  182.4130  175.6910  138.9030 C   0  0  0  0  0  2  0  0  0  0  0  0
  188.8480  178.1950  142.6240 C   0  0  0  0  0  0  0  0  0  0  0  0
  182.8120  178.6080  139.6180 C   0  0  0  0  0  0  0  0  0  0  0  0
  189.8120  177.8700  139.3900 C   0  0  2  0  0  3  0  0  0  0  0  0
  183.1780  174.7960  136.7220 C   0  0  0  0  0  0  0  0  0  0  0  0
  185.0850  174.1700  135.2840 C   0  0  0  0  0  2  0  0  0  0  0  0
  187.9150  177.9070  143.5640 N   0  0  0  0  0  0  0  0  0  0  0  0
  182.6480  179.1410  140.7980 C   0  0  0  0  0  0  0  0  0  0  0  0
  188.8280  178.8070  140.1000 C   0  0  0  0  0  2  0  0  0  0  0  0
  189.2340  176.4860  139.1320 C   0  0  0  0  0  2  0  0  0  0  0  0
  186.1800  173.9870  136.3230 C   0  0  0  0  0  2  0  0  0  0  0  0
  183.3800  178.7570  142.0090 C   0  0  0  0  0  0  0  0  0  0  0  0
  184.7890  178.3100  142.0830 C   0  0  0  0  0  0  0  0  0  0  0  0
  180.1900  179.8310  140.6220 N   0  0  0  0  0  1  0  0  0  0  0  0
  182.9360  173.5940  137.0170 O   0  0  0  0  0  0  0  0  0  0  0  0
  182.6170  178.8940  143.0470 N   0  0  0  0  0  0  0  0  0  0  0  0
  185.4360  177.9370  143.2000 C   0  0  0  0  0  0  0  0  0  0  0  0
  181.3490  179.3300  142.6450 N   0  0  0  0  0  0  0  0  0  0  0  0
  182.4420  175.9020  137.4020 C   0  0  2  0  0  3  0  0  0  0  0  0
  186.9090  175.3000  136.5390 C   0  0  0  0  0  2  0  0  0  0  0  0
  187.7800  175.1920  137.6920 N   0  0  0  0  0  2  0  0  0  0  0  0
  183.4180  176.6520  138.2960 C   0  0  1  0  0  3  0  0  0  0  0  0
  184.9030  177.9080  144.5940 C   0  0  0  0  0  1  0  0  0  0  0  0
  181.3500  179.4690  141.3640 C   0  0  0  0  0  0  0  0  0  0  0  0
  191.0500  177.7570  140.1390 N   0  0  0  0  0  1  0  0  0  0  0  0
  184.1280  175.1140  135.7490 O   0  0  0  0  0  0  0  0  0  0  0  0
  182.9570  178.0630  138.4400 C   0  0  0  0  0  3  0  0  0  0  0  0
  190.2280  178.6590  142.9580 C   0  0  0  0  0  2  0  0  0  0  0  0
  190.9580  177.6020  143.7650 C   0  0  1  0  0  3  0  0  0  0  0  0
  191.9960  178.2090  144.4910 O   0  0  0  0  0  0  0  0  0  0  0  0
  190.8270  177.8950  145.2070 C   0  0  2  0  0  3  0  0  0  0  0  0
  191.0620  176.6280  146.0060 C   0  0  0  0  0  2  0  0  0  0  0  0
  188.8070  176.7490  146.5950 C   0  0  0  0  0  2  0  0  0  0  0  0
  188.0200  177.5770  147.5870 C   0  0  1  0  0  3  0  0  0  0  0  0
  189.0530  178.2600  148.4480 C   0  0  0  0  0  2  0  0  0  0  0  0
  187.2650  178.5330  146.9050 O   0  0  0  0  0  1  0  0  0  0  0  0
  190.1460  176.5750  147.1320 N   0  0  0  0  0  0  0  0  0  0  0  0
  190.3920  177.7570  147.9470 C   0  0  0  0  0  2  0  0  0  0  0  0
  1  5  1  0  0  0  0
  2  1  1  0  0  0  0
  2 18  1  0  0  0  0
  3  1  1  0  0  0  0
  3  7  2  0  0  0  0
  4 15  1  0  0  0  0
  5 22  1  0  0  0  0
  5 12  2  0  0  0  0
  7 33  1  0  0  0  0
  7 12  1  0  0  0  0
  8 13  2  0  0  0  0
  9 14  1  0  0  0  0
  9 30  1  1  0  0  0
 10 20  2  0  0  0  0
 10 24  1  0  0  0  0
 11 31  1  0  0  0  0
 11 16  1  0  0  0  0
 13 29  1  0  0  0  0
 13 17  1  0  0  0  0
 14  3  1  0  0  0  0
 15  9  1  0  0  0  0
 16 25  1  0  0  0  0
 17 18  1  0  0  0  0
 17 21  2  0  0  0  0
 18 22  2  0  0  0  0
 19 29  1  0  0  0  0
 22 28  1  0  0  0  0
 23 21  1  0  0  0  0
 24 27  1  0  0  0  0
 24  6  1  1  0  0  0
 25 26  1  0  0  0  0
 26  4  1  0  0  0  0
 27 32  1  1  0  0  0
 27  6  1  0  0  0  0
 29 23  2  0  0  0  0
 31 10  1  0  0  0  0
 32  8  2  0  0  0  0
 34 33  1  6  0  0  0
 34 35  1  0  0  0  0
 34 36  1  0  0  0  0
 35 36  1  0  0  0  0
 36 37  1  1  0  0  0
 37 42  1  0  0  0  0
 38 42  1  0  0  0  0
 38 39  1  0  0  0  0
 39 41  1  6  0  0  0
 39 40  1  0  0  0  0
 42 43  1  0  0  0  0
 43 40  1  0  0  0  0
M  END
>  <MODEL>
1

>  <REMARK>
 VINA RESULT:      -8.2      0.000      0.000
  Name = 
  4 active torsions:
  status: ('A' for Active; 'I' for Inactive)
    1  A    between atoms: C_5  and  C_9
    2  A    between atoms: C_5  and  C_22
    3  A    between atoms: C_12  and  N_24
    4  A    between atoms: C_12  and  C_42
                            x       y       z     vdW  Elec       q    Type
                         _______ _______ _______ _____ _____    ______ ____

>  <TORSDO>
F 4

$$$$
=
 OpenBabel11042412513D

 43 49  0  0  1  0  0  0  0  0999 V2000
  184.1910  177.3810  138.6310 N   0  0  0  0  0  0  0  0  0  0  0  0
  185.5110  177.8310  138.2280 C   0  0  0  0  0  2  0  0  0  0  0  0
  183.0980  178.0370  139.0470 C   0  0  0  0  0  0  0  0  0  0  0  0
  184.8510  178.7990  142.3510 C   0  0  0  0  0  2  0  0  0  0  0  0
  183.7600  176.4190  137.8310 C   0  0  0  0  0  0  0  0  0  0  0  0
  189.6680  176.3020  139.7710 C   0  0  0  0  0  2  0  0  0  0  0  0
  182.0010  177.3740  138.5080 C   0  0  0  0  0  0  0  0  0  0  0  0
  188.6500  178.1910  137.6330 C   0  0  0  0  0  0  0  0  0  0  0  0
  182.6890  179.2910  141.2170 C   0  0  2  0  0  3  0  0  0  0  0  0
  190.1080  177.1030  142.0750 C   0  0  0  0  0  0  0  0  0  0  0  0
  189.1700  177.9090  144.2130 C   0  0  0  0  0  2  0  0  0  0  0  0
  182.4190  176.3810  137.6850 N   0  0  0  0  0  0  0  0  0  0  0  0
  188.1860  177.8500  136.4620 C   0  0  0  0  0  0  0  0  0  0  0  0
  183.1170  179.3640  139.7470 C   0  0  0  0  0  2  0  0  0  0  0  0
  183.4750  178.2610  142.0150 C   0  0  0  0  0  2  0  0  0  0  0  0
  187.7480  177.3800  144.1200 C   0  0  0  0  0  2  0  0  0  0  0  0
  187.0270  176.9840  136.2310 C   0  0  0  0  0  0  0  0  0  0  0  0
  185.8060  176.9040  137.0630 C   0  0  0  0  0  0  0  0  0  0  0  0
  190.3490  177.9500  135.0960 N   0  0  0  0  0  1  0  0  0  0  0  0
  190.3230  175.9510  142.5420 O   0  0  0  0  0  0  0  0  0  0  0  0
  187.2010  176.2940  135.1470 N   0  0  0  0  0  0  0  0  0  0  0  0
  184.7630  176.0840  136.8490 C   0  0  0  0  0  0  0  0  0  0  0  0
  188.4510  176.5950  134.5940 N   0  0  0  0  0  0  0  0  0  0  0  0
  190.3130  177.3790  140.6230 C   0  0  2  0  0  3  0  0  0  0  0  0
  186.8570  178.4140  143.4590 C   0  0  0  0  0  2  0  0  0  0  0  0
  185.5690  177.8230  143.1490 N   0  0  0  0  0  2  0  0  0  0  0  0
  188.9550  177.6250  139.9840 C   0  0  1  0  0  3  0  0  0  0  0  0
  184.5890  175.1020  135.7390 C   0  0  0  0  0  1  0  0  0  0  0  0
  189.0270  177.4760  135.3360 C   0  0  0  0  0  0  0  0  0  0  0  0
  181.2670  179.0210  141.3290 N   0  0  0  0  0  1  0  0  0  0  0  0
  189.6870  178.1420  142.9090 O   0  0  0  0  0  0  0  0  0  0  0  0
  189.1310  178.5180  138.8020 C   0  0  0  0  0  3  0  0  0  0  0  0
  180.5810  177.8280  138.5830 C   0  0  0  0  0  2  0  0  0  0  0  0
  180.2430  178.7020  137.3900 C   0  0  1  0  0  3  0  0  0  0  0  0
  178.9520  179.2310  137.5540 O   0  0  0  0  0  0  0  0  0  0  0  0
  180.0270  180.0930  137.8350 C   0  0  2  0  0  3  0  0  0  0  0  0
  180.2230  181.0370  136.6630 C   0  0  0  0  0  2  0  0  0  0  0  0
  179.7200  183.1790  135.8850 C   0  0  0  0  0  2  0  0  0  0  0  0
  180.3530  184.5410  136.0640 C   0  0  1  0  0  3  0  0  0  0  0  0
  181.3750  184.3670  137.1610 C   0  0  0  0  0  2  0  0  0  0  0  0
  180.9900  184.9220  134.8820 O   0  0  0  0  0  1  0  0  0  0  0  0
  179.9900  182.4070  137.0860 N   0  0  0  0  0  0  0  0  0  0  0  0
  181.2510  182.9220  137.6010 C   0  0  0  0  0  2  0  0  0  0  0  0
  1  3  1  0  0  0  0
  2  1  1  0  0  0  0
  3 14  1  0  0  0  0
  4 26  1  0  0  0  0
  5  1  1  0  0  0  0
  6 27  1  0  0  0  0
  7 33  1  0  0  0  0
  7  3  2  0  0  0  0
  8 32  2  0  0  0  0
  9 30  1  6  0  0  0
  9 15  1  0  0  0  0
 10 20  2  0  0  0  0
 10 31  1  0  0  0  0
 12  5  2  0  0  0  0
 12  7  1  0  0  0  0
 13  8  2  0  0  0  0
 14  9  1  0  0  0  0
 15  4  1  0  0  0  0
 16 11  1  0  0  0  0
 17 13  1  0  0  0  0
 17 18  1  0  0  0  0
 18  2  1  0  0  0  0
 19 29  1  0  0  0  0
 21 17  2  0  0  0  0
 22 18  2  0  0  0  0
 22  5  1  0  0  0  0
 23 21  1  0  0  0  0
 23 29  2  0  0  0  0
 24  6  1  6  0  0  0
 24 10  1  0  0  0  0
 25 16  1  0  0  0  0
 26 25  1  0  0  0  0
 27 32  1  6  0  0  0
 27 24  1  0  0  0  0
 28 22  1  0  0  0  0
 29 13  1  0  0  0  0
 31 11  1  0  0  0  0
 34 35  1  0  0  0  0
 34 36  1  0  0  0  0
 34 33  1  1  0  0  0
 35 36  1  0  0  0  0
 36 37  1  6  0  0  0
 37 42  1  0  0  0  0
 38 39  1  0  0  0  0
 38 42  1  0  0  0  0
 39 41  1  6  0  0  0
 39 40  1  0  0  0  0
 40 43  1  0  0  0  0
 42 43  1  0  0  0  0
M  END
>  <MODEL>
2

>  <REMARK>
 VINA RESULT:      -7.5      3.557      9.954
  Name = 
  4 active torsions:
  status: ('A' for Active; 'I' for Inactive)
    1  A    between atoms: C_5  and  C_9
    2  A    between atoms: C_5  and  C_22
    3  A    between atoms: C_12  and  N_24
    4  A    between atoms: C_12  and  C_42
                            x       y       z     vdW  Elec       q    Type
                         _______ _______ _______ _____ _____    ______ ____

>  <TORSDO>
F 4

$$$$
=
 OpenBabel11042412513D

 43 49  0  0  1  0  0  0  0  0999 V2000
  188.9730  176.3030  137.6080 N   0  0  0  0  0  0  0  0  0  0  0  0
  187.6590  176.8950  137.4250 C   0  0  0  0  0  2  0  0  0  0  0  0
  190.0410  176.2030  136.8040 C   0  0  0  0  0  0  0  0  0  0  0  0
  188.1670  173.6340  134.6910 C   0  0  0  0  0  2  0  0  0  0  0  0
  189.4450  176.5750  138.8140 C   0  0  0  0  0  0  0  0  0  0  0  0
  183.4790  174.9210  138.2190 C   0  0  0  0  0  2  0  0  0  0  0  0
  191.1650  176.3620  137.6060 C   0  0  0  0  0  0  0  0  0  0  0  0
  184.5360  177.6570  137.4620 C   0  0  0  0  0  0  0  0  0  0  0  0
  190.3570  174.8190  134.6980 C   0  0  2  0  0  3  0  0  0  0  0  0
  182.9500  173.2340  136.4820 C   0  0  0  0  0  0  0  0  0  0  0  0
  183.8050  171.6670  134.7750 C   0  0  0  0  0  2  0  0  0  0  0  0
  190.7900  176.6600  138.8740 N   0  0  0  0  0  0  0  0  0  0  0  0
  185.0440  178.5400  138.2790 C   0  0  0  0  0  0  0  0  0  0  0  0
  189.9770  176.1750  135.3050 C   0  0  0  0  0  2  0  0  0  0  0  0
  189.5620  173.6620  135.2820 C   0  0  0  0  0  2  0  0  0  0  0  0
  185.2370  171.4800  135.2480 C   0  0  0  0  0  2  0  0  0  0  0  0
  186.2240  178.3310  139.1230 C   0  0  0  0  0  0  0  0  0  0  0  0
  187.4180  177.5240  138.7850 C   0  0  0  0  0  0  0  0  0  0  0  0
  182.9260  179.8520  138.8670 N   0  0  0  0  0  1  0  0  0  0  0  0
  182.7390  172.3040  137.3080 O   0  0  0  0  0  0  0  0  0  0  0  0
  186.0960  178.9920  140.2310 N   0  0  0  0  0  0  0  0  0  0  0  0
  188.4800  177.3240  139.5840 C   0  0  0  0  0  0  0  0  0  0  0  0
  184.8600  179.6490  140.2470 N   0  0  0  0  0  0  0  0  0  0  0  0
  182.7890  174.6590  136.8940 C   0  0  2  0  0  3  0  0  0  0  0  0
  186.1330  172.5160  134.5960 C   0  0  0  0  0  2  0  0  0  0  0  0
  187.4400  172.4980  135.2250 N   0  0  0  0  0  2  0  0  0  0  0  0
  184.1630  175.3110  136.9210 C   0  0  1  0  0  3  0  0  0  0  0  0
  188.7060  177.8700  140.9530 C   0  0  0  0  0  1  0  0  0  0  0  0
  184.2460  179.3950  139.1430 C   0  0  0  0  0  0  0  0  0  0  0  0
  191.7800  174.5670  134.8470 N   0  0  0  0  0  1  0  0  0  0  0  0
  183.3270  172.9470  135.1680 O   0  0  0  0  0  0  0  0  0  0  0  0
  184.0120  176.7710  136.6600 C   0  0  0  0  0  3  0  0  0  0  0  0
  192.5750  176.4670  137.1250 C   0  0  0  0  0  2  0  0  0  0  0  0
  193.5090  175.7310  138.0670 C   0  0  1  0  0  3  0  0  0  0  0  0
  193.2780  174.3490  137.9610 O   0  0  0  0  0  0  0  0  0  0  0  0
  194.4090  174.8530  137.2930 C   0  0  2  0  0  3  0  0  0  0  0  0
  195.6470  174.5430  138.1130 C   0  0  0  0  0  2  0  0  0  0  0  0
  197.8650  174.3180  137.4250 C   0  0  0  0  0  2  0  0  0  0  0  0
  198.5380  174.1270  136.0840 C   0  0  1  0  0  3  0  0  0  0  0  0
  197.4220  173.8230  135.1150 C   0  0  0  0  0  2  0  0  0  0  0  0
  199.1810  175.3090  135.7090 O   0  0  0  0  0  1  0  0  0  0  0  0
  196.5500  173.7020  137.3490 N   0  0  0  0  0  0  0  0  0  0  0  0
  196.1570  173.8020  135.9500 C   0  0  0  0  0  2  0  0  0  0  0  0
  1  5  1  0  0  0  0
  2  1  1  0  0  0  0
  2 18  1  0  0  0  0
  3  7  2  0  0  0  0
  3  1  1  0  0  0  0
  4 26  1  0  0  0  0
  4 15  1  0  0  0  0
  5 12  2  0  0  0  0
  5 22  1  0  0  0  0
  7 12  1  0  0  0  0
  8 13  2  0  0  0  0
  9 30  1  1  0  0  0
  9 15  1  0  0  0  0
  9 14  1  0  0  0  0
 10 24  1  0  0  0  0
 10 20  2  0  0  0  0
 11 31  1  0  0  0  0
 11 16  1  0  0  0  0
 13 17  1  0  0  0  0
 13 29  1  0  0  0  0
 14  3  1  0  0  0  0
 17 21  2  0  0  0  0
 18 17  1  0  0  0  0
 18 22  2  0  0  0  0
 19 29  1  0  0  0  0
 21 23  1  0  0  0  0
 22 28  1  0  0  0  0
 24 27  1  0  0  0  0
 24  6  1  1  0  0  0
 25 26  1  0  0  0  0
 25 16  1  0  0  0  0
 27 32  1  1  0  0  0
 27  6  1  0  0  0  0
 29 23  2  0  0  0  0
 31 10  1  0  0  0  0
 32  8  2  0  0  0  0
 33  7  1  0  0  0  0
 34 33  1  6  0  0  0
 35 34  1  0  0  0  0
 36 35  1  0  0  0  0
 36 34  1  0  0  0  0
 36 37  1  1  0  0  0
 39 41  1  6  0  0  0
 39 38  1  0  0  0  0
 40 43  1  0  0  0  0
 40 39  1  0  0  0  0
 42 38  1  0  0  0  0
 42 37  1  0  0  0  0
 43 42  1  0  0  0  0
M  END
>  <MODEL>
3

>  <REMARK>
 VINA RESULT:      -7.5      4.517      7.095
  Name = 
  4 active torsions:
  status: ('A' for Active; 'I' for Inactive)
    1  A    between atoms: C_5  and  C_9
    2  A    between atoms: C_5  and  C_22
    3  A    between atoms: C_12  and  N_24
    4  A    between atoms: C_12  and  C_42
                            x       y       z     vdW  Elec       q    Type
                         _______ _______ _______ _____ _____    ______ ____

>  <TORSDO>
F 4

$$$$
=
 OpenBabel11042412513D

 43 49  0  0  1  0  0  0  0  0999 V2000
  188.6600  177.2690  139.7620 N   0  0  0  0  0  0  0  0  0  0  0  0
  187.5500  178.0320  140.3060 C   0  0  0  0  0  2  0  0  0  0  0  0
  189.6070  177.5650  138.8610 C   0  0  0  0  0  0  0  0  0  0  0  0
  186.9740  177.4410  136.1000 C   0  0  0  0  0  2  0  0  0  0  0  0
  189.2630  176.5760  140.7140 C   0  0  0  0  0  0  0  0  0  0  0  0
  183.0470  176.7530  140.5930 C   0  0  0  0  0  2  0  0  0  0  0  0
  190.7800  176.9570  139.2940 C   0  0  0  0  0  0  0  0  0  0  0  0
  184.7650  179.0630  141.5350 C   0  0  0  0  0  0  0  0  0  0  0  0
  189.4010  177.9360  136.3570 C   0  0  2  0  0  3  0  0  0  0  0  0
  181.9690  176.7930  138.3620 C   0  0  0  0  0  0  0  0  0  0  0  0
  182.2530  176.6750  135.9120 C   0  0  0  0  0  2  0  0  0  0  0  0
  190.5800  176.3770  140.5040 N   0  0  0  0  0  0  0  0  0  0  0  0
  185.5440  179.0670  142.5820 C   0  0  0  0  0  0  0  0  0  0  0  0
  189.4460  178.5650  137.7540 C   0  0  0  0  0  2  0  0  0  0  0  0
  188.3570  176.8360  136.2330 C   0  0  0  0  0  2  0  0  0  0  0  0
  183.6060  175.9890  135.8120 C   0  0  0  0  0  2  0  0  0  0  0  0
  186.6720  178.1560  142.7990 C   0  0  0  0  0  0  0  0  0  0  0  0
  187.5760  177.6080  141.7630 C   0  0  0  0  0  0  0  0  0  0  0  0
  183.9080  179.9600  144.3360 N   0  0  0  0  0  1  0  0  0  0  0  0
  181.5620  175.6000  138.4260 O   0  0  0  0  0  0  0  0  0  0  0  0
  186.8000  177.9060  144.0650 N   0  0  0  0  0  0  0  0  0  0  0  0
  188.5900  176.7530  141.9790 C   0  0  0  0  0  0  0  0  0  0  0  0
  185.7950  178.5700  144.7790 N   0  0  0  0  0  0  0  0  0  0  0  0
  182.2300  177.5680  139.6090 C   0  0  2  0  0  3  0  0  0  0  0  0
  184.7090  177.0290  135.7850 C   0  0  0  0  0  2  0  0  0  0  0  0
  185.9970  176.3810  135.9370 N   0  0  0  0  0  2  0  0  0  0  0  0
  183.7290  177.7970  139.7290 C   0  0  1  0  0  3  0  0  0  0  0  0
  189.0420  176.1880  143.2840 C   0  0  0  0  0  1  0  0  0  0  0  0
  185.0670  179.2300  143.9460 C   0  0  0  0  0  0  0  0  0  0  0  0
  190.7060  177.4230  135.9790 N   0  0  0  0  0  1  0  0  0  0  0  0
  182.1700  177.4110  137.1250 O   0  0  0  0  0  0  0  0  0  0  0  0
  183.9690  179.0500  140.5000 C   0  0  0  0  0  3  0  0  0  0  0  0
  192.1320  177.1280  138.6840 C   0  0  0  0  0  2  0  0  0  0  0  0
  192.5200  175.8840  137.9080 C   0  0  1  0  0  3  0  0  0  0  0  0
  193.6430  176.1660  137.1120 O   0  0  0  0  0  0  0  0  0  0  0  0
  193.8770  175.4520  138.3010 C   0  0  2  0  0  3  0  0  0  0  0  0
  194.0600  173.9840  137.9680 C   0  0  0  0  0  2  0  0  0  0  0  0
  195.9790  174.6410  139.1220 C   0  0  0  0  0  2  0  0  0  0  0  0
  197.4610  174.4330  138.9060 C   0  0  1  0  0  3  0  0  0  0  0  0
  197.5660  173.3970  137.8130 C   0  0  0  0  0  2  0  0  0  0  0  0
  198.0450  175.6280  138.4820 O   0  0  0  0  0  1  0  0  0  0  0  0
  195.2880  173.4890  138.5650 N   0  0  0  0  0  0  0  0  0  0  0  0
  196.1370  173.0160  137.4810 C   0  0  0  0  0  2  0  0  0  0  0  0
  1  2  1  0  0  0  0
  1  5  1  0  0  0  0
  2 18  1  0  0  0  0
  3  7  2  0  0  0  0
  3  1  1  0  0  0  0
  4 15  1  0  0  0  0
  5 22  1  0  0  0  0
  7 12  1  0  0  0  0
  8 13  2  0  0  0  0
  9 30  1  1  0  0  0
  9 14  1  0  0  0  0
 10 20  2  0  0  0  0
 10 24  1  0  0  0  0
 11 31  1  0  0  0  0
 12  5  2  0  0  0  0
 13 17  1  0  0  0  0
 13 29  1  0  0  0  0
 14  3  1  0  0  0  0
 15  9  1  0  0  0  0
 16 11  1  0  0  0  0
 17 21  2  0  0  0  0
 18 22  2  0  0  0  0
 18 17  1  0  0  0  0
 21 23  1  0  0  0  0
 22 28  1  0  0  0  0
 24 27  1  0  0  0  0
 24  6  1  1  0  0  0
 25 16  1  0  0  0  0
 25 26  1  0  0  0  0
 26  4  1  0  0  0  0
 27 32  1  1  0  0  0
 27  6  1  0  0  0  0
 29 19  1  0  0  0  0
 29 23  2  0  0  0  0
 31 10  1  0  0  0  0
 32  8  2  0  0  0  0
 33  7  1  0  0  0  0
 34 36  1  0  0  0  0
 34 33  1  1  0  0  0
 35 34  1  0  0  0  0
 35 36  1  0  0  0  0
 36 37  1  6  0  0  0
 37 42  1  0  0  0  0
 39 41  1  6  0  0  0
 39 38  1  0  0  0  0
 40 39  1  0  0  0  0
 42 38  1  0  0  0  0
 43 40  1  0  0  0  0
 43 42  1  0  0  0  0
M  END
>  <MODEL>
4

>  <REMARK>
 VINA RESULT:      -7.3      3.855      6.109
  Name = 
  4 active torsions:
  status: ('A' for Active; 'I' for Inactive)
    1  A    between atoms: C_5  and  C_9
    2  A    between atoms: C_5  and  C_22
    3  A    between atoms: C_12  and  N_24
    4  A    between atoms: C_12  and  C_42
                            x       y       z     vdW  Elec       q    Type
                         _______ _______ _______ _____ _____    ______ ____

>  <TORSDO>
F 4

$$$$
=
 OpenBabel11042412513D

 43 49  0  0  1  0  0  0  0  0999 V2000
  185.4010  176.9950  137.5030 N   0  0  0  0  0  0  0  0  0  0  0  0
  184.2070  177.1160  136.6850 C   0  0  0  0  0  2  0  0  0  0  0  0
  186.7010  176.8870  137.1960 C   0  0  0  0  0  0  0  0  0  0  0  0
  186.0790  173.3300  135.9570 C   0  0  0  0  0  2  0  0  0  0  0  0
  185.3360  177.8040  138.5470 C   0  0  0  0  0  0  0  0  0  0  0  0
  180.2810  174.5610  136.9310 C   0  0  0  0  0  2  0  0  0  0  0  0
  187.4020  177.6160  138.1500 C   0  0  0  0  0  0  0  0  0  0  0  0
  181.2530  177.0010  135.4210 C   0  0  0  0  0  0  0  0  0  0  0  0
  187.9560  174.9590  136.1190 C   0  0  2  0  0  3  0  0  0  0  0  0
  180.6500  172.2780  136.0390 C   0  0  0  0  0  0  0  0  0  0  0  0
  182.2610  170.4730  135.5460 C   0  0  0  0  0  2  0  0  0  0  0  0
  186.5350  178.2510  138.9760 N   0  0  0  0  0  0  0  0  0  0  0  0
  181.3070  178.2210  135.8810 C   0  0  0  0  0  0  0  0  0  0  0  0
  187.2290  176.2940  135.9220 C   0  0  0  0  0  2  0  0  0  0  0  0
  187.1230  173.9340  136.8740 C   0  0  0  0  0  2  0  0  0  0  0  0
  183.4090  170.8520  136.4680 C   0  0  0  0  0  2  0  0  0  0  0  0
  182.0810  178.6500  137.0490 C   0  0  0  0  0  0  0  0  0  0  0  0
  183.3910  178.1160  137.4840 C   0  0  0  0  0  0  0  0  0  0  0  0
  179.0010  179.0590  135.1510 N   0  0  0  0  0  1  0  0  0  0  0  0
  180.2340  171.6960  137.0780 O   0  0  0  0  0  0  0  0  0  0  0  0
  181.4640  179.6150  137.6560 N   0  0  0  0  0  0  0  0  0  0  0  0
  184.0750  178.5060  138.5730 C   0  0  0  0  0  0  0  0  0  0  0  0
  180.2570  179.8880  137.0020 N   0  0  0  0  0  0  0  0  0  0  0  0
  180.1920  173.6610  135.7140 C   0  0  2  0  0  3  0  0  0  0  0  0
  184.3730  171.7690  135.7400 C   0  0  0  0  0  2  0  0  0  0  0  0
  185.3260  172.3230  136.6810 N   0  0  0  0  0  2  0  0  0  0  0  0
  181.3700  174.6090  135.8750 C   0  0  1  0  0  3  0  0  0  0  0  0
  183.6910  179.5560  139.5610 C   0  0  0  0  0  1  0  0  0  0  0  0
  180.1510  179.0950  135.9910 C   0  0  0  0  0  0  0  0  0  0  0  0
  189.2270  175.1580  136.7930 N   0  0  0  0  0  1  0  0  0  0  0  0
  181.5360  171.6370  135.1700 O   0  0  0  0  0  0  0  0  0  0  0  0
  181.1790  175.7780  134.9690 C   0  0  0  0  0  3  0  0  0  0  0  0
  188.8680  177.8990  138.1320 C   0  0  0  0  0  2  0  0  0  0  0  0
  189.5810  177.0500  139.1670 C   0  0  1  0  0  3  0  0  0  0  0  0
  190.9020  177.5070  139.3110 O   0  0  0  0  0  0  0  0  0  0  0  0
  189.9880  177.8920  140.3100 C   0  0  2  0  0  3  0  0  0  0  0  0
  190.1980  177.0200  141.5340 C   0  0  0  0  0  2  0  0  0  0  0  0
  191.4830  177.4230  143.4400 C   0  0  0  0  0  2  0  0  0  0  0  0
  191.1780  177.5020  144.9190 C   0  0  1  0  0  3  0  0  0  0  0  0
  189.6730  177.5190  145.0180 C   0  0  0  0  0  2  0  0  0  0  0  0
  191.6810  176.3700  145.5620 O   0  0  0  0  0  1  0  0  0  0  0  0
  190.2930  177.8500  142.7220 N   0  0  0  0  0  0  0  0  0  0  0  0
  189.1750  177.5000  143.5860 C   0  0  0  0  0  2  0  0  0  0  0  0
  1  5  1  0  0  0  0
  2 18  1  0  0  0  0
  2  1  1  0  0  0  0
  3  1  1  0  0  0  0
  3  7  2  0  0  0  0
  4 26  1  0  0  0  0
  4 15  1  0  0  0  0
  5 22  1  0  0  0  0
  5 12  2  0  0  0  0
  7 12  1  0  0  0  0
  8 13  2  0  0  0  0
  9 30  1  1  0  0  0
  9 15  1  0  0  0  0
 10 20  2  0  0  0  0
 11 16  1  0  0  0  0
 13 29  1  0  0  0  0
 13 17  1  0  0  0  0
 14  9  1  0  0  0  0
 14  3  1  0  0  0  0
 17 18  1  0  0  0  0
 17 21  2  0  0  0  0
 18 22  2  0  0  0  0
 19 29  1  0  0  0  0
 22 28  1  0  0  0  0
 23 21  1  0  0  0  0
 24 27  1  0  0  0  0
 24 10  1  0  0  0  0
 24  6  1  1  0  0  0
 25 16  1  0  0  0  0
 25 26  1  0  0  0  0
 27 32  1  6  0  0  0
 27  6  1  0  0  0  0
 29 23  2  0  0  0  0
 31 11  1  0  0  0  0
 31 10  1  0  0  0  0
 32  8  2  0  0  0  0
 33  7  1  0  0  0  0
 34 33  1  6  0  0  0
 34 35  1  0  0  0  0
 34 36  1  0  0  0  0
 35 36  1  0  0  0  0
 36 37  1  1  0  0  0
 37 42  1  0  0  0  0
 38 39  1  0  0  0  0
 39 40  1  0  0  0  0
 39 41  1  1  0  0  0
 42 38  1  0  0  0  0
 42 43  1  0  0  0  0
 43 40  1  0  0  0  0
M  END
>  <MODEL>
5

>  <REMARK>
 VINA RESULT:      -7.3      2.739      4.639
  Name = 
  4 active torsions:
  status: ('A' for Active; 'I' for Inactive)
    1  A    between atoms: C_5  and  C_9
    2  A    between atoms: C_5  and  C_22
    3  A    between atoms: C_12  and  N_24
    4  A    between atoms: C_12  and  C_42
                            x       y       z     vdW  Elec       q    Type
                         _______ _______ _______ _____ _____    ______ ____

>  <TORSDO>
F 4

$$$$
=
 OpenBabel11042412513D

 43 49  0  0  1  0  0  0  0  0999 V2000
  185.6160  177.9600  140.7530 N   0  0  0  0  0  0  0  0  0  0  0  0
  184.2920  178.4500  140.4110 C   0  0  0  0  0  2  0  0  0  0  0  0
  186.8330  178.2140  140.2510 C   0  0  0  0  0  0  0  0  0  0  0  0
  185.9130  176.2450  137.1130 C   0  0  0  0  0  2  0  0  0  0  0  0
  185.7670  177.8960  142.0660 C   0  0  0  0  0  0  0  0  0  0  0  0
  180.4290  175.9330  139.5460 C   0  0  0  0  0  2  0  0  0  0  0  0
  187.7160  178.2290  141.3240 C   0  0  0  0  0  0  0  0  0  0  0  0
  181.1520  178.8590  139.8590 C   0  0  0  0  0  0  0  0  0  0  0  0
  187.8210  177.5770  137.9990 C   0  0  2  0  0  3  0  0  0  0  0  0
  180.5760  174.8140  137.3390 C   0  0  0  0  0  0  0  0  0  0  0  0
  182.0260  173.9330  135.5450 C   0  0  0  0  0  2  0  0  0  0  0  0
  187.0340  178.0870  142.4870 N   0  0  0  0  0  0  0  0  0  0  0  0
  181.3170  179.4940  140.9870 C   0  0  0  0  0  0  0  0  0  0  0  0
  187.0980  178.6390  138.8360 C   0  0  0  0  0  2  0  0  0  0  0  0
  187.1240  176.2250  138.0230 C   0  0  0  0  0  2  0  0  0  0  0  0
  183.3350  173.7510  136.2970 C   0  0  0  0  0  2  0  0  0  0  0  0
  182.3070  179.1530  142.0130 C   0  0  0  0  0  0  0  0  0  0  0  0
  183.6630  178.6070  141.7830 C   0  0  0  0  0  0  0  0  0  0  0  0
  178.9330  180.3530  141.3520 N   0  0  0  0  0  1  0  0  0  0  0  0
  180.3510  173.6600  137.7970 O   0  0  0  0  0  0  0  0  0  0  0  0
  181.8360  179.4280  143.1890 N   0  0  0  0  0  0  0  0  0  0  0  0
  184.5480  178.2770  142.7390 C   0  0  0  0  0  0  0  0  0  0  0  0
  180.5330  179.9270  143.0690 N   0  0  0  0  0  0  0  0  0  0  0  0
  180.0940  176.0220  138.0690 C   0  0  2  0  0  3  0  0  0  0  0  0
  184.1630  175.0170  136.2020 C   0  0  0  0  0  2  0  0  0  0  0  0
  185.2890  174.9350  137.1130 N   0  0  0  0  0  2  0  0  0  0  0  0
  181.3010  176.7650  138.6220 C   0  0  1  0  0  3  0  0  0  0  0  0
  184.3800  178.3980  144.2160 C   0  0  0  0  0  1  0  0  0  0  0  0
  180.2210  179.9640  141.8200 C   0  0  0  0  0  0  0  0  0  0  0  0
  189.2000  177.4300  138.4300 N   0  0  0  0  0  1  0  0  0  0  0  0
  181.2680  174.9800  136.1370 O   0  0  0  0  0  0  0  0  0  0  0  0
  180.9680  178.2130  138.7400 C   0  0  0  0  0  3  0  0  0  0  0  0
  189.1580  178.6120  141.2650 C   0  0  0  0  0  2  0  0  0  0  0  0
  190.0190  177.5140  141.8610 C   0  0  1  0  0  3  0  0  0  0  0  0
  191.3720  177.8020  141.6150 O   0  0  0  0  0  0  0  0  0  0  0  0
  190.8940  178.0780  142.9090 C   0  0  2  0  0  3  0  0  0  0  0  0
  191.3400  176.9730  143.8470 C   0  0  0  0  0  2  0  0  0  0  0  0
  192.0490  176.4800  146.0150 C   0  0  0  0  0  2  0  0  0  0  0  0
  191.3480  176.3530  147.3500 C   0  0  1  0  0  3  0  0  0  0  0  0
  189.9550  176.8890  147.1240 C   0  0  0  0  0  2  0  0  0  0  0  0
  191.2820  175.0080  147.7190 O   0  0  0  0  0  1  0  0  0  0  0  0
  191.3080  177.4450  145.2200 N   0  0  0  0  0  0  0  0  0  0  0  0
  189.9300  177.3490  145.6800 C   0  0  0  0  0  2  0  0  0  0  0  0
  1  5  1  0  0  0  0
  2  1  1  0  0  0  0
  2 18  1  0  0  0  0
  3  1  1  0  0  0  0
  3  7  2  0  0  0  0
  4 26  1  0  0  0  0
  4 15  1  0  0  0  0
  5 12  2  0  0  0  0
  5 22  1  0  0  0  0
  7 12  1  0  0  0  0
  8 13  2  0  0  0  0
  9 15  1  0  0  0  0
  9 30  1  1  0  0  0
  9 14  1  0  0  0  0
 10 20  2  0  0  0  0
 10 24  1  0  0  0  0
 11 31  1  0  0  0  0
 11 16  1  0  0  0  0
 13 29  1  0  0  0  0
 13 17  1  0  0  0  0
 14  3  1  0  0  0  0
 17 21  2  0  0  0  0
 18 17  1  0  0  0  0
 18 22  2  0  0  0  0
 19 29  1  0  0  0  0
 22 28  1  0  0  0  0
 23 21  1  0  0  0  0
 24 27  1  0  0  0  0
 24  6  1  1  0  0  0
 25 16  1  0  0  0  0
 25 26  1  0  0  0  0
 27 32  1  1  0  0  0
 27  6  1  0  0  0  0
 29 23  2  0  0  0  0
 31 10  1  0  0  0  0
 32  8  2  0  0  0  0
 33  7  1  0  0  0  0
 34 33  1  6  0  0  0
 34 36  1  0  0  0  0
 35 34  1  0  0  0  0
 35 36  1  0  0  0  0
 36 37  1  1  0  0  0
 37 42  1  0  0  0  0
 38 39  1  0  0  0  0
 39 41  1  6  0  0  0
 40 39  1  0  0  0  0
 42 43  1  0  0  0  0
 42 38  1  0  0  0  0
 43 40  1  0  0  0  0
M  END
>  <MODEL>
6

>  <REMARK>
 VINA RESULT:      -7.3      1.826      2.310
  Name = 
  4 active torsions:
  status: ('A' for Active; 'I' for Inactive)
    1  A    between atoms: C_5  and  C_9
    2  A    between atoms: C_5  and  C_22
    3  A    between atoms: C_12  and  N_24
    4  A    between atoms: C_12  and  C_42
                            x       y       z     vdW  Elec       q    Type
                         _______ _______ _______ _____ _____    ______ ____

>  <TORSDO>
F 4

$$$$
=
 OpenBabel11042412513D

 43 49  0  0  1  0  0  0  0  0999 V2000
  186.5040  176.7520  138.0200 N   0  0  0  0  0  0  0  0  0  0  0  0
  187.8360  177.1500  138.4380 C   0  0  0  0  0  2  0  0  0  0  0  0
  185.4420  177.4500  137.5940 C   0  0  0  0  0  0  0  0  0  0  0  0
  184.9300  178.7740  141.1370 C   0  0  0  0  0  2  0  0  0  0  0  0
  186.5550  175.6650  137.2680 C   0  0  0  0  0  0  0  0  0  0  0  0
  190.0930  175.9620  142.3750 C   0  0  0  0  0  2  0  0  0  0  0  0
  184.8330  176.6900  136.6020 C   0  0  0  0  0  0  0  0  0  0  0  0
  190.7240  177.4570  139.8170 C   0  0  0  0  0  0  0  0  0  0  0  0
  183.9280  179.0380  138.8730 C   0  0  2  0  0  3  0  0  0  0  0  0
  189.1350  177.1390  144.3350 C   0  0  0  0  0  0  0  0  0  0  0  0
  187.1800  178.2710  145.3320 C   0  0  0  0  0  2  0  0  0  0  0  0
  185.5710  175.5820  136.3480 N   0  0  0  0  0  0  0  0  0  0  0  0
  191.0260  176.9200  138.6660 C   0  0  0  0  0  0  0  0  0  0  0  0
  185.1540  178.8750  137.9680 C   0  0  0  0  0  2  0  0  0  0  0  0
  183.9880  178.1660  140.1180 C   0  0  0  0  0  2  0  0  0  0  0  0
  186.0560  177.7110  144.4740 C   0  0  0  0  0  2  0  0  0  0  0  0
  190.1650  176.0090  137.9060 C   0  0  0  0  0  0  0  0  0  0  0  0
  188.6870  176.0480  137.8330 C   0  0  0  0  0  0  0  0  0  0  0  0
  193.5740  176.8280  138.8870 N   0  0  0  0  0  1  0  0  0  0  0  0
  188.9270  176.0830  144.9940 O   0  0  0  0  0  0  0  0  0  0  0  0
  190.8910  175.1530  137.2590 N   0  0  0  0  0  0  0  0  0  0  0  0
  187.9120  175.1880  137.1500 C   0  0  0  0  0  0  0  0  0  0  0  0
  192.2440  175.3790  137.5370 N   0  0  0  0  0  0  0  0  0  0  0  0
  190.1910  177.1740  143.2810 C   0  0  2  0  0  3  0  0  0  0  0  0
  185.8310  178.6080  143.2720 C   0  0  0  0  0  2  0  0  0  0  0  0
  184.9390  177.9540  142.3340 N   0  0  0  0  0  2  0  0  0  0  0  0
  189.5130  177.2910  141.9250 C   0  0  1  0  0  3  0  0  0  0  0  0
  188.3530  174.0350  136.3120 C   0  0  0  0  0  1  0  0  0  0  0  0
  192.3360  176.3790  138.3440 C   0  0  0  0  0  0  0  0  0  0  0  0
  182.7040  178.7680  138.1390 N   0  0  0  0  0  1  0  0  0  0  0  0
  188.3920  178.2940  144.5890 O   0  0  0  0  0  0  0  0  0  0  0  0
  190.4370  177.9790  140.9780 C   0  0  0  0  0  3  0  0  0  0  0  0
  183.6950  177.1280  135.7390 C   0  0  0  0  0  2  0  0  0  0  0  0
  182.4760  176.2620  135.9950 C   0  0  1  0  0  3  0  0  0  0  0  0
  181.6030  176.3550  134.8980 O   0  0  0  0  0  0  0  0  0  0  0  0
  182.3970  175.1960  134.9750 C   0  0  2  0  0  3  0  0  0  0  0  0
  181.5510  174.0520  135.5010 C   0  0  0  0  0  2  0  0  0  0  0  0
  182.7480  172.6010  136.8820 C   0  0  0  0  0  2  0  0  0  0  0  0
  184.1450  172.0220  136.8440 C   0  0  1  0  0  3  0  0  0  0  0  0
  184.6840  172.3640  135.4760 C   0  0  0  0  0  2  0  0  0  0  0  0
  184.9300  172.6280  137.8260 O   0  0  0  0  0  1  0  0  0  0  0  0
  182.3270  172.8250  135.5090 N   0  0  0  0  0  0  0  0  0  0  0  0
  183.5530  173.0820  134.7660 C   0  0  0  0  0  2  0  0  0  0  0  0
  1  2  1  0  0  0  0
  3 14  1  0  0  0  0
  3  1  1  0  0  0  0
  4 26  1  0  0  0  0
  5  1  1  0  0  0  0
  7  3  2  0  0  0  0
  8 32  2  0  0  0  0
  9 30  1  6  0  0  0
  9 15  1  0  0  0  0
 10 31  1  0  0  0  0
 10 20  2  0  0  0  0
 12  7  1  0  0  0  0
 12  5  2  0  0  0  0
 13  8  2  0  0  0  0
 14  9  1  0  0  0  0
 15  4  1  0  0  0  0
 16 11  1  0  0  0  0
 17 13  1  0  0  0  0
 18 17  1  0  0  0  0
 18  2  1  0  0  0  0
 21 23  1  0  0  0  0
 21 17  2  0  0  0  0
 22  5  1  0  0  0  0
 22 18  2  0  0  0  0
 23 29  2  0  0  0  0
 24  6  1  6  0  0  0
 24 10  1  0  0  0  0
 25 16  1  0  0  0  0
 26 25  1  0  0  0  0
 27 32  1  6  0  0  0
 27  6  1  0  0  0  0
 27 24  1  0  0  0  0
 28 22  1  0  0  0  0
 29 13  1  0  0  0  0
 29 19  1  0  0  0  0
 31 11  1  0  0  0  0
 33  7  1  0  0  0  0
 34 33  1  6  0  0  0
 35 36  1  0  0  0  0
 35 34  1  0  0  0  0
 36 37  1  1  0  0  0
 36 34  1  0  0  0  0
 37 42  1  0  0  0  0
 39 38  1  0  0  0  0
 39 41  1  1  0  0  0
 40 39  1  0  0  0  0
 42 38  1  0  0  0  0
 43 40  1  0  0  0  0
 43 42  1  0  0  0  0
M  END
>  <MODEL>
7

>  <REMARK>
 VINA RESULT:      -7.1      2.503      9.899
  Name = 
  4 active torsions:
  status: ('A' for Active; 'I' for Inactive)
    1  A    between atoms: C_5  and  C_9
    2  A    between atoms: C_5  and  C_22
    3  A    between atoms: C_12  and  N_24
    4  A    between atoms: C_12  and  C_42
                            x       y       z     vdW  Elec       q    Type
                         _______ _______ _______ _____ _____    ______ ____

>  <TORSDO>
F 4

$$$$
=
 OpenBabel11042412513D

 43 49  0  0  1  0  0  0  0  0999 V2000
  188.6320  177.2670  139.5370 N   0  0  0  0  0  0  0  0  0  0  0  0
  187.5440  178.0310  140.1220 C   0  0  0  0  0  2  0  0  0  0  0  0
  189.5440  177.5610  138.5990 C   0  0  0  0  0  0  0  0  0  0  0  0
  186.8050  177.4320  135.9430 C   0  0  0  0  0  2  0  0  0  0  0  0
  189.2710  176.5760  140.4670 C   0  0  0  0  0  0  0  0  0  0  0  0
  183.0550  176.7530  140.5870 C   0  0  0  0  0  2  0  0  0  0  0  0
  190.7320  176.9540  138.9880 C   0  0  0  0  0  0  0  0  0  0  0  0
  184.8090  179.0660  141.4560 C   0  0  0  0  0  0  0  0  0  0  0  0
  189.2400  177.9260  136.1040 C   0  0  2  0  0  3  0  0  0  0  0  0
  181.8920  176.7880  138.3980 C   0  0  0  0  0  0  0  0  0  0  0  0
  182.0800  176.6650  135.9390 C   0  0  0  0  0  2  0  0  0  0  0  0
  190.5800  176.3770  140.2060 N   0  0  0  0  0  0  0  0  0  0  0  0
  185.6280  179.0710  142.4720 C   0  0  0  0  0  0  0  0  0  0  0  0
  189.3390  178.5590  137.4970 C   0  0  0  0  0  2  0  0  0  0  0  0
  188.1920  176.8270  136.0230 C   0  0  0  0  0  2  0  0  0  0  0  0
  183.4290  175.9790  135.7890 C   0  0  0  0  0  2  0  0  0  0  0  0
  186.7630  178.1610  142.6470 C   0  0  0  0  0  0  0  0  0  0  0  0
  187.6260  177.6110  141.5780 C   0  0  0  0  0  0  0  0  0  0  0  0
  184.0610  179.9690  144.2860 N   0  0  0  0  0  1  0  0  0  0  0  0
  181.4870  175.5960  138.4810 O   0  0  0  0  0  0  0  0  0  0  0  0
  186.9400  177.9140  143.9070 N   0  0  0  0  0  0  0  0  0  0  0  0
  188.6480  176.7570  141.7560 C   0  0  0  0  0  0  0  0  0  0  0  0
  185.9640  178.5800  144.6580 N   0  0  0  0  0  0  0  0  0  0  0  0
  182.2010  177.5670  139.6330 C   0  0  2  0  0  3  0  0  0  0  0  0
  184.5300  177.0190  135.7170 C   0  0  0  0  0  2  0  0  0  0  0  0
  185.8230  176.3710  135.8200 N   0  0  0  0  0  2  0  0  0  0  0  0
  183.7040  177.7950  139.6940 C   0  0  1  0  0  3  0  0  0  0  0  0
  189.1500  176.1940  143.0440 C   0  0  0  0  0  1  0  0  0  0  0  0
  185.2040  179.2380  143.8530 C   0  0  0  0  0  0  0  0  0  0  0  0
  190.5300  177.4120  135.6780 N   0  0  0  0  0  1  0  0  0  0  0  0
  182.0450  177.4040  137.1540 O   0  0  0  0  0  0  0  0  0  0  0  0
  183.9730  179.0500  140.4530 C   0  0  0  0  0  3  0  0  0  0  0  0
  192.0590  177.1230  138.3260 C   0  0  0  0  0  2  0  0  0  0  0  0
  192.7780  175.7910  138.2370 C   0  0  1  0  0  3  0  0  0  0  0  0
  192.5570  175.2280  136.9690 O   0  0  0  0  0  0  0  0  0  0  0  0
  193.8040  175.8450  137.1770 C   0  0  2  0  0  3  0  0  0  0  0  0
  194.8500  174.7750  137.4260 C   0  0  0  0  0  2  0  0  0  0  0  0
  196.9230  174.1240  136.5740 C   0  0  0  0  0  2  0  0  0  0  0  0
  197.8570  174.6900  135.5280 C   0  0  1  0  0  3  0  0  0  0  0  0
  197.0670  175.7660  134.8240 C   0  0  0  0  0  2  0  0  0  0  0  0
  198.9730  175.2520  136.1500 O   0  0  0  0  0  1  0  0  0  0  0  0
  195.5670  174.4870  136.1960 N   0  0  0  0  0  0  0  0  0  0  0  0
  195.6930  175.7400  135.4640 C   0  0  0  0  0  2  0  0  0  0  0  0
  1  2  1  0  0  0  0
  1  5  1  0  0  0  0
  2 18  1  0  0  0  0
  3  7  2  0  0  0  0
  3  1  1  0  0  0  0
  4 15  1  0  0  0  0
  5 22  1  0  0  0  0
  7 12  1  0  0  0  0
  8 13  2  0  0  0  0
  9 30  1  1  0  0  0
  9 14  1  0  0  0  0
 10 20  2  0  0  0  0
 10 24  1  0  0  0  0
 11 31  1  0  0  0  0
 12  5  2  0  0  0  0
 13 17  1  0  0  0  0
 13 29  1  0  0  0  0
 14  3  1  0  0  0  0
 15  9  1  0  0  0  0
 16 11  1  0  0  0  0
 17 21  2  0  0  0  0
 18 22  2  0  0  0  0
 18 17  1  0  0  0  0
 21 23  1  0  0  0  0
 22 28  1  0  0  0  0
 24 27  1  0  0  0  0
 24  6  1  1  0  0  0
 25 16  1  0  0  0  0
 25 26  1  0  0  0  0
 26  4  1  0  0  0  0
 27 32  1  1  0  0  0
 27  6  1  0  0  0  0
 29 19  1  0  0  0  0
 29 23  2  0  0  0  0
 31 10  1  0  0  0  0
 32  8  2  0  0  0  0
 33  7  1  0  0  0  0
 34 33  1  6  0  0  0
 35 36  1  0  0  0  0
 35 34  1  0  0  0  0
 36 37  1  1  0  0  0
 36 34  1  0  0  0  0
 39 41  1  1  0  0  0
 39 38  1  0  0  0  0
 40 43  1  0  0  0  0
 40 39  1  0  0  0  0
 42 38  1  0  0  0  0
 42 37  1  0  0  0  0
 43 42  1  0  0  0  0
M  END
>  <MODEL>
8

>  <REMARK>
 VINA RESULT:      -7.0      4.156      6.788
  Name = 
  4 active torsions:
  status: ('A' for Active; 'I' for Inactive)
    1  A    between atoms: C_5  and  C_9
    2  A    between atoms: C_5  and  C_22
    3  A    between atoms: C_12  and  N_24
    4  A    between atoms: C_12  and  C_42
                            x       y       z     vdW  Elec       q    Type
                         _______ _______ _______ _____ _____    ______ ____

>  <TORSDO>
F 4

$$$$
=
 OpenBabel11042412513D

 43 49  0  0  1  0  0  0  0  0999 V2000
  185.5540  177.9250  139.1730 N   0  0  0  0  0  0  0  0  0  0  0  0
  184.2670  178.3720  138.6690 C   0  0  0  0  0  2  0  0  0  0  0  0
  186.8040  178.0540  138.7050 C   0  0  0  0  0  0  0  0  0  0  0  0
  185.9910  175.5560  135.9360 C   0  0  0  0  0  2  0  0  0  0  0  0
  185.6320  178.1030  140.4820 C   0  0  0  0  0  0  0  0  0  0  0  0
  180.3770  175.8240  138.0560 C   0  0  0  0  0  2  0  0  0  0  0  0
  187.6280  178.2490  139.8080 C   0  0  0  0  0  0  0  0  0  0  0  0
  181.1760  178.7400  137.8670 C   0  0  0  0  0  0  0  0  0  0  0  0
  187.8910  176.9880  136.6720 C   0  0  2  0  0  3  0  0  0  0  0  0
  180.6060  174.3110  136.1060 C   0  0  0  0  0  0  0  0  0  0  0  0
  182.1210  173.0800  134.5940 C   0  0  0  0  0  2  0  0  0  0  0  0
  186.8800  178.3410  140.9340 N   0  0  0  0  0  0  0  0  0  0  0  0
  181.3010  179.5710  138.8660 C   0  0  0  0  0  0  0  0  0  0  0  0
  187.1590  178.2030  137.2540 C   0  0  0  0  0  2  0  0  0  0  0  0
  187.1500  175.6800  136.9040 C   0  0  0  0  0  2  0  0  0  0  0  0
  183.3800  173.0120  135.4430 C   0  0  0  0  0  2  0  0  0  0  0  0
  182.2220  179.4050  139.9940 C   0  0  0  0  0  0  0  0  0  0  0  0
  183.5710  178.7960  139.9490 C   0  0  0  0  0  0  0  0  0  0  0  0
  178.9310  180.5350  138.9240 N   0  0  0  0  0  1  0  0  0  0  0  0
  180.3180  173.2680  136.7550 O   0  0  0  0  0  0  0  0  0  0  0  0
  181.6980  179.9050  141.0680 N   0  0  0  0  0  0  0  0  0  0  0  0
  184.3910  178.6290  141.0000 C   0  0  0  0  0  0  0  0  0  0  0  0
  180.4210  180.4010  140.7820 N   0  0  0  0  0  0  0  0  0  0  0  0
  180.1240  175.6450  136.5710 C   0  0  2  0  0  3  0  0  0  0  0  0
  184.2540  174.2200  135.1650 C   0  0  0  0  0  2  0  0  0  0  0  0
  185.3250  174.2840  136.1400 N   0  0  0  0  0  2  0  0  0  0  0  0
  181.3230  176.4500  137.0470 C   0  0  1  0  0  3  0  0  0  0  0  0
  184.1480  179.0270  142.4170 C   0  0  0  0  0  1  0  0  0  0  0  0
  180.1780  180.2110  139.5310 C   0  0  0  0  0  0  0  0  0  0  0  0
  189.2390  176.8930  137.2040 N   0  0  0  0  0  1  0  0  0  0  0  0
  181.3670  174.2360  134.9370 O   0  0  0  0  0  0  0  0  0  0  0  0
  181.0320  177.9020  136.8760 C   0  0  0  0  0  3  0  0  0  0  0  0
  189.0830  178.5820  139.7650 C   0  0  0  0  0  2  0  0  0  0  0  0
  189.9070  177.4130  140.2700 C   0  0  1  0  0  3  0  0  0  0  0  0
  191.1650  177.8780  140.6870 O   0  0  0  0  0  0  0  0  0  0  0  0
  190.2260  177.6070  141.6990 C   0  0  2  0  0  3  0  0  0  0  0  0
  190.5550  176.2680  142.3320 C   0  0  0  0  0  2  0  0  0  0  0  0
  188.5550  176.3270  143.5340 C   0  0  0  0  0  2  0  0  0  0  0  0
  188.0520  177.1430  144.7040 C   0  0  1  0  0  3  0  0  0  0  0  0
  189.2620  177.8710  145.2350 C   0  0  0  0  0  2  0  0  0  0  0  0
  187.1030  178.0650  144.2590 O   0  0  0  0  0  1  0  0  0  0  0  0
  189.9970  176.2030  143.6720 N   0  0  0  0  0  0  0  0  0  0  0  0
  190.4220  177.4040  144.3780 C   0  0  0  0  0  2  0  0  0  0  0  0
  1  5  1  0  0  0  0
  2  1  1  0  0  0  0
  2 18  1  0  0  0  0
  3  1  1  0  0  0  0
  3  7  2  0  0  0  0
  4 26  1  0  0  0  0
  4 15  1  0  0  0  0
  5 12  2  0  0  0  0
  5 22  1  0  0  0  0
  7 12  1  0  0  0  0
  8 13  2  0  0  0  0
  9 15  1  0  0  0  0
  9 30  1  1  0  0  0
  9 14  1  0  0  0  0
 10 24  1  0  0  0  0
 10 20  2  0  0  0  0
 11 31  1  0  0  0  0
 11 16  1  0  0  0  0
 13 29  1  0  0  0  0
 13 17  1  0  0  0  0
 14  3  1  0  0  0  0
 17 21  2  0  0  0  0
 18 17  1  0  0  0  0
 18 22  2  0  0  0  0
 19 29  1  0  0  0  0
 22 28  1  0  0  0  0
 23 21  1  0  0  0  0
 24 27  1  0  0  0  0
 24  6  1  1  0  0  0
 25 16  1  0  0  0  0
 25 26  1  0  0  0  0
 27 32  1  6  0  0  0
 27  6  1  0  0  0  0
 29 23  2  0  0  0  0
 31 10  1  0  0  0  0
 32  8  2  0  0  0  0
 33  7  1  0  0  0  0
 34 33  1  6  0  0  0
 34 35  1  0  0  0  0
 34 36  1  0  0  0  0
 35 36  1  0  0  0  0
 36 37  1  1  0  0  0
 37 42  1  0  0  0  0
 38 42  1  0  0  0  0
 38 39  1  0  0  0  0
 39 41  1  6  0  0  0
 39 40  1  0  0  0  0
 42 43  1  0  0  0  0
 43 40  1  0  0  0  0
M  END
>  <MODEL>
9

>  <REMARK>
 VINA RESULT:      -6.8      2.027      2.958
  Name = 
  4 active torsions:
  status: ('A' for Active; 'I' for Inactive)
    1  A    between atoms: C_5  and  C_9
    2  A    between atoms: C_5  and  C_22
    3  A    between atoms: C_12  and  N_24
    4  A    between atoms: C_12  and  C_42
                            x       y       z     vdW  Elec       q    Type
                         _______ _______ _______ _____ _____    ______ ____

>  <TORSDO>
F 4

$$$$
