=
 OpenBabel11042413213D

 50 53  0  0  1  0  0  0  0  0999 V2000
  183.1210  177.0500  139.3910 C   0  0  1  0  0  3  0  0  0  0  0  0
  182.2870  179.1970  138.6710 O   0  0  0  0  0  1  0  0  0  0  0  0
  183.3640  178.3570  138.9750 C   0  0  1  0  0  0  0  0  0  0  0  0
  183.4380  178.0890  140.4380 N   0  0  0  0  0  0  0  0  0  0  0  0
  183.0600  179.1060  144.0100 C   0  0  0  0  0  3  0  0  0  0  0  0
  185.0870  178.4610  142.1990 C   0  0  0  0  0  3  0  0  0  0  0  0
  183.7600  178.5130  141.7580 C   0  0  0  0  0  0  0  0  0  0  0  0
  184.3970  179.0750  144.4430 C   0  0  0  0  0  0  0  0  0  0  0  0
  185.4050  178.7530  143.5280 C   0  0  0  0  0  3  0  0  0  0  0  0
  182.7340  178.8430  142.6640 C   0  0  0  0  0  0  0  0  0  0  0  0
  181.3660  178.7490  142.2350 N   0  0  0  0  0  0  0  0  0  0  0  0
  179.8420  180.6940  141.7930 O   0  0  0  0  0  0  0  0  0  0  0  0
  180.6010  179.7450  142.0130 C   0  0  0  0  0  0  0  0  0  0  0  0
  184.7240  179.2940  145.7860 O   0  0  0  0  0  0  0  0  0  0  0  0
  184.9980  178.2090  146.6610 C   0  0  0  0  0  2  0  0  0  0  0  0
  188.4010  177.8170  148.2650 O   0  0  0  0  0  0  0  0  0  0  0  0
  186.4090  177.8680  146.6100 N   0  0  0  0  0  0  0  0  0  0  0  0
  187.5140  177.4250  145.8620 N   0  0  0  0  0  0  0  0  0  0  0  0
  187.6740  177.7410  147.2360 C   0  0  0  0  0  0  0  0  0  0  0  0
  188.0170  176.8870  144.6410 C   0  0  0  0  0  3  0  0  0  0  0  0
  189.3080  177.0360  144.3230 C   0  0  0  0  0  3  0  0  0  0  0  0
  190.2030  177.9290  145.1420 C   0  0  0  0  0  2  0  0  0  0  0  0
  191.5640  177.2720  145.3990 C   0  0  0  0  0  3  0  0  0  0  0  0
  191.6740  176.9380  146.7500 O   0  0  0  0  0  1  0  0  0  0  0  0
  191.7330  176.1220  144.6130 O   0  0  0  0  0  1  0  0  0  0  0  0
  181.6310  176.6950  139.4000 C   0  0  2  0  0  3  0  0  0  0  0  0
  181.3430  175.7250  140.3560 O   0  0  0  0  0  1  0  0  0  0  0  0
  181.1900  176.2030  138.0280 C   0  0  0  0  0  2  0  0  0  0  0  0
  181.3830  174.6910  137.8430 C   0  0  1  0  0  3  0  0  0  0  0  0
  180.1740  174.0640  137.3170 N   0  0  0  0  0  1  0  0  0  0  0  0
  182.7280  175.2810  135.9170 O   0  0  0  0  0  1  0  0  0  0  0  0
  182.6070  174.3750  136.9770 C   0  0  2  0  0  3  0  0  0  0  0  0
  182.5750  172.9340  136.4510 C   0  0  2  0  0  3  0  0  0  0  0  0
  183.8690  170.9480  136.7030 O   0  0  0  0  0  0  0  0  0  0  0  0
  184.6660  172.7780  137.8180 O   0  0  0  0  0  1  0  0  0  0  0  0
  183.7380  172.1660  136.9900 C   0  0  0  0  0  0  0  0  0  0  0  0
  181.4570  172.2060  134.6640 C   0  0  0  0  0  1  0  0  0  0  0  0
  182.6000  172.9200  135.0460 O   0  0  0  0  0  0  0  0  0  0  0  0
  184.7130  178.7280  138.3540 C   0  0  0  0  0  2  0  0  0  0  0  0
  185.4530  177.4150  137.3080 S   0  0  0  0  0  0  0  0  0  0  0  0
  189.4720  177.3590  138.1120 C   0  0  0  0  0  0  0  0  0  0  0  0
  188.4260  178.8030  141.1400 O   0  0  0  0  0  0  0  0  0  0  0  0
  189.5010  177.9150  139.3510 N   0  0  0  0  0  0  0  0  0  0  0  0
  190.6950  176.9720  137.4880 N   0  0  0  0  0  1  0  0  0  0  0  0
  188.2460  177.1730  137.4490 C   0  0  2  0  0  3  0  0  0  0  0  0
  187.0620  177.5860  138.0880 C   0  0  0  0  0  0  0  0  0  0  0  0
  187.1240  178.1590  139.3570 C   0  0  0  0  0  3  0  0  0  0  0  0
  188.3630  178.3110  139.9850 C   0  0  0  0  0  0  0  0  0  0  0  0
  188.0920  175.0260  136.3710 N   0  0  0  0  0  1  0  0  0  0  0  0
  188.1980  176.4560  136.1320 C   0  0  0  0  0  2  0  0  0  0  0  0
  1 26  1  1  0  0  0
  1  4  1  0  0  0  0
  3  2  1  6  0  0  0
  3  1  1  0  0  0  0
  3  4  1  0  0  0  0
  4  7  1  0  0  0  0
  5  8  1  0  0  0  0
  6  9  1  0  0  0  0
  7  6  2  0  0  0  0
  7 10  1  0  0  0  0
  8 14  1  0  0  0  0
  9  8  2  0  0  0  0
 10  5  2  0  0  0  0
 11 10  1  0  0  0  0
 12 13  2  0  0  0  0
 13 11  2  0  0  0  0
 14 15  1  0  0  0  0
 17 15  1  0  0  0  0
 17 19  1  0  0  0  0
 18 17  1  0  0  0  0
 18 19  1  0  0  0  0
 19 16  2  0  0  0  0
 20 18  1  0  0  0  0
 21 20  2  0  0  0  0
 21 22  1  0  0  0  0
 22 23  1  0  0  0  0
 23 24  1  0  0  0  0
 25 23  1  0  0  0  0
 26 27  1  1  0  0  0
 28 26  1  0  0  0  0
 29 30  1  6  0  0  0
 29 28  1  0  0  0  0
 32 31  1  6  0  0  0
 32 29  1  0  0  0  0
 33 38  1  6  0  0  0
 33 32  1  0  0  0  0
 33 36  1  0  0  0  0
 34 36  2  0  0  0  0
 36 35  1  0  0  0  0
 37 38  1  0  0  0  0
 39  3  1  0  0  0  0
 40 46  1  0  0  0  0
 40 39  1  0  0  0  0
 41 43  2  0  0  0  0
 43 48  1  0  0  0  0
 44 41  1  0  0  0  0
 45 50  1  1  0  0  0
 45 46  1  0  0  0  0
 45 41  1  0  0  0  0
 46 47  2  0  0  0  0
 47 48  1  0  0  0  0
 48 42  2  0  0  0  0
 50 49  1  0  0  0  0
M  END
>  <MODEL>
1

>  <REMARK>
 VINA RESULT:      -7.3      0.000      0.000
  Name = 
  19 active torsions:
  status: ('A' for Active; 'I' for Inactive)
    1  A    between atoms: C_1  and  C_2
    2  A    between atoms: C_1  and  C_14
    3  A    between atoms: C_2  and  C_31
    4  A    between atoms: C_3  and  C_22
    5  A    between atoms: S_4  and  C_36
    6  A    between atoms: S_4  and  C_40
    7  A    between atoms: C_5  and  C_14
    8  A    between atoms: O_6  and  C_15
    9  A    between atoms: O_6  and  C_34
   10  A    between atoms: N_7  and  C_50
   11  A    between atoms: C_15  and  N_42
   12  A    between atoms: C_16  and  C_31
   13  A    between atoms: C_16  and  O_32
   14  A    between atoms: C_16  and  C_41
   15  A    between atoms: C_22  and  C_37
   16  A    between atoms: C_25  and  C_33
   17  A    between atoms: C_28  and  N_49
   18  A    between atoms: C_29  and  N_43
   19  A    between atoms: C_40  and  C_48
                            x       y       z     vdW  Elec       q    Type
                         _______ _______ _______ _____ _____    ______ ____

>  <TORSDO>
F 19

$$$$
=
 OpenBabel11042413213D

 50 53  0  0  1  0  0  0  0  0999 V2000
  190.3460  176.4620  139.7430 C   0  0  1  0  0  3  0  0  0  0  0  0
  191.2790  178.0620  141.2900 O   0  0  0  0  0  1  0  0  0  0  0  0
  190.4450  176.9680  141.0380 C   0  0  1  0  0  0  0  0  0  0  0  0
  189.2530  177.3740  140.2430 N   0  0  0  0  0  0  0  0  0  0  0  0
  185.9190  178.4370  138.9410 C   0  0  0  0  0  3  0  0  0  0  0  0
  187.4030  178.5610  141.3050 C   0  0  0  0  0  3  0  0  0  0  0  0
  187.9800  178.0060  140.1570 C   0  0  0  0  0  0  0  0  0  0  0  0
  185.3510  179.0150  140.0910 C   0  0  0  0  0  0  0  0  0  0  0  0
  186.1030  179.0740  141.2680 C   0  0  0  0  0  3  0  0  0  0  0  0
  187.2400  177.9450  138.9610 C   0  0  0  0  0  0  0  0  0  0  0  0
  187.7890  177.2420  137.8360 N   0  0  0  0  0  0  0  0  0  0  0  0
  186.9050  175.0910  136.8900 O   0  0  0  0  0  0  0  0  0  0  0  0
  187.3300  176.1500  137.3630 C   0  0  0  0  0  0  0  0  0  0  0  0
  184.0270  179.4660  140.0900 O   0  0  0  0  0  0  0  0  0  0  0  0
  183.3080  179.6330  138.8760 C   0  0  0  0  0  2  0  0  0  0  0  0
  180.4690  182.1260  138.7140 O   0  0  0  0  0  0  0  0  0  0  0  0
  181.9430  180.0420  139.1540 N   0  0  0  0  0  0  0  0  0  0  0  0
  180.6870  179.7470  139.7140 N   0  0  0  0  0  0  0  0  0  0  0  0
  180.9010  181.0010  139.0880 C   0  0  0  0  0  0  0  0  0  0  0  0
  179.8220  178.7850  140.3140 C   0  0  0  0  0  3  0  0  0  0  0  0
  180.1560  178.2140  141.4760 C   0  0  0  0  0  3  0  0  0  0  0  0
  181.5230  178.4260  142.0720 C   0  0  0  0  0  2  0  0  0  0  0  0
  181.4390  179.1350  143.4290 C   0  0  0  0  0  3  0  0  0  0  0  0
  180.4060  178.5770  144.1840 O   0  0  0  0  0  1  0  0  0  0  0  0
  182.6470  179.0330  144.1340 O   0  0  0  0  0  1  0  0  0  0  0  0
  191.2580  177.1870  138.7500 C   0  0  2  0  0  3  0  0  0  0  0  0
  190.6670  177.2870  137.4940 O   0  0  0  0  0  1  0  0  0  0  0  0
  192.5940  176.4670  138.6270 C   0  0  0  0  0  2  0  0  0  0  0  0
  192.9740  176.1510  137.1740 C   0  0  1  0  0  3  0  0  0  0  0  0
  194.2360  176.7860  136.8060 N   0  0  0  0  0  1  0  0  0  0  0  0
  192.1110  173.9610  137.7450 O   0  0  0  0  0  1  0  0  0  0  0  0
  193.0010  174.6420  136.9080 C   0  0  2  0  0  3  0  0  0  0  0  0
  194.4160  174.0650  137.0450 C   0  0  2  0  0  3  0  0  0  0  0  0
  194.1200  173.2500  134.8250 O   0  0  0  0  0  0  0  0  0  0  0  0
  195.5350  172.0200  136.1350 O   0  0  0  0  0  1  0  0  0  0  0  0
  194.6840  173.0970  135.9390 C   0  0  0  0  0  0  0  0  0  0  0  0
  195.6320  174.0970  138.9140 C   0  0  0  0  0  1  0  0  0  0  0  0
  194.5720  173.4290  138.2880 O   0  0  0  0  0  0  0  0  0  0  0  0
  190.1040  176.0810  142.2380 C   0  0  0  0  0  2  0  0  0  0  0  0
  191.2420  176.2650  143.6650 S   0  0  0  0  0  0  0  0  0  0  0  0
  189.0800  177.5920  146.8850 C   0  0  0  0  0  0  0  0  0  0  0  0
  186.4250  177.4480  144.5870 O   0  0  0  0  0  0  0  0  0  0  0  0
  187.8370  177.6880  146.3460 N   0  0  0  0  0  0  0  0  0  0  0  0
  189.2830  177.9530  148.2500 N   0  0  0  0  0  1  0  0  0  0  0  0
  190.1580  177.1450  146.1000 C   0  0  2  0  0  3  0  0  0  0  0  0
  189.9230  176.8160  144.7520 C   0  0  0  0  0  0  0  0  0  0  0  0
  188.6370  176.9320  144.2260 C   0  0  0  0  0  3  0  0  0  0  0  0
  187.5930  177.3660  145.0460 C   0  0  0  0  0  0  0  0  0  0  0  0
  191.5520  175.5990  147.3090 N   0  0  0  0  0  1  0  0  0  0  0  0
  191.5080  176.9270  146.7190 C   0  0  0  0  0  2  0  0  0  0  0  0
  1 26  1  6  0  0  0
  1  4  1  0  0  0  0
  1  3  1  0  0  0  0
  3  2  1  1  0  0  0
  3 39  1  0  0  0  0
  4  3  1  0  0  0  0
  5 10  2  0  0  0  0
  5  8  1  0  0  0  0
  7  4  1  0  0  0  0
  7  6  2  0  0  0  0
  8  9  2  0  0  0  0
  9  6  1  0  0  0  0
 10  7  1  0  0  0  0
 11 10  1  0  0  0  0
 12 13  2  0  0  0  0
 13 11  2  0  0  0  0
 14  8  1  0  0  0  0
 15 17  1  0  0  0  0
 15 14  1  0  0  0  0
 16 19  2  0  0  0  0
 17 18  1  0  0  0  0
 18 20  1  0  0  0  0
 19 17  1  0  0  0  0
 19 18  1  0  0  0  0
 20 21  2  0  0  0  0
 21 22  1  0  0  0  0
 22 23  1  0  0  0  0
 23 25  1  0  0  0  0
 23 24  1  0  0  0  0
 26 27  1  6  0  0  0
 28 26  1  0  0  0  0
 29 30  1  1  0  0  0
 29 28  1  0  0  0  0
 32 33  1  0  0  0  0
 32 29  1  0  0  0  0
 32 31  1  1  0  0  0
 33 36  1  6  0  0  0
 33 38  1  0  0  0  0
 34 36  2  0  0  0  0
 36 35  1  0  0  0  0
 38 37  1  0  0  0  0
 39 40  1  0  0  0  0
 40 46  1  0  0  0  0
 41 44  1  0  0  0  0
 42 48  2  0  0  0  0
 43 41  2  0  0  0  0
 45 50  1  1  0  0  0
 45 41  1  0  0  0  0
 46 45  1  0  0  0  0
 47 46  2  0  0  0  0
 47 48  1  0  0  0  0
 48 43  1  0  0  0  0
 50 49  1  0  0  0  0
M  END
>  <MODEL>
2

>  <REMARK>
 VINA RESULT:      -7.1      3.942      9.322
  Name = 
  19 active torsions:
  status: ('A' for Active; 'I' for Inactive)
    1  A    between atoms: C_1  and  C_2
    2  A    between atoms: C_1  and  C_14
    3  A    between atoms: C_2  and  C_31
    4  A    between atoms: C_3  and  C_22
    5  A    between atoms: S_4  and  C_36
    6  A    between atoms: S_4  and  C_40
    7  A    between atoms: C_5  and  C_14
    8  A    between atoms: O_6  and  C_15
    9  A    between atoms: O_6  and  C_34
   10  A    between atoms: N_7  and  C_50
   11  A    between atoms: C_15  and  N_42
   12  A    between atoms: C_16  and  C_31
   13  A    between atoms: C_16  and  O_32
   14  A    between atoms: C_16  and  C_41
   15  A    between atoms: C_22  and  C_37
   16  A    between atoms: C_25  and  C_33
   17  A    between atoms: C_28  and  N_49
   18  A    between atoms: C_29  and  N_43
   19  A    between atoms: C_40  and  C_48
                            x       y       z     vdW  Elec       q    Type
                         _______ _______ _______ _____ _____    ______ ____

>  <TORSDO>
F 19

$$$$
=
 OpenBabel11042413213D

 50 53  0  0  1  0  0  0  0  0999 V2000
  189.5100  176.3340  138.6240 C   0  0  1  0  0  3  0  0  0  0  0  0
  190.7520  178.1680  139.5810 O   0  0  0  0  0  1  0  0  0  0  0  0
  189.8980  177.0720  139.7400 C   0  0  1  0  0  0  0  0  0  0  0  0
  188.5490  177.3560  139.1780 N   0  0  0  0  0  0  0  0  0  0  0  0
  185.1080  178.5130  138.3070 C   0  0  0  0  0  3  0  0  0  0  0  0
  186.8380  178.4880  140.5010 C   0  0  0  0  0  3  0  0  0  0  0  0
  187.2820  177.9990  139.2670 C   0  0  0  0  0  0  0  0  0  0  0  0
  184.6730  179.0240  139.5430 C   0  0  0  0  0  0  0  0  0  0  0  0
  185.5480  179.0080  140.6340 C   0  0  0  0  0  3  0  0  0  0  0  0
  186.4180  178.0140  138.1560 C   0  0  0  0  0  0  0  0  0  0  0  0
  186.8340  177.3770  136.9380 N   0  0  0  0  0  0  0  0  0  0  0  0
  185.6770  177.5790  134.7190 O   0  0  0  0  0  0  0  0  0  0  0  0
  186.2380  177.4880  135.8160 C   0  0  0  0  0  0  0  0  0  0  0  0
  183.3620  179.4820  139.7120 O   0  0  0  0  0  0  0  0  0  0  0  0
  182.2780  178.5720  139.8420 C   0  0  0  0  0  2  0  0  0  0  0  0
  179.3650  180.9190  140.3980 O   0  0  0  0  0  0  0  0  0  0  0  0
  181.2370  179.1500  140.6730 N   0  0  0  0  0  0  0  0  0  0  0  0
  180.5860  179.2130  141.9180 N   0  0  0  0  0  0  0  0  0  0  0  0
  180.1550  180.0470  140.8550 C   0  0  0  0  0  0  0  0  0  0  0  0
  180.4120  178.6720  143.2260 C   0  0  0  0  0  3  0  0  0  0  0  0
  181.4630  178.5440  144.0440 C   0  0  0  0  0  3  0  0  0  0  0  0
  182.8630  178.7830  143.5410 C   0  0  0  0  0  2  0  0  0  0  0  0
  183.6440  179.7080  144.4810 C   0  0  0  0  0  3  0  0  0  0  0  0
  183.8600  179.0620  145.6990 O   0  0  0  0  0  1  0  0  0  0  0  0
  184.8740  180.0840  143.9210 O   0  0  0  0  0  1  0  0  0  0  0  0
  190.1580  176.8300  137.3280 C   0  0  2  0  0  3  0  0  0  0  0  0
  189.5910  176.2240  136.2110 O   0  0  0  0  0  1  0  0  0  0  0  0
  191.6580  176.5640  137.3450 C   0  0  0  0  0  2  0  0  0  0  0  0
  192.0070  175.1300  137.7690 C   0  0  1  0  0  3  0  0  0  0  0  0
  191.7400  174.1790  136.6930 N   0  0  0  0  0  1  0  0  0  0  0  0
  193.8950  176.2360  138.8070 O   0  0  0  0  0  1  0  0  0  0  0  0
  193.4500  175.0220  138.2740 C   0  0  2  0  0  3  0  0  0  0  0  0
  194.4030  174.5360  137.1740 C   0  0  2  0  0  3  0  0  0  0  0  0
  195.5800  172.4930  136.8260 O   0  0  0  0  0  0  0  0  0  0  0  0
  195.4400  173.1780  139.0030 O   0  0  0  0  0  1  0  0  0  0  0  0
  195.1770  173.3510  137.6530 C   0  0  0  0  0  0  0  0  0  0  0  0
  194.9360  175.8770  135.4740 C   0  0  0  0  0  1  0  0  0  0  0  0
  195.2830  175.5630  136.7940 O   0  0  0  0  0  0  0  0  0  0  0  0
  189.8560  176.4380  141.1340 C   0  0  0  0  0  2  0  0  0  0  0  0
  191.0320  177.1710  142.3360 S   0  0  0  0  0  0  0  0  0  0  0  0
  189.0960  177.4900  145.9350 C   0  0  0  0  0  0  0  0  0  0  0  0
  186.2380  177.2240  143.9070 O   0  0  0  0  0  0  0  0  0  0  0  0
  187.7960  177.4330  145.5410 N   0  0  0  0  0  0  0  0  0  0  0  0
  189.4030  177.6480  147.3190 N   0  0  0  0  0  1  0  0  0  0  0  0
  190.1270  177.4000  144.9840 C   0  0  2  0  0  3  0  0  0  0  0  0
  189.7840  177.2640  143.6250 C   0  0  0  0  0  0  0  0  0  0  0  0
  188.4420  177.2150  143.2510 C   0  0  0  0  0  3  0  0  0  0  0  0
  187.4500  177.2940  144.2320 C   0  0  0  0  0  0  0  0  0  0  0  0
  191.8930  175.9830  145.8010 N   0  0  0  0  0  1  0  0  0  0  0  0
  191.5610  177.3470  145.4220 C   0  0  0  0  0  2  0  0  0  0  0  0
  1 26  1  6  0  0  0
  1  4  1  0  0  0  0
  1  3  1  0  0  0  0
  3  2  1  6  0  0  0
  3 39  1  0  0  0  0
  4  7  1  0  0  0  0
  4  3  1  0  0  0  0
  5  8  1  0  0  0  0
  6  9  1  0  0  0  0
  7  6  2  0  0  0  0
  8 14  1  0  0  0  0
  8  9  2  0  0  0  0
 10  5  2  0  0  0  0
 10  7  1  0  0  0  0
 11 10  1  0  0  0  0
 12 13  2  0  0  0  0
 13 11  2  0  0  0  0
 14 15  1  0  0  0  0
 15 17  1  0  0  0  0
 16 19  2  0  0  0  0
 17 19  1  0  0  0  0
 17 18  1  0  0  0  0
 18 20  1  0  0  0  0
 19 18  1  0  0  0  0
 20 21  2  0  0  0  0
 22 21  1  0  0  0  0
 22 23  1  0  0  0  0
 23 24  1  0  0  0  0
 25 23  1  0  0  0  0
 26 27  1  6  0  0  0
 26 28  1  0  0  0  0
 28 29  1  0  0  0  0
 29 30  1  6  0  0  0
 29 32  1  0  0  0  0
 32 31  1  6  0  0  0
 33 38  1  1  0  0  0
 33 36  1  0  0  0  0
 33 32  1  0  0  0  0
 34 36  2  0  0  0  0
 36 35  1  0  0  0  0
 37 38  1  0  0  0  0
 39 40  1  0  0  0  0
 40 46  1  0  0  0  0
 41 44  1  0  0  0  0
 42 48  2  0  0  0  0
 43 41  2  0  0  0  0
 45 50  1  1  0  0  0
 45 41  1  0  0  0  0
 46 45  1  0  0  0  0
 47 46  2  0  0  0  0
 47 48  1  0  0  0  0
 48 43  1  0  0  0  0
 50 49  1  0  0  0  0
M  END
>  <MODEL>
3

>  <REMARK>
 VINA RESULT:      -6.8      3.567      8.641
  Name = 
  19 active torsions:
  status: ('A' for Active; 'I' for Inactive)
    1  A    between atoms: C_1  and  C_2
    2  A    between atoms: C_1  and  C_14
    3  A    between atoms: C_2  and  C_31
    4  A    between atoms: C_3  and  C_22
    5  A    between atoms: S_4  and  C_36
    6  A    between atoms: S_4  and  C_40
    7  A    between atoms: C_5  and  C_14
    8  A    between atoms: O_6  and  C_15
    9  A    between atoms: O_6  and  C_34
   10  A    between atoms: N_7  and  C_50
   11  A    between atoms: C_15  and  N_42
   12  A    between atoms: C_16  and  C_31
   13  A    between atoms: C_16  and  O_32
   14  A    between atoms: C_16  and  C_41
   15  A    between atoms: C_22  and  C_37
   16  A    between atoms: C_25  and  C_33
   17  A    between atoms: C_28  and  N_49
   18  A    between atoms: C_29  and  N_43
   19  A    between atoms: C_40  and  C_48
                            x       y       z     vdW  Elec       q    Type
                         _______ _______ _______ _____ _____    ______ ____

>  <TORSDO>
F 19

$$$$
=
 OpenBabel11042413213D

 50 53  0  0  1  0  0  0  0  0999 V2000
  189.8960  176.9340  137.0660 C   0  0  1  0  0  3  0  0  0  0  0  0
  187.9320  175.6870  137.7070 O   0  0  0  0  0  1  0  0  0  0  0  0
  188.5790  176.9130  137.5210 C   0  0  1  0  0  0  0  0  0  0  0  0
  189.6440  177.1160  138.5420 N   0  0  0  0  0  0  0  0  0  0  0  0
  189.4590  178.0690  142.1470 C   0  0  0  0  0  3  0  0  0  0  0  0
  191.3320  177.1150  140.3060 C   0  0  0  0  0  3  0  0  0  0  0  0
  190.0380  177.4290  139.8740 C   0  0  0  0  0  0  0  0  0  0  0  0
  190.7670  177.7740  142.5720 C   0  0  0  0  0  0  0  0  0  0  0  0
  191.6970  177.2990  141.6420 C   0  0  0  0  0  3  0  0  0  0  0  0
  189.0910  177.9150  140.7950 C   0  0  0  0  0  0  0  0  0  0  0  0
  187.7310  178.0930  140.3700 N   0  0  0  0  0  0  0  0  0  0  0  0
  185.9060  179.1500  141.7320 O   0  0  0  0  0  0  0  0  0  0  0  0
  186.8120  178.6330  141.0710 C   0  0  0  0  0  0  0  0  0  0  0  0
  191.1270  177.8830  143.9200 O   0  0  0  0  0  0  0  0  0  0  0  0
  190.2400  178.4510  144.8740 C   0  0  0  0  0  2  0  0  0  0  0  0
  191.8780  175.9670  147.2080 O   0  0  0  0  0  0  0  0  0  0  0  0
  190.2920  177.6990  146.1150 N   0  0  0  0  0  0  0  0  0  0  0  0
  189.7150  177.3840  147.3580 N   0  0  0  0  0  0  0  0  0  0  0  0
  190.9240  176.7560  146.9640 C   0  0  0  0  0  0  0  0  0  0  0  0
  188.7170  177.6630  148.3380 C   0  0  0  0  0  3  0  0  0  0  0  0
  187.4850  178.0200  147.9590 C   0  0  0  0  0  3  0  0  0  0  0  0
  187.1820  178.3220  146.5140 C   0  0  0  0  0  2  0  0  0  0  0  0
  185.7130  178.0410  146.1810 C   0  0  0  0  0  3  0  0  0  0  0  0
  184.8910  178.7040  147.0940 O   0  0  0  0  0  1  0  0  0  0  0  0
  185.3970  178.4520  144.8770 O   0  0  0  0  0  1  0  0  0  0  0  0
  190.4450  175.5350  136.7670 C   0  0  2  0  0  3  0  0  0  0  0  0
  190.5900  174.7860  137.9310 O   0  0  0  0  0  1  0  0  0  0  0  0
  191.7860  175.6290  136.0520 C   0  0  0  0  0  2  0  0  0  0  0  0
  192.8630  174.7330  136.6780 C   0  0  1  0  0  3  0  0  0  0  0  0
  193.3190  173.7150  135.7370 N   0  0  0  0  0  1  0  0  0  0  0  0
  194.2600  176.7010  136.4660 O   0  0  0  0  0  1  0  0  0  0  0  0
  194.0330  175.5530  137.2340 C   0  0  2  0  0  3  0  0  0  0  0  0
  195.3140  174.7160  137.3420 C   0  0  2  0  0  3  0  0  0  0  0  0
  195.7270  174.9800  139.6730 O   0  0  0  0  0  1  0  0  0  0  0  0
  195.3420  172.8330  138.9900 O   0  0  0  0  0  0  0  0  0  0  0  0
  195.4670  174.1890  138.7310 C   0  0  0  0  0  0  0  0  0  0  0  0
  197.1810  174.6800  136.1220 C   0  0  0  0  0  1  0  0  0  0  0  0
  196.4380  175.4850  136.9940 O   0  0  0  0  0  0  0  0  0  0  0  0
  187.6790  178.1360  137.3280 C   0  0  0  0  0  2  0  0  0  0  0  0
  186.6060  178.0610  135.8430 S   0  0  0  0  0  0  0  0  0  0  0  0
  183.4530  175.7810  137.1330 C   0  0  0  0  0  0  0  0  0  0  0  0
  183.4550  178.0880  139.7830 O   0  0  0  0  0  0  0  0  0  0  0  0
  183.1250  176.4140  138.2890 N   0  0  0  0  0  0  0  0  0  0  0  0
  182.7200  174.6230  136.7350 N   0  0  0  0  0  1  0  0  0  0  0  0
  184.5100  176.2600  136.3390 C   0  0  2  0  0  3  0  0  0  0  0  0
  185.2230  177.3940  136.7750 C   0  0  0  0  0  0  0  0  0  0  0  0
  184.8660  178.0180  137.9690 C   0  0  0  0  0  3  0  0  0  0  0  0
  183.8000  177.5160  138.7180 C   0  0  0  0  0  0  0  0  0  0  0  0
  185.7530  174.5510  135.1880 N   0  0  0  0  0  1  0  0  0  0  0  0
  184.8020  175.6350  135.0070 C   0  0  0  0  0  2  0  0  0  0  0  0
  1 26  1  1  0  0  0
  1  3  1  0  0  0  0
  1  4  1  0  0  0  0
  3  2  1  1  0  0  0
  3  4  1  0  0  0  0
  4  7  1  0  0  0  0
  5  8  1  0  0  0  0
  6  9  1  0  0  0  0
  7  6  2  0  0  0  0
  7 10  1  0  0  0  0
  8 14  1  0  0  0  0
  9  8  2  0  0  0  0
 10  5  2  0  0  0  0
 11 10  1  0  0  0  0
 11 13  2  0  0  0  0
 13 12  2  0  0  0  0
 14 15  1  0  0  0  0
 15 17  1  0  0  0  0
 17 19  1  0  0  0  0
 17 18  1  0  0  0  0
 18 20  1  0  0  0  0
 19 16  2  0  0  0  0
 19 18  1  0  0  0  0
 21 20  2  0  0  0  0
 22 21  1  0  0  0  0
 23 22  1  0  0  0  0
 23 24  1  0  0  0  0
 25 23  1  0  0  0  0
 26 27  1  1  0  0  0
 28 29  1  0  0  0  0
 28 26  1  0  0  0  0
 29 30  1  6  0  0  0
 29 32  1  0  0  0  0
 32 31  1  6  0  0  0
 32 33  1  0  0  0  0
 33 38  1  1  0  0  0
 33 36  1  0  0  0  0
 36 35  2  0  0  0  0
 36 34  1  0  0  0  0
 37 38  1  0  0  0  0
 39  3  1  0  0  0  0
 40 46  1  0  0  0  0
 40 39  1  0  0  0  0
 41 43  2  0  0  0  0
 43 48  1  0  0  0  0
 44 41  1  0  0  0  0
 45 50  1  6  0  0  0
 45 46  1  0  0  0  0
 45 41  1  0  0  0  0
 46 47  2  0  0  0  0
 47 48  1  0  0  0  0
 48 42  2  0  0  0  0
 50 49  1  0  0  0  0
M  END
>  <MODEL>
4

>  <REMARK>
 VINA RESULT:      -6.8      3.677      7.814
  Name = 
  19 active torsions:
  status: ('A' for Active; 'I' for Inactive)
    1  A    between atoms: C_1  and  C_2
    2  A    between atoms: C_1  and  C_14
    3  A    between atoms: C_2  and  C_31
    4  A    between atoms: C_3  and  C_22
    5  A    between atoms: S_4  and  C_36
    6  A    between atoms: S_4  and  C_40
    7  A    between atoms: C_5  and  C_14
    8  A    between atoms: O_6  and  C_15
    9  A    between atoms: O_6  and  C_34
   10  A    between atoms: N_7  and  C_50
   11  A    between atoms: C_15  and  N_42
   12  A    between atoms: C_16  and  C_31
   13  A    between atoms: C_16  and  O_32
   14  A    between atoms: C_16  and  C_41
   15  A    between atoms: C_22  and  C_37
   16  A    between atoms: C_25  and  C_33
   17  A    between atoms: C_28  and  N_49
   18  A    between atoms: C_29  and  N_43
   19  A    between atoms: C_40  and  C_48
                            x       y       z     vdW  Elec       q    Type
                         _______ _______ _______ _____ _____    ______ ____

>  <TORSDO>
F 19

$$$$
=
 OpenBabel11042413213D

 50 53  0  0  1  0  0  0  0  0999 V2000
  189.2150  176.6900  137.8250 C   0  0  1  0  0  3  0  0  0  0  0  0
  189.3650  179.0850  137.5680 O   0  0  0  0  0  1  0  0  0  0  0  0
  189.0480  177.9690  138.3510 C   0  0  1  0  0  0  0  0  0  0  0  0
  187.8290  177.2840  137.8390 N   0  0  0  0  0  0  0  0  0  0  0  0
  184.3960  175.9550  137.2170 C   0  0  0  0  0  3  0  0  0  0  0  0
  185.6250  178.2870  138.1430 C   0  0  0  0  0  3  0  0  0  0  0  0
  186.4140  177.2270  137.6860 C   0  0  0  0  0  0  0  0  0  0  0  0
  183.6050  177.0320  137.6560 C   0  0  0  0  0  0  0  0  0  0  0  0
  184.2300  178.1960  138.1150 C   0  0  0  0  0  3  0  0  0  0  0  0
  185.8030  176.0500  137.2130 C   0  0  0  0  0  0  0  0  0  0  0  0
  186.6230  174.9190  136.8860 N   0  0  0  0  0  0  0  0  0  0  0  0
  186.1840  172.5490  137.5910 O   0  0  0  0  0  0  0  0  0  0  0  0
  186.3890  173.7180  137.2500 C   0  0  0  0  0  0  0  0  0  0  0  0
  182.2110  176.9290  137.7030 O   0  0  0  0  0  0  0  0  0  0  0  0
  181.5770  175.7250  138.1120 C   0  0  0  0  0  2  0  0  0  0  0  0
  179.2040  174.6930  140.8710 O   0  0  0  0  0  0  0  0  0  0  0  0
  180.5340  176.0120  139.0810 N   0  0  0  0  0  0  0  0  0  0  0  0
  179.6590  176.9420  139.6690 N   0  0  0  0  0  0  0  0  0  0  0  0
  179.6490  175.5930  140.1060 C   0  0  0  0  0  0  0  0  0  0  0  0
  179.2460  178.3000  139.8080 C   0  0  0  0  0  3  0  0  0  0  0  0
  179.6350  179.0140  140.8700 C   0  0  0  0  0  3  0  0  0  0  0  0
  180.3450  178.3540  142.0230 C   0  0  0  0  0  2  0  0  0  0  0  0
  180.6160  179.3490  143.1570 C   0  0  0  0  0  3  0  0  0  0  0  0
  181.9860  179.4030  143.4150 O   0  0  0  0  0  1  0  0  0  0  0  0
  180.1450  180.6310  142.8350 O   0  0  0  0  0  1  0  0  0  0  0  0
  189.8050  176.7000  136.4110 C   0  0  2  0  0  3  0  0  0  0  0  0
  189.0980  175.8580  135.5580 O   0  0  0  0  0  1  0  0  0  0  0  0
  191.2690  176.2820  136.4400 C   0  0  0  0  0  2  0  0  0  0  0  0
  191.6260  175.4350  137.6700 C   0  0  1  0  0  3  0  0  0  0  0  0
  191.3030  174.0270  137.4550 N   0  0  0  0  0  1  0  0  0  0  0  0
  193.5400  176.9140  137.7920 O   0  0  0  0  0  1  0  0  0  0  0  0
  193.0890  175.6220  138.0850 C   0  0  2  0  0  3  0  0  0  0  0  0
  194.0030  174.5740  137.4360 C   0  0  2  0  0  3  0  0  0  0  0  0
  196.0800  175.0080  138.5210 O   0  0  0  0  0  0  0  0  0  0  0  0
  195.1020  173.0110  139.0520 O   0  0  0  0  0  1  0  0  0  0  0  0
  195.1150  174.2160  138.3680 C   0  0  0  0  0  0  0  0  0  0  0  0
  194.2570  174.0620  135.2800 C   0  0  0  0  0  1  0  0  0  0  0  0
  194.5290  175.0590  136.2260 O   0  0  0  0  0  0  0  0  0  0  0  0
  189.0370  178.1820  139.8670 C   0  0  0  0  0  2  0  0  0  0  0  0
  190.2600  177.1680  140.7840 S   0  0  0  0  0  0  0  0  0  0  0  0
  189.2700  177.5150  144.7470 C   0  0  0  0  0  0  0  0  0  0  0  0
  186.0160  177.7700  143.4440 O   0  0  0  0  0  0  0  0  0  0  0  0
  187.9210  177.6600  144.6700 N   0  0  0  0  0  0  0  0  0  0  0  0
  189.9060  177.5410  146.0230 N   0  0  0  0  0  1  0  0  0  0  0  0
  190.0310  177.3470  143.5760 C   0  0  2  0  0  3  0  0  0  0  0  0
  189.3690  177.3470  142.3330 C   0  0  0  0  0  0  0  0  0  0  0  0
  187.9850  177.5050  142.2870 C   0  0  0  0  0  3  0  0  0  0  0  0
  187.2670  177.6540  143.4750 C   0  0  0  0  0  0  0  0  0  0  0  0
  191.7110  175.6450  143.8450 N   0  0  0  0  0  1  0  0  0  0  0  0
  191.5030  177.0710  143.6620 C   0  0  0  0  0  2  0  0  0  0  0  0
  1 26  1  6  0  0  0
  1  4  1  0  0  0  0
  1  3  1  0  0  0  0
  3  2  1  6  0  0  0
  3 39  1  0  0  0  0
  4  3  1  0  0  0  0
  5  8  1  0  0  0  0
  7  4  1  0  0  0  0
  7  6  2  0  0  0  0
  8 14  1  0  0  0  0
  8  9  2  0  0  0  0
  9  6  1  0  0  0  0
 10  5  2  0  0  0  0
 10  7  1  0  0  0  0
 11 10  1  0  0  0  0
 11 13  2  0  0  0  0
 13 12  2  0  0  0  0
 14 15  1  0  0  0  0
 15 17  1  0  0  0  0
 17 18  1  0  0  0  0
 17 19  1  0  0  0  0
 18 20  1  0  0  0  0
 18 19  1  0  0  0  0
 19 16  2  0  0  0  0
 20 21  2  0  0  0  0
 21 22  1  0  0  0  0
 22 23  1  0  0  0  0
 23 24  1  0  0  0  0
 25 23  1  0  0  0  0
 26 27  1  6  0  0  0
 26 28  1  0  0  0  0
 28 29  1  0  0  0  0
 29 30  1  6  0  0  0
 29 32  1  0  0  0  0
 32 31  1  6  0  0  0
 33 38  1  6  0  0  0
 33 32  1  0  0  0  0
 33 36  1  0  0  0  0
 36 34  2  0  0  0  0
 36 35  1  0  0  0  0
 37 38  1  0  0  0  0
 39 40  1  0  0  0  0
 40 46  1  0  0  0  0
 41 44  1  0  0  0  0
 42 48  2  0  0  0  0
 43 41  2  0  0  0  0
 45 50  1  1  0  0  0
 45 41  1  0  0  0  0
 46 45  1  0  0  0  0
 47 46  2  0  0  0  0
 47 48  1  0  0  0  0
 48 43  1  0  0  0  0
 50 49  1  0  0  0  0
M  END
>  <MODEL>
5

>  <REMARK>
 VINA RESULT:      -6.6      3.532      9.002
  Name = 
  19 active torsions:
  status: ('A' for Active; 'I' for Inactive)
    1  A    between atoms: C_1  and  C_2
    2  A    between atoms: C_1  and  C_14
    3  A    between atoms: C_2  and  C_31
    4  A    between atoms: C_3  and  C_22
    5  A    between atoms: S_4  and  C_36
    6  A    between atoms: S_4  and  C_40
    7  A    between atoms: C_5  and  C_14
    8  A    between atoms: O_6  and  C_15
    9  A    between atoms: O_6  and  C_34
   10  A    between atoms: N_7  and  C_50
   11  A    between atoms: C_15  and  N_42
   12  A    between atoms: C_16  and  C_31
   13  A    between atoms: C_16  and  O_32
   14  A    between atoms: C_16  and  C_41
   15  A    between atoms: C_22  and  C_37
   16  A    between atoms: C_25  and  C_33
   17  A    between atoms: C_28  and  N_49
   18  A    between atoms: C_29  and  N_43
   19  A    between atoms: C_40  and  C_48
                            x       y       z     vdW  Elec       q    Type
                         _______ _______ _______ _____ _____    ______ ____

>  <TORSDO>
F 19

$$$$
=
 OpenBabel11042413213D

 50 53  0  0  1  0  0  0  0  0999 V2000
  188.4180  178.2770  141.1810 C   0  0  1  0  0  3  0  0  0  0  0  0
  188.1030  176.1270  142.2320 O   0  0  0  0  0  1  0  0  0  0  0  0
  188.9430  177.1850  141.8690 C   0  0  1  0  0  0  0  0  0  0  0  0
  189.1540  177.2210  140.3950 N   0  0  0  0  0  0  0  0  0  0  0  0
  191.7680  176.1840  137.9390 C   0  0  0  0  0  3  0  0  0  0  0  0
  189.0140  175.9270  138.3300 C   0  0  0  0  0  3  0  0  0  0  0  0
  189.7670  176.7010  139.2200 C   0  0  0  0  0  0  0  0  0  0  0  0
  191.0040  175.4260  137.0350 C   0  0  0  0  0  0  0  0  0  0  0  0
  189.6260  175.3050  137.2380 C   0  0  0  0  0  3  0  0  0  0  0  0
  191.1540  176.8400  139.0260 C   0  0  0  0  0  0  0  0  0  0  0  0
  191.9350  177.5130  140.0250 N   0  0  0  0  0  0  0  0  0  0  0  0
  194.3930  177.1830  140.4200 O   0  0  0  0  0  0  0  0  0  0  0  0
  193.1840  177.3380  140.2160 C   0  0  0  0  0  0  0  0  0  0  0  0
  191.6120  174.7380  135.9790 O   0  0  0  0  0  0  0  0  0  0  0  0
  192.6620  173.8100  136.2160 C   0  0  0  0  0  2  0  0  0  0  0  0
  194.9030  176.8190  135.7410 O   0  0  0  0  0  0  0  0  0  0  0  0
  193.9450  174.4180  135.9140 N   0  0  0  0  0  0  0  0  0  0  0  0
  195.3010  174.2650  135.5730 N   0  0  0  0  0  0  0  0  0  0  0  0
  194.7580  175.5660  135.7320 C   0  0  0  0  0  0  0  0  0  0  0  0
  196.4150  173.3940  135.3870 C   0  0  0  0  0  3  0  0  0  0  0  0
  197.5460  173.5970  136.0700 C   0  0  0  0  0  3  0  0  0  0  0  0
  197.7340  174.8440  136.8940 C   0  0  0  0  0  2  0  0  0  0  0  0
  197.9080  174.5120  138.3810 C   0  0  0  0  0  3  0  0  0  0  0  0
  198.3830  175.6360  139.0580 O   0  0  0  0  0  1  0  0  0  0  0  0
  196.6980  174.0910  138.9540 O   0  0  0  0  0  1  0  0  0  0  0  0
  186.9050  178.1720  140.9650 C   0  0  2  0  0  3  0  0  0  0  0  0
  186.5350  178.6450  139.7090 O   0  0  0  0  0  1  0  0  0  0  0  0
  186.1560  178.9470  142.0410 C   0  0  0  0  0  2  0  0  0  0  0  0
  184.8020  178.3180  142.4000 C   0  0  1  0  0  3  0  0  0  0  0  0
  184.6050  178.2730  143.8460 N   0  0  0  0  0  1  0  0  0  0  0  0
  182.4770  178.9950  142.4700 O   0  0  0  0  0  1  0  0  0  0  0  0
  183.6410  179.0260  141.6930 C   0  0  2  0  0  3  0  0  0  0  0  0
  183.3750  178.4350  140.3020 C   0  0  2  0  0  3  0  0  0  0  0  0
  182.1290  179.5900  138.6320 O   0  0  0  0  0  0  0  0  0  0  0  0
  184.1810  180.4800  139.1040 O   0  0  0  0  0  1  0  0  0  0  0  0
  183.1890  179.5330  139.3060 C   0  0  0  0  0  0  0  0  0  0  0  0
  182.6630  176.3830  139.7990 C   0  0  0  0  0  1  0  0  0  0  0  0
  182.2390  177.6100  140.3250 O   0  0  0  0  0  0  0  0  0  0  0  0
  190.2380  177.3340  142.6730 C   0  0  0  0  0  2  0  0  0  0  0  0
  190.2880  178.8080  143.7640 S   0  0  0  0  0  0  0  0  0  0  0  0
  189.3750  176.7610  147.1960 C   0  0  0  0  0  0  0  0  0  0  0  0
  192.7900  175.9430  147.0780 O   0  0  0  0  0  0  0  0  0  0  0  0
  190.5810  176.2220  147.5110 N   0  0  0  0  0  0  0  0  0  0  0  0
  188.2470  176.4880  148.0260 N   0  0  0  0  0  1  0  0  0  0  0  0
  189.2390  177.5750  146.0580 C   0  0  2  0  0  3  0  0  0  0  0  0
  190.3710  177.8050  145.2520 C   0  0  0  0  0  0  0  0  0  0  0  0
  191.5940  177.2330  145.5980 C   0  0  0  0  0  3  0  0  0  0  0  0
  191.6860  176.4420  146.7450 C   0  0  0  0  0  0  0  0  0  0  0  0
  187.0290  177.3240  145.1400 N   0  0  0  0  0  1  0  0  0  0  0  0
  187.9390  178.2660  145.7700 C   0  0  0  0  0  2  0  0  0  0  0  0
  1 26  1  6  0  0  0
  1  3  1  0  0  0  0
  3  2  1  1  0  0  0
  3 39  1  0  0  0  0
  4  1  1  0  0  0  0
  4  3  1  0  0  0  0
  5 10  1  0  0  0  0
  6  7  1  0  0  0  0
  7  4  1  0  0  0  0
  8  9  1  0  0  0  0
  8  5  2  0  0  0  0
  9  6  2  0  0  0  0
 10  7  2  0  0  0  0
 10 11  1  0  0  0  0
 11 13  2  0  0  0  0
 13 12  2  0  0  0  0
 14 15  1  0  0  0  0
 14  8  1  0  0  0  0
 17 15  1  0  0  0  0
 18 19  1  0  0  0  0
 18 17  1  0  0  0  0
 19 16  2  0  0  0  0
 19 17  1  0  0  0  0
 20 18  1  0  0  0  0
 20 21  2  0  0  0  0
 21 22  1  0  0  0  0
 22 23  1  0  0  0  0
 23 25  1  0  0  0  0
 23 24  1  0  0  0  0
 26 27  1  6  0  0  0
 26 28  1  0  0  0  0
 28 29  1  0  0  0  0
 29 30  1  1  0  0  0
 32 29  1  0  0  0  0
 32 31  1  1  0  0  0
 33 36  1  6  0  0  0
 33 38  1  0  0  0  0
 33 32  1  0  0  0  0
 34 36  2  0  0  0  0
 35 36  1  0  0  0  0
 37 38  1  0  0  0  0
 39 40  1  0  0  0  0
 40 46  1  0  0  0  0
 41 43  2  0  0  0  0
 41 44  1  0  0  0  0
 45 50  1  1  0  0  0
 45 41  1  0  0  0  0
 46 47  2  0  0  0  0
 46 45  1  0  0  0  0
 47 48  1  0  0  0  0
 48 42  2  0  0  0  0
 48 43  1  0  0  0  0
 49 50  1  0  0  0  0
M  END
>  <MODEL>
6

>  <REMARK>
 VINA RESULT:      -6.4      4.320      9.525
  Name = 
  19 active torsions:
  status: ('A' for Active; 'I' for Inactive)
    1  A    between atoms: C_1  and  C_2
    2  A    between atoms: C_1  and  C_14
    3  A    between atoms: C_2  and  C_31
    4  A    between atoms: C_3  and  C_22
    5  A    between atoms: S_4  and  C_36
    6  A    between atoms: S_4  and  C_40
    7  A    between atoms: C_5  and  C_14
    8  A    between atoms: O_6  and  C_15
    9  A    between atoms: O_6  and  C_34
   10  A    between atoms: N_7  and  C_50
   11  A    between atoms: C_15  and  N_42
   12  A    between atoms: C_16  and  C_31
   13  A    between atoms: C_16  and  O_32
   14  A    between atoms: C_16  and  C_41
   15  A    between atoms: C_22  and  C_37
   16  A    between atoms: C_25  and  C_33
   17  A    between atoms: C_28  and  N_49
   18  A    between atoms: C_29  and  N_43
   19  A    between atoms: C_40  and  C_48
                            x       y       z     vdW  Elec       q    Type
                         _______ _______ _______ _____ _____    ______ ____

>  <TORSDO>
F 19

$$$$
=
 OpenBabel11042413213D

 50 53  0  0  1  0  0  0  0  0999 V2000
  187.7450  177.2540  141.9890 C   0  0  1  0  0  3  0  0  0  0  0  0
  188.6480  179.4770  142.2520 O   0  0  0  0  0  1  0  0  0  0  0  0
  187.6620  178.6240  141.7460 C   0  0  1  0  0  0  0  0  0  0  0  0
  188.1990  177.7740  140.6480 N   0  0  0  0  0  0  0  0  0  0  0  0
  190.3770  177.1210  137.6860 C   0  0  0  0  0  3  0  0  0  0  0  0
  187.6750  177.5170  138.2780 C   0  0  0  0  0  3  0  0  0  0  0  0
  188.6270  177.6210  139.2980 C   0  0  0  0  0  0  0  0  0  0  0  0
  189.4200  177.0400  136.6590 C   0  0  0  0  0  0  0  0  0  0  0  0
  188.0700  177.2410  136.9650 C   0  0  0  0  0  3  0  0  0  0  0  0
  189.9900  177.4290  139.0070 C   0  0  0  0  0  0  0  0  0  0  0  0
  190.9370  177.3940  140.0850 N   0  0  0  0  0  0  0  0  0  0  0  0
  193.4330  177.5090  139.8370 O   0  0  0  0  0  0  0  0  0  0  0  0
  192.2040  177.4540  139.9470 C   0  0  0  0  0  0  0  0  0  0  0  0
  189.7910  176.6940  135.3550 O   0  0  0  0  0  0  0  0  0  0  0  0
  189.8010  175.3380  134.9300 C   0  0  0  0  0  2  0  0  0  0  0  0
  192.2300  172.4400  134.9760 O   0  0  0  0  0  0  0  0  0  0  0  0
  191.1410  174.7890  135.0380 N   0  0  0  0  0  0  0  0  0  0  0  0
  192.5200  175.0030  135.2110 N   0  0  0  0  0  0  0  0  0  0  0  0
  192.0260  173.6820  135.0620 C   0  0  0  0  0  0  0  0  0  0  0  0
  193.6040  175.9260  135.2940 C   0  0  0  0  0  3  0  0  0  0  0  0
  194.4400  175.8870  136.3370 C   0  0  0  0  0  3  0  0  0  0  0  0
  194.1460  175.0090  137.5250 C   0  0  0  0  0  2  0  0  0  0  0  0
  195.4370  174.4980  138.1760 C   0  0  0  0  0  3  0  0  0  0  0  0
  196.5330  174.8760  137.3990 O   0  0  0  0  0  1  0  0  0  0  0  0
  195.5860  174.9990  139.4780 O   0  0  0  0  0  1  0  0  0  0  0  0
  188.9410  176.8780  142.8680 C   0  0  2  0  0  3  0  0  0  0  0  0
  189.5770  175.7310  142.4000 O   0  0  0  0  0  1  0  0  0  0  0  0
  188.4970  176.6610  144.3090 C   0  0  0  0  0  2  0  0  0  0  0  0
  188.7690  177.8760  145.2080 C   0  0  1  0  0  3  0  0  0  0  0  0
  187.9630  177.8240  146.4250 N   0  0  0  0  0  1  0  0  0  0  0  0
  190.9120  178.7880  144.5460 O   0  0  0  0  0  1  0  0  0  0  0  0
  190.2600  178.0290  145.5240 C   0  0  2  0  0  3  0  0  0  0  0  0
  190.9480  176.6680  145.6950 C   0  0  2  0  0  3  0  0  0  0  0  0
  191.3720  177.4720  147.8980 O   0  0  0  0  0  1  0  0  0  0  0  0
  191.8180  175.2530  147.5680 O   0  0  0  0  0  0  0  0  0  0  0  0
  191.3830  176.4890  147.1130 C   0  0  0  0  0  0  0  0  0  0  0  0
  192.0220  175.2480  144.3520 C   0  0  0  0  0  1  0  0  0  0  0  0
  192.0550  176.5620  144.8370 O   0  0  0  0  0  0  0  0  0  0  0  0
  186.3110  179.2660  141.4150 C   0  0  0  0  0  2  0  0  0  0  0  0
  185.0710  178.1070  140.7200 S   0  0  0  0  0  0  0  0  0  0  0  0
  181.6040  178.9120  142.7530 C   0  0  0  0  0  0  0  0  0  0  0  0
  183.8010  179.1810  145.4830 O   0  0  0  0  0  0  0  0  0  0  0  0
  182.0740  179.0910  144.0160 N   0  0  0  0  0  0  0  0  0  0  0  0
  180.2030  179.0180  142.5050 N   0  0  0  0  0  1  0  0  0  0  0  0
  182.4920  178.6210  141.7030 C   0  0  2  0  0  3  0  0  0  0  0  0
  183.8660  178.5050  141.9910 C   0  0  0  0  0  0  0  0  0  0  0  0
  184.3160  178.6870  143.2970 C   0  0  0  0  0  3  0  0  0  0  0  0
  183.4010  178.9900  144.3070 C   0  0  0  0  0  0  0  0  0  0  0  0
  182.1040  179.8460  139.6680 N   0  0  0  0  0  1  0  0  0  0  0  0
  181.9940  178.5370  140.2900 C   0  0  0  0  0  2  0  0  0  0  0  0
  1 26  1  1  0  0  0
  3  1  1  0  0  0  0
  3  2  1  1  0  0  0
  4  3  1  0  0  0  0
  4  1  1  0  0  0  0
  5 10  1  0  0  0  0
  6  7  1  0  0  0  0
  7  4  1  0  0  0  0
  8  9  1  0  0  0  0
  8  5  2  0  0  0  0
  9  6  2  0  0  0  0
 10  7  2  0  0  0  0
 10 11  1  0  0  0  0
 12 13  2  0  0  0  0
 13 11  2  0  0  0  0
 14  8  1  0  0  0  0
 15 17  1  0  0  0  0
 15 14  1  0  0  0  0
 16 19  2  0  0  0  0
 17 19  1  0  0  0  0
 17 18  1  0  0  0  0
 18 20  1  0  0  0  0
 19 18  1  0  0  0  0
 20 21  2  0  0  0  0
 21 22  1  0  0  0  0
 22 23  1  0  0  0  0
 23 25  1  0  0  0  0
 24 23  1  0  0  0  0
 26 27  1  6  0  0  0
 26 28  1  0  0  0  0
 28 29  1  0  0  0  0
 29 32  1  0  0  0  0
 29 30  1  1  0  0  0
 32 31  1  6  0  0  0
 32 33  1  0  0  0  0
 33 38  1  6  0  0  0
 33 36  1  0  0  0  0
 36 35  2  0  0  0  0
 36 34  1  0  0  0  0
 37 38  1  0  0  0  0
 39  3  1  0  0  0  0
 40 39  1  0  0  0  0
 40 46  1  0  0  0  0
 41 43  2  0  0  0  0
 43 48  1  0  0  0  0
 44 41  1  0  0  0  0
 45 50  1  6  0  0  0
 45 46  1  0  0  0  0
 45 41  1  0  0  0  0
 46 47  2  0  0  0  0
 47 48  1  0  0  0  0
 48 42  2  0  0  0  0
 49 50  1  0  0  0  0
M  END
>  <MODEL>
7

>  <REMARK>
 VINA RESULT:      -6.4      3.837     10.073
  Name = 
  19 active torsions:
  status: ('A' for Active; 'I' for Inactive)
    1  A    between atoms: C_1  and  C_2
    2  A    between atoms: C_1  and  C_14
    3  A    between atoms: C_2  and  C_31
    4  A    between atoms: C_3  and  C_22
    5  A    between atoms: S_4  and  C_36
    6  A    between atoms: S_4  and  C_40
    7  A    between atoms: C_5  and  C_14
    8  A    between atoms: O_6  and  C_15
    9  A    between atoms: O_6  and  C_34
   10  A    between atoms: N_7  and  C_50
   11  A    between atoms: C_15  and  N_42
   12  A    between atoms: C_16  and  C_31
   13  A    between atoms: C_16  and  O_32
   14  A    between atoms: C_16  and  C_41
   15  A    between atoms: C_22  and  C_37
   16  A    between atoms: C_25  and  C_33
   17  A    between atoms: C_28  and  N_49
   18  A    between atoms: C_29  and  N_43
   19  A    between atoms: C_40  and  C_48
                            x       y       z     vdW  Elec       q    Type
                         _______ _______ _______ _____ _____    ______ ____

>  <TORSDO>
F 19

$$$$
=
 OpenBabel11042413213D

 50 53  0  0  1  0  0  0  0  0999 V2000
  190.7780  177.2430  139.4160 C   0  0  1  0  0  3  0  0  0  0  0  0
  191.1110  174.9570  138.7200 O   0  0  0  0  0  1  0  0  0  0  0  0
  191.1810  176.3270  138.4470 C   0  0  1  0  0  0  0  0  0  0  0  0
  189.8210  176.9130  138.2980 N   0  0  0  0  0  0  0  0  0  0  0  0
  186.6940  176.1950  136.3870 C   0  0  0  0  0  3  0  0  0  0  0  0
  188.0720  178.3850  137.4410 C   0  0  0  0  0  3  0  0  0  0  0  0
  188.6340  177.1070  137.5350 C   0  0  0  0  0  0  0  0  0  0  0  0
  186.1440  177.4840  136.2740 C   0  0  0  0  0  0  0  0  0  0  0  0
  186.8420  178.5740  136.8040 C   0  0  0  0  0  3  0  0  0  0  0  0
  187.9480  176.0000  137.0010 C   0  0  0  0  0  0  0  0  0  0  0  0
  188.4640  174.6800  137.2340 N   0  0  0  0  0  0  0  0  0  0  0  0
  189.2410  173.0860  135.4560 O   0  0  0  0  0  0  0  0  0  0  0  0
  188.8570  173.8790  136.3220 C   0  0  0  0  0  0  0  0  0  0  0  0
  184.8820  177.6810  135.7040 O   0  0  0  0  0  0  0  0  0  0  0  0
  183.9010  176.6520  135.7170 C   0  0  0  0  0  2  0  0  0  0  0  0
  181.0640  175.6440  138.0050 O   0  0  0  0  0  0  0  0  0  0  0  0
  182.8670  176.9580  136.6900 N   0  0  0  0  0  0  0  0  0  0  0  0
  182.1970  177.9120  137.4760 N   0  0  0  0  0  0  0  0  0  0  0  0
  181.8000  176.5520  137.5300 C   0  0  0  0  0  0  0  0  0  0  0  0
  182.1270  179.2510  137.9620 C   0  0  0  0  0  3  0  0  0  0  0  0
  183.1090  179.7390  138.7270 C   0  0  0  0  0  3  0  0  0  0  0  0
  184.2010  178.8390  139.2450 C   0  0  0  0  0  2  0  0  0  0  0  0
  184.3830  178.9940  140.7590 C   0  0  0  0  0  3  0  0  0  0  0  0
  184.0790  177.7880  141.3920 O   0  0  0  0  0  1  0  0  0  0  0  0
  185.6940  179.3780  141.0790 O   0  0  0  0  0  1  0  0  0  0  0  0
  190.3480  176.5740  140.7250 C   0  0  2  0  0  3  0  0  0  0  0  0
  189.0260  176.8740  141.0410 O   0  0  0  0  0  1  0  0  0  0  0  0
  191.2560  177.0080  141.8690 C   0  0  0  0  0  2  0  0  0  0  0  0
  190.7880  176.4860  143.2350 C   0  0  1  0  0  3  0  0  0  0  0  0
  191.7830  175.5990  143.8320 N   0  0  0  0  0  1  0  0  0  0  0  0
  191.4950  178.4810  144.4120 O   0  0  0  0  0  1  0  0  0  0  0  0
  190.4090  177.6290  144.1820 C   0  0  2  0  0  3  0  0  0  0  0  0
  189.8450  177.1060  145.5090 C   0  0  2  0  0  3  0  0  0  0  0  0
  187.9490  177.6680  146.8380 O   0  0  0  0  0  1  0  0  0  0  0  0
  187.6450  177.8550  144.5800 O   0  0  0  0  0  0  0  0  0  0  0  0
  188.4330  177.5630  145.6820 C   0  0  0  0  0  0  0  0  0  0  0  0
  191.0800  176.3840  147.2200 C   0  0  0  0  0  1  0  0  0  0  0  0
  190.6290  177.5490  146.5880 O   0  0  0  0  0  0  0  0  0  0  0  0
  192.1530  176.7520  137.3430 C   0  0  0  0  0  2  0  0  0  0  0  0
  192.3860  175.5070  136.0160 S   0  0  0  0  0  0  0  0  0  0  0  0
  196.4280  175.2020  136.6320 C   0  0  0  0  0  0  0  0  0  0  0  0
  195.4220  172.8990  139.0890 O   0  0  0  0  0  0  0  0  0  0  0  0
  196.4730  174.2960  137.6440 N   0  0  0  0  0  0  0  0  0  0  0  0
  197.6440  175.7530  136.1300 N   0  0  0  0  0  1  0  0  0  0  0  0
  195.1910  175.5950  136.0900 C   0  0  2  0  0  3  0  0  0  0  0  0
  194.0120  175.0440  136.6250 C   0  0  0  0  0  0  0  0  0  0  0  0
  194.0900  174.1220  137.6680 C   0  0  0  0  0  3  0  0  0  0  0  0
  195.3400  173.7490  138.1660 C   0  0  0  0  0  0  0  0  0  0  0  0
  195.2760  177.8820  135.3430 N   0  0  0  0  0  1  0  0  0  0  0  0
  195.1410  176.5050  134.8980 C   0  0  0  0  0  2  0  0  0  0  0  0
  1 26  1  1  0  0  0
  3  2  1  1  0  0  0
  3  1  1  0  0  0  0
  4  3  1  0  0  0  0
  4  1  1  0  0  0  0
  5 10  1  0  0  0  0
  6  7  1  0  0  0  0
  7  4  1  0  0  0  0
  8  5  2  0  0  0  0
  8  9  1  0  0  0  0
  9  6  2  0  0  0  0
 10 11  1  0  0  0  0
 10  7  2  0  0  0  0
 12 13  2  0  0  0  0
 13 11  2  0  0  0  0
 14 15  1  0  0  0  0
 14  8  1  0  0  0  0
 15 17  1  0  0  0  0
 17 18  1  0  0  0  0
 17 19  1  0  0  0  0
 18 19  1  0  0  0  0
 18 20  1  0  0  0  0
 19 16  2  0  0  0  0
 20 21  2  0  0  0  0
 21 22  1  0  0  0  0
 22 23  1  0  0  0  0
 23 25  1  0  0  0  0
 23 24  1  0  0  0  0
 26 27  1  1  0  0  0
 26 28  1  0  0  0  0
 28 29  1  0  0  0  0
 29 30  1  1  0  0  0
 29 32  1  0  0  0  0
 32 31  1  1  0  0  0
 32 33  1  0  0  0  0
 33 36  1  1  0  0  0
 33 38  1  0  0  0  0
 35 36  2  0  0  0  0
 36 34  1  0  0  0  0
 38 37  1  0  0  0  0
 39  3  1  0  0  0  0
 40 46  1  0  0  0  0
 40 39  1  0  0  0  0
 41 43  2  0  0  0  0
 43 48  1  0  0  0  0
 44 41  1  0  0  0  0
 45 50  1  6  0  0  0
 45 46  1  0  0  0  0
 45 41  1  0  0  0  0
 46 47  2  0  0  0  0
 47 48  1  0  0  0  0
 48 42  2  0  0  0  0
 50 49  1  0  0  0  0
M  END
>  <MODEL>
8

>  <REMARK>
 VINA RESULT:      -6.4      3.805      9.791
  Name = 
  19 active torsions:
  status: ('A' for Active; 'I' for Inactive)
    1  A    between atoms: C_1  and  C_2
    2  A    between atoms: C_1  and  C_14
    3  A    between atoms: C_2  and  C_31
    4  A    between atoms: C_3  and  C_22
    5  A    between atoms: S_4  and  C_36
    6  A    between atoms: S_4  and  C_40
    7  A    between atoms: C_5  and  C_14
    8  A    between atoms: O_6  and  C_15
    9  A    between atoms: O_6  and  C_34
   10  A    between atoms: N_7  and  C_50
   11  A    between atoms: C_15  and  N_42
   12  A    between atoms: C_16  and  C_31
   13  A    between atoms: C_16  and  O_32
   14  A    between atoms: C_16  and  C_41
   15  A    between atoms: C_22  and  C_37
   16  A    between atoms: C_25  and  C_33
   17  A    between atoms: C_28  and  N_49
   18  A    between atoms: C_29  and  N_43
   19  A    between atoms: C_40  and  C_48
                            x       y       z     vdW  Elec       q    Type
                         _______ _______ _______ _____ _____    ______ ____

>  <TORSDO>
F 19

$$$$
=
 OpenBabel11042413213D

 50 53  0  0  1  0  0  0  0  0999 V2000
  189.6270  176.2170  137.7380 C   0  0  1  0  0  3  0  0  0  0  0  0
  189.4980  178.5990  138.1080 O   0  0  0  0  0  1  0  0  0  0  0  0
  189.2490  177.2920  138.5400 C   0  0  1  0  0  0  0  0  0  0  0  0
  188.1830  176.6510  137.7220 N   0  0  0  0  0  0  0  0  0  0  0  0
  184.9240  175.0730  136.8090 C   0  0  0  0  0  3  0  0  0  0  0  0
  185.9260  177.5680  137.5670 C   0  0  0  0  0  3  0  0  0  0  0  0
  186.8090  176.4990  137.3790 C   0  0  0  0  0  0  0  0  0  0  0  0
  184.0430  176.1550  136.9770 C   0  0  0  0  0  0  0  0  0  0  0  0
  184.5550  177.4010  137.3550 C   0  0  0  0  0  3  0  0  0  0  0  0
  186.3120  175.2400  136.9920 C   0  0  0  0  0  0  0  0  0  0  0  0
  187.2090  174.1200  136.9450 N   0  0  0  0  0  0  0  0  0  0  0  0
  186.5900  171.7870  136.2530 O   0  0  0  0  0  0  0  0  0  0  0  0
  186.8820  172.9380  136.5900 C   0  0  0  0  0  0  0  0  0  0  0  0
  182.6610  175.9870  136.8390 O   0  0  0  0  0  0  0  0  0  0  0  0
  181.9040  175.2950  137.8230 C   0  0  0  0  0  2  0  0  0  0  0  0
  179.7240  176.1720  140.7860 O   0  0  0  0  0  0  0  0  0  0  0  0
  181.1230  176.2350  138.6070 N   0  0  0  0  0  0  0  0  0  0  0  0
  180.6320  177.5410  138.7830 N   0  0  0  0  0  0  0  0  0  0  0  0
  180.2990  176.5310  139.7220 C   0  0  0  0  0  0  0  0  0  0  0  0
  180.6410  178.9070  138.3720 C   0  0  0  0  0  3  0  0  0  0  0  0
  181.4890  179.7720  138.9390 C   0  0  0  0  0  3  0  0  0  0  0  0
  182.3050  179.3730  140.1410 C   0  0  0  0  0  2  0  0  0  0  0  0
  183.8030  179.3480  139.8160 C   0  0  0  0  0  3  0  0  0  0  0  0
  184.1370  180.4740  139.0620 O   0  0  0  0  0  1  0  0  0  0  0  0
  184.5790  179.3160  140.9850 O   0  0  0  0  0  1  0  0  0  0  0  0
  190.3490  176.6540  136.4600 C   0  0  2  0  0  3  0  0  0  0  0  0
  189.8070  176.0410  135.3340 O   0  0  0  0  0  1  0  0  0  0  0  0
  191.8350  176.3320  136.5480 C   0  0  0  0  0  2  0  0  0  0  0  0
  192.1370  175.1490  137.4800 C   0  0  1  0  0  3  0  0  0  0  0  0
  192.1990  173.8930  136.7370 N   0  0  0  0  0  1  0  0  0  0  0  0
  193.6610  176.7490  138.4730 O   0  0  0  0  0  1  0  0  0  0  0  0
  193.4090  175.3830  138.3020 C   0  0  2  0  0  3  0  0  0  0  0  0
  194.6260  174.6860  137.6790 C   0  0  2  0  0  3  0  0  0  0  0  0
  195.5460  172.8240  138.8470 O   0  0  0  0  0  0  0  0  0  0  0  0
  196.1570  174.8750  139.6500 O   0  0  0  0  0  1  0  0  0  0  0  0
  195.4700  174.0750  138.7500 C   0  0  0  0  0  0  0  0  0  0  0  0
  195.7260  174.9160  135.7530 C   0  0  0  0  0  1  0  0  0  0  0  0
  195.3870  175.5980  136.9290 O   0  0  0  0  0  0  0  0  0  0  0  0
  189.0600  177.0980  140.0470 C   0  0  0  0  0  2  0  0  0  0  0  0
  187.8510  178.2450  140.8140 S   0  0  0  0  0  0  0  0  0  0  0  0
  188.4340  177.5060  144.8040 C   0  0  0  0  0  0  0  0  0  0  0  0
  191.7600  178.3110  144.0030 O   0  0  0  0  0  0  0  0  0  0  0  0
  189.7700  177.7250  144.9200 N   0  0  0  0  0  0  0  0  0  0  0  0
  187.6870  177.1060  145.9510 N   0  0  0  0  0  1  0  0  0  0  0  0
  187.7970  177.6670  143.5610 C   0  0  2  0  0  3  0  0  0  0  0  0
  188.5720  178.0430  142.4470 C   0  0  0  0  0  0  0  0  0  0  0  0
  189.9420  178.2540  142.5970 C   0  0  0  0  0  3  0  0  0  0  0  0
  190.5310  178.0970  143.8540 C   0  0  0  0  0  0  0  0  0  0  0  0
  185.6820  178.6920  144.0780 N   0  0  0  0  0  1  0  0  0  0  0  0
  186.3060  177.5390  143.4510 C   0  0  0  0  0  2  0  0  0  0  0  0
  1 26  1  6  0  0  0
  1  3  1  0  0  0  0
  3  2  1  6  0  0  0
  3 39  1  0  0  0  0
  4  1  1  0  0  0  0
  4  3  1  0  0  0  0
  5  8  2  0  0  0  0
  5 10  1  0  0  0  0
  7  6  1  0  0  0  0
  7  4  1  0  0  0  0
  8  9  1  0  0  0  0
  9  6  2  0  0  0  0
 10  7  2  0  0  0  0
 11 10  1  0  0  0  0
 12 13  2  0  0  0  0
 13 11  2  0  0  0  0
 14  8  1  0  0  0  0
 14 15  1  0  0  0  0
 15 17  1  0  0  0  0
 17 18  1  0  0  0  0
 17 19  1  0  0  0  0
 18 19  1  0  0  0  0
 19 16  2  0  0  0  0
 20 18  1  0  0  0  0
 20 21  2  0  0  0  0
 21 22  1  0  0  0  0
 23 22  1  0  0  0  0
 23 25  1  0  0  0  0
 24 23  1  0  0  0  0
 26 27  1  6  0  0  0
 26 28  1  0  0  0  0
 28 29  1  0  0  0  0
 29 30  1  6  0  0  0
 29 32  1  0  0  0  0
 32 31  1  6  0  0  0
 33 38  1  1  0  0  0
 33 32  1  0  0  0  0
 33 36  1  0  0  0  0
 36 34  2  0  0  0  0
 36 35  1  0  0  0  0
 37 38  1  0  0  0  0
 39 40  1  0  0  0  0
 40 46  1  0  0  0  0
 41 43  2  0  0  0  0
 41 44  1  0  0  0  0
 45 50  1  1  0  0  0
 45 41  1  0  0  0  0
 46 47  2  0  0  0  0
 46 45  1  0  0  0  0
 47 48  1  0  0  0  0
 48 42  2  0  0  0  0
 48 43  1  0  0  0  0
 50 49  1  0  0  0  0
M  END
>  <MODEL>
9

>  <REMARK>
 VINA RESULT:      -6.3      3.527      9.219
  Name = 
  19 active torsions:
  status: ('A' for Active; 'I' for Inactive)
    1  A    between atoms: C_1  and  C_2
    2  A    between atoms: C_1  and  C_14
    3  A    between atoms: C_2  and  C_31
    4  A    between atoms: C_3  and  C_22
    5  A    between atoms: S_4  and  C_36
    6  A    between atoms: S_4  and  C_40
    7  A    between atoms: C_5  and  C_14
    8  A    between atoms: O_6  and  C_15
    9  A    between atoms: O_6  and  C_34
   10  A    between atoms: N_7  and  C_50
   11  A    between atoms: C_15  and  N_42
   12  A    between atoms: C_16  and  C_31
   13  A    between atoms: C_16  and  O_32
   14  A    between atoms: C_16  and  C_41
   15  A    between atoms: C_22  and  C_37
   16  A    between atoms: C_25  and  C_33
   17  A    between atoms: C_28  and  N_49
   18  A    between atoms: C_29  and  N_43
   19  A    between atoms: C_40  and  C_48
                            x       y       z     vdW  Elec       q    Type
                         _______ _______ _______ _____ _____    ______ ____

>  <TORSDO>
F 19

$$$$
