=
 OpenBabel11032420493D

 51 57  0  0  1  0  0  0  0  0999 V2000
  189.2120  175.9420  135.5900 C   0  0  2  0  0  3  0  0  0  0  0  0
  183.4020  176.7850  137.5850 O   0  0  0  0  0  0  0  0  0  0  0  0
  189.7680  177.9280  134.7320 C   0  0  0  0  0  2  0  0  0  0  0  0
  190.0230  176.5470  134.5940 O   0  0  0  0  0  0  0  0  0  0  0  0
  189.0570  179.1940  136.6550 O   0  0  0  0  0  0  0  0  0  0  0  0
  185.5230  177.2630  137.4340 C   0  0  0  0  0  0  0  0  0  0  0  0
  184.5510  176.3360  137.1480 C   0  0  0  0  0  0  0  0  0  0  0  0
  184.7810  175.0000  136.5330 C   0  0  0  0  0  0  0  0  0  0  0  0
  188.5230  173.7960  136.5040 C   0  0  0  0  0  2  0  0  0  0  0  0
  183.6030  177.9430  138.1870 C   0  0  0  0  0  0  0  0  0  0  0  0
  189.3810  178.1260  136.1470 C   0  0  0  0  0  0  0  0  0  0  0  0
  186.1290  173.4100  135.2390 O   0  0  0  0  0  1  0  0  0  0  0  0
  187.4980  175.5510  138.0620 C   0  0  2  0  0  3  0  0  0  0  0  0
  184.9380  178.2920  138.1460 C   0  0  0  0  0  3  0  0  0  0  0  0
  183.7550  174.3680  136.1300 O   0  0  0  0  0  0  0  0  0  0  0  0
  188.2920  176.6840  137.9710 C   0  0  1  0  0  0  0  0  0  0  0  0
  189.3310  176.8240  136.8110 C   0  0  1  0  0  3  0  0  0  0  0  0
  187.3090  174.5950  136.9070 C   0  0  0  0  0  0  0  0  0  0  0  0
  186.8330  176.8120  137.6550 N   0  0  0  0  0  0  0  0  0  0  0  0
  186.1190  174.3590  136.2610 C   0  0  0  0  0  0  0  0  0  0  0  0
  189.6500  174.5770  135.9310 N   0  0  0  0  0  0  0  0  0  0  0  0
  180.5720  178.7280  140.2420 N   0  0  0  0  0  0  0  0  0  0  0  0
  181.6270  176.5960  139.8830 N   0  0  0  0  0  1  0  0  0  0  0  0
  180.4370  180.0580  139.9980 C   0  0  0  0  0  3  0  0  0  0  0  0
  182.4410  180.0100  138.7170 N   0  0  0  0  0  0  0  0  0  0  0  0
  181.5970  178.0110  139.7050 C   0  0  0  0  0  0  0  0  0  0  0  0
  182.5840  178.6760  138.9510 C   0  0  0  0  0  0  0  0  0  0  0  0
  181.4010  180.7160  139.2300 C   0  0  0  0  0  3  0  0  0  0  0  0
  189.9360  172.3500  134.9000 C   0  0  0  0  0  1  0  0  0  0  0  0
  190.0440  173.8610  134.7100 C   0  0  0  0  0  2  0  0  0  0  0  0
  188.6380  177.3200  139.3180 C   0  0  0  0  0  2  0  0  0  0  0  0
  190.1210  177.6210  139.4070 C   0  0  0  0  0  2  0  0  0  0  0  0
  191.1360  177.7710  141.5760 N   0  0  0  0  0  0  0  0  0  0  0  0
  190.6830  177.0050  140.6460 C   0  0  0  0  0  3  0  0  0  0  0  0
  191.7630  177.1970  142.7460 C   0  0  0  0  0  2  0  0  0  0  0  0
  190.8570  176.1800  143.3740 C   0  0  0  0  0  0  0  0  0  0  0  0
  191.2690  174.9920  143.4990 O   0  0  0  0  0  0  0  0  0  0  0  0
  189.5950  176.5280  143.8780 O   0  0  0  0  0  0  0  0  0  0  0  0
  188.3850  176.0990  143.2690 C   0  0  0  0  0  2  0  0  0  0  0  0
  187.2090  176.4890  144.1460 C   0  0  0  0  0  2  0  0  0  0  0  0
  187.0870  178.5730  147.8590 O   0  0  0  0  0  1  0  0  0  0  0  0
  185.2330  178.4800  146.3470 C   0  0  0  0  0  0  0  0  0  0  0  0
  187.0790  177.9410  144.1970 N   0  0  0  0  0  0  0  0  0  0  0  0
  184.9740  179.1210  145.0180 C   0  0  0  0  0  2  0  0  0  0  0  0
  187.5730  178.4100  145.5040 C   0  0  0  0  0  2  0  0  0  0  0  0
  185.6550  178.2550  143.9460 C   0  0  1  0  0  3  0  0  0  0  0  0
  184.2990  178.2080  147.0930 O   0  0  0  0  0  0  0  0  0  0  0  0
  186.6270  178.0200  146.6600 C   0  0  1  0  0  3  0  0  0  0  0  0
  184.1220  179.2110  142.1920 N   0  0  0  0  0  1  0  0  0  0  0  0
  186.3840  178.8480  141.7360 O   0  0  0  0  0  0  0  0  0  0  0  0
  185.4250  178.7530  142.5540 C   0  0  0  0  0  0  0  0  0  0  0  0
  1  4  1  6  0  0  0
  1 21  1  0  0  0  0
  1 17  1  0  0  0  0
  2 10  1  0  0  0  0
  3 11  1  0  0  0  0
  4  3  1  0  0  0  0
  6 19  1  0  0  0  0
  6 14  1  0  0  0  0
  7  6  2  0  0  0  0
  7  2  1  0  0  0  0
  8  7  1  0  0  0  0
  9 18  1  0  0  0  0
 10 27  1  0  0  0  0
 11  5  2  0  0  0  0
 12 20  1  0  0  0  0
 13 18  1  6  0  0  0
 14 10  2  0  0  0  0
 15  8  2  0  0  0  0
 16 13  1  0  0  0  0
 16 31  1  1  0  0  0
 17 11  1  6  0  0  0
 17 16  1  0  0  0  0
 19 16  1  0  0  0  0
 19 13  1  0  0  0  0
 20  8  1  0  0  0  0
 20 18  2  0  0  0  0
 21  9  1  0  0  0  0
 24 22  1  0  0  0  0
 25 27  2  0  0  0  0
 25 28  1  0  0  0  0
 26 23  1  0  0  0  0
 26 22  2  0  0  0  0
 27 26  1  0  0  0  0
 28 24  2  0  0  0  0
 30 29  1  0  0  0  0
 30 21  1  0  0  0  0
 31 32  1  0  0  0  0
 32 34  1  0  0  0  0
 33 35  1  0  0  0  0
 34 33  2  0  0  0  0
 35 36  1  0  0  0  0
 36 37  2  0  0  0  0
 36 38  1  0  0  0  0
 39 38  1  0  0  0  0
 39 40  1  0  0  0  0
 40 43  1  0  0  0  0
 42 48  1  0  0  0  0
 42 47  2  0  0  0  0
 43 45  1  0  0  0  0
 44 42  1  0  0  0  0
 45 48  1  0  0  0  0
 46 51  1  6  0  0  0
 46 43  1  0  0  0  0
 46 44  1  0  0  0  0
 48 41  1  1  0  0  0
 49 51  1  0  0  0  0
 50 51  2  0  0  0  0
M  END
>  <MODEL>
1

>  <REMARK>
 VINA RESULT:      -6.7      0.000      0.000
  Name = 
  12 active torsions:
  status: ('A' for Active; 'I' for Inactive)
    1  A    between atoms: C_3  and  C_7
    2  A    between atoms: C_3  and  C_42
    3  A    between atoms: C_4  and  C_24
    4  A    between atoms: C_4  and  O_33
    5  A    between atoms: C_7  and  C_49
    6  A    between atoms: N_8  and  C_24
    7  A    between atoms: C_14  and  N_15
    8  A    between atoms: C_14  and  C_32
    9  A    between atoms: C_26  and  C_47
   10  A    between atoms: C_29  and  C_38
   11  A    between atoms: C_32  and  O_33
   12  A    between atoms: C_43  and  N_51
                            x       y       z     vdW  Elec       q    Type
                         _______ _______ _______ _____ _____    ______ ____

>  <TORSDO>
F 12

$$$$
=
 OpenBabel11032420493D

 51 57  0  0  1  0  0  0  0  0999 V2000
  180.6190  173.9860  137.3200 C   0  0  2  0  0  3  0  0  0  0  0  0
  186.7060  173.8450  136.1440 O   0  0  0  0  0  0  0  0  0  0  0  0
  180.5140  174.4750  139.4970 C   0  0  0  0  0  2  0  0  0  0  0  0
  179.8210  173.7870  138.4780 O   0  0  0  0  0  0  0  0  0  0  0  0
  182.0160  176.3550  139.3630 O   0  0  0  0  0  0  0  0  0  0  0  0
  184.8620  174.7360  136.8920 C   0  0  0  0  0  0  0  0  0  0  0  0
  185.4050  173.7010  136.1690 C   0  0  0  0  0  0  0  0  0  0  0  0
  184.6350  172.6490  135.4510 C   0  0  0  0  0  0  0  0  0  0  0  0
  180.8110  173.4140  134.9640 C   0  0  0  0  0  2  0  0  0  0  0  0
  187.0200  174.9590  136.7790 C   0  0  0  0  0  0  0  0  0  0  0  0
  181.2680  175.5510  138.8150 C   0  0  0  0  0  0  0  0  0  0  0  0
  182.5970  171.3450  135.0500 O   0  0  0  0  0  1  0  0  0  0  0  0
  182.6650  175.1270  135.3930 C   0  0  2  0  0  3  0  0  0  0  0  0
  185.8880  175.5860  137.2590 C   0  0  0  0  0  3  0  0  0  0  0  0
  185.2900  171.6460  135.0280 O   0  0  0  0  0  0  0  0  0  0  0  0
  182.2610  175.8970  136.4730 C   0  0  1  0  0  0  0  0  0  0  0  0
  181.0720  175.4270  137.3720 C   0  0  1  0  0  3  0  0  0  0  0  0
  182.2710  173.6770  135.2350 C   0  0  0  0  0  0  0  0  0  0  0  0
  183.5690  175.1730  136.5670 N   0  0  0  0  0  0  0  0  0  0  0  0
  183.1410  172.6130  135.2520 C   0  0  0  0  0  0  0  0  0  0  0  0
  179.8770  173.7530  136.0680 N   0  0  0  0  0  0  0  0  0  0  0  0
  190.6970  175.4070  137.3350 N   0  0  0  0  0  0  0  0  0  0  0  0
  189.4280  173.3630  137.2820 N   0  0  0  0  0  1  0  0  0  0  0  0
  190.7930  176.7630  137.3220 C   0  0  0  0  0  3  0  0  0  0  0  0
  188.4740  176.9050  136.8040 N   0  0  0  0  0  0  0  0  0  0  0  0
  189.5050  174.7800  137.1320 C   0  0  0  0  0  0  0  0  0  0  0  0
  188.3660  175.5480  136.8190 C   0  0  0  0  0  0  0  0  0  0  0  0
  189.6590  177.5270  137.0370 C   0  0  0  0  0  3  0  0  0  0  0  0
  179.0860  171.6740  134.9940 C   0  0  0  0  0  1  0  0  0  0  0  0
  179.0030  172.5810  136.2190 C   0  0  0  0  0  2  0  0  0  0  0  0
  182.4580  177.4020  136.2820 C   0  0  0  0  0  2  0  0  0  0  0  0
  181.1780  178.0560  135.8000 C   0  0  0  0  0  2  0  0  0  0  0  0
  181.2430  179.1400  137.9400 N   0  0  0  0  0  0  0  0  0  0  0  0
  180.8010  179.1610  136.7320 C   0  0  0  0  0  3  0  0  0  0  0  0
  180.8220  180.1510  138.8840 C   0  0  0  0  0  2  0  0  0  0  0  0
  181.0000  179.6570  140.2890 C   0  0  0  0  0  0  0  0  0  0  0  0
  180.0000  179.6390  141.0590 O   0  0  0  0  0  0  0  0  0  0  0  0
  182.2300  179.1600  140.7450 O   0  0  0  0  0  0  0  0  0  0  0  0
  182.4940  178.9180  142.1200 C   0  0  0  0  0  2  0  0  0  0  0  0
  183.8260  178.2050  142.2640 C   0  0  0  0  0  2  0  0  0  0  0  0
  187.8890  178.5450  141.0310 O   0  0  0  0  0  1  0  0  0  0  0  0
  187.2270  177.5360  143.0990 C   0  0  0  0  0  0  0  0  0  0  0  0
  184.7710  179.0450  142.9900 N   0  0  0  0  0  0  0  0  0  0  0  0
  186.6900  178.1020  144.3780 C   0  0  0  0  0  2  0  0  0  0  0  0
  185.8900  179.3770  142.0910 C   0  0  0  0  0  2  0  0  0  0  0  0
  185.1750  178.2940  144.2000 C   0  0  1  0  0  3  0  0  0  0  0  0
  187.8870  176.5040  143.1110 O   0  0  0  0  0  0  0  0  0  0  0  0
  186.7900  178.1560  141.8040 C   0  0  1  0  0  3  0  0  0  0  0  0
  185.2780  179.0280  146.6060 N   0  0  0  0  0  1  0  0  0  0  0  0
  183.2710  179.1100  145.4130 O   0  0  0  0  0  0  0  0  0  0  0  0
  184.4970  178.8020  145.4320 C   0  0  0  0  0  0  0  0  0  0  0  0
  1 17  1  0  0  0  0
  1  4  1  1  0  0  0
  2  7  1  0  0  0  0
  2 10  1  0  0  0  0
  4  3  1  0  0  0  0
  6 14  1  0  0  0  0
  7  6  2  0  0  0  0
  8  7  1  0  0  0  0
  9 18  1  0  0  0  0
  9 21  1  0  0  0  0
 10 27  1  0  0  0  0
 10 14  2  0  0  0  0
 11  5  2  0  0  0  0
 11  3  1  0  0  0  0
 12 20  1  0  0  0  0
 13 18  1  1  0  0  0
 13 16  1  0  0  0  0
 13 19  1  0  0  0  0
 15  8  2  0  0  0  0
 16 31  1  6  0  0  0
 16 19  1  0  0  0  0
 16 17  1  0  0  0  0
 17 11  1  1  0  0  0
 18 20  2  0  0  0  0
 19  6  1  0  0  0  0
 20  8  1  0  0  0  0
 21 30  1  0  0  0  0
 21  1  1  0  0  0  0
 24 22  1  0  0  0  0
 25 27  2  0  0  0  0
 25 28  1  0  0  0  0
 26 23  1  0  0  0  0
 26 22  2  0  0  0  0
 27 26  1  0  0  0  0
 28 24  2  0  0  0  0
 29 30  1  0  0  0  0
 32 31  1  0  0  0  0
 32 34  1  0  0  0  0
 33 35  1  0  0  0  0
 34 33  2  0  0  0  0
 35 36  1  0  0  0  0
 36 38  1  0  0  0  0
 36 37  2  0  0  0  0
 38 39  1  0  0  0  0
 39 40  1  0  0  0  0
 40 43  1  0  0  0  0
 42 47  2  0  0  0  0
 42 44  1  0  0  0  0
 43 46  1  0  0  0  0
 45 43  1  0  0  0  0
 46 44  1  0  0  0  0
 46 51  1  1  0  0  0
 48 41  1  1  0  0  0
 48 45  1  0  0  0  0
 48 42  1  0  0  0  0
 50 51  2  0  0  0  0
 51 49  1  0  0  0  0
M  END
>  <MODEL>
2

>  <REMARK>
 VINA RESULT:      -6.5      2.866      7.515
  Name = 
  12 active torsions:
  status: ('A' for Active; 'I' for Inactive)
    1  A    between atoms: C_3  and  C_7
    2  A    between atoms: C_3  and  C_42
    3  A    between atoms: C_4  and  C_24
    4  A    between atoms: C_4  and  O_33
    5  A    between atoms: C_7  and  C_49
    6  A    between atoms: N_8  and  C_24
    7  A    between atoms: C_14  and  N_15
    8  A    between atoms: C_14  and  C_32
    9  A    between atoms: C_26  and  C_47
   10  A    between atoms: C_29  and  C_38
   11  A    between atoms: C_32  and  O_33
   12  A    between atoms: C_43  and  N_51
                            x       y       z     vdW  Elec       q    Type
                         _______ _______ _______ _____ _____    ______ ____

>  <TORSDO>
F 12

$$$$
=
 OpenBabel11032420493D

 51 57  0  0  1  0  0  0  0  0999 V2000
  189.7000  176.0870  135.8120 C   0  0  2  0  0  3  0  0  0  0  0  0
  183.8660  174.0120  135.4650 O   0  0  0  0  0  0  0  0  0  0  0  0
  189.6660  177.9580  134.5940 C   0  0  0  0  0  2  0  0  0  0  0  0
  190.5180  176.9060  134.9900 O   0  0  0  0  0  0  0  0  0  0  0  0
  187.7240  178.8830  135.6800 O   0  0  0  0  0  0  0  0  0  0  0  0
  185.4090  175.5010  135.8570 C   0  0  0  0  0  0  0  0  0  0  0  0
  185.1590  174.1780  135.5850 C   0  0  0  0  0  0  0  0  0  0  0  0
  186.1800  173.0960  135.5340 C   0  0  0  0  0  0  0  0  0  0  0  0
  189.6710  174.0160  137.0880 C   0  0  0  0  0  2  0  0  0  0  0  0
  183.2690  175.1660  135.6990 C   0  0  0  0  0  0  0  0  0  0  0  0
  188.6590  178.0880  135.6700 C   0  0  0  0  0  0  0  0  0  0  0  0
  188.4900  172.3010  135.3150 O   0  0  0  0  0  1  0  0  0  0  0  0
  187.4310  175.1490  137.5940 C   0  0  2  0  0  3  0  0  0  0  0  0
  184.1960  176.1500  135.9790 C   0  0  0  0  0  3  0  0  0  0  0  0
  185.8130  171.9810  135.0470 O   0  0  0  0  0  0  0  0  0  0  0  0
  187.6160  176.5110  137.4070 C   0  0  1  0  0  0  0  0  0  0  0  0
  188.8840  177.0360  136.6600 C   0  0  1  0  0  3  0  0  0  0  0  0
  188.1930  174.1090  136.8060 C   0  0  0  0  0  0  0  0  0  0  0  0
  186.5430  175.8250  136.6180 N   0  0  0  0  0  0  0  0  0  0  0  0
  187.6320  173.2170  135.9230 C   0  0  0  0  0  0  0  0  0  0  0  0
  190.4800  175.1970  136.6900 N   0  0  0  0  0  0  0  0  0  0  0  0
  179.8000  175.2740  137.1070 N   0  0  0  0  0  0  0  0  0  0  0  0
  181.8940  175.1940  138.2890 N   0  0  0  0  0  1  0  0  0  0  0  0
  179.0610  175.2380  135.9670 C   0  0  0  0  0  3  0  0  0  0  0  0
  181.0660  175.3140  134.6860 N   0  0  0  0  0  0  0  0  0  0  0  0
  181.1610  175.2860  137.0680 C   0  0  0  0  0  0  0  0  0  0  0  0
  181.8160  175.3460  135.8220 C   0  0  0  0  0  0  0  0  0  0  0  0
  179.7090  175.2720  134.7290 C   0  0  0  0  0  3  0  0  0  0  0  0
  191.6940  173.1350  136.0760 C   0  0  0  0  0  1  0  0  0  0  0  0
  191.6310  174.6550  135.9530 C   0  0  0  0  0  2  0  0  0  0  0  0
  187.0310  177.3840  138.5180 C   0  0  0  0  0  2  0  0  0  0  0  0
  188.0950  178.2880  139.1090 C   0  0  0  0  0  2  0  0  0  0  0  0
  189.8200  177.2360  140.4040 N   0  0  0  0  0  0  0  0  0  0  0  0
  188.6150  177.6870  140.3740 C   0  0  0  0  0  3  0  0  0  0  0  0
  190.3170  176.5730  141.5890 C   0  0  0  0  0  2  0  0  0  0  0  0
  191.5820  177.2270  142.0600 C   0  0  0  0  0  0  0  0  0  0  0  0
  192.5580  177.3090  141.2630 O   0  0  0  0  0  0  0  0  0  0  0  0
  191.6840  177.8010  143.3360 O   0  0  0  0  0  0  0  0  0  0  0  0
  191.0870  179.0490  143.6620 C   0  0  0  0  0  2  0  0  0  0  0  0
  190.3140  178.9170  144.9620 C   0  0  0  0  0  2  0  0  0  0  0  0
  186.2840  177.5690  145.2470 O   0  0  0  0  0  1  0  0  0  0  0  0
  187.8060  177.5490  147.0950 C   0  0  0  0  0  0  0  0  0  0  0  0
  190.0000  177.5180  145.2220 N   0  0  0  0  0  0  0  0  0  0  0  0
  188.9980  176.7010  147.4190 C   0  0  0  0  0  2  0  0  0  0  0  0
  188.6240  177.2530  144.7640 C   0  0  0  0  0  2  0  0  0  0  0  0
  190.2040  177.2910  146.6700 C   0  0  1  0  0  3  0  0  0  0  0  0
  187.1320  178.0360  147.9960 O   0  0  0  0  0  0  0  0  0  0  0  0
  187.5690  177.9320  145.6630 C   0  0  1  0  0  3  0  0  0  0  0  0
  191.9470  175.5950  146.0180 N   0  0  0  0  0  1  0  0  0  0  0  0
  192.1880  176.8760  147.9570 O   0  0  0  0  0  0  0  0  0  0  0  0
  191.4830  176.5700  146.9530 C   0  0  0  0  0  0  0  0  0  0  0  0
  1  4  1  6  0  0  0
  1 17  1  0  0  0  0
  1 21  1  0  0  0  0
  2  7  1  0  0  0  0
  2 10  1  0  0  0  0
  3  4  1  0  0  0  0
  3 11  1  0  0  0  0
  6 14  1  0  0  0  0
  6 19  1  0  0  0  0
  7  6  2  0  0  0  0
  8  7  1  0  0  0  0
  8 20  1  0  0  0  0
 10 27  1  0  0  0  0
 10 14  2  0  0  0  0
 11  5  2  0  0  0  0
 12 20  1  0  0  0  0
 13 18  1  6  0  0  0
 15  8  2  0  0  0  0
 16 13  1  0  0  0  0
 16 31  1  1  0  0  0
 17 11  1  6  0  0  0
 17 16  1  0  0  0  0
 18  9  1  0  0  0  0
 19 16  1  0  0  0  0
 19 13  1  0  0  0  0
 20 18  2  0  0  0  0
 21  9  1  0  0  0  0
 24 22  2  0  0  0  0
 25 28  2  0  0  0  0
 25 27  1  0  0  0  0
 26 22  1  0  0  0  0
 26 23  1  0  0  0  0
 27 26  2  0  0  0  0
 28 24  1  0  0  0  0
 30 29  1  0  0  0  0
 30 21  1  0  0  0  0
 31 32  1  0  0  0  0
 32 34  1  0  0  0  0
 33 35  1  0  0  0  0
 34 33  2  0  0  0  0
 35 36  1  0  0  0  0
 36 38  1  0  0  0  0
 37 36  2  0  0  0  0
 38 39  1  0  0  0  0
 39 40  1  0  0  0  0
 40 43  1  0  0  0  0
 42 44  1  0  0  0  0
 42 47  2  0  0  0  0
 43 46  1  0  0  0  0
 45 43  1  0  0  0  0
 45 48  1  0  0  0  0
 46 51  1  6  0  0  0
 46 44  1  0  0  0  0
 48 41  1  6  0  0  0
 48 42  1  0  0  0  0
 49 51  1  0  0  0  0
 51 50  2  0  0  0  0
M  END
>  <MODEL>
3

>  <REMARK>
 VINA RESULT:      -6.5      2.588      3.689
  Name = 
  12 active torsions:
  status: ('A' for Active; 'I' for Inactive)
    1  A    between atoms: C_3  and  C_7
    2  A    between atoms: C_3  and  C_42
    3  A    between atoms: C_4  and  C_24
    4  A    between atoms: C_4  and  O_33
    5  A    between atoms: C_7  and  C_49
    6  A    between atoms: N_8  and  C_24
    7  A    between atoms: C_14  and  N_15
    8  A    between atoms: C_14  and  C_32
    9  A    between atoms: C_26  and  C_47
   10  A    between atoms: C_29  and  C_38
   11  A    between atoms: C_32  and  O_33
   12  A    between atoms: C_43  and  N_51
                            x       y       z     vdW  Elec       q    Type
                         _______ _______ _______ _____ _____    ______ ____

>  <TORSDO>
F 12

$$$$
=
 OpenBabel11032420493D

 51 57  0  0  1  0  0  0  0  0999 V2000
  191.4520  175.2280  137.5510 C   0  0  2  0  0  3  0  0  0  0  0  0
  189.1250  177.8030  142.6900 O   0  0  0  0  0  0  0  0  0  0  0  0
  190.0790  173.5120  137.1540 C   0  0  0  0  0  2  0  0  0  0  0  0
  191.4160  173.9270  136.9820 O   0  0  0  0  0  0  0  0  0  0  0  0
  188.0580  174.8110  137.3460 O   0  0  0  0  0  0  0  0  0  0  0  0
  189.0300  177.0360  140.6520 C   0  0  0  0  0  0  0  0  0  0  0  0
  189.8580  177.3760  141.6930 C   0  0  0  0  0  0  0  0  0  0  0  0
  191.3460  177.3580  141.6580 C   0  0  0  0  0  0  0  0  0  0  0  0
  192.9300  177.0890  138.0700 C   0  0  0  0  0  2  0  0  0  0  0  0
  187.8590  177.7980  142.3150 C   0  0  0  0  0  0  0  0  0  0  0  0
  189.2730  174.7530  137.1860 C   0  0  0  0  0  0  0  0  0  0  0  0
  193.4850  176.6230  140.7070 O   0  0  0  0  0  1  0  0  0  0  0  0
  190.5760  177.9210  138.6390 C   0  0  2  0  0  3  0  0  0  0  0  0
  187.7330  177.3430  141.0180 C   0  0  0  0  0  3  0  0  0  0  0  0
  191.9490  177.4800  142.7690 O   0  0  0  0  0  0  0  0  0  0  0  0
  189.6910  177.1960  137.8540 C   0  0  1  0  0  0  0  0  0  0  0  0
  190.1720  175.9040  137.1180 C   0  0  1  0  0  3  0  0  0  0  0  0
  191.8860  177.3490  139.1270 C   0  0  0  0  0  0  0  0  0  0  0  0
  189.5160  177.1590  139.3410 N   0  0  0  0  0  0  0  0  0  0  0  0
  192.2090  177.1210  140.4440 C   0  0  0  0  0  0  0  0  0  0  0  0
  192.6040  176.0230  137.0880 N   0  0  0  0  0  0  0  0  0  0  0  0
  185.4110  178.4360  145.0780 N   0  0  0  0  0  0  0  0  0  0  0  0
  187.4940  177.2350  145.1700 N   0  0  0  0  0  1  0  0  0  0  0  0
  184.4300  179.0900  144.4020 C   0  0  0  0  0  3  0  0  0  0  0  0
  185.7650  179.0250  142.4330 N   0  0  0  0  0  0  0  0  0  0  0  0
  186.5500  178.0290  144.4520 C   0  0  0  0  0  0  0  0  0  0  0  0
  186.7530  178.3650  143.0990 C   0  0  0  0  0  0  0  0  0  0  0  0
  184.6180  179.4020  143.0530 C   0  0  0  0  0  3  0  0  0  0  0  0
  194.3700  175.1410  135.6040 C   0  0  0  0  0  1  0  0  0  0  0  0
  193.8000  175.1720  137.0190 C   0  0  0  0  0  2  0  0  0  0  0  0
  188.6120  178.0420  137.1780 C   0  0  0  0  0  2  0  0  0  0  0  0
  188.7280  177.9580  135.6680 C   0  0  0  0  0  2  0  0  0  0  0  0
  186.4520  177.2010  135.6080 N   0  0  0  0  0  0  0  0  0  0  0  0
  187.3630  177.9290  135.0630 C   0  0  0  0  0  3  0  0  0  0  0  0
  185.1480  177.0900  134.9910 C   0  0  0  0  0  2  0  0  0  0  0  0
  184.3000  176.1080  135.7440 C   0  0  0  0  0  0  0  0  0  0  0  0
  184.8500  175.3560  136.5960 O   0  0  0  0  0  0  0  0  0  0  0  0
  182.9090  176.0490  135.5680 O   0  0  0  0  0  0  0  0  0  0  0  0
  182.0060  175.9410  136.6590 C   0  0  0  0  0  2  0  0  0  0  0  0
  181.8960  177.2820  137.3620 C   0  0  0  0  0  2  0  0  0  0  0  0
  179.7620  176.1100  140.8570 O   0  0  0  0  0  1  0  0  0  0  0  0
  180.6450  178.3130  140.5370 C   0  0  0  0  0  0  0  0  0  0  0  0
  182.5490  177.2230  138.6650 N   0  0  0  0  0  0  0  0  0  0  0  0
  182.0400  178.8590  140.5520 C   0  0  0  0  0  2  0  0  0  0  0  0
  181.7680  176.3300  139.5400 C   0  0  0  0  0  2  0  0  0  0  0  0
  182.6480  178.6130  139.1620 C   0  0  1  0  0  3  0  0  0  0  0  0
  179.7010  179.0240  140.8620 O   0  0  0  0  0  0  0  0  0  0  0  0
  180.4160  176.9510  139.9500 C   0  0  1  0  0  3  0  0  0  0  0  0
  185.1020  178.2730  138.7120 N   0  0  0  0  0  1  0  0  0  0  0  0
  184.2360  180.4120  139.0780 O   0  0  0  0  0  0  0  0  0  0  0  0
  184.0300  179.1660  139.0170 C   0  0  0  0  0  0  0  0  0  0  0  0
  1  4  1  6  0  0  0
  3 11  1  0  0  0  0
  4  3  1  0  0  0  0
  6 14  1  0  0  0  0
  6  7  2  0  0  0  0
  7  2  1  0  0  0  0
  8  7  1  0  0  0  0
  8 15  2  0  0  0  0
  9 18  1  0  0  0  0
 10  2  1  0  0  0  0
 10 27  1  0  0  0  0
 11  5  2  0  0  0  0
 13 18  1  1  0  0  0
 13 19  1  0  0  0  0
 14 10  2  0  0  0  0
 16 31  1  6  0  0  0
 16 13  1  0  0  0  0
 16 19  1  0  0  0  0
 17 11  1  1  0  0  0
 17  1  1  0  0  0  0
 17 16  1  0  0  0  0
 18 20  2  0  0  0  0
 19  6  1  0  0  0  0
 20 12  1  0  0  0  0
 20  8  1  0  0  0  0
 21  1  1  0  0  0  0
 21  9  1  0  0  0  0
 24 22  2  0  0  0  0
 25 28  2  0  0  0  0
 25 27  1  0  0  0  0
 26 22  1  0  0  0  0
 26 23  1  0  0  0  0
 27 26  2  0  0  0  0
 28 24  1  0  0  0  0
 29 30  1  0  0  0  0
 30 21  1  0  0  0  0
 32 31  1  0  0  0  0
 34 33  2  0  0  0  0
 34 32  1  0  0  0  0
 35 33  1  0  0  0  0
 35 36  1  0  0  0  0
 36 37  2  0  0  0  0
 38 36  1  0  0  0  0
 38 39  1  0  0  0  0
 39 40  1  0  0  0  0
 40 43  1  0  0  0  0
 42 44  1  0  0  0  0
 42 47  2  0  0  0  0
 43 46  1  0  0  0  0
 43 45  1  0  0  0  0
 45 48  1  0  0  0  0
 46 51  1  1  0  0  0
 46 44  1  0  0  0  0
 48 42  1  0  0  0  0
 48 41  1  1  0  0  0
 49 51  1  0  0  0  0
 51 50  2  0  0  0  0
M  END
>  <MODEL>
4

>  <REMARK>
 VINA RESULT:      -6.4      2.410      6.692
  Name = 
  12 active torsions:
  status: ('A' for Active; 'I' for Inactive)
    1  A    between atoms: C_3  and  C_7
    2  A    between atoms: C_3  and  C_42
    3  A    between atoms: C_4  and  C_24
    4  A    between atoms: C_4  and  O_33
    5  A    between atoms: C_7  and  C_49
    6  A    between atoms: N_8  and  C_24
    7  A    between atoms: C_14  and  N_15
    8  A    between atoms: C_14  and  C_32
    9  A    between atoms: C_26  and  C_47
   10  A    between atoms: C_29  and  C_38
   11  A    between atoms: C_32  and  O_33
   12  A    between atoms: C_43  and  N_51
                            x       y       z     vdW  Elec       q    Type
                         _______ _______ _______ _____ _____    ______ ____

>  <TORSDO>
F 12

$$$$
=
 OpenBabel11032420493D

 51 57  0  0  1  0  0  0  0  0999 V2000
  189.5440  175.9430  135.6540 C   0  0  2  0  0  3  0  0  0  0  0  0
  183.4680  175.0310  136.4920 O   0  0  0  0  0  0  0  0  0  0  0  0
  189.6410  177.9050  134.5940 C   0  0  0  0  0  2  0  0  0  0  0  0
  190.3240  176.6780  134.7230 O   0  0  0  0  0  0  0  0  0  0  0  0
  188.1950  179.0530  136.1430 O   0  0  0  0  0  0  0  0  0  0  0  0
  185.3280  176.1590  136.6210 C   0  0  0  0  0  0  0  0  0  0  0  0
  184.7630  174.9420  136.3300 C   0  0  0  0  0  0  0  0  0  0  0  0
  185.5090  173.7010  135.9840 C   0  0  0  0  0  0  0  0  0  0  0  0
  189.3590  173.7900  136.7730 C   0  0  0  0  0  2  0  0  0  0  0  0
  183.1800  176.2450  136.9250 C   0  0  0  0  0  0  0  0  0  0  0  0
  188.9260  178.1050  135.8740 C   0  0  0  0  0  0  0  0  0  0  0  0
  187.5130  172.5190  135.2060 O   0  0  0  0  0  1  0  0  0  0  0  0
  187.5510  175.2580  137.8360 C   0  0  2  0  0  3  0  0  0  0  0  0
  184.3250  177.0050  137.0520 C   0  0  0  0  0  3  0  0  0  0  0  0
  184.8300  172.7310  135.5230 O   0  0  0  0  0  0  0  0  0  0  0  0
  187.9660  176.5740  137.6980 C   0  0  1  0  0  0  0  0  0  0  0  0
  189.1320  176.9310  136.7200 C   0  0  1  0  0  3  0  0  0  0  0  0
  187.9050  174.1840  136.8350 C   0  0  0  0  0  0  0  0  0  0  0  0
  186.6370  176.1860  137.1280 N   0  0  0  0  0  0  0  0  0  0  0  0
  187.0040  173.5090  136.0450 C   0  0  0  0  0  0  0  0  0  0  0  0
  190.2910  174.8360  136.2780 N   0  0  0  0  0  0  0  0  0  0  0  0
  180.1690  176.8330  139.0740 N   0  0  0  0  0  0  0  0  0  0  0  0
  182.3960  176.2280  139.7510 N   0  0  0  0  0  1  0  0  0  0  0  0
  179.2220  177.0670  138.1270 C   0  0  0  0  0  3  0  0  0  0  0  0
  180.8950  176.9160  136.4410 N   0  0  0  0  0  0  0  0  0  0  0  0
  181.4650  176.5950  138.7340 C   0  0  0  0  0  0  0  0  0  0  0  0
  181.8510  176.6760  137.3810 C   0  0  0  0  0  0  0  0  0  0  0  0
  179.5970  177.1230  136.7820 C   0  0  0  0  0  3  0  0  0  0  0  0
  191.6210  172.8170  135.7730 C   0  0  0  0  0  1  0  0  0  0  0  0
  191.1300  174.1710  135.2700 C   0  0  0  0  0  2  0  0  0  0  0  0
  187.8140  177.4180  138.9650 C   0  0  0  0  0  2  0  0  0  0  0  0
  189.1570  177.6250  139.6380 C   0  0  0  0  0  2  0  0  0  0  0  0
  190.0580  176.2470  141.3840 N   0  0  0  0  0  0  0  0  0  0  0  0
  189.1190  177.0460  141.0140 C   0  0  0  0  0  3  0  0  0  0  0  0
  189.9980  175.6060  142.6790 C   0  0  0  0  0  2  0  0  0  0  0  0
  191.0380  176.1830  143.5930 C   0  0  0  0  0  0  0  0  0  0  0  0
  192.2490  176.1470  143.2360 O   0  0  0  0  0  0  0  0  0  0  0  0
  190.6930  176.8120  144.7980 O   0  0  0  0  0  0  0  0  0  0  0  0
  190.4150  178.2030  144.8810 C   0  0  0  0  0  2  0  0  0  0  0  0
  188.9550  178.4490  144.5460 C   0  0  0  0  0  2  0  0  0  0  0  0
  185.0050  177.6780  143.1480 O   0  0  0  0  0  1  0  0  0  0  0  0
  185.4760  178.5810  145.3160 C   0  0  0  0  0  0  0  0  0  0  0  0
  188.1160  177.4300  145.1650 N   0  0  0  0  0  0  0  0  0  0  0  0
  186.0560  177.9810  146.5600 C   0  0  0  0  0  2  0  0  0  0  0  0
  187.0740  177.0310  144.2030 C   0  0  0  0  0  2  0  0  0  0  0  0
  187.5860  178.0100  146.4190 C   0  0  1  0  0  3  0  0  0  0  0  0
  184.6810  179.5110  145.3920 O   0  0  0  0  0  0  0  0  0  0  0  0
  186.0230  178.1420  143.9890 C   0  0  1  0  0  3  0  0  0  0  0  0
  188.0280  178.0850  148.8970 N   0  0  0  0  0  1  0  0  0  0  0  0
  189.0630  176.4870  147.5420 O   0  0  0  0  0  0  0  0  0  0  0  0
  188.2990  177.4900  147.6270 C   0  0  0  0  0  0  0  0  0  0  0  0
  1  4  1  6  0  0  0
  1 21  1  0  0  0  0
  1 17  1  0  0  0  0
  2 10  1  0  0  0  0
  3  4  1  0  0  0  0
  3 11  1  0  0  0  0
  6 14  1  0  0  0  0
  6 19  1  0  0  0  0
  7  2  1  0  0  0  0
  7  6  2  0  0  0  0
  8 20  1  0  0  0  0
  8  7  1  0  0  0  0
  9 18  1  0  0  0  0
 10 14  2  0  0  0  0
 10 27  1  0  0  0  0
 11  5  2  0  0  0  0
 12 20  1  0  0  0  0
 13 18  1  6  0  0  0
 15  8  2  0  0  0  0
 16 13  1  0  0  0  0
 16 31  1  1  0  0  0
 17 11  1  6  0  0  0
 17 16  1  0  0  0  0
 19 16  1  0  0  0  0
 19 13  1  0  0  0  0
 20 18  2  0  0  0  0
 21  9  1  0  0  0  0
 24 22  2  0  0  0  0
 25 28  2  0  0  0  0
 25 27  1  0  0  0  0
 26 22  1  0  0  0  0
 26 23  1  0  0  0  0
 27 26  2  0  0  0  0
 28 24  1  0  0  0  0
 30 29  1  0  0  0  0
 30 21  1  0  0  0  0
 31 32  1  0  0  0  0
 32 34  1  0  0  0  0
 33 35  1  0  0  0  0
 34 33  2  0  0  0  0
 35 36  1  0  0  0  0
 36 38  1  0  0  0  0
 37 36  2  0  0  0  0
 38 39  1  0  0  0  0
 40 39  1  0  0  0  0
 40 43  1  0  0  0  0
 42 47  2  0  0  0  0
 42 44  1  0  0  0  0
 43 46  1  0  0  0  0
 45 43  1  0  0  0  0
 46 44  1  0  0  0  0
 46 51  1  1  0  0  0
 48 41  1  6  0  0  0
 48 45  1  0  0  0  0
 48 42  1  0  0  0  0
 50 51  2  0  0  0  0
 51 49  1  0  0  0  0
M  END
>  <MODEL>
5

>  <REMARK>
 VINA RESULT:      -6.4      1.711      2.613
  Name = 
  12 active torsions:
  status: ('A' for Active; 'I' for Inactive)
    1  A    between atoms: C_3  and  C_7
    2  A    between atoms: C_3  and  C_42
    3  A    between atoms: C_4  and  C_24
    4  A    between atoms: C_4  and  O_33
    5  A    between atoms: C_7  and  C_49
    6  A    between atoms: N_8  and  C_24
    7  A    between atoms: C_14  and  N_15
    8  A    between atoms: C_14  and  C_32
    9  A    between atoms: C_26  and  C_47
   10  A    between atoms: C_29  and  C_38
   11  A    between atoms: C_32  and  O_33
   12  A    between atoms: C_43  and  N_51
                            x       y       z     vdW  Elec       q    Type
                         _______ _______ _______ _____ _____    ______ ____

>  <TORSDO>
F 12

$$$$
=
 OpenBabel11032420493D

 51 57  0  0  1  0  0  0  0  0999 V2000
  191.4180  175.8620  146.1400 C   0  0  2  0  0  3  0  0  0  0  0  0
  185.9150  178.0420  144.2920 O   0  0  0  0  0  0  0  0  0  0  0  0
  191.8080  174.1650  144.7410 C   0  0  0  0  0  2  0  0  0  0  0  0
  192.0720  174.6040  146.0550 O   0  0  0  0  0  0  0  0  0  0  0  0
  191.3370  175.4270  142.7430 O   0  0  0  0  0  0  0  0  0  0  0  0
  187.9850  177.4220  144.0100 C   0  0  0  0  0  0  0  0  0  0  0  0
  187.0030  177.6950  144.9310 C   0  0  0  0  0  0  0  0  0  0  0  0
  187.1770  177.6930  146.4090 C   0  0  0  0  0  0  0  0  0  0  0  0
  190.9050  177.6950  147.6540 C   0  0  0  0  0  2  0  0  0  0  0  0
  186.1700  178.0520  142.9970 C   0  0  0  0  0  0  0  0  0  0  0  0
  191.6130  175.3930  143.9380 C   0  0  0  0  0  0  0  0  0  0  0  0
  188.3710  177.0490  148.4530 O   0  0  0  0  0  1  0  0  0  0  0  0
  190.0640  178.4620  145.3600 C   0  0  2  0  0  3  0  0  0  0  0  0
  187.4790  177.6890  142.7530 C   0  0  0  0  0  3  0  0  0  0  0  0
  186.1200  177.7430  147.1130 O   0  0  0  0  0  0  0  0  0  0  0  0
  190.8130  177.7860  144.4090 C   0  0  1  0  0  0  0  0  0  0  0  0
  191.6810  176.5540  144.8230 C   0  0  1  0  0  3  0  0  0  0  0  0
  189.7410  177.8690  146.7120 C   0  0  0  0  0  0  0  0  0  0  0  0
  189.3230  177.6410  144.3720 N   0  0  0  0  0  0  0  0  0  0  0  0
  188.4790  177.5510  147.1570 C   0  0  0  0  0  0  0  0  0  0  0  0
  191.9270  176.6980  147.2410 N   0  0  0  0  0  0  0  0  0  0  0  0
  183.0350  178.9750  141.1670 N   0  0  0  0  0  0  0  0  0  0  0  0
  183.3140  178.4810  143.5050 N   0  0  0  0  0  1  0  0  0  0  0  0
  183.5000  179.0580  139.8920 C   0  0  0  0  0  3  0  0  0  0  0  0
  185.7040  178.6420  140.6860 N   0  0  0  0  0  0  0  0  0  0  0  0
  183.8660  178.6850  142.2050 C   0  0  0  0  0  0  0  0  0  0  0  0
  185.2490  178.5510  141.9670 C   0  0  0  0  0  0  0  0  0  0  0  0
  184.8670  178.9020  139.6500 C   0  0  0  0  0  3  0  0  0  0  0  0
  193.5500  176.1330  149.0150 C   0  0  0  0  0  1  0  0  0  0  0  0
  192.1670  175.8660  148.4280 C   0  0  0  0  0  2  0  0  0  0  0  0
  191.3250  178.6680  143.2690 C   0  0  0  0  0  2  0  0  0  0  0  0
  190.9700  178.0670  141.9220 C   0  0  0  0  0  2  0  0  0  0  0  0
  192.1410  177.2500  139.9940 N   0  0  0  0  0  0  0  0  0  0  0  0
  192.2210  177.6750  141.2060 C   0  0  0  0  0  3  0  0  0  0  0  0
  193.3270  176.7830  139.3100 C   0  0  0  0  0  2  0  0  0  0  0  0
  193.0110  176.4690  137.8780 C   0  0  0  0  0  0  0  0  0  0  0  0
  193.8600  176.7560  136.9890 O   0  0  0  0  0  0  0  0  0  0  0  0
  191.8270  175.8100  137.5120 O   0  0  0  0  0  0  0  0  0  0  0  0
  191.4440  175.6250  136.1570 C   0  0  0  0  0  2  0  0  0  0  0  0
  190.0720  176.2340  135.9290 C   0  0  0  0  0  2  0  0  0  0  0  0
  186.7810  173.5470  135.6130 O   0  0  0  0  0  1  0  0  0  0  0  0
  186.5230  175.8950  136.0060 C   0  0  0  0  0  0  0  0  0  0  0  0
  189.2040  175.9600  137.0690 N   0  0  0  0  0  0  0  0  0  0  0  0
  186.7870  176.7590  137.2020 C   0  0  0  0  0  2  0  0  0  0  0  0
  188.5230  174.6730  136.8410 C   0  0  0  0  0  2  0  0  0  0  0  0
  188.2830  177.1110  137.1970 C   0  0  1  0  0  3  0  0  0  0  0  0
  185.6460  176.2010  135.2060 O   0  0  0  0  0  0  0  0  0  0  0  0
  187.4650  174.7630  135.7200 C   0  0  1  0  0  3  0  0  0  0  0  0
  189.0550  179.3670  138.0060 N   0  0  0  0  0  1  0  0  0  0  0  0
  188.5930  177.6470  139.5170 O   0  0  0  0  0  0  0  0  0  0  0  0
  188.6760  178.0250  138.3140 C   0  0  0  0  0  0  0  0  0  0  0  0
  1  4  1  6  0  0  0
  1 21  1  0  0  0  0
  2  7  1  0  0  0  0
  3  4  1  0  0  0  0
  5 11  2  0  0  0  0
  6 19  1  0  0  0  0
  6  7  2  0  0  0  0
  7  8  1  0  0  0  0
  8 15  2  0  0  0  0
  8 20  1  0  0  0  0
 10  2  1  0  0  0  0
 11  3  1  0  0  0  0
 13 18  1  1  0  0  0
 14 10  2  0  0  0  0
 14  6  1  0  0  0  0
 16 31  1  6  0  0  0
 16 17  1  0  0  0  0
 16 13  1  0  0  0  0
 17 11  1  6  0  0  0
 17  1  1  0  0  0  0
 18 20  2  0  0  0  0
 18  9  1  0  0  0  0
 19 16  1  0  0  0  0
 19 13  1  0  0  0  0
 20 12  1  0  0  0  0
 21  9  1  0  0  0  0
 21 30  1  0  0  0  0
 22 26  1  0  0  0  0
 24 22  2  0  0  0  0
 25 27  1  0  0  0  0
 26 23  1  0  0  0  0
 27 26  2  0  0  0  0
 27 10  1  0  0  0  0
 28 24  1  0  0  0  0
 28 25  2  0  0  0  0
 30 29  1  0  0  0  0
 32 31  1  0  0  0  0
 33 34  2  0  0  0  0
 34 32  1  0  0  0  0
 35 33  1  0  0  0  0
 36 35  1  0  0  0  0
 37 36  2  0  0  0  0
 38 36  1  0  0  0  0
 39 38  1  0  0  0  0
 40 39  1  0  0  0  0
 40 43  1  0  0  0  0
 42 44  1  0  0  0  0
 43 46  1  0  0  0  0
 45 43  1  0  0  0  0
 46 44  1  0  0  0  0
 46 51  1  1  0  0  0
 47 42  2  0  0  0  0
 48 41  1  1  0  0  0
 48 42  1  0  0  0  0
 48 45  1  0  0  0  0
 49 51  1  0  0  0  0
 51 50  2  0  0  0  0
M  END
>  <MODEL>
6

>  <REMARK>
 VINA RESULT:      -6.3      2.518      8.527
  Name = 
  12 active torsions:
  status: ('A' for Active; 'I' for Inactive)
    1  A    between atoms: C_3  and  C_7
    2  A    between atoms: C_3  and  C_42
    3  A    between atoms: C_4  and  C_24
    4  A    between atoms: C_4  and  O_33
    5  A    between atoms: C_7  and  C_49
    6  A    between atoms: N_8  and  C_24
    7  A    between atoms: C_14  and  N_15
    8  A    between atoms: C_14  and  C_32
    9  A    between atoms: C_26  and  C_47
   10  A    between atoms: C_29  and  C_38
   11  A    between atoms: C_32  and  O_33
   12  A    between atoms: C_43  and  N_51
                            x       y       z     vdW  Elec       q    Type
                         _______ _______ _______ _____ _____    ______ ____

>  <TORSDO>
F 12

$$$$
=
 OpenBabel11032420493D

 51 57  0  0  1  0  0  0  0  0999 V2000
  191.5370  175.8460  146.2110 C   0  0  2  0  0  3  0  0  0  0  0  0
  185.9340  177.8090  144.4180 O   0  0  0  0  0  0  0  0  0  0  0  0
  191.9270  174.0890  144.8900 C   0  0  0  0  0  2  0  0  0  0  0  0
  192.2180  174.6010  146.1720 O   0  0  0  0  0  0  0  0  0  0  0  0
  191.3710  175.2360  142.8450 O   0  0  0  0  0  0  0  0  0  0  0  0
  188.0100  177.2190  144.1070 C   0  0  0  0  0  0  0  0  0  0  0  0
  187.0480  177.5180  145.0410 C   0  0  0  0  0  0  0  0  0  0  0  0
  187.2640  177.5970  146.5120 C   0  0  0  0  0  0  0  0  0  0  0  0
  191.0250  177.7440  147.6450 C   0  0  0  0  0  2  0  0  0  0  0  0
  186.1530  177.7570  143.1170 C   0  0  0  0  0  0  0  0  0  0  0  0
  191.6810  175.2690  144.0320 C   0  0  0  0  0  0  0  0  0  0  0  0
  188.5300  177.0840  148.5500 O   0  0  0  0  0  1  0  0  0  0  0  0
  190.1010  178.3730  145.3410 C   0  0  2  0  0  3  0  0  0  0  0  0
  187.4630  177.4110  142.8530 C   0  0  0  0  0  3  0  0  0  0  0  0
  186.2260  177.6590  147.2430 O   0  0  0  0  0  0  0  0  0  0  0  0
  190.8390  177.6660  144.4030 C   0  0  1  0  0  0  0  0  0  0  0  0
  191.7470  176.4760  144.8540 C   0  0  1  0  0  3  0  0  0  0  0  0
  189.8300  177.8440  146.7300 C   0  0  0  0  0  0  0  0  0  0  0  0
  189.3520  177.4870  144.4180 N   0  0  0  0  0  0  0  0  0  0  0  0
  188.5900  177.5220  147.2270 C   0  0  0  0  0  0  0  0  0  0  0  0
  192.0570  176.7490  147.2540 N   0  0  0  0  0  0  0  0  0  0  0  0
  184.6600  179.3780  140.0880 N   0  0  0  0  0  0  0  0  0  0  0  0
  186.9820  179.0030  140.5950 N   0  0  0  0  0  1  0  0  0  0  0  0
  183.3400  179.3560  140.4130 C   0  0  0  0  0  3  0  0  0  0  0  0
  183.8660  178.1630  142.4030 N   0  0  0  0  0  0  0  0  0  0  0  0
  185.6000  178.8450  140.9150 C   0  0  0  0  0  0  0  0  0  0  0  0
  185.1920  178.1820  142.0900 C   0  0  0  0  0  0  0  0  0  0  0  0
  182.9340  178.7220  141.5900 C   0  0  0  0  0  3  0  0  0  0  0  0
  193.4540  176.6530  149.2880 C   0  0  0  0  0  1  0  0  0  0  0  0
  192.3500  175.9850  148.4740 C   0  0  0  0  0  2  0  0  0  0  0  0
  191.2970  178.4980  143.2050 C   0  0  0  0  0  2  0  0  0  0  0  0
  191.6850  177.6030  142.0440 C   0  0  0  0  0  2  0  0  0  0  0  0
  190.0650  176.9140  140.4130 N   0  0  0  0  0  0  0  0  0  0  0  0
  190.7830  177.8730  140.8840 C   0  0  0  0  0  3  0  0  0  0  0  0
  189.2500  177.1280  139.2380 C   0  0  0  0  0  2  0  0  0  0  0  0
  189.9260  176.5600  138.0260 C   0  0  0  0  0  0  0  0  0  0  0  0
  190.1850  177.3270  137.0570 O   0  0  0  0  0  0  0  0  0  0  0  0
  190.3320  175.2180  137.9690 O   0  0  0  0  0  0  0  0  0  0  0  0
  190.6610  174.5710  136.7480 C   0  0  0  0  0  2  0  0  0  0  0  0
  191.8010  173.5960  136.9810 C   0  0  0  0  0  2  0  0  0  0  0  0
  194.8570  170.9120  135.7160 O   0  0  0  0  0  1  0  0  0  0  0  0
  195.1660  172.5200  137.4630 C   0  0  0  0  0  0  0  0  0  0  0  0
  193.0170  174.0800  136.3380 N   0  0  0  0  0  0  0  0  0  0  0  0
  195.3060  174.0110  137.4570 C   0  0  0  0  0  2  0  0  0  0  0  0
  193.6150  172.9730  135.5710 C   0  0  0  0  0  2  0  0  0  0  0  0
  193.8910  174.6090  137.4090 C   0  0  1  0  0  3  0  0  0  0  0  0
  195.7020  171.8540  138.3410 O   0  0  0  0  0  0  0  0  0  0  0  0
  194.2170  171.8860  136.4890 C   0  0  1  0  0  3  0  0  0  0  0  0
  193.4810  176.7530  138.6640 N   0  0  0  0  0  1  0  0  0  0  0  0
  194.3010  176.7840  136.4770 O   0  0  0  0  0  0  0  0  0  0  0  0
  193.8810  176.1040  137.4570 C   0  0  0  0  0  0  0  0  0  0  0  0
  1  4  1  6  0  0  0
  1 21  1  0  0  0  0
  2  7  1  0  0  0  0
  3  4  1  0  0  0  0
  5 11  2  0  0  0  0
  6 19  1  0  0  0  0
  6  7  2  0  0  0  0
  7  8  1  0  0  0  0
  8 20  1  0  0  0  0
  8 15  2  0  0  0  0
 10  2  1  0  0  0  0
 11  3  1  0  0  0  0
 13 18  1  1  0  0  0
 14 10  2  0  0  0  0
 14  6  1  0  0  0  0
 16 31  1  6  0  0  0
 16 19  1  0  0  0  0
 16 17  1  0  0  0  0
 16 13  1  0  0  0  0
 17 11  1  6  0  0  0
 17  1  1  0  0  0  0
 18 20  2  0  0  0  0
 18  9  1  0  0  0  0
 19 13  1  0  0  0  0
 20 12  1  0  0  0  0
 21  9  1  0  0  0  0
 21 30  1  0  0  0  0
 22 24  2  0  0  0  0
 22 26  1  0  0  0  0
 23 26  1  0  0  0  0
 24 28  1  0  0  0  0
 26 27  2  0  0  0  0
 27 25  1  0  0  0  0
 27 10  1  0  0  0  0
 28 25  2  0  0  0  0
 30 29  1  0  0  0  0
 32 31  1  0  0  0  0
 33 34  2  0  0  0  0
 34 32  1  0  0  0  0
 35 33  1  0  0  0  0
 36 35  1  0  0  0  0
 37 36  2  0  0  0  0
 38 36  1  0  0  0  0
 39 40  1  0  0  0  0
 39 38  1  0  0  0  0
 42 47  2  0  0  0  0
 43 40  1  0  0  0  0
 43 46  1  0  0  0  0
 44 42  1  0  0  0  0
 45 43  1  0  0  0  0
 45 48  1  0  0  0  0
 46 51  1  6  0  0  0
 46 44  1  0  0  0  0
 48 41  1  6  0  0  0
 48 42  1  0  0  0  0
 50 51  2  0  0  0  0
 51 49  1  0  0  0  0
M  END
>  <MODEL>
7

>  <REMARK>
 VINA RESULT:      -6.2      3.367      9.563
  Name = 
  12 active torsions:
  status: ('A' for Active; 'I' for Inactive)
    1  A    between atoms: C_3  and  C_7
    2  A    between atoms: C_3  and  C_42
    3  A    between atoms: C_4  and  C_24
    4  A    between atoms: C_4  and  O_33
    5  A    between atoms: C_7  and  C_49
    6  A    between atoms: N_8  and  C_24
    7  A    between atoms: C_14  and  N_15
    8  A    between atoms: C_14  and  C_32
    9  A    between atoms: C_26  and  C_47
   10  A    between atoms: C_29  and  C_38
   11  A    between atoms: C_32  and  O_33
   12  A    between atoms: C_43  and  N_51
                            x       y       z     vdW  Elec       q    Type
                         _______ _______ _______ _____ _____    ______ ____

>  <TORSDO>
F 12

$$$$
=
 OpenBabel11032420493D

 51 57  0  0  1  0  0  0  0  0999 V2000
  191.3970  175.7770  145.8150 C   0  0  2  0  0  3  0  0  0  0  0  0
  185.6640  177.9000  144.7750 O   0  0  0  0  0  0  0  0  0  0  0  0
  191.5830  174.0520  144.4100 C   0  0  0  0  0  2  0  0  0  0  0  0
  192.0390  174.5200  145.6600 O   0  0  0  0  0  0  0  0  0  0  0  0
  190.8070  175.2680  142.4790 O   0  0  0  0  0  0  0  0  0  0  0  0
  187.6720  177.2800  144.1970 C   0  0  0  0  0  0  0  0  0  0  0  0
  186.8390  177.5700  145.2490 C   0  0  0  0  0  0  0  0  0  0  0  0
  187.2340  177.6010  146.6840 C   0  0  0  0  0  0  0  0  0  0  0  0
  191.1080  177.6410  147.3510 C   0  0  0  0  0  2  0  0  0  0  0  0
  185.7220  177.8830  143.4560 C   0  0  0  0  0  0  0  0  0  0  0  0
  191.2610  175.2610  143.6200 C   0  0  0  0  0  0  0  0  0  0  0  0
  188.7270  177.0050  148.5370 O   0  0  0  0  0  1  0  0  0  0  0  0
  189.9240  178.3550  145.1950 C   0  0  2  0  0  3  0  0  0  0  0  0
  186.9810  177.5190  143.0240 C   0  0  0  0  0  3  0  0  0  0  0  0
  186.2950  177.6630  147.5380 O   0  0  0  0  0  0  0  0  0  0  0  0
  190.5260  177.6620  144.1550 C   0  0  1  0  0  0  0  0  0  0  0  0
  191.4540  176.4420  144.4590 C   0  0  1  0  0  3  0  0  0  0  0  0
  189.8130  177.7920  146.5920 C   0  0  0  0  0  0  0  0  0  0  0  0
  189.0480  177.5120  144.3480 N   0  0  0  0  0  0  0  0  0  0  0  0
  188.6350  177.4790  147.2290 C   0  0  0  0  0  0  0  0  0  0  0  0
  192.0610  176.6390  146.8090 N   0  0  0  0  0  0  0  0  0  0  0  0
  182.3750  178.9770  142.1780 N   0  0  0  0  0  0  0  0  0  0  0  0
  183.1200  178.7910  144.4580 N   0  0  0  0  0  1  0  0  0  0  0  0
  182.5460  178.8070  140.8400 C   0  0  0  0  0  3  0  0  0  0  0  0
  184.8130  178.1940  141.2240 N   0  0  0  0  0  0  0  0  0  0  0  0
  183.3830  178.7220  143.0570 C   0  0  0  0  0  0  0  0  0  0  0  0
  184.6520  178.3570  142.5670 C   0  0  0  0  0  0  0  0  0  0  0  0
  183.7970  178.4210  140.3520 C   0  0  0  0  0  3  0  0  0  0  0  0
  193.1530  176.7030  149.0240 C   0  0  0  0  0  1  0  0  0  0  0  0
  192.4830  175.8330  147.9640 C   0  0  0  0  0  2  0  0  0  0  0  0
  190.8540  178.5200  142.9330 C   0  0  0  0  0  2  0  0  0  0  0  0
  192.0950  178.0040  142.2300 C   0  0  0  0  0  2  0  0  0  0  0  0
  190.5880  177.5380  140.4220 N   0  0  0  0  0  0  0  0  0  0  0  0
  191.7970  177.7940  140.7810 C   0  0  0  0  0  3  0  0  0  0  0  0
  190.2900  177.2460  139.0370 C   0  0  0  0  0  2  0  0  0  0  0  0
  188.9510  177.8090  138.6630 C   0  0  0  0  0  0  0  0  0  0  0  0
  188.4260  178.6790  139.4120 O   0  0  0  0  0  0  0  0  0  0  0  0
  188.3010  177.4380  137.4770 O   0  0  0  0  0  0  0  0  0  0  0  0
  187.7250  176.1520  137.2920 C   0  0  0  0  0  2  0  0  0  0  0  0
  187.5160  175.8980  135.8100 C   0  0  0  0  0  2  0  0  0  0  0  0
  184.3270  173.1040  135.3960 O   0  0  0  0  0  1  0  0  0  0  0  0
  185.9520  172.9880  137.1510 C   0  0  0  0  0  0  0  0  0  0  0  0
  187.7710  174.4970  135.4970 N   0  0  0  0  0  0  0  0  0  0  0  0
  187.4010  172.6090  137.1690 C   0  0  0  0  0  2  0  0  0  0  0  0
  186.5470  173.9150  134.9200 C   0  0  0  0  0  2  0  0  0  0  0  0
  188.2100  173.8480  136.7530 C   0  0  1  0  0  3  0  0  0  0  0  0
  185.2550  172.8080  138.1430 O   0  0  0  0  0  0  0  0  0  0  0  0
  185.4270  173.7510  135.9700 C   0  0  1  0  0  3  0  0  0  0  0  0
  190.2960  172.8760  135.7310 N   0  0  0  0  0  1  0  0  0  0  0  0
  190.4020  174.1590  137.6810 O   0  0  0  0  0  0  0  0  0  0  0  0
  189.6880  173.6240  136.7850 C   0  0  0  0  0  0  0  0  0  0  0  0
  1  4  1  6  0  0  0
  1 21  1  0  0  0  0
  2  7  1  0  0  0  0
  3  4  1  0  0  0  0
  5 11  2  0  0  0  0
  6 19  1  0  0  0  0
  6  7  2  0  0  0  0
  7  8  1  0  0  0  0
  8 20  1  0  0  0  0
  8 15  2  0  0  0  0
 10  2  1  0  0  0  0
 11  3  1  0  0  0  0
 13 18  1  1  0  0  0
 14 10  2  0  0  0  0
 14  6  1  0  0  0  0
 16 31  1  6  0  0  0
 16 19  1  0  0  0  0
 16 17  1  0  0  0  0
 16 13  1  0  0  0  0
 17 11  1  6  0  0  0
 17  1  1  0  0  0  0
 18 20  2  0  0  0  0
 18  9  1  0  0  0  0
 19 13  1  0  0  0  0
 20 12  1  0  0  0  0
 21  9  1  0  0  0  0
 21 30  1  0  0  0  0
 22 26  1  0  0  0  0
 24 22  2  0  0  0  0
 25 27  1  0  0  0  0
 26 23  1  0  0  0  0
 27 26  2  0  0  0  0
 27 10  1  0  0  0  0
 28 24  1  0  0  0  0
 28 25  2  0  0  0  0
 30 29  1  0  0  0  0
 32 31  1  0  0  0  0
 33 34  2  0  0  0  0
 34 32  1  0  0  0  0
 35 33  1  0  0  0  0
 36 35  1  0  0  0  0
 36 37  2  0  0  0  0
 38 36  1  0  0  0  0
 39 38  1  0  0  0  0
 40 39  1  0  0  0  0
 42 44  1  0  0  0  0
 42 47  2  0  0  0  0
 43 40  1  0  0  0  0
 43 46  1  0  0  0  0
 45 43  1  0  0  0  0
 45 48  1  0  0  0  0
 46 51  1  6  0  0  0
 46 44  1  0  0  0  0
 48 41  1  6  0  0  0
 48 42  1  0  0  0  0
 49 51  1  0  0  0  0
 51 50  2  0  0  0  0
M  END
>  <MODEL>
8

>  <REMARK>
 VINA RESULT:      -6.2      2.282      8.752
  Name = 
  12 active torsions:
  status: ('A' for Active; 'I' for Inactive)
    1  A    between atoms: C_3  and  C_7
    2  A    between atoms: C_3  and  C_42
    3  A    between atoms: C_4  and  C_24
    4  A    between atoms: C_4  and  O_33
    5  A    between atoms: C_7  and  C_49
    6  A    between atoms: N_8  and  C_24
    7  A    between atoms: C_14  and  N_15
    8  A    between atoms: C_14  and  C_32
    9  A    between atoms: C_26  and  C_47
   10  A    between atoms: C_29  and  C_38
   11  A    between atoms: C_32  and  O_33
   12  A    between atoms: C_43  and  N_51
                            x       y       z     vdW  Elec       q    Type
                         _______ _______ _______ _____ _____    ______ ____

>  <TORSDO>
F 12

$$$$
=
 OpenBabel11032420493D

 51 57  0  0  1  0  0  0  0  0999 V2000
  191.4040  175.8360  145.7780 C   0  0  2  0  0  3  0  0  0  0  0  0
  185.7020  177.9700  144.6000 O   0  0  0  0  0  0  0  0  0  0  0  0
  191.6070  174.0890  144.4030 C   0  0  0  0  0  2  0  0  0  0  0  0
  192.0430  174.5740  145.6540 O   0  0  0  0  0  0  0  0  0  0  0  0
  190.8730  175.2790  142.4400 O   0  0  0  0  0  0  0  0  0  0  0  0
  187.7170  177.3310  144.0690 C   0  0  0  0  0  0  0  0  0  0  0  0
  186.8660  177.6410  145.1010 C   0  0  0  0  0  0  0  0  0  0  0  0
  187.2350  177.6930  146.5420 C   0  0  0  0  0  0  0  0  0  0  0  0
  191.0950  177.7250  147.2800 C   0  0  0  0  0  2  0  0  0  0  0  0
  185.7830  177.9320  143.2830 C   0  0  0  0  0  0  0  0  0  0  0  0
  191.3050  175.2870  143.5890 C   0  0  0  0  0  0  0  0  0  0  0  0
  188.6900  177.1180  148.4310 O   0  0  0  0  0  1  0  0  0  0  0  0
  189.9560  178.4110  145.0920 C   0  0  2  0  0  3  0  0  0  0  0  0
  187.0490  177.5550  142.8800 C   0  0  0  0  0  3  0  0  0  0  0  0
  186.2810  177.7710  147.3770 O   0  0  0  0  0  0  0  0  0  0  0  0
  190.5730  177.6990  144.0740 C   0  0  1  0  0  0  0  0  0  0  0  0
  191.4890  176.4800  144.4140 C   0  0  1  0  0  3  0  0  0  0  0  0
  189.8160  177.8700  146.4950 C   0  0  0  0  0  0  0  0  0  0  0  0
  189.0910  177.5590  144.2420 N   0  0  0  0  0  0  0  0  0  0  0  0
  188.6250  177.5730  147.1150 C   0  0  0  0  0  0  0  0  0  0  0  0
  192.0540  176.7100  146.7710 N   0  0  0  0  0  0  0  0  0  0  0  0
  182.4450  178.9100  141.8940 N   0  0  0  0  0  0  0  0  0  0  0  0
  183.0860  178.6310  144.1960 N   0  0  0  0  0  1  0  0  0  0  0  0
  182.6910  178.8310  140.5600 C   0  0  0  0  0  3  0  0  0  0  0  0
  184.9690  178.3240  141.0280 N   0  0  0  0  0  0  0  0  0  0  0  0
  183.4210  178.6600  142.8100 C   0  0  0  0  0  0  0  0  0  0  0  0
  184.7330  178.3970  142.3670 C   0  0  0  0  0  0  0  0  0  0  0  0
  183.9860  178.5440  140.1180 C   0  0  0  0  0  3  0  0  0  0  0  0
  192.8010  176.8260  149.1230 C   0  0  0  0  0  1  0  0  0  0  0  0
  192.4510  175.9200  147.9460 C   0  0  0  0  0  2  0  0  0  0  0  0
  190.9270  178.5370  142.8450 C   0  0  0  0  0  2  0  0  0  0  0  0
  192.0360  177.8790  142.0470 C   0  0  0  0  0  2  0  0  0  0  0  0
  192.3500  177.0430  139.8190 N   0  0  0  0  0  0  0  0  0  0  0  0
  191.5750  177.6580  140.6430 C   0  0  0  0  0  3  0  0  0  0  0  0
  191.9630  176.8920  138.4340 C   0  0  0  0  0  2  0  0  0  0  0  0
  192.1810  175.4780  137.9840 C   0  0  0  0  0  0  0  0  0  0  0  0
  193.3530  175.1020  137.7040 O   0  0  0  0  0  0  0  0  0  0  0  0
  191.1280  174.5530  137.9260 O   0  0  0  0  0  0  0  0  0  0  0  0
  189.7970  174.9300  137.5990 C   0  0  0  0  0  2  0  0  0  0  0  0
  189.7910  175.6690  136.2730 C   0  0  0  0  0  2  0  0  0  0  0  0
  189.0550  179.7570  137.2200 O   0  0  0  0  0  1  0  0  0  0  0  0
  187.9830  177.9370  138.3470 C   0  0  0  0  0  0  0  0  0  0  0  0
  188.4870  176.2780  136.0410 N   0  0  0  0  0  0  0  0  0  0  0  0
  186.9190  176.9690  137.9280 C   0  0  0  0  0  2  0  0  0  0  0  0
  188.6590  177.7400  135.9610 C   0  0  0  0  0  2  0  0  0  0  0  0
  187.6030  175.8380  137.1440 C   0  0  1  0  0  3  0  0  0  0  0  0
  188.1010  178.2510  139.5260 O   0  0  0  0  0  0  0  0  0  0  0  0
  189.0020  178.3630  137.3310 C   0  0  1  0  0  3  0  0  0  0  0  0
  185.7110  175.0510  135.6810 N   0  0  0  0  0  1  0  0  0  0  0  0
  186.7450  173.5970  137.1880 O   0  0  0  0  0  0  0  0  0  0  0  0
  186.6560  174.7640  136.7120 C   0  0  0  0  0  0  0  0  0  0  0  0
  1  4  1  6  0  0  0
  1 21  1  0  0  0  0
  2  7  1  0  0  0  0
  3  4  1  0  0  0  0
  5 11  2  0  0  0  0
  6 19  1  0  0  0  0
  6  7  2  0  0  0  0
  7  8  1  0  0  0  0
  8 20  1  0  0  0  0
  8 15  2  0  0  0  0
 10  2  1  0  0  0  0
 11  3  1  0  0  0  0
 13 18  1  1  0  0  0
 14 10  2  0  0  0  0
 14  6  1  0  0  0  0
 16 31  1  6  0  0  0
 16 19  1  0  0  0  0
 16 17  1  0  0  0  0
 16 13  1  0  0  0  0
 17 11  1  6  0  0  0
 17  1  1  0  0  0  0
 18 20  2  0  0  0  0
 18  9  1  0  0  0  0
 19 13  1  0  0  0  0
 20 12  1  0  0  0  0
 21  9  1  0  0  0  0
 21 30  1  0  0  0  0
 22 26  1  0  0  0  0
 24 22  2  0  0  0  0
 25 27  1  0  0  0  0
 26 23  1  0  0  0  0
 27 26  2  0  0  0  0
 27 10  1  0  0  0  0
 28 24  1  0  0  0  0
 28 25  2  0  0  0  0
 30 29  1  0  0  0  0
 32 31  1  0  0  0  0
 33 34  2  0  0  0  0
 34 32  1  0  0  0  0
 35 33  1  0  0  0  0
 36 35  1  0  0  0  0
 37 36  2  0  0  0  0
 38 36  1  0  0  0  0
 39 38  1  0  0  0  0
 40 39  1  0  0  0  0
 42 47  2  0  0  0  0
 43 40  1  0  0  0  0
 43 46  1  0  0  0  0
 44 42  1  0  0  0  0
 45 43  1  0  0  0  0
 45 48  1  0  0  0  0
 46 51  1  6  0  0  0
 46 44  1  0  0  0  0
 48 41  1  6  0  0  0
 48 42  1  0  0  0  0
 49 51  1  0  0  0  0
 51 50  2  0  0  0  0
M  END
>  <MODEL>
9

>  <REMARK>
 VINA RESULT:      -6.1      2.411      8.236
  Name = 
  12 active torsions:
  status: ('A' for Active; 'I' for Inactive)
    1  A    between atoms: C_3  and  C_7
    2  A    between atoms: C_3  and  C_42
    3  A    between atoms: C_4  and  C_24
    4  A    between atoms: C_4  and  O_33
    5  A    between atoms: C_7  and  C_49
    6  A    between atoms: N_8  and  C_24
    7  A    between atoms: C_14  and  N_15
    8  A    between atoms: C_14  and  C_32
    9  A    between atoms: C_26  and  C_47
   10  A    between atoms: C_29  and  C_38
   11  A    between atoms: C_32  and  O_33
   12  A    between atoms: C_43  and  N_51
                            x       y       z     vdW  Elec       q    Type
                         _______ _______ _______ _____ _____    ______ ____

>  <TORSDO>
F 12

$$$$
