=
 OpenBabel11032419563D

 52 59  0  0  1  0  0  0  0  0999 V2000
  189.5020  176.4880  138.9710 N   0  0  2  0  0  0  0  0  0  0  0  0
  189.8510  176.9470  136.5070 C   0  0  0  0  0  2  0  0  0  0  0  0
  190.4790  176.6250  137.8670 C   0  0  2  0  0  3  0  0  0  0  0  0
  188.1090  176.7470  138.5650 C   0  0  0  0  0  2  0  0  0  0  0  0
  187.9560  178.0690  137.7810 C   0  0  2  0  0  3  0  0  0  0  0  0
  187.4550  177.9090  136.3360 C   0  0  1  0  0  3  0  0  0  0  0  0
  188.9430  178.1750  136.6140 C   0  0  2  0  0  3  0  0  0  0  0  0
  185.0280  177.8780  146.3060 C   0  0  1  0  0  3  0  0  0  0  0  0
  189.8490  177.3990  140.0710 C   0  0  1  0  0  3  0  0  0  0  0  0
  188.5110  177.7550  144.1110 C   0  0  0  0  0  0  0  0  0  0  0  0
  189.3640  176.7550  142.0770 C   0  0  2  0  0  3  0  0  0  0  0  0
  192.7700  177.8370  140.6800 O   0  0  0  0  0  1  0  0  0  0  0  0
  185.2350  178.5740  143.9490 C   0  0  0  0  0  2  0  0  0  0  0  0
  188.6490  177.5540  141.0010 C   0  0  0  0  0  2  0  0  0  0  0  0
  187.4700  177.9530  144.8690 C   0  0  0  0  0  0  0  0  0  0  0  0
  191.7840  177.5280  141.6100 C   0  0  0  0  0  0  0  0  0  0  0  0
  190.9110  177.6810  143.9230 C   0  0  0  0  0  2  0  0  0  0  0  0
  187.4210  177.3210  146.1920 C   0  0  0  0  0  3  0  0  0  0  0  0
  186.2950  177.3340  146.8940 C   0  0  0  0  0  3  0  0  0  0  0  0
  189.5440  177.5500  143.3410 C   0  0  0  0  0  0  0  0  0  0  0  0
  184.1540  178.2180  147.3220 F   0  0  0  0  0  0  0  0  0  0  0  0
  190.6100  176.6750  141.1810 C   0  0  2  0  0  3  0  0  0  0  0  0
  185.2420  179.0830  145.3790 C   0  0  2  0  0  3  0  0  0  0  0  0
  186.5310  179.0810  144.5390 C   0  0  2  0  0  3  0  0  0  0  0  0
  191.9040  177.9980  142.8520 C   0  0  0  0  0  3  0  0  0  0  0  0
  191.2920  175.3460  137.7610 C   0  0  0  0  0  2  0  0  0  0  0  0
  191.9470  175.2700  136.4660 N   0  0  0  0  0  2  0  0  0  0  0  0
  191.9300  173.8750  136.0490 C   0  0  0  0  0  2  0  0  0  0  0  0
  195.7160  172.3500  138.1420 C   0  0  0  0  0  1  0  0  0  0  0  0
  196.5240  174.9680  137.5010 O   0  0  0  0  0  0  0  0  0  0  0  0
  193.7690  171.3730  136.3550 O   0  0  0  0  0  0  0  0  0  0  0  0
  195.1100  173.1460  137.0850 N   0  0  0  0  0  0  0  0  0  0  0  0
  195.0370  175.2200  135.6670 C   0  0  0  0  0  0  0  0  0  0  0  0
  193.9830  174.7500  134.9960 C   0  0  0  0  0  3  0  0  0  0  0  0
  193.2460  173.4940  135.3810 C   0  0  1  0  0  3  0  0  0  0  0  0
  195.5970  174.4650  136.8030 C   0  0  0  0  0  0  0  0  0  0  0  0
  194.0570  172.6000  136.2800 C   0  0  0  0  0  0  0  0  0  0  0  0
  195.6370  176.5180  135.2480 C   0  0  0  0  0  2  0  0  0  0  0  0
  194.7990  177.5650  135.6350 O   0  0  0  0  0  1  0  0  0  0  0  0
  187.0970  176.4620  135.9270 C   0  0  1  0  0  3  0  0  0  0  0  0
  185.0390  177.3820  134.6910 C   0  0  0  0  0  1  0  0  0  0  0  0
  185.6250  176.2520  135.5350 C   0  0  2  0  0  3  0  0  0  0  0  0
  184.7900  176.0110  136.7930 C   0  0  2  0  0  3  0  0  0  0  0  0
  184.4620  173.6790  137.5830 C   0  0  0  0  0  2  0  0  0  0  0  0
  183.9430  174.7550  136.6480 C   0  0  0  0  0  3  0  0  0  0  0  0
  184.8120  173.6360  136.1080 C   0  0  0  0  0  2  0  0  0  0  0  0
  183.9770  177.1170  137.0720 O   0  0  0  0  0  0  0  0  0  0  0  0
  184.1170  177.3310  138.4460 C   0  0  0  0  0  2  0  0  0  0  0  0
  184.6610  178.7330  138.7000 C   0  0  0  0  0  2  0  0  0  0  0  0
  184.5360  179.0850  140.1800 C   0  0  0  0  0  1  0  0  0  0  0  0
  188.3020  174.1570  135.2150 C   0  0  0  0  0  1  0  0  0  0  0  0
  188.1990  175.8650  134.5940 S   0  0  0  0  0  0  0  0  0  0  0  0
  1  4  1  6  0  0  0
  1  9  1  0  0  0  0
  2  3  1  0  0  0  0
  3 26  1  6  0  0  0
  3  1  1  0  0  0  0
  5  4  1  1  0  0  0
  6 40  1  1  0  0  0
  6  7  1  0  0  0  0
  6  5  1  0  0  0  0
  7  2  1  1  0  0  0
  7  5  1  0  0  0  0
  8 19  1  0  0  0  0
  8 21  1  1  0  0  0
  9 14  1  1  0  0  0
  9 22  1  0  0  0  0
 10 15  2  0  0  0  0
 11 14  1  6  0  0  0
 11 20  1  0  0  0  0
 12 16  1  0  0  0  0
 15 18  1  0  0  0  0
 16 25  2  0  0  0  0
 18 19  2  0  0  0  0
 20 17  1  0  0  0  0
 20 10  2  0  0  0  0
 22 16  1  1  0  0  0
 22 11  1  0  0  0  0
 23 13  1  6  0  0  0
 23  8  1  0  0  0  0
 24 13  1  6  0  0  0
 24 15  1  0  0  0  0
 24 23  1  0  0  0  0
 25 17  1  0  0  0  0
 27 26  1  0  0  0  0
 28 27  1  0  0  0  0
 32 29  1  0  0  0  0
 33 36  1  0  0  0  0
 34 35  1  0  0  0  0
 34 33  2  0  0  0  0
 35 28  1  1  0  0  0
 35 37  1  0  0  0  0
 36 32  1  0  0  0  0
 36 30  2  0  0  0  0
 37 31  2  0  0  0  0
 37 32  1  0  0  0  0
 38 39  1  0  0  0  0
 38 33  1  0  0  0  0
 40 52  1  6  0  0  0
 42 41  1  1  0  0  0
 42 40  1  0  0  0  0
 42 43  1  0  0  0  0
 43 47  1  6  0  0  0
 45 43  1  0  0  0  0
 45 44  1  0  0  0  0
 46 45  1  0  0  0  0
 46 44  1  0  0  0  0
 47 48  1  0  0  0  0
 48 49  1  0  0  0  0
 49 50  1  0  0  0  0
 52 51  1  0  0  0  0
M  END
>  <MODEL>
1

>  <REMARK>
 VINA RESULT:      -7.3      0.000      0.000
  Name = 
  14 active torsions:
  status: ('A' for Active; 'I' for Inactive)
    1  A    between atoms: C_2  and  C_19
    2  A    between atoms: N_3  and  C_6
    3  A    between atoms: O_4  and  C_7
    4  A    between atoms: O_4  and  C_19
    5  A    between atoms: C_7  and  C_15
    6  A    between atoms: C_7  and  C_22
    7  A    between atoms: C_8  and  C_34
    8  A    between atoms: C_8  and  N_43
    9  A    between atoms: C_15  and  C_51
   10  A    between atoms: C_24  and  C_28
   11  A    between atoms: C_31  and  C_35
   12  A    between atoms: C_31  and  N_43
   13  A    between atoms: S_41  and  C_51
   14  A    between atoms: C_48  and  C_51
                            x       y       z     vdW  Elec       q    Type
                         _______ _______ _______ _____ _____    ______ ____

>  <TORSDO>
F 14

$$$$
=
 OpenBabel11032419563D

 52 59  0  0  1  0  0  0  0  0999 V2000
  189.7030  176.6630  139.1890 N   0  0  2  0  0  0  0  0  0  0  0  0
  190.1550  177.3190  136.7870 C   0  0  0  0  0  2  0  0  0  0  0  0
  190.7260  176.9990  138.1730 C   0  0  2  0  0  3  0  0  0  0  0  0
  188.3200  176.7580  138.6910 C   0  0  0  0  0  2  0  0  0  0  0  0
  188.0400  178.0940  137.9680 C   0  0  2  0  0  3  0  0  0  0  0  0
  187.6680  177.9600  136.4830 C   0  0  1  0  0  3  0  0  0  0  0  0
  189.0810  178.4050  136.8890 C   0  0  2  0  0  3  0  0  0  0  0  0
  183.6070  178.6580  145.0710 C   0  0  1  0  0  3  0  0  0  0  0  0
  189.8430  177.5410  140.3590 C   0  0  1  0  0  3  0  0  0  0  0  0
  187.5150  178.1020  143.8950 C   0  0  0  0  0  0  0  0  0  0  0  0
  188.7630  176.9830  142.1480 C   0  0  2  0  0  3  0  0  0  0  0  0
  192.5220  177.6430  141.7420 O   0  0  0  0  0  1  0  0  0  0  0  0
  184.5220  179.2950  142.8720 C   0  0  0  0  0  2  0  0  0  0  0  0
  188.4630  177.8460  140.9350 C   0  0  0  0  0  2  0  0  0  0  0  0
  186.3380  178.4290  144.3480 C   0  0  0  0  0  0  0  0  0  0  0  0
  191.2920  177.4630  142.3650 C   0  0  0  0  0  0  0  0  0  0  0  0
  189.8510  177.7450  144.3600 C   0  0  0  0  0  2  0  0  0  0  0  0
  185.8610  177.8240  145.5960 C   0  0  0  0  0  3  0  0  0  0  0  0
  184.5960  177.9770  145.9680 C   0  0  0  0  0  3  0  0  0  0  0  0
  188.6860  177.7670  143.4280 C   0  0  0  0  0  0  0  0  0  0  0  0
  182.5370  179.1100  145.8210 F   0  0  0  0  0  0  0  0  0  0  0  0
  190.1870  176.7460  141.6190 C   0  0  2  0  0  3  0  0  0  0  0  0
  184.2010  179.8180  144.2600 C   0  0  2  0  0  3  0  0  0  0  0  0
  185.6610  179.6550  143.7990 C   0  0  2  0  0  3  0  0  0  0  0  0
  191.1260  177.9310  143.6020 C   0  0  0  0  0  3  0  0  0  0  0  0
  191.7140  175.8500  138.0630 C   0  0  0  0  0  2  0  0  0  0  0  0
  193.0310  176.3490  137.7030 N   0  0  0  0  0  2  0  0  0  0  0  0
  193.6850  175.3220  136.9060 C   0  0  0  0  0  2  0  0  0  0  0  0
  197.9490  174.4380  138.3520 C   0  0  0  0  0  1  0  0  0  0  0  0
  197.6640  172.4360  136.3950 O   0  0  0  0  0  0  0  0  0  0  0  0
  195.4730  175.1980  139.4610 O   0  0  0  0  0  0  0  0  0  0  0  0
  196.6620  173.9430  137.8850 N   0  0  0  0  0  0  0  0  0  0  0  0
  195.2940  172.3430  136.5110 C   0  0  0  0  0  0  0  0  0  0  0  0
  194.1630  172.9010  136.9500 C   0  0  0  0  0  3  0  0  0  0  0  0
  194.1230  174.1540  137.7840 C   0  0  1  0  0  3  0  0  0  0  0  0
  196.6020  172.9000  136.9020 C   0  0  0  0  0  0  0  0  0  0  0  0
  195.4440  174.4530  138.4420 C   0  0  0  0  0  0  0  0  0  0  0  0
  195.2110  171.1510  135.6220 C   0  0  0  0  0  2  0  0  0  0  0  0
  193.8720  170.8050  135.4290 O   0  0  0  0  0  1  0  0  0  0  0  0
  187.5420  176.5070  135.9710 C   0  0  1  0  0  3  0  0  0  0  0  0
  185.4960  177.2330  134.5940 C   0  0  0  0  0  1  0  0  0  0  0  0
  186.1520  176.1340  135.4280 C   0  0  2  0  0  3  0  0  0  0  0  0
  185.2500  175.7050  136.5860 C   0  0  2  0  0  3  0  0  0  0  0  0
  184.8810  173.4890  137.6460 C   0  0  0  0  0  2  0  0  0  0  0  0
  184.7250  174.2940  136.3690 C   0  0  0  0  0  3  0  0  0  0  0  0
  185.8740  173.3140  136.5140 C   0  0  0  0  0  2  0  0  0  0  0  0
  184.1850  176.6010  136.7470 O   0  0  0  0  0  0  0  0  0  0  0  0
  184.3120  177.0800  138.0540 C   0  0  0  0  0  2  0  0  0  0  0  0
  182.9360  177.1990  138.7000 C   0  0  0  0  0  2  0  0  0  0  0  0
  182.6380  175.9590  139.5370 C   0  0  0  0  0  1  0  0  0  0  0  0
  188.9900  174.3790  135.1640 C   0  0  0  0  0  1  0  0  0  0  0  0
  188.8290  176.1370  134.7230 S   0  0  0  0  0  0  0  0  0  0  0  0
  1  4  1  6  0  0  0
  1  9  1  0  0  0  0
  2  3  1  0  0  0  0
  3 26  1  6  0  0  0
  3  1  1  0  0  0  0
  5  4  1  1  0  0  0
  6 40  1  1  0  0  0
  6  7  1  0  0  0  0
  6  5  1  0  0  0  0
  7  2  1  1  0  0  0
  7  5  1  0  0  0  0
  8 21  1  1  0  0  0
  8 19  1  0  0  0  0
  9 14  1  1  0  0  0
  9 22  1  0  0  0  0
 10 15  2  0  0  0  0
 11 14  1  6  0  0  0
 11 20  1  0  0  0  0
 12 16  1  0  0  0  0
 15 18  1  0  0  0  0
 16 25  2  0  0  0  0
 18 19  2  0  0  0  0
 20 10  2  0  0  0  0
 20 17  1  0  0  0  0
 22 11  1  0  0  0  0
 22 16  1  1  0  0  0
 23 13  1  6  0  0  0
 23  8  1  0  0  0  0
 24 13  1  6  0  0  0
 24 23  1  0  0  0  0
 24 15  1  0  0  0  0
 25 17  1  0  0  0  0
 27 26  1  0  0  0  0
 28 27  1  0  0  0  0
 30 36  2  0  0  0  0
 32 29  1  0  0  0  0
 32 37  1  0  0  0  0
 33 36  1  0  0  0  0
 33 34  2  0  0  0  0
 34 35  1  0  0  0  0
 35 28  1  6  0  0  0
 35 37  1  0  0  0  0
 36 32  1  0  0  0  0
 37 31  2  0  0  0  0
 38 33  1  0  0  0  0
 39 38  1  0  0  0  0
 40 52  1  6  0  0  0
 42 41  1  1  0  0  0
 42 40  1  0  0  0  0
 42 43  1  0  0  0  0
 43 47  1  6  0  0  0
 45 46  1  0  0  0  0
 45 43  1  0  0  0  0
 45 44  1  0  0  0  0
 46 44  1  0  0  0  0
 47 48  1  0  0  0  0
 48 49  1  0  0  0  0
 49 50  1  0  0  0  0
 52 51  1  0  0  0  0
M  END
>  <MODEL>
2

>  <REMARK>
 VINA RESULT:      -6.8      1.409      2.105
  Name = 
  14 active torsions:
  status: ('A' for Active; 'I' for Inactive)
    1  A    between atoms: C_2  and  C_19
    2  A    between atoms: N_3  and  C_6
    3  A    between atoms: O_4  and  C_7
    4  A    between atoms: O_4  and  C_19
    5  A    between atoms: C_7  and  C_15
    6  A    between atoms: C_7  and  C_22
    7  A    between atoms: C_8  and  C_34
    8  A    between atoms: C_8  and  N_43
    9  A    between atoms: C_15  and  C_51
   10  A    between atoms: C_24  and  C_28
   11  A    between atoms: C_31  and  C_35
   12  A    between atoms: C_31  and  N_43
   13  A    between atoms: S_41  and  C_51
   14  A    between atoms: C_48  and  C_51
                            x       y       z     vdW  Elec       q    Type
                         _______ _______ _______ _____ _____    ______ ____

>  <TORSDO>
F 14

$$$$
=
 OpenBabel11032419563D

 52 59  0  0  1  0  0  0  0  0999 V2000
  189.5150  176.4370  138.9020 N   0  0  2  0  0  0  0  0  0  0  0  0
  189.9540  176.8140  136.4390 C   0  0  0  0  0  2  0  0  0  0  0  0
  190.5280  176.5040  137.8260 C   0  0  2  0  0  3  0  0  0  0  0  0
  188.1460  176.7410  138.4480 C   0  0  0  0  0  2  0  0  0  0  0  0
  188.0710  178.0460  137.6250 C   0  0  2  0  0  3  0  0  0  0  0  0
  187.6060  177.8670  136.1710 C   0  0  1  0  0  3  0  0  0  0  0  0
  189.0950  178.0810  136.4870 C   0  0  2  0  0  3  0  0  0  0  0  0
  185.0600  177.9420  146.2260 C   0  0  1  0  0  3  0  0  0  0  0  0
  189.8670  177.3620  139.9880 C   0  0  1  0  0  3  0  0  0  0  0  0
  188.5380  177.7790  144.0260 C   0  0  0  0  0  0  0  0  0  0  0  0
  189.3840  176.7480  142.0050 C   0  0  2  0  0  3  0  0  0  0  0  0
  192.7900  177.8010  140.5850 O   0  0  0  0  0  1  0  0  0  0  0  0
  185.2640  178.6040  143.8590 C   0  0  0  0  0  2  0  0  0  0  0  0
  188.6690  177.5330  140.9190 C   0  0  0  0  0  2  0  0  0  0  0  0
  187.4990  177.9900  144.7830 C   0  0  0  0  0  0  0  0  0  0  0  0
  191.8050  177.5070  141.5210 C   0  0  0  0  0  0  0  0  0  0  0  0
  190.9380  177.6950  143.8340 C   0  0  0  0  0  2  0  0  0  0  0  0
  187.4520  177.3770  146.1150 C   0  0  0  0  0  3  0  0  0  0  0  0
  186.3270  177.4030  146.8190 C   0  0  0  0  0  3  0  0  0  0  0  0
  189.5690  177.5600  143.2560 C   0  0  0  0  0  0  0  0  0  0  0  0
  184.1900  178.2990  147.2400 F   0  0  0  0  0  0  0  0  0  0  0  0
  190.6280  176.6510  141.1070 C   0  0  2  0  0  3  0  0  0  0  0  0
  185.2760  179.1330  145.2820 C   0  0  2  0  0  3  0  0  0  0  0  0
  186.5630  179.1160  144.4390 C   0  0  2  0  0  3  0  0  0  0  0  0
  191.9290  177.9940  142.7560 C   0  0  0  0  0  3  0  0  0  0  0  0
  191.2910  175.1900  137.7770 C   0  0  0  0  0  2  0  0  0  0  0  0
  192.5610  175.3690  137.0940 N   0  0  0  0  0  2  0  0  0  0  0  0
  192.3780  174.9450  135.7130 C   0  0  0  0  0  2  0  0  0  0  0  0
  195.5250  172.7840  138.2600 C   0  0  0  0  0  1  0  0  0  0  0  0
  196.9720  175.0850  137.5280 O   0  0  0  0  0  0  0  0  0  0  0  0
  193.5500  172.1260  136.3610 O   0  0  0  0  0  0  0  0  0  0  0  0
  195.2080  173.6030  137.0980 N   0  0  0  0  0  0  0  0  0  0  0  0
  195.7350  175.5090  135.5460 C   0  0  0  0  0  0  0  0  0  0  0  0
  194.6560  175.2350  134.8090 C   0  0  0  0  0  3  0  0  0  0  0  0
  193.6180  174.2180  135.2020 C   0  0  1  0  0  3  0  0  0  0  0  0
  196.0110  174.7470  136.7780 C   0  0  0  0  0  0  0  0  0  0  0  0
  194.1230  173.2440  136.2330 C   0  0  0  0  0  0  0  0  0  0  0  0
  196.6530  176.5950  135.1030 C   0  0  0  0  0  2  0  0  0  0  0  0
  195.9060  177.6590  134.5950 O   0  0  0  0  0  1  0  0  0  0  0  0
  187.2000  176.4260  135.7890 C   0  0  1  0  0  3  0  0  0  0  0  0
  185.2410  177.5880  134.5970 C   0  0  0  0  0  1  0  0  0  0  0  0
  185.7890  176.2920  135.1920 C   0  0  2  0  0  3  0  0  0  0  0  0
  184.8400  175.7230  136.2470 C   0  0  2  0  0  3  0  0  0  0  0  0
  182.6970  176.1890  137.4140 C   0  0  0  0  0  2  0  0  0  0  0  0
  183.9420  176.8140  136.8110 C   0  0  0  0  0  3  0  0  0  0  0  0
  182.6370  176.8250  136.0390 C   0  0  0  0  0  2  0  0  0  0  0  0
  185.5560  175.1000  137.2780 O   0  0  0  0  0  0  0  0  0  0  0  0
  184.9700  173.8380  137.4110 C   0  0  0  0  0  2  0  0  0  0  0  0
  184.7690  173.2110  136.0360 C   0  0  0  0  0  2  0  0  0  0  0  0
  184.4580  171.7230  136.1760 C   0  0  0  0  0  1  0  0  0  0  0  0
  188.2850  173.9950  135.3580 C   0  0  0  0  0  1  0  0  0  0  0  0
  188.4350  175.6720  134.6680 S   0  0  0  0  0  0  0  0  0  0  0  0
  1  4  1  6  0  0  0
  1  9  1  0  0  0  0
  2  3  1  0  0  0  0
  3 26  1  6  0  0  0
  3  1  1  0  0  0  0
  5  4  1  1  0  0  0
  6 40  1  1  0  0  0
  6  7  1  0  0  0  0
  6  5  1  0  0  0  0
  7  2  1  1  0  0  0
  7  5  1  0  0  0  0
  8 19  1  0  0  0  0
  8 21  1  1  0  0  0
  9 14  1  1  0  0  0
  9 22  1  0  0  0  0
 10 15  2  0  0  0  0
 11 14  1  6  0  0  0
 11 20  1  0  0  0  0
 12 16  1  0  0  0  0
 15 18  1  0  0  0  0
 16 25  2  0  0  0  0
 18 19  2  0  0  0  0
 20 17  1  0  0  0  0
 20 10  2  0  0  0  0
 22 16  1  1  0  0  0
 22 11  1  0  0  0  0
 23 13  1  6  0  0  0
 23  8  1  0  0  0  0
 24 13  1  6  0  0  0
 24 15  1  0  0  0  0
 24 23  1  0  0  0  0
 25 17  1  0  0  0  0
 27 26  1  0  0  0  0
 28 27  1  0  0  0  0
 32 29  1  0  0  0  0
 33 36  1  0  0  0  0
 34 35  1  0  0  0  0
 34 33  2  0  0  0  0
 35 28  1  1  0  0  0
 35 37  1  0  0  0  0
 36 32  1  0  0  0  0
 36 30  2  0  0  0  0
 37 31  2  0  0  0  0
 37 32  1  0  0  0  0
 38 33  1  0  0  0  0
 39 38  1  0  0  0  0
 40 52  1  6  0  0  0
 42 41  1  1  0  0  0
 42 40  1  0  0  0  0
 42 43  1  0  0  0  0
 43 45  1  0  0  0  0
 43 47  1  1  0  0  0
 45 44  1  0  0  0  0
 46 45  1  0  0  0  0
 46 44  1  0  0  0  0
 47 48  1  0  0  0  0
 49 50  1  0  0  0  0
 49 48  1  0  0  0  0
 52 51  1  0  0  0  0
M  END
>  <MODEL>
3

>  <REMARK>
 VINA RESULT:      -6.0      0.926      1.797
  Name = 
  14 active torsions:
  status: ('A' for Active; 'I' for Inactive)
    1  A    between atoms: C_2  and  C_19
    2  A    between atoms: N_3  and  C_6
    3  A    between atoms: O_4  and  C_7
    4  A    between atoms: O_4  and  C_19
    5  A    between atoms: C_7  and  C_15
    6  A    between atoms: C_7  and  C_22
    7  A    between atoms: C_8  and  C_34
    8  A    between atoms: C_8  and  N_43
    9  A    between atoms: C_15  and  C_51
   10  A    between atoms: C_24  and  C_28
   11  A    between atoms: C_31  and  C_35
   12  A    between atoms: C_31  and  N_43
   13  A    between atoms: S_41  and  C_51
   14  A    between atoms: C_48  and  C_51
                            x       y       z     vdW  Elec       q    Type
                         _______ _______ _______ _____ _____    ______ ____

>  <TORSDO>
F 14

$$$$
=
 OpenBabel11032419563D

 52 59  0  0  1  0  0  0  0  0999 V2000
  188.8850  177.8170  140.7980 N   0  0  2  0  0  0  0  0  0  0  0  0
  190.6220  176.4540  142.0340 C   0  0  0  0  0  2  0  0  0  0  0  0
  190.1200  177.0070  140.6960 C   0  0  2  0  0  3  0  0  0  0  0  0
  188.3350  177.8890  142.1620 C   0  0  0  0  0  2  0  0  0  0  0  0
  188.2040  176.4990  142.8240 C   0  0  2  0  0  3  0  0  0  0  0  0
  189.0560  176.3030  144.0880 C   0  0  1  0  0  3  0  0  0  0  0  0
  189.5040  175.6920  142.7510 C   0  0  2  0  0  3  0  0  0  0  0  0
  180.5370  180.2270  140.2970 C   0  0  1  0  0  3  0  0  0  0  0  0
  187.8520  177.2800  139.9010 C   0  0  1  0  0  3  0  0  0  0  0  0
  184.0040  178.6850  138.6940 C   0  0  0  0  0  0  0  0  0  0  0  0
  186.3840  178.6730  139.1390 C   0  0  2  0  0  3  0  0  0  0  0  0
  188.7000  176.3350  137.1660 O   0  0  0  0  0  1  0  0  0  0  0  0
  182.1020  178.7390  141.4890 C   0  0  0  0  0  2  0  0  0  0  0  0
  186.4800  177.7690  140.3550 C   0  0  0  0  0  2  0  0  0  0  0  0
  182.8230  179.0350  139.1180 C   0  0  0  0  0  0  0  0  0  0  0  0
  187.6360  177.1880  137.4360 C   0  0  0  0  0  0  0  0  0  0  0  0
  185.4000  178.0660  136.8320 C   0  0  0  0  0  2  0  0  0  0  0  0
  182.0820  180.0710  138.3890 C   0  0  0  0  0  3  0  0  0  0  0  0
  180.9790  180.5910  138.9120 C   0  0  0  0  0  3  0  0  0  0  0  0
  185.1930  178.3400  138.2840 C   0  0  0  0  0  0  0  0  0  0  0  0
  179.1880  180.4930  140.4380 F   0  0  0  0  0  0  0  0  0  0  0  0
  187.7230  178.1160  138.6280 C   0  0  2  0  0  3  0  0  0  0  0  0
  180.8210  178.7660  140.6740 C   0  0  2  0  0  3  0  0  0  0  0  0
  182.1070  178.1460  140.0980 C   0  0  2  0  0  3  0  0  0  0  0  0
  186.5700  177.1570  136.6360 C   0  0  0  0  0  3  0  0  0  0  0  0
  191.2120  177.8440  140.0510 C   0  0  0  0  0  2  0  0  0  0  0  0
  192.2610  176.9860  139.5240 N   0  0  0  0  0  2  0  0  0  0  0  0
  191.7290  176.3210  138.3440 C   0  0  0  0  0  2  0  0  0  0  0  0
  192.0280  172.9330  135.2650 C   0  0  0  0  0  1  0  0  0  0  0  0
  194.0850  172.1810  137.0310 O   0  0  0  0  0  0  0  0  0  0  0  0
  191.5750  175.7140  135.2860 O   0  0  0  0  0  0  0  0  0  0  0  0
  192.6940  173.8580  136.1690 N   0  0  0  0  0  0  0  0  0  0  0  0
  194.4810  174.3700  137.8610 C   0  0  0  0  0  0  0  0  0  0  0  0
  194.0660  175.6360  137.9480 C   0  0  0  0  0  3  0  0  0  0  0  0
  192.8140  176.1470  137.2860 C   0  0  1  0  0  3  0  0  0  0  0  0
  193.7530  173.4010  137.0220 C   0  0  0  0  0  0  0  0  0  0  0  0
  192.3350  175.2460  136.1800 C   0  0  0  0  0  0  0  0  0  0  0  0
  195.6900  173.9540  138.6260 C   0  0  0  0  0  2  0  0  0  0  0  0
  195.9320  174.8710  139.6500 O   0  0  0  0  0  1  0  0  0  0  0  0
  189.8360  177.5550  144.5490 C   0  0  1  0  0  3  0  0  0  0  0  0
  190.4440  176.6900  146.8930 C   0  0  0  0  0  1  0  0  0  0  0  0
  189.8090  177.8070  146.0660 C   0  0  2  0  0  3  0  0  0  0  0  0
  188.3720  178.0770  146.5130 C   0  0  2  0  0  3  0  0  0  0  0  0
  187.3290  178.4230  148.7410 C   0  0  0  0  0  2  0  0  0  0  0  0
  188.1000  177.4480  147.8710 C   0  0  0  0  0  3  0  0  0  0  0  0
  188.8220  178.2470  148.9380 C   0  0  0  0  0  2  0  0  0  0  0  0
  187.4560  177.6040  145.5640 O   0  0  0  0  0  0  0  0  0  0  0  0
  186.4370  178.5590  145.5380 C   0  0  0  0  0  2  0  0  0  0  0  0
  185.4110  178.1950  144.4700 C   0  0  0  0  0  2  0  0  0  0  0  0
  184.0660  178.8400  144.7910 C   0  0  0  0  0  1  0  0  0  0  0  0
  191.8220  179.3090  144.0470 C   0  0  0  0  0  1  0  0  0  0  0  0
  191.5640  177.5100  143.9460 S   0  0  0  0  0  0  0  0  0  0  0  0
  1  4  1  1  0  0  0
  3 26  1  1  0  0  0
  3  1  1  0  0  0  0
  3  2  1  0  0  0  0
  5  4  1  6  0  0  0
  5  6  1  0  0  0  0
  6 40  1  6  0  0  0
  7  2  1  6  0  0  0
  7  5  1  0  0  0  0
  7  6  1  0  0  0  0
  8 21  1  6  0  0  0
  8 23  1  0  0  0  0
  9 14  1  1  0  0  0
  9  1  1  0  0  0  0
 10 15  2  0  0  0  0
 11 14  1  1  0  0  0
 12 16  1  0  0  0  0
 15 24  1  0  0  0  0
 17 20  1  0  0  0  0
 18 19  2  0  0  0  0
 18 15  1  0  0  0  0
 19  8  1  0  0  0  0
 20 10  2  0  0  0  0
 20 11  1  0  0  0  0
 22 16  1  6  0  0  0
 22 11  1  0  0  0  0
 22  9  1  0  0  0  0
 23 13  1  1  0  0  0
 24 23  1  0  0  0  0
 24 13  1  1  0  0  0
 25 17  1  0  0  0  0
 25 16  2  0  0  0  0
 27 26  1  0  0  0  0
 28 27  1  0  0  0  0
 29 32  1  0  0  0  0
 31 37  2  0  0  0  0
 32 37  1  0  0  0  0
 32 36  1  0  0  0  0
 33 34  2  0  0  0  0
 33 38  1  0  0  0  0
 35 34  1  0  0  0  0
 35 28  1  1  0  0  0
 36 30  2  0  0  0  0
 36 33  1  0  0  0  0
 37 35  1  0  0  0  0
 38 39  1  0  0  0  0
 40 52  1  1  0  0  0
 40 42  1  0  0  0  0
 42 43  1  0  0  0  0
 42 41  1  1  0  0  0
 43 47  1  6  0  0  0
 43 45  1  0  0  0  0
 44 46  1  0  0  0  0
 45 44  1  0  0  0  0
 45 46  1  0  0  0  0
 48 47  1  0  0  0  0
 49 50  1  0  0  0  0
 49 48  1  0  0  0  0
 52 51  1  0  0  0  0
M  END
>  <MODEL>
4

>  <REMARK>
 VINA RESULT:      -5.7      2.971      7.153
  Name = 
  14 active torsions:
  status: ('A' for Active; 'I' for Inactive)
    1  A    between atoms: C_2  and  C_19
    2  A    between atoms: N_3  and  C_6
    3  A    between atoms: O_4  and  C_7
    4  A    between atoms: O_4  and  C_19
    5  A    between atoms: C_7  and  C_15
    6  A    between atoms: C_7  and  C_22
    7  A    between atoms: C_8  and  C_34
    8  A    between atoms: C_8  and  N_43
    9  A    between atoms: C_15  and  C_51
   10  A    between atoms: C_24  and  C_28
   11  A    between atoms: C_31  and  C_35
   12  A    between atoms: C_31  and  N_43
   13  A    between atoms: S_41  and  C_51
   14  A    between atoms: C_48  and  C_51
                            x       y       z     vdW  Elec       q    Type
                         _______ _______ _______ _____ _____    ______ ____

>  <TORSDO>
F 14

$$$$
=
 OpenBabel11032419563D

 52 59  0  0  1  0  0  0  0  0999 V2000
  183.1490  177.9370  140.1420 N   0  0  2  0  0  0  0  0  0  0  0  0
  181.5960  179.7450  139.2930 C   0  0  0  0  0  2  0  0  0  0  0  0
  182.9420  179.3880  139.9310 C   0  0  2  0  0  3  0  0  0  0  0  0
  181.9930  177.1110  139.7530 C   0  0  0  0  0  2  0  0  0  0  0  0
  180.6670  177.6270  140.3520 C   0  0  2  0  0  3  0  0  0  0  0  0
  179.6210  178.0740  139.3180 C   0  0  1  0  0  3  0  0  0  0  0  0
  180.4450  179.1190  140.0860 C   0  0  2  0  0  3  0  0  0  0  0  0
  191.0350  177.2820  143.7650 C   0  0  1  0  0  3  0  0  0  0  0  0
  183.4660  177.6700  141.5520 C   0  0  1  0  0  3  0  0  0  0  0  0
  187.0060  178.1270  143.8960 C   0  0  0  0  0  0  0  0  0  0  0  0
  185.1950  178.6680  142.3830 C   0  0  2  0  0  3  0  0  0  0  0  0
  181.5740  178.7200  143.6530 O   0  0  0  0  0  1  0  0  0  0  0  0
  189.2880  176.0090  142.5780 C   0  0  0  0  0  2  0  0  0  0  0  0
  184.9500  177.3400  141.6870 C   0  0  0  0  0  2  0  0  0  0  0  0
  188.2540  177.7710  144.0110 C   0  0  0  0  0  0  0  0  0  0  0  0
  182.9560  178.8720  143.6550 C   0  0  0  0  0  0  0  0  0  0  0  0
  185.0710  179.1330  144.9180 C   0  0  0  0  0  2  0  0  0  0  0  0
  189.2150  178.7180  144.5870 C   0  0  0  0  0  3  0  0  0  0  0  0
  190.5160  178.4650  144.5250 C   0  0  0  0  0  3  0  0  0  0  0  0
  185.7570  178.4820  143.7640 C   0  0  0  0  0  0  0  0  0  0  0  0
  192.3010  176.9600  144.2180 F   0  0  0  0  0  0  0  0  0  0  0  0
  183.6870  178.9650  142.3330 C   0  0  2  0  0  3  0  0  0  0  0  0
  190.1260  176.0480  143.8440 C   0  0  2  0  0  3  0  0  0  0  0  0
  188.6100  176.3140  143.8950 C   0  0  2  0  0  3  0  0  0  0  0  0
  183.5930  178.9300  144.8240 C   0  0  0  0  0  3  0  0  0  0  0  0
  184.0720  179.9320  139.0720 C   0  0  0  0  0  2  0  0  0  0  0  0
  185.1850  178.9970  139.0500 N   0  0  0  0  0  2  0  0  0  0  0  0
  185.0590  178.1970  137.8400 C   0  0  0  0  0  2  0  0  0  0  0  0
  186.8700  174.9320  135.1740 C   0  0  0  0  0  1  0  0  0  0  0  0
  188.7200  174.9230  137.2940 O   0  0  0  0  0  0  0  0  0  0  0  0
  185.6210  177.4390  134.8660 O   0  0  0  0  0  0  0  0  0  0  0  0
  187.0670  176.0560  136.0780 N   0  0  0  0  0  0  0  0  0  0  0  0
  188.3040  177.1630  137.9660 C   0  0  0  0  0  0  0  0  0  0  0  0
  187.5260  178.2440  137.8690 C   0  0  0  0  0  3  0  0  0  0  0  0
  186.3130  178.3180  136.9800 C   0  0  1  0  0  3  0  0  0  0  0  0
  188.0500  175.9820  137.1200 C   0  0  0  0  0  0  0  0  0  0  0  0
  186.3200  177.2660  135.9040 C   0  0  0  0  0  0  0  0  0  0  0  0
  189.4300  177.1710  138.9400 C   0  0  0  0  0  2  0  0  0  0  0  0
  189.2510  178.2120  139.8520 O   0  0  0  0  0  1  0  0  0  0  0  0
  180.0260  177.8510  137.8430 C   0  0  1  0  0  3  0  0  0  0  0  0
  178.9330  175.5610  138.2610 C   0  0  0  0  0  1  0  0  0  0  0  0
  179.7380  176.4400  137.3040 C   0  0  2  0  0  3  0  0  0  0  0  0
  181.0530  175.7660  136.9090 C   0  0  2  0  0  3  0  0  0  0  0  0
  181.7300  176.4570  134.6210 C   0  0  0  0  0  2  0  0  0  0  0  0
  181.0410  175.3800  135.4370 C   0  0  0  0  0  3  0  0  0  0  0  0
  180.2160  176.3930  134.6690 C   0  0  0  0  0  2  0  0  0  0  0  0
  181.2960  174.6400  137.7060 O   0  0  0  0  0  0  0  0  0  0  0  0
  181.9410  173.7330  136.8620 C   0  0  0  0  0  2  0  0  0  0  0  0
  183.4210  173.6500  137.2210 C   0  0  0  0  0  2  0  0  0  0  0  0
  184.1470  172.7230  136.2500 C   0  0  0  0  0  1  0  0  0  0  0  0
  180.8410  179.7410  136.1010 C   0  0  0  0  0  1  0  0  0  0  0  0
  179.2640  179.1110  136.7560 S   0  0  0  0  0  0  0  0  0  0  0  0
  1  4  1  1  0  0  0
  1  9  1  0  0  0  0
  2  3  1  0  0  0  0
  3 26  1  6  0  0  0
  3  1  1  0  0  0  0
  5  4  1  6  0  0  0
  6 40  1  6  0  0  0
  6  7  1  0  0  0  0
  6  5  1  0  0  0  0
  7  2  1  6  0  0  0
  7  5  1  0  0  0  0
  8 23  1  0  0  0  0
  8 21  1  1  0  0  0
  8 19  1  0  0  0  0
  9 14  1  6  0  0  0
  9 22  1  0  0  0  0
 10 15  2  0  0  0  0
 11 14  1  6  0  0  0
 11 20  1  0  0  0  0
 12 16  1  0  0  0  0
 15 18  1  0  0  0  0
 16 25  2  0  0  0  0
 19 18  2  0  0  0  0
 20 10  2  0  0  0  0
 20 17  1  0  0  0  0
 22 11  1  0  0  0  0
 22 16  1  1  0  0  0
 23 13  1  6  0  0  0
 23 24  1  0  0  0  0
 24 13  1  6  0  0  0
 24 15  1  0  0  0  0
 25 17  1  0  0  0  0
 27 26  1  0  0  0  0
 28 27  1  0  0  0  0
 29 32  1  0  0  0  0
 31 37  2  0  0  0  0
 32 36  1  0  0  0  0
 33 38  1  0  0  0  0
 34 33  2  0  0  0  0
 35 28  1  1  0  0  0
 35 34  1  0  0  0  0
 36 30  2  0  0  0  0
 36 33  1  0  0  0  0
 37 32  1  0  0  0  0
 37 35  1  0  0  0  0
 38 39  1  0  0  0  0
 40 52  1  6  0  0  0
 42 40  1  0  0  0  0
 42 41  1  1  0  0  0
 43 42  1  0  0  0  0
 43 47  1  1  0  0  0
 44 46  1  0  0  0  0
 44 45  1  0  0  0  0
 45 43  1  0  0  0  0
 46 45  1  0  0  0  0
 48 49  1  0  0  0  0
 48 47  1  0  0  0  0
 50 49  1  0  0  0  0
 51 52  1  0  0  0  0
M  END
>  <MODEL>
5

>  <REMARK>
 VINA RESULT:      -5.6      4.156      7.158
  Name = 
  14 active torsions:
  status: ('A' for Active; 'I' for Inactive)
    1  A    between atoms: C_2  and  C_19
    2  A    between atoms: N_3  and  C_6
    3  A    between atoms: O_4  and  C_7
    4  A    between atoms: O_4  and  C_19
    5  A    between atoms: C_7  and  C_15
    6  A    between atoms: C_7  and  C_22
    7  A    between atoms: C_8  and  C_34
    8  A    between atoms: C_8  and  N_43
    9  A    between atoms: C_15  and  C_51
   10  A    between atoms: C_24  and  C_28
   11  A    between atoms: C_31  and  C_35
   12  A    between atoms: C_31  and  N_43
   13  A    between atoms: S_41  and  C_51
   14  A    between atoms: C_48  and  C_51
                            x       y       z     vdW  Elec       q    Type
                         _______ _______ _______ _____ _____    ______ ____

>  <TORSDO>
F 14

$$$$
=
 OpenBabel11032419563D

 52 59  0  0  1  0  0  0  0  0999 V2000
  183.4550  177.7050  139.6980 N   0  0  2  0  0  0  0  0  0  0  0  0
  182.4990  179.2450  137.9320 C   0  0  0  0  0  2  0  0  0  0  0  0
  183.2720  179.1040  139.2470 C   0  0  2  0  0  3  0  0  0  0  0  0
  182.8060  176.7120  138.8240 C   0  0  0  0  0  2  0  0  0  0  0  0
  181.3330  177.0620  138.5200 C   0  0  2  0  0  3  0  0  0  0  0  0
  181.0230  177.3180  137.0360 C   0  0  1  0  0  3  0  0  0  0  0  0
  181.1650  178.4970  138.0120 C   0  0  2  0  0  3  0  0  0  0  0  0
  187.8280  178.6580  147.1620 C   0  0  1  0  0  3  0  0  0  0  0  0
  182.9390  177.5410  141.0630 C   0  0  1  0  0  3  0  0  0  0  0  0
  184.3840  178.7240  144.9040 C   0  0  0  0  0  0  0  0  0  0  0  0
  183.7160  178.8710  142.5810 C   0  0  2  0  0  3  0  0  0  0  0  0
  180.0590  178.2670  141.5870 O   0  0  0  0  0  1  0  0  0  0  0  0
  187.2800  177.0450  145.3790 C   0  0  0  0  0  2  0  0  0  0  0  0
  184.1050  177.5030  142.0470 C   0  0  0  0  0  2  0  0  0  0  0  0
  185.3750  178.6160  145.7430 C   0  0  0  0  0  0  0  0  0  0  0  0
  181.1510  178.6800  142.3420 C   0  0  0  0  0  0  0  0  0  0  0  0
  182.0950  179.3710  144.5250 C   0  0  0  0  0  2  0  0  0  0  0  0
  185.6860  179.7430  146.6280 C   0  0  0  0  0  3  0  0  0  0  0  0
  186.8070  179.7410  147.3390 C   0  0  0  0  0  3  0  0  0  0  0  0
  183.4030  178.8320  144.0500 C   0  0  0  0  0  0  0  0  0  0  0  0
  188.6350  178.5950  148.2830 F   0  0  0  0  0  0  0  0  0  0  0  0
  182.4870  178.8740  141.6580 C   0  0  2  0  0  3  0  0  0  0  0  0
  187.2240  177.2760  146.8780 C   0  0  2  0  0  3  0  0  0  0  0  0
  185.9340  177.2510  146.0370 C   0  0  2  0  0  3  0  0  0  0  0  0
  180.9850  178.8890  143.6480 C   0  0  0  0  0  3  0  0  0  0  0  0
  184.6330  179.7650  139.1110 C   0  0  0  0  0  2  0  0  0  0  0  0
  185.6370  179.0120  139.8450 N   0  0  0  0  0  2  0  0  0  0  0  0
  186.3690  178.2040  138.8810 C   0  0  0  0  0  2  0  0  0  0  0  0
  189.6260  176.4150  136.1900 C   0  0  0  0  0  1  0  0  0  0  0  0
  190.5410  175.5610  138.7110 O   0  0  0  0  0  0  0  0  0  0  0  0
  188.1110  178.7850  136.3580 O   0  0  0  0  0  0  0  0  0  0  0  0
  189.2570  177.0570  137.4430 N   0  0  0  0  0  0  0  0  0  0  0  0
  189.4800  177.2970  139.9360 C   0  0  0  0  0  0  0  0  0  0  0  0
  188.5960  178.2980  139.9390 C   0  0  0  0  0  3  0  0  0  0  0  0
  187.8000  178.7080  138.7290 C   0  0  1  0  0  3  0  0  0  0  0  0
  189.7870  176.5770  138.6860 C   0  0  0  0  0  0  0  0  0  0  0  0
  188.4030  178.2090  137.4440 C   0  0  0  0  0  0  0  0  0  0  0  0
  190.1490  176.9230  141.2120 C   0  0  0  0  0  2  0  0  0  0  0  0
  189.1840  176.6080  142.1700 O   0  0  0  0  0  1  0  0  0  0  0  0
  182.2120  177.0960  136.0740 C   0  0  1  0  0  3  0  0  0  0  0  0
  181.1530  174.7850  135.6830 C   0  0  0  0  0  1  0  0  0  0  0  0
  182.4220  175.6350  135.6400 C   0  0  2  0  0  3  0  0  0  0  0  0
  183.5360  175.0080  136.4790 C   0  0  2  0  0  3  0  0  0  0  0  0
  185.9540  175.5440  136.2870 C   0  0  0  0  0  2  0  0  0  0  0  0
  184.7930  174.8070  135.6460 C   0  0  0  0  0  3  0  0  0  0  0  0
  185.2380  176.1480  135.0940 C   0  0  0  0  0  2  0  0  0  0  0  0
  183.1180  173.7910  137.0330 O   0  0  0  0  0  0  0  0  0  0  0  0
  184.1470  172.8910  136.7420 C   0  0  0  0  0  2  0  0  0  0  0  0
  183.5880  171.4740  136.6550 C   0  0  0  0  0  2  0  0  0  0  0  0
  182.1590  171.4390  137.1900 C   0  0  0  0  0  1  0  0  0  0  0  0
  180.2740  178.3880  134.7130 C   0  0  0  0  0  1  0  0  0  0  0  0
  182.0790  178.1800  134.6050 S   0  0  0  0  0  0  0  0  0  0  0  0
  1  4  1  6  0  0  0
  1  9  1  0  0  0  0
  2  3  1  0  0  0  0
  3 26  1  6  0  0  0
  3  1  1  0  0  0  0
  5  4  1  6  0  0  0
  6 40  1  6  0  0  0
  6  7  1  0  0  0  0
  6  5  1  0  0  0  0
  7  2  1  6  0  0  0
  7  5  1  0  0  0  0
  8 19  1  0  0  0  0
  8 21  1  1  0  0  0
  9 22  1  0  0  0  0
  9 14  1  1  0  0  0
 10 15  2  0  0  0  0
 11 14  1  6  0  0  0
 11 20  1  0  0  0  0
 12 16  1  0  0  0  0
 15 24  1  0  0  0  0
 15 18  1  0  0  0  0
 16 25  2  0  0  0  0
 18 19  2  0  0  0  0
 20 17  1  0  0  0  0
 20 10  2  0  0  0  0
 22 16  1  1  0  0  0
 22 11  1  0  0  0  0
 23 13  1  6  0  0  0
 23  8  1  0  0  0  0
 24 13  1  6  0  0  0
 24 23  1  0  0  0  0
 25 17  1  0  0  0  0
 26 27  1  0  0  0  0
 28 27  1  0  0  0  0
 29 32  1  0  0  0  0
 31 37  2  0  0  0  0
 32 37  1  0  0  0  0
 32 36  1  0  0  0  0
 33 34  2  0  0  0  0
 33 38  1  0  0  0  0
 35 28  1  1  0  0  0
 35 34  1  0  0  0  0
 36 30  2  0  0  0  0
 36 33  1  0  0  0  0
 37 35  1  0  0  0  0
 38 39  1  0  0  0  0
 40 52  1  6  0  0  0
 42 41  1  1  0  0  0
 42 40  1  0  0  0  0
 42 43  1  0  0  0  0
 43 47  1  6  0  0  0
 45 44  1  0  0  0  0
 45 43  1  0  0  0  0
 46 45  1  0  0  0  0
 46 44  1  0  0  0  0
 48 47  1  0  0  0  0
 49 48  1  0  0  0  0
 49 50  1  0  0  0  0
 52 51  1  0  0  0  0
M  END
>  <MODEL>
6

>  <REMARK>
 VINA RESULT:      -5.6      3.349      6.726
  Name = 
  14 active torsions:
  status: ('A' for Active; 'I' for Inactive)
    1  A    between atoms: C_2  and  C_19
    2  A    between atoms: N_3  and  C_6
    3  A    between atoms: O_4  and  C_7
    4  A    between atoms: O_4  and  C_19
    5  A    between atoms: C_7  and  C_15
    6  A    between atoms: C_7  and  C_22
    7  A    between atoms: C_8  and  C_34
    8  A    between atoms: C_8  and  N_43
    9  A    between atoms: C_15  and  C_51
   10  A    between atoms: C_24  and  C_28
   11  A    between atoms: C_31  and  C_35
   12  A    between atoms: C_31  and  N_43
   13  A    between atoms: S_41  and  C_51
   14  A    between atoms: C_48  and  C_51
                            x       y       z     vdW  Elec       q    Type
                         _______ _______ _______ _____ _____    ______ ____

>  <TORSDO>
F 14

$$$$
=
 OpenBabel11032419563D

 52 59  0  0  1  0  0  0  0  0999 V2000
  183.8020  177.5480  139.7940 N   0  0  2  0  0  0  0  0  0  0  0  0
  182.8980  178.9720  137.9070 C   0  0  0  0  0  2  0  0  0  0  0  0
  183.6170  178.9160  139.2600 C   0  0  2  0  0  3  0  0  0  0  0  0
  183.2050  176.4970  138.9510 C   0  0  0  0  0  2  0  0  0  0  0  0
  181.7410  176.8050  138.5670 C   0  0  2  0  0  3  0  0  0  0  0  0
  181.4900  176.9740  137.0600 C   0  0  1  0  0  3  0  0  0  0  0  0
  181.5740  178.2070  137.9740 C   0  0  2  0  0  3  0  0  0  0  0  0
  187.9290  178.6290  147.3800 C   0  0  1  0  0  3  0  0  0  0  0  0
  183.2300  177.4500  141.1440 C   0  0  1  0  0  3  0  0  0  0  0  0
  184.5740  178.7250  144.9930 C   0  0  0  0  0  0  0  0  0  0  0  0
  183.9960  178.8080  142.6420 C   0  0  2  0  0  3  0  0  0  0  0  0
  180.3600  178.2880  141.5340 O   0  0  0  0  0  1  0  0  0  0  0  0
  187.3910  176.9710  145.6350 C   0  0  0  0  0  2  0  0  0  0  0  0
  184.3570  177.4100  142.1720 C   0  0  0  0  0  2  0  0  0  0  0  0
  185.5290  178.6150  145.8720 C   0  0  0  0  0  0  0  0  0  0  0  0
  181.4370  178.6920  142.3140 C   0  0  0  0  0  0  0  0  0  0  0  0
  182.3230  179.4320  144.5060 C   0  0  0  0  0  2  0  0  0  0  0  0
  185.8450  179.7630  146.7280 C   0  0  0  0  0  3  0  0  0  0  0  0
  186.9390  179.7500  147.4800 C   0  0  0  0  0  3  0  0  0  0  0  0
  183.6280  178.8330  144.1000 C   0  0  0  0  0  0  0  0  0  0  0  0
  188.6910  178.5800  148.5320 F   0  0  0  0  0  0  0  0  0  0  0  0
  182.8020  178.8180  141.6740 C   0  0  2  0  0  3  0  0  0  0  0  0
  187.2880  177.2580  147.1220 C   0  0  2  0  0  3  0  0  0  0  0  0
  186.0300  177.2440  146.2350 C   0  0  2  0  0  3  0  0  0  0  0  0
  181.2300  178.9540  143.6050 C   0  0  0  0  0  3  0  0  0  0  0  0
  184.9730  179.5920  139.1430 C   0  0  0  0  0  2  0  0  0  0  0  0
  185.9840  178.6280  138.7400 N   0  0  0  0  0  2  0  0  0  0  0  0
  187.1470  178.8330  139.5910 C   0  0  0  0  0  2  0  0  0  0  0  0
  190.2970  178.2250  142.8710 C   0  0  0  0  0  1  0  0  0  0  0  0
  191.8350  177.6350  140.5890 O   0  0  0  0  0  0  0  0  0  0  0  0
  187.5580  177.6970  142.4690 O   0  0  0  0  0  0  0  0  0  0  0  0
  189.7260  177.8110  141.5970 N   0  0  0  0  0  0  0  0  0  0  0  0
  189.9940  176.9940  139.2340 C   0  0  0  0  0  0  0  0  0  0  0  0
  188.6680  176.9610  139.0740 C   0  0  0  0  0  3  0  0  0  0  0  0
  187.6950  177.5000  140.0880 C   0  0  1  0  0  3  0  0  0  0  0  0
  190.5810  177.5040  140.4870 C   0  0  0  0  0  0  0  0  0  0  0  0
  188.3090  177.6560  141.4530 C   0  0  0  0  0  0  0  0  0  0  0  0
  190.8650  176.5090  138.1280 C   0  0  0  0  0  2  0  0  0  0  0  0
  191.1900  175.1690  138.3440 O   0  0  0  0  0  1  0  0  0  0  0  0
  182.7220  176.7180  136.1620 C   0  0  1  0  0  3  0  0  0  0  0  0
  181.7040  174.3590  136.0590 C   0  0  0  0  0  1  0  0  0  0  0  0
  182.8680  175.2690  135.6680 C   0  0  2  0  0  3  0  0  0  0  0  0
  184.2020  174.6980  136.1500 C   0  0  2  0  0  3  0  0  0  0  0  0
  185.2990  173.0010  137.5940 C   0  0  0  0  0  2  0  0  0  0  0  0
  183.9870  173.6900  137.2680 C   0  0  0  0  0  3  0  0  0  0  0  0
  184.2660  172.2970  136.7360 C   0  0  0  0  0  2  0  0  0  0  0  0
  185.0590  175.7210  136.5740 O   0  0  0  0  0  0  0  0  0  0  0  0
  185.8450  176.0200  135.4580 C   0  0  0  0  0  2  0  0  0  0  0  0
  186.7780  174.8530  135.1520 C   0  0  0  0  0  2  0  0  0  0  0  0
  188.0810  175.0020  135.9330 C   0  0  0  0  0  1  0  0  0  0  0  0
  180.9420  178.0010  134.5940 C   0  0  0  0  0  1  0  0  0  0  0  0
  182.7510  177.8760  134.7440 S   0  0  0  0  0  0  0  0  0  0  0  0
  1  4  1  6  0  0  0
  1  9  1  0  0  0  0
  2  3  1  0  0  0  0
  3 26  1  6  0  0  0
  3  1  1  0  0  0  0
  5  4  1  6  0  0  0
  6 40  1  6  0  0  0
  6  7  1  0  0  0  0
  6  5  1  0  0  0  0
  7  2  1  6  0  0  0
  7  5  1  0  0  0  0
  8 19  1  0  0  0  0
  8 21  1  1  0  0  0
  9 22  1  0  0  0  0
  9 14  1  1  0  0  0
 10 15  2  0  0  0  0
 11 14  1  1  0  0  0
 11 20  1  0  0  0  0
 12 16  1  0  0  0  0
 15 24  1  0  0  0  0
 15 18  1  0  0  0  0
 16 25  2  0  0  0  0
 18 19  2  0  0  0  0
 20 17  1  0  0  0  0
 20 10  2  0  0  0  0
 22 16  1  1  0  0  0
 22 11  1  0  0  0  0
 23 13  1  6  0  0  0
 23  8  1  0  0  0  0
 24 13  1  6  0  0  0
 24 23  1  0  0  0  0
 25 17  1  0  0  0  0
 27 26  1  0  0  0  0
 27 28  1  0  0  0  0
 32 29  1  0  0  0  0
 33 36  1  0  0  0  0
 34 33  2  0  0  0  0
 34 35  1  0  0  0  0
 35 28  1  6  0  0  0
 35 37  1  0  0  0  0
 36 30  2  0  0  0  0
 36 32  1  0  0  0  0
 37 32  1  0  0  0  0
 37 31  2  0  0  0  0
 38 39  1  0  0  0  0
 38 33  1  0  0  0  0
 40 52  1  6  0  0  0
 42 41  1  1  0  0  0
 42 43  1  0  0  0  0
 42 40  1  0  0  0  0
 43 47  1  1  0  0  0
 43 45  1  0  0  0  0
 45 44  1  0  0  0  0
 46 45  1  0  0  0  0
 46 44  1  0  0  0  0
 48 47  1  0  0  0  0
 49 48  1  0  0  0  0
 49 50  1  0  0  0  0
 51 52  1  0  0  0  0
M  END
>  <MODEL>
7

>  <REMARK>
 VINA RESULT:      -5.4      3.208      6.426
  Name = 
  14 active torsions:
  status: ('A' for Active; 'I' for Inactive)
    1  A    between atoms: C_2  and  C_19
    2  A    between atoms: N_3  and  C_6
    3  A    between atoms: O_4  and  C_7
    4  A    between atoms: O_4  and  C_19
    5  A    between atoms: C_7  and  C_15
    6  A    between atoms: C_7  and  C_22
    7  A    between atoms: C_8  and  C_34
    8  A    between atoms: C_8  and  N_43
    9  A    between atoms: C_15  and  C_51
   10  A    between atoms: C_24  and  C_28
   11  A    between atoms: C_31  and  C_35
   12  A    between atoms: C_31  and  N_43
   13  A    between atoms: S_41  and  C_51
   14  A    between atoms: C_48  and  C_51
                            x       y       z     vdW  Elec       q    Type
                         _______ _______ _______ _____ _____    ______ ____

>  <TORSDO>
F 14

$$$$
=
 OpenBabel11032419563D

 52 59  0  0  1  0  0  0  0  0999 V2000
  188.7580  176.5680  139.0870 N   0  0  2  0  0  0  0  0  0  0  0  0
  188.6630  176.9070  136.5810 C   0  0  0  0  0  2  0  0  0  0  0  0
  189.4820  176.4690  137.7990 C   0  0  2  0  0  3  0  0  0  0  0  0
  187.4010  177.1270  138.9610 C   0  0  0  0  0  2  0  0  0  0  0  0
  187.3730  178.4400  138.1480 C   0  0  2  0  0  3  0  0  0  0  0  0
  186.5520  178.3790  136.8500 C   0  0  1  0  0  3  0  0  0  0  0  0
  188.0870  178.3090  136.8000 C   0  0  2  0  0  3  0  0  0  0  0  0
  187.5490  177.2300  147.6800 C   0  0  1  0  0  3  0  0  0  0  0  0
  189.5200  177.3900  140.0360 C   0  0  1  0  0  3  0  0  0  0  0  0
  189.8850  177.3740  144.2910 C   0  0  0  0  0  0  0  0  0  0  0  0
  189.8570  176.5690  142.0070 C   0  0  2  0  0  3  0  0  0  0  0  0
  192.4500  177.8440  139.4830 O   0  0  0  0  0  1  0  0  0  0  0  0
  186.8190  178.1260  145.5010 C   0  0  0  0  0  2  0  0  0  0  0  0
  188.7860  177.4380  141.3720 C   0  0  0  0  0  2  0  0  0  0  0  0
  189.2290  177.4820  145.4110 C   0  0  0  0  0  0  0  0  0  0  0  0
  191.9060  177.4350  140.6950 C   0  0  0  0  0  0  0  0  0  0  0  0
  192.0160  177.3720  143.1690 C   0  0  0  0  0  2  0  0  0  0  0  0
  189.6980  176.7410  146.5860 C   0  0  0  0  0  3  0  0  0  0  0  0
  188.9390  176.6680  147.6730 C   0  0  0  0  0  3  0  0  0  0  0  0
  190.5290  177.2580  143.1620 C   0  0  0  0  0  0  0  0  0  0  0  0
  187.1500  177.4620  148.9830 F   0  0  0  0  0  0  0  0  0  0  0  0
  190.6490  176.5930  140.6900 C   0  0  2  0  0  3  0  0  0  0  0  0
  187.3950  178.5130  146.8520 C   0  0  2  0  0  3  0  0  0  0  0  0
  188.2490  178.6120  145.5750 C   0  0  2  0  0  3  0  0  0  0  0  0
  192.5110  177.8010  141.8250 C   0  0  0  0  0  3  0  0  0  0  0  0
  189.9580  175.0390  137.6040 C   0  0  0  0  0  2  0  0  0  0  0  0
  191.4040  174.9650  137.7370 N   0  0  0  0  0  2  0  0  0  0  0  0
  191.9710  176.0420  136.9380 C   0  0  0  0  0  2  0  0  0  0  0  0
  193.0430  171.6820  135.9900 C   0  0  0  0  0  1  0  0  0  0  0  0
  194.9470  172.2390  137.9860 O   0  0  0  0  0  0  0  0  0  0  0  0
  192.2610  174.0020  134.5940 O   0  0  0  0  0  0  0  0  0  0  0  0
  193.4790  173.0270  136.3380 N   0  0  0  0  0  0  0  0  0  0  0  0
  194.9750  174.5860  137.6240 C   0  0  0  0  0  0  0  0  0  0  0  0
  194.4040  175.6450  137.0440 C   0  0  0  0  0  3  0  0  0  0  0  0
  193.1890  175.5540  136.1600 C   0  0  1  0  0  3  0  0  0  0  0  0
  194.4740  173.2260  137.3510 C   0  0  0  0  0  0  0  0  0  0  0  0
  192.9580  174.1620  135.6350 C   0  0  0  0  0  0  0  0  0  0  0  0
  196.1230  174.8020  138.5470 C   0  0  0  0  0  2  0  0  0  0  0  0
  195.6510  175.2430  139.7840 O   0  0  0  0  0  1  0  0  0  0  0  0
  185.8100  177.0450  136.6100 C   0  0  1  0  0  3  0  0  0  0  0  0
  183.9520  175.4340  137.3600 C   0  0  0  0  0  1  0  0  0  0  0  0
  184.6010  176.8070  137.5290 C   0  0  2  0  0  3  0  0  0  0  0  0
  183.5810  177.9290  137.3320 C   0  0  2  0  0  3  0  0  0  0  0  0
  183.4630  179.8300  138.9250 C   0  0  0  0  0  2  0  0  0  0  0  0
  183.0280  178.4000  138.6680 C   0  0  0  0  0  3  0  0  0  0  0  0
  184.1860  178.6850  139.6060 C   0  0  0  0  0  2  0  0  0  0  0  0
  182.5380  177.5140  136.4920 O   0  0  0  0  0  0  0  0  0  0  0  0
  181.6350  176.8600  137.3350 C   0  0  0  0  0  2  0  0  0  0  0  0
  180.2080  177.2570  136.9750 C   0  0  0  0  0  2  0  0  0  0  0  0
  179.5290  177.9210  138.1690 C   0  0  0  0  0  1  0  0  0  0  0  0
  186.0730  175.2370  134.6260 C   0  0  0  0  0  1  0  0  0  0  0  0
  185.3150  176.8750  134.8560 S   0  0  0  0  0  0  0  0  0  0  0  0
  1  4  1  6  0  0  0
  1  9  1  0  0  0  0
  2  3  1  0  0  0  0
  3 26  1  6  0  0  0
  3  1  1  0  0  0  0
  5  4  1  1  0  0  0
  6 40  1  1  0  0  0
  6  5  1  0  0  0  0
  7  2  1  1  0  0  0
  7  6  1  0  0  0  0
  7  5  1  0  0  0  0
  8 21  1  1  0  0  0
  9 22  1  0  0  0  0
  9 14  1  1  0  0  0
 10 15  2  0  0  0  0
 11 14  1  6  0  0  0
 11 20  1  0  0  0  0
 12 16  1  0  0  0  0
 15 24  1  0  0  0  0
 15 18  1  0  0  0  0
 16 25  2  0  0  0  0
 18 19  2  0  0  0  0
 19  8  1  0  0  0  0
 20 17  1  0  0  0  0
 20 10  2  0  0  0  0
 22 16  1  1  0  0  0
 22 11  1  0  0  0  0
 23 13  1  6  0  0  0
 23  8  1  0  0  0  0
 24 13  1  6  0  0  0
 24 23  1  0  0  0  0
 25 17  1  0  0  0  0
 26 27  1  0  0  0  0
 28 27  1  0  0  0  0
 29 32  1  0  0  0  0
 31 37  2  0  0  0  0
 32 36  1  0  0  0  0
 33 38  1  0  0  0  0
 34 33  2  0  0  0  0
 35 28  1  1  0  0  0
 35 34  1  0  0  0  0
 36 33  1  0  0  0  0
 36 30  2  0  0  0  0
 37 35  1  0  0  0  0
 37 32  1  0  0  0  0
 38 39  1  0  0  0  0
 40 52  1  6  0  0  0
 40 42  1  0  0  0  0
 42 41  1  6  0  0  0
 43 47  1  6  0  0  0
 43 42  1  0  0  0  0
 43 45  1  0  0  0  0
 44 46  1  0  0  0  0
 45 44  1  0  0  0  0
 45 46  1  0  0  0  0
 47 48  1  0  0  0  0
 49 48  1  0  0  0  0
 49 50  1  0  0  0  0
 51 52  1  0  0  0  0
M  END
>  <MODEL>
8

>  <REMARK>
 VINA RESULT:      -5.4      1.767      2.707
  Name = 
  14 active torsions:
  status: ('A' for Active; 'I' for Inactive)
    1  A    between atoms: C_2  and  C_19
    2  A    between atoms: N_3  and  C_6
    3  A    between atoms: O_4  and  C_7
    4  A    between atoms: O_4  and  C_19
    5  A    between atoms: C_7  and  C_15
    6  A    between atoms: C_7  and  C_22
    7  A    between atoms: C_8  and  C_34
    8  A    between atoms: C_8  and  N_43
    9  A    between atoms: C_15  and  C_51
   10  A    between atoms: C_24  and  C_28
   11  A    between atoms: C_31  and  C_35
   12  A    between atoms: C_31  and  N_43
   13  A    between atoms: S_41  and  C_51
   14  A    between atoms: C_48  and  C_51
                            x       y       z     vdW  Elec       q    Type
                         _______ _______ _______ _____ _____    ______ ____

>  <TORSDO>
F 14

$$$$
=
 OpenBabel11032419563D

 52 59  0  0  1  0  0  0  0  0999 V2000
  189.8600  177.7290  140.6370 N   0  0  2  0  0  0  0  0  0  0  0  0
  191.1330  176.2800  142.2750 C   0  0  0  0  0  2  0  0  0  0  0  0
  190.9990  176.8070  140.8420 C   0  0  2  0  0  3  0  0  0  0  0  0
  189.0300  177.9220  141.8400 C   0  0  0  0  0  2  0  0  0  0  0  0
  188.6180  176.5860  142.4960 C   0  0  2  0  0  3  0  0  0  0  0  0
  189.1440  176.3790  143.9260 C   0  0  1  0  0  3  0  0  0  0  0  0
  189.8130  175.6620  142.7430 C   0  0  2  0  0  3  0  0  0  0  0  0
  181.2940  178.9440  139.6920 C   0  0  1  0  0  3  0  0  0  0  0  0
  189.0030  177.2430  139.5470 C   0  0  1  0  0  3  0  0  0  0  0  0
  185.0820  178.2880  138.2150 C   0  0  0  0  0  0  0  0  0  0  0  0
  187.3900  178.5330  138.9080 C   0  0  2  0  0  3  0  0  0  0  0  0
  190.2070  177.0140  136.7920 O   0  0  0  0  0  1  0  0  0  0  0  0
  182.9850  177.4890  140.7430 C   0  0  0  0  0  2  0  0  0  0  0  0
  187.5370  177.4220  139.9330 C   0  0  0  0  0  2  0  0  0  0  0  0
  183.8300  178.3670  138.5650 C   0  0  0  0  0  0  0  0  0  0  0  0
  188.9990  177.6280  137.1020 C   0  0  0  0  0  0  0  0  0  0  0  0
  186.7040  178.2750  136.4340 C   0  0  0  0  0  2  0  0  0  0  0  0
  182.9880  179.4100  137.9700 C   0  0  0  0  0  3  0  0  0  0  0  0
  181.7760  179.6450  138.4580 C   0  0  0  0  0  3  0  0  0  0  0  0
  186.3410  178.2120  137.8800 C   0  0  0  0  0  0  0  0  0  0  0  0
  179.9120  178.9760  139.7320 F   0  0  0  0  0  0  0  0  0  0  0  0
  188.8380  178.2950  138.4510 C   0  0  2  0  0  3  0  0  0  0  0  0
  181.7850  177.4950  139.8130 C   0  0  2  0  0  3  0  0  0  0  0  0
  183.1960  177.2010  139.2730 C   0  0  2  0  0  3  0  0  0  0  0  0
  188.0190  177.6060  136.1980 C   0  0  0  0  0  3  0  0  0  0  0  0
  192.2850  177.5060  140.4360 C   0  0  0  0  0  2  0  0  0  0  0  0
  192.6990  177.0730  139.1110 N   0  0  0  0  0  2  0  0  0  0  0  0
  193.8390  176.1840  139.2780 C   0  0  0  0  0  2  0  0  0  0  0  0
  197.5650  173.8720  137.9280 C   0  0  0  0  0  1  0  0  0  0  0  0
  197.3770  175.7650  135.8540 O   0  0  0  0  0  0  0  0  0  0  0  0
  195.0570  173.3170  139.0880 O   0  0  0  0  0  0  0  0  0  0  0  0
  196.3350  174.5690  137.5800 N   0  0  0  0  0  0  0  0  0  0  0  0
  195.0420  176.1270  136.0900 C   0  0  0  0  0  0  0  0  0  0  0  0
  193.9410  175.9480  136.8240 C   0  0  0  0  0  3  0  0  0  0  0  0
  193.9230  175.1900  138.1250 C   0  0  1  0  0  3  0  0  0  0  0  0
  196.3160  175.5020  136.4910 C   0  0  0  0  0  0  0  0  0  0  0  0
  195.1190  174.2910  138.2870 C   0  0  0  0  0  0  0  0  0  0  0  0
  194.9600  176.9660  134.8620 C   0  0  0  0  0  2  0  0  0  0  0  0
  195.4300  178.2500  135.1430 O   0  0  0  0  0  1  0  0  0  0  0  0
  189.9230  177.5770  144.5130 C   0  0  1  0  0  3  0  0  0  0  0  0
  190.4050  176.7490  146.8990 C   0  0  0  0  0  1  0  0  0  0  0  0
  189.7230  177.7970  146.0220 C   0  0  2  0  0  3  0  0  0  0  0  0
  188.2280  177.8880  146.3310 C   0  0  2  0  0  3  0  0  0  0  0  0
  187.2900  178.6340  148.5060 C   0  0  0  0  0  2  0  0  0  0  0  0
  187.9460  177.4820  147.7690 C   0  0  0  0  0  3  0  0  0  0  0  0
  188.7680  178.3550  148.6970 C   0  0  0  0  0  2  0  0  0  0  0  0
  187.4860  177.0940  145.4460 O   0  0  0  0  0  0  0  0  0  0  0  0
  186.1610  177.5020  145.6190 C   0  0  0  0  0  2  0  0  0  0  0  0
  185.8830  178.7400  144.7720 C   0  0  0  0  0  2  0  0  0  0  0  0
  185.3400  178.3310  143.4060 C   0  0  0  0  0  1  0  0  0  0  0  0
  191.9670  179.2470  143.9570 C   0  0  0  0  0  1  0  0  0  0  0  0
  191.7080  177.4540  144.1240 S   0  0  0  0  0  0  0  0  0  0  0  0
  1  3  1  0  0  0  0
  1  4  1  1  0  0  0
  3 26  1  1  0  0  0
  3  2  1  0  0  0  0
  5  4  1  6  0  0  0
  5  7  1  0  0  0  0
  5  6  1  0  0  0  0
  6 40  1  6  0  0  0
  7  2  1  6  0  0  0
  7  6  1  0  0  0  0
  8 21  1  6  0  0  0
  8 23  1  0  0  0  0
  9 14  1  1  0  0  0
  9  1  1  0  0  0  0
 10 15  2  0  0  0  0
 11 14  1  1  0  0  0
 12 16  1  0  0  0  0
 15 24  1  0  0  0  0
 17 20  1  0  0  0  0
 18 19  2  0  0  0  0
 18 15  1  0  0  0  0
 19  8  1  0  0  0  0
 20 10  2  0  0  0  0
 20 11  1  0  0  0  0
 22 16  1  6  0  0  0
 22 11  1  0  0  0  0
 22  9  1  0  0  0  0
 23 13  1  1  0  0  0
 24 23  1  0  0  0  0
 24 13  1  1  0  0  0
 25 17  1  0  0  0  0
 25 16  2  0  0  0  0
 27 28  1  0  0  0  0
 27 26  1  0  0  0  0
 30 36  2  0  0  0  0
 32 29  1  0  0  0  0
 32 37  1  0  0  0  0
 33 36  1  0  0  0  0
 33 34  2  0  0  0  0
 34 35  1  0  0  0  0
 35 37  1  0  0  0  0
 35 28  1  1  0  0  0
 36 32  1  0  0  0  0
 37 31  2  0  0  0  0
 38 39  1  0  0  0  0
 38 33  1  0  0  0  0
 40 52  1  1  0  0  0
 40 42  1  0  0  0  0
 42 43  1  0  0  0  0
 42 41  1  1  0  0  0
 43 47  1  6  0  0  0
 43 45  1  0  0  0  0
 44 46  1  0  0  0  0
 45 44  1  0  0  0  0
 45 46  1  0  0  0  0
 47 48  1  0  0  0  0
 49 48  1  0  0  0  0
 50 49  1  0  0  0  0
 51 52  1  0  0  0  0
M  END
>  <MODEL>
9

>  <REMARK>
 VINA RESULT:      -5.4      2.947      6.906
  Name = 
  14 active torsions:
  status: ('A' for Active; 'I' for Inactive)
    1  A    between atoms: C_2  and  C_19
    2  A    between atoms: N_3  and  C_6
    3  A    between atoms: O_4  and  C_7
    4  A    between atoms: O_4  and  C_19
    5  A    between atoms: C_7  and  C_15
    6  A    between atoms: C_7  and  C_22
    7  A    between atoms: C_8  and  C_34
    8  A    between atoms: C_8  and  N_43
    9  A    between atoms: C_15  and  C_51
   10  A    between atoms: C_24  and  C_28
   11  A    between atoms: C_31  and  C_35
   12  A    between atoms: C_31  and  N_43
   13  A    between atoms: S_41  and  C_51
   14  A    between atoms: C_48  and  C_51
                            x       y       z     vdW  Elec       q    Type
                         _______ _______ _______ _____ _____    ______ ____

>  <TORSDO>
F 14

$$$$
