=
 OpenBabel11042411323D

 36 41  0  0  1  0  0  0  0  0999 V2000
  185.9970  178.1480  142.4560 C   0  0  0  0  0  0  0  0  0  0  0  0
  186.6520  178.6450  138.5810 C   0  0  0  0  0  0  0  0  0  0  0  0
  187.0650  177.8540  143.2460 N   0  0  0  0  0  0  0  0  0  0  0  0
  186.6350  177.9570  144.5230 C   0  0  0  0  0  0  0  0  0  0  0  0
  182.9830  178.5190  141.5710 C   0  0  0  0  0  0  0  0  0  0  0  0
  183.6020  177.8220  140.4760 N   0  0  0  0  0  0  0  0  0  0  0  0
  183.3610  176.2490  138.7450 O   0  0  0  0  0  0  0  0  0  0  0  0
  182.8340  176.8690  139.7070 C   0  0  0  0  0  0  0  0  0  0  0  0
  181.7070  178.9510  141.5680 N   0  0  0  0  0  0  0  0  0  0  0  0
  181.5360  179.4580  142.8100 C   0  0  0  0  0  3  0  0  0  0  0  0
  184.5630  178.3900  145.8150 C   0  0  0  0  0  3  0  0  0  0  0  0
  184.9540  178.1450  140.0890 C   0  0  0  0  0  0  0  0  0  0  0  0
  187.3770  177.5660  145.7690 C   0  0  0  0  0  2  0  0  0  0  0  0
  186.7640  178.2780  146.9920 C   0  0  0  0  0  2  0  0  0  0  0  0
  183.5380  178.7640  142.8000 C   0  0  0  0  0  0  0  0  0  0  0  0
  182.6250  179.3400  143.5410 O   0  0  0  0  0  0  0  0  0  0  0  0
  186.0320  178.2600  140.9800 C   0  0  0  0  0  0  0  0  0  0  0  0
  185.3140  178.3300  138.7410 C   0  0  0  0  0  3  0  0  0  0  0  0
  181.4810  176.5740  140.0500 N   0  0  0  0  0  1  0  0  0  0  0  0
  185.3120  178.3010  144.5560 C   0  0  0  0  0  0  0  0  0  0  0  0
  187.4160  178.5940  140.0770 S   0  0  0  0  0  0  0  0  0  0  0  0
  184.8870  178.4180  143.2500 C   0  0  0  0  0  0  0  0  0  0  0  0
  185.2470  178.3270  146.9660 C   0  0  0  0  0  3  0  0  0  0  0  0
  188.8900  176.9700  134.5940 C   0  0  0  0  0  3  0  0  0  0  0  0
  188.8280  174.0860  136.8500 C   0  0  0  0  0  1  0  0  0  0  0  0
  188.0630  176.3960  137.1620 C   0  0  0  0  0  0  0  0  0  0  0  0
  187.7720  176.1130  138.3560 O   0  0  0  0  0  0  0  0  0  0  0  0
  189.0240  175.7280  135.1190 N   0  0  0  0  0  0  0  0  0  0  0  0
  187.3160  178.6840  137.3130 N   0  0  0  0  0  2  0  0  0  0  0  0
  187.8610  177.7020  136.6480 C   0  0  0  0  0  0  0  0  0  0  0  0
  188.6260  175.4410  136.3600 N   0  0  0  0  0  0  0  0  0  0  0  0
  188.3090  177.9750  135.3570 C   0  0  0  0  0  3  0  0  0  0  0  0
  188.6380  175.9680  143.2140 C   0  0  0  0  0  1  0  0  0  0  0  0
  188.3860  177.4080  142.8000 C   0  0  2  0  0  3  0  0  0  0  0  0
  189.4780  178.3270  143.3270 C   0  0  0  0  0  2  0  0  0  0  0  0
  190.2810  177.6450  144.2210 F   0  0  0  0  0  0  0  0  0  0  0  0
  1  3  1  0  0  0  0
  1 22  2  0  0  0  0
  2 18  2  0  0  0  0
  2 21  1  0  0  0  0
  3  4  1  0  0  0  0
  4 20  2  0  0  0  0
  4 13  1  0  0  0  0
  5 15  2  0  0  0  0
  6  5  1  0  0  0  0
  7  8  2  0  0  0  0
  8 19  1  0  0  0  0
  8  6  1  0  0  0  0
  9  5  1  0  0  0  0
  9 10  2  0  0  0  0
 10 16  1  0  0  0  0
 11 23  2  0  0  0  0
 12  6  1  0  0  0  0
 12 17  2  0  0  0  0
 13 14  1  0  0  0  0
 15 22  1  0  0  0  0
 15 16  1  0  0  0  0
 17  1  1  0  0  0  0
 18 12  1  0  0  0  0
 20 11  1  0  0  0  0
 21 17  1  0  0  0  0
 22 20  1  0  0  0  0
 23 14  1  0  0  0  0
 24 28  2  0  0  0  0
 24 32  1  0  0  0  0
 26 27  2  0  0  0  0
 28 31  1  0  0  0  0
 29  2  1  0  0  0  0
 30 26  1  0  0  0  0
 30 29  1  0  0  0  0
 31 25  1  0  0  0  0
 31 26  1  0  0  0  0
 32 30  2  0  0  0  0
 34 33  1  1  0  0  0
 34  3  1  0  0  0  0
 34 35  1  0  0  0  0
 35 36  1  0  0  0  0
M  END
>  <MODEL>
1

>  <REMARK>
 VINA RESULT:      -8.6      0.000      0.000
  Name = 
  3 active torsions:
  status: ('A' for Active; 'I' for Inactive)
    1  A    between atoms: C_3  and  N_23
    2  A    between atoms: N_6  and  C_31
    3  A    between atoms: C_20  and  C_31
                            x       y       z     vdW  Elec       q    Type
                         _______ _______ _______ _____ _____    ______ ____

>  <TORSDO>
F 3

$$$$
=
 OpenBabel11042411323D

 36 41  0  0  1  0  0  0  0  0999 V2000
  189.2390  177.2460  141.1680 C   0  0  0  0  0  0  0  0  0  0  0  0
  191.9810  177.0670  138.3150 C   0  0  0  0  0  0  0  0  0  0  0  0
  189.6360  176.9910  142.4440 N   0  0  0  0  0  0  0  0  0  0  0  0
  188.5990  177.3310  143.2410 C   0  0  0  0  0  0  0  0  0  0  0  0
  187.3090  177.7290  138.7090 C   0  0  0  0  0  0  0  0  0  0  0  0
  188.3060  176.8170  138.2160 N   0  0  0  0  0  0  0  0  0  0  0  0
  188.8080  175.0170  136.7890 O   0  0  0  0  0  0  0  0  0  0  0  0
  187.9460  175.8230  137.2300 C   0  0  0  0  0  0  0  0  0  0  0  0
  186.3330  178.2620  137.9500 N   0  0  0  0  0  0  0  0  0  0  0  0
  185.5910  178.9710  138.8300 C   0  0  0  0  0  3  0  0  0  0  0  0
  186.2590  178.1370  143.0960 C   0  0  0  0  0  3  0  0  0  0  0  0
  189.6800  176.9580  138.6350 C   0  0  0  0  0  0  0  0  0  0  0  0
  188.4630  177.0800  144.7150 C   0  0  0  0  0  2  0  0  0  0  0  0
  187.4020  178.0260  145.3150 C   0  0  0  0  0  2  0  0  0  0  0  0
  187.1290  178.1160  140.0110 C   0  0  0  0  0  0  0  0  0  0  0  0
  186.0660  178.8780  140.0560 O   0  0  0  0  0  0  0  0  0  0  0  0
  190.0960  177.1210  139.9660 C   0  0  0  0  0  0  0  0  0  0  0  0
  190.7440  176.8960  137.7160 C   0  0  0  0  0  3  0  0  0  0  0  0
  186.6010  175.7030  136.7730 N   0  0  0  0  0  1  0  0  0  0  0  0
  187.5500  177.7870  142.4930 C   0  0  0  0  0  0  0  0  0  0  0  0
  191.7800  177.1880  139.9780 S   0  0  0  0  0  0  0  0  0  0  0  0
  187.9360  177.7320  141.1700 C   0  0  0  0  0  0  0  0  0  0  0  0
  186.1790  178.2000  144.4320 C   0  0  0  0  0  3  0  0  0  0  0  0
  195.3180  174.7840  135.6000 C   0  0  0  0  0  3  0  0  0  0  0  0
  192.8040  172.2060  136.2650 C   0  0  0  0  0  1  0  0  0  0  0  0
  192.9650  174.5350  137.0180 C   0  0  0  0  0  0  0  0  0  0  0  0
  191.9300  174.3550  137.7160 O   0  0  0  0  0  0  0  0  0  0  0  0
  194.6190  173.6240  135.6100 N   0  0  0  0  0  0  0  0  0  0  0  0
  193.2280  176.8480  137.6450 N   0  0  0  0  0  2  0  0  0  0  0  0
  193.6360  175.7840  137.0080 C   0  0  0  0  0  0  0  0  0  0  0  0
  193.4790  173.4940  136.2930 N   0  0  0  0  0  0  0  0  0  0  0  0
  194.8350  175.8800  136.3060 C   0  0  0  0  0  3  0  0  0  0  0  0
  190.6420  175.0030  143.4760 C   0  0  0  0  0  1  0  0  0  0  0  0
  190.8940  176.3690  142.8600 C   0  0  2  0  0  3  0  0  0  0  0  0
  191.6550  177.2700  143.8210 C   0  0  0  0  0  2  0  0  0  0  0  0
  191.6070  178.5800  143.3810 F   0  0  0  0  0  0  0  0  0  0  0  0
  1 22  2  0  0  0  0
  1  3  1  0  0  0  0
  2 21  1  0  0  0  0
  3 34  1  0  0  0  0
  3  4  1  0  0  0  0
  4 13  1  0  0  0  0
  5 15  2  0  0  0  0
  6 12  1  0  0  0  0
  6  5  1  0  0  0  0
  7  8  2  0  0  0  0
  8  6  1  0  0  0  0
  9  5  1  0  0  0  0
  9 10  2  0  0  0  0
 10 16  1  0  0  0  0
 11 23  2  0  0  0  0
 12 17  2  0  0  0  0
 13 14  1  0  0  0  0
 15 16  1  0  0  0  0
 15 22  1  0  0  0  0
 17 21  1  0  0  0  0
 17  1  1  0  0  0  0
 18  2  2  0  0  0  0
 18 12  1  0  0  0  0
 19  8  1  0  0  0  0
 20 11  1  0  0  0  0
 20  4  2  0  0  0  0
 22 20  1  0  0  0  0
 23 14  1  0  0  0  0
 24 28  2  0  0  0  0
 24 32  1  0  0  0  0
 25 31  1  0  0  0  0
 26 27  2  0  0  0  0
 28 31  1  0  0  0  0
 29  2  1  0  0  0  0
 30 26  1  0  0  0  0
 30 29  1  0  0  0  0
 31 26  1  0  0  0  0
 32 30  2  0  0  0  0
 34 33  1  1  0  0  0
 34 35  1  0  0  0  0
 36 35  1  0  0  0  0
M  END
>  <MODEL>
2

>  <REMARK>
 VINA RESULT:      -8.3      3.288      4.719
  Name = 
  3 active torsions:
  status: ('A' for Active; 'I' for Inactive)
    1  A    between atoms: C_3  and  N_23
    2  A    between atoms: N_6  and  C_31
    3  A    between atoms: C_20  and  C_31
                            x       y       z     vdW  Elec       q    Type
                         _______ _______ _______ _____ _____    ______ ____

>  <TORSDO>
F 3

$$$$
=
 OpenBabel11042411323D

 36 41  0  0  1  0  0  0  0  0999 V2000
  186.1460  178.2260  141.1110 C   0  0  0  0  0  0  0  0  0  0  0  0
  188.1330  178.2120  137.6840 C   0  0  0  0  0  0  0  0  0  0  0  0
  186.8520  178.0090  142.2530 N   0  0  0  0  0  0  0  0  0  0  0  0
  186.0150  178.2840  143.2780 C   0  0  0  0  0  0  0  0  0  0  0  0
  183.6560  178.5540  139.1870 C   0  0  0  0  0  0  0  0  0  0  0  0
  184.5670  177.7080  138.4640 N   0  0  0  0  0  0  0  0  0  0  0  0
  184.8370  175.9340  136.9440 O   0  0  0  0  0  0  0  0  0  0  0  0
  184.0520  176.6840  137.5840 C   0  0  0  0  0  0  0  0  0  0  0  0
  182.4920  179.0120  138.6880 N   0  0  0  0  0  0  0  0  0  0  0  0
  181.9350  179.6750  139.7260 C   0  0  0  0  0  3  0  0  0  0  0  0
  183.6580  178.9260  143.7020 C   0  0  0  0  0  3  0  0  0  0  0  0
  185.9880  177.9470  138.5440 C   0  0  0  0  0  0  0  0  0  0  0  0
  186.2520  178.0360  144.7400 C   0  0  0  0  0  2  0  0  0  0  0  0
  185.3020  178.9120  145.5830 C   0  0  0  0  0  2  0  0  0  0  0  0
  183.7660  178.9380  140.4980 C   0  0  0  0  0  0  0  0  0  0  0  0
  182.6940  179.6250  140.8020 O   0  0  0  0  0  0  0  0  0  0  0  0
  186.6970  178.1490  139.7380 C   0  0  0  0  0  0  0  0  0  0  0  0
  186.8040  177.9510  137.3970 C   0  0  0  0  0  3  0  0  0  0  0  0
  182.6470  176.4670  137.4600 N   0  0  0  0  0  1  0  0  0  0  0  0
  184.7880  178.6600  142.8060 C   0  0  0  0  0  0  0  0  0  0  0  0
  188.3270  178.3320  139.3490 S   0  0  0  0  0  0  0  0  0  0  0  0
  184.8500  178.6210  141.4280 C   0  0  0  0  0  0  0  0  0  0  0  0
  183.8950  178.9940  145.0190 C   0  0  0  0  0  3  0  0  0  0  0  0
  191.1790  176.0010  134.5940 C   0  0  0  0  0  3  0  0  0  0  0  0
  189.6220  173.2400  136.4280 C   0  0  0  0  0  1  0  0  0  0  0  0
  189.3750  175.6700  136.6540 C   0  0  0  0  0  0  0  0  0  0  0  0
  188.6170  175.4760  137.6430 O   0  0  0  0  0  0  0  0  0  0  0  0
  190.8140  174.7680  135.0230 N   0  0  0  0  0  0  0  0  0  0  0  0
  189.1960  178.0730  136.7340 N   0  0  0  0  0  2  0  0  0  0  0  0
  189.6900  176.9810  136.2170 C   0  0  0  0  0  0  0  0  0  0  0  0
  189.9410  174.5990  136.0180 N   0  0  0  0  0  0  0  0  0  0  0  0
  190.6220  177.1250  135.1920 C   0  0  0  0  0  3  0  0  0  0  0  0
  188.2420  176.2230  143.2080 C   0  0  0  0  0  1  0  0  0  0  0  0
  188.2130  177.4790  142.3520 C   0  0  2  0  0  3  0  0  0  0  0  0
  189.1690  178.5310  142.8930 C   0  0  0  0  0  2  0  0  0  0  0  0
  189.4960  178.2450  144.2060 F   0  0  0  0  0  0  0  0  0  0  0  0
  1 22  2  0  0  0  0
  1  3  1  0  0  0  0
  2 21  1  0  0  0  0
  3 34  1  0  0  0  0
  3  4  1  0  0  0  0
  4 13  1  0  0  0  0
  5 15  2  0  0  0  0
  6 12  1  0  0  0  0
  6  5  1  0  0  0  0
  7  8  2  0  0  0  0
  8  6  1  0  0  0  0
  9  5  1  0  0  0  0
  9 10  2  0  0  0  0
 10 16  1  0  0  0  0
 11 23  2  0  0  0  0
 12 17  2  0  0  0  0
 13 14  1  0  0  0  0
 15 16  1  0  0  0  0
 15 22  1  0  0  0  0
 17  1  1  0  0  0  0
 18  2  2  0  0  0  0
 18 12  1  0  0  0  0
 19  8  1  0  0  0  0
 20  4  2  0  0  0  0
 20 11  1  0  0  0  0
 21 17  1  0  0  0  0
 22 20  1  0  0  0  0
 23 14  1  0  0  0  0
 24 28  2  0  0  0  0
 24 32  1  0  0  0  0
 26 27  2  0  0  0  0
 28 31  1  0  0  0  0
 29  2  1  0  0  0  0
 30 26  1  0  0  0  0
 30 29  1  0  0  0  0
 31 25  1  0  0  0  0
 31 26  1  0  0  0  0
 32 30  2  0  0  0  0
 34 35  1  0  0  0  0
 34 33  1  1  0  0  0
 35 36  1  0  0  0  0
M  END
>  <MODEL>
3

>  <REMARK>
 VINA RESULT:      -7.7      1.609      1.985
  Name = 
  3 active torsions:
  status: ('A' for Active; 'I' for Inactive)
    1  A    between atoms: C_3  and  N_23
    2  A    between atoms: N_6  and  C_31
    3  A    between atoms: C_20  and  C_31
                            x       y       z     vdW  Elec       q    Type
                         _______ _______ _______ _____ _____    ______ ____

>  <TORSDO>
F 3

$$$$
=
 OpenBabel11042411323D

 36 41  0  0  1  0  0  0  0  0999 V2000
  189.6500  177.2360  139.6230 C   0  0  0  0  0  0  0  0  0  0  0  0
  193.0100  176.4590  137.6750 C   0  0  0  0  0  0  0  0  0  0  0  0
  189.6790  177.1820  140.9820 N   0  0  0  0  0  0  0  0  0  0  0  0
  188.5050  177.6960  141.4100 C   0  0  0  0  0  0  0  0  0  0  0  0
  188.4720  177.3820  136.6910 C   0  0  0  0  0  0  0  0  0  0  0  0
  189.4790  176.3570  136.6280 N   0  0  0  0  0  0  0  0  0  0  0  0
  190.1740  174.3230  135.6780 O   0  0  0  0  0  0  0  0  0  0  0  0
  189.3010  175.2290  135.7430 C   0  0  0  0  0  0  0  0  0  0  0  0
  187.7750  177.8230  135.6250 N   0  0  0  0  0  0  0  0  0  0  0  0
  186.8960  178.7020  136.1570 C   0  0  0  0  0  3  0  0  0  0  0  0
  186.3610  178.5690  140.5190 C   0  0  0  0  0  3  0  0  0  0  0  0
  190.7050  176.5070  137.3760 C   0  0  0  0  0  0  0  0  0  0  0  0
  187.9700  177.7030  142.8130 C   0  0  0  0  0  2  0  0  0  0  0  0
  186.8770  178.7820  142.9550 C   0  0  0  0  0  2  0  0  0  0  0  0
  187.9960  177.9910  137.8230 C   0  0  0  0  0  0  0  0  0  0  0  0
  187.0270  178.7950  137.4640 O   0  0  0  0  0  0  0  0  0  0  0  0
  190.7740  176.8730  138.7290 C   0  0  0  0  0  0  0  0  0  0  0  0
  191.9610  176.2440  136.7980 C   0  0  0  0  0  3  0  0  0  0  0  0
  188.1150  175.0930  134.9630 N   0  0  0  0  0  1  0  0  0  0  0  0
  187.7290  178.0660  140.3470 C   0  0  0  0  0  0  0  0  0  0  0  0
  192.3970  176.8670  139.1850 S   0  0  0  0  0  0  0  0  0  0  0  0
  188.4380  177.7720  139.2010 C   0  0  0  0  0  0  0  0  0  0  0  0
  185.9440  178.8590  141.7590 C   0  0  0  0  0  3  0  0  0  0  0  0
  196.7210  173.6210  136.2990 C   0  0  0  0  0  3  0  0  0  0  0  0
  193.8940  171.3090  136.5780 C   0  0  0  0  0  1  0  0  0  0  0  0
  194.0640  173.7120  137.0380 C   0  0  0  0  0  0  0  0  0  0  0  0
  192.8700  173.6950  137.4420 O   0  0  0  0  0  0  0  0  0  0  0  0
  195.9390  172.5140  136.2680 N   0  0  0  0  0  0  0  0  0  0  0  0
  194.3640  176.0760  137.4070 N   0  0  0  0  0  2  0  0  0  0  0  0
  194.8260  174.9080  137.0500 C   0  0  0  0  0  0  0  0  0  0  0  0
  194.6530  172.5490  136.6220 N   0  0  0  0  0  0  0  0  0  0  0  0
  196.1710  174.8330  136.6970 C   0  0  0  0  0  3  0  0  0  0  0  0
  190.1330  175.6040  142.8090 C   0  0  0  0  0  1  0  0  0  0  0  0
  190.7270  176.5850  141.8110 C   0  0  2  0  0  3  0  0  0  0  0  0
  191.5410  177.6580  142.5170 C   0  0  0  0  0  2  0  0  0  0  0  0
  191.2660  177.6470  143.8720 F   0  0  0  0  0  0  0  0  0  0  0  0
  1  3  1  0  0  0  0
  2 21  1  0  0  0  0
  3  4  1  0  0  0  0
  3 34  1  0  0  0  0
  4 13  1  0  0  0  0
  5 15  2  0  0  0  0
  6  5  1  0  0  0  0
  6 12  1  0  0  0  0
  7  8  2  0  0  0  0
  8  6  1  0  0  0  0
  9 10  2  0  0  0  0
  9  5  1  0  0  0  0
 10 16  1  0  0  0  0
 11 23  2  0  0  0  0
 12 17  2  0  0  0  0
 13 14  1  0  0  0  0
 15 22  1  0  0  0  0
 16 15  1  0  0  0  0
 17 21  1  0  0  0  0
 17  1  1  0  0  0  0
 18 12  1  0  0  0  0
 18  2  2  0  0  0  0
 19  8  1  0  0  0  0
 20 11  1  0  0  0  0
 20  4  2  0  0  0  0
 22  1  2  0  0  0  0
 22 20  1  0  0  0  0
 23 14  1  0  0  0  0
 24 32  1  0  0  0  0
 25 31  1  0  0  0  0
 26 30  1  0  0  0  0
 26 27  2  0  0  0  0
 28 24  2  0  0  0  0
 28 31  1  0  0  0  0
 29  2  1  0  0  0  0
 30 29  1  0  0  0  0
 31 26  1  0  0  0  0
 32 30  2  0  0  0  0
 34 35  1  0  0  0  0
 34 33  1  1  0  0  0
 35 36  1  0  0  0  0
M  END
>  <MODEL>
4

>  <REMARK>
 VINA RESULT:      -7.0      3.935      6.290
  Name = 
  3 active torsions:
  status: ('A' for Active; 'I' for Inactive)
    1  A    between atoms: C_3  and  N_23
    2  A    between atoms: N_6  and  C_31
    3  A    between atoms: C_20  and  C_31
                            x       y       z     vdW  Elec       q    Type
                         _______ _______ _______ _____ _____    ______ ____

>  <TORSDO>
F 3

$$$$
=
 OpenBabel11042411323D

 36 41  0  0  1  0  0  0  0  0999 V2000
  184.7930  176.5180  137.2400 C   0  0  0  0  0  0  0  0  0  0  0  0
  182.6000  179.5630  138.5080 C   0  0  0  0  0  0  0  0  0  0  0  0
  184.1450  175.4590  136.6830 N   0  0  0  0  0  0  0  0  0  0  0  0
  185.0980  174.6730  136.1350 C   0  0  0  0  0  0  0  0  0  0  0  0
  187.1390  178.2180  138.5100 C   0  0  0  0  0  0  0  0  0  0  0  0
  186.0090  178.4600  139.3660 N   0  0  0  0  0  0  0  0  0  0  0  0
  185.2320  178.8880  141.5430 O   0  0  0  0  0  0  0  0  0  0  0  0
  186.2120  178.6750  140.7800 C   0  0  0  0  0  0  0  0  0  0  0  0
  188.3350  178.8210  138.6490 N   0  0  0  0  0  0  0  0  0  0  0  0
  189.1040  178.2340  137.7050 C   0  0  0  0  0  3  0  0  0  0  0  0
  187.5640  174.5150  135.9350 C   0  0  0  0  0  3  0  0  0  0  0  0
  184.6880  178.5820  138.7950 C   0  0  0  0  0  0  0  0  0  0  0  0
  184.9230  173.3000  135.5530 C   0  0  0  0  0  2  0  0  0  0  0  0
  186.1070  172.9690  134.6210 C   0  0  0  0  0  2  0  0  0  0  0  0
  187.2190  177.2880  137.5060 C   0  0  0  0  0  0  0  0  0  0  0  0
  188.4370  177.3190  137.0310 O   0  0  0  0  0  0  0  0  0  0  0  0
  184.1360  177.6900  137.8640 C   0  0  0  0  0  0  0  0  0  0  0  0
  183.8100  179.6130  139.1780 C   0  0  0  0  0  3  0  0  0  0  0  0
  187.5180  178.6030  141.3490 N   0  0  0  0  0  1  0  0  0  0  0  0
  186.3380  175.2090  136.3430 C   0  0  0  0  0  0  0  0  0  0  0  0
  182.5650  178.1990  137.5270 S   0  0  0  0  0  0  0  0  0  0  0  0
  186.1650  176.3790  137.0520 C   0  0  0  0  0  0  0  0  0  0  0  0
  187.4500  173.4260  135.1630 C   0  0  0  0  0  3  0  0  0  0  0  0
  178.9310  181.2870  141.2060 C   0  0  0  0  0  3  0  0  0  0  0  0
  179.9960  178.2700  142.9870 C   0  0  0  0  0  1  0  0  0  0  0  0
  180.7720  179.2590  140.8800 C   0  0  0  0  0  0  0  0  0  0  0  0
  181.5430  178.2730  140.7300 O   0  0  0  0  0  0  0  0  0  0  0  0
  179.0560  180.2930  142.1190 N   0  0  0  0  0  0  0  0  0  0  0  0
  181.4640  180.3640  138.8520 N   0  0  0  0  0  0  0  0  0  0  0  0
  180.7110  180.2970  139.9170 C   0  0  0  0  0  0  0  0  0  0  0  0
  179.9440  179.3080  141.9690 N   0  0  0  0  0  0  0  0  0  0  0  0
  179.7570  181.2970  140.0890 C   0  0  0  0  0  2  0  0  0  0  0  0
  182.4550  173.9080  137.5590 C   0  0  0  0  0  1  0  0  0  0  0  0
  182.7110  175.1740  136.7590 C   0  0  2  0  0  3  0  0  0  0  0  0
  182.1020  175.0750  135.3690 C   0  0  0  0  0  2  0  0  0  0  0  0
  182.5110  176.1440  134.5940 F   0  0  0  0  0  0  0  0  0  0  0  0
  1 17  1  0  0  0  0
  2 29  1  0  0  0  0
  2 18  2  0  0  0  0
  3 34  1  0  0  0  0
  3  1  1  0  0  0  0
  4 20  2  0  0  0  0
  4  3  1  0  0  0  0
  5  9  1  0  0  0  0
  5  6  1  0  0  0  0
  6  8  1  0  0  0  0
  8 19  1  0  0  0  0
  8  7  2  0  0  0  0
 10  9  2  0  0  0  0
 11 20  1  0  0  0  0
 12 18  1  0  0  0  0
 12  6  1  0  0  0  0
 13  4  1  0  0  0  0
 14 23  1  0  0  0  0
 14 13  1  0  0  0  0
 15  5  2  0  0  0  0
 16 15  1  0  0  0  0
 16 10  1  0  0  0  0
 17 12  2  0  0  0  0
 20 22  1  0  0  0  0
 21 17  1  0  0  0  0
 21  2  1  0  0  0  0
 22  1  2  0  0  0  0
 22 15  1  0  0  0  0
 23 11  2  0  0  0  0
 24 28  2  0  0  0  0
 26 31  1  0  0  0  0
 27 26  2  0  0  0  0
 29 30  2  0  0  0  0
 30 32  1  0  0  0  0
 30 26  1  0  0  0  0
 31 28  1  0  0  0  0
 31 25  1  0  0  0  0
 32 24  1  0  0  0  0
 34 33  1  6  0  0  0
 35 34  1  0  0  0  0
 36 35  1  0  0  0  0
M  END
>  <MODEL>
5

>  <REMARK>
 VINA RESULT:      -6.6      3.925      8.644
  Name = 
  3 active torsions:
  status: ('A' for Active; 'I' for Inactive)
    1  A    between atoms: C_3  and  N_23
    2  A    between atoms: N_6  and  C_31
    3  A    between atoms: C_20  and  C_31
                            x       y       z     vdW  Elec       q    Type
                         _______ _______ _______ _____ _____    ______ ____

>  <TORSDO>
F 3

$$$$
=
 OpenBabel11042411323D

 36 41  0  0  1  0  0  0  0  0999 V2000
  188.5990  177.3040  139.2990 C   0  0  0  0  0  0  0  0  0  0  0  0
  185.2380  179.1860  140.2210 C   0  0  0  0  0  0  0  0  0  0  0  0
  188.6820  176.7210  138.0730 N   0  0  0  0  0  0  0  0  0  0  0  0
  189.9730  176.3520  137.9120 C   0  0  0  0  0  0  0  0  0  0  0  0
  189.3360  178.0260  142.2890 C   0  0  0  0  0  0  0  0  0  0  0  0
  187.9200  177.7720  142.3140 N   0  0  0  0  0  0  0  0  0  0  0  0
  186.0780  176.9540  143.5240 O   0  0  0  0  0  0  0  0  0  0  0  0
  187.3170  177.1830  143.4880 C   0  0  0  0  0  0  0  0  0  0  0  0
  190.0460  178.4500  143.3520 N   0  0  0  0  0  0  0  0  0  0  0  0
  191.3210  178.4650  142.9030 C   0  0  0  0  0  3  0  0  0  0  0  0
  192.1190  176.3120  139.1520 C   0  0  0  0  0  3  0  0  0  0  0  0
  187.0950  178.1930  141.2070 C   0  0  0  0  0  0  0  0  0  0  0  0
  190.5510  175.5170  136.8060 C   0  0  0  0  0  2  0  0  0  0  0  0
  192.0750  175.7370  136.7220 C   0  0  0  0  0  2  0  0  0  0  0  0
  190.1890  177.7900  141.2430 C   0  0  0  0  0  0  0  0  0  0  0  0
  191.4020  178.0670  141.6500 O   0  0  0  0  0  0  0  0  0  0  0  0
  187.3900  177.9530  139.8560 C   0  0  0  0  0  0  0  0  0  0  0  0
  185.8700  178.8560  141.4080 C   0  0  0  0  0  3  0  0  0  0  0  0
  188.1150  176.8050  144.6070 N   0  0  0  0  0  1  0  0  0  0  0  0
  190.7060  176.6820  139.0180 C   0  0  0  0  0  0  0  0  0  0  0  0
  186.1240  178.5730  138.9310 S   0  0  0  0  0  0  0  0  0  0  0  0
  189.8460  177.2800  139.9150 C   0  0  0  0  0  0  0  0  0  0  0  0
  192.7510  175.8180  138.0790 C   0  0  0  0  0  3  0  0  0  0  0  0
  180.3720  179.0560  140.0850 C   0  0  0  0  0  3  0  0  0  0  0  0
  181.3630  175.5650  139.5940 C   0  0  0  0  0  1  0  0  0  0  0  0
  182.7050  177.6040  139.8420 C   0  0  0  0  0  0  0  0  0  0  0  0
  183.7430  176.9160  139.6480 O   0  0  0  0  0  0  0  0  0  0  0  0
  180.3530  177.7120  139.9130 N   0  0  0  0  0  0  0  0  0  0  0  0
  183.8950  179.6790  140.1430 N   0  0  0  0  0  0  0  0  0  0  0  0
  182.7820  179.0030  140.0610 C   0  0  0  0  0  0  0  0  0  0  0  0
  181.4760  177.0020  139.7960 N   0  0  0  0  0  0  0  0  0  0  0  0
  181.5910  179.7190  140.1560 C   0  0  0  0  0  2  0  0  0  0  0  0
  187.3630  174.9530  136.9920 C   0  0  0  0  0  1  0  0  0  0  0  0
  187.5730  176.4500  137.1560 C   0  0  2  0  0  3  0  0  0  0  0  0
  187.8020  177.1210  135.8110 C   0  0  0  0  0  2  0  0  0  0  0  0
  188.2150  178.4270  135.9960 F   0  0  0  0  0  0  0  0  0  0  0  0
  1 17  1  0  0  0  0
  1 22  2  0  0  0  0
  2 18  2  0  0  0  0
  3  1  1  0  0  0  0
  4  3  1  0  0  0  0
  4 20  2  0  0  0  0
  5  6  1  0  0  0  0
  5  9  1  0  0  0  0
  6  8  1  0  0  0  0
  8  7  2  0  0  0  0
  8 19  1  0  0  0  0
 10  9  2  0  0  0  0
 12 18  1  0  0  0  0
 12  6  1  0  0  0  0
 13  4  1  0  0  0  0
 14 13  1  0  0  0  0
 14 23  1  0  0  0  0
 15 16  1  0  0  0  0
 15  5  2  0  0  0  0
 16 10  1  0  0  0  0
 17 12  2  0  0  0  0
 20 11  1  0  0  0  0
 20 22  1  0  0  0  0
 21 17  1  0  0  0  0
 21  2  1  0  0  0  0
 22 15  1  0  0  0  0
 23 11  2  0  0  0  0
 24 32  1  0  0  0  0
 25 31  1  0  0  0  0
 26 30  1  0  0  0  0
 27 26  2  0  0  0  0
 28 24  2  0  0  0  0
 29  2  1  0  0  0  0
 30 29  2  0  0  0  0
 30 32  1  0  0  0  0
 31 26  1  0  0  0  0
 31 28  1  0  0  0  0
 34 33  1  6  0  0  0
 34  3  1  0  0  0  0
 35 36  1  0  0  0  0
 35 34  1  0  0  0  0
M  END
>  <MODEL>
6

>  <REMARK>
 VINA RESULT:      -6.4      2.790      7.340
  Name = 
  3 active torsions:
  status: ('A' for Active; 'I' for Inactive)
    1  A    between atoms: C_3  and  N_23
    2  A    between atoms: N_6  and  C_31
    3  A    between atoms: C_20  and  C_31
                            x       y       z     vdW  Elec       q    Type
                         _______ _______ _______ _____ _____    ______ ____

>  <TORSDO>
F 3

$$$$
=
 OpenBabel11042411323D

 36 41  0  0  1  0  0  0  0  0999 V2000
  185.1570  175.7730  137.1830 C   0  0  0  0  0  0  0  0  0  0  0  0
  181.9980  177.9780  138.1030 C   0  0  0  0  0  0  0  0  0  0  0  0
  186.3690  176.3890  137.1410 N   0  0  0  0  0  0  0  0  0  0  0  0
  187.2930  175.4080  137.0350 C   0  0  0  0  0  0  0  0  0  0  0  0
  182.9570  173.5380  136.7690 C   0  0  0  0  0  0  0  0  0  0  0  0
  182.3230  174.7570  136.3450 N   0  0  0  0  0  0  0  0  0  0  0  0
  180.7910  175.7870  134.8880 O   0  0  0  0  0  0  0  0  0  0  0  0
  181.3540  174.7270  135.2720 C   0  0  0  0  0  0  0  0  0  0  0  0
  182.3340  172.3450  136.8320 N   0  0  0  0  0  0  0  0  0  0  0  0
  183.3180  171.4870  137.1860 C   0  0  0  0  0  3  0  0  0  0  0  0
  187.4480  172.9450  136.7910 C   0  0  0  0  0  3  0  0  0  0  0  0
  182.5820  175.9870  137.0540 C   0  0  0  0  0  0  0  0  0  0  0  0
  188.7640  175.5650  136.7800 C   0  0  0  0  0  2  0  0  0  0  0  0
  189.5130  174.2880  137.2100 C   0  0  0  0  0  2  0  0  0  0  0  0
  184.2830  173.3710  137.0730 C   0  0  0  0  0  0  0  0  0  0  0  0
  184.4760  172.1010  137.3230 O   0  0  0  0  0  0  0  0  0  0  0  0
  183.8600  176.4540  137.4010 C   0  0  0  0  0  0  0  0  0  0  0  0
  181.5430  176.8630  137.4210 C   0  0  0  0  0  3  0  0  0  0  0  0
  181.0540  173.5090  134.5940 N   0  0  0  0  0  1  0  0  0  0  0  0
  186.6870  174.1830  136.9980 C   0  0  0  0  0  0  0  0  0  0  0  0
  183.6770  177.9460  138.1630 S   0  0  0  0  0  0  0  0  0  0  0  0
  185.3270  174.3960  137.0820 C   0  0  0  0  0  0  0  0  0  0  0  0
  188.7850  173.0070  136.8420 C   0  0  0  0  0  3  0  0  0  0  0  0
  179.6440  181.2530  140.8330 C   0  0  0  0  0  3  0  0  0  0  0  0
  180.5780  178.6280  143.2100 C   0  0  0  0  0  1  0  0  0  0  0  0
  180.8960  178.7960  140.7830 C   0  0  0  0  0  0  0  0  0  0  0  0
  181.3910  177.6360  140.7920 O   0  0  0  0  0  0  0  0  0  0  0  0
  179.8320  180.5330  141.9650 N   0  0  0  0  0  0  0  0  0  0  0  0
  181.1810  179.1140  138.4100 N   0  0  0  0  0  0  0  0  0  0  0  0
  180.7630  179.5270  139.5760 C   0  0  0  0  0  0  0  0  0  0  0  0
  180.4370  179.3440  141.9500 N   0  0  0  0  0  0  0  0  0  0  0  0
  180.1050  180.7540  139.6210 C   0  0  0  0  0  2  0  0  0  0  0  0
  187.1500  178.2560  135.7500 C   0  0  0  0  0  1  0  0  0  0  0  0
  186.6160  177.8310  137.1080 C   0  0  2  0  0  3  0  0  0  0  0  0
  187.5630  178.2480  138.2220 C   0  0  0  0  0  2  0  0  0  0  0  0
  186.8980  178.2530  139.4340 F   0  0  0  0  0  0  0  0  0  0  0  0
  1 17  1  0  0  0  0
  2 21  1  0  0  0  0
  2 29  1  0  0  0  0
  3  1  1  0  0  0  0
  4  3  1  0  0  0  0
  5  9  1  0  0  0  0
  5 15  2  0  0  0  0
  6  5  1  0  0  0  0
  6 12  1  0  0  0  0
  7  8  2  0  0  0  0
  8  6  1  0  0  0  0
  9 10  2  0  0  0  0
 10 16  1  0  0  0  0
 11 23  2  0  0  0  0
 11 20  1  0  0  0  0
 12 17  2  0  0  0  0
 12 18  1  0  0  0  0
 13  4  1  0  0  0  0
 13 14  1  0  0  0  0
 15 22  1  0  0  0  0
 15 16  1  0  0  0  0
 17 21  1  0  0  0  0
 18  2  2  0  0  0  0
 19  8  1  0  0  0  0
 20  4  2  0  0  0  0
 20 22  1  0  0  0  0
 22  1  2  0  0  0  0
 23 14  1  0  0  0  0
 24 28  2  0  0  0  0
 26 27  2  0  0  0  0
 26 31  1  0  0  0  0
 29 30  2  0  0  0  0
 30 32  1  0  0  0  0
 30 26  1  0  0  0  0
 31 28  1  0  0  0  0
 31 25  1  0  0  0  0
 32 24  1  0  0  0  0
 34 33  1  6  0  0  0
 34  3  1  0  0  0  0
 34 35  1  0  0  0  0
 35 36  1  0  0  0  0
M  END
>  <MODEL>
7

>  <REMARK>
 VINA RESULT:      -6.4      4.077      8.057
  Name = 
  3 active torsions:
  status: ('A' for Active; 'I' for Inactive)
    1  A    between atoms: C_3  and  N_23
    2  A    between atoms: N_6  and  C_31
    3  A    between atoms: C_20  and  C_31
                            x       y       z     vdW  Elec       q    Type
                         _______ _______ _______ _____ _____    ______ ____

>  <TORSDO>
F 3

$$$$
=
 OpenBabel11042411323D

 36 41  0  0  1  0  0  0  0  0999 V2000
  184.2510  178.7580  140.1870 C   0  0  0  0  0  0  0  0  0  0  0  0
  181.2340  180.1470  138.0270 C   0  0  0  0  0  0  0  0  0  0  0  0
  185.4180  178.4890  139.5430 N   0  0  0  0  0  0  0  0  0  0  0  0
  186.3380  178.2530  140.5050 C   0  0  0  0  0  0  0  0  0  0  0  0
  182.0790  178.7980  142.4860 C   0  0  0  0  0  0  0  0  0  0  0  0
  181.3450  178.4540  141.2980 N   0  0  0  0  0  0  0  0  0  0  0  0
  179.5560  177.2560  140.3550 O   0  0  0  0  0  0  0  0  0  0  0  0
  180.2080  177.5670  141.3870 C   0  0  0  0  0  0  0  0  0  0  0  0
  181.5120  179.0030  143.6910 N   0  0  0  0  0  0  0  0  0  0  0  0
  182.5660  179.2060  144.5120 C   0  0  0  0  0  3  0  0  0  0  0  0
  186.5220  178.0590  142.9700 C   0  0  0  0  0  3  0  0  0  0  0  0
  181.6870  179.0710  140.0380 C   0  0  0  0  0  0  0  0  0  0  0  0
  187.7380  177.7420  140.3210 C   0  0  0  0  0  2  0  0  0  0  0  0
  188.5880  178.0740  141.5660 C   0  0  0  0  0  2  0  0  0  0  0  0
  183.4410  178.8720  142.6110 C   0  0  0  0  0  0  0  0  0  0  0  0
  183.7120  179.1230  143.8670 O   0  0  0  0  0  0  0  0  0  0  0  0
  182.9910  179.1770  139.5300 C   0  0  0  0  0  0  0  0  0  0  0  0
  180.7020  179.5870  139.1760 C   0  0  0  0  0  3  0  0  0  0  0  0
  179.8310  176.9870  142.6340 N   0  0  0  0  0  1  0  0  0  0  0  0
  185.7720  178.3580  141.7450 C   0  0  0  0  0  0  0  0  0  0  0  0
  182.8990  179.9160  138.0170 S   0  0  0  0  0  0  0  0  0  0  0  0
  184.4410  178.6700  141.5620 C   0  0  0  0  0  0  0  0  0  0  0  0
  187.8450  177.8750  142.8750 C   0  0  0  0  0  3  0  0  0  0  0  0
  179.4470  183.1010  134.5940 C   0  0  0  0  0  3  0  0  0  0  0  0
  181.1320  185.3700  136.9220 C   0  0  0  0  0  1  0  0  0  0  0  0
  180.8050  182.9400  136.9890 C   0  0  0  0  0  0  0  0  0  0  0  0
  181.3620  182.9200  138.1200 O   0  0  0  0  0  0  0  0  0  0  0  0
  179.9660  184.2030  135.1870 N   0  0  0  0  0  0  0  0  0  0  0  0
  180.4490  180.5560  136.9020 N   0  0  0  0  0  2  0  0  0  0  0  0
  180.3170  181.7510  136.3900 C   0  0  0  0  0  0  0  0  0  0  0  0
  180.6260  184.1340  136.3450 N   0  0  0  0  0  0  0  0  0  0  0  0
  179.6130  181.8590  135.1940 C   0  0  0  0  0  3  0  0  0  0  0  0
  185.1530  177.0100  137.6000 C   0  0  0  0  0  1  0  0  0  0  0  0
  185.6130  178.3710  138.0980 C   0  0  2  0  0  3  0  0  0  0  0  0
  187.0640  178.6290  137.7210 C   0  0  0  0  0  2  0  0  0  0  0  0
  187.1450  179.0530  136.4070 F   0  0  0  0  0  0  0  0  0  0  0  0
  1 22  2  0  0  0  0
  2 18  2  0  0  0  0
  3  1  1  0  0  0  0
  3  4  1  0  0  0  0
  4 20  2  0  0  0  0
  5 15  2  0  0  0  0
  5  9  1  0  0  0  0
  6  8  1  0  0  0  0
  6  5  1  0  0  0  0
  7  8  2  0  0  0  0
  8 19  1  0  0  0  0
  9 10  2  0  0  0  0
 12  6  1  0  0  0  0
 13  4  1  0  0  0  0
 13 14  1  0  0  0  0
 14 23  1  0  0  0  0
 15 16  1  0  0  0  0
 16 10  1  0  0  0  0
 17 12  2  0  0  0  0
 17  1  1  0  0  0  0
 18 12  1  0  0  0  0
 20 11  1  0  0  0  0
 21  2  1  0  0  0  0
 21 17  1  0  0  0  0
 22 20  1  0  0  0  0
 22 15  1  0  0  0  0
 23 11  2  0  0  0  0
 24 28  2  0  0  0  0
 24 32  1  0  0  0  0
 26 27  2  0  0  0  0
 28 31  1  0  0  0  0
 29  2  1  0  0  0  0
 30 29  1  0  0  0  0
 30 26  1  0  0  0  0
 31 25  1  0  0  0  0
 31 26  1  0  0  0  0
 32 30  2  0  0  0  0
 34 33  1  1  0  0  0
 34  3  1  0  0  0  0
 35 34  1  0  0  0  0
 36 35  1  0  0  0  0
M  END
>  <MODEL>
8

>  <REMARK>
 VINA RESULT:      -6.0      4.357      6.460
  Name = 
  3 active torsions:
  status: ('A' for Active; 'I' for Inactive)
    1  A    between atoms: C_3  and  N_23
    2  A    between atoms: N_6  and  C_31
    3  A    between atoms: C_20  and  C_31
                            x       y       z     vdW  Elec       q    Type
                         _______ _______ _______ _____ _____    ______ ____

>  <TORSDO>
F 3

$$$$
=
 OpenBabel11042411323D

 36 41  0  0  1  0  0  0  0  0999 V2000
  189.2560  176.9250  138.6350 C   0  0  0  0  0  0  0  0  0  0  0  0
  186.7680  178.6300  141.2020 C   0  0  0  0  0  0  0  0  0  0  0  0
  188.7540  176.5310  137.4340 N   0  0  0  0  0  0  0  0  0  0  0  0
  189.8160  176.1970  136.6670 C   0  0  0  0  0  0  0  0  0  0  0  0
  191.2800  177.2030  141.0500 C   0  0  0  0  0  0  0  0  0  0  0  0
  190.0080  176.9390  141.6680 N   0  0  0  0  0  0  0  0  0  0  0  0
  188.8430  175.9410  143.4500 O   0  0  0  0  0  0  0  0  0  0  0  0
  189.9500  176.1800  142.8970 C   0  0  0  0  0  0  0  0  0  0  0  0
  192.4100  177.4690  141.7330 N   0  0  0  0  0  0  0  0  0  0  0  0
  193.3540  177.5570  140.7690 C   0  0  0  0  0  3  0  0  0  0  0  0
  192.2830  175.9870  136.8030 C   0  0  0  0  0  3  0  0  0  0  0  0
  188.8060  177.5140  141.1130 C   0  0  0  0  0  0  0  0  0  0  0  0
  189.7950  175.5380  135.3180 C   0  0  0  0  0  2  0  0  0  0  0  0
  191.1360  175.7770  134.5940 C   0  0  0  0  0  2  0  0  0  0  0  0
  191.5680  177.1280  139.7130 C   0  0  0  0  0  0  0  0  0  0  0  0
  192.8500  177.3500  139.5690 O   0  0  0  0  0  0  0  0  0  0  0  0
  188.4590  177.4780  139.7540 C   0  0  0  0  0  0  0  0  0  0  0  0
  187.8380  178.1330  141.9260 C   0  0  0  0  0  3  0  0  0  0  0  0
  191.1360  175.6460  143.4820 N   0  0  0  0  0  1  0  0  0  0  0  0
  190.9810  176.3640  137.3640 C   0  0  0  0  0  0  0  0  0  0  0  0
  186.9550  178.2200  139.5830 S   0  0  0  0  0  0  0  0  0  0  0  0
  190.6430  176.8190  138.6210 C   0  0  0  0  0  0  0  0  0  0  0  0
  192.3450  175.6600  135.5060 C   0  0  0  0  0  3  0  0  0  0  0  0
  183.5760  179.7230  144.7140 C   0  0  0  0  0  3  0  0  0  0  0  0
  186.0150  177.5560  146.3780 C   0  0  0  0  0  1  0  0  0  0  0  0
  185.8360  178.2890  144.0440 C   0  0  0  0  0  0  0  0  0  0  0  0
  186.8240  177.5580  143.7640 O   0  0  0  0  0  0  0  0  0  0  0  0
  184.2610  179.0080  145.6400 N   0  0  0  0  0  0  0  0  0  0  0  0
  185.5620  179.1220  141.7980 N   0  0  0  0  0  0  0  0  0  0  0  0
  185.1810  179.0530  143.0450 C   0  0  0  0  0  0  0  0  0  0  0  0
  185.3550  178.3120  145.3250 N   0  0  0  0  0  0  0  0  0  0  0  0
  184.0290  179.7490  143.4010 C   0  0  0  0  0  2  0  0  0  0  0  0
  186.9760  174.9290  136.8830 C   0  0  0  0  0  1  0  0  0  0  0  0
  187.3410  176.3910  137.0800 C   0  0  2  0  0  3  0  0  0  0  0  0
  187.0050  177.2100  135.8430 C   0  0  0  0  0  2  0  0  0  0  0  0
  186.3670  178.3800  136.2080 F   0  0  0  0  0  0  0  0  0  0  0  0
  1 17  1  0  0  0  0
  2 29  1  0  0  0  0
  2 18  2  0  0  0  0
  3  1  1  0  0  0  0
  4 20  2  0  0  0  0
  4  3  1  0  0  0  0
  5  6  1  0  0  0  0
  5  9  1  0  0  0  0
  6  8  1  0  0  0  0
  8  7  2  0  0  0  0
  8 19  1  0  0  0  0
 10  9  2  0  0  0  0
 11 20  1  0  0  0  0
 12  6  1  0  0  0  0
 12 18  1  0  0  0  0
 13  4  1  0  0  0  0
 14 13  1  0  0  0  0
 14 23  1  0  0  0  0
 15  5  2  0  0  0  0
 16 15  1  0  0  0  0
 16 10  1  0  0  0  0
 17 12  2  0  0  0  0
 20 22  1  0  0  0  0
 21 17  1  0  0  0  0
 21  2  1  0  0  0  0
 22  1  2  0  0  0  0
 22 15  1  0  0  0  0
 23 11  2  0  0  0  0
 24 28  2  0  0  0  0
 26 31  1  0  0  0  0
 27 26  2  0  0  0  0
 29 30  2  0  0  0  0
 30 32  1  0  0  0  0
 30 26  1  0  0  0  0
 31 28  1  0  0  0  0
 31 25  1  0  0  0  0
 32 24  1  0  0  0  0
 34 33  1  6  0  0  0
 34  3  1  0  0  0  0
 35 36  1  0  0  0  0
 35 34  1  0  0  0  0
M  END
>  <MODEL>
9

>  <REMARK>
 VINA RESULT:      -5.8      3.312      8.705
  Name = 
  3 active torsions:
  status: ('A' for Active; 'I' for Inactive)
    1  A    between atoms: C_3  and  N_23
    2  A    between atoms: N_6  and  C_31
    3  A    between atoms: C_20  and  C_31
                            x       y       z     vdW  Elec       q    Type
                         _______ _______ _______ _____ _____    ______ ____

>  <TORSDO>
F 3

$$$$
