=
 OpenBabel11032419503D

 27 30  0  0  1  0  0  0  0  0999 V2000
  190.5690  177.8370  143.5050 C   0  0  2  0  0  3  0  0  0  0  0  0
  188.6660  177.6410  142.1870 N   0  0  0  0  0  0  0  0  0  0  0  0
  188.2740  178.0580  143.4910 C   0  0  2  0  0  3  0  0  0  0  0  0
  190.2950  177.3000  146.3210 C   0  0  0  0  0  3  0  0  0  0  0  0
  191.2590  176.5170  145.4960 C   0  0  0  0  0  0  0  0  0  0  0  0
  191.3290  176.7160  144.1650 C   0  0  0  0  0  3  0  0  0  0  0  0
  189.3400  178.1470  144.2860 C   0  0  1  0  0  3  0  0  0  0  0  0
  189.3560  178.0640  145.7520 C   0  0  0  0  0  3  0  0  0  0  0  0
  189.9490  177.4710  142.1950 C   0  0  0  0  0  0  0  0  0  0  0  0
  183.4840  178.4980  142.1820 C   0  0  0  0  0  1  0  0  0  0  0  0
  186.4680  178.2310  145.2370 C   0  0  0  0  0  3  0  0  0  0  0  0
  186.8530  178.1780  143.8890 C   0  0  0  0  0  0  0  0  0  0  0  0
  184.1460  178.4480  144.5890 C   0  0  0  0  0  3  0  0  0  0  0  0
  184.5190  178.4030  143.2450 C   0  0  0  0  0  0  0  0  0  0  0  0
  185.1210  178.3630  145.5870 C   0  0  0  0  0  0  0  0  0  0  0  0
  184.7520  178.4090  146.9240 O   0  0  0  0  0  1  0  0  0  0  0  0
  185.8670  178.2720  142.8970 C   0  0  0  0  0  3  0  0  0  0  0  0
  192.2210  176.7600  139.3770 C   0  0  0  0  0  0  0  0  0  0  0  0
  190.2150  176.2690  140.1020 N   0  0  0  0  0  0  0  0  0  0  0  0
  191.1630  176.0800  139.0940 N   0  0  0  0  0  0  0  0  0  0  0  0
  190.6960  177.0660  140.9970 C   0  0  0  0  0  0  0  0  0  0  0  0
  192.0800  177.5080  140.6610 C   0  0  0  0  0  2  0  0  0  0  0  0
  193.2750  176.3520  137.1970 C   0  0  0  0  0  1  0  0  0  0  0  0
  193.3430  176.7690  138.5510 O   0  0  0  0  0  0  0  0  0  0  0  0
  192.0830  175.4750  146.1310 C   0  0  0  0  0  0  0  0  0  0  0  0
  192.4560  175.5790  147.5030 N   0  0  0  0  0  1  0  0  0  0  0  0
  192.4640  174.4750  145.4660 O   0  0  0  0  0  0  0  0  0  0  0  0
  1  6  1  1  0  0  0
  1  7  1  0  0  0  0
  2  9  2  0  0  0  0
  2  3  1  0  0  0  0
  3 12  1  1  0  0  0
  3  7  1  0  0  0  0
  5 25  1  0  0  0  0
  5  4  1  0  0  0  0
  6  5  2  0  0  0  0
  7  8  1  1  0  0  0
  8  4  2  0  0  0  0
  9  1  1  0  0  0  0
 10 14  1  0  0  0  0
 11 15  1  0  0  0  0
 12 11  2  0  0  0  0
 13 15  2  0  0  0  0
 14 13  1  0  0  0  0
 15 16  1  0  0  0  0
 17 14  2  0  0  0  0
 17 12  1  0  0  0  0
 18 22  1  0  0  0  0
 19 21  2  0  0  0  0
 20 18  2  0  0  0  0
 20 19  1  0  0  0  0
 21  9  1  0  0  0  0
 22 21  1  0  0  0  0
 23 24  1  0  0  0  0
 24 18  1  0  0  0  0
 25 26  1  0  0  0  0
 27 25  2  0  0  0  0
M  END
>  <MODEL>
1

>  <REMARK>
 VINA RESULT:      -9.4      0.000      0.000
  Name = 
  4 active torsions:
  status: ('A' for Active; 'I' for Inactive)
    1  A    between atoms: C_4  and  O_13
    2  A    between atoms: C_5  and  C_16
    3  A    between atoms: C_6  and  C_11
    4  A    between atoms: C_21  and  C_26
                            x       y       z     vdW  Elec       q    Type
                         _______ _______ _______ _____ _____    ______ ____

>  <TORSDO>
F 4

$$$$
=
 OpenBabel11032419503D

 27 30  0  0  1  0  0  0  0  0999 V2000
  188.3540  178.5970  141.3180 C   0  0  2  0  0  3  0  0  0  0  0  0
  187.2150  178.1670  143.2970 N   0  0  0  0  0  0  0  0  0  0  0  0
  188.6130  178.0500  143.5430 C   0  0  2  0  0  3  0  0  0  0  0  0
  190.8560  177.2340  140.9040 C   0  0  0  0  0  3  0  0  0  0  0  0
  189.7420  177.0740  139.9270 C   0  0  0  0  0  0  0  0  0  0  0  0
  188.5460  177.6490  140.1630 C   0  0  0  0  0  3  0  0  0  0  0  0
  189.2970  178.2560  142.4190 C   0  0  1  0  0  3  0  0  0  0  0  0
  190.6500  177.7760  142.1100 C   0  0  0  0  0  3  0  0  0  0  0  0
  187.0560  178.4320  142.0400 C   0  0  0  0  0  0  0  0  0  0  0  0
  188.0530  177.5180  148.4680 C   0  0  0  0  0  1  0  0  0  0  0  0
  190.4230  176.9990  144.9440 C   0  0  0  0  0  3  0  0  0  0  0  0
  189.1510  177.5830  144.8410 C   0  0  0  0  0  0  0  0  0  0  0  0
  190.1400  176.7490  147.3340 C   0  0  0  0  0  3  0  0  0  0  0  0
  188.8760  177.3350  147.2450 C   0  0  0  0  0  0  0  0  0  0  0  0
  190.9150  176.5820  146.1840 C   0  0  0  0  0  0  0  0  0  0  0  0
  192.1730  176.0010  146.2720 O   0  0  0  0  0  1  0  0  0  0  0  0
  188.3860  177.7530  146.0030 C   0  0  0  0  0  3  0  0  0  0  0  0
  183.5430  178.6570  140.9380 C   0  0  0  0  0  0  0  0  0  0  0  0
  185.5390  179.3700  140.3930 N   0  0  0  0  0  0  0  0  0  0  0  0
  184.1790  179.3760  140.0770 N   0  0  0  0  0  0  0  0  0  0  0  0
  185.7310  178.6460  141.4440 C   0  0  0  0  0  0  0  0  0  0  0  0
  184.4560  178.0700  141.9620 C   0  0  0  0  0  2  0  0  0  0  0  0
  181.3040  178.9690  141.8980 C   0  0  0  0  0  1  0  0  0  0  0  0
  182.1620  178.4750  140.8820 O   0  0  0  0  0  0  0  0  0  0  0  0
  189.9300  176.2240  138.7390 C   0  0  0  0  0  0  0  0  0  0  0  0
  189.0470  176.3270  137.6250 N   0  0  0  0  0  1  0  0  0  0  0  0
  190.8790  175.3960  138.6960 O   0  0  0  0  0  0  0  0  0  0  0  0
  1  6  1  6  0  0  0
  1  9  1  0  0  0  0
  1  7  1  0  0  0  0
  2  3  1  0  0  0  0
  3 12  1  6  0  0  0
  4  8  2  0  0  0  0
  5  6  2  0  0  0  0
  5  4  1  0  0  0  0
  7  8  1  6  0  0  0
  7  3  1  0  0  0  0
  9  2  2  0  0  0  0
 11 15  1  0  0  0  0
 12 11  2  0  0  0  0
 12 17  1  0  0  0  0
 14 13  1  0  0  0  0
 14 10  1  0  0  0  0
 15 16  1  0  0  0  0
 15 13  2  0  0  0  0
 17 14  2  0  0  0  0
 18 22  1  0  0  0  0
 19 21  2  0  0  0  0
 20 19  1  0  0  0  0
 20 18  2  0  0  0  0
 21 22  1  0  0  0  0
 21  9  1  0  0  0  0
 24 18  1  0  0  0  0
 24 23  1  0  0  0  0
 25  5  1  0  0  0  0
 26 25  1  0  0  0  0
 27 25  2  0  0  0  0
M  END
>  <MODEL>
2

>  <REMARK>
 VINA RESULT:      -9.3      2.617      6.660
  Name = 
  4 active torsions:
  status: ('A' for Active; 'I' for Inactive)
    1  A    between atoms: C_4  and  O_13
    2  A    between atoms: C_5  and  C_16
    3  A    between atoms: C_6  and  C_11
    4  A    between atoms: C_21  and  C_26
                            x       y       z     vdW  Elec       q    Type
                         _______ _______ _______ _____ _____    ______ ____

>  <TORSDO>
F 4

$$$$
=
 OpenBabel11032419503D

 27 30  0  0  1  0  0  0  0  0999 V2000
  188.2560  178.6350  141.3560 C   0  0  2  0  0  3  0  0  0  0  0  0
  187.0400  178.2090  143.2890 N   0  0  0  0  0  0  0  0  0  0  0  0
  188.4270  178.0910  143.5900 C   0  0  2  0  0  3  0  0  0  0  0  0
  190.7720  177.2690  141.0420 C   0  0  0  0  0  3  0  0  0  0  0  0
  189.6960  177.1080  140.0230 C   0  0  0  0  0  0  0  0  0  0  0  0
  188.4930  177.6840  140.2110 C   0  0  0  0  0  3  0  0  0  0  0  0
  189.1550  178.2950  142.4930 C   0  0  1  0  0  3  0  0  0  0  0  0
  190.5190  177.8140  142.2380 C   0  0  0  0  0  3  0  0  0  0  0  0
  186.9300  178.4710  142.0260 C   0  0  0  0  0  0  0  0  0  0  0  0
  192.0400  176.0320  146.3400 C   0  0  0  0  0  1  0  0  0  0  0  0
  188.1080  177.6980  146.0560 C   0  0  0  0  0  3  0  0  0  0  0  0
  188.9130  177.6260  144.9090 C   0  0  0  0  0  0  0  0  0  0  0  0
  189.8680  176.6940  147.3800 C   0  0  0  0  0  3  0  0  0  0  0  0
  190.6740  176.6120  146.2430 C   0  0  0  0  0  0  0  0  0  0  0  0
  188.5840  177.2360  147.2870 C   0  0  0  0  0  0  0  0  0  0  0  0
  187.7810  177.3170  148.4160 O   0  0  0  0  0  1  0  0  0  0  0  0
  190.1970  177.0740  145.0120 C   0  0  0  0  0  3  0  0  0  0  0  0
  183.4620  178.7030  140.7900 C   0  0  0  0  0  0  0  0  0  0  0  0
  185.4820  179.3940  140.3100 N   0  0  0  0  0  0  0  0  0  0  0  0
  184.1340  179.4040  139.9440 N   0  0  0  0  0  0  0  0  0  0  0  0
  185.6300  178.6850  141.3780 C   0  0  0  0  0  0  0  0  0  0  0  0
  184.3320  178.1250  141.8570 C   0  0  0  0  0  2  0  0  0  0  0  0
  181.2060  178.8780  141.7450 C   0  0  0  0  0  1  0  0  0  0  0  0
  182.0830  178.5280  140.6860 O   0  0  0  0  0  0  0  0  0  0  0  0
  189.9310  176.2560  138.8450 C   0  0  0  0  0  0  0  0  0  0  0  0
  189.0400  176.2930  137.7320 N   0  0  0  0  0  1  0  0  0  0  0  0
  190.9260  175.4840  138.8090 O   0  0  0  0  0  0  0  0  0  0  0  0
  1  6  1  6  0  0  0
  1  9  1  0  0  0  0
  1  7  1  0  0  0  0
  2  3  1  0  0  0  0
  3 12  1  6  0  0  0
  4  8  2  0  0  0  0
  5  6  2  0  0  0  0
  5  4  1  0  0  0  0
  7  8  1  6  0  0  0
  7  3  1  0  0  0  0
  9  2  2  0  0  0  0
 11 15  1  0  0  0  0
 12 17  1  0  0  0  0
 12 11  2  0  0  0  0
 14 10  1  0  0  0  0
 14 13  1  0  0  0  0
 15 13  2  0  0  0  0
 15 16  1  0  0  0  0
 17 14  2  0  0  0  0
 18 22  1  0  0  0  0
 19 21  2  0  0  0  0
 20 19  1  0  0  0  0
 20 18  2  0  0  0  0
 21 22  1  0  0  0  0
 21  9  1  0  0  0  0
 24 18  1  0  0  0  0
 24 23  1  0  0  0  0
 25  5  1  0  0  0  0
 26 25  1  0  0  0  0
 27 25  2  0  0  0  0
M  END
>  <MODEL>
3

>  <REMARK>
 VINA RESULT:      -9.0      2.638      6.575
  Name = 
  4 active torsions:
  status: ('A' for Active; 'I' for Inactive)
    1  A    between atoms: C_4  and  O_13
    2  A    between atoms: C_5  and  C_16
    3  A    between atoms: C_6  and  C_11
    4  A    between atoms: C_21  and  C_26
                            x       y       z     vdW  Elec       q    Type
                         _______ _______ _______ _____ _____    ______ ____

>  <TORSDO>
F 4

$$$$
=
 OpenBabel11032419503D

 27 30  0  0  1  0  0  0  0  0999 V2000
  188.9810  176.5620  142.0960 C   0  0  2  0  0  3  0  0  0  0  0  0
  190.9990  176.8770  143.2050 N   0  0  0  0  0  0  0  0  0  0  0  0
  189.9660  176.7260  144.1740 C   0  0  2  0  0  3  0  0  0  0  0  0
  186.5960  177.5440  143.3750 C   0  0  0  0  0  3  0  0  0  0  0  0
  186.9730  178.0260  142.0160 C   0  0  0  0  0  0  0  0  0  0  0  0
  188.1300  177.6260  141.4530 C   0  0  0  0  0  3  0  0  0  0  0  0
  188.7870  176.5790  143.5720 C   0  0  1  0  0  3  0  0  0  0  0  0
  187.4650  176.8720  144.1390 C   0  0  0  0  0  3  0  0  0  0  0  0
  190.4510  176.8300  142.0330 C   0  0  0  0  0  0  0  0  0  0  0  0
  188.3520  178.2630  148.6340 C   0  0  0  0  0  1  0  0  0  0  0  0
  191.4330  176.5440  146.2130 C   0  0  0  0  0  3  0  0  0  0  0  0
  190.2110  176.9030  145.6240 C   0  0  0  0  0  0  0  0  0  0  0  0
  190.6390  177.2960  148.3720 C   0  0  0  0  0  3  0  0  0  0  0  0
  189.4220  177.6640  147.7950 C   0  0  0  0  0  0  0  0  0  0  0  0
  191.6460  176.7360  147.5810 C   0  0  0  0  0  0  0  0  0  0  0  0
  192.8570  176.3720  148.1530 O   0  0  0  0  0  1  0  0  0  0  0  0
  189.2110  177.4710  146.4260 C   0  0  0  0  0  3  0  0  0  0  0  0
  192.0130  176.8060  138.6920 C   0  0  0  0  0  0  0  0  0  0  0  0
  192.3880  177.5020  140.7320 N   0  0  0  0  0  0  0  0  0  0  0  0
  192.8720  177.4270  139.4250 N   0  0  0  0  0  0  0  0  0  0  0  0
  191.2340  176.9250  140.7950 C   0  0  0  0  0  0  0  0  0  0  0  0
  190.8120  176.3830  139.4710 C   0  0  0  0  0  2  0  0  0  0  0  0
  193.4730  176.1300  136.8360 C   0  0  0  0  0  1  0  0  0  0  0  0
  192.2210  176.5770  137.3330 O   0  0  0  0  0  0  0  0  0  0  0  0
  186.1120  178.9990  141.3230 C   0  0  0  0  0  0  0  0  0  0  0  0
  186.0060  178.9920  139.9020 N   0  0  0  0  0  1  0  0  0  0  0  0
  185.4560  179.8490  141.9830 O   0  0  0  0  0  0  0  0  0  0  0  0
  1  6  1  6  0  0  0
  1  7  1  0  0  0  0
  2  3  1  0  0  0  0
  3 12  1  1  0  0  0
  4  8  2  0  0  0  0
  5  4  1  0  0  0  0
  6  5  2  0  0  0  0
  7  8  1  6  0  0  0
  7  3  1  0  0  0  0
  9  1  1  0  0  0  0
  9  2  2  0  0  0  0
 11 15  1  0  0  0  0
 12 11  2  0  0  0  0
 12 17  1  0  0  0  0
 14 13  1  0  0  0  0
 14 10  1  0  0  0  0
 15 16  1  0  0  0  0
 15 13  2  0  0  0  0
 17 14  2  0  0  0  0
 18 20  2  0  0  0  0
 18 22  1  0  0  0  0
 19 21  2  0  0  0  0
 20 19  1  0  0  0  0
 21  9  1  0  0  0  0
 22 21  1  0  0  0  0
 23 24  1  0  0  0  0
 24 18  1  0  0  0  0
 25 27  2  0  0  0  0
 25  5  1  0  0  0  0
 26 25  1  0  0  0  0
M  END
>  <MODEL>
4

>  <REMARK>
 VINA RESULT:      -8.9      2.209      5.281
  Name = 
  4 active torsions:
  status: ('A' for Active; 'I' for Inactive)
    1  A    between atoms: C_4  and  O_13
    2  A    between atoms: C_5  and  C_16
    3  A    between atoms: C_6  and  C_11
    4  A    between atoms: C_21  and  C_26
                            x       y       z     vdW  Elec       q    Type
                         _______ _______ _______ _____ _____    ______ ____

>  <TORSDO>
F 4

$$$$
=
 OpenBabel11032419503D

 27 30  0  0  1  0  0  0  0  0999 V2000
  187.8380  176.6320  143.8320 C   0  0  2  0  0  3  0  0  0  0  0  0
  187.1330  177.9420  142.0470 N   0  0  0  0  0  0  0  0  0  0  0  0
  188.3010  177.2270  141.6530 C   0  0  2  0  0  3  0  0  0  0  0  0
  190.6640  176.1350  144.0800 C   0  0  0  0  0  3  0  0  0  0  0  0
  189.9150  176.7920  145.1890 C   0  0  0  0  0  0  0  0  0  0  0  0
  188.6110  177.0940  145.0400 C   0  0  0  0  0  3  0  0  0  0  0  0
  188.7540  176.4910  142.6660 C   0  0  1  0  0  3  0  0  0  0  0  0
  190.1270  176.0080  142.8610 C   0  0  0  0  0  3  0  0  0  0  0  0
  186.8890  177.6490  143.2840 C   0  0  0  0  0  0  0  0  0  0  0  0
  191.9090  176.0480  138.4210 C   0  0  0  0  0  1  0  0  0  0  0  0
  188.5310  178.4570  139.4680 C   0  0  0  0  0  3  0  0  0  0  0  0
  188.9660  177.4570  140.3500 C   0  0  0  0  0  0  0  0  0  0  0  0
  190.2890  177.8780  137.9090 C   0  0  0  0  0  3  0  0  0  0  0  0
  190.7340  176.8840  138.7820 C   0  0  0  0  0  0  0  0  0  0  0  0
  189.1870  178.6660  138.2520 C   0  0  0  0  0  0  0  0  0  0  0  0
  188.7440  179.6560  137.3850 O   0  0  0  0  0  1  0  0  0  0  0  0
  190.0770  176.6770  140.0000 C   0  0  0  0  0  3  0  0  0  0  0  0
  183.7080  178.9230  144.6500 C   0  0  0  0  0  0  0  0  0  0  0  0
  185.7960  178.6130  145.2260 N   0  0  0  0  0  0  0  0  0  0  0  0
  184.5380  179.0680  145.6250 N   0  0  0  0  0  0  0  0  0  0  0  0
  185.7330  178.1930  144.0060 C   0  0  0  0  0  0  0  0  0  0  0  0
  184.3580  178.3300  143.4440 C   0  0  0  0  0  2  0  0  0  0  0  0
  181.4030  178.8560  143.8050 C   0  0  0  0  0  1  0  0  0  0  0  0
  182.3670  179.2900  144.7510 O   0  0  0  0  0  0  0  0  0  0  0  0
  190.6260  177.1740  146.4210 C   0  0  0  0  0  0  0  0  0  0  0  0
  189.9020  177.5620  147.5860 N   0  0  0  0  0  1  0  0  0  0  0  0
  191.8850  177.1580  146.4570 O   0  0  0  0  0  0  0  0  0  0  0  0
  1  6  1  1  0  0  0
  2  9  2  0  0  0  0
  3 12  1  1  0  0  0
  3  2  1  0  0  0  0
  3  7  1  0  0  0  0
  4  5  1  0  0  0  0
  5 25  1  0  0  0  0
  6  5  2  0  0  0  0
  7  8  1  1  0  0  0
  7  1  1  0  0  0  0
  8  4  2  0  0  0  0
  9  1  1  0  0  0  0
  9 21  1  0  0  0  0
 10 14  1  0  0  0  0
 11 12  1  0  0  0  0
 13 15  1  0  0  0  0
 13 14  2  0  0  0  0
 14 17  1  0  0  0  0
 15 11  2  0  0  0  0
 16 15  1  0  0  0  0
 17 12  2  0  0  0  0
 18 24  1  0  0  0  0
 18 20  2  0  0  0  0
 19 20  1  0  0  0  0
 21 19  2  0  0  0  0
 22 21  1  0  0  0  0
 22 18  1  0  0  0  0
 23 24  1  0  0  0  0
 25 27  2  0  0  0  0
 25 26  1  0  0  0  0
M  END
>  <MODEL>
5

>  <REMARK>
 VINA RESULT:      -8.8      2.547      6.923
  Name = 
  4 active torsions:
  status: ('A' for Active; 'I' for Inactive)
    1  A    between atoms: C_4  and  O_13
    2  A    between atoms: C_5  and  C_16
    3  A    between atoms: C_6  and  C_11
    4  A    between atoms: C_21  and  C_26
                            x       y       z     vdW  Elec       q    Type
                         _______ _______ _______ _____ _____    ______ ____

>  <TORSDO>
F 4

$$$$
=
 OpenBabel11032419503D

 27 30  0  0  1  0  0  0  0  0999 V2000
  187.0020  176.9650  144.4400 C   0  0  2  0  0  3  0  0  0  0  0  0
  186.7250  178.0660  142.4130 N   0  0  0  0  0  0  0  0  0  0  0  0
  187.9880  177.4070  142.4040 C   0  0  2  0  0  3  0  0  0  0  0  0
  189.6850  176.6980  145.4500 C   0  0  0  0  0  3  0  0  0  0  0  0
  188.6420  177.3890  146.2600 C   0  0  0  0  0  0  0  0  0  0  0  0
  187.4090  177.5820  145.7540 C   0  0  0  0  0  3  0  0  0  0  0  0
  188.1960  176.7940  143.5680 C   0  0  1  0  0  3  0  0  0  0  0  0
  189.4920  176.4300  144.1530 C   0  0  0  0  0  3  0  0  0  0  0  0
  186.1810  177.8610  143.5690 C   0  0  0  0  0  0  0  0  0  0  0  0
  188.8900  178.5290  137.6310 C   0  0  0  0  0  1  0  0  0  0  0  0
  190.3280  177.3250  141.4770 C   0  0  0  0  0  3  0  0  0  0  0  0
  188.9590  177.5740  141.2980 C   0  0  0  0  0  0  0  0  0  0  0  0
  190.7530  177.8690  139.1580 C   0  0  0  0  0  3  0  0  0  0  0  0
  189.3910  178.1120  138.9670 C   0  0  0  0  0  0  0  0  0  0  0  0
  191.2220  177.4740  140.4130 C   0  0  0  0  0  0  0  0  0  0  0  0
  192.5750  177.2300  140.6030 O   0  0  0  0  0  1  0  0  0  0  0  0
  188.4980  177.9620  140.0320 C   0  0  0  0  0  3  0  0  0  0  0  0
  182.7150  179.0730  143.9230 C   0  0  0  0  0  0  0  0  0  0  0  0
  184.5340  178.7740  145.1020 N   0  0  0  0  0  0  0  0  0  0  0  0
  183.2060  179.2070  145.1070 N   0  0  0  0  0  0  0  0  0  0  0  0
  184.8510  178.3780  143.9140 C   0  0  0  0  0  0  0  0  0  0  0  0
  183.7100  178.5120  142.9620 C   0  0  0  0  0  2  0  0  0  0  0  0
  180.3080  178.5850  143.9560 C   0  0  0  0  0  1  0  0  0  0  0  0
  181.4010  179.4240  143.6170 O   0  0  0  0  0  0  0  0  0  0  0  0
  188.9870  177.9240  147.5880 C   0  0  0  0  0  0  0  0  0  0  0  0
  187.9950  178.5450  148.4020 N   0  0  0  0  0  1  0  0  0  0  0  0
  190.1670  177.8340  148.0200 O   0  0  0  0  0  0  0  0  0  0  0  0
  1  6  1  1  0  0  0
  2  9  2  0  0  0  0
  3 12  1  1  0  0  0
  3  2  1  0  0  0  0
  3  7  1  0  0  0  0
  4  5  1  0  0  0  0
  5 25  1  0  0  0  0
  6  5  2  0  0  0  0
  7  8  1  1  0  0  0
  7  1  1  0  0  0  0
  8  4  2  0  0  0  0
  9 21  1  0  0  0  0
  9  1  1  0  0  0  0
 10 14  1  0  0  0  0
 12 11  1  0  0  0  0
 13 15  1  0  0  0  0
 14 13  2  0  0  0  0
 14 17  1  0  0  0  0
 15 16  1  0  0  0  0
 15 11  2  0  0  0  0
 17 12  2  0  0  0  0
 18 20  2  0  0  0  0
 19 20  1  0  0  0  0
 21 19  2  0  0  0  0
 22 21  1  0  0  0  0
 22 18  1  0  0  0  0
 24 18  1  0  0  0  0
 24 23  1  0  0  0  0
 25 27  2  0  0  0  0
 25 26  1  0  0  0  0
M  END
>  <MODEL>
6

>  <REMARK>
 VINA RESULT:      -8.8      2.874      7.038
  Name = 
  4 active torsions:
  status: ('A' for Active; 'I' for Inactive)
    1  A    between atoms: C_4  and  O_13
    2  A    between atoms: C_5  and  C_16
    3  A    between atoms: C_6  and  C_11
    4  A    between atoms: C_21  and  C_26
                            x       y       z     vdW  Elec       q    Type
                         _______ _______ _______ _____ _____    ______ ____

>  <TORSDO>
F 4

$$$$
=
 OpenBabel11032419503D

 27 30  0  0  1  0  0  0  0  0999 V2000
  190.7010  177.8310  143.2410 C   0  0  2  0  0  3  0  0  0  0  0  0
  188.8550  177.7280  141.8330 N   0  0  0  0  0  0  0  0  0  0  0  0
  188.4100  178.0720  143.1420 C   0  0  2  0  0  3  0  0  0  0  0  0
  190.3020  177.1350  146.0060 C   0  0  0  0  0  3  0  0  0  0  0  0
  191.2960  176.3920  145.1790 C   0  0  0  0  0  0  0  0  0  0  0  0
  191.4250  176.6670  143.8670 C   0  0  0  0  0  3  0  0  0  0  0  0
  189.4410  178.1060  143.9850 C   0  0  1  0  0  3  0  0  0  0  0  0
  189.3930  177.9390  145.4430 C   0  0  0  0  0  3  0  0  0  0  0  0
  190.1360  177.5470  141.8860 C   0  0  0  0  0  0  0  0  0  0  0  0
  184.8380  178.2540  146.6140 C   0  0  0  0  0  1  0  0  0  0  0  0
  185.9850  178.2660  142.4920 C   0  0  0  0  0  3  0  0  0  0  0  0
  186.9740  178.1830  143.4840 C   0  0  0  0  0  0  0  0  0  0  0  0
  184.2600  178.3500  144.1870 C   0  0  0  0  0  3  0  0  0  0  0  0
  185.2350  178.2600  145.1820 C   0  0  0  0  0  0  0  0  0  0  0  0
  184.6340  178.3520  142.8410 C   0  0  0  0  0  0  0  0  0  0  0  0
  183.6660  178.4400  141.8500 O   0  0  0  0  0  1  0  0  0  0  0  0
  186.5860  178.1740  144.8310 C   0  0  0  0  0  3  0  0  0  0  0  0
  191.6810  176.4740  138.7130 C   0  0  0  0  0  0  0  0  0  0  0  0
  192.1840  177.4940  140.5830 N   0  0  0  0  0  0  0  0  0  0  0  0
  192.6510  177.0380  139.3480 N   0  0  0  0  0  0  0  0  0  0  0  0
  190.9310  177.2050  140.7000 C   0  0  0  0  0  0  0  0  0  0  0  0
  190.4100  176.4960  139.4950 C   0  0  0  0  0  2  0  0  0  0  0  0
  191.2430  174.6860  137.0890 C   0  0  0  0  0  1  0  0  0  0  0  0
  191.8440  175.9210  137.4450 O   0  0  0  0  0  0  0  0  0  0  0  0
  192.0840  175.3080  145.7880 C   0  0  0  0  0  0  0  0  0  0  0  0
  192.4300  174.1490  145.0320 N   0  0  0  0  0  1  0  0  0  0  0  0
  192.4640  175.3950  146.9860 O   0  0  0  0  0  0  0  0  0  0  0  0
  1  6  1  1  0  0  0
  1  7  1  0  0  0  0
  2  9  2  0  0  0  0
  2  3  1  0  0  0  0
  3 12  1  1  0  0  0
  3  7  1  0  0  0  0
  5 25  1  0  0  0  0
  5  4  1  0  0  0  0
  6  5  2  0  0  0  0
  7  8  1  1  0  0  0
  8  4  2  0  0  0  0
  9  1  1  0  0  0  0
 11 15  2  0  0  0  0
 11 12  1  0  0  0  0
 12 17  2  0  0  0  0
 13 14  2  0  0  0  0
 14 10  1  0  0  0  0
 15 13  1  0  0  0  0
 16 15  1  0  0  0  0
 17 14  1  0  0  0  0
 18 20  2  0  0  0  0
 18 22  1  0  0  0  0
 19 21  2  0  0  0  0
 20 19  1  0  0  0  0
 21  9  1  0  0  0  0
 22 21  1  0  0  0  0
 23 24  1  0  0  0  0
 24 18  1  0  0  0  0
 25 27  2  0  0  0  0
 26 25  1  0  0  0  0
M  END
>  <MODEL>
7

>  <REMARK>
 VINA RESULT:      -8.6      1.551      2.032
  Name = 
  4 active torsions:
  status: ('A' for Active; 'I' for Inactive)
    1  A    between atoms: C_4  and  O_13
    2  A    between atoms: C_5  and  C_16
    3  A    between atoms: C_6  and  C_11
    4  A    between atoms: C_21  and  C_26
                            x       y       z     vdW  Elec       q    Type
                         _______ _______ _______ _____ _____    ______ ____

>  <TORSDO>
F 4

$$$$
=
 OpenBabel11032419503D

 27 30  0  0  1  0  0  0  0  0999 V2000
  185.6220  177.6080  142.6310 C   0  0  2  0  0  3  0  0  0  0  0  0
  187.0270  178.4490  140.9820 N   0  0  0  0  0  0  0  0  0  0  0  0
  187.8200  177.7730  141.9540 C   0  0  2  0  0  3  0  0  0  0  0  0
  186.6750  177.4260  145.3060 C   0  0  0  0  0  3  0  0  0  0  0  0
  185.4510  178.2310  145.0330 C   0  0  0  0  0  0  0  0  0  0  0  0
  185.0050  178.3790  143.7700 C   0  0  0  0  0  3  0  0  0  0  0  0
  187.0490  177.3080  142.9350 C   0  0  1  0  0  3  0  0  0  0  0  0
  187.4620  177.0000  144.3100 C   0  0  0  0  0  3  0  0  0  0  0  0
  185.7940  178.4000  141.3750 C   0  0  0  0  0  0  0  0  0  0  0  0
  192.0390  176.8990  139.4460 C   0  0  0  0  0  1  0  0  0  0  0  0
  190.0650  178.1810  143.0200 C   0  0  0  0  0  3  0  0  0  0  0  0
  189.3000  177.7850  141.9120 C   0  0  0  0  0  0  0  0  0  0  0  0
  192.1060  177.7500  141.7930 C   0  0  0  0  0  3  0  0  0  0  0  0
  191.3550  177.3460  140.6880 C   0  0  0  0  0  0  0  0  0  0  0  0
  191.4610  178.1660  142.9600 C   0  0  0  0  0  0  0  0  0  0  0  0
  192.2070  178.5660  144.0610 O   0  0  0  0  0  1  0  0  0  0  0  0
  189.9570  177.3610  140.7490 C   0  0  0  0  0  3  0  0  0  0  0  0
  182.7110  179.5590  139.7150 C   0  0  0  0  0  0  0  0  0  0  0  0
  184.8820  179.8220  139.6320 N   0  0  0  0  0  0  0  0  0  0  0  0
  183.6480  180.1820  139.0860 N   0  0  0  0  0  0  0  0  0  0  0  0
  184.6960  178.9780  140.5910 C   0  0  0  0  0  0  0  0  0  0  0  0
  183.2490  178.6780  140.7930 C   0  0  0  0  0  2  0  0  0  0  0  0
  180.4000  180.0630  140.3740 C   0  0  0  0  0  1  0  0  0  0  0  0
  181.3650  179.7170  139.3930 O   0  0  0  0  0  0  0  0  0  0  0  0
  184.7720  178.9230  146.1410 C   0  0  0  0  0  0  0  0  0  0  0  0
  185.5140  179.4140  147.2540 N   0  0  0  0  0  1  0  0  0  0  0  0
  183.5230  179.0910  146.1140 O   0  0  0  0  0  0  0  0  0  0  0  0
  1  7  1  0  0  0  0
  1  6  1  1  0  0  0
  2  9  2  0  0  0  0
  2  3  1  0  0  0  0
  3 12  1  1  0  0  0
  3  7  1  0  0  0  0
  5  4  1  0  0  0  0
  5 25  1  0  0  0  0
  6  5  2  0  0  0  0
  7  8  1  1  0  0  0
  8  4  2  0  0  0  0
  9  1  1  0  0  0  0
 10 14  1  0  0  0  0
 12 11  2  0  0  0  0
 13 15  2  0  0  0  0
 14 17  2  0  0  0  0
 14 13  1  0  0  0  0
 15 11  1  0  0  0  0
 15 16  1  0  0  0  0
 17 12  1  0  0  0  0
 18 22  1  0  0  0  0
 19 21  2  0  0  0  0
 20 19  1  0  0  0  0
 20 18  2  0  0  0  0
 21 22  1  0  0  0  0
 21  9  1  0  0  0  0
 24 18  1  0  0  0  0
 24 23  1  0  0  0  0
 25 26  1  0  0  0  0
 27 25  2  0  0  0  0
M  END
>  <MODEL>
8

>  <REMARK>
 VINA RESULT:      -8.5      3.029      7.290
  Name = 
  4 active torsions:
  status: ('A' for Active; 'I' for Inactive)
    1  A    between atoms: C_4  and  O_13
    2  A    between atoms: C_5  and  C_16
    3  A    between atoms: C_6  and  C_11
    4  A    between atoms: C_21  and  C_26
                            x       y       z     vdW  Elec       q    Type
                         _______ _______ _______ _____ _____    ______ ____

>  <TORSDO>
F 4

$$$$
=
 OpenBabel11032419503D

 27 30  0  0  1  0  0  0  0  0999 V2000
  188.5360  176.4670  143.4970 C   0  0  2  0  0  3  0  0  0  0  0  0
  188.4980  177.5450  141.4400 N   0  0  0  0  0  0  0  0  0  0  0  0
  189.6710  176.7390  141.5090 C   0  0  2  0  0  3  0  0  0  0  0  0
  191.1120  175.9020  144.6530 C   0  0  0  0  0  3  0  0  0  0  0  0
  190.1200  176.7320  145.3950 C   0  0  0  0  0  0  0  0  0  0  0  0
  188.9470  177.0600  144.8200 C   0  0  0  0  0  3  0  0  0  0  0  0
  189.7430  176.1330  142.6930 C   0  0  1  0  0  3  0  0  0  0  0  0
  190.9550  175.6290  143.3530 C   0  0  0  0  0  3  0  0  0  0  0  0
  187.8750  177.4330  142.5690 C   0  0  0  0  0  0  0  0  0  0  0  0
  190.9660  175.9750  136.7560 C   0  0  0  0  0  1  0  0  0  0  0  0
  192.0340  177.1330  140.7350 C   0  0  0  0  0  3  0  0  0  0  0  0
  190.7100  176.7640  140.4540 C   0  0  0  0  0  0  0  0  0  0  0  0
  192.6510  176.7550  138.4250 C   0  0  0  0  0  3  0  0  0  0  0  0
  191.3380  176.3790  138.1370 C   0  0  0  0  0  0  0  0  0  0  0  0
  193.0010  177.1310  139.7250 C   0  0  0  0  0  0  0  0  0  0  0  0
  194.3070  177.5030  140.0130 O   0  0  0  0  0  1  0  0  0  0  0  0
  190.3730  176.3810  139.1490 C   0  0  0  0  0  3  0  0  0  0  0  0
  184.6760  178.8810  143.7010 C   0  0  0  0  0  0  0  0  0  0  0  0
  186.0560  178.9410  142.0040 N   0  0  0  0  0  0  0  0  0  0  0  0
  184.8590  179.4160  142.5430 N   0  0  0  0  0  0  0  0  0  0  0  0
  186.6010  178.1140  142.8340 C   0  0  0  0  0  0  0  0  0  0  0  0
  185.7830  177.9500  144.0700 C   0  0  0  0  0  2  0  0  0  0  0  0
  182.2410  179.0050  143.9890 C   0  0  0  0  0  1  0  0  0  0  0  0
  183.5600  179.1660  144.4850 O   0  0  0  0  0  0  0  0  0  0  0  0
  190.4590  177.2530  146.7300 C   0  0  0  0  0  0  0  0  0  0  0  0
  189.4690  177.8860  147.5360 N   0  0  0  0  0  1  0  0  0  0  0  0
  191.6320  177.1390  147.1760 O   0  0  0  0  0  0  0  0  0  0  0  0
  1  6  1  1  0  0  0
  2  3  1  0  0  0  0
  2  9  2  0  0  0  0
  3 12  1  1  0  0  0
  3  7  1  0  0  0  0
  4  5  1  0  0  0  0
  5 25  1  0  0  0  0
  6  5  2  0  0  0  0
  7  8  1  1  0  0  0
  7  1  1  0  0  0  0
  8  4  2  0  0  0  0
  9 21  1  0  0  0  0
  9  1  1  0  0  0  0
 10 14  1  0  0  0  0
 12 11  1  0  0  0  0
 13 15  1  0  0  0  0
 14 13  2  0  0  0  0
 14 17  1  0  0  0  0
 15 16  1  0  0  0  0
 15 11  2  0  0  0  0
 17 12  2  0  0  0  0
 18 22  1  0  0  0  0
 18 24  1  0  0  0  0
 19 20  1  0  0  0  0
 19 21  2  0  0  0  0
 20 18  2  0  0  0  0
 21 22  1  0  0  0  0
 23 24  1  0  0  0  0
 25 27  2  0  0  0  0
 25 26  1  0  0  0  0
M  END
>  <MODEL>
9

>  <REMARK>
 VINA RESULT:      -8.3      1.898      6.879
  Name = 
  4 active torsions:
  status: ('A' for Active; 'I' for Inactive)
    1  A    between atoms: C_4  and  O_13
    2  A    between atoms: C_5  and  C_16
    3  A    between atoms: C_6  and  C_11
    4  A    between atoms: C_21  and  C_26
                            x       y       z     vdW  Elec       q    Type
                         _______ _______ _______ _____ _____    ______ ____

>  <TORSDO>
F 4

$$$$
