=
 OpenBabel11032419553D

 41 44  0  0  1  0  0  0  0  0999 V2000
  187.9990  178.3390  142.3750 C   0  0  1  0  0  3  0  0  0  0  0  0
  183.7480  179.3380  139.5630 C   0  0  1  0  0  3  0  0  0  0  0  0
  182.7990  178.9680  138.4330 C   0  0  0  0  0  1  0  0  0  0  0  0
  186.1510  177.8950  144.0580 C   0  0  0  0  0  2  0  0  0  0  0  0
  185.5830  178.9560  138.0610 O   0  0  0  0  0  0  0  0  0  0  0  0
  186.0400  178.5560  140.3040 N   0  0  0  0  0  0  0  0  0  0  0  0
  184.7380  178.3040  144.3590 C   0  0  0  0  0  3  0  0  0  0  0  0
  183.2530  178.7100  140.8760 C   0  0  1  0  0  3  0  0  0  0  0  0
  185.6050  178.4950  141.6670 C   0  0  0  0  0  0  0  0  0  0  0  0
  183.8830  178.6130  143.3870 C   0  0  0  0  0  3  0  0  0  0  0  0
  185.1520  178.9170  139.2460 C   0  0  0  0  0  0  0  0  0  0  0  0
  184.3020  178.6410  141.9720 C   0  0  2  0  0  3  0  0  0  0  0  0
  186.5750  178.3220  142.7190 N   0  0  0  0  0  0  0  0  0  0  0  0
  180.5790  177.5700  140.9500 O   0  0  0  0  0  0  0  0  0  0  0  0
  179.6220  179.4860  141.8450 N   0  0  0  0  0  1  0  0  0  0  0  0
  182.0290  179.3700  141.3340 N   0  0  0  0  0  2  0  0  0  0  0  0
  180.7380  178.7500  141.3630 C   0  0  0  0  0  0  0  0  0  0  0  0
  191.2770  177.9920  144.4190 C   0  0  0  0  0  2  0  0  0  0  0  0
  190.3430  175.9000  143.2480 C   0  0  0  0  0  2  0  0  0  0  0  0
  189.0030  176.4540  143.7390 C   0  0  0  0  0  2  0  0  0  0  0  0
  191.5360  176.5430  143.9850 C   0  0  2  0  0  3  0  0  0  0  0  0
  188.9100  177.9780  143.5540 C   0  0  1  0  0  3  0  0  0  0  0  0
  190.2770  178.6830  143.4960 C   0  0  0  0  0  2  0  0  0  0  0  0
  191.9250  175.7210  145.2060 C   0  0  0  0  0  2  0  0  0  0  0  0
  191.6040  176.4580  146.4990 C   0  0  0  0  0  2  0  0  0  0  0  0
  192.3420  175.8300  147.6660 C   0  0  0  0  0  1  0  0  0  0  0  0
  188.2780  177.5030  141.1320 C   0  0  0  0  0  2  0  0  0  0  0  0
  189.4260  178.1060  140.3440 C   0  0  1  0  0  3  0  0  0  0  0  0
  191.8310  177.4290  140.3100 C   0  0  0  0  0  1  0  0  0  0  0  0
  190.4150  177.0190  139.9500 C   0  0  0  0  0  2  0  0  0  0  0  0
  188.8900  178.7380  139.1470 N   0  0  0  0  0  2  0  0  0  0  0  0
  188.9910  177.7910  138.0460 C   0  0  0  0  0  2  0  0  0  0  0  0
  188.6260  178.4650  136.7310 C   0  0  0  0  0  2  0  0  0  0  0  0
  188.0210  176.1000  136.2990 C   0  0  0  0  0  2  0  0  0  0  0  0
  186.5120  176.0830  136.3010 C   0  0  1  0  0  3  0  0  0  0  0  0
  186.0470  176.9700  135.2410 N   0  0  0  0  0  2  0  0  0  0  0  0
  188.3900  177.4130  135.6610 C   0  0  1  0  0  3  0  0  0  0  0  0
  187.1820  177.7930  134.8330 C   0  0  0  0  0  2  0  0  0  0  0  0
  186.0160  174.6680  136.0610 C   0  0  0  0  0  2  0  0  0  0  0  0
  185.1820  172.9920  137.6260 C   0  0  0  0  0  2  0  0  0  0  0  0
  186.1420  173.8540  137.3040 C   0  0  0  0  0  3  0  0  0  0  0  0
  1 27  1  6  0  0  0
  1 13  1  0  0  0  0
  2  3  1  6  0  0  0
  2  8  1  0  0  0  0
  4  7  1  0  0  0  0
  5 11  2  0  0  0  0
  6  9  2  0  0  0  0
  8 16  1  1  0  0  0
  8 12  1  0  0  0  0
  9 12  1  0  0  0  0
  9 13  1  0  0  0  0
 10  7  2  0  0  0  0
 11  2  1  0  0  0  0
 11  6  1  0  0  0  0
 12 10  1  1  0  0  0
 13  4  1  0  0  0  0
 14 17  2  0  0  0  0
 16 17  1  0  0  0  0
 17 15  1  0  0  0  0
 19 20  1  0  0  0  0
 19 21  1  0  0  0  0
 21 18  1  0  0  0  0
 21 24  1  1  0  0  0
 22  1  1  6  0  0  0
 22 20  1  0  0  0  0
 23 22  1  0  0  0  0
 23 18  1  0  0  0  0
 24 25  1  0  0  0  0
 25 26  1  0  0  0  0
 28 30  1  6  0  0  0
 28 27  1  0  0  0  0
 30 29  1  0  0  0  0
 31 28  1  0  0  0  0
 32 31  1  0  0  0  0
 33 32  1  0  0  0  0
 34 35  1  0  0  0  0
 35 39  1  6  0  0  0
 36 35  1  0  0  0  0
 37 34  1  0  0  0  0
 37 33  1  1  0  0  0
 38 36  1  0  0  0  0
 38 37  1  0  0  0  0
 39 41  1  0  0  0  0
 41 40  2  0  0  0  0
M  END
>  <MODEL>
1

>  <REMARK>
 VINA RESULT:      -7.8      0.000      0.000
  Name = 
  14 active torsions:
  status: ('A' for Active; 'I' for Inactive)
    1  A    between atoms: C_4  and  C_21
    2  A    between atoms: C_4  and  C_35
    3  A    between atoms: C_12  and  C_31
    4  A    between atoms: C_15  and  C_31
    5  A    between atoms: C_16  and  N_28
    6  A    between atoms: N_18  and  C_21
    7  A    between atoms: N_18  and  C_39
    8  A    between atoms: C_24  and  C_26
    9  A    between atoms: C_25  and  C_30
   10  A    between atoms: C_26  and  C_34
   11  A    between atoms: C_30  and  C_32
   12  A    between atoms: C_30  and  N_38
   13  A    between atoms: C_32  and  C_39
   14  A    between atoms: C_36  and  C_39
                            x       y       z     vdW  Elec       q    Type
                         _______ _______ _______ _____ _____    ______ ____

>  <TORSDO>
F 14

$$$$
=
 OpenBabel11032419553D

 41 44  0  0  1  0  0  0  0  0999 V2000
  188.0560  178.3000  142.3190 C   0  0  1  0  0  3  0  0  0  0  0  0
  183.8140  179.3260  139.5040 C   0  0  1  0  0  3  0  0  0  0  0  0
  182.8590  178.9590  138.3780 C   0  0  0  0  0  1  0  0  0  0  0  0
  186.2060  177.8900  144.0080 C   0  0  0  0  0  2  0  0  0  0  0  0
  185.6430  178.9130  138.0030 O   0  0  0  0  0  0  0  0  0  0  0  0
  186.0980  178.5240  140.2490 N   0  0  0  0  0  0  0  0  0  0  0  0
  184.7980  178.3170  144.3070 C   0  0  0  0  0  3  0  0  0  0  0  0
  183.3130  178.7130  140.8230 C   0  0  1  0  0  3  0  0  0  0  0  0
  185.6630  178.4780  141.6130 C   0  0  0  0  0  0  0  0  0  0  0  0
  183.9440  178.6280  143.3340 C   0  0  0  0  0  3  0  0  0  0  0  0
  185.2130  178.8870  139.1890 C   0  0  0  0  0  0  0  0  0  0  0  0
  184.3620  178.6410  141.9180 C   0  0  2  0  0  3  0  0  0  0  0  0
  186.6330  178.3020  142.6650 N   0  0  0  0  0  0  0  0  0  0  0  0
  180.6330  177.5930  140.9400 O   0  0  0  0  0  0  0  0  0  0  0  0
  179.6960  179.5320  141.8040 N   0  0  0  0  0  1  0  0  0  0  0  0
  182.0970  179.3900  141.2770 N   0  0  0  0  0  2  0  0  0  0  0  0
  180.8030  178.7790  141.3290 C   0  0  0  0  0  0  0  0  0  0  0  0
  191.3350  177.9800  144.3660 C   0  0  0  0  0  2  0  0  0  0  0  0
  190.3740  175.8630  143.2640 C   0  0  0  0  0  2  0  0  0  0  0  0
  189.0420  176.4480  143.7400 C   0  0  0  0  0  2  0  0  0  0  0  0
  191.5760  176.5140  143.9780 C   0  0  2  0  0  3  0  0  0  0  0  0
  188.9660  177.9660  143.5080 C   0  0  1  0  0  3  0  0  0  0  0  0
  190.3420  178.6530  143.4240 C   0  0  0  0  0  2  0  0  0  0  0  0
  191.9590  175.7270  145.2230 C   0  0  0  0  0  2  0  0  0  0  0  0
  191.6640  176.5150  146.4930 C   0  0  0  0  0  2  0  0  0  0  0  0
  192.2450  175.8090  147.7040 C   0  0  0  0  0  1  0  0  0  0  0  0
  188.3290  177.4280  141.1000 C   0  0  0  0  0  2  0  0  0  0  0  0
  189.5190  177.9670  140.3280 C   0  0  1  0  0  3  0  0  0  0  0  0
  191.9560  177.4170  140.2830 C   0  0  0  0  0  1  0  0  0  0  0  0
  190.5500  176.8660  140.1260 C   0  0  0  0  0  2  0  0  0  0  0  0
  189.0580  178.4500  139.0350 N   0  0  0  0  0  2  0  0  0  0  0  0
  188.8230  177.2990  138.1750 C   0  0  0  0  0  2  0  0  0  0  0  0
  189.5770  177.4560  136.8620 C   0  0  0  0  0  2  0  0  0  0  0  0
  191.1100  175.7690  135.8850 C   0  0  0  0  0  2  0  0  0  0  0  0
  191.5310  174.9120  137.0530 C   0  0  1  0  0  3  0  0  0  0  0  0
  190.3340  174.3000  137.6220 N   0  0  0  0  0  2  0  0  0  0  0  0
  189.6700  176.1120  136.1590 C   0  0  1  0  0  3  0  0  0  0  0  0
  189.1820  175.0190  137.0860 C   0  0  0  0  0  2  0  0  0  0  0  0
  192.4960  173.8400  136.5790 C   0  0  0  0  0  2  0  0  0  0  0  0
  194.0870  175.0730  137.9570 C   0  0  0  0  0  2  0  0  0  0  0  0
  193.8860  174.1640  137.0090 C   0  0  0  0  0  3  0  0  0  0  0  0
  1 27  1  6  0  0  0
  1 13  1  0  0  0  0
  2  3  1  6  0  0  0
  2  8  1  0  0  0  0
  4  7  1  0  0  0  0
  5 11  2  0  0  0  0
  6  9  2  0  0  0  0
  8 16  1  1  0  0  0
  8 12  1  0  0  0  0
  9 12  1  0  0  0  0
  9 13  1  0  0  0  0
 10  7  2  0  0  0  0
 11  2  1  0  0  0  0
 11  6  1  0  0  0  0
 12 10  1  1  0  0  0
 13  4  1  0  0  0  0
 14 17  2  0  0  0  0
 16 17  1  0  0  0  0
 17 15  1  0  0  0  0
 19 20  1  0  0  0  0
 19 21  1  0  0  0  0
 21 18  1  0  0  0  0
 21 24  1  1  0  0  0
 22  1  1  6  0  0  0
 22 20  1  0  0  0  0
 23 22  1  0  0  0  0
 23 18  1  0  0  0  0
 24 25  1  0  0  0  0
 25 26  1  0  0  0  0
 28 30  1  6  0  0  0
 28 27  1  0  0  0  0
 30 29  1  0  0  0  0
 31 28  1  0  0  0  0
 32 31  1  0  0  0  0
 33 32  1  0  0  0  0
 34 37  1  0  0  0  0
 34 35  1  0  0  0  0
 35 39  1  6  0  0  0
 35 36  1  0  0  0  0
 37 33  1  1  0  0  0
 37 38  1  0  0  0  0
 38 36  1  0  0  0  0
 39 41  1  0  0  0  0
 41 40  2  0  0  0  0
M  END
>  <MODEL>
2

>  <REMARK>
 VINA RESULT:      -7.8      1.736      2.604
  Name = 
  14 active torsions:
  status: ('A' for Active; 'I' for Inactive)
    1  A    between atoms: C_4  and  C_21
    2  A    between atoms: C_4  and  C_35
    3  A    between atoms: C_12  and  C_31
    4  A    between atoms: C_15  and  C_31
    5  A    between atoms: C_16  and  N_28
    6  A    between atoms: N_18  and  C_21
    7  A    between atoms: N_18  and  C_39
    8  A    between atoms: C_24  and  C_26
    9  A    between atoms: C_25  and  C_30
   10  A    between atoms: C_26  and  C_34
   11  A    between atoms: C_30  and  C_32
   12  A    between atoms: C_30  and  N_38
   13  A    between atoms: C_32  and  C_39
   14  A    between atoms: C_36  and  C_39
                            x       y       z     vdW  Elec       q    Type
                         _______ _______ _______ _____ _____    ______ ____

>  <TORSDO>
F 14

$$$$
=
 OpenBabel11032419553D

 41 44  0  0  1  0  0  0  0  0999 V2000
  189.3570  177.3390  140.6620 C   0  0  1  0  0  3  0  0  0  0  0  0
  191.0770  174.0590  137.0220 C   0  0  1  0  0  3  0  0  0  0  0  0
  191.1300  173.6140  135.5670 C   0  0  0  0  0  1  0  0  0  0  0  0
  191.8230  177.9320  140.5580 C   0  0  0  0  0  2  0  0  0  0  0  0
  188.6920  174.2470  136.8120 O   0  0  0  0  0  0  0  0  0  0  0  0
  189.6680  175.6970  138.3430 N   0  0  0  0  0  0  0  0  0  0  0  0
  193.1470  177.3160  140.2100 C   0  0  0  0  0  3  0  0  0  0  0  0
  192.2360  175.0290  137.3030 C   0  0  1  0  0  3  0  0  0  0  0  0
  190.8370  176.2210  138.9840 C   0  0  0  0  0  0  0  0  0  0  0  0
  193.2520  176.3860  139.2620 C   0  0  0  0  0  3  0  0  0  0  0  0
  189.7500  174.6760  137.3480 C   0  0  0  0  0  0  0  0  0  0  0  0
  192.0640  175.8630  138.5610 C   0  0  2  0  0  3  0  0  0  0  0  0
  190.6960  177.1030  140.1160 N   0  0  0  0  0  0  0  0  0  0  0  0
  194.4390  175.4390  135.4500 O   0  0  0  0  0  0  0  0  0  0  0  0
  195.7830  173.8360  136.4550 N   0  0  0  0  0  1  0  0  0  0  0  0
  193.5170  174.3200  137.2910 N   0  0  0  0  0  2  0  0  0  0  0  0
  194.5750  174.5780  136.3610 C   0  0  0  0  0  0  0  0  0  0  0  0
  189.9390  177.9520  144.4470 C   0  0  0  0  0  2  0  0  0  0  0  0
  191.3690  176.1690  143.2680 C   0  0  0  0  0  2  0  0  0  0  0  0
  190.0440  175.8320  142.5800 C   0  0  0  0  0  2  0  0  0  0  0  0
  191.1590  177.0250  144.5330 C   0  0  2  0  0  3  0  0  0  0  0  0
  189.2700  177.0970  142.1740 C   0  0  1  0  0  3  0  0  0  0  0  0
  189.6310  178.3410  143.0040 C   0  0  0  0  0  2  0  0  0  0  0  0
  191.0270  176.1440  145.7680 C   0  0  0  0  0  2  0  0  0  0  0  0
  191.6480  176.8030  146.9920 C   0  0  0  0  0  2  0  0  0  0  0  0
  192.4020  175.7810  147.8210 C   0  0  0  0  0  1  0  0  0  0  0  0
  188.8240  178.7050  140.2480 C   0  0  0  0  0  2  0  0  0  0  0  0
  187.3720  178.5910  139.8200 C   0  0  1  0  0  3  0  0  0  0  0  0
  186.0460  178.0690  137.7680 C   0  0  0  0  0  1  0  0  0  0  0  0
  187.2590  177.6910  138.5980 C   0  0  0  0  0  2  0  0  0  0  0  0
  186.6040  178.0230  140.9190 N   0  0  0  0  0  2  0  0  0  0  0  0
  185.5090  178.9320  141.2270 C   0  0  0  0  0  2  0  0  0  0  0  0
  185.6070  179.4120  142.6690 C   0  0  0  0  0  2  0  0  0  0  0  0
  186.2660  177.7200  144.3570 C   0  0  0  0  0  2  0  0  0  0  0  0
  186.3230  178.4790  145.6590 C   0  0  1  0  0  3  0  0  0  0  0  0
  184.9980  179.0290  145.9230 N   0  0  0  0  0  2  0  0  0  0  0  0
  185.1100  178.3260  143.6080 C   0  0  1  0  0  3  0  0  0  0  0  0
  184.2370  178.9430  144.6800 C   0  0  0  0  0  2  0  0  0  0  0  0
  186.7380  177.5420  146.7800 C   0  0  0  0  0  2  0  0  0  0  0  0
  188.2530  177.8790  148.6620 C   0  0  0  0  0  2  0  0  0  0  0  0
  188.0490  177.9610  147.3510 C   0  0  0  0  0  3  0  0  0  0  0  0
  1 27  1  1  0  0  0
  2  3  1  6  0  0  0
  2  8  1  0  0  0  0
  2 11  1  0  0  0  0
  5 11  2  0  0  0  0
  6  9  2  0  0  0  0
  7  4  1  0  0  0  0
  8 16  1  1  0  0  0
  8 12  1  0  0  0  0
  9 13  1  0  0  0  0
 10  7  2  0  0  0  0
 11  6  1  0  0  0  0
 12  9  1  0  0  0  0
 12 10  1  6  0  0  0
 13  4  1  0  0  0  0
 13  1  1  0  0  0  0
 14 17  2  0  0  0  0
 17 15  1  0  0  0  0
 17 16  1  0  0  0  0
 18 21  1  0  0  0  0
 19 21  1  0  0  0  0
 20 19  1  0  0  0  0
 21 24  1  1  0  0  0
 22  1  1  6  0  0  0
 22 20  1  0  0  0  0
 22 23  1  0  0  0  0
 23 18  1  0  0  0  0
 24 25  1  0  0  0  0
 25 26  1  0  0  0  0
 28 30  1  6  0  0  0
 28 27  1  0  0  0  0
 28 31  1  0  0  0  0
 29 30  1  0  0  0  0
 31 32  1  0  0  0  0
 32 33  1  0  0  0  0
 34 35  1  0  0  0  0
 35 36  1  0  0  0  0
 35 39  1  1  0  0  0
 37 33  1  6  0  0  0
 37 34  1  0  0  0  0
 37 38  1  0  0  0  0
 38 36  1  0  0  0  0
 39 41  1  0  0  0  0
 41 40  2  0  0  0  0
M  END
>  <MODEL>
3

>  <REMARK>
 VINA RESULT:      -7.7      3.307      8.216
  Name = 
  14 active torsions:
  status: ('A' for Active; 'I' for Inactive)
    1  A    between atoms: C_4  and  C_21
    2  A    between atoms: C_4  and  C_35
    3  A    between atoms: C_12  and  C_31
    4  A    between atoms: C_15  and  C_31
    5  A    between atoms: C_16  and  N_28
    6  A    between atoms: N_18  and  C_21
    7  A    between atoms: N_18  and  C_39
    8  A    between atoms: C_24  and  C_26
    9  A    between atoms: C_25  and  C_30
   10  A    between atoms: C_26  and  C_34
   11  A    between atoms: C_30  and  C_32
   12  A    between atoms: C_30  and  N_38
   13  A    between atoms: C_32  and  C_39
   14  A    between atoms: C_36  and  C_39
                            x       y       z     vdW  Elec       q    Type
                         _______ _______ _______ _____ _____    ______ ____

>  <TORSDO>
F 14

$$$$
=
 OpenBabel11032419553D

 41 44  0  0  1  0  0  0  0  0999 V2000
  187.9820  177.4770  141.9950 C   0  0  1  0  0  3  0  0  0  0  0  0
  189.0940  176.3210  137.0560 C   0  0  1  0  0  3  0  0  0  0  0  0
  188.9800  176.6340  135.5710 C   0  0  0  0  0  1  0  0  0  0  0  0
  190.4690  177.9730  141.8980 C   0  0  0  0  0  2  0  0  0  0  0  0
  186.7230  176.6570  137.2440 O   0  0  0  0  0  0  0  0  0  0  0  0
  187.9490  177.1550  139.1550 N   0  0  0  0  0  2  0  0  0  0  0  0
  191.7010  177.5630  141.1440 C   0  0  0  0  0  3  0  0  0  0  0  0
  190.3500  176.9980  137.6290 C   0  0  1  0  0  3  0  0  0  0  0  0
  189.2090  177.2680  139.8260 C   0  0  0  0  0  0  0  0  0  0  0  0
  191.6450  177.2060  139.8630 C   0  0  0  0  0  3  0  0  0  0  0  0
  187.8570  176.7420  137.7920 C   0  0  0  0  0  0  0  0  0  0  0  0
  190.3590  177.1230  139.1420 C   0  0  0  0  0  0  0  0  0  0  0  0
  189.2420  177.4950  141.2490 N   0  0  0  0  0  0  0  0  0  0  0  0
  191.0200  174.1760  137.8230 O   0  0  0  0  0  0  0  0  0  0  0  0
  193.0350  174.4200  136.6990 N   0  0  0  0  0  1  0  0  0  0  0  0
  191.5610  176.3460  137.1280 N   0  0  0  0  0  2  0  0  0  0  0  0
  191.8290  174.9440  137.2380 C   0  0  0  0  0  0  0  0  0  0  0  0
  187.7900  177.2530  145.8630 C   0  0  0  0  0  2  0  0  0  0  0  0
  190.0810  177.6920  144.7800 C   0  0  0  0  0  2  0  0  0  0  0  0
  189.5920  176.6510  143.7690 C   0  0  0  0  0  2  0  0  0  0  0  0
  189.2520  177.6650  146.0800 C   0  0  2  0  0  3  0  0  0  0  0  0
  188.1160  176.8640  143.3950 C   0  0  1  0  0  3  0  0  0  0  0  0
  187.3060  177.6200  144.4630 C   0  0  0  0  0  2  0  0  0  0  0  0
  189.8840  176.7350  147.1060 C   0  0  0  0  0  2  0  0  0  0  0  0
  191.4020  176.7330  146.9980 C   0  0  0  0  0  2  0  0  0  0  0  0
  191.9840  175.5180  147.6940 C   0  0  0  0  0  1  0  0  0  0  0  0
  187.3280  178.8530  142.0110 C   0  0  0  0  0  2  0  0  0  0  0  0
  185.8610  178.7380  141.6410 C   0  0  1  0  0  3  0  0  0  0  0  0
  184.0270  178.4650  143.3160 C   0  0  0  0  0  1  0  0  0  0  0  0
  185.0040  179.4400  142.6840 C   0  0  0  0  0  2  0  0  0  0  0  0
  185.6570  179.3590  140.3400 N   0  0  0  0  0  2  0  0  0  0  0  0
  184.6070  178.6280  139.6440 C   0  0  0  0  0  2  0  0  0  0  0  0
  183.5140  179.5810  139.1820 C   0  0  0  0  0  2  0  0  0  0  0  0
  181.7010  178.5410  140.5170 C   0  0  0  0  0  2  0  0  0  0  0  0
  180.7780  179.6830  140.8660 C   0  0  1  0  0  3  0  0  0  0  0  0
  180.2810  180.2620  139.6220 N   0  0  0  0  0  2  0  0  0  0  0  0
  182.1840  178.8490  139.1240 C   0  0  1  0  0  3  0  0  0  0  0  0
  181.1260  179.7620  138.5420 C   0  0  0  0  0  2  0  0  0  0  0  0
  179.6240  179.1690  141.7070 C   0  0  0  0  0  2  0  0  0  0  0  0
  180.0630  178.4380  143.9930 C   0  0  0  0  0  2  0  0  0  0  0  0
  180.1060  178.1610  142.6940 C   0  0  0  0  0  3  0  0  0  0  0  0
  1 27  1  1  0  0  0
  2  3  1  6  0  0  0
  2  8  1  0  0  0  0
  2 11  1  0  0  0  0
  5 11  2  0  0  0  0
  6  9  1  0  0  0  0
  7  4  1  0  0  0  0
  8 16  1  1  0  0  0
  8 12  1  0  0  0  0
  9 13  1  0  0  0  0
 10  7  2  0  0  0  0
 11  6  1  0  0  0  0
 12  9  2  0  0  0  0
 12 10  1  0  0  0  0
 13  4  1  0  0  0  0
 13  1  1  0  0  0  0
 15 17  1  0  0  0  0
 16 17  1  0  0  0  0
 17 14  2  0  0  0  0
 18 21  1  0  0  0  0
 19 21  1  0  0  0  0
 20 19  1  0  0  0  0
 21 24  1  1  0  0  0
 22  1  1  6  0  0  0
 22 20  1  0  0  0  0
 22 23  1  0  0  0  0
 23 18  1  0  0  0  0
 25 24  1  0  0  0  0
 25 26  1  0  0  0  0
 28 27  1  1  0  0  0
 28 30  1  0  0  0  0
 30 29  1  0  0  0  0
 31 28  1  0  0  0  0
 32 31  1  0  0  0  0
 33 32  1  0  0  0  0
 34 35  1  0  0  0  0
 35 39  1  1  0  0  0
 36 35  1  0  0  0  0
 37 33  1  1  0  0  0
 37 34  1  0  0  0  0
 38 37  1  0  0  0  0
 38 36  1  0  0  0  0
 39 41  1  0  0  0  0
 41 40  2  0  0  0  0
M  END
>  <MODEL>
4

>  <REMARK>
 VINA RESULT:      -7.5      2.245      6.778
  Name = 
  14 active torsions:
  status: ('A' for Active; 'I' for Inactive)
    1  A    between atoms: C_4  and  C_21
    2  A    between atoms: C_4  and  C_35
    3  A    between atoms: C_12  and  C_31
    4  A    between atoms: C_15  and  C_31
    5  A    between atoms: C_16  and  N_28
    6  A    between atoms: N_18  and  C_21
    7  A    between atoms: N_18  and  C_39
    8  A    between atoms: C_24  and  C_26
    9  A    between atoms: C_25  and  C_30
   10  A    between atoms: C_26  and  C_34
   11  A    between atoms: C_30  and  C_32
   12  A    between atoms: C_30  and  N_38
   13  A    between atoms: C_32  and  C_39
   14  A    between atoms: C_36  and  C_39
                            x       y       z     vdW  Elec       q    Type
                         _______ _______ _______ _____ _____    ______ ____

>  <TORSDO>
F 14

$$$$
=
 OpenBabel11032419553D

 41 44  0  0  1  0  0  0  0  0999 V2000
  184.5160  178.0530  141.4020 C   0  0  1  0  0  3  0  0  0  0  0  0
  188.3580  176.8330  144.6750 C   0  0  1  0  0  3  0  0  0  0  0  0
  189.8020  176.9910  145.1310 C   0  0  0  0  0  1  0  0  0  0  0  0
  183.7280  179.1480  143.5520 C   0  0  0  0  0  2  0  0  0  0  0  0
  189.1630  176.5770  142.4260 O   0  0  0  0  0  0  0  0  0  0  0  0
  187.0450  177.5140  142.6190 N   0  0  0  0  0  0  0  0  0  0  0  0
  183.8630  179.0030  145.0400 C   0  0  0  0  0  3  0  0  0  0  0  0
  187.4710  177.8460  145.4170 C   0  0  1  0  0  3  0  0  0  0  0  0
  185.9690  177.9910  143.4360 C   0  0  0  0  0  0  0  0  0  0  0  0
  184.9830  178.5450  145.5950 C   0  0  0  0  0  3  0  0  0  0  0  0
  188.2440  176.9860  143.1880 C   0  0  0  0  0  0  0  0  0  0  0  0
  186.1190  178.0860  144.7700 C   0  0  2  0  0  3  0  0  0  0  0  0
  184.7070  178.3280  142.8280 N   0  0  0  0  0  0  0  0  0  0  0  0
  189.0750  178.8420  147.6280 O   0  0  0  0  0  0  0  0  0  0  0  0
  187.9270  177.6030  149.2190 N   0  0  0  0  0  1  0  0  0  0  0  0
  187.3430  177.4820  146.8290 N   0  0  0  0  0  2  0  0  0  0  0  0
  188.1540  178.0210  147.8800 C   0  0  0  0  0  0  0  0  0  0  0  0
  181.3810  176.9670  139.3910 C   0  0  0  0  0  2  0  0  0  0  0  0
  182.4190  179.2660  138.8840 C   0  0  0  0  0  2  0  0  0  0  0  0
  182.5640  179.3260  140.4070 C   0  0  0  0  0  2  0  0  0  0  0  0
  181.4220  178.1740  138.4440 C   0  0  2  0  0  3  0  0  0  0  0  0
  183.0390  177.9860  140.9920 C   0  0  1  0  0  3  0  0  0  0  0  0
  182.7150  176.7700  140.1050 C   0  0  0  0  0  2  0  0  0  0  0  0
  180.0180  178.7450  138.3070 C   0  0  0  0  0  2  0  0  0  0  0  0
  179.1270  178.3190  139.4660 C   0  0  0  0  0  2  0  0  0  0  0  0
  178.9310  179.4680  140.4370 C   0  0  0  0  0  1  0  0  0  0  0  0
  185.3280  179.0100  140.5390 C   0  0  0  0  0  2  0  0  0  0  0  0
  186.1200  178.2350  139.5020 C   0  0  1  0  0  3  0  0  0  0  0  0
  185.1420  177.3030  137.4000 C   0  0  0  0  0  1  0  0  0  0  0  0
  185.6100  178.5620  138.1060 C   0  0  0  0  0  2  0  0  0  0  0  0
  187.5230  178.6080  139.6120 N   0  0  0  0  0  2  0  0  0  0  0  0
  188.3290  177.5080  139.0980 C   0  0  0  0  0  2  0  0  0  0  0  0
  189.8030  177.8860  139.0990 C   0  0  0  0  0  2  0  0  0  0  0  0
  190.8610  175.7960  138.2870 C   0  0  0  0  0  2  0  0  0  0  0  0
  192.1900  176.2330  137.7230 C   0  0  1  0  0  3  0  0  0  0  0  0
  192.9580  176.8540  138.7970 N   0  0  0  0  0  2  0  0  0  0  0  0
  190.6430  176.6800  139.4860 C   0  0  1  0  0  3  0  0  0  0  0  0
  192.0300  177.1350  139.8880 C   0  0  0  0  0  2  0  0  0  0  0  0
  192.9330  175.0280  137.1720 C   0  0  0  0  0  2  0  0  0  0  0  0
  194.9220  173.7110  137.6850 C   0  0  0  0  0  2  0  0  0  0  0  0
  194.1670  174.7690  137.9670 C   0  0  0  0  0  3  0  0  0  0  0  0
  1 27  1  6  0  0  0
  1 13  1  0  0  0  0
  2  3  1  1  0  0  0
  2  8  1  0  0  0  0
  4  7  1  0  0  0  0
  5 11  2  0  0  0  0
  6 11  1  0  0  0  0
  6  9  2  0  0  0  0
  7 10  2  0  0  0  0
  8 16  1  1  0  0  0
  9 12  1  0  0  0  0
 11  2  1  0  0  0  0
 12  8  1  0  0  0  0
 12 10  1  6  0  0  0
 13  9  1  0  0  0  0
 13  4  1  0  0  0  0
 14 17  2  0  0  0  0
 16 17  1  0  0  0  0
 17 15  1  0  0  0  0
 18 23  1  0  0  0  0
 19 20  1  0  0  0  0
 20 22  1  0  0  0  0
 21 24  1  1  0  0  0
 21 19  1  0  0  0  0
 21 18  1  0  0  0  0
 22  1  1  6  0  0  0
 23 22  1  0  0  0  0
 24 25  1  0  0  0  0
 25 26  1  0  0  0  0
 28 30  1  6  0  0  0
 28 31  1  0  0  0  0
 28 27  1  0  0  0  0
 29 30  1  0  0  0  0
 32 33  1  0  0  0  0
 32 31  1  0  0  0  0
 34 37  1  0  0  0  0
 35 39  1  1  0  0  0
 35 34  1  0  0  0  0
 35 36  1  0  0  0  0
 36 38  1  0  0  0  0
 37 33  1  6  0  0  0
 37 38  1  0  0  0  0
 39 41  1  0  0  0  0
 40 41  2  0  0  0  0
M  END
>  <MODEL>
5

>  <REMARK>
 VINA RESULT:      -7.4      3.075      7.650
  Name = 
  14 active torsions:
  status: ('A' for Active; 'I' for Inactive)
    1  A    between atoms: C_4  and  C_21
    2  A    between atoms: C_4  and  C_35
    3  A    between atoms: C_12  and  C_31
    4  A    between atoms: C_15  and  C_31
    5  A    between atoms: C_16  and  N_28
    6  A    between atoms: N_18  and  C_21
    7  A    between atoms: N_18  and  C_39
    8  A    between atoms: C_24  and  C_26
    9  A    between atoms: C_25  and  C_30
   10  A    between atoms: C_26  and  C_34
   11  A    between atoms: C_30  and  C_32
   12  A    between atoms: C_30  and  N_38
   13  A    between atoms: C_32  and  C_39
   14  A    between atoms: C_36  and  C_39
                            x       y       z     vdW  Elec       q    Type
                         _______ _______ _______ _____ _____    ______ ____

>  <TORSDO>
F 14

$$$$
=
 OpenBabel11032419553D

 41 44  0  0  1  0  0  0  0  0999 V2000
  180.9340  178.5640  139.9360 C   0  0  1  0  0  3  0  0  0  0  0  0
  185.1320  176.9770  137.3250 C   0  0  1  0  0  3  0  0  0  0  0  0
  186.6210  176.6600  137.2890 C   0  0  0  0  0  1  0  0  0  0  0  0
  180.4130  176.1070  139.5680 C   0  0  0  0  0  2  0  0  0  0  0  0
  185.6630  179.0380  138.4390 O   0  0  0  0  0  0  0  0  0  0  0  0
  183.5870  178.1330  138.9650 N   0  0  0  0  0  2  0  0  0  0  0  0
  180.7240  174.9890  138.6150 C   0  0  0  0  0  3  0  0  0  0  0  0
  184.3460  175.7050  137.6810 C   0  0  1  0  0  3  0  0  0  0  0  0
  182.6190  177.0870  138.8260 C   0  0  0  0  0  0  0  0  0  0  0  0
  181.9000  174.9110  137.9960 C   0  0  0  0  0  3  0  0  0  0  0  0
  184.8420  178.0910  138.2860 C   0  0  0  0  0  0  0  0  0  0  0  0
  182.9270  175.9590  138.1580 C   0  0  0  0  0  0  0  0  0  0  0  0
  181.2950  177.2640  139.3680 N   0  0  0  0  0  0  0  0  0  0  0  0
  185.0440  172.8870  137.8350 O   0  0  0  0  0  0  0  0  0  0  0  0
  184.7100  172.5230  135.5680 N   0  0  0  0  0  1  0  0  0  0  0  0
  184.3850  174.7470  136.5740 N   0  0  0  0  0  2  0  0  0  0  0  0
  184.7210  173.3620  136.7140 C   0  0  0  0  0  0  0  0  0  0  0  0
  179.9590  180.2300  136.5710 C   0  0  0  0  0  2  0  0  0  0  0  0
  181.3070  181.6130  138.2710 C   0  0  0  0  0  2  0  0  0  0  0  0
  180.3670  180.9440  139.2770 C   0  0  0  0  0  2  0  0  0  0  0  0
  180.7770  181.5030  136.8270 C   0  0  2  0  0  3  0  0  0  0  0  0
  180.1540  179.4550  138.9610 C   0  0  1  0  0  3  0  0  0  0  0  0
  180.3980  179.0900  137.4860 C   0  0  0  0  0  2  0  0  0  0  0  0
  179.9310  182.7170  136.4660 C   0  0  0  0  0  2  0  0  0  0  0  0
  180.7350  183.7430  135.6800 C   0  0  0  0  0  2  0  0  0  0  0  0
  181.1460  184.8970  136.5760 C   0  0  0  0  0  1  0  0  0  0  0  0
  180.2370  178.4060  141.2820 C   0  0  0  0  0  2  0  0  0  0  0  0
  180.8840  179.3110  142.3140 C   0  0  1  0  0  3  0  0  0  0  0  0
  178.9320  179.7700  143.8040 C   0  0  0  0  0  1  0  0  0  0  0  0
  179.8880  180.3610  142.7840 C   0  0  0  0  0  2  0  0  0  0  0  0
  181.3110  178.4990  143.4450 N   0  0  0  0  0  2  0  0  0  0  0  0
  182.6260  178.9600  143.8670 C   0  0  0  0  0  2  0  0  0  0  0  0
  183.6750  178.6030  142.8230 C   0  0  0  0  0  2  0  0  0  0  0  0
  185.7860  178.1370  144.0380 C   0  0  0  0  0  2  0  0  0  0  0  0
  186.6600  177.4320  143.0300 C   0  0  1  0  0  3  0  0  0  0  0  0
  186.8650  178.3320  141.9000 N   0  0  0  0  0  2  0  0  0  0  0  0
  185.0250  179.1610  143.2380 C   0  0  1  0  0  3  0  0  0  0  0  0
  185.8760  179.3990  142.0090 C   0  0  0  0  0  2  0  0  0  0  0  0
  187.9910  177.0760  143.6690 C   0  0  0  0  0  2  0  0  0  0  0  0
  189.0390  177.8680  145.7250 C   0  0  0  0  0  2  0  0  0  0  0  0
  187.9610  177.3650  145.1310 C   0  0  0  0  0  3  0  0  0  0  0  0
  1 27  1  1  0  0  0
  2  3  1  1  0  0  0
  2  8  1  0  0  0  0
  2 11  1  0  0  0  0
  7  4  1  0  0  0  0
  8 16  1  6  0  0  0
  8 12  1  0  0  0  0
  9  6  1  0  0  0  0
  9 13  1  0  0  0  0
 10 12  1  0  0  0  0
 10  7  2  0  0  0  0
 11  5  2  0  0  0  0
 11  6  1  0  0  0  0
 12  9  2  0  0  0  0
 13  4  1  0  0  0  0
 13  1  1  0  0  0  0
 15 17  1  0  0  0  0
 16 17  1  0  0  0  0
 17 14  2  0  0  0  0
 18 21  1  0  0  0  0
 18 23  1  0  0  0  0
 19 20  1  0  0  0  0
 21 24  1  1  0  0  0
 21 19  1  0  0  0  0
 22 20  1  0  0  0  0
 22  1  1  1  0  0  0
 23 22  1  0  0  0  0
 25 24  1  0  0  0  0
 25 26  1  0  0  0  0
 28 27  1  6  0  0  0
 28 30  1  0  0  0  0
 28 31  1  0  0  0  0
 30 29  1  0  0  0  0
 31 32  1  0  0  0  0
 33 32  1  0  0  0  0
 35 39  1  1  0  0  0
 35 34  1  0  0  0  0
 36 38  1  0  0  0  0
 36 35  1  0  0  0  0
 37 33  1  6  0  0  0
 37 34  1  0  0  0  0
 38 37  1  0  0  0  0
 39 41  1  0  0  0  0
 41 40  2  0  0  0  0
M  END
>  <MODEL>
6

>  <REMARK>
 VINA RESULT:      -7.4      2.964      9.396
  Name = 
  14 active torsions:
  status: ('A' for Active; 'I' for Inactive)
    1  A    between atoms: C_4  and  C_21
    2  A    between atoms: C_4  and  C_35
    3  A    between atoms: C_12  and  C_31
    4  A    between atoms: C_15  and  C_31
    5  A    between atoms: C_16  and  N_28
    6  A    between atoms: N_18  and  C_21
    7  A    between atoms: N_18  and  C_39
    8  A    between atoms: C_24  and  C_26
    9  A    between atoms: C_25  and  C_30
   10  A    between atoms: C_26  and  C_34
   11  A    between atoms: C_30  and  C_32
   12  A    between atoms: C_30  and  N_38
   13  A    between atoms: C_32  and  C_39
   14  A    between atoms: C_36  and  C_39
                            x       y       z     vdW  Elec       q    Type
                         _______ _______ _______ _____ _____    ______ ____

>  <TORSDO>
F 14

$$$$
=
 OpenBabel11032419553D

 41 44  0  0  1  0  0  0  0  0999 V2000
  184.5260  178.0340  141.4140 C   0  0  1  0  0  3  0  0  0  0  0  0
  188.3780  176.8400  144.6870 C   0  0  1  0  0  3  0  0  0  0  0  0
  189.8220  177.0040  145.1390 C   0  0  0  0  0  1  0  0  0  0  0  0
  183.7390  179.1380  143.5600 C   0  0  0  0  0  2  0  0  0  0  0  0
  189.1790  176.5750  142.4380 O   0  0  0  0  0  0  0  0  0  0  0  0
  187.0590  177.5070  142.6300 N   0  0  0  0  0  0  0  0  0  0  0  0
  183.8780  179.0010  145.0490 C   0  0  0  0  0  3  0  0  0  0  0  0
  187.4900  177.8550  145.4260 C   0  0  1  0  0  3  0  0  0  0  0  0
  185.9840  177.9860  143.4460 C   0  0  0  0  0  0  0  0  0  0  0  0
  185.0000  178.5480  145.6040 C   0  0  0  0  0  3  0  0  0  0  0  0
  188.2600  176.9850  143.1990 C   0  0  0  0  0  0  0  0  0  0  0  0
  186.1350  178.0880  144.7800 C   0  0  2  0  0  3  0  0  0  0  0  0
  184.7190  178.3170  142.8380 N   0  0  0  0  0  0  0  0  0  0  0  0
  189.0410  178.9260  147.6390 O   0  0  0  0  0  0  0  0  0  0  0  0
  187.9270  177.6590  149.2320 N   0  0  0  0  0  1  0  0  0  0  0  0
  187.3650  177.4970  146.8400 N   0  0  0  0  0  2  0  0  0  0  0  0
  188.1480  178.0730  147.8910 C   0  0  0  0  0  0  0  0  0  0  0  0
  181.4130  176.9340  139.3790 C   0  0  0  0  0  2  0  0  0  0  0  0
  182.3670  179.2880  138.9700 C   0  0  0  0  0  2  0  0  0  0  0  0
  182.5240  179.2840  140.4930 C   0  0  0  0  0  2  0  0  0  0  0  0
  181.4050  178.1840  138.4880 C   0  0  2  0  0  3  0  0  0  0  0  0
  183.0490  177.9350  141.0120 C   0  0  1  0  0  3  0  0  0  0  0  0
  182.7590  176.7510  140.0740 C   0  0  0  0  0  2  0  0  0  0  0  0
  179.9800  178.7130  138.3880 C   0  0  0  0  0  2  0  0  0  0  0  0
  179.9560  180.1670  137.9370 C   0  0  0  0  0  2  0  0  0  0  0  0
  179.2070  181.0230  138.9410 C   0  0  0  0  0  1  0  0  0  0  0  0
  185.3140  179.0050  140.5450 C   0  0  0  0  0  2  0  0  0  0  0  0
  186.1310  178.2430  139.5190 C   0  0  1  0  0  3  0  0  0  0  0  0
  185.1350  177.1930  137.4820 C   0  0  0  0  0  1  0  0  0  0  0  0
  185.5800  178.4950  138.1230 C   0  0  0  0  0  2  0  0  0  0  0  0
  187.5120  178.6980  139.5900 N   0  0  0  0  0  2  0  0  0  0  0  0
  188.3770  177.5970  139.1890 C   0  0  0  0  0  2  0  0  0  0  0  0
  189.1290  177.9500  137.9140 C   0  0  0  0  0  2  0  0  0  0  0  0
  188.7850  175.5250  137.5270 C   0  0  0  0  0  2  0  0  0  0  0  0
  187.9330  175.4520  136.2840 C   0  0  1  0  0  3  0  0  0  0  0  0
  188.6680  176.0820  135.1930 N   0  0  0  0  0  2  0  0  0  0  0  0
  189.7090  176.6900  137.2930 C   0  0  1  0  0  3  0  0  0  0  0  0
  189.7620  176.8430  135.7880 C   0  0  0  0  0  2  0  0  0  0  0  0
  187.6360  174.0000  135.9520 C   0  0  0  0  0  2  0  0  0  0  0  0
  186.0180  172.9930  137.4760 C   0  0  0  0  0  2  0  0  0  0  0  0
  186.2410  173.6510  136.3420 C   0  0  0  0  0  3  0  0  0  0  0  0
  1 27  1  6  0  0  0
  1 13  1  0  0  0  0
  2  3  1  1  0  0  0
  2  8  1  0  0  0  0
  4  7  1  0  0  0  0
  5 11  2  0  0  0  0
  6 11  1  0  0  0  0
  6  9  2  0  0  0  0
  7 10  2  0  0  0  0
  8 16  1  1  0  0  0
  9 12  1  0  0  0  0
 11  2  1  0  0  0  0
 12  8  1  0  0  0  0
 12 10  1  6  0  0  0
 13  9  1  0  0  0  0
 13  4  1  0  0  0  0
 14 17  2  0  0  0  0
 16 17  1  0  0  0  0
 17 15  1  0  0  0  0
 18 23  1  0  0  0  0
 19 20  1  0  0  0  0
 20 22  1  0  0  0  0
 21 24  1  1  0  0  0
 21 19  1  0  0  0  0
 21 18  1  0  0  0  0
 22  1  1  6  0  0  0
 23 22  1  0  0  0  0
 25 24  1  0  0  0  0
 25 26  1  0  0  0  0
 28 30  1  6  0  0  0
 28 31  1  0  0  0  0
 28 27  1  0  0  0  0
 29 30  1  0  0  0  0
 32 31  1  0  0  0  0
 33 32  1  0  0  0  0
 35 39  1  6  0  0  0
 35 34  1  0  0  0  0
 36 38  1  0  0  0  0
 36 35  1  0  0  0  0
 37 34  1  0  0  0  0
 37 33  1  1  0  0  0
 38 37  1  0  0  0  0
 39 41  1  0  0  0  0
 41 40  2  0  0  0  0
M  END
>  <MODEL>
7

>  <REMARK>
 VINA RESULT:      -7.2      2.796      7.126
  Name = 
  14 active torsions:
  status: ('A' for Active; 'I' for Inactive)
    1  A    between atoms: C_4  and  C_21
    2  A    between atoms: C_4  and  C_35
    3  A    between atoms: C_12  and  C_31
    4  A    between atoms: C_15  and  C_31
    5  A    between atoms: C_16  and  N_28
    6  A    between atoms: N_18  and  C_21
    7  A    between atoms: N_18  and  C_39
    8  A    between atoms: C_24  and  C_26
    9  A    between atoms: C_25  and  C_30
   10  A    between atoms: C_26  and  C_34
   11  A    between atoms: C_30  and  C_32
   12  A    between atoms: C_30  and  N_38
   13  A    between atoms: C_32  and  C_39
   14  A    between atoms: C_36  and  C_39
                            x       y       z     vdW  Elec       q    Type
                         _______ _______ _______ _____ _____    ______ ____

>  <TORSDO>
F 14

$$$$
=
 OpenBabel11032419553D

 41 44  0  0  1  0  0  0  0  0999 V2000
  185.2410  178.8010  140.9110 C   0  0  1  0  0  3  0  0  0  0  0  0
  187.9770  177.3270  136.7500 C   0  0  1  0  0  3  0  0  0  0  0  0
  188.5630  177.6390  135.3800 C   0  0  0  0  0  1  0  0  0  0  0  0
  187.5870  178.6400  141.8670 C   0  0  0  0  0  2  0  0  0  0  0  0
  185.8960  178.2640  136.0010 O   0  0  0  0  0  0  0  0  0  0  0  0
  186.3050  178.4580  138.2800 N   0  0  0  0  0  0  0  0  0  0  0  0
  188.8830  177.9180  141.6370 C   0  0  0  0  0  3  0  0  0  0  0  0
  189.0080  177.6680  137.8390 C   0  0  1  0  0  3  0  0  0  0  0  0
  187.1640  178.2530  139.4080 C   0  0  0  0  0  0  0  0  0  0  0  0
  189.2750  177.5690  140.4140 C   0  0  0  0  0  3  0  0  0  0  0  0
  186.6870  178.0620  136.9620 C   0  0  0  0  0  0  0  0  0  0  0  0
  188.4220  177.8080  139.2330 C   0  0  2  0  0  3  0  0  0  0  0  0
  186.6610  178.4840  140.7390 N   0  0  0  0  0  0  0  0  0  0  0  0
  188.8380  174.7860  137.5010 O   0  0  0  0  0  0  0  0  0  0  0  0
  191.1370  174.4860  137.5930 N   0  0  0  0  0  1  0  0  0  0  0  0
  190.1230  176.7200  137.8090 N   0  0  0  0  0  2  0  0  0  0  0  0
  189.9780  175.3080  137.6210 C   0  0  0  0  0  0  0  0  0  0  0  0
  182.5040  179.3360  138.2150 C   0  0  0  0  0  2  0  0  0  0  0  0
  182.0690  177.6040  140.0660 C   0  0  0  0  0  2  0  0  0  0  0  0
  183.5420  177.2610  139.8310 C   0  0  0  0  0  2  0  0  0  0  0  0
  181.4770  178.4270  138.9040 C   0  0  2  0  0  3  0  0  0  0  0  0
  184.4040  178.5220  139.6560 C   0  0  1  0  0  3  0  0  0  0  0  0
  183.6150  179.7530  139.1730 C   0  0  0  0  0  2  0  0  0  0  0  0
  180.8430  177.5160  137.8620 C   0  0  0  0  0  2  0  0  0  0  0  0
  180.8210  178.1710  136.4880 C   0  0  0  0  0  2  0  0  0  0  0  0
  180.4100  177.1680  135.4270 C   0  0  0  0  0  1  0  0  0  0  0  0
  184.6730  178.1400  142.1600 C   0  0  0  0  0  2  0  0  0  0  0  0
  184.0280  179.1830  143.0550 C   0  0  1  0  0  3  0  0  0  0  0  0
  181.5360  179.3610  143.0250 C   0  0  0  0  0  1  0  0  0  0  0  0
  182.7270  178.6410  143.6300 C   0  0  0  0  0  2  0  0  0  0  0  0
  184.9470  179.5030  144.1370 N   0  0  0  0  0  2  0  0  0  0  0  0
  185.4850  178.2570  144.6640 C   0  0  0  0  0  2  0  0  0  0  0  0
  186.3550  178.5280  145.8830 C   0  0  0  0  0  2  0  0  0  0  0  0
  188.2370  177.1310  145.0740 C   0  0  0  0  0  2  0  0  0  0  0  0
  189.4770  177.8350  145.5680 C   0  0  1  0  0  3  0  0  0  0  0  0
  189.4200  177.8870  147.0250 N   0  0  0  0  0  2  0  0  0  0  0  0
  187.2250  177.3170  146.1730 C   0  0  1  0  0  3  0  0  0  0  0  0
  188.0500  177.5710  147.4170 C   0  0  0  0  0  2  0  0  0  0  0  0
  190.7110  177.0740  145.1150 C   0  0  0  0  0  2  0  0  0  0  0  0
  191.1870  179.1770  143.9730 C   0  0  0  0  0  2  0  0  0  0  0  0
  191.5940  177.9530  144.2970 C   0  0  0  0  0  3  0  0  0  0  0  0
  1 27  1  1  0  0  0
  2  3  1  6  0  0  0
  2 11  1  0  0  0  0
  2  8  1  0  0  0  0
  5 11  2  0  0  0  0
  6  9  2  0  0  0  0
  7  4  1  0  0  0  0
  8 16  1  1  0  0  0
  8 12  1  0  0  0  0
  9 13  1  0  0  0  0
 10  7  2  0  0  0  0
 11  6  1  0  0  0  0
 12  9  1  0  0  0  0
 12 10  1  1  0  0  0
 13  1  1  0  0  0  0
 13  4  1  0  0  0  0
 14 17  2  0  0  0  0
 15 17  1  0  0  0  0
 17 16  1  0  0  0  0
 18 21  1  0  0  0  0
 18 23  1  0  0  0  0
 20 19  1  0  0  0  0
 21 24  1  6  0  0  0
 21 19  1  0  0  0  0
 22 20  1  0  0  0  0
 22  1  1  1  0  0  0
 23 22  1  0  0  0  0
 25 24  1  0  0  0  0
 26 25  1  0  0  0  0
 28 27  1  6  0  0  0
 28 30  1  0  0  0  0
 28 31  1  0  0  0  0
 29 30  1  0  0  0  0
 31 32  1  0  0  0  0
 32 33  1  0  0  0  0
 34 35  1  0  0  0  0
 34 37  1  0  0  0  0
 35 39  1  1  0  0  0
 35 36  1  0  0  0  0
 36 38  1  0  0  0  0
 37 33  1  6  0  0  0
 37 38  1  0  0  0  0
 40 41  2  0  0  0  0
 41 39  1  0  0  0  0
M  END
>  <MODEL>
8

>  <REMARK>
 VINA RESULT:      -7.1      2.457      8.875
  Name = 
  14 active torsions:
  status: ('A' for Active; 'I' for Inactive)
    1  A    between atoms: C_4  and  C_21
    2  A    between atoms: C_4  and  C_35
    3  A    between atoms: C_12  and  C_31
    4  A    between atoms: C_15  and  C_31
    5  A    between atoms: C_16  and  N_28
    6  A    between atoms: N_18  and  C_21
    7  A    between atoms: N_18  and  C_39
    8  A    between atoms: C_24  and  C_26
    9  A    between atoms: C_25  and  C_30
   10  A    between atoms: C_26  and  C_34
   11  A    between atoms: C_30  and  C_32
   12  A    between atoms: C_30  and  N_38
   13  A    between atoms: C_32  and  C_39
   14  A    between atoms: C_36  and  C_39
                            x       y       z     vdW  Elec       q    Type
                         _______ _______ _______ _____ _____    ______ ____

>  <TORSDO>
F 14

$$$$
=
 OpenBabel11032419553D

 41 44  0  0  1  0  0  0  0  0999 V2000
  184.6740  178.8870  139.1780 C   0  0  1  0  0  3  0  0  0  0  0  0
  189.7250  177.8760  139.8380 C   0  0  1  0  0  3  0  0  0  0  0  0
  190.8420  177.1950  140.6150 C   0  0  0  0  0  1  0  0  0  0  0  0
  185.1660  177.3960  137.1830 C   0  0  0  0  0  2  0  0  0  0  0  0
  188.8200  178.6360  141.9300 O   0  0  0  0  0  0  0  0  0  0  0  0
  187.2590  178.2930  140.2420 N   0  0  0  0  0  2  0  0  0  0  0  0
  186.3050  176.9980  136.2900 C   0  0  0  0  0  3  0  0  0  0  0  0
  189.2490  176.9520  138.7050 C   0  0  1  0  0  3  0  0  0  0  0  0
  186.9470  177.8790  138.9070 C   0  0  0  0  0  0  0  0  0  0  0  0
  187.5540  176.9290  136.7470 C   0  0  0  0  0  3  0  0  0  0  0  0
  188.5950  178.2610  140.7460 C   0  0  0  0  0  0  0  0  0  0  0  0
  187.8900  177.3120  138.1320 C   0  0  0  0  0  0  0  0  0  0  0  0
  185.6270  178.1150  138.3770 N   0  0  0  0  0  0  0  0  0  0  0  0
  190.7470  174.5740  137.9600 O   0  0  0  0  0  0  0  0  0  0  0  0
  191.9270  175.6570  136.2810 N   0  0  0  0  0  1  0  0  0  0  0  0
  190.2700  176.8480  137.6610 N   0  0  0  0  0  2  0  0  0  0  0  0
  190.9650  175.6410  137.3270 C   0  0  0  0  0  0  0  0  0  0  0  0
  181.5370  181.0260  138.3840 C   0  0  0  0  0  2  0  0  0  0  0  0
  181.2350  178.4910  138.7030 C   0  0  0  0  0  2  0  0  0  0  0  0
  182.5360  178.4260  137.8980 C   0  0  0  0  0  2  0  0  0  0  0  0
  180.5490  179.8670  138.5770 C   0  0  2  0  0  3  0  0  0  0  0  0
  183.5410  179.5000  138.3440 C   0  0  1  0  0  3  0  0  0  0  0  0
  182.8900  180.7200  139.0190 C   0  0  0  0  0  2  0  0  0  0  0  0
  179.5490  179.8710  137.4290 C   0  0  0  0  0  2  0  0  0  0  0  0
  180.0080  180.7750  136.2930 C   0  0  0  0  0  2  0  0  0  0  0  0
  180.3670  179.9520  135.0700 C   0  0  0  0  0  1  0  0  0  0  0  0
  184.1660  178.0800  140.3660 C   0  0  0  0  0  2  0  0  0  0  0  0
  183.9180  178.9940  141.5510 C   0  0  1  0  0  3  0  0  0  0  0  0
  181.5210  179.0220  142.2580 C   0  0  0  0  0  1  0  0  0  0  0  0
  182.8790  178.3780  142.4760 C   0  0  0  0  0  2  0  0  0  0  0  0
  185.1700  179.1750  142.2720 N   0  0  0  0  0  2  0  0  0  0  0  0
  185.3040  178.0900  143.2340 C   0  0  0  0  0  2  0  0  0  0  0  0
  185.8090  178.6220  144.5680 C   0  0  0  0  0  2  0  0  0  0  0  0
  187.7470  177.0890  144.7670 C   0  0  0  0  0  2  0  0  0  0  0  0
  188.7800  177.8740  145.5350 C   0  0  1  0  0  3  0  0  0  0  0  0
  188.2160  178.2160  146.8360 N   0  0  0  0  0  2  0  0  0  0  0  0
  186.4280  177.4920  145.3720 C   0  0  1  0  0  3  0  0  0  0  0  0
  186.7760  177.9870  146.7590 C   0  0  0  0  0  2  0  0  0  0  0  0
  190.0350  177.0370  145.7080 C   0  0  0  0  0  2  0  0  0  0  0  0
  191.6170  176.1560  144.0730 C   0  0  0  0  0  2  0  0  0  0  0  0
  190.9370  177.2020  144.5330 C   0  0  0  0  0  3  0  0  0  0  0  0
  1 27  1  1  0  0  0
  2  3  1  1  0  0  0
  2 11  1  0  0  0  0
  4 13  1  0  0  0  0
  6 11  1  0  0  0  0
  7 10  2  0  0  0  0
  7  4  1  0  0  0  0
  8 16  1  6  0  0  0
  8  2  1  0  0  0  0
  9  6  1  0  0  0  0
 10 12  1  0  0  0  0
 11  5  2  0  0  0  0
 12  8  1  0  0  0  0
 12  9  2  0  0  0  0
 13  9  1  0  0  0  0
 13  1  1  0  0  0  0
 15 17  1  0  0  0  0
 17 16  1  0  0  0  0
 17 14  2  0  0  0  0
 18 21  1  0  0  0  0
 18 23  1  0  0  0  0
 20 22  1  0  0  0  0
 20 19  1  0  0  0  0
 21 24  1  6  0  0  0
 21 19  1  0  0  0  0
 22 23  1  0  0  0  0
 22  1  1  1  0  0  0
 25 24  1  0  0  0  0
 26 25  1  0  0  0  0
 28 27  1  6  0  0  0
 28 31  1  0  0  0  0
 28 30  1  0  0  0  0
 29 30  1  0  0  0  0
 31 32  1  0  0  0  0
 32 33  1  0  0  0  0
 34 37  1  0  0  0  0
 34 35  1  0  0  0  0
 35 39  1  1  0  0  0
 35 36  1  0  0  0  0
 37 33  1  6  0  0  0
 37 38  1  0  0  0  0
 38 36  1  0  0  0  0
 40 41  2  0  0  0  0
 41 39  1  0  0  0  0
M  END
>  <MODEL>
9

>  <REMARK>
 VINA RESULT:      -7.1      2.482      9.411
  Name = 
  14 active torsions:
  status: ('A' for Active; 'I' for Inactive)
    1  A    between atoms: C_4  and  C_21
    2  A    between atoms: C_4  and  C_35
    3  A    between atoms: C_12  and  C_31
    4  A    between atoms: C_15  and  C_31
    5  A    between atoms: C_16  and  N_28
    6  A    between atoms: N_18  and  C_21
    7  A    between atoms: N_18  and  C_39
    8  A    between atoms: C_24  and  C_26
    9  A    between atoms: C_25  and  C_30
   10  A    between atoms: C_26  and  C_34
   11  A    between atoms: C_30  and  C_32
   12  A    between atoms: C_30  and  N_38
   13  A    between atoms: C_32  and  C_39
   14  A    between atoms: C_36  and  C_39
                            x       y       z     vdW  Elec       q    Type
                         _______ _______ _______ _____ _____    ______ ____

>  <TORSDO>
F 14

$$$$
