=
 OpenBabel11032419293D

 36 39  0  0  1  0  0  0  0  0999 V2000
  189.5190  177.2150  137.0670 C   0  0  0  0  0  3  0  0  0  0  0  0
  188.4110  177.1000  138.0800 C   0  0  1  0  0  3  0  0  0  0  0  0
  190.9100  175.8830  138.5830 C   0  0  0  0  0  2  0  0  0  0  0  0
  188.9600  177.3220  139.5020 C   0  0  0  0  0  2  0  0  0  0  0  0
  190.6990  176.6360  137.3020 C   0  0  0  0  0  3  0  0  0  0  0  0
  190.3200  176.6460  139.7810 C   0  0  2  0  0  3  0  0  0  0  0  0
  187.2970  178.1050  137.7750 C   0  0  2  0  0  3  0  0  0  0  0  0
  187.8560  179.2770  137.1180 N   0  0  0  0  0  1  0  0  0  0  0  0
  186.6580  178.5050  138.9570 O   0  0  0  0  0  0  0  0  0  0  0  0
  185.3000  178.6240  138.6270 C   0  0  1  0  0  3  0  0  0  0  0  0
  184.8720  177.4340  137.7880 C   0  0  0  0  0  1  0  0  0  0  0  0
  184.4250  178.7040  139.8800 C   0  0  1  0  0  3  0  0  0  0  0  0
  185.1340  179.3210  140.9930 N   0  0  0  0  0  2  0  0  0  0  0  0
  184.8100  178.5480  142.1790 C   0  0  0  0  0  2  0  0  0  0  0  0
  183.4330  178.9500  144.2060 C   0  0  0  0  0  2  0  0  0  0  0  0
  185.1940  179.6480  145.7210 F   0  0  0  0  0  0  0  0  0  0  0  0
  185.3430  177.5140  144.6660 F   0  0  0  0  0  0  0  0  0  0  0  0
  184.8620  178.8120  144.6730 C   0  0  0  0  0  0  0  0  0  0  0  0
  184.5710  179.4890  143.3460 C   0  0  1  0  0  3  0  0  0  0  0  0
  183.1010  179.4120  139.6160 C   0  0  0  0  0  2  0  0  0  0  0  0
  183.2880  180.5510  138.8320 O   0  0  0  0  0  0  0  0  0  0  0  0
  181.9970  180.9760  138.5200 C   0  0  0  0  0  1  0  0  0  0  0  0
  191.3130  177.6570  140.3550 C   0  0  0  0  0  2  0  0  0  0  0  0
  191.4010  177.5450  141.7480 O   0  0  0  0  0  0  0  0  0  0  0  0
  190.6770  176.3940  142.0720 C   0  0  0  0  0  2  0  0  0  0  0  0
  187.7750  178.0700  147.4000 C   0  0  0  0  0  3  0  0  0  0  0  0
  188.0230  177.8760  146.0290 C   0  0  0  0  0  3  0  0  0  0  0  0
  188.9000  177.6910  148.2250 C   0  0  0  0  0  0  0  0  0  0  0  0
  191.7300  176.7050  144.3120 C   0  0  0  0  0  2  0  0  0  0  0  0
  191.5410  176.4540  145.8070 C   0  0  0  0  0  2  0  0  0  0  0  0
  190.4540  176.3310  143.5740 C   0  0  1  0  0  3  0  0  0  0  0  0
  189.1980  177.3630  145.4830 C   0  0  0  0  0  0  0  0  0  0  0  0
  190.1080  177.2030  147.6640 N   0  0  0  0  0  0  0  0  0  0  0  0
  190.2660  177.0550  146.3300 C   0  0  0  0  0  0  0  0  0  0  0  0
  188.1680  177.9660  148.8590 C   0  0  0  0  0  1  0  0  0  0  0  0
  189.3260  177.2730  143.9900 C   0  0  0  0  0  2  0  0  0  0  0  0
  1  5  2  0  0  0  0
  1  2  1  0  0  0  0
  2  7  1  6  0  0  0
  2  4  1  0  0  0  0
  3  6  1  0  0  0  0
  4  6  1  0  0  0  0
  5  3  1  0  0  0  0
  6 23  1  6  0  0  0
  7  8  1  1  0  0  0
  7  9  1  0  0  0  0
 10 11  1  1  0  0  0
 10  9  1  0  0  0  0
 10 12  1  0  0  0  0
 12 20  1  6  0  0  0
 12 13  1  0  0  0  0
 13 14  1  0  0  0  0
 15 18  1  0  0  0  0
 17 18  1  0  0  0  0
 18 16  1  0  0  0  0
 19 14  1  6  0  0  0
 19 15  1  0  0  0  0
 19 18  1  0  0  0  0
 21 20  1  0  0  0  0
 22 21  1  0  0  0  0
 23 24  1  0  0  0  0
 24 25  1  0  0  0  0
 26 28  1  0  0  0  0
 27 26  2  0  0  0  0
 28 35  1  0  0  0  0
 29 30  1  0  0  0  0
 30 34  1  0  0  0  0
 31 25  1  6  0  0  0
 31 36  1  0  0  0  0
 31 29  1  0  0  0  0
 32 27  1  0  0  0  0
 32 34  2  0  0  0  0
 33 28  2  0  0  0  0
 34 33  1  0  0  0  0
 36 32  1  0  0  0  0
M  END
>  <MODEL>
1

>  <REMARK>
 VINA RESULT:      -8.9      0.000      0.000
  Name = 
  13 active torsions:
  status: ('A' for Active; 'I' for Inactive)
    1  A    between atoms: O_1  and  C_21
    2  A    between atoms: O_2  and  C_12
    3  A    between atoms: O_2  and  C_25
    4  A    between atoms: C_6  and  C_12
    5  A    between atoms: C_7  and  C_17
    6  A    between atoms: C_7  and  O_22
    7  A    between atoms: C_9  and  O_22
    8  A    between atoms: C_9  and  C_35
    9  A    between atoms: N_13  and  C_20
   10  A    between atoms: N_13  and  C_33
   11  A    between atoms: C_20  and  C_36
   12  A    between atoms: C_21  and  C_33
   13  A    between atoms: C_25  and  C_33
                            x       y       z     vdW  Elec       q    Type
                         _______ _______ _______ _____ _____    ______ ____

>  <TORSDO>
F 13

$$$$
=
 OpenBabel11032419293D

 36 39  0  0  1  0  0  0  0  0999 V2000
  189.9600  178.8470  143.1530 C   0  0  0  0  0  3  0  0  0  0  0  0
  190.1670  177.4600  142.6040 C   0  0  1  0  0  3  0  0  0  0  0  0
  192.0370  178.5470  144.4210 C   0  0  0  0  0  2  0  0  0  0  0  0
  190.6070  176.5010  143.7260 C   0  0  0  0  0  2  0  0  0  0  0  0
  190.8470  179.3640  144.0080 C   0  0  0  0  0  3  0  0  0  0  0  0
  191.6380  177.0900  144.7120 C   0  0  2  0  0  3  0  0  0  0  0  0
  188.8870  176.9500  141.9380 C   0  0  2  0  0  3  0  0  0  0  0  0
  188.2870  175.9060  142.7530 N   0  0  0  0  0  1  0  0  0  0  0  0
  189.1660  176.4330  140.6660 O   0  0  0  0  0  0  0  0  0  0  0  0
  189.1110  177.5290  139.7930 C   0  0  1  0  0  3  0  0  0  0  0  0
  190.4220  177.6470  139.0380 C   0  0  0  0  0  1  0  0  0  0  0  0
  187.9600  177.3940  138.7950 C   0  0  1  0  0  3  0  0  0  0  0  0
  187.2930  178.6690  138.5680 N   0  0  0  0  0  2  0  0  0  0  0  0
  185.9030  178.3710  138.2700 C   0  0  0  0  0  2  0  0  0  0  0  0
  183.9190  179.3710  139.3780 C   0  0  0  0  0  2  0  0  0  0  0  0
  183.0480  177.3780  140.4530 F   0  0  0  0  0  0  0  0  0  0  0  0
  183.3460  177.3910  138.0860 F   0  0  0  0  0  0  0  0  0  0  0  0
  183.6860  177.8810  139.3360 C   0  0  0  0  0  0  0  0  0  0  0  0
  185.0910  178.4120  139.5520 C   0  0  1  0  0  3  0  0  0  0  0  0
  188.4060  176.7690  137.4790 C   0  0  0  0  0  2  0  0  0  0  0  0
  188.1390  175.3990  137.4580 O   0  0  0  0  0  0  0  0  0  0  0  0
  187.5240  175.1820  136.2250 C   0  0  0  0  0  1  0  0  0  0  0  0
  191.1670  176.9070  146.1550 C   0  0  0  0  0  2  0  0  0  0  0  0
  189.8150  176.5460  146.2040 O   0  0  0  0  0  0  0  0  0  0  0  0
  189.2260  177.4460  147.0980 C   0  0  0  0  0  2  0  0  0  0  0  0
  184.3490  178.5300  143.2680 C   0  0  0  0  0  3  0  0  0  0  0  0
  185.6490  178.2160  143.7050 C   0  0  0  0  0  3  0  0  0  0  0  0
  183.4750  178.9040  144.3580 C   0  0  0  0  0  0  0  0  0  0  0  0
  187.1180  178.6520  147.6690 C   0  0  0  0  0  2  0  0  0  0  0  0
  185.6020  178.6380  147.4820 C   0  0  0  0  0  2  0  0  0  0  0  0
  187.7430  177.5780  146.7920 C   0  0  1  0  0  3  0  0  0  0  0  0
  186.0860  178.2320  145.0270 C   0  0  0  0  0  0  0  0  0  0  0  0
  183.9330  178.9550  145.7000 N   0  0  0  0  0  0  0  0  0  0  0  0
  185.2050  178.6440  146.0310 C   0  0  0  0  0  0  0  0  0  0  0  0
  182.9070  178.9130  143.5270 C   0  0  0  0  0  1  0  0  0  0  0  0
  187.5260  177.9260  145.3210 C   0  0  0  0  0  2  0  0  0  0  0  0
  1  5  2  0  0  0  0
  2  7  1  1  0  0  0
  2  1  1  0  0  0  0
  2  4  1  0  0  0  0
  3  6  1  0  0  0  0
  4  6  1  0  0  0  0
  5  3  1  0  0  0  0
  6 23  1  1  0  0  0
  7  8  1  1  0  0  0
  9  7  1  0  0  0  0
 10 11  1  6  0  0  0
 10  9  1  0  0  0  0
 12 20  1  6  0  0  0
 12 10  1  0  0  0  0
 13 12  1  0  0  0  0
 14 13  1  0  0  0  0
 15 19  1  0  0  0  0
 17 18  1  0  0  0  0
 18 15  1  0  0  0  0
 18 19  1  0  0  0  0
 18 16  1  0  0  0  0
 19 14  1  6  0  0  0
 21 20  1  0  0  0  0
 22 21  1  0  0  0  0
 23 24  1  0  0  0  0
 24 25  1  0  0  0  0
 26 27  2  0  0  0  0
 26 28  1  0  0  0  0
 27 32  1  0  0  0  0
 28 33  2  0  0  0  0
 30 29  1  0  0  0  0
 31 25  1  6  0  0  0
 31 29  1  0  0  0  0
 32 36  1  0  0  0  0
 32 34  2  0  0  0  0
 33 34  1  0  0  0  0
 34 30  1  0  0  0  0
 35 28  1  0  0  0  0
 36 31  1  0  0  0  0
M  END
>  <MODEL>
2

>  <REMARK>
 VINA RESULT:      -8.6      2.482      5.551
  Name = 
  13 active torsions:
  status: ('A' for Active; 'I' for Inactive)
    1  A    between atoms: O_1  and  C_21
    2  A    between atoms: O_2  and  C_12
    3  A    between atoms: O_2  and  C_25
    4  A    between atoms: C_6  and  C_12
    5  A    between atoms: C_7  and  C_17
    6  A    between atoms: C_7  and  O_22
    7  A    between atoms: C_9  and  O_22
    8  A    between atoms: C_9  and  C_35
    9  A    between atoms: N_13  and  C_20
   10  A    between atoms: N_13  and  C_33
   11  A    between atoms: C_20  and  C_36
   12  A    between atoms: C_21  and  C_33
   13  A    between atoms: C_25  and  C_33
                            x       y       z     vdW  Elec       q    Type
                         _______ _______ _______ _____ _____    ______ ____

>  <TORSDO>
F 13

$$$$
=
 OpenBabel11032419293D

 36 39  0  0  1  0  0  0  0  0999 V2000
  189.9860  176.3390  139.1590 C   0  0  0  0  0  3  0  0  0  0  0  0
  189.9150  177.6960  139.8070 C   0  0  1  0  0  3  0  0  0  0  0  0
  190.0800  177.4860  136.9950 C   0  0  0  0  0  2  0  0  0  0  0  0
  188.9420  178.6070  139.0360 C   0  0  0  0  0  2  0  0  0  0  0  0
  190.0690  176.2390  137.8300 C   0  0  0  0  0  3  0  0  0  0  0  0
  189.0410  178.5020  137.4990 C   0  0  2  0  0  3  0  0  0  0  0  0
  189.4830  177.5710  141.2700 C   0  0  2  0  0  3  0  0  0  0  0  0
  188.5710  178.6520  141.6100 N   0  0  0  0  0  1  0  0  0  0  0  0
  190.5960  177.6280  142.1190 O   0  0  0  0  0  0  0  0  0  0  0  0
  190.2320  176.9090  143.2660 C   0  0  1  0  0  3  0  0  0  0  0  0
  190.6780  175.4650  143.1270 C   0  0  0  0  0  1  0  0  0  0  0  0
  190.8530  177.5130  144.5270 C   0  0  1  0  0  3  0  0  0  0  0  0
  189.8520  178.1720  145.3560 N   0  0  0  0  0  2  0  0  0  0  0  0
  188.7220  177.2650  145.4550 C   0  0  0  0  0  2  0  0  0  0  0  0
  186.2590  177.1790  145.7540 C   0  0  0  0  0  2  0  0  0  0  0  0
  185.9260  179.3720  146.7370 F   0  0  0  0  0  0  0  0  0  0  0  0
  187.4080  177.8320  147.7970 F   0  0  0  0  0  0  0  0  0  0  0  0
  186.7670  178.2790  146.6540 C   0  0  0  0  0  0  0  0  0  0  0  0
  187.4300  178.0480  145.3090 C   0  0  1  0  0  3  0  0  0  0  0  0
  191.6390  176.4870  145.3340 C   0  0  0  0  0  2  0  0  0  0  0  0
  191.9900  176.9950  146.5860 O   0  0  0  0  0  0  0  0  0  0  0  0
  191.8180  175.9200  147.4590 C   0  0  0  0  0  1  0  0  0  0  0  0
  187.6610  178.2540  136.8880 C   0  0  0  0  0  2  0  0  0  0  0  0
  186.6710  178.9780  137.5630 O   0  0  0  0  0  0  0  0  0  0  0  0
  185.5470  178.1460  137.5710 C   0  0  0  0  0  2  0  0  0  0  0  0
  184.4820  179.4090  143.6450 C   0  0  0  0  0  3  0  0  0  0  0  0
  185.1600  179.2390  142.4250 C   0  0  0  0  0  3  0  0  0  0  0  0
  183.0890  179.0290  143.5610 C   0  0  0  0  0  0  0  0  0  0  0  0
  183.5610  177.4550  138.9150 C   0  0  0  0  0  2  0  0  0  0  0  0
  182.5680  177.9270  139.9750 C   0  0  0  0  0  2  0  0  0  0  0  0
  184.6520  178.5010  138.7470 C   0  0  1  0  0  3  0  0  0  0  0  0
  184.5920  178.7790  141.2390 C   0  0  0  0  0  0  0  0  0  0  0  0
  182.5220  178.5250  142.3620 N   0  0  0  0  0  0  0  0  0  0  0  0
  183.2500  178.3880  141.2330 C   0  0  0  0  0  0  0  0  0  0  0  0
  183.2280  179.3810  144.4950 C   0  0  0  0  0  1  0  0  0  0  0  0
  185.4690  178.6000  140.0340 C   0  0  0  0  0  2  0  0  0  0  0  0
  1  2  1  0  0  0  0
  2  7  1  1  0  0  0
  3  6  1  0  0  0  0
  3  5  1  0  0  0  0
  4  2  1  0  0  0  0
  5  1  2  0  0  0  0
  6 23  1  1  0  0  0
  6  4  1  0  0  0  0
  7  8  1  1  0  0  0
  7  9  1  0  0  0  0
  9 10  1  0  0  0  0
 10 11  1  6  0  0  0
 10 12  1  0  0  0  0
 12 20  1  1  0  0  0
 12 13  1  0  0  0  0
 13 14  1  0  0  0  0
 15 18  1  0  0  0  0
 18 16  1  0  0  0  0
 18 17  1  0  0  0  0
 19 14  1  1  0  0  0
 19 15  1  0  0  0  0
 19 18  1  0  0  0  0
 20 21  1  0  0  0  0
 21 22  1  0  0  0  0
 23 24  1  0  0  0  0
 24 25  1  0  0  0  0
 27 26  2  0  0  0  0
 28 26  1  0  0  0  0
 28 35  1  0  0  0  0
 29 30  1  0  0  0  0
 30 34  1  0  0  0  0
 31 25  1  6  0  0  0
 31 29  1  0  0  0  0
 31 36  1  0  0  0  0
 32 27  1  0  0  0  0
 33 28  2  0  0  0  0
 34 32  2  0  0  0  0
 34 33  1  0  0  0  0
 36 32  1  0  0  0  0
M  END
>  <MODEL>
3

>  <REMARK>
 VINA RESULT:      -8.5      1.827      6.754
  Name = 
  13 active torsions:
  status: ('A' for Active; 'I' for Inactive)
    1  A    between atoms: O_1  and  C_21
    2  A    between atoms: O_2  and  C_12
    3  A    between atoms: O_2  and  C_25
    4  A    between atoms: C_6  and  C_12
    5  A    between atoms: C_7  and  C_17
    6  A    between atoms: C_7  and  O_22
    7  A    between atoms: C_9  and  O_22
    8  A    between atoms: C_9  and  C_35
    9  A    between atoms: N_13  and  C_20
   10  A    between atoms: N_13  and  C_33
   11  A    between atoms: C_20  and  C_36
   12  A    between atoms: C_21  and  C_33
   13  A    between atoms: C_25  and  C_33
                            x       y       z     vdW  Elec       q    Type
                         _______ _______ _______ _____ _____    ______ ____

>  <TORSDO>
F 13

$$$$
=
 OpenBabel11032419293D

 36 39  0  0  1  0  0  0  0  0999 V2000
  184.4580  176.5130  137.8750 C   0  0  0  0  0  3  0  0  0  0  0  0
  185.3500  177.6200  137.3800 C   0  0  1  0  0  3  0  0  0  0  0  0
  182.7230  178.2060  138.2370 C   0  0  0  0  0  2  0  0  0  0  0  0
  185.2320  178.8530  138.2950 C   0  0  0  0  0  2  0  0  0  0  0  0
  183.2140  176.7890  138.2760 C   0  0  0  0  0  3  0  0  0  0  0  0
  183.7940  179.1810  138.7540 C   0  0  2  0  0  3  0  0  0  0  0  0
  186.8040  177.1470  137.3070 C   0  0  2  0  0  3  0  0  0  0  0  0
  186.8460  175.7010  137.1600 N   0  0  0  0  0  1  0  0  0  0  0  0
  187.4980  177.5090  138.4690 O   0  0  0  0  0  0  0  0  0  0  0  0
  188.8450  177.6000  138.0900 C   0  0  1  0  0  3  0  0  0  0  0  0
  189.0630  178.8630  137.2780 C   0  0  0  0  0  1  0  0  0  0  0  0
  189.7710  177.6130  139.3080 C   0  0  1  0  0  3  0  0  0  0  0  0
  189.0190  177.5540  140.5550 N   0  0  0  0  0  2  0  0  0  0  0  0
  189.8150  176.7770  141.4900 C   0  0  0  0  0  2  0  0  0  0  0  0
  190.7870  176.7300  143.7740 C   0  0  0  0  0  2  0  0  0  0  0  0
  191.8160  178.9280  143.7870 F   0  0  0  0  0  0  0  0  0  0  0  0
  192.4280  177.3640  142.0920 F   0  0  0  0  0  0  0  0  0  0  0  0
  191.5060  177.8220  143.0190 C   0  0  0  0  0  0  0  0  0  0  0  0
  190.0310  177.5810  142.7590 C   0  0  1  0  0  3  0  0  0  0  0  0
  190.8190  176.5080  139.2500 C   0  0  0  0  0  2  0  0  0  0  0  0
  190.4170  175.4790  138.3970 O   0  0  0  0  0  0  0  0  0  0  0  0
  191.5860  175.0920  137.7420 C   0  0  0  0  0  1  0  0  0  0  0  0
  183.7380  179.3340  140.2740 C   0  0  0  0  0  2  0  0  0  0  0  0
  185.0080  179.1880  140.8450 O   0  0  0  0  0  0  0  0  0  0  0  0
  184.8930  178.1050  141.7230 C   0  0  0  0  0  2  0  0  0  0  0  0
  188.2610  177.6310  147.0200 C   0  0  0  0  0  3  0  0  0  0  0  0
  187.8750  177.4820  145.6750 C   0  0  0  0  0  3  0  0  0  0  0  0
  187.2580  178.3080  147.8110 C   0  0  0  0  0  0  0  0  0  0  0  0
  184.0770  178.4800  144.0510 C   0  0  0  0  0  2  0  0  0  0  0  0
  184.4440  179.0950  145.4000 C   0  0  0  0  0  2  0  0  0  0  0  0
  185.2840  178.5380  143.1270 C   0  0  1  0  0  3  0  0  0  0  0  0
  186.6800  177.9340  145.1210 C   0  0  0  0  0  0  0  0  0  0  0  0
  186.0260  178.7340  147.2520 N   0  0  0  0  0  0  0  0  0  0  0  0
  185.7320  178.5440  145.9470 C   0  0  0  0  0  0  0  0  0  0  0  0
  188.0380  178.1450  148.4270 C   0  0  0  0  0  1  0  0  0  0  0  0
  186.3930  177.6430  143.6760 C   0  0  0  0  0  2  0  0  0  0  0  0
  1  5  2  0  0  0  0
  2  7  1  1  0  0  0
  2  1  1  0  0  0  0
  2  4  1  0  0  0  0
  3  5  1  0  0  0  0
  3  6  1  0  0  0  0
  4  6  1  0  0  0  0
  6 23  1  1  0  0  0
  7  8  1  1  0  0  0
  7  9  1  0  0  0  0
 10 11  1  1  0  0  0
 10  9  1  0  0  0  0
 10 12  1  0  0  0  0
 12 20  1  6  0  0  0
 12 13  1  0  0  0  0
 13 14  1  0  0  0  0
 17 18  1  0  0  0  0
 18 15  1  0  0  0  0
 18 16  1  0  0  0  0
 19 14  1  6  0  0  0
 19 18  1  0  0  0  0
 19 15  1  0  0  0  0
 21 20  1  0  0  0  0
 22 21  1  0  0  0  0
 23 24  1  0  0  0  0
 24 25  1  0  0  0  0
 26 28  1  0  0  0  0
 27 26  2  0  0  0  0
 28 35  1  0  0  0  0
 29 30  1  0  0  0  0
 30 34  1  0  0  0  0
 31 25  1  6  0  0  0
 31 36  1  0  0  0  0
 31 29  1  0  0  0  0
 32 27  1  0  0  0  0
 32 34  2  0  0  0  0
 33 28  2  0  0  0  0
 34 33  1  0  0  0  0
 36 32  1  0  0  0  0
M  END
>  <MODEL>
4

>  <REMARK>
 VINA RESULT:      -8.5      2.446      5.856
  Name = 
  13 active torsions:
  status: ('A' for Active; 'I' for Inactive)
    1  A    between atoms: O_1  and  C_21
    2  A    between atoms: O_2  and  C_12
    3  A    between atoms: O_2  and  C_25
    4  A    between atoms: C_6  and  C_12
    5  A    between atoms: C_7  and  C_17
    6  A    between atoms: C_7  and  O_22
    7  A    between atoms: C_9  and  O_22
    8  A    between atoms: C_9  and  C_35
    9  A    between atoms: N_13  and  C_20
   10  A    between atoms: N_13  and  C_33
   11  A    between atoms: C_20  and  C_36
   12  A    between atoms: C_21  and  C_33
   13  A    between atoms: C_25  and  C_33
                            x       y       z     vdW  Elec       q    Type
                         _______ _______ _______ _____ _____    ______ ____

>  <TORSDO>
F 13

$$$$
=
 OpenBabel11032419293D

 36 39  0  0  1  0  0  0  0  0999 V2000
  191.3520  177.4930  141.4290 C   0  0  0  0  0  3  0  0  0  0  0  0
  189.9010  177.0910  141.4710 C   0  0  1  0  0  3  0  0  0  0  0  0
  191.6960  176.0880  143.4080 C   0  0  0  0  0  2  0  0  0  0  0  0
  189.3750  177.1320  142.9180 C   0  0  0  0  0  2  0  0  0  0  0  0
  192.2020  177.0150  142.3420 C   0  0  0  0  0  3  0  0  0  0  0  0
  190.3510  176.5730  143.9760 C   0  0  2  0  0  3  0  0  0  0  0  0
  189.0640  178.0040  140.5720 C   0  0  2  0  0  3  0  0  0  0  0  0
  187.8580  178.4170  141.2740 N   0  0  0  0  0  1  0  0  0  0  0  0
  188.7020  177.3380  139.3940 O   0  0  0  0  0  0  0  0  0  0  0  0
  188.0730  178.3040  138.5940 C   0  0  1  0  0  3  0  0  0  0  0  0
  189.0020  178.7170  137.4670 C   0  0  0  0  0  1  0  0  0  0  0  0
  186.7630  177.7770  138.0060 C   0  0  1  0  0  3  0  0  0  0  0  0
  185.7470  178.8190  137.9400 N   0  0  0  0  0  2  0  0  0  0  0  0
  184.8310  178.5840  139.0430 C   0  0  0  0  0  2  0  0  0  0  0  0
  183.0210  177.0380  139.7460 C   0  0  0  0  0  2  0  0  0  0  0  0
  181.2110  177.9500  138.4130 F   0  0  0  0  0  0  0  0  0  0  0  0
  182.3610  179.3710  139.9470 F   0  0  0  0  0  0  0  0  0  0  0  0
  182.3480  178.2450  139.1400 C   0  0  0  0  0  0  0  0  0  0  0  0
  183.6590  177.7500  138.5590 C   0  0  1  0  0  3  0  0  0  0  0  0
  186.9620  177.1220  136.6440 C   0  0  0  0  0  2  0  0  0  0  0  0
  187.0250  175.7330  136.7600 O   0  0  0  0  0  0  0  0  0  0  0  0
  185.7400  175.2970  136.4360 C   0  0  0  0  0  1  0  0  0  0  0  0
  190.5430  177.5770  145.1130 C   0  0  0  0  0  2  0  0  0  0  0  0
  189.3410  178.2240  145.4250 O   0  0  0  0  0  0  0  0  0  0  0  0
  188.6600  177.3460  146.2730 C   0  0  0  0  0  2  0  0  0  0  0  0
  183.5080  178.6960  142.9170 C   0  0  0  0  0  3  0  0  0  0  0  0
  184.8320  178.3360  143.2290 C   0  0  0  0  0  3  0  0  0  0  0  0
  182.7390  179.0440  144.0910 C   0  0  0  0  0  0  0  0  0  0  0  0
  186.6390  178.5750  147.0680 C   0  0  0  0  0  2  0  0  0  0  0  0
  185.1130  178.6020  147.0100 C   0  0  0  0  0  2  0  0  0  0  0  0
  187.1600  177.5240  146.1010 C   0  0  1  0  0  3  0  0  0  0  0  0
  185.3780  178.2870  144.5100 C   0  0  0  0  0  0  0  0  0  0  0  0
  183.3090  179.0300  145.3900 N   0  0  0  0  0  0  0  0  0  0  0  0
  184.5950  178.6770  145.6000 C   0  0  0  0  0  0  0  0  0  0  0  0
  182.1030  179.1000  143.3130 C   0  0  0  0  0  1  0  0  0  0  0  0
  186.8290  177.9370  144.6680 C   0  0  0  0  0  2  0  0  0  0  0  0
  1  2  1  0  0  0  0
  1  5  2  0  0  0  0
  2  7  1  6  0  0  0
  2  4  1  0  0  0  0
  3  6  1  0  0  0  0
  4  6  1  0  0  0  0
  5  3  1  0  0  0  0
  6 23  1  1  0  0  0
  7  8  1  1  0  0  0
  9  7  1  0  0  0  0
 10 11  1  6  0  0  0
 10  9  1  0  0  0  0
 12 20  1  6  0  0  0
 12 10  1  0  0  0  0
 13 12  1  0  0  0  0
 13 14  1  0  0  0  0
 16 18  1  0  0  0  0
 18 15  1  0  0  0  0
 18 17  1  0  0  0  0
 19 14  1  1  0  0  0
 19 18  1  0  0  0  0
 19 15  1  0  0  0  0
 20 21  1  0  0  0  0
 22 21  1  0  0  0  0
 23 24  1  0  0  0  0
 24 25  1  0  0  0  0
 26 27  2  0  0  0  0
 26 28  1  0  0  0  0
 27 32  1  0  0  0  0
 28 33  2  0  0  0  0
 30 29  1  0  0  0  0
 31 25  1  6  0  0  0
 31 29  1  0  0  0  0
 32 36  1  0  0  0  0
 32 34  2  0  0  0  0
 33 34  1  0  0  0  0
 34 30  1  0  0  0  0
 35 28  1  0  0  0  0
 36 31  1  0  0  0  0
M  END
>  <MODEL>
5

>  <REMARK>
 VINA RESULT:      -8.1      2.706      5.237
  Name = 
  13 active torsions:
  status: ('A' for Active; 'I' for Inactive)
    1  A    between atoms: O_1  and  C_21
    2  A    between atoms: O_2  and  C_12
    3  A    between atoms: O_2  and  C_25
    4  A    between atoms: C_6  and  C_12
    5  A    between atoms: C_7  and  C_17
    6  A    between atoms: C_7  and  O_22
    7  A    between atoms: C_9  and  O_22
    8  A    between atoms: C_9  and  C_35
    9  A    between atoms: N_13  and  C_20
   10  A    between atoms: N_13  and  C_33
   11  A    between atoms: C_20  and  C_36
   12  A    between atoms: C_21  and  C_33
   13  A    between atoms: C_25  and  C_33
                            x       y       z     vdW  Elec       q    Type
                         _______ _______ _______ _____ _____    ______ ____

>  <TORSDO>
F 13

$$$$
=
 OpenBabel11032419293D

 36 39  0  0  1  0  0  0  0  0999 V2000
  189.6110  177.7820  146.8750 C   0  0  0  0  0  3  0  0  0  0  0  0
  189.0960  177.3010  145.5440 C   0  0  1  0  0  3  0  0  0  0  0  0
  187.3760  177.3490  147.7840 C   0  0  0  0  0  2  0  0  0  0  0  0
  187.6970  177.8840  145.2690 C   0  0  0  0  0  2  0  0  0  0  0  0
  188.7990  177.8010  147.9360 C   0  0  0  0  0  3  0  0  0  0  0  0
  186.7520  177.8990  146.4900 C   0  0  2  0  0  3  0  0  0  0  0  0
  190.0640  177.6850  144.4230 C   0  0  2  0  0  3  0  0  0  0  0  0
  190.5260  179.0510  144.6150 N   0  0  0  0  0  1  0  0  0  0  0  0
  189.4350  177.5870  143.1740 O   0  0  0  0  0  0  0  0  0  0  0  0
  190.3490  176.9220  142.3440 C   0  0  1  0  0  3  0  0  0  0  0  0
  190.5560  175.5040  142.8460 C   0  0  0  0  0  1  0  0  0  0  0  0
  189.8630  176.8820  140.8940 C   0  0  1  0  0  3  0  0  0  0  0  0
  188.7180  177.7580  140.6870 N   0  0  0  0  0  2  0  0  0  0  0  0
  188.8550  178.3240  139.3560 C   0  0  0  0  0  2  0  0  0  0  0  0
  187.6050  178.5950  137.2280 C   0  0  0  0  0  2  0  0  0  0  0  0
  187.8430  176.3410  136.3650 F   0  0  0  0  0  0  0  0  0  0  0  0
  189.8000  177.6040  136.8810 F   0  0  0  0  0  0  0  0  0  0  0  0
  188.4520  177.3550  137.0780 C   0  0  0  0  0  0  0  0  0  0  0  0
  187.8400  177.6830  138.4270 C   0  0  1  0  0  3  0  0  0  0  0  0
  190.9760  177.1950  139.9020 C   0  0  0  0  0  2  0  0  0  0  0  0
  192.0920  177.7270  140.5500 O   0  0  0  0  0  0  0  0  0  0  0  0
  193.1810  177.1320  139.9140 C   0  0  0  0  0  1  0  0  0  0  0  0
  186.1590  179.2930  146.6920 C   0  0  0  0  0  2  0  0  0  0  0  0
  185.2660  179.6180  145.6640 O   0  0  0  0  0  0  0  0  0  0  0  0
  184.2770  178.6300  145.7090 C   0  0  0  0  0  2  0  0  0  0  0  0
  184.5710  178.9330  139.4280 C   0  0  0  0  0  3  0  0  0  0  0  0
  184.9710  178.9360  140.7770 C   0  0  0  0  0  3  0  0  0  0  0  0
  183.1360  178.8330  139.2780 C   0  0  0  0  0  0  0  0  0  0  0  0
  182.3800  179.0500  144.1430 C   0  0  0  0  0  2  0  0  0  0  0  0
  181.7720  178.6310  142.8060 C   0  0  0  0  0  2  0  0  0  0  0  0
  183.7360  178.3810  144.3110 C   0  0  1  0  0  3  0  0  0  0  0  0
  184.1200  178.8360  141.8750 C   0  0  0  0  0  0  0  0  0  0  0  0
  182.2690  178.7700  140.3990 N   0  0  0  0  0  0  0  0  0  0  0  0
  182.7390  178.7850  141.6650 C   0  0  0  0  0  0  0  0  0  0  0  0
  183.5170  178.8280  138.3460 C   0  0  0  0  0  1  0  0  0  0  0  0
  184.7040  178.9130  143.2560 C   0  0  0  0  0  2  0  0  0  0  0  0
  1  5  2  0  0  0  0
  2  7  1  6  0  0  0
  2  1  1  0  0  0  0
  3  5  1  0  0  0  0
  4  2  1  0  0  0  0
  4  6  1  0  0  0  0
  6 23  1  1  0  0  0
  6  3  1  0  0  0  0
  7  8  1  1  0  0  0
  9  7  1  0  0  0  0
 10 11  1  1  0  0  0
 10  9  1  0  0  0  0
 12 20  1  6  0  0  0
 12 10  1  0  0  0  0
 13 12  1  0  0  0  0
 14 13  1  0  0  0  0
 15 19  1  0  0  0  0
 16 18  1  0  0  0  0
 17 18  1  0  0  0  0
 18 15  1  0  0  0  0
 18 19  1  0  0  0  0
 19 14  1  1  0  0  0
 20 21  1  0  0  0  0
 22 21  1  0  0  0  0
 24 25  1  0  0  0  0
 24 23  1  0  0  0  0
 26 27  1  0  0  0  0
 27 32  2  0  0  0  0
 28 26  2  0  0  0  0
 28 33  1  0  0  0  0
 29 31  1  0  0  0  0
 30 29  1  0  0  0  0
 31 25  1  1  0  0  0
 32 36  1  0  0  0  0
 33 34  2  0  0  0  0
 34 32  1  0  0  0  0
 34 30  1  0  0  0  0
 35 28  1  0  0  0  0
 36 31  1  0  0  0  0
M  END
>  <MODEL>
6

>  <REMARK>
 VINA RESULT:      -8.0      3.086      8.343
  Name = 
  13 active torsions:
  status: ('A' for Active; 'I' for Inactive)
    1  A    between atoms: O_1  and  C_21
    2  A    between atoms: O_2  and  C_12
    3  A    between atoms: O_2  and  C_25
    4  A    between atoms: C_6  and  C_12
    5  A    between atoms: C_7  and  C_17
    6  A    between atoms: C_7  and  O_22
    7  A    between atoms: C_9  and  O_22
    8  A    between atoms: C_9  and  C_35
    9  A    between atoms: N_13  and  C_20
   10  A    between atoms: N_13  and  C_33
   11  A    between atoms: C_20  and  C_36
   12  A    between atoms: C_21  and  C_33
   13  A    between atoms: C_25  and  C_33
                            x       y       z     vdW  Elec       q    Type
                         _______ _______ _______ _____ _____    ______ ____

>  <TORSDO>
F 13

$$$$
=
 OpenBabel11032419293D

 36 39  0  0  1  0  0  0  0  0999 V2000
  189.4740  177.2290  136.8980 C   0  0  0  0  0  3  0  0  0  0  0  0
  188.3520  177.1040  137.8940 C   0  0  1  0  0  3  0  0  0  0  0  0
  190.8130  175.8050  138.3770 C   0  0  0  0  0  2  0  0  0  0  0  0
  188.8900  177.2580  139.3290 C   0  0  0  0  0  2  0  0  0  0  0  0
  190.6370  176.6110  137.1230 C   0  0  0  0  0  3  0  0  0  0  0  0
  190.2290  176.5370  139.5970 C   0  0  2  0  0  3  0  0  0  0  0  0
  187.2680  178.1480  137.6150 C   0  0  2  0  0  3  0  0  0  0  0  0
  187.8740  179.3610  137.0880 N   0  0  0  0  0  1  0  0  0  0  0  0
  186.5710  178.4590  138.7900 O   0  0  0  0  0  0  0  0  0  0  0  0
  185.2360  178.6410  138.3990 C   0  0  1  0  0  3  0  0  0  0  0  0
  184.6770  177.3330  137.8690 C   0  0  0  0  0  1  0  0  0  0  0  0
  184.3720  179.1280  139.5630 C   0  0  1  0  0  3  0  0  0  0  0  0
  183.1110  178.4030  139.6370 N   0  0  0  0  0  2  0  0  0  0  0  0
  182.0520  179.3980  139.6430 C   0  0  0  0  0  2  0  0  0  0  0  0
  180.0580  180.1560  138.3740 C   0  0  0  0  0  2  0  0  0  0  0  0
  181.1820  181.0940  136.4390 F   0  0  0  0  0  0  0  0  0  0  0  0
  181.7170  181.9200  138.6120 F   0  0  0  0  0  0  0  0  0  0  0  0
  181.2420  180.8990  137.8050 C   0  0  0  0  0  0  0  0  0  0  0  0
  181.4130  179.4650  138.2680 C   0  0  1  0  0  3  0  0  0  0  0  0
  185.1110  179.0740  140.8950 C   0  0  0  0  0  2  0  0  0  0  0  0
  184.5590  178.1080  141.7370 O   0  0  0  0  0  0  0  0  0  0  0  0
  185.2800  178.2260  142.9250 C   0  0  0  0  0  1  0  0  0  0  0  0
  191.2400  177.5000  140.2200 C   0  0  0  0  0  2  0  0  0  0  0  0
  191.4330  177.2220  141.5790 O   0  0  0  0  0  0  0  0  0  0  0  0
  190.3800  176.3730  141.9340 C   0  0  0  0  0  2  0  0  0  0  0  0
  187.4820  177.8840  147.3130 C   0  0  0  0  0  3  0  0  0  0  0  0
  187.7020  177.6630  145.9420 C   0  0  0  0  0  3  0  0  0  0  0  0
  188.6790  177.6980  148.1030 C   0  0  0  0  0  0  0  0  0  0  0  0
  191.4660  176.9260  144.1120 C   0  0  0  0  0  2  0  0  0  0  0  0
  191.3700  176.7210  145.6220 C   0  0  0  0  0  2  0  0  0  0  0  0
  190.2260  176.3500  143.4460 C   0  0  1  0  0  3  0  0  0  0  0  0
  188.9140  177.2890  145.3660 C   0  0  0  0  0  0  0  0  0  0  0  0
  189.9200  177.3540  147.5080 N   0  0  0  0  0  0  0  0  0  0  0  0
  190.0450  177.1670  146.1770 C   0  0  0  0  0  0  0  0  0  0  0  0
  187.9410  177.9010  148.7570 C   0  0  0  0  0  1  0  0  0  0  0  0
  188.9970  177.1490  143.8730 C   0  0  0  0  0  2  0  0  0  0  0  0
  1  5  2  0  0  0  0
  1  2  1  0  0  0  0
  2  7  1  6  0  0  0
  2  4  1  0  0  0  0
  3  6  1  0  0  0  0
  4  6  1  0  0  0  0
  5  3  1  0  0  0  0
  6 23  1  6  0  0  0
  7  8  1  1  0  0  0
  7  9  1  0  0  0  0
 10 11  1  1  0  0  0
 10  9  1  0  0  0  0
 10 12  1  0  0  0  0
 12 13  1  0  0  0  0
 12 20  1  1  0  0  0
 13 14  1  0  0  0  0
 16 18  1  0  0  0  0
 18 19  1  0  0  0  0
 18 15  1  0  0  0  0
 18 17  1  0  0  0  0
 19 15  1  0  0  0  0
 19 14  1  1  0  0  0
 20 21  1  0  0  0  0
 21 22  1  0  0  0  0
 23 24  1  0  0  0  0
 24 25  1  0  0  0  0
 26 28  1  0  0  0  0
 27 26  2  0  0  0  0
 28 35  1  0  0  0  0
 29 30  1  0  0  0  0
 30 34  1  0  0  0  0
 31 25  1  6  0  0  0
 31 36  1  0  0  0  0
 31 29  1  0  0  0  0
 32 27  1  0  0  0  0
 32 34  2  0  0  0  0
 33 28  2  0  0  0  0
 34 33  1  0  0  0  0
 36 32  1  0  0  0  0
M  END
>  <MODEL>
7

>  <REMARK>
 VINA RESULT:      -7.8      2.349      3.350
  Name = 
  13 active torsions:
  status: ('A' for Active; 'I' for Inactive)
    1  A    between atoms: O_1  and  C_21
    2  A    between atoms: O_2  and  C_12
    3  A    between atoms: O_2  and  C_25
    4  A    between atoms: C_6  and  C_12
    5  A    between atoms: C_7  and  C_17
    6  A    between atoms: C_7  and  O_22
    7  A    between atoms: C_9  and  O_22
    8  A    between atoms: C_9  and  C_35
    9  A    between atoms: N_13  and  C_20
   10  A    between atoms: N_13  and  C_33
   11  A    between atoms: C_20  and  C_36
   12  A    between atoms: C_21  and  C_33
   13  A    between atoms: C_25  and  C_33
                            x       y       z     vdW  Elec       q    Type
                         _______ _______ _______ _____ _____    ______ ____

>  <TORSDO>
F 13

$$$$
=
 OpenBabel11032419293D

 36 39  0  0  1  0  0  0  0  0999 V2000
  184.4980  179.2280  145.0660 C   0  0  0  0  0  3  0  0  0  0  0  0
  185.4330  178.0670  145.2760 C   0  0  1  0  0  3  0  0  0  0  0  0
  184.1300  178.3920  142.7910 C   0  0  0  0  0  2  0  0  0  0  0  0
  186.3400  177.8800  144.0450 C   0  0  0  0  0  2  0  0  0  0  0  0
  183.8780  179.3800  143.8920 C   0  0  0  0  0  3  0  0  0  0  0  0
  185.6250  178.0450  142.6860 C   0  0  2  0  0  3  0  0  0  0  0  0
  186.2790  178.2790  146.5340 C   0  0  2  0  0  3  0  0  0  0  0  0
  185.7030  179.3420  147.3430 N   0  0  0  0  0  1  0  0  0  0  0  0
  187.5930  178.6260  146.1910 O   0  0  0  0  0  0  0  0  0  0  0  0
  188.4100  177.9780  147.1290 C   0  0  1  0  0  3  0  0  0  0  0  0
  187.6490  176.8270  147.7610 C   0  0  0  0  0  1  0  0  0  0  0  0
  189.6910  177.4470  146.4840 C   0  0  1  0  0  3  0  0  0  0  0  0
  190.1980  178.3580  145.4660 N   0  0  0  0  0  2  0  0  0  0  0  0
  189.7470  177.8500  144.1820 C   0  0  0  0  0  2  0  0  0  0  0  0
  190.3220  176.0000  142.6300 C   0  0  0  0  0  2  0  0  0  0  0  0
  192.0500  174.9270  143.9530 F   0  0  0  0  0  0  0  0  0  0  0  0
  192.2920  177.2260  143.3640 F   0  0  0  0  0  0  0  0  0  0  0  0
  191.4760  176.1310  143.5950 C   0  0  0  0  0  0  0  0  0  0  0  0
  190.0600  176.3680  144.0860 C   0  0  1  0  0  3  0  0  0  0  0  0
  190.7670  177.1250  147.5130 C   0  0  0  0  0  2  0  0  0  0  0  0
  191.9860  176.8460  146.8940 O   0  0  0  0  0  0  0  0  0  0  0  0
  192.3900  175.6320  147.4510 C   0  0  0  0  0  1  0  0  0  0  0  0
  186.3780  179.0380  141.8010 C   0  0  0  0  0  2  0  0  0  0  0  0
  186.7030  178.4690  140.5630 O   0  0  0  0  0  0  0  0  0  0  0  0
  188.0910  178.5930  140.4540 C   0  0  0  0  0  2  0  0  0  0  0  0
  192.1510  174.9970  137.2580 C   0  0  0  0  0  3  0  0  0  0  0  0
  191.4690  175.5940  138.3340 C   0  0  0  0  0  3  0  0  0  0  0  0
  191.7320  175.5250  135.9780 C   0  0  0  0  0  0  0  0  0  0  0  0
  188.7630  178.8600  138.0660 C   0  0  0  0  0  2  0  0  0  0  0  0
  189.0650  178.0940  136.7800 C   0  0  0  0  0  2  0  0  0  0  0  0
  188.5750  177.8720  139.2070 C   0  0  1  0  0  3  0  0  0  0  0  0
  190.4830  176.5720  138.2270 C   0  0  0  0  0  0  0  0  0  0  0  0
  190.7550  176.5480  135.8750 N   0  0  0  0  0  0  0  0  0  0  0  0
  190.1530  177.0720  136.9650 C   0  0  0  0  0  0  0  0  0  0  0  0
  192.3990  174.7990  135.7770 C   0  0  0  0  0  1  0  0  0  0  0  0
  189.8930  177.1490  139.4810 C   0  0  0  0  0  2  0  0  0  0  0  0
  1  2  1  0  0  0  0
  2  7  1  1  0  0  0
  3  5  1  0  0  0  0
  4  2  1  0  0  0  0
  5  1  2  0  0  0  0
  6 23  1  6  0  0  0
  6  3  1  0  0  0  0
  6  4  1  0  0  0  0
  7  8  1  1  0  0  0
  9  7  1  0  0  0  0
  9 10  1  0  0  0  0
 10 11  1  6  0  0  0
 12 10  1  0  0  0  0
 12 20  1  1  0  0  0
 13 12  1  0  0  0  0
 14 13  1  0  0  0  0
 15 18  1  0  0  0  0
 15 19  1  0  0  0  0
 17 18  1  0  0  0  0
 18 16  1  0  0  0  0
 18 19  1  0  0  0  0
 19 14  1  6  0  0  0
 21 22  1  0  0  0  0
 21 20  1  0  0  0  0
 24 23  1  0  0  0  0
 25 24  1  0  0  0  0
 26 27  1  0  0  0  0
 28 26  2  0  0  0  0
 29 31  1  0  0  0  0
 30 34  1  0  0  0  0
 30 29  1  0  0  0  0
 31 36  1  0  0  0  0
 31 25  1  1  0  0  0
 32 27  2  0  0  0  0
 32 36  1  0  0  0  0
 33 28  1  0  0  0  0
 33 34  2  0  0  0  0
 34 32  1  0  0  0  0
 35 28  1  0  0  0  0
M  END
>  <MODEL>
8

>  <REMARK>
 VINA RESULT:      -7.8      3.007      8.880
  Name = 
  13 active torsions:
  status: ('A' for Active; 'I' for Inactive)
    1  A    between atoms: O_1  and  C_21
    2  A    between atoms: O_2  and  C_12
    3  A    between atoms: O_2  and  C_25
    4  A    between atoms: C_6  and  C_12
    5  A    between atoms: C_7  and  C_17
    6  A    between atoms: C_7  and  O_22
    7  A    between atoms: C_9  and  O_22
    8  A    between atoms: C_9  and  C_35
    9  A    between atoms: N_13  and  C_20
   10  A    between atoms: N_13  and  C_33
   11  A    between atoms: C_20  and  C_36
   12  A    between atoms: C_21  and  C_33
   13  A    between atoms: C_25  and  C_33
                            x       y       z     vdW  Elec       q    Type
                         _______ _______ _______ _____ _____    ______ ____

>  <TORSDO>
F 13

$$$$
=
 OpenBabel11032419293D

 36 39  0  0  1  0  0  0  0  0999 V2000
  182.8510  176.6700  138.4730 C   0  0  0  0  0  3  0  0  0  0  0  0
  183.8540  177.7040  138.0340 C   0  0  1  0  0  3  0  0  0  0  0  0
  182.1020  178.2640  140.1780 C   0  0  0  0  0  2  0  0  0  0  0  0
  184.5230  178.3550  139.2580 C   0  0  0  0  0  2  0  0  0  0  0  0
  182.0190  176.9360  139.4840 C   0  0  0  0  0  3  0  0  0  0  0  0
  183.5640  178.6730  140.4250 C   0  0  2  0  0  3  0  0  0  0  0  0
  184.9090  177.0750  137.1200 C   0  0  2  0  0  3  0  0  0  0  0  0
  184.6770  175.6440  137.0090 N   0  0  0  0  0  1  0  0  0  0  0  0
  186.1950  177.2910  137.6320 O   0  0  0  0  0  0  0  0  0  0  0  0
  187.0730  177.0040  136.5770 C   0  0  1  0  0  3  0  0  0  0  0  0
  186.8220  177.9620  135.4270 C   0  0  0  0  0  1  0  0  0  0  0  0
  188.5340  177.1110  137.0180 C   0  0  1  0  0  3  0  0  0  0  0  0
  188.7190  178.1590  138.0140 N   0  0  0  0  0  2  0  0  0  0  0  0
  188.7370  177.5080  139.3120 C   0  0  0  0  0  2  0  0  0  0  0  0
  187.7180  178.4660  141.3630 C   0  0  0  0  0  2  0  0  0  0  0  0
  189.7210  178.6690  142.7160 F   0  0  0  0  0  0  0  0  0  0  0  0
  189.1110  176.5310  141.8500 F   0  0  0  0  0  0  0  0  0  0  0  0
  189.0630  177.9130  141.7660 C   0  0  0  0  0  0  0  0  0  0  0  0
  188.8970  178.5540  140.4000 C   0  0  1  0  0  3  0  0  0  0  0  0
  189.0880  175.7820  137.5150 C   0  0  0  0  0  2  0  0  0  0  0  0
  190.1140  175.3240  136.6860 O   0  0  0  0  0  0  0  0  0  0  0  0
  191.2830  175.5870  137.4010 C   0  0  0  0  0  1  0  0  0  0  0  0
  184.1010  178.0940  141.7350 C   0  0  0  0  0  2  0  0  0  0  0  0
  184.4550  179.1110  142.6300 O   0  0  0  0  0  0  0  0  0  0  0  0
  184.0440  178.6540  143.8860 C   0  0  0  0  0  2  0  0  0  0  0  0
  189.6540  176.9430  146.1720 C   0  0  0  0  0  3  0  0  0  0  0  0
  188.5780  177.1050  145.2810 C   0  0  0  0  0  3  0  0  0  0  0  0
  189.3570  177.4470  147.4940 C   0  0  0  0  0  0  0  0  0  0  0  0
  184.6990  178.5180  146.2900 C   0  0  0  0  0  2  0  0  0  0  0  0
  185.8290  178.8090  147.2760 C   0  0  0  0  0  2  0  0  0  0  0  0
  185.1960  178.7550  144.8720 C   0  0  1  0  0  3  0  0  0  0  0  0
  187.3530  177.6940  145.5870 C   0  0  0  0  0  0  0  0  0  0  0  0
  188.0960  178.0130  147.8130 N   0  0  0  0  0  0  0  0  0  0  0  0
  187.1120  178.1230  146.8950 C   0  0  0  0  0  0  0  0  0  0  0  0
  190.3140  177.1350  147.5220 C   0  0  0  0  0  1  0  0  0  0  0  0
  186.2840  177.7370  144.5340 C   0  0  0  0  0  2  0  0  0  0  0  0
  1  5  2  0  0  0  0
  2  7  1  6  0  0  0
  2  1  1  0  0  0  0
  2  4  1  0  0  0  0
  3  6  1  0  0  0  0
  4  6  1  0  0  0  0
  5  3  1  0  0  0  0
  6 23  1  1  0  0  0
  7  8  1  1  0  0  0
  7  9  1  0  0  0  0
 10 11  1  6  0  0  0
 10 12  1  0  0  0  0
 10  9  1  0  0  0  0
 12 20  1  1  0  0  0
 12 13  1  0  0  0  0
 13 14  1  0  0  0  0
 15 18  1  0  0  0  0
 18 17  1  0  0  0  0
 18 16  1  0  0  0  0
 19 14  1  6  0  0  0
 19 15  1  0  0  0  0
 19 18  1  0  0  0  0
 21 22  1  0  0  0  0
 21 20  1  0  0  0  0
 23 24  1  0  0  0  0
 24 25  1  0  0  0  0
 26 28  1  0  0  0  0
 27 32  1  0  0  0  0
 27 26  2  0  0  0  0
 28 35  1  0  0  0  0
 28 33  2  0  0  0  0
 29 30  1  0  0  0  0
 31 25  1  6  0  0  0
 31 29  1  0  0  0  0
 32 34  2  0  0  0  0
 34 30  1  0  0  0  0
 34 33  1  0  0  0  0
 36 31  1  0  0  0  0
 36 32  1  0  0  0  0
M  END
>  <MODEL>
9

>  <REMARK>
 VINA RESULT:      -7.8      2.387      5.659
  Name = 
  13 active torsions:
  status: ('A' for Active; 'I' for Inactive)
    1  A    between atoms: O_1  and  C_21
    2  A    between atoms: O_2  and  C_12
    3  A    between atoms: O_2  and  C_25
    4  A    between atoms: C_6  and  C_12
    5  A    between atoms: C_7  and  C_17
    6  A    between atoms: C_7  and  O_22
    7  A    between atoms: C_9  and  O_22
    8  A    between atoms: C_9  and  C_35
    9  A    between atoms: N_13  and  C_20
   10  A    between atoms: N_13  and  C_33
   11  A    between atoms: C_20  and  C_36
   12  A    between atoms: C_21  and  C_33
   13  A    between atoms: C_25  and  C_33
                            x       y       z     vdW  Elec       q    Type
                         _______ _______ _______ _____ _____    ______ ____

>  <TORSDO>
F 13

$$$$
