=
 OpenBabel11042410023D

 38 40  0  0  1  0  0  0  0  0999 V2000
  188.7280  176.8170  138.0820 C   0  0  0  0  0  2  0  0  0  0  0  0
  188.7010  177.5680  140.4250 C   0  0  0  0  0  3  0  0  0  0  0  0
  188.1190  177.5950  139.2190 C   0  0  0  0  0  0  0  0  0  0  0  0
  190.8110  176.7200  139.4610 C   0  0  0  0  0  0  0  0  0  0  0  0
  189.9460  176.7670  140.6920 C   0  0  1  0  0  3  0  0  0  0  0  0
  190.1940  176.8220  138.1650 N   0  0  0  0  0  0  0  0  0  0  0  0
  192.0550  176.5410  139.5650 O   0  0  0  0  0  0  0  0  0  0  0  0
  192.9450  174.9610  136.2320 O   0  0  0  0  0  0  0  0  0  0  0  0
  190.5200  175.4770  135.1780 N   0  0  0  0  0  0  0  0  0  0  0  0
  190.9430  174.0740  137.4780 O   0  0  0  0  0  0  0  0  0  0  0  0
  189.2890  174.7080  135.2710 C   0  0  0  0  0  1  0  0  0  0  0  0
  191.4910  175.1400  136.5680 S   0  0  0  0  0  0  0  0  0  0  0  0
  191.0370  176.7880  136.9630 C   0  0  1  0  0  3  0  0  0  0  0  0
  190.2210  176.8350  135.6590 C   0  0  0  0  0  2  0  0  0  0  0  0
  186.5140  178.6770  137.7900 N   0  0  0  0  0  2  0  0  0  0  0  0
  186.0940  178.7850  140.1110 N   0  0  0  0  0  2  0  0  0  0  0  0
  186.8880  178.3740  138.9920 C   0  0  0  0  0  0  0  0  0  0  0  0
  184.8750  179.4600  139.9480 N   0  0  0  0  0  2  0  0  0  0  0  0
  183.8150  178.4810  140.1300 C   0  0  0  0  0  2  0  0  0  0  0  0
  181.8170  178.7110  141.6180 C   0  0  0  0  0  3  0  0  0  0  0  0
  184.0210  178.6910  142.6120 C   0  0  0  0  0  3  0  0  0  0  0  0
  181.2660  178.8490  142.8940 C   0  0  0  0  0  0  0  0  0  0  0  0
  183.2060  178.6410  141.4780 C   0  0  0  0  0  0  0  0  0  0  0  0
  184.2830  178.8790  145.0880 C   0  0  0  0  0  1  0  0  0  0  0  0
  183.4320  178.8220  143.8720 C   0  0  0  0  0  0  0  0  0  0  0  0
  182.0780  178.8970  143.9860 N   0  0  0  0  0  0  0  0  0  0  0  0
  179.7890  178.9110  143.0620 C   0  0  0  0  0  2  0  0  0  0  0  0
  179.4230  178.4200  144.3800 N   0  0  0  0  0  1  0  0  0  0  0  0
  190.5100  175.4590  143.1760 O   0  0  0  0  0  0  0  0  0  0  0  0
  190.6770  177.3500  141.8100 N   0  0  0  0  0  2  0  0  0  0  0  0
  190.9030  176.6480  143.0330 C   0  0  0  0  0  0  0  0  0  0  0  0
  191.6410  177.3160  144.1390 C   0  0  0  0  0  2  0  0  0  0  0  0
  191.6690  176.4430  145.3080 N   0  0  0  0  0  2  0  0  0  0  0  0
  191.1430  177.1450  146.4790 C   0  0  2  0  0  3  0  0  0  0  0  0
  191.9720  176.9540  147.5910 O   0  0  0  0  0  1  0  0  0  0  0  0
  189.7090  176.7190  146.7870 C   0  0  0  0  0  2  0  0  0  0  0  0
  187.9590  177.3070  145.1080 C   0  0  0  0  0  1  0  0  0  0  0  0
  188.7140  177.7770  146.3390 C   0  0  0  0  0  2  0  0  0  0  0  0
  1  6  1  0  0  0  0
  1  3  1  0  0  0  0
  2  5  1  0  0  0  0
  3  2  2  0  0  0  0
  4  7  2  0  0  0  0
  4  5  1  0  0  0  0
  5 30  1  1  0  0  0
  6  4  1  0  0  0  0
  8 12  2  0  0  0  0
  9 11  1  0  0  0  0
  9 14  1  0  0  0  0
  9 12  1  0  0  0  0
 12 13  1  0  0  0  0
 12 10  2  0  0  0  0
 13 14  1  6  0  0  0
 13  6  1  0  0  0  0
 15 17  2  0  0  0  0
 17  3  1  0  0  0  0
 17 16  1  0  0  0  0
 18 16  1  0  0  0  0
 18 19  1  0  0  0  0
 19 23  1  0  0  0  0
 20 22  1  0  0  0  0
 21 25  2  0  0  0  0
 22 27  1  0  0  0  0
 22 26  2  0  0  0  0
 23 20  2  0  0  0  0
 23 21  1  0  0  0  0
 25 26  1  0  0  0  0
 25 24  1  0  0  0  0
 27 28  1  0  0  0  0
 30 31  1  0  0  0  0
 31 29  2  0  0  0  0
 31 32  1  0  0  0  0
 32 33  1  0  0  0  0
 33 34  1  0  0  0  0
 34 36  1  0  0  0  0
 34 35  1  1  0  0  0
 37 38  1  0  0  0  0
 38 36  1  0  0  0  0
M  END
>  <MODEL>
1

>  <REMARK>
 VINA RESULT:      -8.3      0.000      0.000
  Name = 
  12 active torsions:
  status: ('A' for Active; 'I' for Inactive)
    1  A    between atoms: C_1  and  C_22
    2  A    between atoms: C_6  and  N_18
    3  A    between atoms: C_6  and  C_37
    4  A    between atoms: C_9  and  C_30
    5  A    between atoms: C_10  and  N_18
    6  A    between atoms: C_10  and  C_19
    7  A    between atoms: N_16  and  N_26
    8  A    between atoms: C_19  and  C_32
    9  A    between atoms: C_21  and  N_35
   10  A    between atoms: C_24  and  C_36
   11  A    between atoms: N_25  and  C_29
   12  A    between atoms: N_26  and  C_36
                            x       y       z     vdW  Elec       q    Type
                         _______ _______ _______ _____ _____    ______ ____

>  <TORSDO>
F 12

$$$$
=
 OpenBabel11042410023D

 38 40  0  0  1  0  0  0  0  0999 V2000
  187.7190  177.7310  139.2380 C   0  0  0  0  0  2  0  0  0  0  0  0
  187.8980  178.1340  141.6580 C   0  0  0  0  0  3  0  0  0  0  0  0
  187.1920  178.2940  140.5310 C   0  0  0  0  0  0  0  0  0  0  0  0
  189.9380  177.5810  140.3800 C   0  0  0  0  0  0  0  0  0  0  0  0
  189.2060  177.3910  141.6810 C   0  0  1  0  0  3  0  0  0  0  0  0
  189.1840  177.8260  139.1790 N   0  0  0  0  0  0  0  0  0  0  0  0
  191.1940  177.4760  140.3370 O   0  0  0  0  0  0  0  0  0  0  0  0
  191.7980  176.4460  136.7250 O   0  0  0  0  0  0  0  0  0  0  0  0
  189.2560  176.9630  136.0030 N   0  0  0  0  0  0  0  0  0  0  0  0
  189.9810  175.2620  138.0070 O   0  0  0  0  0  0  0  0  0  0  0  0
  188.0770  176.1150  136.0940 C   0  0  0  0  0  1  0  0  0  0  0  0
  190.3810  176.4830  137.2240 S   0  0  0  0  0  0  0  0  0  0  0  0
  189.8970  178.0230  137.9110 C   0  0  1  0  0  3  0  0  0  0  0  0
  188.9470  178.2140  136.7150 C   0  0  0  0  0  2  0  0  0  0  0  0
  185.4040  179.4480  141.6550 N   0  0  0  0  0  2  0  0  0  0  0  0
  185.2060  179.2330  139.3110 N   0  0  0  0  0  2  0  0  0  0  0  0
  185.9030  179.0100  140.5420 C   0  0  0  0  0  0  0  0  0  0  0  0
  184.0170  179.9750  139.2570 N   0  0  0  0  0  2  0  0  0  0  0  0
  183.0350  179.1630  138.5550 C   0  0  0  0  0  2  0  0  0  0  0  0
  181.8210  179.2220  140.7410 C   0  0  0  0  0  3  0  0  0  0  0  0
  181.4090  177.3860  139.2220 C   0  0  0  0  0  3  0  0  0  0  0  0
  180.9090  178.6570  141.6360 C   0  0  0  0  0  0  0  0  0  0  0  0
  182.0780  178.5740  139.5300 C   0  0  0  0  0  0  0  0  0  0  0  0
  179.7800  175.5940  139.8320 C   0  0  0  0  0  1  0  0  0  0  0  0
  180.4990  176.8580  140.1410 C   0  0  0  0  0  0  0  0  0  0  0  0
  180.2680  177.4990  141.3190 N   0  0  0  0  0  0  0  0  0  0  0  0
  180.6140  179.3410  142.9250 C   0  0  0  0  0  2  0  0  0  0  0  0
  180.0070  180.6370  142.6660 N   0  0  0  0  0  1  0  0  0  0  0  0
  190.8770  175.7460  143.3250 O   0  0  0  0  0  0  0  0  0  0  0  0
  190.0170  177.8570  142.7990 N   0  0  0  0  0  2  0  0  0  0  0  0
  190.8120  176.9760  143.5950 C   0  0  0  0  0  0  0  0  0  0  0  0
  191.5990  177.5220  144.7330 C   0  0  0  0  0  2  0  0  0  0  0  0
  191.6750  176.5270  145.7980 N   0  0  0  0  0  2  0  0  0  0  0  0
  191.1350  177.0740  147.0440 C   0  0  2  0  0  3  0  0  0  0  0  0
  192.0260  176.8750  148.1050 O   0  0  0  0  0  1  0  0  0  0  0  0
  189.7640  176.4830  147.3630 C   0  0  0  0  0  2  0  0  0  0  0  0
  188.3690  178.1320  148.6120 C   0  0  0  0  0  1  0  0  0  0  0  0
  188.6730  177.5360  147.2490 C   0  0  0  0  0  2  0  0  0  0  0  0
  1  3  1  0  0  0  0
  2  5  1  0  0  0  0
  3 17  1  0  0  0  0
  3  2  2  0  0  0  0
  4  5  1  0  0  0  0
  5 30  1  1  0  0  0
  6  1  1  0  0  0  0
  6  4  1  0  0  0  0
  7  4  2  0  0  0  0
  8 12  2  0  0  0  0
  9 11  1  0  0  0  0
  9 14  1  0  0  0  0
  9 12  1  0  0  0  0
 12 13  1  0  0  0  0
 12 10  2  0  0  0  0
 13 14  1  6  0  0  0
 13  6  1  0  0  0  0
 16 17  1  0  0  0  0
 17 15  2  0  0  0  0
 18 16  1  0  0  0  0
 19 18  1  0  0  0  0
 19 23  1  0  0  0  0
 20 22  1  0  0  0  0
 21 23  1  0  0  0  0
 21 25  2  0  0  0  0
 22 27  1  0  0  0  0
 23 20  2  0  0  0  0
 24 25  1  0  0  0  0
 25 26  1  0  0  0  0
 26 22  2  0  0  0  0
 28 27  1  0  0  0  0
 29 31  2  0  0  0  0
 30 31  1  0  0  0  0
 31 32  1  0  0  0  0
 32 33  1  0  0  0  0
 33 34  1  0  0  0  0
 34 36  1  0  0  0  0
 34 35  1  1  0  0  0
 38 36  1  0  0  0  0
 38 37  1  0  0  0  0
M  END
>  <MODEL>
2

>  <REMARK>
 VINA RESULT:      -7.8      1.767      2.432
  Name = 
  12 active torsions:
  status: ('A' for Active; 'I' for Inactive)
    1  A    between atoms: C_1  and  C_22
    2  A    between atoms: C_6  and  N_18
    3  A    between atoms: C_6  and  C_37
    4  A    between atoms: C_9  and  C_30
    5  A    between atoms: C_10  and  N_18
    6  A    between atoms: C_10  and  C_19
    7  A    between atoms: N_16  and  N_26
    8  A    between atoms: C_19  and  C_32
    9  A    between atoms: C_21  and  N_35
   10  A    between atoms: C_24  and  C_36
   11  A    between atoms: N_25  and  C_29
   12  A    between atoms: N_26  and  C_36
                            x       y       z     vdW  Elec       q    Type
                         _______ _______ _______ _____ _____    ______ ____

>  <TORSDO>
F 12

$$$$
=
 OpenBabel11042410023D

 38 40  0  0  1  0  0  0  0  0999 V2000
  187.8760  177.7590  139.6350 C   0  0  0  0  0  2  0  0  0  0  0  0
  187.7830  178.0430  142.0770 C   0  0  0  0  0  3  0  0  0  0  0  0
  187.2050  178.2560  140.8880 C   0  0  0  0  0  0  0  0  0  0  0  0
  189.9550  177.5570  141.0080 C   0  0  0  0  0  0  0  0  0  0  0  0
  189.0860  177.3020  142.2090 C   0  0  1  0  0  3  0  0  0  0  0  0
  189.3370  177.8590  139.7440 N   0  0  0  0  0  0  0  0  0  0  0  0
  191.2090  177.4560  141.0990 O   0  0  0  0  0  0  0  0  0  0  0  0
  192.2110  176.6030  137.5250 O   0  0  0  0  0  0  0  0  0  0  0  0
  189.7610  177.1600  136.5560 N   0  0  0  0  0  0  0  0  0  0  0  0
  190.2690  175.3570  138.5380 O   0  0  0  0  0  0  0  0  0  0  0  0
  188.5830  176.3100  136.4730 C   0  0  0  0  0  1  0  0  0  0  0  0
  190.7470  176.6170  137.8660 S   0  0  0  0  0  0  0  0  0  0  0  0
  190.1840  178.1200  138.5740 C   0  0  1  0  0  3  0  0  0  0  0  0
  189.3700  178.3730  137.2920 C   0  0  0  0  0  2  0  0  0  0  0  0
  185.3630  179.4700  141.8500 N   0  0  0  0  0  2  0  0  0  0  0  0
  185.2840  179.1170  139.5160 N   0  0  0  0  0  2  0  0  0  0  0  0
  185.9170  178.9690  140.7920 C   0  0  0  0  0  0  0  0  0  0  0  0
  184.0990  179.8520  139.3580 N   0  0  0  0  0  2  0  0  0  0  0  0
  183.1660  179.0100  138.6250 C   0  0  0  0  0  2  0  0  0  0  0  0
  181.3120  177.4200  139.1650 C   0  0  0  0  0  3  0  0  0  0  0  0
  181.9570  179.0690  140.8120 C   0  0  0  0  0  3  0  0  0  0  0  0
  180.3420  176.9460  140.0510 C   0  0  0  0  0  0  0  0  0  0  0  0
  182.1180  178.4960  139.5470 C   0  0  0  0  0  0  0  0  0  0  0  0
  180.7950  179.1590  143.0200 C   0  0  0  0  0  1  0  0  0  0  0  0
  180.9810  178.5610  141.6720 C   0  0  0  0  0  0  0  0  0  0  0  0
  180.2010  177.5180  141.2790 N   0  0  0  0  0  0  0  0  0  0  0  0
  179.4850  175.7920  139.6660 C   0  0  0  0  0  2  0  0  0  0  0  0
  180.0900  175.0800  138.5520 N   0  0  0  0  0  1  0  0  0  0  0  0
  190.7210  175.6210  143.8520 O   0  0  0  0  0  0  0  0  0  0  0  0
  189.7650  177.7130  143.4310 N   0  0  0  0  0  2  0  0  0  0  0  0
  190.5490  176.8140  144.2180 C   0  0  0  0  0  0  0  0  0  0  0  0
  191.1970  177.3030  145.4640 C   0  0  0  0  0  2  0  0  0  0  0  0
  190.4780  176.7880  146.6250 N   0  0  0  0  0  2  0  0  0  0  0  0
  189.4400  177.7320  147.0410 C   0  0  2  0  0  3  0  0  0  0  0  0
  189.6550  178.1650  148.3540 O   0  0  0  0  0  1  0  0  0  0  0  0
  188.0450  177.1310  146.8840 C   0  0  0  0  0  2  0  0  0  0  0  0
  186.0420  178.5910  146.5990 C   0  0  0  0  0  1  0  0  0  0  0  0
  187.2120  177.9300  145.8940 C   0  0  0  0  0  2  0  0  0  0  0  0
  1  6  1  0  0  0  0
  1  3  1  0  0  0  0
  2  5  1  0  0  0  0
  3  2  2  0  0  0  0
  4  7  2  0  0  0  0
  4  5  1  0  0  0  0
  5 30  1  1  0  0  0
  6  4  1  0  0  0  0
  8 12  2  0  0  0  0
  9 14  1  0  0  0  0
  9 12  1  0  0  0  0
 11  9  1  0  0  0  0
 12 10  2  0  0  0  0
 12 13  1  0  0  0  0
 13 14  1  6  0  0  0
 13  6  1  0  0  0  0
 16 17  1  0  0  0  0
 17  3  1  0  0  0  0
 17 15  2  0  0  0  0
 18 16  1  0  0  0  0
 19 18  1  0  0  0  0
 19 23  1  0  0  0  0
 20 23  2  0  0  0  0
 20 22  1  0  0  0  0
 21 25  2  0  0  0  0
 22 26  2  0  0  0  0
 23 21  1  0  0  0  0
 25 24  1  0  0  0  0
 26 25  1  0  0  0  0
 27 22  1  0  0  0  0
 28 27  1  0  0  0  0
 29 31  2  0  0  0  0
 30 31  1  0  0  0  0
 31 32  1  0  0  0  0
 32 33  1  0  0  0  0
 33 34  1  0  0  0  0
 34 35  1  1  0  0  0
 36 34  1  0  0  0  0
 38 37  1  0  0  0  0
 38 36  1  0  0  0  0
M  END
>  <MODEL>
3

>  <REMARK>
 VINA RESULT:      -7.6      2.155      2.634
  Name = 
  12 active torsions:
  status: ('A' for Active; 'I' for Inactive)
    1  A    between atoms: C_1  and  C_22
    2  A    between atoms: C_6  and  N_18
    3  A    between atoms: C_6  and  C_37
    4  A    between atoms: C_9  and  C_30
    5  A    between atoms: C_10  and  N_18
    6  A    between atoms: C_10  and  C_19
    7  A    between atoms: N_16  and  N_26
    8  A    between atoms: C_19  and  C_32
    9  A    between atoms: C_21  and  N_35
   10  A    between atoms: C_24  and  C_36
   11  A    between atoms: N_25  and  C_29
   12  A    between atoms: N_26  and  C_36
                            x       y       z     vdW  Elec       q    Type
                         _______ _______ _______ _____ _____    ______ ____

>  <TORSDO>
F 12

$$$$
=
 OpenBabel11042410023D

 38 40  0  0  1  0  0  0  0  0999 V2000
  189.8880  177.7510  138.2450 C   0  0  0  0  0  2  0  0  0  0  0  0
  187.6550  177.9350  139.2610 C   0  0  0  0  0  3  0  0  0  0  0  0
  188.9680  177.7380  139.4370 C   0  0  0  0  0  0  0  0  0  0  0  0
  187.8380  177.4430  136.8480 C   0  0  0  0  0  0  0  0  0  0  0  0
  187.0610  178.1850  137.9020 C   0  0  1  0  0  3  0  0  0  0  0  0
  189.2320  177.1670  137.0670 N   0  0  0  0  0  0  0  0  0  0  0  0
  187.2820  177.1130  135.7650 O   0  0  0  0  0  0  0  0  0  0  0  0
  192.3070  174.9930  136.3020 O   0  0  0  0  0  0  0  0  0  0  0  0
  189.7890  174.1800  135.8010 N   0  0  0  0  0  0  0  0  0  0  0  0
  190.7140  174.9340  138.2530 O   0  0  0  0  0  0  0  0  0  0  0  0
  188.8400  173.5110  136.6790 C   0  0  0  0  0  1  0  0  0  0  0  0
  190.8820  175.1060  136.7670 S   0  0  0  0  0  0  0  0  0  0  0  0
  189.9890  176.4320  136.0450 C   0  0  1  0  0  3  0  0  0  0  0  0
  189.1310  175.3960  135.2970 C   0  0  0  0  0  2  0  0  0  0  0  0
  190.6770  176.9440  140.9340 N   0  0  0  0  0  2  0  0  0  0  0  0
  188.7870  177.9450  141.9350 N   0  0  0  0  0  2  0  0  0  0  0  0
  189.5240  177.5150  140.7850 C   0  0  0  0  0  0  0  0  0  0  0  0
  189.3050  177.8280  143.2330 N   0  0  0  0  0  2  0  0  0  0  0  0
  188.5750  176.7540  143.8900 C   0  0  0  0  0  2  0  0  0  0  0  0
  188.3670  177.4550  146.2820 C   0  0  0  0  0  3  0  0  0  0  0  0
  186.4550  177.6930  144.8210 C   0  0  0  0  0  3  0  0  0  0  0  0
  187.6060  177.9840  147.3280 C   0  0  0  0  0  0  0  0  0  0  0  0
  187.7810  177.3020  145.0220 C   0  0  0  0  0  0  0  0  0  0  0  0
  184.3180  178.6450  145.6950 C   0  0  0  0  0  1  0  0  0  0  0  0
  185.7300  178.2240  145.8900 C   0  0  0  0  0  0  0  0  0  0  0  0
  186.3150  178.3590  147.1110 N   0  0  0  0  0  0  0  0  0  0  0  0
  188.2180  178.1670  148.6720 C   0  0  0  0  0  2  0  0  0  0  0  0
  189.6600  178.0120  148.5810 N   0  0  0  0  0  1  0  0  0  0  0  0
  184.8580  179.7570  138.8390 O   0  0  0  0  0  0  0  0  0  0  0  0
  185.6620  177.7760  137.8920 N   0  0  0  0  0  2  0  0  0  0  0  0
  184.6130  178.6020  138.3980 C   0  0  0  0  0  0  0  0  0  0  0  0
  183.2100  178.1080  138.3730 C   0  0  0  0  0  2  0  0  0  0  0  0
  182.4240  178.8100  139.3820 N   0  0  0  0  0  2  0  0  0  0  0  0
  182.3100  177.9980  140.5940 C   0  0  2  0  0  3  0  0  0  0  0  0
  180.9710  177.7000  140.8720 O   0  0  0  0  0  1  0  0  0  0  0  0
  182.9780  178.6800  141.7860 C   0  0  0  0  0  2  0  0  0  0  0  0
  185.3990  179.2690  141.9160 C   0  0  0  0  0  1  0  0  0  0  0  0
  184.3840  178.1440  142.0070 C   0  0  0  0  0  2  0  0  0  0  0  0
  1  3  1  0  0  0  0
  2  3  2  0  0  0  0
  3 17  1  0  0  0  0
  4  6  1  0  0  0  0
  4  5  1  0  0  0  0
  5 30  1  1  0  0  0
  5  2  1  0  0  0  0
  6  1  1  0  0  0  0
  7  4  2  0  0  0  0
  8 12  2  0  0  0  0
  9 11  1  0  0  0  0
  9 12  1  0  0  0  0
 12 10  2  0  0  0  0
 13 14  1  6  0  0  0
 13 12  1  0  0  0  0
 13  6  1  0  0  0  0
 14  9  1  0  0  0  0
 16 18  1  0  0  0  0
 17 15  2  0  0  0  0
 17 16  1  0  0  0  0
 18 19  1  0  0  0  0
 19 23  1  0  0  0  0
 20 22  1  0  0  0  0
 21 23  1  0  0  0  0
 21 25  2  0  0  0  0
 22 27  1  0  0  0  0
 23 20  2  0  0  0  0
 24 25  1  0  0  0  0
 25 26  1  0  0  0  0
 26 22  2  0  0  0  0
 28 27  1  0  0  0  0
 30 31  1  0  0  0  0
 31 29  2  0  0  0  0
 32 31  1  0  0  0  0
 32 33  1  0  0  0  0
 33 34  1  0  0  0  0
 34 35  1  1  0  0  0
 34 36  1  0  0  0  0
 36 38  1  0  0  0  0
 37 38  1  0  0  0  0
M  END
>  <MODEL>
4

>  <REMARK>
 VINA RESULT:      -7.5      2.815      6.230
  Name = 
  12 active torsions:
  status: ('A' for Active; 'I' for Inactive)
    1  A    between atoms: C_1  and  C_22
    2  A    between atoms: C_6  and  N_18
    3  A    between atoms: C_6  and  C_37
    4  A    between atoms: C_9  and  C_30
    5  A    between atoms: C_10  and  N_18
    6  A    between atoms: C_10  and  C_19
    7  A    between atoms: N_16  and  N_26
    8  A    between atoms: C_19  and  C_32
    9  A    between atoms: C_21  and  N_35
   10  A    between atoms: C_24  and  C_36
   11  A    between atoms: N_25  and  C_29
   12  A    between atoms: N_26  and  C_36
                            x       y       z     vdW  Elec       q    Type
                         _______ _______ _______ _____ _____    ______ ____

>  <TORSDO>
F 12

$$$$
=
 OpenBabel11042410023D

 38 40  0  0  1  0  0  0  0  0999 V2000
  189.7050  177.6430  137.8710 C   0  0  0  0  0  2  0  0  0  0  0  0
  187.6400  177.8990  139.1830 C   0  0  0  0  0  3  0  0  0  0  0  0
  188.9530  177.6350  139.1750 C   0  0  0  0  0  0  0  0  0  0  0  0
  187.4740  177.4770  136.7550 C   0  0  0  0  0  0  0  0  0  0  0  0
  186.8840  178.2210  137.9230 C   0  0  1  0  0  3  0  0  0  0  0  0
  188.8700  177.1290  136.7780 N   0  0  0  0  0  0  0  0  0  0  0  0
  186.7630  177.2090  135.7490 O   0  0  0  0  0  0  0  0  0  0  0  0
  191.7420  174.9030  135.5290 O   0  0  0  0  0  0  0  0  0  0  0  0
  189.1600  174.1480  135.4110 N   0  0  0  0  0  0  0  0  0  0  0  0
  190.4640  174.8510  137.6990 O   0  0  0  0  0  0  0  0  0  0  0  0
  188.3410  173.4880  136.4160 C   0  0  0  0  0  1  0  0  0  0  0  0
  190.4080  175.0380  136.2070 S   0  0  0  0  0  0  0  0  0  0  0  0
  189.4450  176.3930  135.6450 C   0  0  1  0  0  3  0  0  0  0  0  0
  188.4600  175.3840  135.0250 C   0  0  0  0  0  2  0  0  0  0  0  0
  190.9600  177.4640  140.4930 N   0  0  0  0  0  2  0  0  0  0  0  0
  188.9360  176.9340  141.5880 N   0  0  0  0  0  2  0  0  0  0  0  0
  189.6720  177.3430  140.4290 C   0  0  0  0  0  0  0  0  0  0  0  0
  189.5610  176.7190  142.8250 N   0  0  0  0  0  2  0  0  0  0  0  0
  189.1760  177.8170  143.6980 C   0  0  0  0  0  2  0  0  0  0  0  0
  190.7600  176.8240  145.3590 C   0  0  0  0  0  3  0  0  0  0  0  0
  188.7710  177.9400  146.1610 C   0  0  0  0  0  3  0  0  0  0  0  0
  191.1200  176.5580  146.6820 C   0  0  0  0  0  0  0  0  0  0  0  0
  189.5720  177.5120  145.0990 C   0  0  0  0  0  0  0  0  0  0  0  0
  188.3290  178.1070  148.6130 C   0  0  0  0  0  1  0  0  0  0  0  0
  189.1680  177.6610  147.4710 C   0  0  0  0  0  0  0  0  0  0  0  0
  190.3250  176.9830  147.7030 N   0  0  0  0  0  0  0  0  0  0  0  0
  192.3890  175.8390  146.9770 C   0  0  0  0  0  2  0  0  0  0  0  0
  192.7460  176.0260  148.3730 N   0  0  0  0  0  1  0  0  0  0  0  0
  184.9350  179.8090  139.2940 O   0  0  0  0  0  0  0  0  0  0  0  0
  185.4770  177.8780  138.0910 N   0  0  0  0  0  2  0  0  0  0  0  0
  184.5620  178.7070  138.8090 C   0  0  0  0  0  0  0  0  0  0  0  0
  183.1440  178.2810  138.9560 C   0  0  0  0  0  2  0  0  0  0  0  0
  182.4700  179.1460  139.9200 N   0  0  0  0  0  2  0  0  0  0  0  0
  182.1410  178.3960  141.1330 C   0  0  2  0  0  3  0  0  0  0  0  0
  180.8550  178.7140  141.5840 O   0  0  0  0  0  1  0  0  0  0  0  0
  183.1790  178.6280  142.2290 C   0  0  0  0  0  2  0  0  0  0  0  0
  183.5210  178.9010  144.6860 C   0  0  0  0  0  1  0  0  0  0  0  0
  182.5130  178.9700  143.5520 C   0  0  0  0  0  2  0  0  0  0  0  0
  1  3  1  0  0  0  0
  3  2  2  0  0  0  0
  3 17  1  0  0  0  0
  4  6  1  0  0  0  0
  4  5  1  0  0  0  0
  5 30  1  1  0  0  0
  5  2  1  0  0  0  0
  6  1  1  0  0  0  0
  7  4  2  0  0  0  0
  8 12  2  0  0  0  0
  9 12  1  0  0  0  0
  9 11  1  0  0  0  0
 12 10  2  0  0  0  0
 13 14  1  6  0  0  0
 13 12  1  0  0  0  0
 13  6  1  0  0  0  0
 14  9  1  0  0  0  0
 16 18  1  0  0  0  0
 17 15  2  0  0  0  0
 17 16  1  0  0  0  0
 18 19  1  0  0  0  0
 19 23  1  0  0  0  0
 20 22  1  0  0  0  0
 21 25  2  0  0  0  0
 22 27  1  0  0  0  0
 22 26  2  0  0  0  0
 23 20  2  0  0  0  0
 23 21  1  0  0  0  0
 25 26  1  0  0  0  0
 25 24  1  0  0  0  0
 27 28  1  0  0  0  0
 30 31  1  0  0  0  0
 31 32  1  0  0  0  0
 31 29  2  0  0  0  0
 32 33  1  0  0  0  0
 33 34  1  0  0  0  0
 34 35  1  1  0  0  0
 34 36  1  0  0  0  0
 36 38  1  0  0  0  0
 38 37  1  0  0  0  0
M  END
>  <MODEL>
5

>  <REMARK>
 VINA RESULT:      -7.3      2.728      7.061
  Name = 
  12 active torsions:
  status: ('A' for Active; 'I' for Inactive)
    1  A    between atoms: C_1  and  C_22
    2  A    between atoms: C_6  and  N_18
    3  A    between atoms: C_6  and  C_37
    4  A    between atoms: C_9  and  C_30
    5  A    between atoms: C_10  and  N_18
    6  A    between atoms: C_10  and  C_19
    7  A    between atoms: N_16  and  N_26
    8  A    between atoms: C_19  and  C_32
    9  A    between atoms: C_21  and  N_35
   10  A    between atoms: C_24  and  C_36
   11  A    between atoms: N_25  and  C_29
   12  A    between atoms: N_26  and  C_36
                            x       y       z     vdW  Elec       q    Type
                         _______ _______ _______ _____ _____    ______ ____

>  <TORSDO>
F 12

$$$$
=
 OpenBabel11042410023D

 38 40  0  0  1  0  0  0  0  0999 V2000
  187.9550  177.4620  138.8760 C   0  0  0  0  0  2  0  0  0  0  0  0
  188.3240  177.8970  141.2690 C   0  0  0  0  0  3  0  0  0  0  0  0
  187.5540  178.0810  140.1890 C   0  0  0  0  0  0  0  0  0  0  0  0
  190.2330  177.1910  139.8710 C   0  0  0  0  0  0  0  0  0  0  0  0
  189.5810  177.0720  141.2220 C   0  0  1  0  0  3  0  0  0  0  0  0
  189.4160  177.4610  138.7180 N   0  0  0  0  0  0  0  0  0  0  0  0
  191.4740  177.0040  139.7460 O   0  0  0  0  0  0  0  0  0  0  0  0
  191.6930  175.8310  136.0870 O   0  0  0  0  0  0  0  0  0  0  0  0
  189.1710  176.6050  135.5490 N   0  0  0  0  0  0  0  0  0  0  0  0
  189.8630  174.8340  137.5020 O   0  0  0  0  0  0  0  0  0  0  0  0
  187.9220  175.8810  135.7280 C   0  0  0  0  0  1  0  0  0  0  0  0
  190.3270  176.0100  136.6870 S   0  0  0  0  0  0  0  0  0  0  0  0
  190.0520  177.5890  137.4010 C   0  0  1  0  0  3  0  0  0  0  0  0
  189.0420  177.8790  136.2750 C   0  0  0  0  0  2  0  0  0  0  0  0
  185.9900  179.4760  141.3730 N   0  0  0  0  0  2  0  0  0  0  0  0
  185.4770  179.0040  139.1170 N   0  0  0  0  0  2  0  0  0  0  0  0
  186.3160  178.8790  140.2700 C   0  0  0  0  0  0  0  0  0  0  0  0
  184.3310  179.8130  139.1180 N   0  0  0  0  0  2  0  0  0  0  0  0
  183.1790  178.9260  139.0510 C   0  0  0  0  0  2  0  0  0  0  0  0
  181.5340  180.7800  138.7170 C   0  0  0  0  0  3  0  0  0  0  0  0
  181.1920  179.2240  140.5360 C   0  0  0  0  0  3  0  0  0  0  0  0
  180.3700  181.4500  139.1000 C   0  0  0  0  0  0  0  0  0  0  0  0
  181.9510  179.6640  139.4480 C   0  0  0  0  0  0  0  0  0  0  0  0
  179.2120  179.4660  142.0390 C   0  0  0  0  0  1  0  0  0  0  0  0
  180.0300  179.9180  140.8840 C   0  0  0  0  0  0  0  0  0  0  0  0
  179.6450  181.0070  140.1640 N   0  0  0  0  0  0  0  0  0  0  0  0
  179.9040  182.6320  138.3240 C   0  0  0  0  0  2  0  0  0  0  0  0
  180.9850  183.1280  137.4890 N   0  0  0  0  0  1  0  0  0  0  0  0
  189.5530  176.1560  143.9350 O   0  0  0  0  0  0  0  0  0  0  0  0
  190.4940  177.5040  142.2720 N   0  0  0  0  0  2  0  0  0  0  0  0
  190.4090  177.0230  143.6150 C   0  0  0  0  0  0  0  0  0  0  0  0
  191.3650  177.5260  144.6380 C   0  0  0  0  0  2  0  0  0  0  0  0
  191.6750  176.4590  145.5840 N   0  0  0  0  0  2  0  0  0  0  0  0
  191.4520  176.9160  146.9570 C   0  0  2  0  0  3  0  0  0  0  0  0
  192.4050  176.3740  147.8260 O   0  0  0  0  0  1  0  0  0  0  0  0
  190.0360  176.5940  147.4270 C   0  0  0  0  0  2  0  0  0  0  0  0
  187.9230  177.6410  148.2440 C   0  0  0  0  0  1  0  0  0  0  0  0
  189.1410  177.8210  147.3550 C   0  0  0  0  0  2  0  0  0  0  0  0
  1  3  1  0  0  0  0
  3 17  1  0  0  0  0
  3  2  2  0  0  0  0
  4  5  1  0  0  0  0
  5  2  1  0  0  0  0
  5 30  1  1  0  0  0
  6  1  1  0  0  0  0
  6  4  1  0  0  0  0
  7  4  2  0  0  0  0
  8 12  2  0  0  0  0
  9 11  1  0  0  0  0
  9 14  1  0  0  0  0
  9 12  1  0  0  0  0
 12 13  1  0  0  0  0
 12 10  2  0  0  0  0
 13 14  1  6  0  0  0
 13  6  1  0  0  0  0
 16 18  1  0  0  0  0
 16 17  1  0  0  0  0
 17 15  2  0  0  0  0
 19 18  1  0  0  0  0
 19 23  1  0  0  0  0
 20 22  2  0  0  0  0
 20 23  1  0  0  0  0
 21 25  1  0  0  0  0
 22 26  1  0  0  0  0
 23 21  2  0  0  0  0
 25 24  1  0  0  0  0
 26 25  2  0  0  0  0
 27 22  1  0  0  0  0
 28 27  1  0  0  0  0
 30 31  1  0  0  0  0
 31 29  2  0  0  0  0
 31 32  1  0  0  0  0
 32 33  1  0  0  0  0
 33 34  1  0  0  0  0
 34 36  1  0  0  0  0
 34 35  1  1  0  0  0
 38 36  1  0  0  0  0
 38 37  1  0  0  0  0
M  END
>  <MODEL>
6

>  <REMARK>
 VINA RESULT:      -7.3      2.138      2.836
  Name = 
  12 active torsions:
  status: ('A' for Active; 'I' for Inactive)
    1  A    between atoms: C_1  and  C_22
    2  A    between atoms: C_6  and  N_18
    3  A    between atoms: C_6  and  C_37
    4  A    between atoms: C_9  and  C_30
    5  A    between atoms: C_10  and  N_18
    6  A    between atoms: C_10  and  C_19
    7  A    between atoms: N_16  and  N_26
    8  A    between atoms: C_19  and  C_32
    9  A    between atoms: C_21  and  N_35
   10  A    between atoms: C_24  and  C_36
   11  A    between atoms: N_25  and  C_29
   12  A    between atoms: N_26  and  C_36
                            x       y       z     vdW  Elec       q    Type
                         _______ _______ _______ _____ _____    ______ ____

>  <TORSDO>
F 12

$$$$
=
 OpenBabel11042410023D

 38 40  0  0  1  0  0  0  0  0999 V2000
  187.9430  178.2300  142.1620 C   0  0  0  0  0  2  0  0  0  0  0  0
  187.6940  178.4730  139.7260 C   0  0  0  0  0  3  0  0  0  0  0  0
  187.1260  178.5450  140.9370 C   0  0  0  0  0  0  0  0  0  0  0  0
  189.5660  177.1270  140.6130 C   0  0  0  0  0  0  0  0  0  0  0  0
  189.1400  178.0990  139.5450 C   0  0  1  0  0  3  0  0  0  0  0  0
  188.9060  177.1540  141.8910 N   0  0  0  0  0  0  0  0  0  0  0  0
  190.5240  176.3340  140.4040 O   0  0  0  0  0  0  0  0  0  0  0  0
  191.8080  175.6900  143.9400 O   0  0  0  0  0  0  0  0  0  0  0  0
  189.6630  176.8510  145.0800 N   0  0  0  0  0  0  0  0  0  0  0  0
  191.3130  178.0720  143.2860 O   0  0  0  0  0  0  0  0  0  0  0  0
  189.4200  178.2540  145.3830 C   0  0  0  0  0  1  0  0  0  0  0  0
  190.7610  176.7510  143.7500 S   0  0  0  0  0  0  0  0  0  0  0  0
  189.3120  176.1990  142.9300 C   0  0  1  0  0  3  0  0  0  0  0  0
  188.5400  176.3870  144.2480 C   0  0  0  0  0  2  0  0  0  0  0  0
  185.1530  178.9540  142.2540 N   0  0  0  0  0  2  0  0  0  0  0  0
  184.9540  179.3050  139.9270 N   0  0  0  0  0  2  0  0  0  0  0  0
  185.7110  178.9340  141.0850 C   0  0  0  0  0  0  0  0  0  0  0  0
  183.6290  179.7570  140.0210 N   0  0  0  0  0  2  0  0  0  0  0  0
  182.8050  178.8320  139.2590 C   0  0  0  0  0  2  0  0  0  0  0  0
  181.3310  178.9890  141.2730 C   0  0  0  0  0  3  0  0  0  0  0  0
  181.0530  177.1230  139.7620 C   0  0  0  0  0  3  0  0  0  0  0  0
  180.2970  178.4780  142.0610 C   0  0  0  0  0  0  0  0  0  0  0  0
  181.7150  178.2990  140.1200 C   0  0  0  0  0  0  0  0  0  0  0  0
  179.3040  175.3960  140.2070 C   0  0  0  0  0  1  0  0  0  0  0  0
  180.0190  176.6470  140.5720 C   0  0  0  0  0  0  0  0  0  0  0  0
  179.6640  177.3290  141.6950 N   0  0  0  0  0  0  0  0  0  0  0  0
  179.8650  179.2070  143.2840 C   0  0  0  0  0  2  0  0  0  0  0  0
  179.5680  178.2570  144.3430 N   0  0  0  0  0  1  0  0  0  0  0  0
  188.9650  179.5250  137.0680 O   0  0  0  0  0  0  0  0  0  0  0  0
  189.3380  177.5240  138.2210 N   0  0  0  0  0  2  0  0  0  0  0  0
  189.2120  178.2900  137.0210 C   0  0  0  0  0  0  0  0  0  0  0  0
  189.4090  177.6300  135.7030 C   0  0  0  0  0  2  0  0  0  0  0  0
  188.1670  177.6810  134.9380 N   0  0  0  0  0  2  0  0  0  0  0  0
  187.2210  176.6820  135.4360 C   0  0  2  0  0  3  0  0  0  0  0  0
  187.7310  175.3890  135.2800 O   0  0  0  0  0  1  0  0  0  0  0  0
  185.8590  176.8200  134.7590 C   0  0  0  0  0  2  0  0  0  0  0  0
  185.3370  177.1050  137.1820 C   0  0  0  0  0  1  0  0  0  0  0  0
  184.7700  177.1280  135.7740 C   0  0  0  0  0  2  0  0  0  0  0  0
  2  3  2  0  0  0  0
  3 17  1  0  0  0  0
  3  1  1  0  0  0  0
  4  6  1  0  0  0  0
  5 30  1  6  0  0  0
  5  2  1  0  0  0  0
  5  4  1  0  0  0  0
  6  1  1  0  0  0  0
  7  4  2  0  0  0  0
  9 11  1  0  0  0  0
 10 12  2  0  0  0  0
 12  8  2  0  0  0  0
 12  9  1  0  0  0  0
 13  6  1  6  0  0  0
 13 12  1  0  0  0  0
 13 14  1  0  0  0  0
 14  9  1  0  0  0  0
 16 18  1  0  0  0  0
 16 17  1  0  0  0  0
 17 15  2  0  0  0  0
 19 18  1  0  0  0  0
 19 23  1  0  0  0  0
 20 22  1  0  0  0  0
 21 23  1  0  0  0  0
 21 25  2  0  0  0  0
 22 27  1  0  0  0  0
 23 20  2  0  0  0  0
 24 25  1  0  0  0  0
 25 26  1  0  0  0  0
 26 22  2  0  0  0  0
 27 28  1  0  0  0  0
 31 29  2  0  0  0  0
 31 30  1  0  0  0  0
 32 31  1  0  0  0  0
 33 34  1  0  0  0  0
 33 32  1  0  0  0  0
 34 35  1  6  0  0  0
 36 34  1  0  0  0  0
 36 38  1  0  0  0  0
 38 37  1  0  0  0  0
M  END
>  <MODEL>
7

>  <REMARK>
 VINA RESULT:      -7.0      2.613      6.661
  Name = 
  12 active torsions:
  status: ('A' for Active; 'I' for Inactive)
    1  A    between atoms: C_1  and  C_22
    2  A    between atoms: C_6  and  N_18
    3  A    between atoms: C_6  and  C_37
    4  A    between atoms: C_9  and  C_30
    5  A    between atoms: C_10  and  N_18
    6  A    between atoms: C_10  and  C_19
    7  A    between atoms: N_16  and  N_26
    8  A    between atoms: C_19  and  C_32
    9  A    between atoms: C_21  and  N_35
   10  A    between atoms: C_24  and  C_36
   11  A    between atoms: N_25  and  C_29
   12  A    between atoms: N_26  and  C_36
                            x       y       z     vdW  Elec       q    Type
                         _______ _______ _______ _____ _____    ______ ____

>  <TORSDO>
F 12

$$$$
=
 OpenBabel11042410023D

 38 40  0  0  1  0  0  0  0  0999 V2000
  182.8160  179.2670  140.7730 C   0  0  0  0  0  2  0  0  0  0  0  0
  185.0560  178.7980  141.6750 C   0  0  0  0  0  3  0  0  0  0  0  0
  184.2700  178.9200  140.5970 C   0  0  0  0  0  0  0  0  0  0  0  0
  183.0950  178.5860  143.1620 C   0  0  0  0  0  0  0  0  0  0  0  0
  184.5350  179.0140  143.0700 C   0  0  1  0  0  3  0  0  0  0  0  0
  182.2680  178.6470  141.9860 N   0  0  0  0  0  0  0  0  0  0  0  0
  182.6090  178.2280  144.2690 O   0  0  0  0  0  0  0  0  0  0  0  0
  178.9330  178.9530  143.8690 O   0  0  0  0  0  0  0  0  0  0  0  0
  179.1750  179.4940  141.2420 N   0  0  0  0  0  0  0  0  0  0  0  0
  180.6040  180.7210  143.2140 O   0  0  0  0  0  0  0  0  0  0  0  0
  179.5580  180.7340  140.5840 C   0  0  0  0  0  1  0  0  0  0  0  0
  179.8800  179.4620  142.8190 S   0  0  0  0  0  0  0  0  0  0  0  0
  180.8660  178.2180  142.0710 C   0  0  1  0  0  3  0  0  0  0  0  0
  180.0910  178.4470  140.7610 C   0  0  0  0  0  2  0  0  0  0  0  0
  184.0190  178.6230  138.2220 N   0  0  0  0  0  2  0  0  0  0  0  0
  186.2310  178.6510  139.0490 N   0  0  0  0  0  2  0  0  0  0  0  0
  184.8140  178.7210  139.2400 C   0  0  0  0  0  0  0  0  0  0  0  0
  186.8020  178.5420  137.7720 N   0  0  0  0  0  2  0  0  0  0  0  0
  187.2010  177.1530  137.5980 C   0  0  0  0  0  2  0  0  0  0  0  0
  188.6640  177.3210  139.6190 C   0  0  0  0  0  3  0  0  0  0  0  0
  189.5240  176.2320  137.6400 C   0  0  0  0  0  3  0  0  0  0  0  0
  189.8790  177.0690  140.2610 C   0  0  0  0  0  0  0  0  0  0  0  0
  188.4910  176.9070  138.2960 C   0  0  0  0  0  0  0  0  0  0  0  0
  191.8310  175.2770  137.6350 C   0  0  0  0  0  1  0  0  0  0  0  0
  190.7210  175.9920  138.3180 C   0  0  0  0  0  0  0  0  0  0  0  0
  190.8730  176.4100  139.6040 N   0  0  0  0  0  0  0  0  0  0  0  0
  190.0740  177.4910  141.6740 C   0  0  0  0  0  2  0  0  0  0  0  0
  188.9360  178.2790  142.1140 N   0  0  0  0  0  1  0  0  0  0  0  0
  184.9670  179.7310  145.8080 O   0  0  0  0  0  0  0  0  0  0  0  0
  185.3520  178.2720  144.0210 N   0  0  0  0  0  2  0  0  0  0  0  0
  185.5450  178.7000  145.3710 C   0  0  0  0  0  0  0  0  0  0  0  0
  186.4100  177.9000  146.2790 C   0  0  0  0  0  2  0  0  0  0  0  0
  187.8080  178.0580  145.8890 N   0  0  0  0  0  2  0  0  0  0  0  0
  188.6640  177.1910  146.7000 C   0  0  2  0  0  3  0  0  0  0  0  0
  188.7670  177.6740  148.0100 O   0  0  0  0  0  1  0  0  0  0  0  0
  190.0440  177.0220  146.0690 C   0  0  0  0  0  2  0  0  0  0  0  0
  191.6860  175.6400  147.3410 C   0  0  0  0  0  1  0  0  0  0  0  0
  191.1360  177.0390  147.1260 C   0  0  0  0  0  2  0  0  0  0  0  0
  1  6  1  0  0  0  0
  2  5  1  0  0  0  0
  3  1  1  0  0  0  0
  3  2  2  0  0  0  0
  4  7  2  0  0  0  0
  5  4  1  0  0  0  0
  5 30  1  1  0  0  0
  6 13  1  0  0  0  0
  6  4  1  0  0  0  0
  9 12  1  0  0  0  0
 11  9  1  0  0  0  0
 12 10  2  0  0  0  0
 12  8  2  0  0  0  0
 13 14  1  6  0  0  0
 13 12  1  0  0  0  0
 14  9  1  0  0  0  0
 15 17  2  0  0  0  0
 16 17  1  0  0  0  0
 17  3  1  0  0  0  0
 18 16  1  0  0  0  0
 19 18  1  0  0  0  0
 19 23  1  0  0  0  0
 20 22  1  0  0  0  0
 21 23  1  0  0  0  0
 21 25  2  0  0  0  0
 22 27  1  0  0  0  0
 23 20  2  0  0  0  0
 24 25  1  0  0  0  0
 25 26  1  0  0  0  0
 26 22  2  0  0  0  0
 27 28  1  0  0  0  0
 30 31  1  0  0  0  0
 31 29  2  0  0  0  0
 31 32  1  0  0  0  0
 33 32  1  0  0  0  0
 33 34  1  0  0  0  0
 34 35  1  1  0  0  0
 36 34  1  0  0  0  0
 36 38  1  0  0  0  0
 38 37  1  0  0  0  0
M  END
>  <MODEL>
8

>  <REMARK>
 VINA RESULT:      -7.0      4.357      8.392
  Name = 
  12 active torsions:
  status: ('A' for Active; 'I' for Inactive)
    1  A    between atoms: C_1  and  C_22
    2  A    between atoms: C_6  and  N_18
    3  A    between atoms: C_6  and  C_37
    4  A    between atoms: C_9  and  C_30
    5  A    between atoms: C_10  and  N_18
    6  A    between atoms: C_10  and  C_19
    7  A    between atoms: N_16  and  N_26
    8  A    between atoms: C_19  and  C_32
    9  A    between atoms: C_21  and  N_35
   10  A    between atoms: C_24  and  C_36
   11  A    between atoms: N_25  and  C_29
   12  A    between atoms: N_26  and  C_36
                            x       y       z     vdW  Elec       q    Type
                         _______ _______ _______ _____ _____    ______ ____

>  <TORSDO>
F 12

$$$$
=
 OpenBabel11042410023D

 38 40  0  0  1  0  0  0  0  0999 V2000
  189.3400  176.8370  138.3340 C   0  0  0  0  0  2  0  0  0  0  0  0
  191.6620  176.0240  138.3510 C   0  0  0  0  0  3  0  0  0  0  0  0
  190.6700  176.6370  139.0110 C   0  0  0  0  0  0  0  0  0  0  0  0
  190.5350  176.3870  136.1840 C   0  0  0  0  0  0  0  0  0  0  0  0
  191.4880  175.5090  136.9490 C   0  0  1  0  0  3  0  0  0  0  0  0
  189.5130  177.1050  136.9000 N   0  0  0  0  0  0  0  0  0  0  0  0
  190.6000  176.4510  134.9270 O   0  0  0  0  0  0  0  0  0  0  0  0
  186.4340  177.2880  134.6080 O   0  0  0  0  0  0  0  0  0  0  0  0
  186.5500  178.5360  136.9910 N   0  0  0  0  0  0  0  0  0  0  0  0
  186.8780  175.8530  136.6310 O   0  0  0  0  0  0  0  0  0  0  0  0
  186.2270  178.0320  138.3170 C   0  0  0  0  0  1  0  0  0  0  0  0
  187.0190  177.2080  135.9900 S   0  0  0  0  0  0  0  0  0  0  0  0
  188.5900  177.9710  136.1570 C   0  0  1  0  0  3  0  0  0  0  0  0
  187.9310  179.0430  137.0450 C   0  0  0  0  0  2  0  0  0  0  0  0
  192.0320  177.5020  140.7970 N   0  0  0  0  0  2  0  0  0  0  0  0
  189.7480  177.1590  141.2890 N   0  0  0  0  0  2  0  0  0  0  0  0
  190.8640  177.1140  140.3930 C   0  0  0  0  0  0  0  0  0  0  0  0
  189.8610  177.6760  142.5880 N   0  0  0  0  0  2  0  0  0  0  0  0
  189.4790  176.6150  143.5080 C   0  0  0  0  0  2  0  0  0  0  0  0
  187.2460  177.5530  144.1320 C   0  0  0  0  0  3  0  0  0  0  0  0
  188.8950  177.2020  145.8650 C   0  0  0  0  0  3  0  0  0  0  0  0
  186.3620  178.0340  145.1000 C   0  0  0  0  0  0  0  0  0  0  0  0
  188.5250  177.1430  144.5190 C   0  0  0  0  0  0  0  0  0  0  0  0
  188.3550  177.7530  148.2410 C   0  0  0  0  0  1  0  0  0  0  0  0
  187.9790  177.6820  146.8050 C   0  0  0  0  0  0  0  0  0  0  0  0
  186.7410  178.0840  146.4070 N   0  0  0  0  0  0  0  0  0  0  0  0
  184.9910  178.4610  144.7070 C   0  0  0  0  0  2  0  0  0  0  0  0
  184.2900  178.9900  145.8650 N   0  0  0  0  0  1  0  0  0  0  0  0
  193.4640  173.4690  137.3140 O   0  0  0  0  0  0  0  0  0  0  0  0
  192.7820  175.4530  136.2800 N   0  0  0  0  0  2  0  0  0  0  0  0
  193.7330  174.4160  136.5270 C   0  0  0  0  0  0  0  0  0  0  0  0
  195.0430  174.4370  135.8210 C   0  0  0  0  0  2  0  0  0  0  0  0
  195.9310  175.4010  136.4640 N   0  0  0  0  0  2  0  0  0  0  0  0
  197.1570  174.7410  136.9150 C   0  0  2  0  0  3  0  0  0  0  0  0
  198.2880  175.4580  136.5120 O   0  0  0  0  0  1  0  0  0  0  0  0
  197.2220  173.2950  136.4270 C   0  0  0  0  0  2  0  0  0  0  0  0
  196.2570  171.2510  137.4830 C   0  0  0  0  0  1  0  0  0  0  0  0
  197.3230  172.3260  137.5940 C   0  0  0  0  0  2  0  0  0  0  0  0
  1  3  1  0  0  0  0
  2  3  2  0  0  0  0
  3 17  1  0  0  0  0
  4  6  1  0  0  0  0
  4  5  1  0  0  0  0
  5 30  1  6  0  0  0
  5  2  1  0  0  0  0
  6  1  1  0  0  0  0
  7  4  2  0  0  0  0
  8 12  2  0  0  0  0
  9 14  1  0  0  0  0
  9 11  1  0  0  0  0
 12 13  1  0  0  0  0
 12 10  2  0  0  0  0
 12  9  1  0  0  0  0
 13  6  1  1  0  0  0
 13 14  1  0  0  0  0
 16 18  1  0  0  0  0
 17 15  2  0  0  0  0
 17 16  1  0  0  0  0
 18 19  1  0  0  0  0
 19 23  1  0  0  0  0
 20 23  2  0  0  0  0
 20 22  1  0  0  0  0
 21 25  2  0  0  0  0
 22 26  2  0  0  0  0
 23 21  1  0  0  0  0
 25 24  1  0  0  0  0
 26 25  1  0  0  0  0
 27 22  1  0  0  0  0
 27 28  1  0  0  0  0
 30 31  1  0  0  0  0
 31 29  2  0  0  0  0
 32 33  1  0  0  0  0
 32 31  1  0  0  0  0
 33 34  1  0  0  0  0
 34 35  1  6  0  0  0
 36 34  1  0  0  0  0
 36 38  1  0  0  0  0
 37 38  1  0  0  0  0
M  END
>  <MODEL>
9

>  <REMARK>
 VINA RESULT:      -7.0      3.572      6.967
  Name = 
  12 active torsions:
  status: ('A' for Active; 'I' for Inactive)
    1  A    between atoms: C_1  and  C_22
    2  A    between atoms: C_6  and  N_18
    3  A    between atoms: C_6  and  C_37
    4  A    between atoms: C_9  and  C_30
    5  A    between atoms: C_10  and  N_18
    6  A    between atoms: C_10  and  C_19
    7  A    between atoms: N_16  and  N_26
    8  A    between atoms: C_19  and  C_32
    9  A    between atoms: C_21  and  N_35
   10  A    between atoms: C_24  and  C_36
   11  A    between atoms: N_25  and  C_29
   12  A    between atoms: N_26  and  C_36
                            x       y       z     vdW  Elec       q    Type
                         _______ _______ _______ _____ _____    ______ ____

>  <TORSDO>
F 12

$$$$
