=
 OpenBabel11042410053D

 29 33  0  0  1  0  0  0  0  0999 V2000
  185.3010  179.6280  142.1760 O   0  0  0  0  0  1  0  0  0  0  0  0
  187.8330  178.1940  139.1970 N   0  0  0  0  0  0  0  0  0  0  0  0
  188.7750  178.1660  138.0850 C   0  0  1  0  0  3  0  0  0  0  0  0
  189.0260  174.6330  136.5430 C   0  0  0  0  0  1  0  0  0  0  0  0
  189.3120  176.7450  137.8750 C   0  0  1  0  0  3  0  0  0  0  0  0
  188.7310  176.1200  136.5930 C   0  0  2  0  0  3  0  0  0  0  0  0
  185.8480  177.8890  137.6050 C   0  0  1  0  0  3  0  0  0  0  0  0
  185.5630  178.6280  140.0360 C   0  0  0  0  0  0  0  0  0  0  0  0
  187.5300  178.8460  141.4790 C   0  0  0  0  0  3  0  0  0  0  0  0
  183.5300  176.9300  138.3190 C   0  0  0  0  0  0  0  0  0  0  0  0
  183.3590  177.6010  139.6470 C   0  0  0  0  0  2  0  0  0  0  0  0
  186.9480  177.6930  136.5260 C   0  0  1  0  0  0  0  0  0  0  0  0
  184.6330  176.9700  137.4430 C   0  0  0  0  0  0  0  0  0  0  0  0
  186.0930  179.0190  141.2090 C   0  0  0  0  0  0  0  0  0  0  0  0
  186.4050  177.8290  139.0580 C   0  0  2  0  0  3  0  0  0  0  0  0
  186.4120  178.0720  135.1550 C   0  0  0  0  0  1  0  0  0  0  0  0
  184.1220  178.9050  139.7450 C   0  0  0  0  0  2  0  0  0  0  0  0
  188.0850  178.6760  136.8360 C   0  0  0  0  0  2  0  0  0  0  0  0
  182.4110  175.8160  137.7450 S   0  0  0  0  0  0  0  0  0  0  0  0
  183.2740  175.4000  136.3750 C   0  0  0  0  0  0  0  0  0  0  0  0
  188.3540  178.4680  140.5020 C   0  0  0  0  0  3  0  0  0  0  0  0
  184.4620  176.1080  136.3410 C   0  0  0  0  0  3  0  0  0  0  0  0
  187.3340  176.3150  136.5200 O   0  0  0  0  0  0  0  0  0  0  0  0
  191.0990  176.6100  140.1000 O   0  0  0  0  0  1  0  0  0  0  0  0
  190.7650  176.7980  137.7940 N   0  0  0  0  0  2  0  0  0  0  0  0
  192.9820  176.7130  138.7990 O   0  0  0  0  0  0  0  0  0  0  0  0
  191.6020  176.6990  138.9480 C   0  0  0  0  0  0  0  0  0  0  0  0
  182.8500  174.4480  135.3890 C   0  0  0  0  0  0  0  0  0  0  0  0
  182.5090  173.6800  134.5940 N   0  0  0  0  0  0  0  0  0  0  0  0
  2 21  1  0  0  0  0
  3 18  1  6  0  0  0
  3  2  1  0  0  0  0
  5 25  1  6  0  0  0
  5  3  1  0  0  0  0
  6  4  1  1  0  0  0
  6  5  1  0  0  0  0
  7 13  1  1  0  0  0
  7 15  1  0  0  0  0
  8 14  2  0  0  0  0
 10 11  1  0  0  0  0
 11 17  1  0  0  0  0
 12 16  1  6  0  0  0
 12 18  1  0  0  0  0
 12  7  1  0  0  0  0
 13 10  2  0  0  0  0
 14  9  1  0  0  0  0
 14  1  1  0  0  0  0
 15  2  1  0  0  0  0
 15  8  1  1  0  0  0
 17  8  1  0  0  0  0
 19 10  1  0  0  0  0
 20 19  1  0  0  0  0
 21  9  2  0  0  0  0
 22 20  2  0  0  0  0
 22 13  1  0  0  0  0
 23 12  1  0  0  0  0
 23  6  1  0  0  0  0
 25 27  1  0  0  0  0
 26 27  2  0  0  0  0
 27 24  1  0  0  0  0
 28 20  1  0  0  0  0
 29 28  3  0  0  0  0
M  END
>  <MODEL>
1

>  <REMARK>
 VINA RESULT:      -6.1      0.000      0.000
  Name = 
  2 active torsions:
  status: ('A' for Active; 'I' for Inactive)
    1  A    between atoms: C_6  and  N_16
    2  A    between atoms: C_23  and  C_26
                            x       y       z     vdW  Elec       q    Type
                         _______ _______ _______ _____ _____    ______ ____

>  <TORSDO>
F 2

$$$$
=
 OpenBabel11042410053D

 29 33  0  0  1  0  0  0  0  0999 V2000
  182.2530  179.0560  144.5480 O   0  0  0  0  0  1  0  0  0  0  0  0
  184.2270  178.9390  140.8820 N   0  0  0  0  0  0  0  0  0  0  0  0
  184.8620  179.3740  139.6450 C   0  0  1  0  0  3  0  0  0  0  0  0
  185.4150  176.4110  137.2290 C   0  0  0  0  0  1  0  0  0  0  0  0
  185.5970  178.2030  138.9810 C   0  0  1  0  0  3  0  0  0  0  0  0
  184.8590  177.7360  137.7130 C   0  0  2  0  0  3  0  0  0  0  0  0
  182.0160  178.4950  139.6650 C   0  0  1  0  0  3  0  0  0  0  0  0
  182.1830  178.6190  142.2130 C   0  0  0  0  0  0  0  0  0  0  0  0
  184.3590  179.0060  143.2700 C   0  0  0  0  0  3  0  0  0  0  0  0
  180.1670  176.8710  140.5280 C   0  0  0  0  0  0  0  0  0  0  0  0
  180.1920  177.1880  141.9920 C   0  0  0  0  0  2  0  0  0  0  0  0
  182.8420  178.8030  138.3860 C   0  0  1  0  0  0  0  0  0  0  0  0
  180.9980  177.3620  139.5020 C   0  0  0  0  0  0  0  0  0  0  0  0
  182.8930  178.8740  143.3270 C   0  0  0  0  0  0  0  0  0  0  0  0
  182.9050  178.2720  140.9230 C   0  0  2  0  0  3  0  0  0  0  0  0
  181.9300  179.3160  137.2830 C   0  0  0  0  0  1  0  0  0  0  0  0
  180.6890  178.5900  142.2770 C   0  0  0  0  0  2  0  0  0  0  0  0
  183.8080  179.9480  138.7200 C   0  0  0  0  0  2  0  0  0  0  0  0
  179.1800  175.6620  139.9060 S   0  0  0  0  0  0  0  0  0  0  0  0
  179.7530  175.7640  138.3400 C   0  0  0  0  0  0  0  0  0  0  0  0
  184.9820  179.0530  142.0930 C   0  0  0  0  0  3  0  0  0  0  0  0
  180.7380  176.7330  138.2670 C   0  0  0  0  0  3  0  0  0  0  0  0
  183.4740  177.5940  137.9550 O   0  0  0  0  0  0  0  0  0  0  0  0
  187.9420  177.6010  140.4990 O   0  0  0  0  0  1  0  0  0  0  0  0
  186.9500  178.6260  138.6470 N   0  0  0  0  0  2  0  0  0  0  0  0
  189.3530  178.6650  139.0420 O   0  0  0  0  0  0  0  0  0  0  0  0
  188.0840  178.2670  139.4380 C   0  0  0  0  0  0  0  0  0  0  0  0
  179.2980  174.9640  137.2380 C   0  0  0  0  0  0  0  0  0  0  0  0
  178.9310  174.3190  136.3510 N   0  0  0  0  0  0  0  0  0  0  0  0
  2 15  1  0  0  0  0
  2 21  1  0  0  0  0
  3 18  1  6  0  0  0
  3  2  1  0  0  0  0
  5 25  1  6  0  0  0
  5  3  1  0  0  0  0
  6  4  1  1  0  0  0
  6 23  1  0  0  0  0
  6  5  1  0  0  0  0
  7 13  1  6  0  0  0
  7 15  1  0  0  0  0
  8 17  1  0  0  0  0
  8 14  2  0  0  0  0
  9 14  1  0  0  0  0
 10 11  1  0  0  0  0
 11 17  1  0  0  0  0
 12 16  1  6  0  0  0
 12 18  1  0  0  0  0
 12  7  1  0  0  0  0
 13 10  2  0  0  0  0
 14  1  1  0  0  0  0
 15  8  1  1  0  0  0
 19 10  1  0  0  0  0
 20 19  1  0  0  0  0
 21  9  2  0  0  0  0
 22 20  2  0  0  0  0
 22 13  1  0  0  0  0
 23 12  1  0  0  0  0
 25 27  1  0  0  0  0
 26 27  2  0  0  0  0
 27 24  1  0  0  0  0
 28 20  1  0  0  0  0
 29 28  3  0  0  0  0
M  END
>  <MODEL>
2

>  <REMARK>
 VINA RESULT:      -5.7      2.918      4.147
  Name = 
  2 active torsions:
  status: ('A' for Active; 'I' for Inactive)
    1  A    between atoms: C_6  and  N_16
    2  A    between atoms: C_23  and  C_26
                            x       y       z     vdW  Elec       q    Type
                         _______ _______ _______ _____ _____    ______ ____

>  <TORSDO>
F 2

$$$$
=
 OpenBabel11042410053D

 29 33  0  0  1  0  0  0  0  0999 V2000
  189.7930  178.1130  142.9050 O   0  0  0  0  0  1  0  0  0  0  0  0
  189.5740  177.0720  138.8780 N   0  0  0  0  0  0  0  0  0  0  0  0
  189.8050  177.0770  137.4390 C   0  0  1  0  0  3  0  0  0  0  0  0
  187.2230  174.8770  135.5910 C   0  0  0  0  0  1  0  0  0  0  0  0
  189.2190  175.8130  136.7990 C   0  0  1  0  0  3  0  0  0  0  0  0
  187.9600  176.1450  135.9750 C   0  0  2  0  0  3  0  0  0  0  0  0
  187.4270  178.4440  138.6020 C   0  0  1  0  0  3  0  0  0  0  0  0
  188.5740  178.1210  140.8640 C   0  0  0  0  0  0  0  0  0  0  0  0
  190.6000  176.7530  141.0150 C   0  0  0  0  0  3  0  0  0  0  0  0
  185.4830  178.4900  140.3400 C   0  0  0  0  0  0  0  0  0  0  0  0
  186.2660  178.5290  141.6170 C   0  0  0  0  0  2  0  0  0  0  0  0
  187.6750  178.2300  137.0830 C   0  0  1  0  0  0  0  0  0  0  0  0
  185.9550  178.3730  139.0170 C   0  0  0  0  0  0  0  0  0  0  0  0
  189.6120  177.6780  141.5960 C   0  0  0  0  0  0  0  0  0  0  0  0
  188.3050  177.5200  139.4960 C   0  0  2  0  0  3  0  0  0  0  0  0
  187.0390  179.3570  136.2840 C   0  0  0  0  0  1  0  0  0  0  0  0
  187.6400  179.1370  141.4420 C   0  0  0  0  0  2  0  0  0  0  0  0
  189.1880  178.3250  136.8410 C   0  0  0  0  0  2  0  0  0  0  0  0
  183.8060  178.3980  140.3370 S   0  0  0  0  0  0  0  0  0  0  0  0
  183.6470  178.2490  138.6800 C   0  0  0  0  0  0  0  0  0  0  0  0
  190.5810  176.4860  139.7100 C   0  0  0  0  0  3  0  0  0  0  0  0
  184.8980  178.2530  138.0910 C   0  0  0  0  0  3  0  0  0  0  0  0
  187.0850  176.9850  136.7000 O   0  0  0  0  0  0  0  0  0  0  0  0
  191.0310  173.7530  137.5930 O   0  0  0  0  0  1  0  0  0  0  0  0
  190.2300  175.2040  135.9460 N   0  0  0  0  0  2  0  0  0  0  0  0
  192.0040  173.5890  135.5270 O   0  0  0  0  0  0  0  0  0  0  0  0
  191.0890  174.1580  136.4020 C   0  0  0  0  0  0  0  0  0  0  0  0
  182.4020  178.1290  137.9760 C   0  0  0  0  0  0  0  0  0  0  0  0
  181.3980  178.0320  137.4090 N   0  0  0  0  0  0  0  0  0  0  0  0
  2 15  1  0  0  0  0
  2 21  1  0  0  0  0
  3 18  1  6  0  0  0
  3  2  1  0  0  0  0
  5 25  1  6  0  0  0
  5  3  1  0  0  0  0
  6  4  1  1  0  0  0
  6 23  1  0  0  0  0
  6  5  1  0  0  0  0
  7 13  1  6  0  0  0
  7 15  1  0  0  0  0
  8 17  1  0  0  0  0
  8 14  2  0  0  0  0
  9 14  1  0  0  0  0
 10 11  1  0  0  0  0
 12 16  1  6  0  0  0
 12  7  1  0  0  0  0
 13 10  2  0  0  0  0
 14  1  1  0  0  0  0
 15  8  1  1  0  0  0
 17 11  1  0  0  0  0
 18 12  1  0  0  0  0
 19 10  1  0  0  0  0
 20 19  1  0  0  0  0
 21  9  2  0  0  0  0
 22 20  2  0  0  0  0
 22 13  1  0  0  0  0
 23 12  1  0  0  0  0
 25 27  1  0  0  0  0
 26 27  2  0  0  0  0
 27 24  1  0  0  0  0
 28 20  1  0  0  0  0
 29 28  3  0  0  0  0
M  END
>  <MODEL>
3

>  <REMARK>
 VINA RESULT:      -5.7      2.338      3.134
  Name = 
  2 active torsions:
  status: ('A' for Active; 'I' for Inactive)
    1  A    between atoms: C_6  and  N_16
    2  A    between atoms: C_23  and  C_26
                            x       y       z     vdW  Elec       q    Type
                         _______ _______ _______ _____ _____    ______ ____

>  <TORSDO>
F 2

$$$$
=
 OpenBabel11042410053D

 29 33  0  0  1  0  0  0  0  0999 V2000
  185.3100  179.1750  139.9220 O   0  0  0  0  0  1  0  0  0  0  0  0
  188.4320  178.0140  142.4230 N   0  0  0  0  0  0  0  0  0  0  0  0
  189.5720  178.0860  143.3270 C   0  0  1  0  0  3  0  0  0  0  0  0
  191.2900  174.6470  143.7040 C   0  0  0  0  0  1  0  0  0  0  0  0
  189.8660  176.7060  143.9280 C   0  0  1  0  0  3  0  0  0  0  0  0
  191.1590  176.1120  143.3370 C   0  0  2  0  0  3  0  0  0  0  0  0
  189.9740  177.6810  140.4040 C   0  0  1  0  0  3  0  0  0  0  0  0
  187.5030  178.2900  140.1630 C   0  0  0  0  0  0  0  0  0  0  0  0
  186.1130  178.5420  142.1640 C   0  0  0  0  0  3  0  0  0  0  0  0
  189.2360  176.5710  138.1620 C   0  0  0  0  0  0  0  0  0  0  0  0
  187.8730  177.1700  138.0010 C   0  0  0  0  0  2  0  0  0  0  0  0
  191.0950  177.5920  141.4760 C   0  0  1  0  0  0  0  0  0  0  0  0
  190.1420  176.7090  139.2320 C   0  0  0  0  0  0  0  0  0  0  0  0
  186.3300  178.6530  140.7110 C   0  0  0  0  0  0  0  0  0  0  0  0
  188.5440  177.5820  141.0110 C   0  0  2  0  0  3  0  0  0  0  0  0
  192.4290  178.0060  140.8760 C   0  0  0  0  0  1  0  0  0  0  0  0
  187.7360  178.5060  138.7010 C   0  0  0  0  0  2  0  0  0  0  0  0
  190.7740  178.6170  142.5710 C   0  0  0  0  0  2  0  0  0  0  0  0
  189.8280  175.4290  137.0820 S   0  0  0  0  0  0  0  0  0  0  0  0
  191.2420  175.1220  137.9180 C   0  0  0  0  0  0  0  0  0  0  0  0
  187.1310  178.2530  142.9730 C   0  0  0  0  0  3  0  0  0  0  0  0
  191.2800  175.8910  139.0670 C   0  0  0  0  0  3  0  0  0  0  0  0
  191.1790  176.2380  141.9300 O   0  0  0  0  0  0  0  0  0  0  0  0
  187.7020  177.1490  145.7390 O   0  0  0  0  0  0  0  0  0  0  0  0
  189.9900  176.8380  145.3730 N   0  0  0  0  0  2  0  0  0  0  0  0
  189.0390  177.1080  147.5980 O   0  0  0  0  0  1  0  0  0  0  0  0
  188.8600  177.0330  146.2240 C   0  0  0  0  0  0  0  0  0  0  0  0
  192.2600  174.1960  137.5100 C   0  0  0  0  0  0  0  0  0  0  0  0
  193.0810  173.4490  137.1810 N   0  0  0  0  0  0  0  0  0  0  0  0
  1 14  1  0  0  0  0
  2 21  1  0  0  0  0
  2  3  1  0  0  0  0
  3 18  1  6  0  0  0
  3  5  1  0  0  0  0
  5 25  1  1  0  0  0
  6  4  1  6  0  0  0
  6  5  1  0  0  0  0
  7 13  1  6  0  0  0
  7 15  1  0  0  0  0
  7 12  1  0  0  0  0
  8 14  2  0  0  0  0
  9 21  2  0  0  0  0
 10 13  2  0  0  0  0
 11 10  1  0  0  0  0
 11 17  1  0  0  0  0
 12 16  1  6  0  0  0
 12 23  1  0  0  0  0
 12 18  1  0  0  0  0
 14  9  1  0  0  0  0
 15  8  1  6  0  0  0
 15  2  1  0  0  0  0
 17  8  1  0  0  0  0
 19 20  1  0  0  0  0
 19 10  1  0  0  0  0
 20 22  2  0  0  0  0
 22 13  1  0  0  0  0
 23  6  1  0  0  0  0
 24 27  2  0  0  0  0
 25 27  1  0  0  0  0
 27 26  1  0  0  0  0
 28 20  1  0  0  0  0
 29 28  3  0  0  0  0
M  END
>  <MODEL>
4

>  <REMARK>
 VINA RESULT:      -5.6      3.769      6.374
  Name = 
  2 active torsions:
  status: ('A' for Active; 'I' for Inactive)
    1  A    between atoms: C_6  and  N_16
    2  A    between atoms: C_23  and  C_26
                            x       y       z     vdW  Elec       q    Type
                         _______ _______ _______ _____ _____    ______ ____

>  <TORSDO>
F 2

$$$$
=
 OpenBabel11042410053D

 29 33  0  0  1  0  0  0  0  0999 V2000
  188.1840  176.4780  135.5070 O   0  0  0  0  0  1  0  0  0  0  0  0
  184.1580  176.4970  136.5710 N   0  0  0  0  0  0  0  0  0  0  0  0
  182.7310  176.7960  136.5600 C   0  0  1  0  0  3  0  0  0  0  0  0
  181.0390  175.6970  139.8550 C   0  0  0  0  0  1  0  0  0  0  0  0
  181.9850  175.8740  137.5330 C   0  0  1  0  0  3  0  0  0  0  0  0
  181.5100  176.6520  138.7750 C   0  0  2  0  0  3  0  0  0  0  0  0
  184.5910  178.3180  138.3210 C   0  0  1  0  0  3  0  0  0  0  0  0
  186.4700  177.2300  136.9720 C   0  0  0  0  0  0  0  0  0  0  0  0
  185.9420  175.4680  135.3540 C   0  0  0  0  0  3  0  0  0  0  0  0
  186.6560  178.3590  139.9130 C   0  0  0  0  0  0  0  0  0  0  0  0
  187.7330  177.9260  138.9670 C   0  0  0  0  0  2  0  0  0  0  0  0
  183.0410  178.4250  138.3610 C   0  0  1  0  0  0  0  0  0  0  0  0
  185.2690  178.4640  139.6870 C   0  0  0  0  0  0  0  0  0  0  0  0
  186.8780  176.4160  135.9820 C   0  0  0  0  0  0  0  0  0  0  0  0
  185.0920  177.0430  137.5810 C   0  0  2  0  0  3  0  0  0  0  0  0
  182.6230  179.8170  138.8050 C   0  0  0  0  0  1  0  0  0  0  0  0
  187.4110  178.2540  137.5250 C   0  0  0  0  0  2  0  0  0  0  0  0
  182.5260  178.2520  136.9260 C   0  0  0  0  0  2  0  0  0  0  0  0
  186.9700  178.6280  141.5410 S   0  0  0  0  0  0  0  0  0  0  0  0
  185.3810  178.9150  141.9750 C   0  0  0  0  0  0  0  0  0  0  0  0
  184.6400  175.5300  135.6310 C   0  0  0  0  0  3  0  0  0  0  0  0
  184.5670  178.7940  140.8640 C   0  0  0  0  0  3  0  0  0  0  0  0
  182.5460  177.4600  139.2950 O   0  0  0  0  0  0  0  0  0  0  0  0
  181.8140  173.1710  136.6270 O   0  0  0  0  0  1  0  0  0  0  0  0
  180.8450  175.2860  136.8430 N   0  0  0  0  0  2  0  0  0  0  0  0
  179.6820  173.4050  135.8240 O   0  0  0  0  0  0  0  0  0  0  0  0
  180.8160  173.9170  136.4400 C   0  0  0  0  0  0  0  0  0  0  0  0
  184.9300  179.2330  143.3000 C   0  0  0  0  0  0  0  0  0  0  0  0
  184.5670  179.4890  144.3680 N   0  0  0  0  0  0  0  0  0  0  0  0
  1 14  1  0  0  0  0
  2 15  1  0  0  0  0
  3  2  1  0  0  0  0
  3 18  1  1  0  0  0
  3  5  1  0  0  0  0
  5 25  1  6  0  0  0
  5  6  1  0  0  0  0
  6 23  1  0  0  0  0
  6  4  1  1  0  0  0
  7 12  1  0  0  0  0
  7 13  1  1  0  0  0
  8 17  1  0  0  0  0
  9 21  2  0  0  0  0
  9 14  1  0  0  0  0
 10 19  1  0  0  0  0
 11 10  1  0  0  0  0
 12 16  1  1  0  0  0
 12 23  1  0  0  0  0
 13 10  2  0  0  0  0
 13 22  1  0  0  0  0
 14  8  2  0  0  0  0
 15  8  1  6  0  0  0
 15  7  1  0  0  0  0
 17 11  1  0  0  0  0
 18 12  1  0  0  0  0
 19 20  1  0  0  0  0
 20 28  1  0  0  0  0
 21  2  1  0  0  0  0
 22 20  2  0  0  0  0
 26 27  2  0  0  0  0
 27 24  1  0  0  0  0
 27 25  1  0  0  0  0
 28 29  3  0  0  0  0
M  END
>  <MODEL>
5

>  <REMARK>
 VINA RESULT:      -5.4      3.189      7.234
  Name = 
  2 active torsions:
  status: ('A' for Active; 'I' for Inactive)
    1  A    between atoms: C_6  and  N_16
    2  A    between atoms: C_23  and  C_26
                            x       y       z     vdW  Elec       q    Type
                         _______ _______ _______ _____ _____    ______ ____

>  <TORSDO>
F 2

$$$$
=
 OpenBabel11042410053D

 29 33  0  0  1  0  0  0  0  0999 V2000
  186.0240  172.9000  134.9070 O   0  0  0  0  0  1  0  0  0  0  0  0
  185.8030  176.3540  137.2240 N   0  0  0  0  0  0  0  0  0  0  0  0
  185.5750  177.7400  137.6120 C   0  0  1  0  0  3  0  0  0  0  0  0
  187.1510  178.5140  141.0540 C   0  0  0  0  0  1  0  0  0  0  0  0
  185.6500  177.8870  139.1370 C   0  0  1  0  0  3  0  0  0  0  0  0
  186.9340  178.6270  139.5570 C   0  0  2  0  0  3  0  0  0  0  0  0
  188.3000  176.8010  136.8610 C   0  0  1  0  0  3  0  0  0  0  0  0
  187.1400  174.6930  135.9980 C   0  0  0  0  0  0  0  0  0  0  0  0
  184.7550  174.3510  136.4410 C   0  0  0  0  0  3  0  0  0  0  0  0
  190.1450  174.9580  136.9270 C   0  0  0  0  0  0  0  0  0  0  0  0
  189.4450  173.8520  136.1990 C   0  0  0  0  0  2  0  0  0  0  0  0
  187.9750  178.1960  137.4620 C   0  0  1  0  0  0  0  0  0  0  0  0
  189.6490  176.2230  137.3010 C   0  0  0  0  0  0  0  0  0  0  0  0
  186.0190  173.9800  135.7830 C   0  0  0  0  0  0  0  0  0  0  0  0
  187.1540  175.7680  137.0700 C   0  0  2  0  0  3  0  0  0  0  0  0
  188.9710  179.2290  136.9600 C   0  0  0  0  0  1  0  0  0  0  0  0
  188.3870  174.3590  135.2430 C   0  0  0  0  0  2  0  0  0  0  0  0
  186.6010  178.6230  136.9300 C   0  0  0  0  0  2  0  0  0  0  0  0
  191.6710  174.7450  137.5950 S   0  0  0  0  0  0  0  0  0  0  0  0
  191.7470  176.2460  138.3270 C   0  0  0  0  0  0  0  0  0  0  0  0
  184.6600  175.4990  137.1110 C   0  0  0  0  0  3  0  0  0  0  0  0
  190.5780  176.9430  138.0810 C   0  0  0  0  0  3  0  0  0  0  0  0
  188.0640  178.1060  138.8870 O   0  0  0  0  0  0  0  0  0  0  0  0
  183.1850  176.7020  139.9600 O   0  0  0  0  0  0  0  0  0  0  0  0
  184.4770  178.6160  139.5980 N   0  0  0  0  0  2  0  0  0  0  0  0
  182.2130  178.7070  140.4910 O   0  0  0  0  0  1  0  0  0  0  0  0
  183.2820  177.9570  140.0210 C   0  0  0  0  0  0  0  0  0  0  0  0
  192.8540  176.7340  139.0990 C   0  0  0  0  0  0  0  0  0  0  0  0
  193.7460  177.1280  139.7220 N   0  0  0  0  0  0  0  0  0  0  0  0
  1 14  1  0  0  0  0
  2  3  1  0  0  0  0
  3 18  1  6  0  0  0
  3  5  1  0  0  0  0
  5  6  1  0  0  0  0
  5 25  1  6  0  0  0
  6  4  1  1  0  0  0
  7 15  1  0  0  0  0
  7 13  1  1  0  0  0
  7 12  1  0  0  0  0
  9 21  2  0  0  0  0
 10 13  2  0  0  0  0
 10 19  1  0  0  0  0
 11 10  1  0  0  0  0
 12 16  1  6  0  0  0
 12 23  1  0  0  0  0
 13 22  1  0  0  0  0
 14  8  2  0  0  0  0
 14  9  1  0  0  0  0
 15  8  1  6  0  0  0
 15  2  1  0  0  0  0
 17  8  1  0  0  0  0
 17 11  1  0  0  0  0
 18 12  1  0  0  0  0
 19 20  1  0  0  0  0
 20 28  1  0  0  0  0
 21  2  1  0  0  0  0
 22 20  2  0  0  0  0
 23  6  1  0  0  0  0
 24 27  2  0  0  0  0
 25 27  1  0  0  0  0
 27 26  1  0  0  0  0
 28 29  3  0  0  0  0
M  END
>  <MODEL>
6

>  <REMARK>
 VINA RESULT:      -5.2      2.805      6.950
  Name = 
  2 active torsions:
  status: ('A' for Active; 'I' for Inactive)
    1  A    between atoms: C_6  and  N_16
    2  A    between atoms: C_23  and  C_26
                            x       y       z     vdW  Elec       q    Type
                         _______ _______ _______ _____ _____    ______ ____

>  <TORSDO>
F 2

$$$$
=
 OpenBabel11042410053D

 29 33  0  0  1  0  0  0  0  0999 V2000
  185.4620  171.8870  135.7080 O   0  0  0  0  0  1  0  0  0  0  0  0
  186.3670  175.8550  136.5910 N   0  0  0  0  0  0  0  0  0  0  0  0
  186.4430  177.3070  136.4880 C   0  0  1  0  0  3  0  0  0  0  0  0
  189.0280  178.7610  138.9630 C   0  0  0  0  0  1  0  0  0  0  0  0
  186.9720  177.9090  137.7950 C   0  0  1  0  0  3  0  0  0  0  0  0
  188.4070  178.4390  137.6170 C   0  0  2  0  0  3  0  0  0  0  0  0
  188.6910  175.5970  135.5420 C   0  0  1  0  0  3  0  0  0  0  0  0
  187.0670  173.6380  135.7900 C   0  0  0  0  0  0  0  0  0  0  0  0
  184.8870  173.9940  136.8490 C   0  0  0  0  0  3  0  0  0  0  0  0
  190.2200  173.5080  135.8610 C   0  0  0  0  0  0  0  0  0  0  0  0
  189.2030  172.4130  135.7630 C   0  0  0  0  0  2  0  0  0  0  0  0
  188.7370  177.1460  135.6490 C   0  0  1  0  0  0  0  0  0  0  0  0
  190.0220  174.9030  135.8480 C   0  0  0  0  0  0  0  0  0  0  0  0
  185.8500  173.1620  136.1070 C   0  0  0  0  0  0  0  0  0  0  0  0
  187.5290  174.9660  136.3640 C   0  0  2  0  0  3  0  0  0  0  0  0
  189.6720  177.7170  134.5950 C   0  0  0  0  0  1  0  0  0  0  0  0
  187.9900  172.8130  134.9500 C   0  0  0  0  0  2  0  0  0  0  0  0
  187.3350  177.6770  135.3200 C   0  0  0  0  0  2  0  0  0  0  0  0
  191.8330  173.1840  136.2010 S   0  0  0  0  0  0  0  0  0  0  0  0
  192.3100  174.7820  136.2980 C   0  0  0  0  0  0  0  0  0  0  0  0
  185.1390  175.2850  137.0570 C   0  0  0  0  0  3  0  0  0  0  0  0
  191.2210  175.6070  136.0830 C   0  0  0  0  0  3  0  0  0  0  0  0
  189.2190  177.4950  136.9500 O   0  0  0  0  0  0  0  0  0  0  0  0
  184.5880  177.5930  139.3370 O   0  0  0  0  0  0  0  0  0  0  0  0
  186.0860  178.9880  138.2090 N   0  0  0  0  0  2  0  0  0  0  0  0
  184.1400  179.8390  139.4010 O   0  0  0  0  0  1  0  0  0  0  0  0
  184.9200  178.7620  139.0030 C   0  0  0  0  0  0  0  0  0  0  0  0
  193.6460  175.2310  136.5700 C   0  0  0  0  0  0  0  0  0  0  0  0
  194.7230  175.5940  136.7890 N   0  0  0  0  0  0  0  0  0  0  0  0
  1 14  1  0  0  0  0
  2 21  1  0  0  0  0
  3 18  1  6  0  0  0
  3  2  1  0  0  0  0
  3  5  1  0  0  0  0
  5 25  1  6  0  0  0
  6  5  1  0  0  0  0
  6  4  1  1  0  0  0
  7 12  1  0  0  0  0
  7 13  1  1  0  0  0
  7 15  1  0  0  0  0
  8 14  2  0  0  0  0
  9 21  2  0  0  0  0
 10 19  1  0  0  0  0
 11 10  1  0  0  0  0
 12 16  1  6  0  0  0
 12 23  1  0  0  0  0
 13 10  2  0  0  0  0
 13 22  1  0  0  0  0
 14  9  1  0  0  0  0
 15  8  1  6  0  0  0
 15  2  1  0  0  0  0
 17 11  1  0  0  0  0
 17  8  1  0  0  0  0
 18 12  1  0  0  0  0
 19 20  1  0  0  0  0
 20 28  1  0  0  0  0
 22 20  2  0  0  0  0
 23  6  1  0  0  0  0
 25 27  1  0  0  0  0
 27 24  2  0  0  0  0
 27 26  1  0  0  0  0
 28 29  3  0  0  0  0
M  END
>  <MODEL>
7

>  <REMARK>
 VINA RESULT:      -5.1      3.069      6.872
  Name = 
  2 active torsions:
  status: ('A' for Active; 'I' for Inactive)
    1  A    between atoms: C_6  and  N_16
    2  A    between atoms: C_23  and  C_26
                            x       y       z     vdW  Elec       q    Type
                         _______ _______ _______ _____ _____    ______ ____

>  <TORSDO>
F 2

$$$$
=
 OpenBabel11042410053D

 29 33  0  0  1  0  0  0  0  0999 V2000
  192.4440  175.0320  137.8590 O   0  0  0  0  0  1  0  0  0  0  0  0
  188.4660  175.0600  136.6230 N   0  0  0  0  0  0  0  0  0  0  0  0
  187.2800  175.2680  135.8020 C   0  0  1  0  0  3  0  0  0  0  0  0
  184.0450  174.8380  137.8700 C   0  0  0  0  0  1  0  0  0  0  0  0
  186.0730  174.5460  136.4140 C   0  0  1  0  0  3  0  0  0  0  0  0
  185.0770  175.5530  137.0180 C   0  0  2  0  0  3  0  0  0  0  0  0
  188.0490  177.2470  137.8920 C   0  0  1  0  0  3  0  0  0  0  0  0
  190.2750  175.9940  138.0030 C   0  0  0  0  0  0  0  0  0  0  0  0
  190.5460  173.8880  136.7810 C   0  0  0  0  0  3  0  0  0  0  0  0
  188.9770  177.7590  140.2750 C   0  0  0  0  0  0  0  0  0  0  0  0
  190.3560  177.1870  140.1550 C   0  0  0  0  0  2  0  0  0  0  0  0
  186.7180  177.2720  137.0910 C   0  0  1  0  0  0  0  0  0  0  0  0
  187.9240  177.7310  139.3400 C   0  0  0  0  0  0  0  0  0  0  0  0
  191.0810  175.0030  137.5800 C   0  0  0  0  0  0  0  0  0  0  0  0
  188.7720  175.8690  137.8240 C   0  0  2  0  0  3  0  0  0  0  0  0
  186.2290  178.7020  136.9320 C   0  0  0  0  0  1  0  0  0  0  0  0
  190.8580  177.1660  138.7260 C   0  0  0  0  0  2  0  0  0  0  0  0
  187.0160  176.7550  135.6770 C   0  0  0  0  0  2  0  0  0  0  0  0
  188.4130  178.4010  141.7210 S   0  0  0  0  0  0  0  0  0  0  0  0
  186.8570  178.6870  141.1840 C   0  0  0  0  0  0  0  0  0  0  0  0
  189.2990  173.9370  136.3140 C   0  0  0  0  0  3  0  0  0  0  0  0
  186.7350  178.2760  139.8690 C   0  0  0  0  0  3  0  0  0  0  0  0
  185.7420  176.5140  137.8120 O   0  0  0  0  0  0  0  0  0  0  0  0
  185.1330  171.8660  136.7240 O   0  0  0  0  0  1  0  0  0  0  0  0
  185.4230  173.7550  135.3790 N   0  0  0  0  0  2  0  0  0  0  0  0
  184.3020  171.7410  134.5940 O   0  0  0  0  0  0  0  0  0  0  0  0
  184.9530  172.4260  135.6100 C   0  0  0  0  0  0  0  0  0  0  0  0
  185.8040  179.2670  141.9690 C   0  0  0  0  0  0  0  0  0  0  0  0
  184.9560  179.7330  142.6030 N   0  0  0  0  0  0  0  0  0  0  0  0
  2 15  1  0  0  0  0
  3 18  1  1  0  0  0
  3  5  1  0  0  0  0
  3  2  1  0  0  0  0
  5 25  1  6  0  0  0
  5  6  1  0  0  0  0
  6 23  1  0  0  0  0
  6  4  1  1  0  0  0
  7 13  1  1  0  0  0
  8 17  1  0  0  0  0
  9 14  1  0  0  0  0
 10 19  1  0  0  0  0
 11 10  1  0  0  0  0
 12 16  1  6  0  0  0
 12 23  1  0  0  0  0
 12  7  1  0  0  0  0
 13 22  1  0  0  0  0
 13 10  2  0  0  0  0
 14  1  1  0  0  0  0
 14  8  2  0  0  0  0
 15  7  1  0  0  0  0
 15  8  1  6  0  0  0
 17 11  1  0  0  0  0
 18 12  1  0  0  0  0
 20 19  1  0  0  0  0
 20 28  1  0  0  0  0
 21  2  1  0  0  0  0
 21  9  2  0  0  0  0
 22 20  2  0  0  0  0
 25 27  1  0  0  0  0
 26 27  2  0  0  0  0
 27 24  1  0  0  0  0
 28 29  3  0  0  0  0
M  END
>  <MODEL>
8

>  <REMARK>
 VINA RESULT:      -5.0      2.710      6.315
  Name = 
  2 active torsions:
  status: ('A' for Active; 'I' for Inactive)
    1  A    between atoms: C_6  and  N_16
    2  A    between atoms: C_23  and  C_26
                            x       y       z     vdW  Elec       q    Type
                         _______ _______ _______ _____ _____    ______ ____

>  <TORSDO>
F 2

$$$$
=
 OpenBabel11042410053D

 29 33  0  0  1  0  0  0  0  0999 V2000
  190.2700  177.1120  137.7890 O   0  0  0  0  0  1  0  0  0  0  0  0
  186.1420  176.8190  137.3160 N   0  0  0  0  0  0  0  0  0  0  0  0
  184.7940  177.0460  136.8120 C   0  0  1  0  0  3  0  0  0  0  0  0
  182.1360  175.5290  139.1690 C   0  0  0  0  0  1  0  0  0  0  0  0
  183.8300  175.9930  137.3710 C   0  0  1  0  0  3  0  0  0  0  0  0
  182.8800  176.6130  138.4130 C   0  0  2  0  0  3  0  0  0  0  0  0
  185.7680  178.4680  139.2410 C   0  0  1  0  0  3  0  0  0  0  0  0
  188.0890  177.6220  138.5860 C   0  0  0  0  0  0  0  0  0  0  0  0
  188.3230  176.0120  136.7540 C   0  0  0  0  0  3  0  0  0  0  0  0
  187.1170  178.4470  141.4730 C   0  0  0  0  0  0  0  0  0  0  0  0
  188.4940  178.1690  140.9520 C   0  0  0  0  0  2  0  0  0  0  0  0
  184.3030  178.4930  138.7240 C   0  0  1  0  0  0  0  0  0  0  0  0
  185.8990  178.5050  140.7670 C   0  0  0  0  0  0  0  0  0  0  0  0
  188.8900  176.9350  137.7520 C   0  0  0  0  0  0  0  0  0  0  0  0
  186.6050  177.3040  138.6360 C   0  0  2  0  0  3  0  0  0  0  0  0
  183.6380  179.8090  139.0940 C   0  0  0  0  0  1  0  0  0  0  0  0
  188.6810  178.6280  139.5210 C   0  0  0  0  0  2  0  0  0  0  0  0
  184.3500  178.4450  137.1910 C   0  0  0  0  0  2  0  0  0  0  0  0
  186.8050  178.5610  143.1200 S   0  0  0  0  0  0  0  0  0  0  0  0
  185.1490  178.7220  142.9680 C   0  0  0  0  0  0  0  0  0  0  0  0
  187.0080  175.9800  136.5430 C   0  0  0  0  0  3  0  0  0  0  0  0
  184.7980  178.6770  141.6310 C   0  0  0  0  0  3  0  0  0  0  0  0
  183.5900  177.4140  139.3350 O   0  0  0  0  0  0  0  0  0  0  0  0
  184.0850  173.3240  136.3850 O   0  0  0  0  0  1  0  0  0  0  0  0
  183.0640  175.4230  136.2700 N   0  0  0  0  0  2  0  0  0  0  0  0
  182.4350  173.5740  134.8170 O   0  0  0  0  0  0  0  0  0  0  0  0
  183.2250  174.0690  135.8450 C   0  0  0  0  0  0  0  0  0  0  0  0
  184.2300  178.8780  144.0590 C   0  0  0  0  0  0  0  0  0  0  0  0
  183.4890  179.0030  144.9390 N   0  0  0  0  0  0  0  0  0  0  0  0
  2 15  1  0  0  0  0
  3 18  1  1  0  0  0
  3  2  1  0  0  0  0
  3  5  1  0  0  0  0
  5 25  1  6  0  0  0
  5  6  1  0  0  0  0
  6  4  1  1  0  0  0
  6 23  1  0  0  0  0
  7 13  1  1  0  0  0
  8 17  1  0  0  0  0
  9 14  1  0  0  0  0
 10 19  1  0  0  0  0
 11 10  1  0  0  0  0
 12 16  1  1  0  0  0
 12  7  1  0  0  0  0
 12 23  1  0  0  0  0
 13 10  2  0  0  0  0
 13 22  1  0  0  0  0
 14  1  1  0  0  0  0
 14  8  2  0  0  0  0
 15  8  1  6  0  0  0
 15  7  1  0  0  0  0
 17 11  1  0  0  0  0
 18 12  1  0  0  0  0
 20 19  1  0  0  0  0
 20 28  1  0  0  0  0
 21  9  2  0  0  0  0
 21  2  1  0  0  0  0
 22 20  2  0  0  0  0
 26 27  2  0  0  0  0
 27 25  1  0  0  0  0
 27 24  1  0  0  0  0
 28 29  3  0  0  0  0
M  END
>  <MODEL>
9

>  <REMARK>
 VINA RESULT:      -4.9      2.858      6.435
  Name = 
  2 active torsions:
  status: ('A' for Active; 'I' for Inactive)
    1  A    between atoms: C_6  and  N_16
    2  A    between atoms: C_23  and  C_26
                            x       y       z     vdW  Elec       q    Type
                         _______ _______ _______ _____ _____    ______ ____

>  <TORSDO>
F 2

$$$$
