=
 OpenBabel11042410223D

 37 43  0  0  1  0  0  0  0  0999 V2000
  188.5540  177.6140  142.5820 C   0  0  0  0  0  0  0  0  0  0  0  0
  184.4790  179.2430  140.6430 N   0  0  0  0  0  0  0  0  0  0  0  0
  184.4660  178.4300  142.8950 C   0  0  0  0  0  3  0  0  0  0  0  0
  188.2920  177.1890  139.4140 C   0  0  0  0  0  2  0  0  0  0  0  0
  190.5280  176.0700  142.3640 C   0  0  0  0  0  2  0  0  0  0  0  0
  190.1400  178.0700  140.8950 N   0  0  1  0  0  0  0  0  0  0  0  0
  191.5850  176.5190  144.5300 N   0  0  0  0  0  0  0  0  0  0  0  0
  183.8020  178.9870  141.7970 C   0  0  0  0  0  3  0  0  0  0  0  0
  187.8840  178.1060  141.4980 C   0  0  0  0  0  0  0  0  0  0  0  0
  187.8980  177.3350  143.7870 C   0  0  0  0  0  3  0  0  0  0  0  0
  186.5150  178.4120  141.5850 C   0  0  0  0  0  0  0  0  0  0  0  0
  188.7880  178.2840  140.3150 C   0  0  1  0  0  0  0  0  0  0  0  0
  190.6820  175.6200  143.8190 C   0  0  0  0  0  2  0  0  0  0  0  0
  190.0010  177.5210  142.2680 C   0  0  1  0  0  0  0  0  0  0  0  0
  185.8290  178.1410  142.7940 C   0  0  0  0  0  0  0  0  0  0  0  0
  186.5230  177.5920  143.8830 C   0  0  0  0  0  3  0  0  0  0  0  0
  185.8060  178.9680  140.5130 C   0  0  0  0  0  3  0  0  0  0  0  0
  190.9470  177.8330  144.6060 C   0  0  0  0  0  2  0  0  0  0  0  0
  190.8100  178.4310  143.2050 C   0  0  0  0  0  2  0  0  0  0  0  0
  189.7120  177.1330  139.8530 C   0  0  2  0  0  0  0  0  0  0  0  0
  190.4870  177.4560  138.6670 N   0  0  0  0  0  2  0  0  0  0  0  0
  191.2250  176.2610  138.2850 C   0  0  0  0  0  2  0  0  0  0  0  0
  192.7180  176.5450  138.2480 C   0  0  1  0  0  3  0  0  0  0  0  0
  193.1910  177.1450  139.5620 C   0  0  0  0  0  1  0  0  0  0  0  0
  194.8820  175.2260  138.2360 N   0  0  0  0  0  2  0  0  0  0  0  0
  195.7320  174.0950  138.0090 C   0  0  0  0  0  0  0  0  0  0  0  0
  195.2520  172.9680  137.6030 N   0  0  0  0  0  2  0  0  0  0  0  0
  193.4760  175.2950  137.9490 C   0  0  0  0  0  0  0  0  0  0  0  0
  197.1860  174.2110  138.2800 C   0  0  0  0  0  1  0  0  0  0  0  0
  192.8710  174.3210  137.4260 O   0  0  0  0  0  0  0  0  0  0  0  0
  191.6670  176.0220  145.8930 C   0  0  0  0  0  2  0  0  0  0  0  0
  191.1410  177.0490  146.8830 C   0  0  1  0  0  3  0  0  0  0  0  0
  189.7260  176.6710  147.3320 C   0  0  0  0  0  3  0  0  0  0  0  0
  189.1230  177.6630  148.3140 C   0  0  0  0  0  2  0  0  0  0  0  0
  188.7700  177.7420  146.8490 C   0  0  0  0  0  2  0  0  0  0  0  0
  192.5730  175.8550  148.0700 C   0  0  0  0  0  1  0  0  0  0  0  0
  192.0240  177.1310  147.9580 O   0  0  0  0  0  0  0  0  0  0  0  0
  1 10  1  0  0  0  0
  2  8  1  0  0  0  0
  4 20  1  0  0  0  0
  4 12  1  0  0  0  0
  5 13  1  0  0  0  0
  6 14  1  0  0  0  0
  7 18  1  0  0  0  0
  7 31  1  0  0  0  0
  8  3  2  0  0  0  0
  9 11  1  0  0  0  0
  9  1  2  0  0  0  0
 10 16  2  0  0  0  0
 11 15  2  0  0  0  0
 12  6  1  0  0  0  0
 12  9  1  0  0  0  0
 13  7  1  0  0  0  0
 14  5  1  0  0  0  0
 14  1  1  0  0  0  0
 14 19  1  0  0  0  0
 15  3  1  0  0  0  0
 15 16  1  0  0  0  0
 17  2  2  0  0  0  0
 17 11  1  0  0  0  0
 19 18  1  0  0  0  0
 20 12  1  0  0  0  0
 20  6  1  0  0  0  0
 21 20  1  0  0  0  0
 22 21  1  0  0  0  0
 23 22  1  0  0  0  0
 23 24  1  0  0  0  0
 26 25  1  0  0  0  0
 26 29  1  0  0  0  0
 27 26  2  0  0  0  0
 28 25  1  0  0  0  0
 28 23  1  0  0  0  0
 30 28  2  0  0  0  0
 31 32  1  0  0  0  0
 32 33  1  0  0  0  0
 32 37  1  0  0  0  0
 33 34  1  0  0  0  0
 35 33  1  0  0  0  0
 35 34  1  0  0  0  0
 37 36  1  0  0  0  0
M  END
>  <MODEL>
1

>  <REMARK>
 VINA RESULT:      -9.2      0.000      0.000
  Name = 
  8 active torsions:
  status: ('A' for Active; 'I' for Inactive)
    1  A    between atoms: C_3  and  C_17
    2  A    between atoms: C_3  and  C_28
    3  A    between atoms: N_7  and  C_28
    4  A    between atoms: N_7  and  C_31
    5  A    between atoms: C_12  and  C_19
    6  A    between atoms: N_14  and  C_34
    7  A    between atoms: C_19  and  C_34
    8  A    between atoms: C_19  and  O_35
                            x       y       z     vdW  Elec       q    Type
                         _______ _______ _______ _____ _____    ______ ____

>  <TORSDO>
F 8

$$$$
=
 OpenBabel11042410223D

 37 43  0  0  1  0  0  0  0  0999 V2000
  188.3550  177.6900  142.5360 C   0  0  0  0  0  0  0  0  0  0  0  0
  184.2080  179.2770  140.7170 N   0  0  0  0  0  0  0  0  0  0  0  0
  184.2540  178.3900  142.9410 C   0  0  0  0  0  3  0  0  0  0  0  0
  188.0510  177.3630  139.3600 C   0  0  0  0  0  2  0  0  0  0  0  0
  190.3630  176.2060  142.2360 C   0  0  0  0  0  2  0  0  0  0  0  0
  189.9010  178.2420  140.8390 N   0  0  1  0  0  0  0  0  0  0  0  0
  191.4450  176.6110  144.3980 N   0  0  0  0  0  0  0  0  0  0  0  0
  183.5580  178.9660  141.8730 C   0  0  0  0  0  3  0  0  0  0  0  0
  187.6550  178.2000  141.4800 C   0  0  0  0  0  0  0  0  0  0  0  0
  187.7260  177.3550  143.7410 C   0  0  0  0  0  3  0  0  0  0  0  0
  186.2800  178.4680  141.5980 C   0  0  0  0  0  0  0  0  0  0  0  0
  188.5340  178.4400  140.2880 C   0  0  1  0  0  0  0  0  0  0  0  0
  190.5530  175.7120  143.6720 C   0  0  0  0  0  2  0  0  0  0  0  0
  189.7980  177.6450  142.1960 C   0  0  1  0  0  0  0  0  0  0  0  0
  185.6210  178.1400  142.8090 C   0  0  0  0  0  0  0  0  0  0  0  0
  186.3470  177.5740  143.8680 C   0  0  0  0  0  3  0  0  0  0  0  0
  185.5390  179.0410  140.5570 C   0  0  0  0  0  3  0  0  0  0  0  0
  190.7750  177.9040  144.5270 C   0  0  0  0  0  2  0  0  0  0  0  0
  190.5990  178.5440  143.1490 C   0  0  0  0  0  2  0  0  0  0  0  0
  189.4780  177.3290  139.7740 C   0  0  2  0  0  0  0  0  0  0  0  0
  190.2250  177.7110  138.5870 N   0  0  0  0  0  2  0  0  0  0  0  0
  191.2360  176.6900  138.3570 C   0  0  0  0  0  2  0  0  0  0  0  0
  191.0430  176.0460  136.9930 C   0  0  1  0  0  3  0  0  0  0  0  0
  192.3720  175.5890  136.4130 C   0  0  0  0  0  1  0  0  0  0  0  0
  188.7340  175.0490  136.6810 N   0  0  0  0  0  2  0  0  0  0  0  0
  187.7240  174.0320  136.7140 C   0  0  0  0  0  0  0  0  0  0  0  0
  188.0090  172.8160  137.0380 N   0  0  0  0  0  2  0  0  0  0  0  0
  190.1010  174.8930  137.0930 C   0  0  0  0  0  0  0  0  0  0  0  0
  186.3320  174.3770  136.3340 C   0  0  0  0  0  1  0  0  0  0  0  0
  190.5180  173.7990  137.5600 O   0  0  0  0  0  0  0  0  0  0  0  0
  191.5620  176.0710  145.7420 C   0  0  0  0  0  2  0  0  0  0  0  0
  191.0710  177.0700  146.7780 C   0  0  1  0  0  3  0  0  0  0  0  0
  189.6790  176.6700  147.2760 C   0  0  0  0  0  3  0  0  0  0  0  0
  189.0910  177.6590  148.2710 C   0  0  0  0  0  2  0  0  0  0  0  0
  188.6880  177.7200  146.8180 C   0  0  0  0  0  2  0  0  0  0  0  0
  192.5030  175.8390  147.9260 C   0  0  0  0  0  1  0  0  0  0  0  0
  191.9980  177.1340  147.8170 O   0  0  0  0  0  0  0  0  0  0  0  0
  1 10  1  0  0  0  0
  2  8  1  0  0  0  0
  4 20  1  0  0  0  0
  4 12  1  0  0  0  0
  5 13  1  0  0  0  0
  6 14  1  0  0  0  0
  7 18  1  0  0  0  0
  7 31  1  0  0  0  0
  8  3  2  0  0  0  0
  9 11  1  0  0  0  0
  9  1  2  0  0  0  0
 10 16  2  0  0  0  0
 11 15  2  0  0  0  0
 12  6  1  0  0  0  0
 12  9  1  0  0  0  0
 13  7  1  0  0  0  0
 14  5  1  0  0  0  0
 14  1  1  0  0  0  0
 14 19  1  0  0  0  0
 15  3  1  0  0  0  0
 15 16  1  0  0  0  0
 17  2  2  0  0  0  0
 17 11  1  0  0  0  0
 19 18  1  0  0  0  0
 20 12  1  0  0  0  0
 20  6  1  0  0  0  0
 21 20  1  0  0  0  0
 22 21  1  0  0  0  0
 23 28  1  0  0  0  0
 23 22  1  0  0  0  0
 24 23  1  0  0  0  0
 25 26  1  0  0  0  0
 25 28  1  0  0  0  0
 26 27  2  0  0  0  0
 28 30  2  0  0  0  0
 29 26  1  0  0  0  0
 31 32  1  0  0  0  0
 32 33  1  0  0  0  0
 32 37  1  0  0  0  0
 33 34  1  0  0  0  0
 35 33  1  0  0  0  0
 35 34  1  0  0  0  0
 37 36  1  0  0  0  0
M  END
>  <MODEL>
2

>  <REMARK>
 VINA RESULT:      -9.2      1.939      2.931
  Name = 
  8 active torsions:
  status: ('A' for Active; 'I' for Inactive)
    1  A    between atoms: C_3  and  C_17
    2  A    between atoms: C_3  and  C_28
    3  A    between atoms: N_7  and  C_28
    4  A    between atoms: N_7  and  C_31
    5  A    between atoms: C_12  and  C_19
    6  A    between atoms: N_14  and  C_34
    7  A    between atoms: C_19  and  C_34
    8  A    between atoms: C_19  and  O_35
                            x       y       z     vdW  Elec       q    Type
                         _______ _______ _______ _____ _____    ______ ____

>  <TORSDO>
F 8

$$$$
=
 OpenBabel11042410223D

 37 43  0  0  1  0  0  0  0  0999 V2000
  190.6340  177.1450  140.8640 C   0  0  0  0  0  0  0  0  0  0  0  0
  191.4750  176.4360  136.1940 N   0  0  0  0  0  0  0  0  0  0  0  0
  193.3110  176.4480  137.7310 C   0  0  0  0  0  3  0  0  0  0  0  0
  188.5910  178.6160  138.8770 C   0  0  0  0  0  2  0  0  0  0  0  0
  189.5560  178.5860  142.6220 C   0  0  0  0  0  2  0  0  0  0  0  0
  188.2760  177.2120  140.9530 N   0  0  1  0  0  0  0  0  0  0  0  0
  190.3500  177.3920  144.6110 N   0  0  0  0  0  0  0  0  0  0  0  0
  192.8110  176.3200  136.4310 C   0  0  0  0  0  3  0  0  0  0  0  0
  190.1630  177.0730  139.5840 C   0  0  0  0  0  0  0  0  0  0  0  0
  191.9990  177.0330  141.1520 C   0  0  0  0  0  3  0  0  0  0  0  0
  191.0390  176.8150  138.5160 C   0  0  0  0  0  0  0  0  0  0  0  0
  188.6760  177.2630  139.5220 C   0  0  1  0  0  0  0  0  0  0  0  0
  190.6200  178.5170  143.7190 C   0  0  0  0  0  2  0  0  0  0  0  0
  189.4930  177.2750  141.8030 C   0  0  1  0  0  0  0  0  0  0  0  0
  192.4250  176.6950  138.7810 C   0  0  0  0  0  0  0  0  0  0  0  0
  192.8970  176.8170  140.0970 C   0  0  0  0  0  3  0  0  0  0  0  0
  190.5870  176.6810  137.1970 C   0  0  0  0  0  3  0  0  0  0  0  0
  190.5150  176.1580  143.8440 C   0  0  0  0  0  2  0  0  0  0  0  0
  189.4450  176.0700  142.7550 C   0  0  0  0  0  2  0  0  0  0  0  0
  188.0080  178.4610  140.2360 C   0  0  2  0  0  0  0  0  0  0  0  0
  186.5690  178.5200  140.0390 N   0  0  0  0  0  2  0  0  0  0  0  0
  185.9960  179.1980  141.1920 C   0  0  0  0  0  2  0  0  0  0  0  0
  184.4950  178.9650  141.2550 C   0  0  1  0  0  3  0  0  0  0  0  0
  184.1130  177.6790  140.5410 C   0  0  0  0  0  1  0  0  0  0  0  0
  185.0010  178.9250  143.7390 N   0  0  0  0  0  2  0  0  0  0  0  0
  184.7070  178.8930  145.1410 C   0  0  0  0  0  0  0  0  0  0  0  0
  183.4930  178.9640  145.5720 N   0  0  0  0  0  2  0  0  0  0  0  0
  184.0360  178.9230  142.6750 C   0  0  0  0  0  0  0  0  0  0  0  0
  185.8220  178.8130  146.1160 C   0  0  0  0  0  1  0  0  0  0  0  0
  182.8010  178.8630  142.9180 O   0  0  0  0  0  0  0  0  0  0  0  0
  191.4040  177.4020  145.6100 C   0  0  0  0  0  2  0  0  0  0  0  0
  190.8330  177.2340  147.0100 C   0  0  1  0  0  3  0  0  0  0  0  0
  189.3600  177.6520  147.0300 C   0  0  0  0  0  3  0  0  0  0  0  0
  188.5310  176.8830  148.0470 C   0  0  0  0  0  2  0  0  0  0  0  0
  189.0550  178.2570  148.3850 C   0  0  0  0  0  2  0  0  0  0  0  0
  192.3850  175.7180  147.4340 C   0  0  0  0  0  1  0  0  0  0  0  0
  191.0040  175.9100  147.4100 O   0  0  0  0  0  0  0  0  0  0  0  0
  1 10  1  0  0  0  0
  1 14  1  0  0  0  0
  2  8  2  0  0  0  0
  2 17  1  0  0  0  0
  3 15  2  0  0  0  0
  4 12  1  0  0  0  0
  4 20  1  0  0  0  0
  5 13  1  0  0  0  0
  6 14  1  0  0  0  0
  7 31  1  0  0  0  0
  8  3  1  0  0  0  0
  9  1  2  0  0  0  0
 11 15  1  0  0  0  0
 11  9  1  0  0  0  0
 12  9  1  0  0  0  0
 12 20  1  0  0  0  0
 12  6  1  0  0  0  0
 13  7  1  0  0  0  0
 14  5  1  0  0  0  0
 14 19  1  0  0  0  0
 15 16  1  0  0  0  0
 16 10  2  0  0  0  0
 17 11  2  0  0  0  0
 18  7  1  0  0  0  0
 19 18  1  0  0  0  0
 20  6  1  0  0  0  0
 21 20  1  0  0  0  0
 21 22  1  0  0  0  0
 22 23  1  0  0  0  0
 23 28  1  0  0  0  0
 24 23  1  0  0  0  0
 25 26  1  0  0  0  0
 26 27  2  0  0  0  0
 26 29  1  0  0  0  0
 28 30  2  0  0  0  0
 28 25  1  0  0  0  0
 31 32  1  0  0  0  0
 32 33  1  0  0  0  0
 32 37  1  0  0  0  0
 33 34  1  0  0  0  0
 33 35  1  0  0  0  0
 34 35  1  0  0  0  0
 37 36  1  0  0  0  0
M  END
>  <MODEL>
3

>  <REMARK>
 VINA RESULT:      -9.2      2.544      7.125
  Name = 
  8 active torsions:
  status: ('A' for Active; 'I' for Inactive)
    1  A    between atoms: C_3  and  C_17
    2  A    between atoms: C_3  and  C_28
    3  A    between atoms: N_7  and  C_28
    4  A    between atoms: N_7  and  C_31
    5  A    between atoms: C_12  and  C_19
    6  A    between atoms: N_14  and  C_34
    7  A    between atoms: C_19  and  C_34
    8  A    between atoms: C_19  and  O_35
                            x       y       z     vdW  Elec       q    Type
                         _______ _______ _______ _____ _____    ______ ____

>  <TORSDO>
F 8

$$$$
=
 OpenBabel11042410223D

 37 43  0  0  1  0  0  0  0  0999 V2000
  190.6910  177.1260  140.9180 C   0  0  0  0  0  0  0  0  0  0  0  0
  191.4160  176.5030  136.2160 N   0  0  0  0  0  0  0  0  0  0  0  0
  193.2910  176.4990  137.7060 C   0  0  0  0  0  3  0  0  0  0  0  0
  188.5910  178.6200  139.0100 C   0  0  0  0  0  2  0  0  0  0  0  0
  189.6520  178.5290  142.7280 C   0  0  0  0  0  2  0  0  0  0  0  0
  188.3360  177.1780  141.0690 N   0  0  1  0  0  0  0  0  0  0  0  0
  190.5020  177.3060  144.6750 N   0  0  0  0  0  0  0  0  0  0  0  0
  192.7590  176.3900  136.4160 C   0  0  0  0  0  3  0  0  0  0  0  0
  190.1880  177.0740  139.6490 C   0  0  0  0  0  0  0  0  0  0  0  0
  192.0650  177.0160  141.1690 C   0  0  0  0  0  3  0  0  0  0  0  0
  191.0380  176.8390  138.5540 C   0  0  0  0  0  0  0  0  0  0  0  0
  188.7000  177.2560  139.6290 C   0  0  1  0  0  0  0  0  0  0  0  0
  190.7440  178.4470  143.7960 C   0  0  0  0  0  2  0  0  0  0  0  0
  189.5740  177.2330  141.8880 C   0  0  1  0  0  0  0  0  0  0  0  0
  192.4310  176.7230  138.7820 C   0  0  0  0  0  0  0  0  0  0  0  0
  192.9360  176.8240  140.0880 C   0  0  0  0  0  3  0  0  0  0  0  0
  190.5530  176.7260  137.2450 C   0  0  0  0  0  3  0  0  0  0  0  0
  190.6540  176.0860  143.8820 C   0  0  0  0  0  2  0  0  0  0  0  0
  189.5570  176.0110  142.8190 C   0  0  0  0  0  2  0  0  0  0  0  0
  188.0440  178.4380  140.3800 C   0  0  2  0  0  0  0  0  0  0  0  0
  186.6000  178.4920  140.2220 N   0  0  0  0  0  2  0  0  0  0  0  0
  186.0570  179.1860  141.3790 C   0  0  0  0  0  2  0  0  0  0  0  0
  185.3100  178.2160  142.2810 C   0  0  1  0  0  3  0  0  0  0  0  0
  186.0460  178.0180  143.5960 C   0  0  0  0  0  1  0  0  0  0  0  0
  182.8800  178.4250  141.5900 N   0  0  0  0  0  2  0  0  0  0  0  0
  181.5090  178.8250  141.7050 C   0  0  0  0  0  0  0  0  0  0  0  0
  181.0700  179.4110  142.7690 N   0  0  0  0  0  2  0  0  0  0  0  0
  183.9240  178.7070  142.5350 C   0  0  0  0  0  0  0  0  0  0  0  0
  180.5680  178.5290  140.5980 C   0  0  0  0  0  1  0  0  0  0  0  0
  183.6940  179.3840  143.5730 O   0  0  0  0  0  0  0  0  0  0  0  0
  191.5820  177.3030  145.6470 C   0  0  0  0  0  2  0  0  0  0  0  0
  191.0440  177.4420  147.0620 C   0  0  1  0  0  3  0  0  0  0  0  0
  189.6560  176.8030  147.1620 C   0  0  0  0  0  3  0  0  0  0  0  0
  188.7590  177.4720  148.1920 C   0  0  0  0  0  2  0  0  0  0  0  0
  188.6270  177.8290  146.7320 C   0  0  0  0  0  2  0  0  0  0  0  0
  192.2410  175.6130  147.3940 C   0  0  0  0  0  1  0  0  0  0  0  0
  191.9500  176.8590  147.9470 O   0  0  0  0  0  0  0  0  0  0  0  0
  1 10  1  0  0  0  0
  1 14  1  0  0  0  0
  2  8  2  0  0  0  0
  2 17  1  0  0  0  0
  3 15  2  0  0  0  0
  4 12  1  0  0  0  0
  4 20  1  0  0  0  0
  5 13  1  0  0  0  0
  6 14  1  0  0  0  0
  7 31  1  0  0  0  0
  8  3  1  0  0  0  0
  9  1  2  0  0  0  0
 11 15  1  0  0  0  0
 11  9  1  0  0  0  0
 12  9  1  0  0  0  0
 12 20  1  0  0  0  0
 12  6  1  0  0  0  0
 13  7  1  0  0  0  0
 14  5  1  0  0  0  0
 14 19  1  0  0  0  0
 15 16  1  0  0  0  0
 16 10  2  0  0  0  0
 17 11  2  0  0  0  0
 18  7  1  0  0  0  0
 19 18  1  0  0  0  0
 20  6  1  0  0  0  0
 21 20  1  0  0  0  0
 21 22  1  0  0  0  0
 22 23  1  0  0  0  0
 23 28  1  0  0  0  0
 23 24  1  0  0  0  0
 25 26  1  0  0  0  0
 25 28  1  0  0  0  0
 26 27  2  0  0  0  0
 28 30  2  0  0  0  0
 29 26  1  0  0  0  0
 31 32  1  0  0  0  0
 32 33  1  0  0  0  0
 32 37  1  0  0  0  0
 33 34  1  0  0  0  0
 35 33  1  0  0  0  0
 35 34  1  0  0  0  0
 36 37  1  0  0  0  0
M  END
>  <MODEL>
4

>  <REMARK>
 VINA RESULT:      -8.8      2.526      7.396
  Name = 
  8 active torsions:
  status: ('A' for Active; 'I' for Inactive)
    1  A    between atoms: C_3  and  C_17
    2  A    between atoms: C_3  and  C_28
    3  A    between atoms: N_7  and  C_28
    4  A    between atoms: N_7  and  C_31
    5  A    between atoms: C_12  and  C_19
    6  A    between atoms: N_14  and  C_34
    7  A    between atoms: C_19  and  C_34
    8  A    between atoms: C_19  and  O_35
                            x       y       z     vdW  Elec       q    Type
                         _______ _______ _______ _____ _____    ______ ____

>  <TORSDO>
F 8

$$$$
=
 OpenBabel11042410223D

 37 43  0  0  1  0  0  0  0  0999 V2000
  189.4910  176.8920  137.3970 C   0  0  0  0  0  0  0  0  0  0  0  0
  194.1070  175.9900  138.3470 N   0  0  0  0  0  0  0  0  0  0  0  0
  193.1140  175.0790  136.3680 C   0  0  0  0  0  3  0  0  0  0  0  0
  190.2350  176.7590  140.5140 C   0  0  0  0  0  2  0  0  0  0  0  0
  187.1170  176.8600  138.2280 C   0  0  0  0  0  2  0  0  0  0  0  0
  188.8980  178.3900  139.1220 N   0  0  1  0  0  0  0  0  0  0  0  0
  186.0000  177.5990  136.1750 N   0  0  0  0  0  0  0  0  0  0  0  0
  194.2190  175.2530  137.2080 C   0  0  0  0  0  3  0  0  0  0  0  0
  190.5610  177.0100  138.2370 C   0  0  0  0  0  0  0  0  0  0  0  0
  189.5620  176.1430  136.2160 C   0  0  0  0  0  3  0  0  0  0  0  0
  191.7970  176.4300  137.9020 C   0  0  0  0  0  0  0  0  0  0  0  0
  190.2320  177.8230  139.4540 C   0  0  1  0  0  0  0  0  0  0  0  0
  186.3890  176.4270  136.9540 C   0  0  0  0  0  2  0  0  0  0  0  0
  188.3670  177.7130  137.9100 C   0  0  1  0  0  0  0  0  0  0  0  0
  191.8960  175.6690  136.7120 C   0  0  0  0  0  0  0  0  0  0  0  0
  190.7740  175.5210  135.8830 C   0  0  0  0  0  3  0  0  0  0  0  0
  192.9320  176.5740  138.7110 C   0  0  0  0  0  3  0  0  0  0  0  0
  187.2200  178.2570  135.7100 C   0  0  0  0  0  2  0  0  0  0  0  0
  188.0040  178.8120  136.9000 C   0  0  0  0  0  2  0  0  0  0  0  0
  188.9700  177.5070  140.2900 C   0  0  2  0  0  0  0  0  0  0  0  0
  188.8240  178.3610  141.4580 N   0  0  0  0  0  2  0  0  0  0  0  0
  187.6560  177.9010  142.1940 C   0  0  0  0  0  2  0  0  0  0  0  0
  188.0590  177.3870  143.5670 C   0  0  1  0  0  3  0  0  0  0  0  0
  189.4560  177.8600  143.9370 C   0  0  0  0  0  1  0  0  0  0  0  0
  185.7420  178.1920  144.2030 N   0  0  0  0  0  2  0  0  0  0  0  0
  184.6950  178.6290  145.0800 C   0  0  0  0  0  0  0  0  0  0  0  0
  184.8530  178.6320  146.3600 N   0  0  0  0  0  2  0  0  0  0  0  0
  187.0750  177.8300  144.5970 C   0  0  0  0  0  0  0  0  0  0  0  0
  183.3940  179.0510  144.5050 C   0  0  0  0  0  1  0  0  0  0  0  0
  187.4380  177.9000  145.8010 O   0  0  0  0  0  0  0  0  0  0  0  0
  185.3250  177.0960  134.9900 C   0  0  0  0  0  2  0  0  0  0  0  0
  184.0770  176.3120  135.3640 C   0  0  1  0  0  3  0  0  0  0  0  0
  182.8300  177.1750  135.1510 C   0  0  0  0  0  3  0  0  0  0  0  0
  181.6190  176.6830  135.9290 C   0  0  0  0  0  2  0  0  0  0  0  0
  182.4590  177.8110  136.4760 C   0  0  0  0  0  2  0  0  0  0  0  0
  184.0770  174.1080  135.5380 C   0  0  0  0  0  1  0  0  0  0  0  0
  184.0360  175.1430  134.6050 O   0  0  0  0  0  0  0  0  0  0  0  0
  1 14  1  0  0  0  0
  1  9  1  0  0  0  0
  2 17  2  0  0  0  0
  3 15  1  0  0  0  0
  3  8  2  0  0  0  0
  6 12  1  0  0  0  0
  6 20  1  0  0  0  0
  7 13  1  0  0  0  0
  8  2  1  0  0  0  0
  9 12  1  0  0  0  0
 10  1  2  0  0  0  0
 11  9  2  0  0  0  0
 11 17  1  0  0  0  0
 12 20  1  0  0  0  0
 12  4  1  0  0  0  0
 13  5  1  0  0  0  0
 14  5  1  0  0  0  0
 14  6  1  0  0  0  0
 15 11  1  0  0  0  0
 16 10  1  0  0  0  0
 16 15  2  0  0  0  0
 18  7  1  0  0  0  0
 18 19  1  0  0  0  0
 19 14  1  0  0  0  0
 20  4  1  0  0  0  0
 20 21  1  0  0  0  0
 21 22  1  0  0  0  0
 22 23  1  0  0  0  0
 23 24  1  0  0  0  0
 23 28  1  0  0  0  0
 25 28  1  0  0  0  0
 25 26  1  0  0  0  0
 26 27  2  0  0  0  0
 28 30  2  0  0  0  0
 29 26  1  0  0  0  0
 31 32  1  0  0  0  0
 31  7  1  0  0  0  0
 33 32  1  0  0  0  0
 33 34  1  0  0  0  0
 33 35  1  0  0  0  0
 34 35  1  0  0  0  0
 37 32  1  0  0  0  0
 37 36  1  0  0  0  0
M  END
>  <MODEL>
5

>  <REMARK>
 VINA RESULT:      -7.7      3.659      9.907
  Name = 
  8 active torsions:
  status: ('A' for Active; 'I' for Inactive)
    1  A    between atoms: C_3  and  C_17
    2  A    between atoms: C_3  and  C_28
    3  A    between atoms: N_7  and  C_28
    4  A    between atoms: N_7  and  C_31
    5  A    between atoms: C_12  and  C_19
    6  A    between atoms: N_14  and  C_34
    7  A    between atoms: C_19  and  C_34
    8  A    between atoms: C_19  and  O_35
                            x       y       z     vdW  Elec       q    Type
                         _______ _______ _______ _____ _____    ______ ____

>  <TORSDO>
F 8

$$$$
=
 OpenBabel11042410223D

 37 43  0  0  1  0  0  0  0  0999 V2000
  188.9830  177.3140  144.1460 C   0  0  0  0  0  0  0  0  0  0  0  0
  192.6600  175.6450  146.7370 N   0  0  0  0  0  0  0  0  0  0  0  0
  190.9360  176.9080  147.8180 C   0  0  0  0  0  3  0  0  0  0  0  0
  191.7650  177.0900  142.5670 C   0  0  0  0  0  2  0  0  0  0  0  0
  188.2400  178.6170  142.1260 C   0  0  0  0  0  2  0  0  0  0  0  0
  189.4010  176.3920  142.0130 N   0  0  1  0  0  0  0  0  0  0  0  0
  185.8200  178.5460  142.5140 N   0  0  0  0  0  0  0  0  0  0  0  0
  192.1350  176.1890  147.8700 C   0  0  0  0  0  3  0  0  0  0  0  0
  190.1810  176.6620  144.1980 C   0  0  0  0  0  0  0  0  0  0  0  0
  188.4080  177.8890  145.2860 C   0  0  0  0  0  3  0  0  0  0  0  0
  190.8470  176.4900  145.4240 C   0  0  0  0  0  0  0  0  0  0  0  0
  190.6110  176.1700  142.8480 C   0  0  1  0  0  0  0  0  0  0  0  0
  187.0260  179.3470  142.7050 C   0  0  0  0  0  2  0  0  0  0  0  0
  188.4310  177.2250  142.7710 C   0  0  1  0  0  0  0  0  0  0  0  0
  190.2850  177.0600  146.5930 C   0  0  0  0  0  0  0  0  0  0  0  0
  189.0750  177.7670  146.5130 C   0  0  0  0  0  3  0  0  0  0  0  0
  192.0500  175.7810  145.5270 C   0  0  0  0  0  3  0  0  0  0  0  0
  185.9520  177.3320  143.3170 C   0  0  0  0  0  2  0  0  0  0  0  0
  187.0940  176.4680  142.7810 C   0  0  0  0  0  2  0  0  0  0  0  0
  190.6120  177.1230  141.6290 C   0  0  2  0  0  0  0  0  0  0  0  0
  191.0980  176.5000  140.4100 N   0  0  0  0  0  2  0  0  0  0  0  0
  191.1860  177.5360  139.3920 C   0  0  0  0  0  2  0  0  0  0  0  0
  190.3330  177.1750  138.1870 C   0  0  1  0  0  3  0  0  0  0  0  0
  190.1640  175.6680  138.0710 C   0  0  0  0  0  1  0  0  0  0  0  0
  187.8310  177.1640  137.7840 N   0  0  0  0  0  2  0  0  0  0  0  0
  186.4910  177.6740  137.8110 C   0  0  0  0  0  0  0  0  0  0  0  0
  186.2100  178.7860  138.4030 N   0  0  0  0  0  2  0  0  0  0  0  0
  188.9990  177.8370  138.2790 C   0  0  0  0  0  0  0  0  0  0  0  0
  185.4020  176.8900  137.1790 C   0  0  0  0  0  1  0  0  0  0  0  0
  188.9210  178.9930  138.7750 O   0  0  0  0  0  0  0  0  0  0  0  0
  184.7280  179.3080  143.0940 C   0  0  0  0  0  2  0  0  0  0  0  0
  183.9670  178.4810  144.1180 C   0  0  1  0  0  3  0  0  0  0  0  0
  183.9740  179.1890  145.4760 C   0  0  0  0  0  3  0  0  0  0  0  0
  184.5990  178.3560  146.5840 C   0  0  0  0  0  2  0  0  0  0  0  0
  185.4140  179.4170  145.8870 C   0  0  0  0  0  2  0  0  0  0  0  0
  182.2490  179.5080  143.1800 C   0  0  0  0  0  1  0  0  0  0  0  0
  182.6720  178.2650  143.6490 O   0  0  0  0  0  0  0  0  0  0  0  0
  1  9  2  0  0  0  0
  1 10  1  0  0  0  0
  2  8  1  0  0  0  0
  3  8  2  0  0  0  0
  4 12  1  0  0  0  0
  5 13  1  0  0  0  0
  5 14  1  0  0  0  0
  6 14  1  0  0  0  0
  6 12  1  0  0  0  0
  7 13  1  0  0  0  0
  7 31  1  0  0  0  0
  7 18  1  0  0  0  0
  9 11  1  0  0  0  0
 10 16  2  0  0  0  0
 11 17  1  0  0  0  0
 11 15  2  0  0  0  0
 12  9  1  0  0  0  0
 14 19  1  0  0  0  0
 14  1  1  0  0  0  0
 15  3  1  0  0  0  0
 16 15  1  0  0  0  0
 17  2  2  0  0  0  0
 19 18  1  0  0  0  0
 20  6  1  0  0  0  0
 20  4  1  0  0  0  0
 20 12  1  0  0  0  0
 21 20  1  0  0  0  0
 22 21  1  0  0  0  0
 23 28  1  0  0  0  0
 23 22  1  0  0  0  0
 24 23  1  0  0  0  0
 25 26  1  0  0  0  0
 25 28  1  0  0  0  0
 26 27  2  0  0  0  0
 28 30  2  0  0  0  0
 29 26  1  0  0  0  0
 31 32  1  0  0  0  0
 32 33  1  0  0  0  0
 33 35  1  0  0  0  0
 33 34  1  0  0  0  0
 35 34  1  0  0  0  0
 36 37  1  0  0  0  0
 37 32  1  0  0  0  0
M  END
>  <MODEL>
6

>  <REMARK>
 VINA RESULT:      -7.7      3.107      6.623
  Name = 
  8 active torsions:
  status: ('A' for Active; 'I' for Inactive)
    1  A    between atoms: C_3  and  C_17
    2  A    between atoms: C_3  and  C_28
    3  A    between atoms: N_7  and  C_28
    4  A    between atoms: N_7  and  C_31
    5  A    between atoms: C_12  and  C_19
    6  A    between atoms: N_14  and  C_34
    7  A    between atoms: C_19  and  C_34
    8  A    between atoms: C_19  and  O_35
                            x       y       z     vdW  Elec       q    Type
                         _______ _______ _______ _____ _____    ______ ____

>  <TORSDO>
F 8

$$$$
=
 OpenBabel11042410223D

 37 43  0  0  1  0  0  0  0  0999 V2000
  187.7740  177.9190  142.9880 C   0  0  0  0  0  0  0  0  0  0  0  0
  183.3410  179.4070  141.9140 N   0  0  0  0  0  0  0  0  0  0  0  0
  183.7470  178.3450  144.0220 C   0  0  0  0  0  3  0  0  0  0  0  0
  187.0310  177.8360  139.8690 C   0  0  0  0  0  2  0  0  0  0  0  0
  189.7840  176.5820  142.2790 C   0  0  0  0  0  2  0  0  0  0  0  0
  189.0330  178.6960  141.1490 N   0  0  1  0  0  0  0  0  0  0  0  0
  191.1460  176.8710  144.2970 N   0  0  0  0  0  0  0  0  0  0  0  0
  182.8780  178.9650  143.1170 C   0  0  0  0  0  3  0  0  0  0  0  0
  186.9070  178.4720  142.0900 C   0  0  0  0  0  0  0  0  0  0  0  0
  187.3410  177.4500  144.2340 C   0  0  0  0  0  3  0  0  0  0  0  0
  185.5530  178.6490  142.4220 C   0  0  0  0  0  0  0  0  0  0  0  0
  187.5930  178.8590  140.8140 C   0  0  1  0  0  0  0  0  0  0  0  0
  190.2000  175.9840  143.6250 C   0  0  0  0  0  2  0  0  0  0  0  0
  189.1540  177.9850  142.4470 C   0  0  1  0  0  0  0  0  0  0  0  0
  185.0900  178.1860  143.6780 C   0  0  0  0  0  0  0  0  0  0  0  0
  185.9860  177.5780  144.5710 C   0  0  0  0  0  3  0  0  0  0  0  0
  184.6450  179.2620  141.5490 C   0  0  0  0  0  3  0  0  0  0  0  0
  190.4440  178.1080  144.6330 C   0  0  0  0  0  2  0  0  0  0  0  0
  190.0420  178.8480  143.3560 C   0  0  0  0  0  2  0  0  0  0  0  0
  188.5040  177.8500  140.0750 C   0  0  2  0  0  0  0  0  0  0  0  0
  189.0540  178.3700  138.8350 N   0  0  0  0  0  2  0  0  0  0  0  0
  190.0960  177.4530  138.3980 C   0  0  0  0  0  2  0  0  0  0  0  0
  189.5840  176.5560  137.2830 C   0  0  1  0  0  3  0  0  0  0  0  0
  188.6020  177.3000  136.3920 C   0  0  0  0  0  1  0  0  0  0  0  0
  191.6830  175.1520  137.0720 N   0  0  0  0  0  2  0  0  0  0  0  0
  192.8180  174.5720  136.4170 C   0  0  0  0  0  0  0  0  0  0  0  0
  193.0120  174.7290  135.1500 N   0  0  0  0  0  2  0  0  0  0  0  0
  190.7220  176.0340  136.4720 C   0  0  0  0  0  0  0  0  0  0  0  0
  193.7690  173.7470  137.2010 C   0  0  0  0  0  1  0  0  0  0  0  0
  190.8350  176.3960  135.2700 O   0  0  0  0  0  0  0  0  0  0  0  0
  191.4790  176.2300  145.5580 C   0  0  0  0  0  2  0  0  0  0  0  0
  191.1060  177.1150  146.7370 C   0  0  1  0  0  3  0  0  0  0  0  0
  189.7210  176.7320  147.2640 C   0  0  0  0  0  3  0  0  0  0  0  0
  189.3070  177.5230  148.4960 C   0  0  0  0  0  2  0  0  0  0  0  0
  188.8100  177.9350  147.1320 C   0  0  0  0  0  2  0  0  0  0  0  0
  192.4450  175.6480  147.7070 C   0  0  0  0  0  1  0  0  0  0  0  0
  192.0890  176.9960  147.7180 O   0  0  0  0  0  0  0  0  0  0  0  0
  1 10  1  0  0  0  0
  2  8  1  0  0  0  0
  4 20  1  0  0  0  0
  4 12  1  0  0  0  0
  5 14  1  0  0  0  0
  5 13  1  0  0  0  0
  6 14  1  0  0  0  0
  7 18  1  0  0  0  0
  7 31  1  0  0  0  0
  8  3  2  0  0  0  0
  9 11  1  0  0  0  0
  9  1  2  0  0  0  0
 10 16  2  0  0  0  0
 11 15  2  0  0  0  0
 12  6  1  0  0  0  0
 12  9  1  0  0  0  0
 13  7  1  0  0  0  0
 14  1  1  0  0  0  0
 14 19  1  0  0  0  0
 15  3  1  0  0  0  0
 15 16  1  0  0  0  0
 17  2  2  0  0  0  0
 17 11  1  0  0  0  0
 19 18  1  0  0  0  0
 20 12  1  0  0  0  0
 20  6  1  0  0  0  0
 21 20  1  0  0  0  0
 22 21  1  0  0  0  0
 23 22  1  0  0  0  0
 24 23  1  0  0  0  0
 26 25  1  0  0  0  0
 26 29  1  0  0  0  0
 27 26  2  0  0  0  0
 28 25  1  0  0  0  0
 28 23  1  0  0  0  0
 30 28  2  0  0  0  0
 31 32  1  0  0  0  0
 32 33  1  0  0  0  0
 32 37  1  0  0  0  0
 33 34  1  0  0  0  0
 35 33  1  0  0  0  0
 35 34  1  0  0  0  0
 36 37  1  0  0  0  0
M  END
>  <MODEL>
7

>  <REMARK>
 VINA RESULT:      -7.6      1.676      2.012
  Name = 
  8 active torsions:
  status: ('A' for Active; 'I' for Inactive)
    1  A    between atoms: C_3  and  C_17
    2  A    between atoms: C_3  and  C_28
    3  A    between atoms: N_7  and  C_28
    4  A    between atoms: N_7  and  C_31
    5  A    between atoms: C_12  and  C_19
    6  A    between atoms: N_14  and  C_34
    7  A    between atoms: C_19  and  C_34
    8  A    between atoms: C_19  and  O_35
                            x       y       z     vdW  Elec       q    Type
                         _______ _______ _______ _____ _____    ______ ____

>  <TORSDO>
F 8

$$$$
=
 OpenBabel11042410223D

 37 43  0  0  1  0  0  0  0  0999 V2000
  185.3690  178.2050  139.1980 C   0  0  0  0  0  0  0  0  0  0  0  0
  190.1400  177.8950  138.7920 N   0  0  0  0  0  0  0  0  0  0  0  0
  188.7530  177.0780  137.0190 C   0  0  0  0  0  3  0  0  0  0  0  0
  186.9460  177.8290  141.9650 C   0  0  0  0  0  2  0  0  0  0  0  0
  183.3320  177.7270  140.5940 C   0  0  0  0  0  2  0  0  0  0  0  0
  185.1050  179.3910  141.2220 N   0  0  1  0  0  0  0  0  0  0  0  0
  181.6200  178.5220  139.0290 N   0  0  0  0  0  0  0  0  0  0  0  0
  190.0190  177.3180  137.5640 C   0  0  0  0  0  3  0  0  0  0  0  0
  186.6070  178.3830  139.7450 C   0  0  0  0  0  0  0  0  0  0  0  0
  185.1990  177.6140  137.9400 C   0  0  0  0  0  3  0  0  0  0  0  0
  187.7620  178.0360  139.0230 C   0  0  0  0  0  0  0  0  0  0  0  0
  186.5340  178.9940  141.1130 C   0  0  1  0  0  0  0  0  0  0  0  0
  182.3370  177.3390  139.4980 C   0  0  0  0  0  2  0  0  0  0  0  0
  184.3430  178.7860  140.0990 C   0  0  1  0  0  0  0  0  0  0  0  0
  187.6170  177.4380  137.7470 C   0  0  0  0  0  0  0  0  0  0  0  0
  186.3350  177.2210  137.2190 C   0  0  0  0  0  3  0  0  0  0  0  0
  189.0510  178.2530  139.5270 C   0  0  0  0  0  3  0  0  0  0  0  0
  182.5840  179.4020  138.3720 C   0  0  0  0  0  2  0  0  0  0  0  0
  183.5960  179.9270  139.3910 C   0  0  0  0  0  2  0  0  0  0  0  0
  185.5920  178.4020  142.1870 C   0  0  2  0  0  0  0  0  0  0  0  0
  185.6760  179.0850  143.4670 N   0  0  0  0  0  2  0  0  0  0  0  0
  185.5010  178.0860  144.5110 C   0  0  0  0  0  2  0  0  0  0  0  0
  185.9780  178.6240  145.8500 C   0  0  1  0  0  3  0  0  0  0  0  0
  184.9310  178.4020  146.9300 C   0  0  0  0  0  1  0  0  0  0  0  0
  188.3330  177.8780  145.2850 N   0  0  0  0  0  2  0  0  0  0  0  0
  189.6200  177.2910  145.5200 C   0  0  0  0  0  0  0  0  0  0  0  0
  189.9640  176.8800  146.6940 N   0  0  0  0  0  2  0  0  0  0  0  0
  187.2650  177.9770  146.2400 C   0  0  0  0  0  0  0  0  0  0  0  0
  190.5880  177.1880  144.4000 C   0  0  0  0  0  1  0  0  0  0  0  0
  187.3870  177.5070  147.4020 O   0  0  0  0  0  0  0  0  0  0  0  0
  180.7090  178.0630  137.9950 C   0  0  0  0  0  2  0  0  0  0  0  0
  180.9290  178.8220  136.6960 C   0  0  1  0  0  3  0  0  0  0  0  0
  181.0530  177.8390  135.5270 C   0  0  0  0  0  3  0  0  0  0  0  0
  182.4170  177.8760  134.8550 C   0  0  0  0  0  2  0  0  0  0  0  0
  182.1100  176.8120  135.8790 C   0  0  0  0  0  2  0  0  0  0  0  0
  180.4270  180.7780  135.7970 C   0  0  0  0  0  1  0  0  0  0  0  0
  179.8750  179.7160  136.5130 O   0  0  0  0  0  0  0  0  0  0  0  0
  1  9  1  0  0  0  0
  1 14  1  0  0  0  0
  2 17  2  0  0  0  0
  3  8  2  0  0  0  0
  3 15  1  0  0  0  0
  4 20  1  0  0  0  0
  6 20  1  0  0  0  0
  7 13  1  0  0  0  0
  8  2  1  0  0  0  0
  9 12  1  0  0  0  0
 10  1  2  0  0  0  0
 11 17  1  0  0  0  0
 11  9  2  0  0  0  0
 12  6  1  0  0  0  0
 12  4  1  0  0  0  0
 12 20  1  0  0  0  0
 13  5  1  0  0  0  0
 14  5  1  0  0  0  0
 14  6  1  0  0  0  0
 15 11  1  0  0  0  0
 16 15  2  0  0  0  0
 16 10  1  0  0  0  0
 18  7  1  0  0  0  0
 18 19  1  0  0  0  0
 19 14  1  0  0  0  0
 20 21  1  0  0  0  0
 21 22  1  0  0  0  0
 22 23  1  0  0  0  0
 23 28  1  0  0  0  0
 23 24  1  0  0  0  0
 25 26  1  0  0  0  0
 25 28  1  0  0  0  0
 26 27  2  0  0  0  0
 28 30  2  0  0  0  0
 29 26  1  0  0  0  0
 31  7  1  0  0  0  0
 32 31  1  0  0  0  0
 33 35  1  0  0  0  0
 33 32  1  0  0  0  0
 34 33  1  0  0  0  0
 34 35  1  0  0  0  0
 36 37  1  0  0  0  0
 37 32  1  0  0  0  0
M  END
>  <MODEL>
8

>  <REMARK>
 VINA RESULT:      -7.5      4.041      9.758
  Name = 
  8 active torsions:
  status: ('A' for Active; 'I' for Inactive)
    1  A    between atoms: C_3  and  C_17
    2  A    between atoms: C_3  and  C_28
    3  A    between atoms: N_7  and  C_28
    4  A    between atoms: N_7  and  C_31
    5  A    between atoms: C_12  and  C_19
    6  A    between atoms: N_14  and  C_34
    7  A    between atoms: C_19  and  C_34
    8  A    between atoms: C_19  and  O_35
                            x       y       z     vdW  Elec       q    Type
                         _______ _______ _______ _____ _____    ______ ____

>  <TORSDO>
F 8

$$$$
=
 OpenBabel11042410223D

 37 43  0  0  1  0  0  0  0  0999 V2000
  185.1860  178.1510  139.2000 C   0  0  0  0  0  0  0  0  0  0  0  0
  189.9450  178.0940  138.5910 N   0  0  0  0  0  0  0  0  0  0  0  0
  188.5290  177.2020  136.8780 C   0  0  0  0  0  3  0  0  0  0  0  0
  186.8980  177.8640  141.8970 C   0  0  0  0  0  2  0  0  0  0  0  0
  183.2380  177.5680  140.6810 C   0  0  0  0  0  2  0  0  0  0  0  0
  184.9460  179.3250  141.2340 N   0  0  1  0  0  0  0  0  0  0  0  0
  181.4220  178.2680  139.1900 N   0  0  0  0  0  0  0  0  0  0  0  0
  189.8030  177.5090  137.3690 C   0  0  0  0  0  3  0  0  0  0  0  0
  186.4360  178.3960  139.6940 C   0  0  0  0  0  0  0  0  0  0  0  0
  184.9940  177.5500  137.9500 C   0  0  0  0  0  3  0  0  0  0  0  0
  187.5760  178.1090  138.9230 C   0  0  0  0  0  0  0  0  0  0  0  0
  186.3880  179.0050  141.0630 C   0  0  1  0  0  0  0  0  0  0  0  0
  182.2200  177.1260  139.6280 C   0  0  0  0  0  2  0  0  0  0  0  0
  184.1700  178.6790  140.1440 C   0  0  1  0  0  0  0  0  0  0  0  0
  187.4080  177.5020  137.6540 C   0  0  0  0  0  0  0  0  0  0  0  0
  186.1180  177.2160  137.1810 C   0  0  0  0  0  3  0  0  0  0  0  0
  188.8710  178.3950  139.3720 C   0  0  0  0  0  3  0  0  0  0  0  0
  182.3090  179.1970  138.4930 C   0  0  0  0  0  2  0  0  0  0  0  0
  183.3350  179.7770  139.4690 C   0  0  0  0  0  2  0  0  0  0  0  0
  185.5260  178.3650  142.1770 C   0  0  2  0  0  0  0  0  0  0  0  0
  185.6270  179.0540  143.4520 N   0  0  0  0  0  2  0  0  0  0  0  0
  185.5470  178.0490  144.5020 C   0  0  0  0  0  2  0  0  0  0  0  0
  186.0040  178.6280  145.8310 C   0  0  1  0  0  3  0  0  0  0  0  0
  184.9420  178.4350  146.9020 C   0  0  0  0  0  1  0  0  0  0  0  0
  188.3060  177.7210  145.2840 N   0  0  0  0  0  2  0  0  0  0  0  0
  189.5840  177.1270  145.5490 C   0  0  0  0  0  0  0  0  0  0  0  0
  189.9690  176.8790  146.7550 N   0  0  0  0  0  2  0  0  0  0  0  0
  187.2870  177.9980  146.2580 C   0  0  0  0  0  0  0  0  0  0  0  0
  190.4940  176.8250  144.4180 C   0  0  0  0  0  1  0  0  0  0  0  0
  187.4490  177.6980  147.4710 O   0  0  0  0  0  0  0  0  0  0  0  0
  180.4930  177.7590  138.1960 C   0  0  0  0  0  2  0  0  0  0  0  0
  180.8580  176.3430  137.7810 C   0  0  1  0  0  3  0  0  0  0  0  0
  179.6170  175.4460  137.8270 C   0  0  0  0  0  3  0  0  0  0  0  0
  179.7210  174.3290  138.8540 C   0  0  0  0  0  2  0  0  0  0  0  0
  178.9720  175.5940  139.1900 C   0  0  0  0  0  2  0  0  0  0  0  0
  182.2140  175.2300  136.4360 C   0  0  0  0  0  1  0  0  0  0  0  0
  181.4270  176.3780  136.5090 O   0  0  0  0  0  0  0  0  0  0  0  0
  1  9  1  0  0  0  0
  1 14  1  0  0  0  0
  2 17  2  0  0  0  0
  3  8  2  0  0  0  0
  3 15  1  0  0  0  0
  4 20  1  0  0  0  0
  6 20  1  0  0  0  0
  7 13  1  0  0  0  0
  8  2  1  0  0  0  0
  9 12  1  0  0  0  0
 10  1  2  0  0  0  0
 11 17  1  0  0  0  0
 11  9  2  0  0  0  0
 12  6  1  0  0  0  0
 12  4  1  0  0  0  0
 12 20  1  0  0  0  0
 13  5  1  0  0  0  0
 14  5  1  0  0  0  0
 14  6  1  0  0  0  0
 15 11  1  0  0  0  0
 16 15  2  0  0  0  0
 16 10  1  0  0  0  0
 18  7  1  0  0  0  0
 18 19  1  0  0  0  0
 19 14  1  0  0  0  0
 20 21  1  0  0  0  0
 21 22  1  0  0  0  0
 22 23  1  0  0  0  0
 23 28  1  0  0  0  0
 23 24  1  0  0  0  0
 25 26  1  0  0  0  0
 25 28  1  0  0  0  0
 26 27  2  0  0  0  0
 28 30  2  0  0  0  0
 29 26  1  0  0  0  0
 31  7  1  0  0  0  0
 32 33  1  0  0  0  0
 32 31  1  0  0  0  0
 33 34  1  0  0  0  0
 33 35  1  0  0  0  0
 34 35  1  0  0  0  0
 36 37  1  0  0  0  0
 37 32  1  0  0  0  0
M  END
>  <MODEL>
9

>  <REMARK>
 VINA RESULT:      -7.5      3.822      9.480
  Name = 
  8 active torsions:
  status: ('A' for Active; 'I' for Inactive)
    1  A    between atoms: C_3  and  C_17
    2  A    between atoms: C_3  and  C_28
    3  A    between atoms: N_7  and  C_28
    4  A    between atoms: N_7  and  C_31
    5  A    between atoms: C_12  and  C_19
    6  A    between atoms: N_14  and  C_34
    7  A    between atoms: C_19  and  C_34
    8  A    between atoms: C_19  and  O_35
                            x       y       z     vdW  Elec       q    Type
                         _______ _______ _______ _____ _____    ______ ____

>  <TORSDO>
F 8

$$$$
