=
 OpenBabel11042410263D

 29 33  0  0  1  0  0  0  0  0999 V2000
  190.7020  177.1460  142.7910 C   0  0  2  0  0  3  0  0  0  0  0  0
  190.5350  177.8210  144.1500 C   0  0  2  0  0  3  0  0  0  0  0  0
  184.6420  179.0610  141.6630 C   0  0  0  0  0  0  0  0  0  0  0  0
  185.9010  178.5380  142.1560 C   0  0  0  0  0  0  0  0  0  0  0  0
  188.1040  177.8300  143.7870 C   0  0  0  0  0  0  0  0  0  0  0  0
  184.3890  179.3810  140.4710 O   0  0  0  0  0  0  0  0  0  0  0  0
  183.7670  178.7420  145.1490 C   0  0  0  0  0  1  0  0  0  0  0  0
  183.7120  179.1790  142.7380 N   0  0  0  0  0  0  0  0  0  0  0  0
  189.1350  177.8800  144.5790 N   0  0  0  0  0  0  0  0  0  0  0  0
  187.4010  178.7260  140.3300 O   0  0  0  0  0  0  0  0  0  0  0  0
  186.7930  178.0340  144.3360 N   0  0  0  0  0  2  0  0  0  0  0  0
  188.2480  177.5540  142.2900 C   0  0  2  0  0  3  0  0  0  0  0  0
  185.7220  178.3580  143.4460 C   0  0  0  0  0  0  0  0  0  0  0  0
  189.6920  177.7120  141.7800 C   0  0  2  0  0  3  0  0  0  0  0  0
  187.1990  178.3240  141.5080 C   0  0  0  0  0  0  0  0  0  0  0  0
  191.1190  179.2220  144.1170 C   0  0  0  0  0  1  0  0  0  0  0  0
  184.3590  178.7660  143.7850 C   0  0  0  0  0  0  0  0  0  0  0  0
  190.5930  175.6350  142.9550 C   0  0  0  0  0  1  0  0  0  0  0  0
  189.4980  176.4920  138.3500 N   0  0  0  0  0  0  0  0  0  0  0  0
  191.6910  176.0760  137.5870 N   0  0  0  0  0  0  0  0  0  0  0  0
  189.9260  177.1230  140.4120 C   0  0  0  0  0  0  0  0  0  0  0  0
  192.7470  176.6760  138.0320 C   0  0  0  0  0  0  0  0  0  0  0  0
  190.6910  176.0620  138.5850 C   0  0  0  0  0  0  0  0  0  0  0  0
  192.6220  177.4140  139.6730 S   0  0  0  0  0  0  0  0  0  0  0  0
  189.0030  177.1000  139.5070 N   0  0  0  0  0  0  0  0  0  0  0  0
  193.9400  176.7820  137.2550 N   0  0  0  0  0  2  0  0  0  0  0  0
  191.1450  176.3860  139.9500 C   0  0  1  0  0  3  0  0  0  0  0  0
  194.0510  176.2050  135.9260 C   0  0  0  0  0  2  0  0  0  0  0  0
  195.0500  177.0010  135.1140 C   0  0  0  0  0  1  0  0  0  0  0  0
  1 18  1  1  0  0  0
  1  2  1  0  0  0  0
  2 16  1  6  0  0  0
  2  9  1  0  0  0  0
  3  4  1  0  0  0  0
  3  8  1  0  0  0  0
  4 13  2  0  0  0  0
  5 11  1  0  0  0  0
  5  9  2  0  0  0  0
  6  3  2  0  0  0  0
  8 17  2  0  0  0  0
 10 15  2  0  0  0  0
 12 15  1  6  0  0  0
 12  5  1  0  0  0  0
 13 17  1  0  0  0  0
 13 11  1  0  0  0  0
 14 21  1  6  0  0  0
 14 12  1  0  0  0  0
 14  1  1  0  0  0  0
 15  4  1  0  0  0  0
 17  7  1  0  0  0  0
 19 23  2  0  0  0  0
 19 25  1  0  0  0  0
 20 22  2  0  0  0  0
 20 23  1  0  0  0  0
 22 24  1  0  0  0  0
 24 27  1  0  0  0  0
 25 21  2  0  0  0  0
 26 22  1  0  0  0  0
 27 23  1  6  0  0  0
 27 21  1  0  0  0  0
 28 26  1  0  0  0  0
 29 28  1  0  0  0  0
M  END
>  <MODEL>
1

>  <REMARK>
 VINA RESULT:      -9.2      0.000      0.000
  Name = 
  2 active torsions:
  status: ('A' for Active; 'I' for Inactive)
    1  A    between atoms: C_6  and  N_24
    2  A    between atoms: C_9  and  C_22
                            x       y       z     vdW  Elec       q    Type
                         _______ _______ _______ _____ _____    ______ ____

>  <TORSDO>
F 2

$$$$
=
 OpenBabel11042410263D

 29 33  0  0  1  0  0  0  0  0999 V2000
  188.7180  177.8060  137.6800 C   0  0  2  0  0  3  0  0  0  0  0  0
  187.1940  177.8100  137.5920 C   0  0  2  0  0  3  0  0  0  0  0  0
  187.8390  177.2710  144.0530 C   0  0  0  0  0  0  0  0  0  0  0  0
  187.8520  177.5970  142.6400 C   0  0  0  0  0  0  0  0  0  0  0  0
  187.1090  178.2960  139.9990 C   0  0  0  0  0  0  0  0  0  0  0  0
  188.6950  176.5760  144.6600 O   0  0  0  0  0  0  0  0  0  0  0  0
  184.7890  179.1940  143.9130 C   0  0  0  0  0  1  0  0  0  0  0  0
  186.6920  177.8490  144.6730 N   0  0  0  0  0  0  0  0  0  0  0  0
  186.5620  178.3020  138.8190 N   0  0  0  0  0  0  0  0  0  0  0  0
  189.6110  176.2970  141.7270 O   0  0  0  0  0  0  0  0  0  0  0  0
  186.3200  178.6860  141.1350 N   0  0  0  0  0  2  0  0  0  0  0  0
  188.5680  177.8940  140.2120 C   0  0  2  0  0  3  0  0  0  0  0  0
  186.7750  178.3240  142.4400 C   0  0  0  0  0  0  0  0  0  0  0  0
  189.1810  177.1670  139.0000 C   0  0  2  0  0  3  0  0  0  0  0  0
  188.7300  177.1790  141.5420 C   0  0  0  0  0  0  0  0  0  0  0  0
  186.6830  176.4160  137.2750 C   0  0  0  0  0  1  0  0  0  0  0  0
  186.0690  178.4640  143.7140 C   0  0  0  0  0  0  0  0  0  0  0  0
  189.2440  179.2230  137.4920 C   0  0  0  0  0  1  0  0  0  0  0  0
  192.7330  177.2780  139.8100 N   0  0  0  0  0  0  0  0  0  0  0  0
  193.8790  175.8630  138.3110 N   0  0  0  0  0  0  0  0  0  0  0  0
  190.6840  177.0670  139.0420 C   0  0  0  0  0  0  0  0  0  0  0  0
  193.3510  174.8380  137.7240 C   0  0  0  0  0  0  0  0  0  0  0  0
  192.8760  176.8090  138.6180 C   0  0  0  0  0  0  0  0  0  0  0  0
  191.5530  174.8300  137.5800 S   0  0  0  0  0  0  0  0  0  0  0  0
  191.3730  177.4920  140.0510 N   0  0  0  0  0  0  0  0  0  0  0  0
  194.1430  173.7520  137.2430 N   0  0  0  0  0  2  0  0  0  0  0  0
  191.5840  176.6160  137.9340 C   0  0  1  0  0  3  0  0  0  0  0  0
  195.5910  173.7380  137.3640 C   0  0  0  0  0  2  0  0  0  0  0  0
  196.0330  172.4200  137.9640 C   0  0  0  0  0  1  0  0  0  0  0  0
  1 18  1  1  0  0  0
  1 14  1  0  0  0  0
  2 16  1  1  0  0  0
  2  1  1  0  0  0  0
  2  9  1  0  0  0  0
  3  6  2  0  0  0  0
  3  8  1  0  0  0  0
  4  3  1  0  0  0  0
  5 11  1  0  0  0  0
  9  5  2  0  0  0  0
 11 13  1  0  0  0  0
 12  5  1  6  0  0  0
 12 15  1  0  0  0  0
 13  4  2  0  0  0  0
 13 17  1  0  0  0  0
 14 21  1  1  0  0  0
 14 12  1  0  0  0  0
 15 10  2  0  0  0  0
 15  4  1  0  0  0  0
 17  7  1  0  0  0  0
 17  8  2  0  0  0  0
 19 25  1  0  0  0  0
 20 23  1  0  0  0  0
 21 25  2  0  0  0  0
 22 20  2  0  0  0  0
 23 19  2  0  0  0  0
 24 22  1  0  0  0  0
 26 28  1  0  0  0  0
 26 22  1  0  0  0  0
 27 24  1  1  0  0  0
 27 23  1  0  0  0  0
 27 21  1  0  0  0  0
 28 29  1  0  0  0  0
M  END
>  <MODEL>
2

>  <REMARK>
 VINA RESULT:      -9.1      2.607      4.120
  Name = 
  2 active torsions:
  status: ('A' for Active; 'I' for Inactive)
    1  A    between atoms: C_6  and  N_24
    2  A    between atoms: C_9  and  C_22
                            x       y       z     vdW  Elec       q    Type
                         _______ _______ _______ _____ _____    ______ ____

>  <TORSDO>
F 2

$$$$
=
 OpenBabel11042410263D

 29 33  0  0  1  0  0  0  0  0999 V2000
  191.3460  177.5620  143.0520 C   0  0  2  0  0  3  0  0  0  0  0  0
  191.2550  178.3170  144.3760 C   0  0  2  0  0  3  0  0  0  0  0  0
  184.9510  178.3800  142.7310 C   0  0  0  0  0  0  0  0  0  0  0  0
  186.3370  178.1090  143.0620 C   0  0  0  0  0  0  0  0  0  0  0  0
  188.8320  177.9060  144.3830 C   0  0  0  0  0  0  0  0  0  0  0  0
  184.4850  178.5510  141.5740 O   0  0  0  0  0  0  0  0  0  0  0  0
  184.6330  178.2290  146.3230 C   0  0  0  0  0  1  0  0  0  0  0  0
  184.1720  178.4410  143.9250 N   0  0  0  0  0  0  0  0  0  0  0  0
  189.9390  178.1880  145.0060 N   0  0  0  0  0  0  0  0  0  0  0  0
  187.5160  178.3750  141.0220 O   0  0  0  0  0  0  0  0  0  0  0  0
  187.5930  177.9450  145.1090 N   0  0  0  0  0  2  0  0  0  0  0  0
  188.8130  177.5270  142.9020 C   0  0  2  0  0  3  0  0  0  0  0  0
  186.3710  178.0160  144.3720 C   0  0  0  0  0  0  0  0  0  0  0  0
  190.1240  177.8690  142.1710 C   0  0  2  0  0  3  0  0  0  0  0  0
  187.5500  178.0500  142.2400 C   0  0  0  0  0  0  0  0  0  0  0  0
  191.5820  179.7850  144.1670 C   0  0  0  0  0  1  0  0  0  0  0  0
  185.0180  178.2290  144.8870 C   0  0  0  0  0  0  0  0  0  0  0  0
  191.5200  176.0730  143.3250 C   0  0  0  0  0  1  0  0  0  0  0  0
  190.4430  175.5980  139.3380 N   0  0  0  0  0  0  0  0  0  0  0  0
  190.0500  176.8220  137.3590 N   0  0  0  0  0  0  0  0  0  0  0  0
  190.2640  177.2080  140.8230 C   0  0  0  0  0  0  0  0  0  0  0  0
  189.3220  177.8890  137.2920 C   0  0  0  0  0  0  0  0  0  0  0  0
  190.5830  176.6870  138.6610 C   0  0  0  0  0  0  0  0  0  0  0  0
  189.0850  178.8010  138.8300 S   0  0  0  0  0  0  0  0  0  0  0  0
  190.3030  175.9230  140.6890 N   0  0  0  0  0  0  0  0  0  0  0  0
  188.7090  178.3090  136.0730 N   0  0  0  0  0  2  0  0  0  0  0  0
  190.5060  177.8890  139.5120 C   0  0  1  0  0  3  0  0  0  0  0  0
  188.8790  177.5770  134.8290 C   0  0  0  0  0  2  0  0  0  0  0  0
  187.6730  176.6940  134.5950 C   0  0  0  0  0  1  0  0  0  0  0  0
  1 18  1  1  0  0  0
  1  2  1  0  0  0  0
  2 16  1  6  0  0  0
  2  9  1  0  0  0  0
  3  4  1  0  0  0  0
  3  8  1  0  0  0  0
  4 13  2  0  0  0  0
  5  9  2  0  0  0  0
  5 11  1  0  0  0  0
  6  3  2  0  0  0  0
  8 17  2  0  0  0  0
 10 15  2  0  0  0  0
 12 15  1  6  0  0  0
 12  5  1  0  0  0  0
 13 17  1  0  0  0  0
 13 11  1  0  0  0  0
 14 21  1  6  0  0  0
 14 12  1  0  0  0  0
 14  1  1  0  0  0  0
 15  4  1  0  0  0  0
 17  7  1  0  0  0  0
 19 25  1  0  0  0  0
 20 23  1  0  0  0  0
 22 20  2  0  0  0  0
 22 24  1  0  0  0  0
 23 19  2  0  0  0  0
 24 27  1  0  0  0  0
 25 21  2  0  0  0  0
 26 22  1  0  0  0  0
 27 23  1  6  0  0  0
 27 21  1  0  0  0  0
 28 26  1  0  0  0  0
 29 28  1  0  0  0  0
M  END
>  <MODEL>
3

>  <REMARK>
 VINA RESULT:      -8.7      2.028      2.491
  Name = 
  2 active torsions:
  status: ('A' for Active; 'I' for Inactive)
    1  A    between atoms: C_6  and  N_24
    2  A    between atoms: C_9  and  C_22
                            x       y       z     vdW  Elec       q    Type
                         _______ _______ _______ _____ _____    ______ ____

>  <TORSDO>
F 2

$$$$
=
 OpenBabel11042410263D

 29 33  0  0  1  0  0  0  0  0999 V2000
  184.5250  178.4560  139.2850 C   0  0  2  0  0  3  0  0  0  0  0  0
  183.2920  178.0380  140.0840 C   0  0  2  0  0  3  0  0  0  0  0  0
  187.7810  177.4750  144.7720 C   0  0  0  0  0  0  0  0  0  0  0  0
  186.8760  177.8410  143.7000 C   0  0  0  0  0  0  0  0  0  0  0  0
  184.5740  178.3980  142.1490 C   0  0  0  0  0  0  0  0  0  0  0  0
  188.9490  177.0240  144.6350 O   0  0  0  0  0  0  0  0  0  0  0  0
  184.9480  178.4770  146.7710 C   0  0  0  0  0  1  0  0  0  0  0  0
  187.1490  177.6890  146.0330 N   0  0  0  0  0  0  0  0  0  0  0  0
  183.4410  178.2920  141.5190 N   0  0  0  0  0  0  0  0  0  0  0  0
  187.9520  177.1140  141.7170 O   0  0  0  0  0  0  0  0  0  0  0  0
  184.5670  178.5130  143.5820 N   0  0  0  0  0  2  0  0  0  0  0  0
  185.9120  178.4100  141.4110 C   0  0  2  0  0  3  0  0  0  0  0  0
  185.7770  178.2460  144.2950 C   0  0  0  0  0  0  0  0  0  0  0  0
  185.8050  177.9250  139.9530 C   0  0  2  0  0  3  0  0  0  0  0  0
  186.9810  177.7220  142.2420 C   0  0  0  0  0  0  0  0  0  0  0  0
  182.9890  176.5690  139.8510 C   0  0  0  0  0  1  0  0  0  0  0  0
  185.9670  178.1400  145.7410 C   0  0  0  0  0  0  0  0  0  0  0  0
  184.5320  179.9690  139.1110 C   0  0  0  0  0  1  0  0  0  0  0  0
  188.9780  179.0710  138.5740 N   0  0  0  0  0  0  0  0  0  0  0  0
  189.3720  177.9120  136.5580 N   0  0  0  0  0  0  0  0  0  0  0  0
  187.0130  178.2460  139.1100 C   0  0  0  0  0  0  0  0  0  0  0  0
  188.9010  176.7390  136.2850 C   0  0  0  0  0  0  0  0  0  0  0  0
  188.5240  178.5670  137.4780 C   0  0  0  0  0  0  0  0  0  0  0  0
  187.4360  176.2250  137.2030 S   0  0  0  0  0  0  0  0  0  0  0  0
  188.0130  178.9220  139.5740 N   0  0  0  0  0  0  0  0  0  0  0  0
  189.5240  175.8780  135.3320 N   0  0  0  0  0  2  0  0  0  0  0  0
  187.1850  177.9730  137.6480 C   0  0  1  0  0  3  0  0  0  0  0  0
  190.7130  176.2710  134.5940 C   0  0  0  0  0  2  0  0  0  0  0  0
  191.9270  175.6020  135.2010 C   0  0  0  0  0  1  0  0  0  0  0  0
  1 18  1  1  0  0  0
  1 14  1  0  0  0  0
  1  2  1  0  0  0  0
  2 16  1  1  0  0  0
  2  9  1  0  0  0  0
  3  8  1  0  0  0  0
  4 13  2  0  0  0  0
  4  3  1  0  0  0  0
  5 11  1  0  0  0  0
  6  3  2  0  0  0  0
  9  5  2  0  0  0  0
 10 15  2  0  0  0  0
 11 13  1  0  0  0  0
 12  5  1  1  0  0  0
 12 15  1  0  0  0  0
 13 17  1  0  0  0  0
 14 21  1  6  0  0  0
 14 12  1  0  0  0  0
 15  4  1  0  0  0  0
 17  8  2  0  0  0  0
 17  7  1  0  0  0  0
 19 25  1  0  0  0  0
 20 23  1  0  0  0  0
 21 25  2  0  0  0  0
 22 20  2  0  0  0  0
 22 24  1  0  0  0  0
 23 27  1  0  0  0  0
 23 19  2  0  0  0  0
 26 22  1  0  0  0  0
 27 24  1  1  0  0  0
 27 21  1  0  0  0  0
 28 29  1  0  0  0  0
 28 26  1  0  0  0  0
M  END
>  <MODEL>
4

>  <REMARK>
 VINA RESULT:      -8.0      2.916      4.743
  Name = 
  2 active torsions:
  status: ('A' for Active; 'I' for Inactive)
    1  A    between atoms: C_6  and  N_24
    2  A    between atoms: C_9  and  C_22
                            x       y       z     vdW  Elec       q    Type
                         _______ _______ _______ _____ _____    ______ ____

>  <TORSDO>
F 2

$$$$
=
 OpenBabel11042410263D

 29 33  0  0  1  0  0  0  0  0999 V2000
  181.3520  180.0100  138.8070 C   0  0  2  0  0  3  0  0  0  0  0  0
  180.2480  179.9580  137.7530 C   0  0  2  0  0  3  0  0  0  0  0  0
  182.4190  173.8350  137.2600 C   0  0  0  0  0  0  0  0  0  0  0  0
  181.9140  175.1450  137.6230 C   0  0  0  0  0  0  0  0  0  0  0  0
  180.3640  177.5040  137.8310 C   0  0  0  0  0  0  0  0  0  0  0  0
  183.6220  173.4650  137.3090 O   0  0  0  0  0  0  0  0  0  0  0  0
  178.9310  173.2970  136.5100 C   0  0  0  0  0  1  0  0  0  0  0  0
  181.3450  173.0080  136.8160 N   0  0  0  0  0  0  0  0  0  0  0  0
  179.7250  178.6040  137.5560 N   0  0  0  0  0  0  0  0  0  0  0  0
  183.8460  176.4620  138.0060 O   0  0  0  0  0  0  0  0  0  0  0  0
  179.7780  176.2460  137.4590 N   0  0  0  0  0  2  0  0  0  0  0  0
  181.7150  177.5120  138.5450 C   0  0  2  0  0  3  0  0  0  0  0  0
  180.6180  175.0910  137.4060 C   0  0  0  0  0  0  0  0  0  0  0  0
  182.3850  178.8990  138.5610 C   0  0  2  0  0  3  0  0  0  0  0  0
  182.5890  176.3800  138.0340 C   0  0  0  0  0  0  0  0  0  0  0  0
  180.7550  180.5100  136.4330 C   0  0  0  0  0  1  0  0  0  0  0  0
  180.2890  173.7580  136.9020 C   0  0  0  0  0  0  0  0  0  0  0  0
  180.7330  179.9470  140.1980 C   0  0  0  0  0  1  0  0  0  0  0  0
  185.4550  179.6680  140.3690 N   0  0  0  0  0  0  0  0  0  0  0  0
  185.2040  178.9420  142.5990 N   0  0  0  0  0  0  0  0  0  0  0  0
  183.5290  179.0150  139.5360 C   0  0  0  0  0  0  0  0  0  0  0  0
  184.0690  178.8350  143.2090 C   0  0  0  0  0  0  0  0  0  0  0  0
  185.0150  178.7930  141.2060 C   0  0  0  0  0  0  0  0  0  0  0  0
  182.6060  178.6650  142.1670 S   0  0  0  0  0  0  0  0  0  0  0  0
  184.5580  179.7620  139.3020 N   0  0  0  0  0  0  0  0  0  0  0  0
  183.9690  178.8810  144.6330 N   0  0  0  0  0  2  0  0  0  0  0  0
  183.7180  178.2260  140.7940 C   0  0  1  0  0  3  0  0  0  0  0  0
  185.1360  179.0310  145.4860 C   0  0  0  0  0  2  0  0  0  0  0  0
  184.9170  178.2720  146.7770 C   0  0  0  0  0  1  0  0  0  0  0  0
  1 18  1  1  0  0  0
  2 16  1  6  0  0  0
  2  1  1  0  0  0  0
  3  6  2  0  0  0  0
  3  4  1  0  0  0  0
  4 15  1  0  0  0  0
  7 17  1  0  0  0  0
  8 17  2  0  0  0  0
  8  3  1  0  0  0  0
  9  2  1  0  0  0  0
  9  5  2  0  0  0  0
 10 15  2  0  0  0  0
 11  5  1  0  0  0  0
 12  5  1  6  0  0  0
 12 14  1  0  0  0  0
 13 11  1  0  0  0  0
 13  4  2  0  0  0  0
 14  1  1  0  0  0  0
 14 21  1  1  0  0  0
 15 12  1  0  0  0  0
 17 13  1  0  0  0  0
 19 23  2  0  0  0  0
 20 22  2  0  0  0  0
 22 26  1  0  0  0  0
 23 20  1  0  0  0  0
 24 22  1  0  0  0  0
 25 21  2  0  0  0  0
 25 19  1  0  0  0  0
 26 28  1  0  0  0  0
 27 21  1  6  0  0  0
 27 23  1  0  0  0  0
 27 24  1  0  0  0  0
 28 29  1  0  0  0  0
M  END
>  <MODEL>
5

>  <REMARK>
 VINA RESULT:      -7.5      5.989      9.577
  Name = 
  2 active torsions:
  status: ('A' for Active; 'I' for Inactive)
    1  A    between atoms: C_6  and  N_24
    2  A    between atoms: C_9  and  C_22
                            x       y       z     vdW  Elec       q    Type
                         _______ _______ _______ _____ _____    ______ ____

>  <TORSDO>
F 2

$$$$
=
 OpenBabel11042410263D

 29 33  0  0  1  0  0  0  0  0999 V2000
  189.4660  174.7670  135.2970 C   0  0  2  0  0  3  0  0  0  0  0  0
  190.9400  175.1120  135.4990 C   0  0  2  0  0  3  0  0  0  0  0  0
  188.4650  178.0990  140.7340 C   0  0  0  0  0  0  0  0  0  0  0  0
  188.8900  177.2250  139.6580 C   0  0  0  0  0  0  0  0  0  0  0  0
  190.4260  175.7060  137.8270 C   0  0  0  0  0  0  0  0  0  0  0  0
  187.3840  178.7420  140.7830 O   0  0  0  0  0  0  0  0  0  0  0  0
  191.6790  177.1300  142.0590 C   0  0  0  0  0  1  0  0  0  0  0  0
  189.4680  178.1400  141.7480 N   0  0  0  0  0  0  0  0  0  0  0  0
  191.2720  175.3500  136.9060 N   0  0  0  0  0  0  0  0  0  0  0  0
  187.2830  177.5380  137.9440 O   0  0  0  0  0  0  0  0  0  0  0  0
  190.9180  176.0350  139.1360 N   0  0  0  0  0  2  0  0  0  0  0  0
  188.9220  175.7780  137.5600 C   0  0  2  0  0  3  0  0  0  0  0  0
  190.0730  176.7780  140.0180 C   0  0  0  0  0  0  0  0  0  0  0  0
  188.5710  175.7560  136.0610 C   0  0  2  0  0  3  0  0  0  0  0  0
  188.2990  176.9130  138.3520 C   0  0  0  0  0  0  0  0  0  0  0  0
  191.3130  176.3280  134.6710 C   0  0  0  0  0  1  0  0  0  0  0  0
  190.4130  177.3620  141.3150 C   0  0  0  0  0  0  0  0  0  0  0  0
  189.2220  173.3170  135.6950 C   0  0  0  0  0  1  0  0  0  0  0  0
  185.2200  175.4150  134.6680 N   0  0  0  0  0  0  0  0  0  0  0  0
  183.9890  173.9500  136.0490 N   0  0  0  0  0  0  0  0  0  0  0  0
  187.1160  175.4800  135.7780 C   0  0  0  0  0  0  0  0  0  0  0  0
  184.5140  173.0230  136.7830 C   0  0  0  0  0  0  0  0  0  0  0  0
  184.9240  174.9900  135.8490 C   0  0  0  0  0  0  0  0  0  0  0  0
  186.2510  173.2310  137.2230 S   0  0  0  0  0  0  0  0  0  0  0  0
  186.5700  175.7730  134.6430 N   0  0  0  0  0  0  0  0  0  0  0  0
  183.7700  171.8770  137.1980 N   0  0  0  0  0  2  0  0  0  0  0  0
  186.0920  174.9820  136.7500 C   0  0  1  0  0  3  0  0  0  0  0  0
  182.3740  171.6890  136.8400 C   0  0  0  0  0  2  0  0  0  0  0  0
  182.2750  170.6840  135.7130 C   0  0  0  0  0  1  0  0  0  0  0  0
  1  2  1  0  0  0  0
  1 18  1  1  0  0  0
  1 14  1  0  0  0  0
  2 16  1  6  0  0  0
  2  9  1  0  0  0  0
  3  6  2  0  0  0  0
  3  8  1  0  0  0  0
  4 13  2  0  0  0  0
  4  3  1  0  0  0  0
  5 11  1  0  0  0  0
  9  5  2  0  0  0  0
 10 15  2  0  0  0  0
 11 13  1  0  0  0  0
 12  5  1  6  0  0  0
 12 15  1  0  0  0  0
 13 17  1  0  0  0  0
 14 21  1  1  0  0  0
 14 12  1  0  0  0  0
 15  4  1  0  0  0  0
 17  8  2  0  0  0  0
 17  7  1  0  0  0  0
 19 23  2  0  0  0  0
 20 22  2  0  0  0  0
 22 26  1  0  0  0  0
 22 24  1  0  0  0  0
 23 20  1  0  0  0  0
 23 27  1  0  0  0  0
 25 19  1  0  0  0  0
 25 21  2  0  0  0  0
 27 21  1  6  0  0  0
 27 24  1  0  0  0  0
 28 26  1  0  0  0  0
 29 28  1  0  0  0  0
M  END
>  <MODEL>
6

>  <REMARK>
 VINA RESULT:      -7.2      4.719      7.563
  Name = 
  2 active torsions:
  status: ('A' for Active; 'I' for Inactive)
    1  A    between atoms: C_6  and  N_24
    2  A    between atoms: C_9  and  C_22
                            x       y       z     vdW  Elec       q    Type
                         _______ _______ _______ _____ _____    ______ ____

>  <TORSDO>
F 2

$$$$
=
 OpenBabel11042410263D

 29 33  0  0  1  0  0  0  0  0999 V2000
  186.7550  178.0080  146.0700 C   0  0  2  0  0  3  0  0  0  0  0  0
  185.8170  178.8990  146.8810 C   0  0  2  0  0  3  0  0  0  0  0  0
  182.6110  178.9400  141.2090 C   0  0  0  0  0  0  0  0  0  0  0  0
  183.3140  178.6720  142.4490 C   0  0  0  0  0  0  0  0  0  0  0  0
  184.0900  178.5490  145.1690 C   0  0  0  0  0  0  0  0  0  0  0  0
  183.1270  178.9990  140.0620 O   0  0  0  0  0  0  0  0  0  0  0  0
  179.8160  179.1730  143.4800 C   0  0  0  0  0  1  0  0  0  0  0  0
  181.2240  179.1430  141.4740 N   0  0  0  0  0  0  0  0  0  0  0  0
  184.4410  178.8680  146.3800 N   0  0  0  0  0  0  0  0  0  0  0  0
  185.6120  178.6950  141.8660 O   0  0  0  0  0  0  0  0  0  0  0  0
  182.7140  178.6930  144.7810 N   0  0  0  0  0  2  0  0  0  0  0  0
  185.0970  178.0180  144.1490 C   0  0  2  0  0  3  0  0  0  0  0  0
  182.3950  178.7150  143.3880 C   0  0  0  0  0  0  0  0  0  0  0  0
  186.5610  178.2500  144.5640 C   0  0  2  0  0  3  0  0  0  0  0  0
  184.7380  178.4980  142.7540 C   0  0  0  0  0  0  0  0  0  0  0  0
  186.3280  180.3290  146.8890 C   0  0  0  0  0  1  0  0  0  0  0  0
  181.1070  179.0130  142.7610 C   0  0  0  0  0  0  0  0  0  0  0  0
  186.5450  176.5520  146.4680 C   0  0  0  0  0  1  0  0  0  0  0  0
  188.6090  175.6890  142.9730 N   0  0  0  0  0  0  0  0  0  0  0  0
  189.8150  176.6930  141.2110 N   0  0  0  0  0  0  0  0  0  0  0  0
  187.5580  177.4490  143.7670 C   0  0  0  0  0  0  0  0  0  0  0  0
  189.4280  177.7460  140.5670 C   0  0  0  0  0  0  0  0  0  0  0  0
  189.2660  176.6990  142.5130 C   0  0  0  0  0  0  0  0  0  0  0  0
  188.2470  178.8180  141.4100 S   0  0  0  0  0  0  0  0  0  0  0  0
  187.5830  176.1570  143.7990 N   0  0  0  0  0  0  0  0  0  0  0  0
  189.8830  178.0330  139.2450 N   0  0  0  0  0  2  0  0  0  0  0  0
  188.7030  177.9850  142.9640 C   0  0  1  0  0  3  0  0  0  0  0  0
  190.8240  177.1720  138.5470 C   0  0  0  0  0  2  0  0  0  0  0  0
  190.2590  176.8030  137.1920 C   0  0  0  0  0  1  0  0  0  0  0  0
  1 18  1  6  0  0  0
  1  2  1  0  0  0  0
  2 16  1  6  0  0  0
  3  8  1  0  0  0  0
  3  4  1  0  0  0  0
  4 15  1  0  0  0  0
  4 13  2  0  0  0  0
  5  9  2  0  0  0  0
  6  3  2  0  0  0  0
  8 17  2  0  0  0  0
  9  2  1  0  0  0  0
 10 15  2  0  0  0  0
 11  5  1  0  0  0  0
 12 15  1  6  0  0  0
 12 14  1  0  0  0  0
 12  5  1  0  0  0  0
 13 11  1  0  0  0  0
 14 21  1  6  0  0  0
 14  1  1  0  0  0  0
 17 13  1  0  0  0  0
 17  7  1  0  0  0  0
 19 25  1  0  0  0  0
 20 23  1  0  0  0  0
 21 25  2  0  0  0  0
 22 20  2  0  0  0  0
 22 24  1  0  0  0  0
 23 27  1  0  0  0  0
 23 19  2  0  0  0  0
 26 22  1  0  0  0  0
 27 24  1  6  0  0  0
 27 21  1  0  0  0  0
 28 26  1  0  0  0  0
 29 28  1  0  0  0  0
M  END
>  <MODEL>
7

>  <REMARK>
 VINA RESULT:      -7.1      2.411      4.203
  Name = 
  2 active torsions:
  status: ('A' for Active; 'I' for Inactive)
    1  A    between atoms: C_6  and  N_24
    2  A    between atoms: C_9  and  C_22
                            x       y       z     vdW  Elec       q    Type
                         _______ _______ _______ _____ _____    ______ ____

>  <TORSDO>
F 2

$$$$
=
 OpenBabel11042410263D

 29 33  0  0  1  0  0  0  0  0999 V2000
  184.9250  179.1320  144.4980 C   0  0  2  0  0  3  0  0  0  0  0  0
  184.9950  178.7420  145.9720 C   0  0  2  0  0  3  0  0  0  0  0  0
  190.5570  176.0280  143.9340 C   0  0  0  0  0  0  0  0  0  0  0  0
  189.4120  176.8480  144.2780 C   0  0  0  0  0  0  0  0  0  0  0  0
  187.3840  178.2470  145.6730 C   0  0  0  0  0  0  0  0  0  0  0  0
  190.7350  175.4250  142.8430 O   0  0  0  0  0  0  0  0  0  0  0  0
  191.5230  176.9260  147.2920 C   0  0  0  0  0  1  0  0  0  0  0  0
  191.4680  175.9850  145.0300 N   0  0  0  0  0  0  0  0  0  0  0  0
  186.3710  178.5400  146.4350 N   0  0  0  0  0  0  0  0  0  0  0  0
  187.8760  176.5330  142.5000 O   0  0  0  0  0  0  0  0  0  0  0  0
  188.6500  177.9460  146.2820 N   0  0  0  0  0  2  0  0  0  0  0  0
  187.2680  178.2200  144.1490 C   0  0  2  0  0  3  0  0  0  0  0  0
  189.6370  177.2640  145.5040 C   0  0  0  0  0  0  0  0  0  0  0  0
  185.8100  178.2030  143.6510 C   0  0  2  0  0  3  0  0  0  0  0  0
  188.1590  177.1360  143.5710 C   0  0  0  0  0  0  0  0  0  0  0  0
  184.1810  177.4850  146.2220 C   0  0  0  0  0  1  0  0  0  0  0  0
  190.9160  176.7140  145.9520 C   0  0  0  0  0  0  0  0  0  0  0  0
  185.2910  180.6030  144.3420 C   0  0  0  0  0  1  0  0  0  0  0  0
  186.2430  178.9320  140.1060 N   0  0  0  0  0  0  0  0  0  0  0  0
  184.1480  178.7100  139.0430 N   0  0  0  0  0  0  0  0  0  0  0  0
  185.6600  178.5200  142.1850 C   0  0  0  0  0  0  0  0  0  0  0  0
  183.1910  177.9490  139.4650 C   0  0  0  0  0  0  0  0  0  0  0  0
  184.9650  179.1000  140.1290 C   0  0  0  0  0  0  0  0  0  0  0  0
  183.2270  177.5030  141.2120 S   0  0  0  0  0  0  0  0  0  0  0  0
  186.6800  178.6280  141.3980 N   0  0  0  0  0  0  0  0  0  0  0  0
  182.1760  177.4580  138.5900 N   0  0  0  0  0  2  0  0  0  0  0  0
  184.3940  178.8770  141.4700 C   0  0  1  0  0  3  0  0  0  0  0  0
  182.1410  177.7970  137.1770 C   0  0  0  0  0  2  0  0  0  0  0  0
  181.2280  178.9870  136.9680 C   0  0  0  0  0  1  0  0  0  0  0  0
  1 18  1  1  0  0  0
  1  2  1  0  0  0  0
  2 16  1  6  0  0  0
  2  9  1  0  0  0  0
  3  4  1  0  0  0  0
  3  8  1  0  0  0  0
  4 13  2  0  0  0  0
  5 11  1  0  0  0  0
  5  9  2  0  0  0  0
  6  3  2  0  0  0  0
  8 17  2  0  0  0  0
 10 15  2  0  0  0  0
 12 15  1  1  0  0  0
 12  5  1  0  0  0  0
 13 17  1  0  0  0  0
 13 11  1  0  0  0  0
 14 21  1  6  0  0  0
 14 12  1  0  0  0  0
 14  1  1  0  0  0  0
 15  4  1  0  0  0  0
 17  7  1  0  0  0  0
 19 23  2  0  0  0  0
 19 25  1  0  0  0  0
 20 22  2  0  0  0  0
 20 23  1  0  0  0  0
 22 24  1  0  0  0  0
 24 27  1  0  0  0  0
 25 21  2  0  0  0  0
 26 22  1  0  0  0  0
 27 23  1  6  0  0  0
 27 21  1  0  0  0  0
 28 26  1  0  0  0  0
 29 28  1  0  0  0  0
M  END
>  <MODEL>
8

>  <REMARK>
 VINA RESULT:      -6.8      4.501      7.155
  Name = 
  2 active torsions:
  status: ('A' for Active; 'I' for Inactive)
    1  A    between atoms: C_6  and  N_24
    2  A    between atoms: C_9  and  C_22
                            x       y       z     vdW  Elec       q    Type
                         _______ _______ _______ _____ _____    ______ ____

>  <TORSDO>
F 2

$$$$
=
 OpenBabel11042410263D

 29 33  0  0  1  0  0  0  0  0999 V2000
  191.1590  177.3590  142.7840 C   0  0  2  0  0  3  0  0  0  0  0  0
  190.6760  177.9340  144.1140 C   0  0  2  0  0  3  0  0  0  0  0  0
  185.3340  179.0050  140.5400 C   0  0  0  0  0  0  0  0  0  0  0  0
  186.5010  178.5210  141.2530 C   0  0  0  0  0  0  0  0  0  0  0  0
  188.3730  177.8310  143.2610 C   0  0  0  0  0  0  0  0  0  0  0  0
  185.3050  179.3870  139.3410 O   0  0  0  0  0  0  0  0  0  0  0  0
  183.7990  178.4100  143.7510 C   0  0  0  0  0  1  0  0  0  0  0  0
  184.2010  179.0000  141.4060 N   0  0  0  0  0  0  0  0  0  0  0  0
  189.2180  177.8860  144.2490 N   0  0  0  0  0  0  0  0  0  0  0  0
  188.3210  178.9110  139.7860 O   0  0  0  0  0  0  0  0  0  0  0  0
  186.9670  177.9260  143.5400 N   0  0  0  0  0  2  0  0  0  0  0  0
  188.8330  177.6620  141.8130 C   0  0  2  0  0  3  0  0  0  0  0  0
  186.0780  178.2480  142.4670 C   0  0  0  0  0  0  0  0  0  0  0  0
  190.3370  177.9330  141.6180 C   0  0  2  0  0  3  0  0  0  0  0  0
  187.9140  178.4220  140.8740 C   0  0  0  0  0  0  0  0  0  0  0  0
  191.1590  179.3640  144.2750 C   0  0  0  0  0  1  0  0  0  0  0  0
  184.6500  178.5570  142.5410 C   0  0  0  0  0  0  0  0  0  0  0  0
  191.1210  175.8370  142.8430 C   0  0  0  0  0  1  0  0  0  0  0  0
  192.3460  176.7530  138.8150 N   0  0  0  0  0  0  0  0  0  0  0  0
  190.8870  175.9530  137.1430 N   0  0  0  0  0  0  0  0  0  0  0  0
  190.8810  177.4480  140.2980 C   0  0  0  0  0  0  0  0  0  0  0  0
  189.7010  175.4870  137.3680 C   0  0  0  0  0  0  0  0  0  0  0  0
  191.2430  176.8690  138.1580 C   0  0  0  0  0  0  0  0  0  0  0  0
  188.9130  176.0030  138.9070 S   0  0  0  0  0  0  0  0  0  0  0  0
  192.1320  177.1680  140.1320 N   0  0  0  0  0  0  0  0  0  0  0  0
  189.0600  174.5860  136.4660 N   0  0  0  0  0  2  0  0  0  0  0  0
  190.1350  177.3490  139.0040 C   0  0  1  0  0  3  0  0  0  0  0  0
  189.6880  174.1510  135.2300 C   0  0  0  0  0  2  0  0  0  0  0  0
  189.9000  172.6530  135.2730 C   0  0  0  0  0  1  0  0  0  0  0  0
  1 18  1  1  0  0  0
  1  2  1  0  0  0  0
  2  9  1  0  0  0  0
  2 16  1  6  0  0  0
  3  4  1  0  0  0  0
  3  8  1  0  0  0  0
  4 13  2  0  0  0  0
  5 11  1  0  0  0  0
  5  9  2  0  0  0  0
  6  3  2  0  0  0  0
  8 17  2  0  0  0  0
 10 15  2  0  0  0  0
 12 15  1  6  0  0  0
 12  5  1  0  0  0  0
 13 17  1  0  0  0  0
 13 11  1  0  0  0  0
 14 21  1  6  0  0  0
 14 12  1  0  0  0  0
 14  1  1  0  0  0  0
 15  4  1  0  0  0  0
 17  7  1  0  0  0  0
 19 25  1  0  0  0  0
 20 22  2  0  0  0  0
 20 23  1  0  0  0  0
 22 24  1  0  0  0  0
 23 19  2  0  0  0  0
 24 27  1  0  0  0  0
 25 21  2  0  0  0  0
 26 22  1  0  0  0  0
 27 23  1  6  0  0  0
 27 21  1  0  0  0  0
 28 29  1  0  0  0  0
 28 26  1  0  0  0  0
M  END
>  <MODEL>
9

>  <REMARK>
 VINA RESULT:      -6.8      1.802      2.402
  Name = 
  2 active torsions:
  status: ('A' for Active; 'I' for Inactive)
    1  A    between atoms: C_6  and  N_24
    2  A    between atoms: C_9  and  C_22
                            x       y       z     vdW  Elec       q    Type
                         _______ _______ _______ _____ _____    ______ ____

>  <TORSDO>
F 2

$$$$
