=
 OpenBabel11042411133D

 54 60  0  0  1  0  0  0  0  0999 V2000
  180.0150  179.8990  139.4730 C   0  0  0  0  0  3  0  0  0  0  0  0
  182.1580  177.0270  139.1590 C   0  0  0  0  0  3  0  0  0  0  0  0
  181.9580  178.5260  144.3400 C   0  0  0  0  0  3  0  0  0  0  0  0
  180.8100  178.8290  143.7510 C   0  0  0  0  0  3  0  0  0  0  0  0
  184.3350  178.9330  144.9320 C   0  0  0  0  0  1  0  0  0  0  0  0
  179.7700  180.4510  142.4420 N   0  0  0  0  0  0  0  0  0  0  0  0
  182.6650  176.1960  138.0260 C   0  0  1  0  0  3  0  0  0  0  0  0
  179.4080  181.3090  141.3880 N   0  0  0  0  0  0  0  0  0  0  0  0
  183.5590  177.2030  136.7690 S   0  0  0  0  0  0  0  0  0  0  0  0
  178.9990  182.1750  139.2080 C   0  0  0  0  0  1  0  0  0  0  0  0
  184.8850  177.8570  137.8430 C   0  0  0  0  0  2  0  0  0  0  0  0
  183.6950  178.6920  142.5450 C   0  0  0  0  0  0  0  0  0  0  0  0
  184.4140  179.0870  138.6100 C   0  0  0  0  0  2  0  0  0  0  0  0
  181.4650  179.0940  141.3000 C   0  0  0  0  0  0  0  0  0  0  0  0
  181.2840  178.0030  138.9390 C   0  0  0  0  0  3  0  0  0  0  0  0
  180.6660  179.5120  142.4700 C   0  0  0  0  0  0  0  0  0  0  0  0
  179.5180  181.1170  140.1120 C   0  0  0  0  0  0  0  0  0  0  0  0
  185.4660  178.2030  140.7010 C   0  0  0  0  0  2  0  0  0  0  0  0
  180.8410  178.9810  139.9550 C   0  0  0  0  0  0  0  0  0  0  0  0
  182.7470  178.7240  141.4080 C   0  0  0  0  0  3  0  0  0  0  0  0
  185.3340  179.4120  139.7840 C   0  0  0  0  0  2  0  0  0  0  0  0
  183.3170  178.7840  143.8460 C   0  0  0  0  0  0  0  0  0  0  0  0
  185.1770  178.4910  142.1850 C   0  0  2  0  0  3  0  0  0  0  0  0
  185.7930  177.4300  142.9970 N   0  0  0  0  0  2  0  0  0  0  0  0
  187.1290  177.8350  143.4340 C   0  0  0  0  0  2  0  0  0  0  0  0
  188.1610  176.8170  142.9840 C   0  0  1  0  0  3  0  0  0  0  0  0
  189.1030  177.4510  141.9720 C   0  0  2  0  0  0  0  0  0  0  0  0
  190.0140  176.5300  141.4370 O   0  0  0  0  0  0  0  0  0  0  0  0
  189.7480  178.7140  142.2840 N   0  0  0  0  0  1  0  0  0  0  0  0
  189.0480  177.0640  140.5520 C   0  0  0  0  0  2  0  0  0  0  0  0
  188.8810  176.3540  144.0880 O   0  0  0  0  0  0  0  0  0  0  0  0
  188.3080  177.0040  145.1870 C   0  0  0  0  0  2  0  0  0  0  0  0
  190.0480  176.1700  146.7590 C   0  0  0  0  0  1  0  0  0  0  0  0
  189.3710  177.4100  146.2060 C   0  0  0  0  0  0  0  0  0  0  0  0
  190.4210  178.2940  145.5510 C   0  0  0  0  0  1  0  0  0  0  0  0
  188.7160  178.1560  147.3650 C   0  0  0  0  0  2  0  0  0  0  0  0
  188.0830  177.2750  148.2430 O   0  0  0  0  0  1  0  0  0  0  0  0
  183.4870  175.0060  138.5130 C   0  0  0  0  0  2  0  0  0  0  0  0
  183.2680  173.8800  137.7120 O   0  0  0  0  0  0  0  0  0  0  0  0
  184.4290  173.7470  136.9570 C   0  0  0  0  0  2  0  0  0  0  0  0
  184.4390  172.1120  136.1680 S   0  0  0  0  0  0  0  0  0  0  0  0
  186.8390  170.9230  135.4690 N   0  0  0  0  0  0  0  0  0  0  0  0
  188.1910  170.6710  135.0440 C   0  0  0  0  0  3  0  0  0  0  0  0
  188.8860  173.0200  135.0300 C   0  0  0  0  0  2  0  0  0  0  0  0
  186.8920  173.1730  136.4410 C   0  0  0  0  0  2  0  0  0  0  0  0
  189.0920  171.5910  134.8650 N   0  0  0  0  0  0  0  0  0  0  0  0
  186.2180  172.1050  136.0030 C   0  0  0  0  0  0  0  0  0  0  0  0
  188.3820  173.3040  136.4280 C   0  0  2  0  0  3  0  0  0  0  0  0
  187.9660  175.8720  136.9950 C   0  0  0  0  0  3  0  0  0  0  0  0
  190.2380  175.1320  136.5760 C   0  0  1  0  0  3  0  0  0  0  0  0
  188.7710  177.0730  136.7860 N   0  0  0  0  0  0  0  0  0  0  0  0
  188.8820  174.6790  136.8950 C   0  0  2  0  0  0  0  0  0  0  0  0
  190.1570  176.6480  136.5710 C   0  0  0  0  0  2  0  0  0  0  0  0
  189.8970  174.6500  137.8620 O   0  0  0  0  0  0  0  0  0  0  0  0
  1 19  2  0  0  0  0
  1 17  1  0  0  0  0
  4  3  2  0  0  0  0
  6 16  2  0  0  0  0
  7 38  1  1  0  0  0
  7  2  1  0  0  0  0
  8  6  1  0  0  0  0
  9 11  1  0  0  0  0
  9  7  1  0  0  0  0
 10 17  1  0  0  0  0
 11 13  1  0  0  0  0
 12 22  2  0  0  0  0
 13 21  1  0  0  0  0
 14 20  2  0  0  0  0
 14 16  1  0  0  0  0
 15  2  2  0  0  0  0
 15 19  1  0  0  0  0
 16  4  1  0  0  0  0
 17  8  2  0  0  0  0
 18 23  1  0  0  0  0
 19 14  1  0  0  0  0
 20 12  1  0  0  0  0
 21 18  1  0  0  0  0
 22  3  1  0  0  0  0
 22  5  1  0  0  0  0
 23 12  1  0  0  0  0
 23 24  1  1  0  0  0
 24 25  1  0  0  0  0
 26 25  1  1  0  0  0
 26 31  1  0  0  0  0
 27 29  1  1  0  0  0
 27 26  1  0  0  0  0
 28 27  1  0  0  0  0
 30 28  1  0  0  0  0
 30 27  1  0  0  0  0
 31 32  1  0  0  0  0
 32 34  1  0  0  0  0
 34 33  1  0  0  0  0
 34 36  1  0  0  0  0
 35 34  1  0  0  0  0
 36 37  1  0  0  0  0
 39 38  1  0  0  0  0
 40 39  1  0  0  0  0
 41 40  1  0  0  0  0
 42 47  2  0  0  0  0
 43 42  1  0  0  0  0
 46 44  1  0  0  0  0
 46 43  2  0  0  0  0
 47 41  1  0  0  0  0
 47 45  1  0  0  0  0
 48 44  1  6  0  0  0
 48 45  1  0  0  0  0
 48 52  1  0  0  0  0
 50 53  1  1  0  0  0
 50 52  1  0  0  0  0
 50 54  1  0  0  0  0
 51 49  2  0  0  0  0
 52 49  1  1  0  0  0
 52 54  1  0  0  0  0
 53 51  1  0  0  0  0
M  END
>  <MODEL>
1

>  <REMARK>
 VINA RESULT:      -7.0      0.000      0.000
  Name = 
  14 active torsions:
  status: ('A' for Active; 'I' for Inactive)
    1  A    between atoms: C_2  and  C_11
    2  A    between atoms: O_5  and  C_20
    3  A    between atoms: O_5  and  C_29
    4  A    between atoms: N_6  and  C_36
    5  A    between atoms: N_6  and  C_53
    6  A    between atoms: C_11  and  O_16
    7  A    between atoms: C_11  and  C_36
    8  A    between atoms: C_14  and  C_21
    9  A    between atoms: C_14  and  C_28
   10  A    between atoms: O_16  and  C_28
   11  A    between atoms: C_20  and  C_25
   12  A    between atoms: C_29  and  S_45
   13  A    between atoms: C_31  and  S_45
   14  A    between atoms: C_37  and  C_43
                            x       y       z     vdW  Elec       q    Type
                         _______ _______ _______ _____ _____    ______ ____

>  <TORSDO>
F 14

$$$$
=
 OpenBabel11042411133D

 54 60  0  0  1  0  0  0  0  0999 V2000
  190.3580  174.3070  136.4810 C   0  0  0  0  0  3  0  0  0  0  0  0
  188.0640  176.5030  138.1730 C   0  0  0  0  0  3  0  0  0  0  0  0
  185.3190  172.3610  136.0670 C   0  0  0  0  0  3  0  0  0  0  0  0
  186.5420  171.9600  136.3850 C   0  0  0  0  0  3  0  0  0  0  0  0
  183.6420  173.4490  134.5940 C   0  0  0  0  0  1  0  0  0  0  0  0
  188.7350  171.9040  135.6030 N   0  0  0  0  0  0  0  0  0  0  0  0
  188.1720  177.8130  138.8830 C   0  0  1  0  0  3  0  0  0  0  0  0
  190.0250  172.2610  135.1690 N   0  0  0  0  0  0  0  0  0  0  0  0
  188.8970  179.1270  137.8150 S   0  0  0  0  0  0  0  0  0  0  0  0
  192.1060  173.3940  134.9350 C   0  0  0  0  0  1  0  0  0  0  0  0
  187.6380  179.1190  136.4890 C   0  0  0  0  0  2  0  0  0  0  0  0
  185.5410  174.7830  135.4760 C   0  0  0  0  0  0  0  0  0  0  0  0
  187.9210  178.0230  135.4690 C   0  0  0  0  0  2  0  0  0  0  0  0
  187.9060  174.1120  136.2760 C   0  0  0  0  0  0  0  0  0  0  0  0
  189.1530  175.8950  137.7140 C   0  0  0  0  0  3  0  0  0  0  0  0
  187.7790  172.6590  136.0520 C   0  0  0  0  0  0  0  0  0  0  0  0
  190.7390  173.2880  135.5040 C   0  0  0  0  0  0  0  0  0  0  0  0
  185.5010  177.3860  135.4610 C   0  0  0  0  0  2  0  0  0  0  0  0
  189.1460  174.6840  136.8650 C   0  0  0  0  0  0  0  0  0  0  0  0
  186.8980  174.9610  136.0410 C   0  0  0  0  0  3  0  0  0  0  0  0
  186.7050  177.7310  134.5940 C   0  0  0  0  0  2  0  0  0  0  0  0
  184.9320  173.5770  135.3400 C   0  0  0  0  0  0  0  0  0  0  0  0
  184.7970  176.0710  135.0820 C   0  0  2  0  0  3  0  0  0  0  0  0
  183.4310  176.0960  135.6280 N   0  0  0  0  0  2  0  0  0  0  0  0
  183.3480  177.0380  136.7440 C   0  0  0  0  0  2  0  0  0  0  0  0
  181.9560  177.0160  137.3490 C   0  0  1  0  0  3  0  0  0  0  0  0
  181.8330  175.8490  138.3150 C   0  0  2  0  0  0  0  0  0  0  0  0
  180.6850  175.9330  139.1160 O   0  0  0  0  0  0  0  0  0  0  0  0
  182.9890  175.4320  139.0900 N   0  0  0  0  0  1  0  0  0  0  0  0
  180.7370  174.8740  138.1780 C   0  0  0  0  0  2  0  0  0  0  0  0
  181.7110  178.2200  138.0140 O   0  0  0  0  0  0  0  0  0  0  0  0
  181.5180  179.1600  136.9950 C   0  0  0  0  0  2  0  0  0  0  0  0
  180.5570  181.3790  136.4040 C   0  0  0  0  0  1  0  0  0  0  0  0
  180.5600  180.2650  137.4340 C   0  0  0  0  0  0  0  0  0  0  0  0
  179.1480  179.7160  137.5730 C   0  0  0  0  0  1  0  0  0  0  0  0
  181.0220  180.8470  138.7670 C   0  0  0  0  0  2  0  0  0  0  0  0
  182.2250  181.5410  138.6290 O   0  0  0  0  0  1  0  0  0  0  0  0
  186.8460  178.2340  139.5100 C   0  0  0  0  0  2  0  0  0  0  0  0
  187.0500  178.8820  140.7330 O   0  0  0  0  0  0  0  0  0  0  0  0
  186.7320  177.9320  141.6990 C   0  0  0  0  0  2  0  0  0  0  0  0
  185.1690  178.3980  142.4950 S   0  0  0  0  0  0  0  0  0  0  0  0
  185.1230  178.9570  145.2060 N   0  0  0  0  0  2  0  0  0  0  0  0
  185.3430  178.9500  146.6290 C   0  0  0  0  0  3  0  0  0  0  0  0
  187.1510  177.2980  146.5880 C   0  0  0  0  0  2  0  0  0  0  0  0
  187.1690  178.0070  144.2460 C   0  0  0  0  0  3  0  0  0  0  0  0
  186.2420  178.2310  147.2320 N   0  0  0  0  0  0  0  0  0  0  0  0
  185.9050  178.4250  144.1230 C   0  0  0  0  0  0  0  0  0  0  0  0
  187.9490  178.0180  145.5230 C   0  0  2  0  0  3  0  0  0  0  0  0
  190.0850  176.8370  146.5880 C   0  0  0  0  0  3  0  0  0  0  0  0
  190.3060  177.8860  144.4110 C   0  0  1  0  0  3  0  0  0  0  0  0
  191.5160  176.9530  146.3170 N   0  0  0  0  0  0  0  0  0  0  0  0
  189.3430  177.3860  145.3960 C   0  0  2  0  0  0  0  0  0  0  0  0
  191.6700  177.5480  144.9860 C   0  0  0  0  0  2  0  0  0  0  0  0
  189.5780  176.6900  144.2010 O   0  0  0  0  0  0  0  0  0  0  0  0
  1 19  1  0  0  0  0
  2  7  1  0  0  0  0
  3  4  1  0  0  0  0
  5 22  1  0  0  0  0
  6 16  1  0  0  0  0
  7 38  1  6  0  0  0
  8 17  1  0  0  0  0
  8  6  2  0  0  0  0
  9  7  1  0  0  0  0
 10 17  1  0  0  0  0
 11  9  1  0  0  0  0
 12 20  2  0  0  0  0
 13 11  1  0  0  0  0
 14 19  2  0  0  0  0
 15  2  2  0  0  0  0
 16 14  1  0  0  0  0
 16  4  2  0  0  0  0
 17  1  2  0  0  0  0
 19 15  1  0  0  0  0
 20 14  1  0  0  0  0
 21 18  1  0  0  0  0
 21 13  1  0  0  0  0
 22 12  1  0  0  0  0
 22  3  2  0  0  0  0
 23 18  1  0  0  0  0
 23 12  1  0  0  0  0
 23 24  1  1  0  0  0
 24 25  1  0  0  0  0
 26 25  1  1  0  0  0
 26 31  1  0  0  0  0
 26 27  1  0  0  0  0
 27 29  1  1  0  0  0
 27 28  1  0  0  0  0
 30 27  1  0  0  0  0
 30 28  1  0  0  0  0
 32 34  1  0  0  0  0
 32 31  1  0  0  0  0
 33 34  1  0  0  0  0
 34 35  1  0  0  0  0
 34 36  1  0  0  0  0
 37 36  1  0  0  0  0
 38 39  1  0  0  0  0
 39 40  1  0  0  0  0
 40 41  1  0  0  0  0
 41 47  1  0  0  0  0
 42 43  1  0  0  0  0
 43 46  2  0  0  0  0
 44 46  1  0  0  0  0
 47 45  2  0  0  0  0
 47 42  1  0  0  0  0
 48 45  1  6  0  0  0
 48 44  1  0  0  0  0
 50 53  1  1  0  0  0
 50 52  1  0  0  0  0
 51 49  2  0  0  0  0
 52 48  1  0  0  0  0
 52 49  1  1  0  0  0
 53 51  1  0  0  0  0
 54 50  1  0  0  0  0
 54 52  1  0  0  0  0
M  END
>  <MODEL>
2

>  <REMARK>
 VINA RESULT:      -6.8      3.111     10.172
  Name = 
  14 active torsions:
  status: ('A' for Active; 'I' for Inactive)
    1  A    between atoms: C_2  and  C_11
    2  A    between atoms: O_5  and  C_20
    3  A    between atoms: O_5  and  C_29
    4  A    between atoms: N_6  and  C_36
    5  A    between atoms: N_6  and  C_53
    6  A    between atoms: C_11  and  O_16
    7  A    between atoms: C_11  and  C_36
    8  A    between atoms: C_14  and  C_21
    9  A    between atoms: C_14  and  C_28
   10  A    between atoms: O_16  and  C_28
   11  A    between atoms: C_20  and  C_25
   12  A    between atoms: C_29  and  S_45
   13  A    between atoms: C_31  and  S_45
   14  A    between atoms: C_37  and  C_43
                            x       y       z     vdW  Elec       q    Type
                         _______ _______ _______ _____ _____    ______ ____

>  <TORSDO>
F 14

$$$$
=
 OpenBabel11042411133D

 54 60  0  0  1  0  0  0  0  0999 V2000
  191.3940  174.6760  136.6260 C   0  0  0  0  0  3  0  0  0  0  0  0
  188.7850  176.3880  138.4160 C   0  0  0  0  0  3  0  0  0  0  0  0
  186.7160  172.0090  136.0330 C   0  0  0  0  0  3  0  0  0  0  0  0
  187.9840  171.7830  136.3430 C   0  0  0  0  0  3  0  0  0  0  0  0
  184.8960  172.9150  134.6060 C   0  0  0  0  0  1  0  0  0  0  0  0
  190.1630  172.1100  135.5860 N   0  0  0  0  0  0  0  0  0  0  0  0
  188.6880  177.6530  139.2040 C   0  0  1  0  0  3  0  0  0  0  0  0
  191.3840  172.6860  135.1900 N   0  0  0  0  0  0  0  0  0  0  0  0
  189.2050  179.1260  138.2250 S   0  0  0  0  0  0  0  0  0  0  0  0
  193.2670  174.1370  135.0500 C   0  0  0  0  0  1  0  0  0  0  0  0
  187.9670  179.0050  136.8850 C   0  0  0  0  0  2  0  0  0  0  0  0
  186.5640  174.4690  135.5890 C   0  0  0  0  0  0  0  0  0  0  0  0
  188.4190  178.0290  135.8060 C   0  0  0  0  0  2  0  0  0  0  0  0
  189.0020  174.1210  136.3780 C   0  0  0  0  0  0  0  0  0  0  0  0
  189.9550  175.9830  137.9350 C   0  0  0  0  0  3  0  0  0  0  0  0
  189.1000  172.6810  136.0670 C   0  0  0  0  0  0  0  0  0  0  0  0
  191.9300  173.7880  135.5950 C   0  0  0  0  0  0  0  0  0  0  0  0
  186.1250  177.0310  135.7280 C   0  0  0  0  0  2  0  0  0  0  0  0
  190.1370  174.8390  137.0160 C   0  0  0  0  0  0  0  0  0  0  0  0
  187.8760  174.8180  136.1810 C   0  0  0  0  0  3  0  0  0  0  0  0
  187.2650  177.6080  134.8990 C   0  0  0  0  0  2  0  0  0  0  0  0
  186.1490  173.1940  135.3750 C   0  0  0  0  0  0  0  0  0  0  0  0
  185.6330  175.6490  135.2630 C   0  0  2  0  0  3  0  0  0  0  0  0
  184.2770  175.4320  135.7930 N   0  0  0  0  0  2  0  0  0  0  0  0
  184.0410  176.2930  136.9510 C   0  0  0  0  0  2  0  0  0  0  0  0
  182.7310  175.9230  137.6230 C   0  0  1  0  0  3  0  0  0  0  0  0
  182.1640  177.1340  138.3470 C   0  0  2  0  0  0  0  0  0  0  0  0
  181.6190  176.8060  139.5970 O   0  0  0  0  0  0  0  0  0  0  0  0
  181.3150  178.0690  137.6290 N   0  0  0  0  0  1  0  0  0  0  0  0
  182.7780  177.6170  139.5960 C   0  0  0  0  0  2  0  0  0  0  0  0
  181.8220  175.4640  136.6670 O   0  0  0  0  0  0  0  0  0  0  0  0
  181.5140  174.1570  137.0640 C   0  0  0  0  0  2  0  0  0  0  0  0
  180.6350  174.2860  134.7380 C   0  0  0  0  0  1  0  0  0  0  0  0
  180.7170  173.4250  135.9850 C   0  0  0  0  0  0  0  0  0  0  0  0
  181.3900  172.1080  135.6330 C   0  0  0  0  0  1  0  0  0  0  0  0
  179.2970  173.1650  136.4810 C   0  0  0  0  0  2  0  0  0  0  0  0
  179.2870  172.2510  137.5360 O   0  0  0  0  0  1  0  0  0  0  0  0
  187.3100  177.8280  139.8380 C   0  0  0  0  0  2  0  0  0  0  0  0
  187.4020  177.8880  141.2320 O   0  0  0  0  0  0  0  0  0  0  0  0
  186.5950  178.9610  141.5980 C   0  0  0  0  0  2  0  0  0  0  0  0
  185.1140  178.3290  142.4380 S   0  0  0  0  0  0  0  0  0  0  0  0
  185.1640  178.8810  145.1500 N   0  0  0  0  0  2  0  0  0  0  0  0
  185.4340  178.8700  146.5650 C   0  0  0  0  0  3  0  0  0  0  0  0
  187.2370  177.2160  146.4570 C   0  0  0  0  0  2  0  0  0  0  0  0
  187.1740  177.9310  144.1170 C   0  0  0  0  0  3  0  0  0  0  0  0
  186.3530  178.1480  147.1350 N   0  0  0  0  0  0  0  0  0  0  0  0
  185.9070  178.3510  144.0400 C   0  0  0  0  0  0  0  0  0  0  0  0
  187.9990  177.9370  145.3660 C   0  0  2  0  0  3  0  0  0  0  0  0
  190.2920  177.0200  146.3600 C   0  0  0  0  0  3  0  0  0  0  0  0
  190.1980  177.5970  144.0050 C   0  0  1  0  0  3  0  0  0  0  0  0
  191.6720  177.0890  145.8850 N   0  0  0  0  0  0  0  0  0  0  0  0
  189.3860  177.3040  145.1890 C   0  0  2  0  0  0  0  0  0  0  0  0
  191.6350  177.3970  144.4530 C   0  0  0  0  0  2  0  0  0  0  0  0
  189.4920  176.3780  144.1410 O   0  0  0  0  0  0  0  0  0  0  0  0
  1 19  1  0  0  0  0
  2  7  1  0  0  0  0
  3  4  1  0  0  0  0
  5 22  1  0  0  0  0
  6 16  1  0  0  0  0
  7 38  1  6  0  0  0
  8  6  2  0  0  0  0
  8 17  1  0  0  0  0
  9  7  1  0  0  0  0
 10 17  1  0  0  0  0
 11  9  1  0  0  0  0
 12 20  2  0  0  0  0
 13 11  1  0  0  0  0
 14 19  2  0  0  0  0
 15  2  2  0  0  0  0
 16  4  2  0  0  0  0
 16 14  1  0  0  0  0
 17  1  2  0  0  0  0
 19 15  1  0  0  0  0
 20 14  1  0  0  0  0
 21 18  1  0  0  0  0
 21 13  1  0  0  0  0
 22 12  1  0  0  0  0
 22  3  2  0  0  0  0
 23 12  1  0  0  0  0
 23 18  1  0  0  0  0
 23 24  1  1  0  0  0
 24 25  1  0  0  0  0
 26 25  1  6  0  0  0
 26 27  1  0  0  0  0
 27 29  1  6  0  0  0
 27 30  1  0  0  0  0
 27 28  1  0  0  0  0
 30 28  1  0  0  0  0
 31 32  1  0  0  0  0
 31 26  1  0  0  0  0
 33 34  1  0  0  0  0
 34 36  1  0  0  0  0
 34 32  1  0  0  0  0
 35 34  1  0  0  0  0
 36 37  1  0  0  0  0
 38 39  1  0  0  0  0
 39 40  1  0  0  0  0
 40 41  1  0  0  0  0
 41 47  1  0  0  0  0
 42 43  1  0  0  0  0
 43 46  2  0  0  0  0
 44 46  1  0  0  0  0
 47 45  2  0  0  0  0
 47 42  1  0  0  0  0
 48 45  1  6  0  0  0
 48 44  1  0  0  0  0
 50 54  1  0  0  0  0
 50 53  1  1  0  0  0
 50 52  1  0  0  0  0
 51 49  2  0  0  0  0
 52 48  1  0  0  0  0
 52 49  1  1  0  0  0
 53 51  1  0  0  0  0
 54 52  1  0  0  0  0
M  END
>  <MODEL>
3

>  <REMARK>
 VINA RESULT:      -6.0      3.109     10.524
  Name = 
  14 active torsions:
  status: ('A' for Active; 'I' for Inactive)
    1  A    between atoms: C_2  and  C_11
    2  A    between atoms: O_5  and  C_20
    3  A    between atoms: O_5  and  C_29
    4  A    between atoms: N_6  and  C_36
    5  A    between atoms: N_6  and  C_53
    6  A    between atoms: C_11  and  O_16
    7  A    between atoms: C_11  and  C_36
    8  A    between atoms: C_14  and  C_21
    9  A    between atoms: C_14  and  C_28
   10  A    between atoms: O_16  and  C_28
   11  A    between atoms: C_20  and  C_25
   12  A    between atoms: C_29  and  S_45
   13  A    between atoms: C_31  and  S_45
   14  A    between atoms: C_37  and  C_43
                            x       y       z     vdW  Elec       q    Type
                         _______ _______ _______ _____ _____    ______ ____

>  <TORSDO>
F 14

$$$$
=
 OpenBabel11042411133D

 54 60  0  0  1  0  0  0  0  0999 V2000
  181.8190  176.4270  135.7610 C   0  0  0  0  0  3  0  0  0  0  0  0
  184.9540  174.9460  136.7200 C   0  0  0  0  0  3  0  0  0  0  0  0
  182.8080  177.4600  140.9860 C   0  0  0  0  0  3  0  0  0  0  0  0
  181.8350  177.0170  140.2030 C   0  0  0  0  0  3  0  0  0  0  0  0
  184.5620  179.0830  141.6620 C   0  0  0  0  0  1  0  0  0  0  0  0
  180.6020  177.5480  138.2990 N   0  0  0  0  0  0  0  0  0  0  0  0
  186.0350  174.1930  136.0160 C   0  0  1  0  0  3  0  0  0  0  0  0
  180.2090  177.8240  136.9780 N   0  0  0  0  0  0  0  0  0  0  0  0
  186.7290  175.1360  134.5940 S   0  0  0  0  0  0  0  0  0  0  0  0
  180.0650  177.7900  134.6010 C   0  0  0  0  0  1  0  0  0  0  0  0
  187.3370  176.5950  135.5120 C   0  0  0  0  0  2  0  0  0  0  0  0
  184.7260  177.9570  139.4550 C   0  0  0  0  0  0  0  0  0  0  0  0
  186.2200  177.6060  135.7400 C   0  0  0  0  0  2  0  0  0  0  0  0
  182.9380  176.9130  137.9060 C   0  0  0  0  0  0  0  0  0  0  0  0
  183.8470  175.2960  136.0740 C   0  0  0  0  0  3  0  0  0  0  0  0
  181.7630  177.1900  138.7560 C   0  0  0  0  0  0  0  0  0  0  0  0
  180.7170  177.3820  135.8710 C   0  0  0  0  0  0  0  0  0  0  0  0
  186.9560  177.9050  138.1130 C   0  0  0  0  0  2  0  0  0  0  0  0
  182.7920  176.1720  136.6250 C   0  0  0  0  0  0  0  0  0  0  0  0
  184.1820  177.2370  138.2810 C   0  0  0  0  0  3  0  0  0  0  0  0
  186.5820  178.6210  136.8220 C   0  0  0  0  0  2  0  0  0  0  0  0
  184.0180  178.1930  140.5900 C   0  0  0  0  0  0  0  0  0  0  0  0
  186.1970  178.3970  139.3590 C   0  0  2  0  0  3  0  0  0  0  0  0
  186.9590  178.0080  140.5560 N   0  0  0  0  0  2  0  0  0  0  0  0
  188.2320  178.7270  140.6040 C   0  0  0  0  0  2  0  0  0  0  0  0
  189.3710  177.7630  140.8800 C   0  0  1  0  0  3  0  0  0  0  0  0
  190.1780  177.5420  139.6110 C   0  0  2  0  0  0  0  0  0  0  0  0
  191.5340  177.2990  139.8730 O   0  0  0  0  0  0  0  0  0  0  0  0
  190.0100  178.4450  138.4850 N   0  0  0  0  0  1  0  0  0  0  0  0
  190.7850  176.2300  139.3270 C   0  0  0  0  0  2  0  0  0  0  0  0
  190.1900  178.2760  141.8890 O   0  0  0  0  0  0  0  0  0  0  0  0
  189.6220  177.8130  143.0820 C   0  0  0  0  0  2  0  0  0  0  0  0
  191.6570  178.6930  144.2130 C   0  0  0  0  0  1  0  0  0  0  0  0
  190.6950  177.5230  144.1300 C   0  0  0  0  0  0  0  0  0  0  0  0
  190.0590  177.3080  145.4940 C   0  0  0  0  0  1  0  0  0  0  0  0
  191.4870  176.2820  143.7260 C   0  0  0  0  0  2  0  0  0  0  0  0
  192.0680  175.6660  144.8360 O   0  0  0  0  0  1  0  0  0  0  0  0
  187.1150  173.7090  136.9790 C   0  0  0  0  0  2  0  0  0  0  0  0
  188.2160  173.1950  136.2850 O   0  0  0  0  0  0  0  0  0  0  0  0
  189.3170  173.8530  136.8230 C   0  0  0  0  0  2  0  0  0  0  0  0
  190.2810  174.5950  135.4740 S   0  0  0  0  0  0  0  0  0  0  0  0
  191.5870  172.1550  135.4920 N   0  0  0  0  0  0  0  0  0  0  0  0
  192.5770  171.1100  135.4580 C   0  0  0  0  0  3  0  0  0  0  0  0
  194.5150  172.6050  135.5540 C   0  0  0  0  0  2  0  0  0  0  0  0
  192.7690  174.1160  136.3670 C   0  0  0  0  0  2  0  0  0  0  0  0
  193.8610  171.3090  135.4990 N   0  0  0  0  0  0  0  0  0  0  0  0
  191.6980  173.5550  135.7980 C   0  0  0  0  0  0  0  0  0  0  0  0
  194.0120  173.3790  136.7540 C   0  0  2  0  0  3  0  0  0  0  0  0
  196.0220  175.0840  136.3800 C   0  0  0  0  0  3  0  0  0  0  0  0
  195.8590  173.9360  138.5110 C   0  0  1  0  0  3  0  0  0  0  0  0
  197.3030  175.2650  137.0580 N   0  0  0  0  0  0  0  0  0  0  0  0
  195.1240  174.2900  137.2940 C   0  0  2  0  0  0  0  0  0  0  0  0
  197.2100  174.6120  138.3670 C   0  0  0  0  0  2  0  0  0  0  0  0
  194.8420  174.9200  138.5140 O   0  0  0  0  0  0  0  0  0  0  0  0
  1 17  2  0  0  0  0
  1 19  1  0  0  0  0
  4  3  1  0  0  0  0
  6 16  1  0  0  0  0
  7  2  1  0  0  0  0
  7 38  1  1  0  0  0
  8  6  2  0  0  0  0
  9 11  1  0  0  0  0
  9  7  1  0  0  0  0
 10 17  1  0  0  0  0
 11 13  1  0  0  0  0
 12 22  1  0  0  0  0
 13 21  1  0  0  0  0
 14 20  1  0  0  0  0
 14 16  1  0  0  0  0
 15 19  1  0  0  0  0
 15  2  2  0  0  0  0
 16  4  2  0  0  0  0
 17  8  1  0  0  0  0
 18 23  1  0  0  0  0
 19 14  2  0  0  0  0
 20 12  2  0  0  0  0
 21 18  1  0  0  0  0
 22  3  2  0  0  0  0
 22  5  1  0  0  0  0
 23 12  1  0  0  0  0
 23 24  1  1  0  0  0
 24 25  1  0  0  0  0
 26 25  1  6  0  0  0
 26 31  1  0  0  0  0
 27 29  1  6  0  0  0
 27 28  1  0  0  0  0
 27 26  1  0  0  0  0
 30 27  1  0  0  0  0
 30 28  1  0  0  0  0
 31 32  1  0  0  0  0
 32 34  1  0  0  0  0
 34 33  1  0  0  0  0
 34 35  1  0  0  0  0
 36 34  1  0  0  0  0
 36 37  1  0  0  0  0
 39 40  1  0  0  0  0
 39 38  1  0  0  0  0
 41 47  1  0  0  0  0
 41 40  1  0  0  0  0
 42 47  2  0  0  0  0
 43 42  1  0  0  0  0
 43 46  2  0  0  0  0
 45 48  1  0  0  0  0
 46 44  1  0  0  0  0
 47 45  1  0  0  0  0
 48 44  1  6  0  0  0
 48 52  1  0  0  0  0
 49 51  2  0  0  0  0
 50 53  1  6  0  0  0
 50 54  1  0  0  0  0
 51 53  1  0  0  0  0
 52 49  1  6  0  0  0
 52 50  1  0  0  0  0
 52 54  1  0  0  0  0
M  END
>  <MODEL>
4

>  <REMARK>
 VINA RESULT:      -6.0      3.373      4.702
  Name = 
  14 active torsions:
  status: ('A' for Active; 'I' for Inactive)
    1  A    between atoms: C_2  and  C_11
    2  A    between atoms: O_5  and  C_20
    3  A    between atoms: O_5  and  C_29
    4  A    between atoms: N_6  and  C_36
    5  A    between atoms: N_6  and  C_53
    6  A    between atoms: C_11  and  O_16
    7  A    between atoms: C_11  and  C_36
    8  A    between atoms: C_14  and  C_21
    9  A    between atoms: C_14  and  C_28
   10  A    between atoms: O_16  and  C_28
   11  A    between atoms: C_20  and  C_25
   12  A    between atoms: C_29  and  S_45
   13  A    between atoms: C_31  and  S_45
   14  A    between atoms: C_37  and  C_43
                            x       y       z     vdW  Elec       q    Type
                         _______ _______ _______ _____ _____    ______ ____

>  <TORSDO>
F 14

$$$$
=
 OpenBabel11042411133D

 54 60  0  0  1  0  0  0  0  0999 V2000
  191.2330  174.3480  136.4010 C   0  0  0  0  0  3  0  0  0  0  0  0
  189.1190  176.3950  138.4700 C   0  0  0  0  0  3  0  0  0  0  0  0
  186.2530  172.2250  136.5910 C   0  0  0  0  0  3  0  0  0  0  0  0
  187.5200  171.8620  136.7260 C   0  0  0  0  0  3  0  0  0  0  0  0
  184.3560  173.2980  135.4000 C   0  0  0  0  0  1  0  0  0  0  0  0
  189.5880  171.9160  135.6540 N   0  0  0  0  0  0  0  0  0  0  0  0
  189.2790  177.6820  139.2100 C   0  0  1  0  0  3  0  0  0  0  0  0
  190.7930  172.3370  135.0650 N   0  0  0  0  0  0  0  0  0  0  0  0
  189.8070  179.0600  138.1070 S   0  0  0  0  0  0  0  0  0  0  0  0
  192.7850  173.5560  134.5980 C   0  0  0  0  0  1  0  0  0  0  0  0
  188.3810  179.0490  136.9630 C   0  0  0  0  0  2  0  0  0  0  0  0
  186.3110  174.6740  136.0710 C   0  0  0  0  0  0  0  0  0  0  0  0
  188.5600  178.0000  135.8720 C   0  0  0  0  0  2  0  0  0  0  0  0
  188.7850  174.0670  136.5190 C   0  0  0  0  0  0  0  0  0  0  0  0
  190.1550  175.8450  137.8450 C   0  0  0  0  0  3  0  0  0  0  0  0
  188.6760  172.6180  136.2570 C   0  0  0  0  0  0  0  0  0  0  0  0
  191.5120  173.3780  135.3420 C   0  0  0  0  0  0  0  0  0  0  0  0
  186.1830  177.2720  136.1640 C   0  0  0  0  0  2  0  0  0  0  0  0
  190.0730  174.6650  136.9580 C   0  0  0  0  0  0  0  0  0  0  0  0
  187.7260  174.8840  136.4550 C   0  0  0  0  0  3  0  0  0  0  0  0
  187.2460  177.6930  135.1570 C   0  0  0  0  0  2  0  0  0  0  0  0
  185.7300  173.4510  135.9710 C   0  0  0  0  0  0  0  0  0  0  0  0
  185.4780  175.9440  135.8320 C   0  0  2  0  0  3  0  0  0  0  0  0
  184.1990  175.8990  136.5570 N   0  0  0  0  0  2  0  0  0  0  0  0
  183.9220  177.1930  137.1800 C   0  0  0  0  0  2  0  0  0  0  0  0
  182.7830  177.0650  138.1750 C   0  0  1  0  0  3  0  0  0  0  0  0
  182.4730  178.4250  138.7790 C   0  0  2  0  0  0  0  0  0  0  0  0
  181.4540  179.0990  138.0900 O   0  0  0  0  0  0  0  0  0  0  0  0
  183.5600  179.3230  139.1270 N   0  0  0  0  0  1  0  0  0  0  0  0
  181.1680  178.6840  139.4120 C   0  0  0  0  0  2  0  0  0  0  0  0
  181.6520  176.5530  137.5360 O   0  0  0  0  0  0  0  0  0  0  0  0
  181.4970  175.2630  138.0600 C   0  0  0  0  0  2  0  0  0  0  0  0
  179.5500  173.8380  138.6710 C   0  0  0  0  0  1  0  0  0  0  0  0
  180.2170  174.6070  137.5450 C   0  0  0  0  0  0  0  0  0  0  0  0
  179.2530  175.6630  137.0280 C   0  0  0  0  0  1  0  0  0  0  0  0
  180.5560  173.6230  136.4290 C   0  0  0  0  0  2  0  0  0  0  0  0
  180.0470  172.3530  136.7000 O   0  0  0  0  0  1  0  0  0  0  0  0
  188.0370  178.0310  140.0260 C   0  0  0  0  0  2  0  0  0  0  0  0
  188.3840  178.5110  141.2930 O   0  0  0  0  0  0  0  0  0  0  0  0
  188.4030  177.3840  142.1100 C   0  0  0  0  0  2  0  0  0  0  0  0
  189.4520  177.7170  143.5530 S   0  0  0  0  0  0  0  0  0  0  0  0
  188.2460  177.3980  146.0240 N   0  0  0  0  0  2  0  0  0  0  0  0
  187.3990  177.5220  147.1820 C   0  0  0  0  0  3  0  0  0  0  0  0
  185.8270  179.1020  146.1670 C   0  0  0  0  0  2  0  0  0  0  0  0
  186.8770  178.1910  144.1530 C   0  0  0  0  0  3  0  0  0  0  0  0
  186.3310  178.2600  147.2390 N   0  0  0  0  0  0  0  0  0  0  0  0
  188.0520  177.8070  144.6600 C   0  0  0  0  0  0  0  0  0  0  0  0
  185.5980  178.2660  144.9270 C   0  0  2  0  0  3  0  0  0  0  0  0
  183.1150  179.2140  144.7660 C   0  0  0  0  0  3  0  0  0  0  0  0
  184.1790  178.4030  142.7420 C   0  0  1  0  0  3  0  0  0  0  0  0
  182.0610  179.0570  143.7670 N   0  0  0  0  0  0  0  0  0  0  0  0
  184.4240  178.8380  144.1190 C   0  0  2  0  0  0  0  0  0  0  0  0
  182.6910  178.6060  142.5230 C   0  0  0  0  0  2  0  0  0  0  0  0
  184.7830  179.6490  143.0330 O   0  0  0  0  0  0  0  0  0  0  0  0
  1 19  1  0  0  0  0
  2  7  1  0  0  0  0
  3  4  1  0  0  0  0
  5 22  1  0  0  0  0
  6 16  1  0  0  0  0
  7 38  1  6  0  0  0
  8 17  1  0  0  0  0
  8  6  2  0  0  0  0
  9  7  1  0  0  0  0
 10 17  1  0  0  0  0
 11  9  1  0  0  0  0
 12 20  2  0  0  0  0
 13 11  1  0  0  0  0
 14 19  2  0  0  0  0
 15  2  2  0  0  0  0
 16 14  1  0  0  0  0
 16  4  2  0  0  0  0
 17  1  2  0  0  0  0
 19 15  1  0  0  0  0
 20 14  1  0  0  0  0
 21 13  1  0  0  0  0
 21 18  1  0  0  0  0
 22 12  1  0  0  0  0
 22  3  2  0  0  0  0
 23 12  1  0  0  0  0
 23 18  1  0  0  0  0
 23 24  1  1  0  0  0
 24 25  1  0  0  0  0
 26 25  1  6  0  0  0
 26 27  1  0  0  0  0
 27 29  1  1  0  0  0
 27 30  1  0  0  0  0
 28 27  1  0  0  0  0
 28 30  1  0  0  0  0
 31 32  1  0  0  0  0
 31 26  1  0  0  0  0
 34 32  1  0  0  0  0
 34 33  1  0  0  0  0
 35 34  1  0  0  0  0
 36 37  1  0  0  0  0
 36 34  1  0  0  0  0
 38 39  1  0  0  0  0
 39 40  1  0  0  0  0
 40 41  1  0  0  0  0
 41 47  1  0  0  0  0
 42 43  1  0  0  0  0
 43 46  2  0  0  0  0
 44 46  1  0  0  0  0
 45 47  2  0  0  0  0
 47 42  1  0  0  0  0
 48 45  1  6  0  0  0
 48 44  1  0  0  0  0
 50 53  1  1  0  0  0
 50 54  1  0  0  0  0
 50 52  1  0  0  0  0
 51 49  2  0  0  0  0
 52 49  1  1  0  0  0
 52 48  1  0  0  0  0
 53 51  1  0  0  0  0
 54 52  1  0  0  0  0
M  END
>  <MODEL>
5

>  <REMARK>
 VINA RESULT:      -5.8      2.907     10.445
  Name = 
  14 active torsions:
  status: ('A' for Active; 'I' for Inactive)
    1  A    between atoms: C_2  and  C_11
    2  A    between atoms: O_5  and  C_20
    3  A    between atoms: O_5  and  C_29
    4  A    between atoms: N_6  and  C_36
    5  A    between atoms: N_6  and  C_53
    6  A    between atoms: C_11  and  O_16
    7  A    between atoms: C_11  and  C_36
    8  A    between atoms: C_14  and  C_21
    9  A    between atoms: C_14  and  C_28
   10  A    between atoms: O_16  and  C_28
   11  A    between atoms: C_20  and  C_25
   12  A    between atoms: C_29  and  S_45
   13  A    between atoms: C_31  and  S_45
   14  A    between atoms: C_37  and  C_43
                            x       y       z     vdW  Elec       q    Type
                         _______ _______ _______ _____ _____    ______ ____

>  <TORSDO>
F 14

$$$$
=
 OpenBabel11042411133D

 54 60  0  0  1  0  0  0  0  0999 V2000
  180.8570  182.2660  138.6770 C   0  0  0  0  0  3  0  0  0  0  0  0
  183.3880  179.7140  138.8180 C   0  0  0  0  0  3  0  0  0  0  0  0
  180.1600  178.7710  134.5970 C   0  0  0  0  0  3  0  0  0  0  0  0
  180.2210  180.0760  134.8200 C   0  0  0  0  0  3  0  0  0  0  0  0
  179.3020  176.4770  135.0080 C   0  0  0  0  0  1  0  0  0  0  0  0
  179.3050  181.7780  136.1210 N   0  0  0  0  0  0  0  0  0  0  0  0
  184.5080  179.3760  139.7470 C   0  0  1  0  0  3  0  0  0  0  0  0
  178.9310  182.6050  137.1940 N   0  0  0  0  0  0  0  0  0  0  0  0
  183.9260  179.1230  141.4770 S   0  0  0  0  0  0  0  0  0  0  0  0
  178.9580  183.7970  139.2560 C   0  0  0  0  0  1  0  0  0  0  0  0
  182.7850  177.7280  141.1740 C   0  0  0  0  0  2  0  0  0  0  0  0
  180.4550  177.6950  136.8390 C   0  0  0  0  0  0  0  0  0  0  0  0
  181.4230  178.2250  140.7040 C   0  0  0  0  0  2  0  0  0  0  0  0
  180.7820  180.2170  137.3040 C   0  0  0  0  0  0  0  0  0  0  0  0
  182.6620  180.8090  139.0110 C   0  0  0  0  0  3  0  0  0  0  0  0
  180.0650  180.7250  136.1170 C   0  0  0  0  0  0  0  0  0  0  0  0
  179.5550  182.8210  138.3080 C   0  0  0  0  0  0  0  0  0  0  0  0
  181.3720  176.4550  138.9360 C   0  0  0  0  0  2  0  0  0  0  0  0
  181.4400  181.1540  138.2530 C   0  0  0  0  0  0  0  0  0  0  0  0
  180.9420  178.9080  137.5350 C   0  0  0  0  0  3  0  0  0  0  0  0
  180.5960  177.1080  140.0730 C   0  0  0  0  0  2  0  0  0  0  0  0
  179.9460  177.7000  135.5800 C   0  0  0  0  0  0  0  0  0  0  0  0
  180.6040  176.3690  137.6050 C   0  0  2  0  0  3  0  0  0  0  0  0
  181.2250  175.3280  136.7710 N   0  0  0  0  0  2  0  0  0  0  0  0
  182.6740  175.3170  136.9690 C   0  0  0  0  0  2  0  0  0  0  0  0
  183.2110  173.9020  136.8530 C   0  0  1  0  0  3  0  0  0  0  0  0
  182.1870  173.0180  136.1590 C   0  0  2  0  0  0  0  0  0  0  0  0
  182.5020  171.6550  136.2540 O   0  0  0  0  0  0  0  0  0  0  0  0
  181.7250  173.3630  134.8260 N   0  0  0  0  0  1  0  0  0  0  0  0
  181.3440  172.0950  136.9370 C   0  0  0  0  0  2  0  0  0  0  0  0
  184.4090  173.9080  136.1330 O   0  0  0  0  0  0  0  0  0  0  0  0
  185.3230  173.2380  136.9540 C   0  0  0  0  0  2  0  0  0  0  0  0
  187.5160  172.0650  136.8510 C   0  0  0  0  0  1  0  0  0  0  0  0
  186.7270  173.2620  136.3530 C   0  0  0  0  0  0  0  0  0  0  0  0
  186.6530  173.2080  134.8350 C   0  0  0  0  0  1  0  0  0  0  0  0
  187.4540  174.5300  136.7920 C   0  0  0  0  0  2  0  0  0  0  0  0
  188.8350  174.4030  136.6360 O   0  0  0  0  0  1  0  0  0  0  0  0
  185.3430  178.2060  139.2340 C   0  0  0  0  0  2  0  0  0  0  0  0
  186.1670  178.6010  138.1760 O   0  0  0  0  0  0  0  0  0  0  0  0
  187.2800  177.7700  138.2590 C   0  0  0  0  0  2  0  0  0  0  0  0
  188.6650  178.5430  137.3750 S   0  0  0  0  0  0  0  0  0  0  0  0
  190.9690  177.0330  137.6480 N   0  0  0  0  0  0  0  0  0  0  0  0
  192.1830  176.4280  138.1290 C   0  0  0  0  0  3  0  0  0  0  0  0
  192.0200  177.3270  140.4020 C   0  0  0  0  0  2  0  0  0  0  0  0
  189.7010  177.6000  139.6680 C   0  0  0  0  0  2  0  0  0  0  0  0
  192.6350  176.5470  139.3420 N   0  0  0  0  0  0  0  0  0  0  0  0
  189.8860  177.6710  138.3460 C   0  0  0  0  0  0  0  0  0  0  0  0
  190.5950  176.8630  140.6140 C   0  0  2  0  0  3  0  0  0  0  0  0
  190.4330  178.3250  142.8340 C   0  0  0  0  0  3  0  0  0  0  0  0
  190.2920  175.9100  143.0240 C   0  0  1  0  0  3  0  0  0  0  0  0
  190.6160  178.0000  144.2460 N   0  0  0  0  0  0  0  0  0  0  0  0
  190.2030  177.0350  142.0890 C   0  0  2  0  0  0  0  0  0  0  0  0
  190.4930  176.5460  144.3870 C   0  0  0  0  0  2  0  0  0  0  0  0
  189.0540  176.3370  142.4870 O   0  0  0  0  0  0  0  0  0  0  0  0
  2 15  2  0  0  0  0
  2  7  1  0  0  0  0
  3  4  2  0  0  0  0
  3 22  1  0  0  0  0
  4 16  1  0  0  0  0
  5 22  1  0  0  0  0
  6  8  1  0  0  0  0
  7 38  1  6  0  0  0
  7  9  1  0  0  0  0
  8 17  2  0  0  0  0
 11  9  1  0  0  0  0
 12 20  1  0  0  0  0
 12 23  1  0  0  0  0
 13 11  1  0  0  0  0
 14 20  2  0  0  0  0
 14 19  1  0  0  0  0
 16  6  2  0  0  0  0
 16 14  1  0  0  0  0
 17  1  1  0  0  0  0
 17 10  1  0  0  0  0
 18 21  1  0  0  0  0
 19  1  2  0  0  0  0
 19 15  1  0  0  0  0
 21 13  1  0  0  0  0
 22 12  2  0  0  0  0
 23 24  1  6  0  0  0
 23 18  1  0  0  0  0
 24 25  1  0  0  0  0
 26 25  1  6  0  0  0
 27 29  1  6  0  0  0
 27 28  1  0  0  0  0
 27 26  1  0  0  0  0
 27 30  1  0  0  0  0
 28 30  1  0  0  0  0
 31 26  1  0  0  0  0
 31 32  1  0  0  0  0
 34 36  1  0  0  0  0
 34 33  1  0  0  0  0
 34 32  1  0  0  0  0
 35 34  1  0  0  0  0
 37 36  1  0  0  0  0
 39 40  1  0  0  0  0
 39 38  1  0  0  0  0
 41 40  1  0  0  0  0
 41 47  1  0  0  0  0
 42 43  1  0  0  0  0
 42 47  2  0  0  0  0
 43 46  2  0  0  0  0
 44 48  1  0  0  0  0
 46 44  1  0  0  0  0
 47 45  1  0  0  0  0
 48 45  1  6  0  0  0
 48 52  1  0  0  0  0
 49 51  2  0  0  0  0
 50 53  1  1  0  0  0
 51 53  1  0  0  0  0
 52 54  1  0  0  0  0
 52 49  1  1  0  0  0
 52 50  1  0  0  0  0
 54 50  1  0  0  0  0
M  END
>  <MODEL>
6

>  <REMARK>
 VINA RESULT:      -5.8      2.970      7.510
  Name = 
  14 active torsions:
  status: ('A' for Active; 'I' for Inactive)
    1  A    between atoms: C_2  and  C_11
    2  A    between atoms: O_5  and  C_20
    3  A    between atoms: O_5  and  C_29
    4  A    between atoms: N_6  and  C_36
    5  A    between atoms: N_6  and  C_53
    6  A    between atoms: C_11  and  O_16
    7  A    between atoms: C_11  and  C_36
    8  A    between atoms: C_14  and  C_21
    9  A    between atoms: C_14  and  C_28
   10  A    between atoms: O_16  and  C_28
   11  A    between atoms: C_20  and  C_25
   12  A    between atoms: C_29  and  S_45
   13  A    between atoms: C_31  and  S_45
   14  A    between atoms: C_37  and  C_43
                            x       y       z     vdW  Elec       q    Type
                         _______ _______ _______ _____ _____    ______ ____

>  <TORSDO>
F 14

$$$$
=
 OpenBabel11042411133D

 54 60  0  0  1  0  0  0  0  0999 V2000
  190.7290  174.5610  136.5360 C   0  0  0  0  0  3  0  0  0  0  0  0
  188.8460  176.7310  138.7000 C   0  0  0  0  0  3  0  0  0  0  0  0
  185.6990  172.6380  137.1270 C   0  0  0  0  0  3  0  0  0  0  0  0
  186.9580  172.2280  137.1810 C   0  0  0  0  0  3  0  0  0  0  0  0
  183.7640  173.7600  136.0480 C   0  0  0  0  0  1  0  0  0  0  0  0
  188.9440  172.1800  135.9650 N   0  0  0  0  0  0  0  0  0  0  0  0
  189.1060  178.0270  139.3970 C   0  0  1  0  0  3  0  0  0  0  0  0
  190.1200  172.5400  135.2830 N   0  0  0  0  0  0  0  0  0  0  0  0
  189.6060  179.3590  138.2270 S   0  0  0  0  0  0  0  0  0  0  0  0
  192.1180  173.6710  134.6480 C   0  0  0  0  0  1  0  0  0  0  0  0
  188.1030  179.3800  137.1870 C   0  0  0  0  0  2  0  0  0  0  0  0
  185.8120  175.0710  136.5470 C   0  0  0  0  0  0  0  0  0  0  0  0
  188.1630  178.3020  136.1110 C   0  0  0  0  0  2  0  0  0  0  0  0
  188.2860  174.3770  136.8330 C   0  0  0  0  0  0  0  0  0  0  0  0
  189.8130  176.1280  138.0170 C   0  0  0  0  0  3  0  0  0  0  0  0
  188.1050  172.9290  136.6140 C   0  0  0  0  0  0  0  0  0  0  0  0
  190.8950  173.5590  135.4830 C   0  0  0  0  0  0  0  0  0  0  0  0
  185.7880  177.6740  136.5870 C   0  0  0  0  0  2  0  0  0  0  0  0
  189.6240  174.9340  137.1660 C   0  0  0  0  0  0  0  0  0  0  0  0
  187.2580  175.2340  136.8250 C   0  0  0  0  0  3  0  0  0  0  0  0
  186.7920  178.0320  135.4980 C   0  0  0  0  0  2  0  0  0  0  0  0
  185.1800  173.8700  136.5170 C   0  0  0  0  0  0  0  0  0  0  0  0
  185.0120  176.3680  136.3370 C   0  0  2  0  0  3  0  0  0  0  0  0
  183.7870  176.3880  137.1510 N   0  0  0  0  0  2  0  0  0  0  0  0
  183.3650  177.7660  137.4010 C   0  0  0  0  0  2  0  0  0  0  0  0
  182.5270  177.8390  138.6650 C   0  0  1  0  0  3  0  0  0  0  0  0
  183.2760  178.6180  139.7340 C   0  0  2  0  0  0  0  0  0  0  0  0
  182.4280  179.0920  140.7460 O   0  0  0  0  0  0  0  0  0  0  0  0
  184.2480  179.6240  139.3440 N   0  0  0  0  0  1  0  0  0  0  0  0
  183.3690  178.1010  141.1110 C   0  0  0  0  0  2  0  0  0  0  0  0
  181.3050  178.4560  138.3860 O   0  0  0  0  0  0  0  0  0  0  0  0
  181.5910  179.3730  137.3670 C   0  0  0  0  0  2  0  0  0  0  0  0
  180.7450  179.6620  135.0440 C   0  0  0  0  0  1  0  0  0  0  0  0
  180.3570  179.6500  136.5100 C   0  0  0  0  0  0  0  0  0  0  0  0
  179.3050  178.5750  136.7340 C   0  0  0  0  0  1  0  0  0  0  0  0
  179.7820  181.0190  136.8640 C   0  0  0  0  0  2  0  0  0  0  0  0
  179.7140  181.8460  135.7420 O   0  0  0  0  0  1  0  0  0  0  0  0
  187.9390  178.4400  140.2890 C   0  0  0  0  0  2  0  0  0  0  0  0
  187.8560  177.6220  141.4210 O   0  0  0  0  0  0  0  0  0  0  0  0
  188.7210  178.1990  142.3450 C   0  0  0  0  0  2  0  0  0  0  0  0
  189.7100  176.8930  143.1260 S   0  0  0  0  0  0  0  0  0  0  0  0
  189.5770  176.6070  145.8770 N   0  0  0  0  0  2  0  0  0  0  0  0
  189.3000  176.7800  147.2780 C   0  0  0  0  0  3  0  0  0  0  0  0
  187.6940  178.6060  146.9850 C   0  0  0  0  0  2  0  0  0  0  0  0
  187.6950  177.6720  144.7230 C   0  0  0  0  0  3  0  0  0  0  0  0
  188.4630  177.6500  147.7620 N   0  0  0  0  0  0  0  0  0  0  0  0
  188.9070  177.1100  144.7080 C   0  0  0  0  0  0  0  0  0  0  0  0
  186.8650  177.8750  145.9520 C   0  0  2  0  0  3  0  0  0  0  0  0
  184.2450  178.2060  146.2910 C   0  0  0  0  0  3  0  0  0  0  0  0
  185.3150  179.2880  144.4010 C   0  0  1  0  0  3  0  0  0  0  0  0
  183.1790  178.6350  145.3890 N   0  0  0  0  0  0  0  0  0  0  0  0
  185.5590  178.6390  145.6910 C   0  0  2  0  0  0  0  0  0  0  0  0
  183.8040  179.3280  144.2590 C   0  0  0  0  0  2  0  0  0  0  0  0
  185.6960  180.0270  145.5460 O   0  0  0  0  0  0  0  0  0  0  0  0
  1 19  1  0  0  0  0
  2  7  1  0  0  0  0
  3  4  1  0  0  0  0
  5 22  1  0  0  0  0
  6 16  1  0  0  0  0
  7 38  1  6  0  0  0
  8 17  1  0  0  0  0
  8  6  2  0  0  0  0
  9  7  1  0  0  0  0
 10 17  1  0  0  0  0
 11  9  1  0  0  0  0
 12 20  2  0  0  0  0
 13 11  1  0  0  0  0
 14 19  2  0  0  0  0
 15  2  2  0  0  0  0
 16 14  1  0  0  0  0
 16  4  2  0  0  0  0
 17  1  2  0  0  0  0
 19 15  1  0  0  0  0
 20 14  1  0  0  0  0
 21 13  1  0  0  0  0
 21 18  1  0  0  0  0
 22 12  1  0  0  0  0
 22  3  2  0  0  0  0
 23 12  1  0  0  0  0
 23 18  1  0  0  0  0
 23 24  1  1  0  0  0
 24 25  1  0  0  0  0
 26 25  1  6  0  0  0
 26 27  1  0  0  0  0
 27 29  1  6  0  0  0
 27 28  1  0  0  0  0
 27 30  1  0  0  0  0
 28 30  1  0  0  0  0
 31 26  1  0  0  0  0
 32 31  1  0  0  0  0
 33 34  1  0  0  0  0
 34 35  1  0  0  0  0
 34 36  1  0  0  0  0
 34 32  1  0  0  0  0
 37 36  1  0  0  0  0
 38 39  1  0  0  0  0
 39 40  1  0  0  0  0
 40 41  1  0  0  0  0
 41 47  1  0  0  0  0
 42 43  1  0  0  0  0
 43 46  2  0  0  0  0
 44 46  1  0  0  0  0
 47 45  2  0  0  0  0
 47 42  1  0  0  0  0
 48 45  1  6  0  0  0
 48 44  1  0  0  0  0
 50 53  1  1  0  0  0
 50 54  1  0  0  0  0
 50 52  1  0  0  0  0
 51 49  2  0  0  0  0
 52 48  1  0  0  0  0
 52 49  1  1  0  0  0
 53 51  1  0  0  0  0
 54 52  1  0  0  0  0
M  END
>  <MODEL>
7

>  <REMARK>
 VINA RESULT:      -5.6      3.171     10.287
  Name = 
  14 active torsions:
  status: ('A' for Active; 'I' for Inactive)
    1  A    between atoms: C_2  and  C_11
    2  A    between atoms: O_5  and  C_20
    3  A    between atoms: O_5  and  C_29
    4  A    between atoms: N_6  and  C_36
    5  A    between atoms: N_6  and  C_53
    6  A    between atoms: C_11  and  O_16
    7  A    between atoms: C_11  and  C_36
    8  A    between atoms: C_14  and  C_21
    9  A    between atoms: C_14  and  C_28
   10  A    between atoms: O_16  and  C_28
   11  A    between atoms: C_20  and  C_25
   12  A    between atoms: C_29  and  S_45
   13  A    between atoms: C_31  and  S_45
   14  A    between atoms: C_37  and  C_43
                            x       y       z     vdW  Elec       q    Type
                         _______ _______ _______ _____ _____    ______ ____

>  <TORSDO>
F 14

$$$$
=
 OpenBabel11042411133D

 54 60  0  0  1  0  0  0  0  0999 V2000
  191.0830  174.4780  136.2920 C   0  0  0  0  0  3  0  0  0  0  0  0
  188.6260  176.2430  138.2380 C   0  0  0  0  0  3  0  0  0  0  0  0
  186.3520  171.8480  136.0840 C   0  0  0  0  0  3  0  0  0  0  0  0
  187.6380  171.6140  136.3040 C   0  0  0  0  0  3  0  0  0  0  0  0
  184.4410  172.7490  134.7780 C   0  0  0  0  0  1  0  0  0  0  0  0
  189.7580  171.9080  135.3860 N   0  0  0  0  0  0  0  0  0  0  0  0
  188.5970  177.5210  139.0100 C   0  0  1  0  0  3  0  0  0  0  0  0
  190.9520  172.4660  134.8940 N   0  0  0  0  0  0  0  0  0  0  0  0
  189.0550  178.9730  137.9720 S   0  0  0  0  0  0  0  0  0  0  0  0
  192.8320  173.8960  134.5940 C   0  0  0  0  0  1  0  0  0  0  0  0
  187.7220  178.8430  136.7280 C   0  0  0  0  0  2  0  0  0  0  0  0
  186.1900  174.3010  135.6120 C   0  0  0  0  0  0  0  0  0  0  0  0
  188.0850  177.8460  135.6350 C   0  0  0  0  0  2  0  0  0  0  0  0
  188.6750  173.9420  136.2270 C   0  0  0  0  0  0  0  0  0  0  0  0
  189.7550  175.8190  137.6810 C   0  0  0  0  0  3  0  0  0  0  0  0
  188.7380  172.4970  135.9330 C   0  0  0  0  0  0  0  0  0  0  0  0
  191.5360  173.5690  135.2390 C   0  0  0  0  0  0  0  0  0  0  0  0
  185.7840  176.8690  135.7410 C   0  0  0  0  0  2  0  0  0  0  0  0
  189.8600  174.6590  136.7690 C   0  0  0  0  0  0  0  0  0  0  0  0
  187.5440  174.6470  136.1010 C   0  0  0  0  0  3  0  0  0  0  0  0
  186.8650  177.4230  134.8220 C   0  0  0  0  0  2  0  0  0  0  0  0
  185.7480  173.0280  135.4500 C   0  0  0  0  0  0  0  0  0  0  0  0
  185.2470  175.4850  135.3360 C   0  0  2  0  0  3  0  0  0  0  0  0
  183.9320  175.2890  135.9660 N   0  0  0  0  0  2  0  0  0  0  0  0
  182.8850  175.9230  135.1640 C   0  0  0  0  0  2  0  0  0  0  0  0
  181.7920  176.4700  136.0630 C   0  0  1  0  0  3  0  0  0  0  0  0
  180.7360  175.4020  136.2980 C   0  0  2  0  0  0  0  0  0  0  0  0
  181.2940  174.1440  136.5640 O   0  0  0  0  0  0  0  0  0  0  0  0
  179.6040  175.2990  135.3930 N   0  0  0  0  0  1  0  0  0  0  0  0
  180.5900  174.7690  137.6200 C   0  0  0  0  0  2  0  0  0  0  0  0
  182.3420  176.8790  137.2810 O   0  0  0  0  0  0  0  0  0  0  0  0
  182.3020  178.2780  137.2400 C   0  0  0  0  0  2  0  0  0  0  0  0
  183.8960  178.8000  139.0800 C   0  0  0  0  0  1  0  0  0  0  0  0
  182.4460  178.8760  138.6390 C   0  0  0  0  0  0  0  0  0  0  0  0
  182.0050  180.3310  138.6390 C   0  0  0  0  0  1  0  0  0  0  0  0
  181.6020  178.0790  139.6290 C   0  0  0  0  0  2  0  0  0  0  0  0
  181.9320  178.3950  140.9480 O   0  0  0  0  0  1  0  0  0  0  0  0
  187.2710  177.7190  139.7400 C   0  0  0  0  0  2  0  0  0  0  0  0
  187.1470  179.0300  140.2110 O   0  0  0  0  0  0  0  0  0  0  0  0
  187.6830  179.0020  141.4950 C   0  0  0  0  0  2  0  0  0  0  0  0
  186.7310  177.8340  142.5080 S   0  0  0  0  0  0  0  0  0  0  0  0
  189.1970  176.5760  142.4890 N   0  0  0  0  0  0  0  0  0  0  0  0
  190.5380  176.1450  142.7890 C   0  0  0  0  0  3  0  0  0  0  0  0
  190.6950  177.3080  144.9380 C   0  0  0  0  0  2  0  0  0  0  0  0
  188.2650  177.2830  144.6440 C   0  0  0  0  0  2  0  0  0  0  0  0
  191.1880  176.4560  143.8700 N   0  0  0  0  0  0  0  0  0  0  0  0
  188.1970  177.2010  143.3120 C   0  0  0  0  0  0  0  0  0  0  0  0
  189.3930  176.7520  145.4730 C   0  0  2  0  0  3  0  0  0  0  0  0
  188.0040  176.7720  147.7440 C   0  0  0  0  0  3  0  0  0  0  0  0
  189.9130  178.2540  147.5410 C   0  0  1  0  0  3  0  0  0  0  0  0
  187.9060  177.7390  148.8350 N   0  0  0  0  0  0  0  0  0  0  0  0
  189.2600  177.0750  146.9680 C   0  0  2  0  0  0  0  0  0  0  0  0
  189.0750  178.6200  148.7530 C   0  0  0  0  0  2  0  0  0  0  0  0
  190.4410  176.9520  147.7140 O   0  0  0  0  0  0  0  0  0  0  0  0
  1 19  1  0  0  0  0
  2  7  1  0  0  0  0
  3  4  1  0  0  0  0
  5 22  1  0  0  0  0
  6 16  1  0  0  0  0
  7 38  1  6  0  0  0
  8 17  1  0  0  0  0
  8  6  2  0  0  0  0
  9  7  1  0  0  0  0
 10 17  1  0  0  0  0
 11  9  1  0  0  0  0
 12 20  2  0  0  0  0
 13 11  1  0  0  0  0
 14 19  2  0  0  0  0
 15  2  2  0  0  0  0
 16 14  1  0  0  0  0
 16  4  2  0  0  0  0
 17  1  2  0  0  0  0
 19 15  1  0  0  0  0
 20 14  1  0  0  0  0
 21 13  1  0  0  0  0
 21 18  1  0  0  0  0
 22 12  1  0  0  0  0
 22  3  2  0  0  0  0
 23 12  1  0  0  0  0
 23 18  1  0  0  0  0
 23 24  1  1  0  0  0
 25 24  1  0  0  0  0
 26 25  1  6  0  0  0
 26 27  1  0  0  0  0
 26 31  1  0  0  0  0
 27 29  1  6  0  0  0
 27 28  1  0  0  0  0
 27 30  1  0  0  0  0
 28 30  1  0  0  0  0
 32 31  1  0  0  0  0
 32 34  1  0  0  0  0
 34 35  1  0  0  0  0
 34 33  1  0  0  0  0
 34 36  1  0  0  0  0
 36 37  1  0  0  0  0
 38 39  1  0  0  0  0
 39 40  1  0  0  0  0
 40 41  1  0  0  0  0
 41 47  1  0  0  0  0
 42 43  1  0  0  0  0
 42 47  2  0  0  0  0
 43 46  2  0  0  0  0
 44 48  1  0  0  0  0
 46 44  1  0  0  0  0
 47 45  1  0  0  0  0
 48 45  1  6  0  0  0
 48 52  1  0  0  0  0
 49 51  2  0  0  0  0
 50 54  1  0  0  0  0
 50 53  1  1  0  0  0
 52 50  1  0  0  0  0
 52 54  1  0  0  0  0
 52 49  1  1  0  0  0
 53 51  1  0  0  0  0
M  END
>  <MODEL>
8

>  <REMARK>
 VINA RESULT:      -5.4      3.304     10.182
  Name = 
  14 active torsions:
  status: ('A' for Active; 'I' for Inactive)
    1  A    between atoms: C_2  and  C_11
    2  A    between atoms: O_5  and  C_20
    3  A    between atoms: O_5  and  C_29
    4  A    between atoms: N_6  and  C_36
    5  A    between atoms: N_6  and  C_53
    6  A    between atoms: C_11  and  O_16
    7  A    between atoms: C_11  and  C_36
    8  A    between atoms: C_14  and  C_21
    9  A    between atoms: C_14  and  C_28
   10  A    between atoms: O_16  and  C_28
   11  A    between atoms: C_20  and  C_25
   12  A    between atoms: C_29  and  S_45
   13  A    between atoms: C_31  and  S_45
   14  A    between atoms: C_37  and  C_43
                            x       y       z     vdW  Elec       q    Type
                         _______ _______ _______ _____ _____    ______ ____

>  <TORSDO>
F 14

$$$$
=
 OpenBabel11042411133D

 54 60  0  0  1  0  0  0  0  0999 V2000
  181.9760  173.5350  136.0000 C   0  0  0  0  0  3  0  0  0  0  0  0
  185.3570  174.0720  137.1060 C   0  0  0  0  0  3  0  0  0  0  0  0
  182.0010  176.9160  140.2330 C   0  0  0  0  0  3  0  0  0  0  0  0
  181.3830  175.8230  139.8060 C   0  0  0  0  0  3  0  0  0  0  0  0
  182.8120  179.2520  140.0020 C   0  0  0  0  0  1  0  0  0  0  0  0
  180.1960  174.9510  138.0020 N   0  0  0  0  0  0  0  0  0  0  0  0
  186.7090  173.6400  136.6420 C   0  0  1  0  0  3  0  0  0  0  0  0
  179.8280  174.4680  136.7340 N   0  0  0  0  0  0  0  0  0  0  0  0
  187.0330  174.1220  134.8930 S   0  0  0  0  0  0  0  0  0  0  0  0
  179.9000  173.4130  134.6000 C   0  0  0  0  0  1  0  0  0  0  0  0
  186.8690  175.9330  135.0790 C   0  0  0  0  0  2  0  0  0  0  0  0
  183.6240  177.5160  138.4240 C   0  0  0  0  0  0  0  0  0  0  0  0
  185.4090  176.3630  135.0110 C   0  0  0  0  0  2  0  0  0  0  0  0
  182.5980  175.2790  137.6320 C   0  0  0  0  0  0  0  0  0  0  0  0
  184.2630  173.6170  136.5040 C   0  0  0  0  0  3  0  0  0  0  0  0
  181.3580  175.3440  138.4290 C   0  0  0  0  0  0  0  0  0  0  0  0
  180.5620  173.8790  135.8450 C   0  0  0  0  0  0  0  0  0  0  0  0
  185.7520  177.8840  136.9690 C   0  0  0  0  0  2  0  0  0  0  0  0
  182.8910  174.0970  136.7770 C   0  0  0  0  0  0  0  0  0  0  0  0
  183.5430  176.2250  137.7020 C   0  0  0  0  0  3  0  0  0  0  0  0
  185.2060  177.7770  135.5510 C   0  0  0  0  0  2  0  0  0  0  0  0
  182.7980  177.8650  139.4430 C   0  0  0  0  0  0  0  0  0  0  0  0
  184.7590  178.4620  137.9940 C   0  0  2  0  0  3  0  0  0  0  0  0
  185.5170  178.9600  139.1510 N   0  0  0  0  0  2  0  0  0  0  0  0
  186.7390  178.1770  139.3340 C   0  0  0  0  0  2  0  0  0  0  0  0
  186.9740  177.9030  140.8080 C   0  0  1  0  0  3  0  0  0  0  0  0
  188.4460  178.0860  141.1380 C   0  0  2  0  0  0  0  0  0  0  0  0
  188.6830  178.1570  142.5180 O   0  0  0  0  0  0  0  0  0  0  0  0
  189.2280  179.0750  140.4150 N   0  0  0  0  0  1  0  0  0  0  0  0
  189.1960  177.0280  141.8370 C   0  0  0  0  0  2  0  0  0  0  0  0
  186.1960  178.7710  141.5800 O   0  0  0  0  0  0  0  0  0  0  0  0
  185.4950  177.9370  142.4590 C   0  0  0  0  0  2  0  0  0  0  0  0
  185.4780  180.1500  143.5980 C   0  0  0  0  0  1  0  0  0  0  0  0
  185.0320  178.7030  143.6970 C   0  0  0  0  0  0  0  0  0  0  0  0
  183.5160  178.6600  143.8090 C   0  0  0  0  0  1  0  0  0  0  0  0
  185.6610  178.0930  144.9460 C   0  0  0  0  0  2  0  0  0  0  0  0
  185.0900  178.6140  146.1090 O   0  0  0  0  0  1  0  0  0  0  0  0
  187.8130  174.1030  137.5890 C   0  0  0  0  0  2  0  0  0  0  0  0
  188.7310  174.9270  136.9290 O   0  0  0  0  0  0  0  0  0  0  0  0
  189.9360  174.2340  136.9800 C   0  0  0  0  0  2  0  0  0  0  0  0
  191.2530  175.3730  137.4930 S   0  0  0  0  0  0  0  0  0  0  0  0
  192.1170  173.3280  135.8400 N   0  0  0  0  0  0  0  0  0  0  0  0
  192.8730  172.4940  134.9420 C   0  0  0  0  0  3  0  0  0  0  0  0
  194.9240  173.8280  135.0380 C   0  0  0  0  0  2  0  0  0  0  0  0
  193.7990  174.6320  137.0570 C   0  0  0  0  0  2  0  0  0  0  0  0
  194.1090  172.7080  134.6010 N   0  0  0  0  0  0  0  0  0  0  0  0
  192.5280  174.3840  136.7240 C   0  0  0  0  0  0  0  0  0  0  0  0
  194.9770  173.8620  136.5500 C   0  0  2  0  0  3  0  0  0  0  0  0
  197.2670  175.1340  136.0700 C   0  0  0  0  0  3  0  0  0  0  0  0
  197.1010  173.7570  138.0610 C   0  0  1  0  0  3  0  0  0  0  0  0
  198.6280  174.9390  136.5650 N   0  0  0  0  0  0  0  0  0  0  0  0
  196.3260  174.4290  137.0140 C   0  0  2  0  0  0  0  0  0  0  0  0
  198.5450  174.1420  137.7920 C   0  0  0  0  0  2  0  0  0  0  0  0
  196.3480  174.9250  138.3250 O   0  0  0  0  0  0  0  0  0  0  0  0
  1 19  1  0  0  0  0
  4  3  1  0  0  0  0
  6 16  1  0  0  0  0
  7  2  1  0  0  0  0
  7 38  1  1  0  0  0
  8  6  2  0  0  0  0
  9 11  1  0  0  0  0
  9  7  1  0  0  0  0
 10 17  1  0  0  0  0
 12 22  1  0  0  0  0
 13 11  1  0  0  0  0
 13 21  1  0  0  0  0
 14 20  1  0  0  0  0
 14 16  1  0  0  0  0
 15 19  1  0  0  0  0
 15  2  2  0  0  0  0
 16  4  2  0  0  0  0
 17  1  2  0  0  0  0
 17  8  1  0  0  0  0
 18 23  1  0  0  0  0
 19 14  2  0  0  0  0
 20 12  2  0  0  0  0
 21 18  1  0  0  0  0
 22  5  1  0  0  0  0
 22  3  2  0  0  0  0
 23 12  1  0  0  0  0
 23 24  1  1  0  0  0
 24 25  1  0  0  0  0
 26 25  1  6  0  0  0
 26 27  1  0  0  0  0
 26 31  1  0  0  0  0
 27 29  1  6  0  0  0
 27 30  1  0  0  0  0
 27 28  1  0  0  0  0
 30 28  1  0  0  0  0
 31 32  1  0  0  0  0
 32 34  1  0  0  0  0
 33 34  1  0  0  0  0
 34 35  1  0  0  0  0
 34 36  1  0  0  0  0
 36 37  1  0  0  0  0
 39 40  1  0  0  0  0
 39 38  1  0  0  0  0
 40 41  1  0  0  0  0
 42 47  2  0  0  0  0
 43 42  1  0  0  0  0
 46 43  2  0  0  0  0
 46 44  1  0  0  0  0
 47 45  1  0  0  0  0
 47 41  1  0  0  0  0
 48 44  1  6  0  0  0
 48 52  1  0  0  0  0
 48 45  1  0  0  0  0
 49 51  2  0  0  0  0
 50 53  1  6  0  0  0
 50 54  1  0  0  0  0
 51 53  1  0  0  0  0
 52 49  1  6  0  0  0
 52 50  1  0  0  0  0
 52 54  1  0  0  0  0
M  END
>  <MODEL>
9

>  <REMARK>
 VINA RESULT:      -5.1      3.933      5.835
  Name = 
  14 active torsions:
  status: ('A' for Active; 'I' for Inactive)
    1  A    between atoms: C_2  and  C_11
    2  A    between atoms: O_5  and  C_20
    3  A    between atoms: O_5  and  C_29
    4  A    between atoms: N_6  and  C_36
    5  A    between atoms: N_6  and  C_53
    6  A    between atoms: C_11  and  O_16
    7  A    between atoms: C_11  and  C_36
    8  A    between atoms: C_14  and  C_21
    9  A    between atoms: C_14  and  C_28
   10  A    between atoms: O_16  and  C_28
   11  A    between atoms: C_20  and  C_25
   12  A    between atoms: C_29  and  S_45
   13  A    between atoms: C_31  and  S_45
   14  A    between atoms: C_37  and  C_43
                            x       y       z     vdW  Elec       q    Type
                         _______ _______ _______ _____ _____    ______ ____

>  <TORSDO>
F 14

$$$$
