=
 OpenBabel11042411393D

 45 50  0  0  1  0  0  0  0  0999 V2000
  191.7360  177.8900  141.0410 C   0  0  0  0  0  1  0  0  0  0  0  0
  188.6560  177.6200  139.3580 C   0  0  0  0  0  0  0  0  0  0  0  0
  190.8240  171.3750  134.5980 C   0  0  0  0  0  3  0  0  0  0  0  0
  189.4970  177.7510  142.0840 C   0  0  0  0  0  0  0  0  0  0  0  0
  190.7080  175.1870  137.9860 C   0  0  0  0  0  0  0  0  0  0  0  0
  187.8070  176.1810  137.4490 C   0  0  0  0  0  2  0  0  0  0  0  0
  187.9860  178.2830  140.2560 N   0  0  0  0  0  0  0  0  0  0  0  0
  189.5560  174.5770  137.2160 C   0  0  2  0  0  3  0  0  0  0  0  0
  192.0220  175.2430  137.3940 N   0  0  0  0  0  0  0  0  0  0  0  0
  191.7300  172.3810  134.9440 C   0  0  0  0  0  3  0  0  0  0  0  0
  189.5330  171.3860  135.1300 C   0  0  0  0  0  3  0  0  0  0  0  0
  188.1940  177.5910  137.9090 C   0  0  1  0  0  3  0  0  0  0  0  0
  190.0340  173.4420  136.3280 C   0  0  0  0  0  0  0  0  0  0  0  0
  189.8700  176.8790  139.7680 C   0  0  0  0  0  0  0  0  0  0  0  0
  193.0620  176.1040  137.9510 C   0  0  0  0  0  1  0  0  0  0  0  0
  188.0200  175.1460  135.3910 C   0  0  0  0  0  1  0  0  0  0  0  0
  188.8000  175.6490  136.5150 N   0  0  0  0  0  0  0  0  0  0  0  0
  192.3310  174.4030  136.2740 C   0  0  0  0  0  0  0  0  0  0  0  0
  190.3740  176.0090  138.9410 C   0  0  0  0  0  0  0  0  0  0  0  0
  193.4570  174.4840  135.7090 O   0  0  0  0  0  0  0  0  0  0  0  0
  191.3460  173.4100  135.8150 C   0  0  0  0  0  0  0  0  0  0  0  0
  190.4560  177.0750  141.1360 C   0  0  1  0  0  3  0  0  0  0  0  0
  189.1410  172.4130  135.9930 C   0  0  0  0  0  3  0  0  0  0  0  0
  188.3680  178.3260  141.6390 C   0  0  0  0  0  3  0  0  0  0  0  0
  189.8210  177.7800  143.4430 O   0  0  0  0  0  0  0  0  0  0  0  0
  189.3500  176.8270  144.3220 N   0  0  0  0  0  2  0  0  0  0  0  0
  188.9420  177.5270  145.5300 C   0  0  0  0  0  2  0  0  0  0  0  0
  184.5920  179.0110  145.9150 C   0  0  0  0  0  2  0  0  0  0  0  0
  185.4900  177.8170  143.8240 C   0  0  0  0  0  2  0  0  0  0  0  0
  185.3320  177.9720  146.7630 C   0  0  0  0  0  2  0  0  0  0  0  0
  186.7380  177.1440  144.4210 C   0  0  0  0  0  2  0  0  0  0  0  0
  186.8550  178.1490  146.7720 C   0  0  0  0  0  2  0  0  0  0  0  0
  185.1130  179.1520  144.4790 C   0  0  0  0  0  2  0  0  0  0  0  0
  187.5180  178.0410  145.3880 C   0  0  0  0  0  3  0  0  0  0  0  0
  187.1110  178.6170  137.5640 C   0  0  0  0  0  2  0  0  0  0  0  0
  185.8930  177.9640  137.1010 N   0  0  0  0  0  2  0  0  0  0  0  0
  185.2760  179.3730  138.8620 O   0  0  0  0  0  1  0  0  0  0  0  0
  184.8040  178.4270  137.9480 C   0  0  2  0  0  3  0  0  0  0  0  0
  182.0690  178.5200  138.6810 O   0  0  0  0  0  1  0  0  0  0  0  0
  182.0830  176.2100  139.0540 C   0  0  0  0  0  0  0  0  0  0  0  0
  180.9750  175.8980  139.5600 O   0  0  0  0  0  0  0  0  0  0  0  0
  184.1430  177.2420  138.6600 C   0  0  1  0  0  3  0  0  0  0  0  0
  182.7710  177.4910  139.3150 C   0  0  1  0  0  3  0  0  0  0  0  0
  182.7840  175.3520  138.1750 N   0  0  0  0  0  2  0  0  0  0  0  0
  184.0020  176.0150  137.7530 C   0  0  0  0  0  2  0  0  0  0  0  0
  2 14  1  0  0  0  0
  2  7  2  0  0  0  0
  3 10  2  0  0  0  0
  3 11  1  0  0  0  0
  4 25  1  0  0  0  0
  5 19  2  0  0  0  0
  6 12  1  0  0  0  0
  7 24  1  0  0  0  0
  8 13  1  6  0  0  0
  8  5  1  0  0  0  0
  9 15  1  0  0  0  0
  9  5  1  0  0  0  0
 10 21  1  0  0  0  0
 11 23  2  0  0  0  0
 12 35  1  1  0  0  0
 12  2  1  0  0  0  0
 14 22  1  0  0  0  0
 16 17  1  0  0  0  0
 17  8  1  0  0  0  0
 17  6  1  0  0  0  0
 18  9  1  0  0  0  0
 19 14  2  0  0  0  0
 20 18  2  0  0  0  0
 21 18  1  0  0  0  0
 21 13  2  0  0  0  0
 22  1  1  6  0  0  0
 22  4  1  0  0  0  0
 23 13  1  0  0  0  0
 24  4  2  0  0  0  0
 25 26  1  0  0  0  0
 26 27  1  0  0  0  0
 28 30  1  0  0  0  0
 29 31  1  0  0  0  0
 29 33  1  0  0  0  0
 30 32  1  0  0  0  0
 31 34  1  0  0  0  0
 33 28  1  0  0  0  0
 34 27  1  0  0  0  0
 34 32  1  0  0  0  0
 36 35  1  0  0  0  0
 36 38  1  0  0  0  0
 38 37  1  1  0  0  0
 40 43  1  0  0  0  0
 40 41  2  0  0  0  0
 42 38  1  6  0  0  0
 42 43  1  0  0  0  0
 43 39  1  6  0  0  0
 44 40  1  0  0  0  0
 45 44  1  0  0  0  0
 45 42  1  0  0  0  0
M  END
>  <MODEL>
1

>  <REMARK>
 VINA RESULT:      -8.3      0.000      0.000
  Name = 
  8 active torsions:
  status: ('A' for Active; 'I' for Inactive)
    1  A    between atoms: C_7  and  O_29
    2  A    between atoms: N_15  and  C_30
    3  A    between atoms: N_15  and  C_39
    4  A    between atoms: C_21  and  C_28
    5  A    between atoms: C_21  and  N_33
    6  A    between atoms: C_22  and  C_39
    7  A    between atoms: O_29  and  N_33
    8  A    between atoms: C_30  and  C_36
                            x       y       z     vdW  Elec       q    Type
                         _______ _______ _______ _____ _____    ______ ____

>  <TORSDO>
F 8

$$$$
=
 OpenBabel11042411393D

 45 50  0  0  1  0  0  0  0  0999 V2000
  191.0690  177.9950  141.7620 C   0  0  0  0  0  1  0  0  0  0  0  0
  188.7860  177.5810  139.1150 C   0  0  0  0  0  0  0  0  0  0  0  0
  193.3810  172.4010  134.8230 C   0  0  0  0  0  3  0  0  0  0  0  0
  188.6700  177.4270  141.9650 C   0  0  0  0  0  0  0  0  0  0  0  0
  191.5460  175.6460  138.3050 C   0  0  0  0  0  0  0  0  0  0  0  0
  188.8500  176.3320  136.9080 C   0  0  0  0  0  2  0  0  0  0  0  0
  187.7620  178.0180  139.7890 N   0  0  0  0  0  0  0  0  0  0  0  0
  190.8220  175.0120  137.1370 C   0  0  2  0  0  3  0  0  0  0  0  0
  192.9520  175.9520  138.2020 N   0  0  0  0  0  0  0  0  0  0  0  0
  193.9460  173.4540  135.5470 C   0  0  0  0  0  3  0  0  0  0  0  0
  192.0040  172.1730  134.8830 C   0  0  0  0  0  3  0  0  0  0  0  0
  188.8270  177.7000  137.6000 C   0  0  1  0  0  3  0  0  0  0  0  0
  191.7430  174.0840  136.3630 C   0  0  0  0  0  0  0  0  0  0  0  0
  189.9090  176.9470  139.8430 C   0  0  0  0  0  0  0  0  0  0  0  0
  193.5980  176.8490  139.1570 C   0  0  0  0  0  1  0  0  0  0  0  0
  189.8830  175.6360  134.9590 C   0  0  0  0  0  1  0  0  0  0  0  0
  190.1650  176.0680  136.3220 N   0  0  0  0  0  0  0  0  0  0  0  0
  193.7410  175.3250  137.1820 C   0  0  0  0  0  0  0  0  0  0  0  0
  190.7900  176.2750  139.1610 C   0  0  0  0  0  0  0  0  0  0  0  0
  194.9590  175.6280  137.0430 O   0  0  0  0  0  0  0  0  0  0  0  0
  193.1360  174.2920  136.3260 C   0  0  0  0  0  0  0  0  0  0  0  0
  189.9820  177.0200  141.3420 C   0  0  1  0  0  3  0  0  0  0  0  0
  191.1900  173.0090  135.6520 C   0  0  0  0  0  3  0  0  0  0  0  0
  187.6650  177.9120  141.2180 C   0  0  0  0  0  3  0  0  0  0  0  0
  188.5300  177.3030  143.3490 O   0  0  0  0  0  0  0  0  0  0  0  0
  187.3800  177.6990  144.0010 N   0  0  0  0  0  2  0  0  0  0  0  0
  187.7160  177.8450  145.4090 C   0  0  0  0  0  2  0  0  0  0  0  0
  191.6360  176.0150  147.0090 C   0  0  0  0  0  2  0  0  0  0  0  0
  191.5570  177.6740  145.0480 C   0  0  0  0  0  2  0  0  0  0  0  0
  190.6230  176.9040  147.7350 C   0  0  0  0  0  2  0  0  0  0  0  0
  190.1680  178.2940  145.2850 C   0  0  0  0  0  2  0  0  0  0  0  0
  189.2060  176.8360  147.1540 C   0  0  0  0  0  2  0  0  0  0  0  0
  191.6810  176.2090  145.4880 C   0  0  0  0  0  2  0  0  0  0  0  0
  189.0980  177.2740  145.6840 C   0  0  0  0  0  3  0  0  0  0  0  0
  187.7580  178.6180  137.0030 C   0  0  0  0  0  2  0  0  0  0  0  0
  186.7490  177.8560  136.2800 N   0  0  0  0  0  2  0  0  0  0  0  0
  185.6220  179.0050  137.9750 O   0  0  0  0  0  1  0  0  0  0  0  0
  185.4870  178.0310  136.9820 C   0  0  2  0  0  3  0  0  0  0  0  0
  182.7230  177.4810  137.2790 O   0  0  0  0  0  1  0  0  0  0  0  0
  183.2040  175.2160  137.6190 C   0  0  0  0  0  0  0  0  0  0  0  0
  182.1320  174.6430  137.9420 O   0  0  0  0  0  0  0  0  0  0  0  0
  185.0120  176.6970  137.5660 C   0  0  1  0  0  3  0  0  0  0  0  0
  183.5370  176.6030  138.0010 C   0  0  1  0  0  3  0  0  0  0  0  0
  184.2040  174.5780  136.8500 N   0  0  0  0  0  2  0  0  0  0  0  0
  185.2900  175.5140  136.6320 C   0  0  0  0  0  2  0  0  0  0  0  0
  2  7  2  0  0  0  0
  2 14  1  0  0  0  0
  3 11  2  0  0  0  0
  3 10  1  0  0  0  0
  4 25  1  0  0  0  0
  5 19  2  0  0  0  0
  6 12  1  0  0  0  0
  7 24  1  0  0  0  0
  8 13  1  6  0  0  0
  8  5  1  0  0  0  0
  9  5  1  0  0  0  0
  9 15  1  0  0  0  0
 10 21  2  0  0  0  0
 11 23  1  0  0  0  0
 12 35  1  6  0  0  0
 12  2  1  0  0  0  0
 14 22  1  0  0  0  0
 16 17  1  0  0  0  0
 17  6  1  0  0  0  0
 17  8  1  0  0  0  0
 18  9  1  0  0  0  0
 19 14  2  0  0  0  0
 20 18  2  0  0  0  0
 21 13  1  0  0  0  0
 21 18  1  0  0  0  0
 22  1  1  6  0  0  0
 22  4  1  0  0  0  0
 23 13  2  0  0  0  0
 24  4  2  0  0  0  0
 25 26  1  0  0  0  0
 26 27  1  0  0  0  0
 27 34  1  0  0  0  0
 28 30  1  0  0  0  0
 29 31  1  0  0  0  0
 29 33  1  0  0  0  0
 31 34  1  0  0  0  0
 32 30  1  0  0  0  0
 33 28  1  0  0  0  0
 34 32  1  0  0  0  0
 36 38  1  0  0  0  0
 36 35  1  0  0  0  0
 38 37  1  1  0  0  0
 40 41  2  0  0  0  0
 40 43  1  0  0  0  0
 42 38  1  6  0  0  0
 42 43  1  0  0  0  0
 43 39  1  6  0  0  0
 44 40  1  0  0  0  0
 45 44  1  0  0  0  0
 45 42  1  0  0  0  0
M  END
>  <MODEL>
2

>  <REMARK>
 VINA RESULT:      -7.9      1.580      2.605
  Name = 
  8 active torsions:
  status: ('A' for Active; 'I' for Inactive)
    1  A    between atoms: C_7  and  O_29
    2  A    between atoms: N_15  and  C_30
    3  A    between atoms: N_15  and  C_39
    4  A    between atoms: C_21  and  C_28
    5  A    between atoms: C_21  and  N_33
    6  A    between atoms: C_22  and  C_39
    7  A    between atoms: O_29  and  N_33
    8  A    between atoms: C_30  and  C_36
                            x       y       z     vdW  Elec       q    Type
                         _______ _______ _______ _____ _____    ______ ____

>  <TORSDO>
F 8

$$$$
=
 OpenBabel11042411393D

 45 50  0  0  1  0  0  0  0  0999 V2000
  186.9230  175.4660  137.5160 C   0  0  0  0  0  1  0  0  0  0  0  0
  189.4690  177.1090  139.3070 C   0  0  0  0  0  0  0  0  0  0  0  0
  195.6130  174.5420  134.6140 C   0  0  0  0  0  3  0  0  0  0  0  0
  186.9590  177.8530  138.1660 C   0  0  0  0  0  0  0  0  0  0  0  0
  191.0580  175.4000  136.7440 C   0  0  0  0  0  0  0  0  0  0  0  0
  191.9990  177.1650  139.1300 C   0  0  0  0  0  2  0  0  0  0  0  0
  188.6630  177.9430  139.8970 N   0  0  0  0  0  0  0  0  0  0  0  0
  192.3780  176.0790  137.0410 C   0  0  2  0  0  3  0  0  0  0  0  0
  191.0340  174.0160  136.3370 N   0  0  0  0  0  0  0  0  0  0  0  0
  194.5130  173.7270  134.8910 C   0  0  0  0  0  3  0  0  0  0  0  0
  195.6420  175.8570  135.0840 C   0  0  0  0  0  3  0  0  0  0  0  0
  190.7880  176.7150  139.9540 C   0  0  1  0  0  3  0  0  0  0  0  0
  193.4840  175.5320  136.1540 C   0  0  0  0  0  0  0  0  0  0  0  0
  189.0940  176.5580  137.9860 C   0  0  0  0  0  0  0  0  0  0  0  0
  189.7940  173.2450  136.3650 C   0  0  0  0  0  1  0  0  0  0  0  0
  194.0690  176.1810  138.8140 C   0  0  0  0  0  1  0  0  0  0  0  0
  192.6550  176.0170  138.5010 N   0  0  0  0  0  0  0  0  0  0  0  0
  192.2320  173.4010  135.8440 C   0  0  0  0  0  0  0  0  0  0  0  0
  190.0070  175.9520  137.2850 C   0  0  0  0  0  0  0  0  0  0  0  0
  192.2400  172.1760  135.5400 O   0  0  0  0  0  0  0  0  0  0  0  0
  193.4420  174.2170  135.6510 C   0  0  0  0  0  0  0  0  0  0  0  0
  187.7100  176.7640  137.4400 C   0  0  1  0  0  3  0  0  0  0  0  0
  194.5810  176.3500  135.8480 C   0  0  0  0  0  3  0  0  0  0  0  0
  187.4170  178.3630  139.3210 C   0  0  0  0  0  3  0  0  0  0  0  0
  185.7600  178.3090  137.6130 O   0  0  0  0  0  0  0  0  0  0  0  0
  184.5430  178.0630  138.2160 N   0  0  0  0  0  2  0  0  0  0  0  0
  184.0510  179.3370  138.7160 C   0  0  0  0  0  2  0  0  0  0  0  0
  182.9090  178.7460  143.1460 C   0  0  0  0  0  2  0  0  0  0  0  0
  181.4110  177.9980  141.1960 C   0  0  0  0  0  2  0  0  0  0  0  0
  184.1050  178.1780  142.3770 C   0  0  0  0  0  2  0  0  0  0  0  0
  182.4500  177.9730  140.0610 C   0  0  0  0  0  2  0  0  0  0  0  0
  184.5150  179.0140  141.1590 C   0  0  0  0  0  2  0  0  0  0  0  0
  181.6790  179.0500  142.2800 C   0  0  0  0  0  2  0  0  0  0  0  0
  183.4200  179.1580  140.0880 C   0  0  0  0  0  3  0  0  0  0  0  0
  190.9230  177.1190  141.4250 C   0  0  0  0  0  2  0  0  0  0  0  0
  190.0510  176.3190  142.2740 N   0  0  0  0  0  2  0  0  0  0  0  0
  191.1280  176.2960  144.3490 O   0  0  0  0  0  1  0  0  0  0  0  0
  190.1020  176.8920  143.6110 C   0  0  2  0  0  3  0  0  0  0  0  0
  189.5420  178.2870  146.0130 O   0  0  0  0  0  1  0  0  0  0  0  0
  187.2660  177.7980  145.7740 C   0  0  0  0  0  0  0  0  0  0  0  0
  186.6810  178.1820  146.8190 O   0  0  0  0  0  0  0  0  0  0  0  0
  188.7470  176.7370  144.3090 C   0  0  1  0  0  3  0  0  0  0  0  0
  188.6380  177.2520  145.7580 C   0  0  1  0  0  3  0  0  0  0  0  0
  186.6570  177.8540  144.5000 N   0  0  0  0  0  2  0  0  0  0  0  0
  187.5990  177.3660  143.5120 C   0  0  0  0  0  2  0  0  0  0  0  0
  2  7  2  0  0  0  0
  2 12  1  0  0  0  0
  3 10  2  0  0  0  0
  3 11  1  0  0  0  0
  4 24  2  0  0  0  0
  5  8  1  0  0  0  0
  5 19  2  0  0  0  0
  6 12  1  0  0  0  0
  8 13  1  6  0  0  0
  8 17  1  0  0  0  0
  9 15  1  0  0  0  0
  9  5  1  0  0  0  0
 10 21  1  0  0  0  0
 11 23  2  0  0  0  0
 12 35  1  1  0  0  0
 14  2  1  0  0  0  0
 17 16  1  0  0  0  0
 17  6  1  0  0  0  0
 18  9  1  0  0  0  0
 19 14  2  0  0  0  0
 20 18  2  0  0  0  0
 21 18  1  0  0  0  0
 21 13  2  0  0  0  0
 22  1  1  1  0  0  0
 22 14  1  0  0  0  0
 22  4  1  0  0  0  0
 23 13  1  0  0  0  0
 24  7  1  0  0  0  0
 25  4  1  0  0  0  0
 25 26  1  0  0  0  0
 26 27  1  0  0  0  0
 27 34  1  0  0  0  0
 29 33  1  0  0  0  0
 30 28  1  0  0  0  0
 31 34  1  0  0  0  0
 31 29  1  0  0  0  0
 32 30  1  0  0  0  0
 33 28  1  0  0  0  0
 34 32  1  0  0  0  0
 35 36  1  0  0  0  0
 36 38  1  0  0  0  0
 38 37  1  1  0  0  0
 40 41  2  0  0  0  0
 42 38  1  6  0  0  0
 42 43  1  0  0  0  0
 43 40  1  0  0  0  0
 43 39  1  6  0  0  0
 44 40  1  0  0  0  0
 45 42  1  0  0  0  0
 45 44  1  0  0  0  0
M  END
>  <MODEL>
3

>  <REMARK>
 VINA RESULT:      -7.5      2.018      5.811
  Name = 
  8 active torsions:
  status: ('A' for Active; 'I' for Inactive)
    1  A    between atoms: C_7  and  O_29
    2  A    between atoms: N_15  and  C_30
    3  A    between atoms: N_15  and  C_39
    4  A    between atoms: C_21  and  C_28
    5  A    between atoms: C_21  and  N_33
    6  A    between atoms: C_22  and  C_39
    7  A    between atoms: O_29  and  N_33
    8  A    between atoms: C_30  and  C_36
                            x       y       z     vdW  Elec       q    Type
                         _______ _______ _______ _____ _____    ______ ____

>  <TORSDO>
F 8

$$$$
=
 OpenBabel11042411393D

 45 50  0  0  1  0  0  0  0  0999 V2000
  180.5620  177.1670  139.3980 C   0  0  0  0  0  1  0  0  0  0  0  0
  183.0820  178.6450  141.3600 C   0  0  0  0  0  0  0  0  0  0  0  0
  189.0910  177.6110  135.9580 C   0  0  0  0  0  3  0  0  0  0  0  0
  180.4530  179.3730  140.5130 C   0  0  0  0  0  0  0  0  0  0  0  0
  184.6300  177.6230  138.4320 C   0  0  0  0  0  0  0  0  0  0  0  0
  185.5830  178.9600  141.0770 C   0  0  0  0  0  2  0  0  0  0  0  0
  182.2530  179.2720  142.1430 N   0  0  0  0  0  0  0  0  0  0  0  0
  185.9100  178.3450  138.7970 C   0  0  2  0  0  3  0  0  0  0  0  0
  184.6880  176.3500  137.7560 N   0  0  0  0  0  0  0  0  0  0  0  0
  188.0780  176.6630  136.1170 C   0  0  0  0  0  3  0  0  0  0  0  0
  189.0480  178.8050  136.6810 C   0  0  0  0  0  3  0  0  0  0  0  0
  184.4670  178.2510  141.8500 C   0  0  1  0  0  3  0  0  0  0  0  0
  186.9950  178.0850  137.7660 C   0  0  0  0  0  0  0  0  0  0  0  0
  182.6670  178.3350  139.9740 C   0  0  0  0  0  0  0  0  0  0  0  0
  183.5160  175.4810  137.6870 C   0  0  0  0  0  1  0  0  0  0  0  0
  187.6990  178.2460  140.4710 C   0  0  0  0  0  1  0  0  0  0  0  0
  186.2850  178.0220  140.1990 N   0  0  0  0  0  0  0  0  0  0  0  0
  185.8960  175.9530  137.0930 C   0  0  0  0  0  0  0  0  0  0  0  0
  183.5770  177.9620  139.1220 C   0  0  0  0  0  0  0  0  0  0  0  0
  185.9790  174.8180  136.5470 O   0  0  0  0  0  0  0  0  0  0  0  0
  187.0240  176.8960  137.0100 C   0  0  0  0  0  0  0  0  0  0  0  0
  181.2380  178.5200  139.5470 C   0  0  1  0  0  3  0  0  0  0  0  0
  188.0040  179.0410  137.5790 C   0  0  0  0  0  3  0  0  0  0  0  0
  180.9430  179.6840  141.7240 C   0  0  0  0  0  3  0  0  0  0  0  0
  179.1890  179.8200  140.1210 O   0  0  0  0  0  0  0  0  0  0  0  0
  178.9820  181.1080  139.6700 N   0  0  0  0  0  2  0  0  0  0  0  0
  178.9470  181.0500  138.2170 C   0  0  0  0  0  2  0  0  0  0  0  0
  180.8060  184.4410  135.7040 C   0  0  0  0  0  2  0  0  0  0  0  0
  181.8720  183.5470  137.8640 C   0  0  0  0  0  2  0  0  0  0  0  0
  180.5250  182.9900  135.3030 C   0  0  0  0  0  2  0  0  0  0  0  0
  181.1550  182.1890  137.9680 C   0  0  0  0  0  2  0  0  0  0  0  0
  179.4010  182.3290  136.1090 C   0  0  0  0  0  2  0  0  0  0  0  0
  181.0400  184.6550  137.2050 C   0  0  0  0  0  2  0  0  0  0  0  0
  179.6640  182.2520  137.6230 C   0  0  0  0  0  3  0  0  0  0  0  0
  184.6640  178.3670  143.3640 C   0  0  0  0  0  2  0  0  0  0  0  0
  185.9750  177.8750  143.7650 N   0  0  0  0  0  2  0  0  0  0  0  0
  186.0460  179.2390  145.6620 O   0  0  0  0  0  1  0  0  0  0  0  0
  186.0270  177.9140  145.2190 C   0  0  2  0  0  3  0  0  0  0  0  0
  188.5710  178.2500  144.0160 O   0  0  0  0  0  1  0  0  0  0  0  0
  189.5800  177.1730  145.8320 C   0  0  0  0  0  0  0  0  0  0  0  0
  190.7950  177.0120  145.5530 O   0  0  0  0  0  0  0  0  0  0  0  0
  187.2440  177.1350  145.7290 C   0  0  1  0  0  3  0  0  0  0  0  0
  188.4960  177.1160  144.8300 C   0  0  1  0  0  3  0  0  0  0  0  0
  189.1300  177.4270  147.1480 N   0  0  0  0  0  2  0  0  0  0  0  0
  187.6900  177.5880  147.1240 C   0  0  0  0  0  2  0  0  0  0  0  0
  2 12  1  0  0  0  0
  2  7  2  0  0  0  0
  3 10  2  0  0  0  0
  3 11  1  0  0  0  0
  4 24  2  0  0  0  0
  5  8  1  0  0  0  0
  5 19  2  0  0  0  0
  6 12  1  0  0  0  0
  8 13  1  6  0  0  0
  8 17  1  0  0  0  0
  9  5  1  0  0  0  0
 10 21  1  0  0  0  0
 11 23  2  0  0  0  0
 12 35  1  1  0  0  0
 14  2  1  0  0  0  0
 15  9  1  0  0  0  0
 17 16  1  0  0  0  0
 17  6  1  0  0  0  0
 18  9  1  0  0  0  0
 19 14  2  0  0  0  0
 20 18  2  0  0  0  0
 21 18  1  0  0  0  0
 21 13  2  0  0  0  0
 22  1  1  1  0  0  0
 22 14  1  0  0  0  0
 22  4  1  0  0  0  0
 23 13  1  0  0  0  0
 24  7  1  0  0  0  0
 25  4  1  0  0  0  0
 26 25  1  0  0  0  0
 27 26  1  0  0  0  0
 28 33  1  0  0  0  0
 29 31  1  0  0  0  0
 30 28  1  0  0  0  0
 30 32  1  0  0  0  0
 32 34  1  0  0  0  0
 33 29  1  0  0  0  0
 34 31  1  0  0  0  0
 34 27  1  0  0  0  0
 35 36  1  0  0  0  0
 36 38  1  0  0  0  0
 38 37  1  6  0  0  0
 40 44  1  0  0  0  0
 41 40  2  0  0  0  0
 42 38  1  6  0  0  0
 42 45  1  0  0  0  0
 43 39  1  6  0  0  0
 43 42  1  0  0  0  0
 43 40  1  0  0  0  0
 45 44  1  0  0  0  0
M  END
>  <MODEL>
4

>  <REMARK>
 VINA RESULT:      -7.5      3.607      8.749
  Name = 
  8 active torsions:
  status: ('A' for Active; 'I' for Inactive)
    1  A    between atoms: C_7  and  O_29
    2  A    between atoms: N_15  and  C_30
    3  A    between atoms: N_15  and  C_39
    4  A    between atoms: C_21  and  C_28
    5  A    between atoms: C_21  and  N_33
    6  A    between atoms: C_22  and  C_39
    7  A    between atoms: O_29  and  N_33
    8  A    between atoms: C_30  and  C_36
                            x       y       z     vdW  Elec       q    Type
                         _______ _______ _______ _____ _____    ______ ____

>  <TORSDO>
F 8

$$$$
=
 OpenBabel11042411393D

 45 50  0  0  1  0  0  0  0  0999 V2000
  186.4500  174.9070  136.6280 C   0  0  0  0  0  1  0  0  0  0  0  0
  188.4700  177.1400  138.4510 C   0  0  0  0  0  0  0  0  0  0  0  0
  195.5510  174.6980  135.2480 C   0  0  0  0  0  3  0  0  0  0  0  0
  186.1220  177.3510  136.8380 C   0  0  0  0  0  0  0  0  0  0  0  0
  190.6380  175.2700  136.4970 C   0  0  0  0  0  0  0  0  0  0  0  0
  190.9730  177.5040  138.6400 C   0  0  0  0  0  2  0  0  0  0  0  0
  187.4920  177.9430  138.7560 N   0  0  0  0  0  0  0  0  0  0  0  0
  191.8100  176.1580  136.8590 C   0  0  2  0  0  3  0  0  0  0  0  0
  190.8300  173.8490  136.3450 N   0  0  0  0  0  0  0  0  0  0  0  0
  194.5130  173.7980  135.5020 C   0  0  0  0  0  3  0  0  0  0  0  0
  195.3610  176.0630  135.4740 C   0  0  0  0  0  3  0  0  0  0  0  0
  189.6960  177.0350  139.3450 C   0  0  1  0  0  3  0  0  0  0  0  0
  193.1000  175.6290  136.2560 C   0  0  0  0  0  0  0  0  0  0  0  0
  188.3820  176.3400  137.2090 C   0  0  0  0  0  0  0  0  0  0  0  0
  189.6920  172.9330  136.3290 C   0  0  0  0  0  1  0  0  0  0  0  0
  193.1600  176.7670  138.8140 C   0  0  0  0  0  1  0  0  0  0  0  0
  191.8430  176.3680  138.3300 N   0  0  0  0  0  0  0  0  0  0  0  0
  192.1520  173.3280  136.1530 C   0  0  0  0  0  0  0  0  0  0  0  0
  189.4590  175.7560  136.7700 C   0  0  0  0  0  0  0  0  0  0  0  0
  192.3410  172.0820  136.0770 O   0  0  0  0  0  0  0  0  0  0  0  0
  193.2840  174.2560  135.9970 C   0  0  0  0  0  0  0  0  0  0  0  0
  187.0950  176.2690  136.4380 C   0  0  1  0  0  3  0  0  0  0  0  0
  194.1410  176.5260  135.9740 C   0  0  0  0  0  3  0  0  0  0  0  0
  186.3230  178.0950  137.9370 C   0  0  0  0  0  3  0  0  0  0  0  0
  184.9910  177.5480  136.0420 O   0  0  0  0  0  0  0  0  0  0  0  0
  183.8550  176.7780  136.1920 N   0  0  0  0  0  2  0  0  0  0  0  0
  182.7390  177.6950  136.3630 C   0  0  0  0  0  2  0  0  0  0  0  0
  181.7010  178.4830  140.7870 C   0  0  0  0  0  2  0  0  0  0  0  0
  182.0840  176.1280  139.8310 C   0  0  0  0  0  2  0  0  0  0  0  0
  182.9200  178.9500  139.9880 C   0  0  0  0  0  2  0  0  0  0  0  0
  182.8500  176.4880  138.5450 C   0  0  0  0  0  2  0  0  0  0  0  0
  182.6760  179.0410  138.4770 C   0  0  0  0  0  2  0  0  0  0  0  0
  181.0630  177.1830  140.2780 C   0  0  0  0  0  2  0  0  0  0  0  0
  182.2840  177.7100  137.8130 C   0  0  0  0  0  3  0  0  0  0  0  0
  189.5390  177.6820  140.7230 C   0  0  0  0  0  2  0  0  0  0  0  0
  188.7290  176.8540  141.6060 N   0  0  0  0  0  2  0  0  0  0  0  0
  190.2940  175.8040  142.9890 O   0  0  0  0  0  1  0  0  0  0  0  0
  189.3740  176.8530  142.9110 C   0  0  2  0  0  3  0  0  0  0  0  0
  189.7350  178.2290  145.3610 O   0  0  0  0  0  1  0  0  0  0  0  0
  187.4860  177.8740  145.9000 C   0  0  0  0  0  0  0  0  0  0  0  0
  187.3100  178.2700  147.0810 O   0  0  0  0  0  0  0  0  0  0  0  0
  188.3240  176.7600  144.0240 C   0  0  1  0  0  3  0  0  0  0  0  0
  188.7380  177.2520  145.4250 C   0  0  1  0  0  3  0  0  0  0  0  0
  186.4890  177.9900  144.9050 N   0  0  0  0  0  2  0  0  0  0  0  0
  187.0150  177.4700  143.6580 C   0  0  0  0  0  2  0  0  0  0  0  0
  2  7  2  0  0  0  0
  2 12  1  0  0  0  0
  3 11  2  0  0  0  0
  3 10  1  0  0  0  0
  4 24  2  0  0  0  0
  5 19  2  0  0  0  0
  5  8  1  0  0  0  0
  6 12  1  0  0  0  0
  8 13  1  1  0  0  0
  8 17  1  0  0  0  0
  9  5  1  0  0  0  0
 10 21  2  0  0  0  0
 11 23  1  0  0  0  0
 12 35  1  1  0  0  0
 14  2  1  0  0  0  0
 15  9  1  0  0  0  0
 17  6  1  0  0  0  0
 17 16  1  0  0  0  0
 18  9  1  0  0  0  0
 19 14  2  0  0  0  0
 20 18  2  0  0  0  0
 21 18  1  0  0  0  0
 21 13  1  0  0  0  0
 22  1  1  1  0  0  0
 22  4  1  0  0  0  0
 22 14  1  0  0  0  0
 23 13  2  0  0  0  0
 24  7  1  0  0  0  0
 25 26  1  0  0  0  0
 25  4  1  0  0  0  0
 26 27  1  0  0  0  0
 27 34  1  0  0  0  0
 29 33  1  0  0  0  0
 30 28  1  0  0  0  0
 31 29  1  0  0  0  0
 32 30  1  0  0  0  0
 33 28  1  0  0  0  0
 34 32  1  0  0  0  0
 34 31  1  0  0  0  0
 35 36  1  0  0  0  0
 36 38  1  0  0  0  0
 38 37  1  6  0  0  0
 40 41  2  0  0  0  0
 42 38  1  6  0  0  0
 42 43  1  0  0  0  0
 43 39  1  6  0  0  0
 43 40  1  0  0  0  0
 44 40  1  0  0  0  0
 45 42  1  0  0  0  0
 45 44  1  0  0  0  0
M  END
>  <MODEL>
5

>  <REMARK>
 VINA RESULT:      -7.4      1.990      6.298
  Name = 
  8 active torsions:
  status: ('A' for Active; 'I' for Inactive)
    1  A    between atoms: C_7  and  O_29
    2  A    between atoms: N_15  and  C_30
    3  A    between atoms: N_15  and  C_39
    4  A    between atoms: C_21  and  C_28
    5  A    between atoms: C_21  and  N_33
    6  A    between atoms: C_22  and  C_39
    7  A    between atoms: O_29  and  N_33
    8  A    between atoms: C_30  and  C_36
                            x       y       z     vdW  Elec       q    Type
                         _______ _______ _______ _____ _____    ______ ____

>  <TORSDO>
F 8

$$$$
=
 OpenBabel11042411393D

 45 50  0  0  1  0  0  0  0  0999 V2000
  186.1470  177.9910  142.5450 C   0  0  0  0  0  1  0  0  0  0  0  0
  185.8360  177.8150  139.0430 C   0  0  0  0  0  0  0  0  0  0  0  0
  178.9320  182.1140  138.5790 C   0  0  0  0  0  3  0  0  0  0  0  0
  187.8970  178.5380  140.8830 C   0  0  0  0  0  0  0  0  0  0  0  0
  183.0820  179.6020  140.1560 C   0  0  0  0  0  0  0  0  0  0  0  0
  184.0800  178.5930  137.3850 C   0  0  0  0  0  2  0  0  0  0  0  0
  187.0830  177.5020  138.8410 N   0  0  0  0  0  0  0  0  0  0  0  0
  182.6880  179.9730  138.7420 C   0  0  2  0  0  3  0  0  0  0  0  0
  182.0650  179.3110  141.1360 N   0  0  0  0  0  0  0  0  0  0  0  0
  179.1810  181.2420  139.6410 C   0  0  0  0  0  3  0  0  0  0  0  0
  179.9090  182.3220  137.6030 C   0  0  0  0  0  3  0  0  0  0  0  0
  184.7590  177.3940  138.0550 C   0  0  1  0  0  3  0  0  0  0  0  0
  181.3790  180.7440  138.7260 C   0  0  0  0  0  0  0  0  0  0  0  0
  185.4780  178.6050  140.2420 C   0  0  0  0  0  0  0  0  0  0  0  0
  182.3980  178.6390  142.3890 C   0  0  0  0  0  1  0  0  0  0  0  0
  181.8980  178.9030  136.6810 C   0  0  0  0  0  1  0  0  0  0  0  0
  182.7140  178.7610  137.8810 N   0  0  0  0  0  0  0  0  0  0  0  0
  180.7140  179.7350  140.9040 C   0  0  0  0  0  0  0  0  0  0  0  0
  184.2940  179.1440  140.3000 C   0  0  0  0  0  0  0  0  0  0  0  0
  179.8030  179.4350  141.7250 O   0  0  0  0  0  0  0  0  0  0  0  0
  180.4040  180.5610  139.7260 C   0  0  0  0  0  0  0  0  0  0  0  0
  186.4870  178.8380  141.3300 C   0  0  1  0  0  3  0  0  0  0  0  0
  181.1280  181.6420  137.6780 C   0  0  0  0  0  3  0  0  0  0  0  0
  188.1390  177.8920  139.7320 C   0  0  0  0  0  3  0  0  0  0  0  0
  188.9490  178.9360  141.7110 O   0  0  0  0  0  0  0  0  0  0  0  0
  189.7160  178.0200  142.4010 N   0  0  0  0  0  2  0  0  0  0  0  0
  190.5420  178.7710  143.3330 C   0  0  0  0  0  2  0  0  0  0  0  0
  190.8680  176.7490  147.4650 C   0  0  0  0  0  2  0  0  0  0  0  0
  188.6290  177.1460  146.2680 C   0  0  0  0  0  2  0  0  0  0  0  0
  191.4460  176.2920  146.1230 C   0  0  0  0  0  2  0  0  0  0  0  0
  189.1340  177.3520  144.8280 C   0  0  0  0  0  2  0  0  0  0  0  0
  191.6750  177.4320  145.1240 C   0  0  0  0  0  2  0  0  0  0  0  0
  189.6050  177.6130  147.3560 C   0  0  0  0  0  2  0  0  0  0  0  0
  190.4030  178.2060  144.7370 C   0  0  0  0  0  3  0  0  0  0  0  0
  185.2090  176.3520  137.0270 C   0  0  0  0  0  2  0  0  0  0  0  0
  184.0840  175.5550  136.5550 N   0  0  0  0  0  2  0  0  0  0  0  0
  184.2690  173.5100  137.6730 O   0  0  0  0  0  1  0  0  0  0  0  0
  183.6230  174.7490  137.6750 C   0  0  2  0  0  3  0  0  0  0  0  0
  181.9590  176.0670  139.5520 O   0  0  0  0  0  1  0  0  0  0  0  0
  180.0880  175.6140  138.2220 C   0  0  0  0  0  0  0  0  0  0  0  0
  179.0670  175.9690  138.8650 O   0  0  0  0  0  0  0  0  0  0  0  0
  182.1000  174.5860  137.6220 C   0  0  1  0  0  3  0  0  0  0  0  0
  181.2990  175.0520  138.8540 C   0  0  1  0  0  3  0  0  0  0  0  0
  180.1730  175.7210  136.8150 N   0  0  0  0  0  2  0  0  0  0  0  0
  181.4790  175.2560  136.3920 C   0  0  0  0  0  2  0  0  0  0  0  0
  2 14  1  0  0  0  0
  3 10  1  0  0  0  0
  4 22  1  0  0  0  0
  4 25  1  0  0  0  0
  5 19  2  0  0  0  0
  5  9  1  0  0  0  0
  6 17  1  0  0  0  0
  6 12  1  0  0  0  0
  7  2  2  0  0  0  0
  7 24  1  0  0  0  0
  8 13  1  1  0  0  0
  8  5  1  0  0  0  0
  9 15  1  0  0  0  0
 10 21  2  0  0  0  0
 11 23  1  0  0  0  0
 11  3  2  0  0  0  0
 12 35  1  6  0  0  0
 12  2  1  0  0  0  0
 13 21  1  0  0  0  0
 14 19  2  0  0  0  0
 14 22  1  0  0  0  0
 16 17  1  0  0  0  0
 17  8  1  0  0  0  0
 18  9  1  0  0  0  0
 18 20  2  0  0  0  0
 21 18  1  0  0  0  0
 22  1  1  1  0  0  0
 23 13  2  0  0  0  0
 24  4  2  0  0  0  0
 25 26  1  0  0  0  0
 26 27  1  0  0  0  0
 27 34  1  0  0  0  0
 29 33  1  0  0  0  0
 30 28  1  0  0  0  0
 31 29  1  0  0  0  0
 32 30  1  0  0  0  0
 33 28  1  0  0  0  0
 34 31  1  0  0  0  0
 34 32  1  0  0  0  0
 36 35  1  0  0  0  0
 36 38  1  0  0  0  0
 38 37  1  6  0  0  0
 40 43  1  0  0  0  0
 40 41  2  0  0  0  0
 42 38  1  1  0  0  0
 42 43  1  0  0  0  0
 43 39  1  6  0  0  0
 44 40  1  0  0  0  0
 45 44  1  0  0  0  0
 45 42  1  0  0  0  0
M  END
>  <MODEL>
6

>  <REMARK>
 VINA RESULT:      -7.4      3.888      7.718
  Name = 
  8 active torsions:
  status: ('A' for Active; 'I' for Inactive)
    1  A    between atoms: C_7  and  O_29
    2  A    between atoms: N_15  and  C_30
    3  A    between atoms: N_15  and  C_39
    4  A    between atoms: C_21  and  C_28
    5  A    between atoms: C_21  and  N_33
    6  A    between atoms: C_22  and  C_39
    7  A    between atoms: O_29  and  N_33
    8  A    between atoms: C_30  and  C_36
                            x       y       z     vdW  Elec       q    Type
                         _______ _______ _______ _____ _____    ______ ____

>  <TORSDO>
F 8

$$$$
=
 OpenBabel11042411393D

 45 50  0  0  1  0  0  0  0  0999 V2000
  186.5320  174.8150  136.2390 C   0  0  0  0  0  1  0  0  0  0  0  0
  188.4800  177.0000  138.1930 C   0  0  0  0  0  0  0  0  0  0  0  0
  195.6800  174.6340  135.2070 C   0  0  0  0  0  3  0  0  0  0  0  0
  186.1960  177.2530  136.4970 C   0  0  0  0  0  0  0  0  0  0  0  0
  190.7220  175.1780  136.2790 C   0  0  0  0  0  0  0  0  0  0  0  0
  190.9740  177.3570  138.4880 C   0  0  0  0  0  2  0  0  0  0  0  0
  187.4910  177.7960  138.4810 N   0  0  0  0  0  0  0  0  0  0  0  0
  191.8790  176.0560  136.7080 C   0  0  2  0  0  3  0  0  0  0  0  0
  190.9200  173.7610  136.0990 N   0  0  0  0  0  0  0  0  0  0  0  0
  194.6340  173.7290  135.3980 C   0  0  0  0  0  3  0  0  0  0  0  0
  195.4820  175.9930  135.4600 C   0  0  0  0  0  3  0  0  0  0  0  0
  189.6700  176.8710  139.1310 C   0  0  1  0  0  3  0  0  0  0  0  0
  193.1920  175.5410  136.1420 C   0  0  0  0  0  0  0  0  0  0  0  0
  188.4410  176.2320  136.9290 C   0  0  0  0  0  0  0  0  0  0  0  0
  189.7840  172.8470  136.0150 C   0  0  0  0  0  1  0  0  0  0  0  0
  193.1520  176.6150  138.7280 C   0  0  0  0  0  1  0  0  0  0  0  0
  191.8560  176.2290  138.1840 N   0  0  0  0  0  0  0  0  0  0  0  0
  192.2500  173.2440  135.9450 C   0  0  0  0  0  0  0  0  0  0  0  0
  189.5340  175.6580  136.5170 C   0  0  0  0  0  0  0  0  0  0  0  0
  192.4410  172.0010  135.8450 O   0  0  0  0  0  0  0  0  0  0  0  0
  193.3860  174.1750  135.8560 C   0  0  0  0  0  0  0  0  0  0  0  0
  187.1840  176.1810  136.1070 C   0  0  1  0  0  3  0  0  0  0  0  0
  194.2420  176.4440  135.9230 C   0  0  0  0  0  3  0  0  0  0  0  0
  186.3540  177.9690  137.6210 C   0  0  0  0  0  3  0  0  0  0  0  0
  185.0970  177.4710  135.6630 O   0  0  0  0  0  0  0  0  0  0  0  0
  184.0400  176.5850  135.6080 N   0  0  0  0  0  2  0  0  0  0  0  0
  182.8550  177.3080  136.0430 C   0  0  0  0  0  2  0  0  0  0  0  0
  183.2230  177.7590  140.6180 C   0  0  0  0  0  2  0  0  0  0  0  0
  182.2110  179.5720  139.1040 C   0  0  0  0  0  2  0  0  0  0  0  0
  182.4350  176.7200  139.8150 C   0  0  0  0  0  2  0  0  0  0  0  0
  181.8930  178.7260  137.8580 C   0  0  0  0  0  2  0  0  0  0  0  0
  182.9860  176.4770  138.4050 C   0  0  0  0  0  2  0  0  0  0  0  0
  183.4350  179.0970  139.8980 C   0  0  0  0  0  2  0  0  0  0  0  0
  182.9920  177.7210  137.4990 C   0  0  0  0  0  3  0  0  0  0  0  0
  189.4600  177.4840  140.5180 C   0  0  0  0  0  2  0  0  0  0  0  0
  190.1690  176.7300  141.5420 N   0  0  0  0  0  2  0  0  0  0  0  0
  188.8170  178.2440  142.7020 O   0  0  0  0  0  1  0  0  0  0  0  0
  189.5760  177.0770  142.8250 C   0  0  2  0  0  3  0  0  0  0  0  0
  188.9160  177.0740  145.5810 O   0  0  0  0  0  1  0  0  0  0  0  0
  191.1700  176.7660  146.1270 C   0  0  0  0  0  0  0  0  0  0  0  0
  191.2760  176.8590  147.3770 O   0  0  0  0  0  0  0  0  0  0  0  0
  190.6660  177.2280  143.8920 C   0  0  1  0  0  3  0  0  0  0  0  0
  190.2060  177.5480  145.3280 C   0  0  1  0  0  3  0  0  0  0  0  0
  191.9750  175.8920  145.3610 N   0  0  0  0  0  2  0  0  0  0  0  0
  191.5870  176.0050  143.9690 C   0  0  0  0  0  2  0  0  0  0  0  0
  2  7  2  0  0  0  0
  2 12  1  0  0  0  0
  3 10  2  0  0  0  0
  3 11  1  0  0  0  0
  4 24  2  0  0  0  0
  5 19  2  0  0  0  0
  5  8  1  0  0  0  0
  6 12  1  0  0  0  0
  8 13  1  1  0  0  0
  8 17  1  0  0  0  0
  9  5  1  0  0  0  0
 10 21  1  0  0  0  0
 11 23  2  0  0  0  0
 12 35  1  1  0  0  0
 14  2  1  0  0  0  0
 15  9  1  0  0  0  0
 17  6  1  0  0  0  0
 17 16  1  0  0  0  0
 18  9  1  0  0  0  0
 19 14  2  0  0  0  0
 20 18  2  0  0  0  0
 21 18  1  0  0  0  0
 21 13  2  0  0  0  0
 22  1  1  1  0  0  0
 22  4  1  0  0  0  0
 22 14  1  0  0  0  0
 23 13  1  0  0  0  0
 24  7  1  0  0  0  0
 25  4  1  0  0  0  0
 26 25  1  0  0  0  0
 26 27  1  0  0  0  0
 27 34  1  0  0  0  0
 29 33  1  0  0  0  0
 30 28  1  0  0  0  0
 31 29  1  0  0  0  0
 32 30  1  0  0  0  0
 33 28  1  0  0  0  0
 34 31  1  0  0  0  0
 34 32  1  0  0  0  0
 35 36  1  0  0  0  0
 36 38  1  0  0  0  0
 38 37  1  6  0  0  0
 40 41  2  0  0  0  0
 42 38  1  6  0  0  0
 42 45  1  0  0  0  0
 42 43  1  0  0  0  0
 43 39  1  6  0  0  0
 43 40  1  0  0  0  0
 44 40  1  0  0  0  0
 45 44  1  0  0  0  0
M  END
>  <MODEL>
7

>  <REMARK>
 VINA RESULT:      -7.1      2.522      6.816
  Name = 
  8 active torsions:
  status: ('A' for Active; 'I' for Inactive)
    1  A    between atoms: C_7  and  O_29
    2  A    between atoms: N_15  and  C_30
    3  A    between atoms: N_15  and  C_39
    4  A    between atoms: C_21  and  C_28
    5  A    between atoms: C_21  and  N_33
    6  A    between atoms: C_22  and  C_39
    7  A    between atoms: O_29  and  N_33
    8  A    between atoms: C_30  and  C_36
                            x       y       z     vdW  Elec       q    Type
                         _______ _______ _______ _____ _____    ______ ____

>  <TORSDO>
F 8

$$$$
=
 OpenBabel11042411393D

 45 50  0  0  1  0  0  0  0  0999 V2000
  180.7520  177.3860  138.9620 C   0  0  0  0  0  1  0  0  0  0  0  0
  184.2090  177.5420  138.3200 C   0  0  0  0  0  0  0  0  0  0  0  0
  186.4880  178.4060  146.0930 C   0  0  0  0  0  3  0  0  0  0  0  0
  182.0680  175.7930  137.6010 C   0  0  0  0  0  0  0  0  0  0  0  0
  183.8600  177.8940  141.7500 C   0  0  0  0  0  0  0  0  0  0  0  0
  186.2570  177.9330  139.7640 C   0  0  0  0  0  2  0  0  0  0  0  0
  184.1210  177.0090  137.1360 N   0  0  0  0  0  0  0  0  0  0  0  0
  185.3540  177.7770  141.9650 C   0  0  2  0  0  3  0  0  0  0  0  0
  183.0840  178.8000  142.5610 N   0  0  0  0  0  0  0  0  0  0  0  0
  185.3170  178.9900  145.6040 C   0  0  0  0  0  3  0  0  0  0  0  0
  187.2600  177.5910  145.2620 C   0  0  0  0  0  3  0  0  0  0  0  0
  185.3490  178.4890  138.6620 C   0  0  1  0  0  3  0  0  0  0  0  0
  185.7120  177.9780  143.4280 C   0  0  0  0  0  0  0  0  0  0  0  0
  183.1910  177.2030  139.3390 C   0  0  0  0  0  0  0  0  0  0  0  0
  181.7290  179.1840  142.1730 C   0  0  0  0  0  1  0  0  0  0  0  0
  187.4170  179.0020  141.4570 C   0  0  0  0  0  1  0  0  0  0  0  0
  186.0680  178.6700  141.0150 N   0  0  0  0  0  0  0  0  0  0  0  0
  183.6260  179.2890  143.7950 C   0  0  0  0  0  0  0  0  0  0  0  0
  183.4290  177.5130  140.5800 C   0  0  0  0  0  0  0  0  0  0  0  0
  182.9820  180.1270  144.4850 O   0  0  0  0  0  0  0  0  0  0  0  0
  184.9180  178.7730  144.2780 C   0  0  0  0  0  0  0  0  0  0  0  0
  181.9490  176.4500  138.9540 C   0  0  1  0  0  3  0  0  0  0  0  0
  186.8720  177.3770  143.9370 C   0  0  0  0  0  3  0  0  0  0  0  0
  183.0770  176.0940  136.7680 C   0  0  0  0  0  3  0  0  0  0  0  0
  181.0870  174.8720  137.2270 O   0  0  0  0  0  0  0  0  0  0  0  0
  181.2010  173.5300  137.5250 N   0  0  0  0  0  2  0  0  0  0  0  0
  181.1900  172.8100  136.2610 C   0  0  0  0  0  2  0  0  0  0  0  0
  184.8830  170.2040  135.3430 C   0  0  0  0  0  2  0  0  0  0  0  0
  184.9600  172.2540  136.8910 C   0  0  0  0  0  2  0  0  0  0  0  0
  183.5700  169.8050  136.0210 C   0  0  0  0  0  2  0  0  0  0  0  0
  183.4610  172.3960  137.2130 C   0  0  0  0  0  2  0  0  0  0  0  0
  182.3790  170.6920  135.6390 C   0  0  0  0  0  2  0  0  0  0  0  0
  185.2590  171.6830  135.4990 C   0  0  0  0  0  2  0  0  0  0  0  0
  182.5480  172.1770  136.0020 C   0  0  0  0  0  3  0  0  0  0  0  0
  186.1560  178.9780  137.4570 C   0  0  0  0  0  2  0  0  0  0  0  0
  187.5870  178.8100  137.6750 N   0  0  0  0  0  2  0  0  0  0  0  0
  187.1610  177.6380  135.6970 O   0  0  0  0  0  1  0  0  0  0  0  0
  188.1530  178.2780  136.4440 C   0  0  2  0  0  3  0  0  0  0  0  0
  187.6750  175.7320  137.5920 O   0  0  0  0  0  1  0  0  0  0  0  0
  189.8600  175.0780  137.0680 C   0  0  0  0  0  0  0  0  0  0  0  0
  190.0580  173.9530  137.5950 O   0  0  0  0  0  0  0  0  0  0  0  0
  189.3150  177.3300  136.7600 C   0  0  1  0  0  3  0  0  0  0  0  0
  189.0140  176.1260  137.6740 C   0  0  1  0  0  3  0  0  0  0  0  0
  190.4360  175.4500  135.8320 N   0  0  0  0  0  2  0  0  0  0  0  0
  189.9920  176.7880  135.4960 C   0  0  0  0  0  2  0  0  0  0  0  0
  2 12  1  0  0  0  0
  2 14  1  0  0  0  0
  4 22  1  0  0  0  0
  5  9  1  0  0  0  0
  6 17  1  0  0  0  0
  7  2  2  0  0  0  0
  8  5  1  1  0  0  0
  8 13  1  0  0  0  0
  9 18  1  0  0  0  0
 10  3  1  0  0  0  0
 11  3  2  0  0  0  0
 12 35  1  6  0  0  0
 12  6  1  0  0  0  0
 13 23  2  0  0  0  0
 13 21  1  0  0  0  0
 14 19  2  0  0  0  0
 15  9  1  0  0  0  0
 17 16  1  0  0  0  0
 17  8  1  0  0  0  0
 18 21  1  0  0  0  0
 18 20  2  0  0  0  0
 19  5  2  0  0  0  0
 21 10  2  0  0  0  0
 22  1  1  6  0  0  0
 22 14  1  0  0  0  0
 23 11  1  0  0  0  0
 24  7  1  0  0  0  0
 24  4  2  0  0  0  0
 25 26  1  0  0  0  0
 25  4  1  0  0  0  0
 27 26  1  0  0  0  0
 28 33  1  0  0  0  0
 28 30  1  0  0  0  0
 29 31  1  0  0  0  0
 32 34  1  0  0  0  0
 32 30  1  0  0  0  0
 33 29  1  0  0  0  0
 34 27  1  0  0  0  0
 34 31  1  0  0  0  0
 35 36  1  0  0  0  0
 38 37  1  1  0  0  0
 38 36  1  0  0  0  0
 40 41  2  0  0  0  0
 40 43  1  0  0  0  0
 42 38  1  6  0  0  0
 42 43  1  0  0  0  0
 43 39  1  6  0  0  0
 44 40  1  0  0  0  0
 45 44  1  0  0  0  0
 45 42  1  0  0  0  0
M  END
>  <MODEL>
8

>  <REMARK>
 VINA RESULT:      -7.0      2.941      9.521
  Name = 
  8 active torsions:
  status: ('A' for Active; 'I' for Inactive)
    1  A    between atoms: C_7  and  O_29
    2  A    between atoms: N_15  and  C_30
    3  A    between atoms: N_15  and  C_39
    4  A    between atoms: C_21  and  C_28
    5  A    between atoms: C_21  and  N_33
    6  A    between atoms: C_22  and  C_39
    7  A    between atoms: O_29  and  N_33
    8  A    between atoms: C_30  and  C_36
                            x       y       z     vdW  Elec       q    Type
                         _______ _______ _______ _____ _____    ______ ____

>  <TORSDO>
F 8

$$$$
=
 OpenBabel11042411393D

 45 50  0  0  1  0  0  0  0  0999 V2000
  182.5970  178.0410  135.1670 C   0  0  0  0  0  1  0  0  0  0  0  0
  184.6040  177.4960  138.0070 C   0  0  0  0  0  0  0  0  0  0  0  0
  179.0550  179.9170  143.4570 C   0  0  0  0  0  3  0  0  0  0  0  0
  183.8440  175.9750  135.7120 C   0  0  0  0  0  0  0  0  0  0  0  0
  181.5960  178.7450  139.1910 C   0  0  0  0  0  0  0  0  0  0  0  0
  184.3000  177.9150  140.4900 C   0  0  0  0  0  2  0  0  0  0  0  0
  185.4370  176.7030  137.3970 N   0  0  0  0  0  0  0  0  0  0  0  0
  181.9830  178.4560  140.6260 C   0  0  2  0  0  3  0  0  0  0  0  0
  180.8430  179.9340  138.8730 N   0  0  0  0  0  0  0  0  0  0  0  0
  179.1720  180.5330  142.2090 C   0  0  0  0  0  3  0  0  0  0  0  0
  179.8490  178.8110  143.7660 C   0  0  0  0  0  3  0  0  0  0  0  0
  185.0480  178.3100  139.2120 C   0  0  1  0  0  3  0  0  0  0  0  0
  180.9210  178.9600  141.5890 C   0  0  0  0  0  0  0  0  0  0  0  0
  183.2080  177.5840  137.5210 C   0  0  0  0  0  0  0  0  0  0  0  0
  180.7410  180.4130  137.4970 C   0  0  0  0  0  1  0  0  0  0  0  0
  183.6190  179.1820  142.3030 C   0  0  0  0  0  1  0  0  0  0  0  0
  183.3570  178.9620  140.8860 N   0  0  0  0  0  0  0  0  0  0  0  0
  180.1380  180.6270  139.9120 C   0  0  0  0  0  0  0  0  0  0  0  0
  182.3210  178.1550  138.2830 C   0  0  0  0  0  0  0  0  0  0  0  0
  179.5240  181.7000  139.6580 O   0  0  0  0  0  0  0  0  0  0  0  0
  180.0950  180.0560  141.2680 C   0  0  0  0  0  0  0  0  0  0  0  0
  182.8170  176.9600  136.2120 C   0  0  1  0  0  3  0  0  0  0  0  0
  180.7760  178.3340  142.8350 C   0  0  0  0  0  3  0  0  0  0  0  0
  185.0640  175.8980  136.2690 C   0  0  0  0  0  3  0  0  0  0  0  0
  183.5000  175.1520  134.6370 O   0  0  0  0  0  0  0  0  0  0  0  0
  182.2990  174.4730  134.5970 N   0  0  0  0  0  2  0  0  0  0  0  0
  182.3570  173.4450  135.6240 C   0  0  0  0  0  2  0  0  0  0  0  0
  179.0410  173.4520  138.8290 C   0  0  0  0  0  2  0  0  0  0  0  0
  179.5890  175.4950  137.3700 C   0  0  0  0  0  2  0  0  0  0  0  0
  179.1610  172.5860  137.5720 C   0  0  0  0  0  2  0  0  0  0  0  0
  180.3500  174.8030  136.2250 C   0  0  0  0  0  2  0  0  0  0  0  0
  180.6010  172.4030  137.0790 C   0  0  0  0  0  2  0  0  0  0  0  0
  179.7410  174.8140  138.7360 C   0  0  0  0  0  2  0  0  0  0  0  0
  181.3150  173.7120  136.6990 C   0  0  0  0  0  3  0  0  0  0  0  0
  186.5620  178.3520  139.4310 C   0  0  0  0  0  2  0  0  0  0  0  0
  186.8920  178.9020  140.7400 N   0  0  0  0  0  2  0  0  0  0  0  0
  188.7810  177.7210  140.0310 O   0  0  0  0  0  1  0  0  0  0  0  0
  188.1910  178.3670  141.1200 C   0  0  2  0  0  3  0  0  0  0  0  0
  190.1750  178.2820  143.1420 O   0  0  0  0  0  1  0  0  0  0  0  0
  188.7110  177.1070  144.5390 C   0  0  0  0  0  0  0  0  0  0  0  0
  189.3570  176.7560  145.5590 O   0  0  0  0  0  0  0  0  0  0  0  0
  188.0470  177.4240  142.3200 C   0  0  1  0  0  3  0  0  0  0  0  0
  189.3000  177.1920  143.1870 C   0  0  1  0  0  3  0  0  0  0  0  0
  187.3420  177.4570  144.5900 N   0  0  0  0  0  2  0  0  0  0  0  0
  186.9090  177.8360  143.2600 C   0  0  0  0  0  2  0  0  0  0  0  0
  2 12  1  0  0  0  0
  3 11  1  0  0  0  0
  4 22  1  0  0  0  0
  4 24  2  0  0  0  0
  6 17  1  0  0  0  0
  7  2  2  0  0  0  0
  8  5  1  6  0  0  0
  8 17  1  0  0  0  0
  8 13  1  0  0  0  0
  9  5  1  0  0  0  0
  9 18  1  0  0  0  0
 10  3  2  0  0  0  0
 12 35  1  1  0  0  0
 12  6  1  0  0  0  0
 13 23  1  0  0  0  0
 14  2  1  0  0  0  0
 14 19  2  0  0  0  0
 15  9  1  0  0  0  0
 17 16  1  0  0  0  0
 18 21  1  0  0  0  0
 19  5  2  0  0  0  0
 20 18  2  0  0  0  0
 21 13  2  0  0  0  0
 21 10  1  0  0  0  0
 22  1  1  6  0  0  0
 22 14  1  0  0  0  0
 23 11  2  0  0  0  0
 24  7  1  0  0  0  0
 25  4  1  0  0  0  0
 26 25  1  0  0  0  0
 26 27  1  0  0  0  0
 27 34  1  0  0  0  0
 29 33  1  0  0  0  0
 30 28  1  0  0  0  0
 31 34  1  0  0  0  0
 31 29  1  0  0  0  0
 32 30  1  0  0  0  0
 33 28  1  0  0  0  0
 34 32  1  0  0  0  0
 35 36  1  0  0  0  0
 36 38  1  0  0  0  0
 38 37  1  6  0  0  0
 40 44  1  0  0  0  0
 40 41  2  0  0  0  0
 42 38  1  6  0  0  0
 42 43  1  0  0  0  0
 42 45  1  0  0  0  0
 43 39  1  1  0  0  0
 43 40  1  0  0  0  0
 45 44  1  0  0  0  0
M  END
>  <MODEL>
9

>  <REMARK>
 VINA RESULT:      -6.9      4.039     10.213
  Name = 
  8 active torsions:
  status: ('A' for Active; 'I' for Inactive)
    1  A    between atoms: C_7  and  O_29
    2  A    between atoms: N_15  and  C_30
    3  A    between atoms: N_15  and  C_39
    4  A    between atoms: C_21  and  C_28
    5  A    between atoms: C_21  and  N_33
    6  A    between atoms: C_22  and  C_39
    7  A    between atoms: O_29  and  N_33
    8  A    between atoms: C_30  and  C_36
                            x       y       z     vdW  Elec       q    Type
                         _______ _______ _______ _____ _____    ______ ____

>  <TORSDO>
F 8

$$$$
