=
 OpenBabel11032421253D

 34 36  0  0  1  0  0  0  0  0999 V2000
  186.7020  177.8060  144.2350 C   0  0  0  0  0  0  0  0  0  0  0  0
  187.1470  177.8470  145.5050 C   0  0  0  0  0  3  0  0  0  0  0  0
  184.7920  178.2080  142.6480 C   0  0  0  0  0  3  0  0  0  0  0  0
  183.1360  179.0300  144.7410 C   0  0  0  0  0  3  0  0  0  0  0  0
  183.4760  178.5960  142.3870 C   0  0  0  0  0  3  0  0  0  0  0  0
  185.3000  178.2260  143.9580 C   0  0  0  0  0  0  0  0  0  0  0  0
  184.4530  178.6410  145.0020 C   0  0  0  0  0  3  0  0  0  0  0  0
  182.6450  179.0020  143.4330 C   0  0  0  0  0  0  0  0  0  0  0  0
  181.2500  179.4430  143.1490 C   0  0  0  0  0  2  0  0  0  0  0  0
  180.7290  178.7670  140.8070 C   0  0  0  0  0  3  0  0  0  0  0  0
  179.5070  177.0710  141.1880 C   0  0  0  0  0  3  0  0  0  0  0  0
  179.8890  177.5470  142.3890 N   0  0  0  0  0  0  0  0  0  0  0  0
  180.0170  177.8120  140.1780 N   0  0  0  0  0  0  0  0  0  0  0  0
  180.6510  178.5930  142.1340 N   0  0  0  0  0  0  0  0  0  0  0  0
  187.8510  176.1000  143.0360 O   0  0  0  0  0  0  0  0  0  0  0  0
  187.5520  177.3220  143.1220 C   0  0  0  0  0  0  0  0  0  0  0  0
  187.9980  178.2350  142.1190 N   0  0  0  0  0  2  0  0  0  0  0  0
  188.7940  177.8020  141.0530 N   0  0  0  0  0  0  0  0  0  0  0  0
  188.7030  178.3810  139.9030 C   0  0  0  0  0  3  0  0  0  0  0  0
  190.1710  176.6050  139.0970 C   0  0  0  0  0  2  0  0  0  0  0  0
  188.3140  179.1140  137.0800 F   0  0  0  0  0  0  0  0  0  0  0  0
  188.7330  177.8530  137.4620 C   0  0  2  0  0  3  0  0  0  0  0  0
  190.1400  175.9720  136.7780 N   0  0  0  0  0  0  0  0  0  0  0  0
  190.4600  175.7090  138.1500 C   0  0  0  0  0  3  0  0  0  0  0  0
  189.5490  177.9320  138.7590 C   0  0  1  0  0  3  0  0  0  0  0  0
  189.6000  177.2600  136.3540 C   0  0  0  0  0  2  0  0  0  0  0  0
  188.7430  176.5960  146.7660 O   0  0  0  0  0  0  0  0  0  0  0  0
  188.5090  177.5690  145.9980 C   0  0  0  0  0  0  0  0  0  0  0  0
  189.5550  178.3790  145.5480 O   0  0  0  0  0  0  0  0  0  0  0  0
  190.4380  177.9770  144.5070 C   0  0  1  0  0  3  0  0  0  0  0  0
  191.1880  179.1810  143.9590 C   0  0  0  0  0  1  0  0  0  0  0  0
  191.9290  177.1040  146.1600 O   0  0  0  0  0  0  0  0  0  0  0  0
  191.7650  175.8570  144.2100 N   0  0  0  0  0  1  0  0  0  0  0  0
  191.4080  176.9680  145.0210 C   0  0  0  0  0  0  0  0  0  0  0  0
  1  2  2  0  0  0  0
  2 28  1  0  0  0  0
  3  6  1  0  0  0  0
  4  7  1  0  0  0  0
  5  3  2  0  0  0  0
  5  8  1  0  0  0  0
  6  1  1  0  0  0  0
  6  7  2  0  0  0  0
  8  4  2  0  0  0  0
  9  8  1  0  0  0  0
 10 14  1  0  0  0  0
 11 12  2  0  0  0  0
 13 10  2  0  0  0  0
 13 11  1  0  0  0  0
 14 12  1  0  0  0  0
 14  9  1  0  0  0  0
 15 16  2  0  0  0  0
 16  1  1  0  0  0  0
 17 16  1  0  0  0  0
 18 17  1  0  0  0  0
 19 18  2  0  0  0  0
 22 21  1  6  0  0  0
 22 25  1  0  0  0  0
 23 24  2  0  0  0  0
 24 20  1  0  0  0  0
 25 20  1  0  0  0  0
 25 19  1  1  0  0  0
 26 23  1  0  0  0  0
 26 22  1  0  0  0  0
 28 27  2  0  0  0  0
 29 28  1  0  0  0  0
 30 31  1  1  0  0  0
 30 34  1  0  0  0  0
 30 29  1  0  0  0  0
 33 34  1  0  0  0  0
 34 32  2  0  0  0  0
M  END
>  <MODEL>
1

>  <REMARK>
 VINA RESULT:      -8.9      0.000      0.000
  Name = 
  10 active torsions:
  status: ('A' for Active; 'I' for Inactive)
    1  A    between atoms: N_7  and  N_24
    2  A    between atoms: C_12  and  C_18
    3  A    between atoms: O_13  and  C_17
    4  A    between atoms: O_13  and  C_33
    5  A    between atoms: C_16  and  C_30
    6  A    between atoms: C_17  and  C_27
    7  A    between atoms: C_18  and  C_19
    8  A    between atoms: C_25  and  C_28
    9  A    between atoms: C_28  and  N_34
   10  A    between atoms: C_32  and  C_33
                            x       y       z     vdW  Elec       q    Type
                         _______ _______ _______ _____ _____    ______ ____

>  <TORSDO>
F 10

$$$$
=
 OpenBabel11032421253D

 34 36  0  0  1  0  0  0  0  0999 V2000
  183.8930  178.5450  143.3440 C   0  0  0  0  0  0  0  0  0  0  0  0
  182.7160  178.8580  143.9180 C   0  0  0  0  0  3  0  0  0  0  0  0
  185.1410  178.9350  145.4920 C   0  0  0  0  0  3  0  0  0  0  0  0
  187.2730  177.3540  144.6220 C   0  0  0  0  0  3  0  0  0  0  0  0
  186.2520  178.7420  146.3180 C   0  0  0  0  0  3  0  0  0  0  0  0
  185.0800  178.3420  144.2200 C   0  0  0  0  0  0  0  0  0  0  0  0
  186.1620  177.5480  143.7960 C   0  0  0  0  0  3  0  0  0  0  0  0
  187.3160  177.9480  145.8860 C   0  0  0  0  0  0  0  0  0  0  0  0
  188.5120  177.7660  146.7560 C   0  0  0  0  0  2  0  0  0  0  0  0
  190.6930  176.7560  146.0930 C   0  0  0  0  0  3  0  0  0  0  0  0
  191.2250  178.0660  144.5070 C   0  0  0  0  0  3  0  0  0  0  0  0
  190.0300  178.4860  144.9670 N   0  0  0  0  0  0  0  0  0  0  0  0
  191.6660  176.9870  145.1900 N   0  0  0  0  0  0  0  0  0  0  0  0
  189.7120  177.6580  145.9440 N   0  0  0  0  0  0  0  0  0  0  0  0
  183.4650  177.5100  141.2430 O   0  0  0  0  0  0  0  0  0  0  0  0
  184.0450  178.4360  141.8740 C   0  0  0  0  0  0  0  0  0  0  0  0
  184.8150  179.4040  141.1640 N   0  0  0  0  0  2  0  0  0  0  0  0
  184.9670  179.3290  139.7750 N   0  0  0  0  0  0  0  0  0  0  0  0
  185.7950  178.4840  139.2610 C   0  0  0  0  0  3  0  0  0  0  0  0
  187.4120  178.1440  137.4640 C   0  0  0  0  0  2  0  0  0  0  0  0
  183.7330  177.6290  137.3440 F   0  0  0  0  0  0  0  0  0  0  0  0
  185.0660  177.2950  137.1890 C   0  0  2  0  0  3  0  0  0  0  0  0
  186.7950  176.8940  135.5060 N   0  0  0  0  0  0  0  0  0  0  0  0
  187.7800  177.4580  136.3800 C   0  0  0  0  0  3  0  0  0  0  0  0
  185.9630  178.3910  137.7810 C   0  0  1  0  0  3  0  0  0  0  0  0
  185.3700  177.1430  135.7000 C   0  0  0  0  0  2  0  0  0  0  0  0
  180.3990  178.3490  143.6480 O   0  0  0  0  0  0  0  0  0  0  0  0
  181.4020  179.0120  143.2650 C   0  0  0  0  0  0  0  0  0  0  0  0
  181.2760  179.9550  142.2430 O   0  0  0  0  0  0  0  0  0  0  0  0
  180.2050  179.9260  141.3060 C   0  0  1  0  0  3  0  0  0  0  0  0
  179.1820  180.9990  141.6430 C   0  0  0  0  0  1  0  0  0  0  0  0
  181.3790  179.2370  139.3390 O   0  0  0  0  0  0  0  0  0  0  0  0
  180.5160  181.3910  139.2790 N   0  0  0  0  0  1  0  0  0  0  0  0
  180.7290  180.1430  139.9260 C   0  0  0  0  0  0  0  0  0  0  0  0
  1  2  2  0  0  0  0
  1  6  1  0  0  0  0
  3  5  1  0  0  0  0
  4  8  1  0  0  0  0
  6  3  2  0  0  0  0
  7  6  1  0  0  0  0
  7  4  2  0  0  0  0
  8  5  2  0  0  0  0
  8  9  1  0  0  0  0
 11 12  2  0  0  0  0
 11 13  1  0  0  0  0
 12 14  1  0  0  0  0
 13 10  2  0  0  0  0
 14 10  1  0  0  0  0
 14  9  1  0  0  0  0
 15 16  2  0  0  0  0
 16  1  1  0  0  0  0
 17 16  1  0  0  0  0
 18 17  1  0  0  0  0
 19 18  2  0  0  0  0
 20 25  1  0  0  0  0
 22 21  1  6  0  0  0
 22 25  1  0  0  0  0
 23 26  1  0  0  0  0
 23 24  2  0  0  0  0
 24 20  1  0  0  0  0
 25 19  1  1  0  0  0
 26 22  1  0  0  0  0
 28 27  2  0  0  0  0
 28  2  1  0  0  0  0
 29 28  1  0  0  0  0
 30 31  1  1  0  0  0
 30 29  1  0  0  0  0
 32 34  2  0  0  0  0
 33 34  1  0  0  0  0
 34 30  1  0  0  0  0
M  END
>  <MODEL>
2

>  <REMARK>
 VINA RESULT:      -8.3      3.542      7.700
  Name = 
  10 active torsions:
  status: ('A' for Active; 'I' for Inactive)
    1  A    between atoms: N_7  and  N_24
    2  A    between atoms: C_12  and  C_18
    3  A    between atoms: O_13  and  C_17
    4  A    between atoms: O_13  and  C_33
    5  A    between atoms: C_16  and  C_30
    6  A    between atoms: C_17  and  C_27
    7  A    between atoms: C_18  and  C_19
    8  A    between atoms: C_25  and  C_28
    9  A    between atoms: C_28  and  N_34
   10  A    between atoms: C_32  and  C_33
                            x       y       z     vdW  Elec       q    Type
                         _______ _______ _______ _____ _____    ______ ____

>  <TORSDO>
F 10

$$$$
=
 OpenBabel11032421253D

 34 36  0  0  1  0  0  0  0  0999 V2000
  190.8700  177.5020  141.9530 C   0  0  0  0  0  0  0  0  0  0  0  0
  191.6680  178.1980  142.7860 C   0  0  0  0  0  3  0  0  0  0  0  0
  190.5530  176.5610  139.6420 C   0  0  0  0  0  3  0  0  0  0  0  0
  193.2470  176.9730  139.0300 C   0  0  0  0  0  3  0  0  0  0  0  0
  191.0450  176.2100  138.3830 C   0  0  0  0  0  3  0  0  0  0  0  0
  191.3990  177.1220  140.6140 C   0  0  0  0  0  0  0  0  0  0  0  0
  192.7530  177.3240  140.2890 C   0  0  0  0  0  3  0  0  0  0  0  0
  192.3910  176.4190  138.0730 C   0  0  0  0  0  0  0  0  0  0  0  0
  192.9210  176.0180  136.7400 C   0  0  0  0  0  2  0  0  0  0  0  0
  194.0380  173.8890  137.3980 C   0  0  0  0  0  3  0  0  0  0  0  0
  196.0530  174.3890  136.9470 C   0  0  0  0  0  3  0  0  0  0  0  0
  195.3090  175.4620  136.6200 N   0  0  0  0  0  0  0  0  0  0  0  0
  195.2880  173.3870  137.4360 N   0  0  0  0  0  0  0  0  0  0  0  0
  194.0620  175.1320  136.8990 N   0  0  0  0  0  0  0  0  0  0  0  0
  189.2250  176.0010  142.7930 O   0  0  0  0  0  0  0  0  0  0  0  0
  189.4810  177.1410  142.3180 C   0  0  0  0  0  0  0  0  0  0  0  0
  188.4340  178.1000  142.1700 N   0  0  0  0  0  2  0  0  0  0  0  0
  187.1150  177.7870  142.5150 N   0  0  0  0  0  0  0  0  0  0  0  0
  186.1480  178.5520  142.1310 C   0  0  0  0  0  3  0  0  0  0  0  0
  184.4470  178.7480  143.8700 C   0  0  0  0  0  2  0  0  0  0  0  0
  183.9320  178.1830  140.2320 F   0  0  0  0  0  0  0  0  0  0  0  0
  183.7570  178.8010  141.4570 C   0  0  2  0  0  3  0  0  0  0  0  0
  182.1480  179.1190  143.2730 N   0  0  0  0  0  0  0  0  0  0  0  0
  183.2200  179.1400  144.2220 C   0  0  0  0  0  3  0  0  0  0  0  0
  184.7370  178.2270  142.4890 C   0  0  1  0  0  3  0  0  0  0  0  0
  182.3260  178.5650  141.9340 C   0  0  0  0  0  2  0  0  0  0  0  0
  190.6980  179.6170  144.4430 O   0  0  0  0  0  0  0  0  0  0  0  0
  191.3940  178.5980  144.1790 C   0  0  0  0  0  0  0  0  0  0  0  0
  191.8790  177.7890  145.2090 O   0  0  0  0  0  0  0  0  0  0  0  0
  191.1800  176.6390  145.6700 C   0  0  1  0  0  3  0  0  0  0  0  0
  192.0710  175.8110  146.5820 C   0  0  0  0  0  1  0  0  0  0  0  0
  188.8380  177.1030  145.8100 O   0  0  0  0  0  0  0  0  0  0  0  0
  190.0330  177.4110  147.7760 N   0  0  0  0  0  1  0  0  0  0  0  0
  189.9480  177.0510  146.4030 C   0  0  0  0  0  0  0  0  0  0  0  0
  1 16  1  0  0  0  0
  1  2  2  0  0  0  0
  2 28  1  0  0  0  0
  3  6  1  0  0  0  0
  4  7  1  0  0  0  0
  5  3  2  0  0  0  0
  6  1  1  0  0  0  0
  7  6  2  0  0  0  0
  8  5  1  0  0  0  0
  8  4  2  0  0  0  0
  9 14  1  0  0  0  0
  9  8  1  0  0  0  0
 10 13  2  0  0  0  0
 11 13  1  0  0  0  0
 12 14  1  0  0  0  0
 12 11  2  0  0  0  0
 14 10  1  0  0  0  0
 16 15  2  0  0  0  0
 17 16  1  0  0  0  0
 17 18  1  0  0  0  0
 19 18  2  0  0  0  0
 20 24  1  0  0  0  0
 22 21  1  6  0  0  0
 22 26  1  0  0  0  0
 22 25  1  0  0  0  0
 23 24  2  0  0  0  0
 25 19  1  6  0  0  0
 25 20  1  0  0  0  0
 26 23  1  0  0  0  0
 28 27  2  0  0  0  0
 28 29  1  0  0  0  0
 29 30  1  0  0  0  0
 30 34  1  0  0  0  0
 30 31  1  1  0  0  0
 32 34  2  0  0  0  0
 34 33  1  0  0  0  0
M  END
>  <MODEL>
3

>  <REMARK>
 VINA RESULT:      -8.2      2.729      8.792
  Name = 
  10 active torsions:
  status: ('A' for Active; 'I' for Inactive)
    1  A    between atoms: N_7  and  N_24
    2  A    between atoms: C_12  and  C_18
    3  A    between atoms: O_13  and  C_17
    4  A    between atoms: O_13  and  C_33
    5  A    between atoms: C_16  and  C_30
    6  A    between atoms: C_17  and  C_27
    7  A    between atoms: C_18  and  C_19
    8  A    between atoms: C_25  and  C_28
    9  A    between atoms: C_28  and  N_34
   10  A    between atoms: C_32  and  C_33
                            x       y       z     vdW  Elec       q    Type
                         _______ _______ _______ _____ _____    ______ ____

>  <TORSDO>
F 10

$$$$
=
 OpenBabel11032421253D

 34 36  0  0  1  0  0  0  0  0999 V2000
  190.8630  177.1990  141.3110 C   0  0  0  0  0  0  0  0  0  0  0  0
  191.8560  177.7290  142.0500 C   0  0  0  0  0  3  0  0  0  0  0  0
  192.4610  176.8500  139.4000 C   0  0  0  0  0  3  0  0  0  0  0  0
  190.3720  176.1230  137.6960 C   0  0  0  0  0  3  0  0  0  0  0  0
  192.7300  176.5050  138.0730 C   0  0  0  0  0  3  0  0  0  0  0  0
  191.1460  176.8380  139.8940 C   0  0  0  0  0  0  0  0  0  0  0  0
  190.1050  176.4680  139.0230 C   0  0  0  0  0  3  0  0  0  0  0  0
  191.6870  176.1370  137.2210 C   0  0  0  0  0  0  0  0  0  0  0  0
  191.9710  175.7970  135.7980 C   0  0  0  0  0  2  0  0  0  0  0  0
  193.7790  174.1200  135.4290 C   0  0  0  0  0  3  0  0  0  0  0  0
  192.6500  172.3310  135.6190 C   0  0  0  0  0  3  0  0  0  0  0  0
  191.7910  173.3490  135.8160 N   0  0  0  0  0  0  0  0  0  0  0  0
  193.9010  172.7800  135.3760 N   0  0  0  0  0  0  0  0  0  0  0  0
  192.5090  174.4500  135.7010 N   0  0  0  0  0  0  0  0  0  0  0  0
  189.1930  175.9250  142.4300 O   0  0  0  0  0  0  0  0  0  0  0  0
  189.4990  177.0050  141.8550 C   0  0  0  0  0  0  0  0  0  0  0  0
  188.5400  178.0580  141.7640 N   0  0  0  0  0  2  0  0  0  0  0  0
  187.2480  177.9030  142.2770 N   0  0  0  0  0  0  0  0  0  0  0  0
  186.9850  178.2690  143.4870 C   0  0  0  0  0  3  0  0  0  0  0  0
  185.6950  178.0070  145.5420 C   0  0  0  0  0  3  0  0  0  0  0  0
  184.5040  179.2510  142.2480 F   0  0  0  0  0  0  0  0  0  0  0  0
  184.7030  179.2750  143.6160 C   0  0  2  0  0  3  0  0  0  0  0  0
  183.5480  179.0660  145.7630 N   0  0  0  0  0  2  0  0  0  0  0  0
  184.7070  178.4400  146.3280 C   0  0  0  0  0  3  0  0  0  0  0  0
  185.6100  178.1140  144.0440 C   0  0  1  0  0  3  0  0  0  0  0  0
  183.3530  179.1480  144.3190 C   0  0  0  0  0  2  0  0  0  0  0  0
  191.7790  179.2750  143.8690 O   0  0  0  0  0  0  0  0  0  0  0  0
  191.8340  178.0740  143.4840 C   0  0  0  0  0  0  0  0  0  0  0  0
  191.8190  177.0340  144.4160 O   0  0  0  0  0  0  0  0  0  0  0  0
  191.3020  177.1960  145.7320 C   0  0  1  0  0  3  0  0  0  0  0  0
  189.7950  176.9920  145.7350 C   0  0  0  0  0  1  0  0  0  0  0  0
  192.2750  175.0730  146.2490 O   0  0  0  0  0  0  0  0  0  0  0  0
  192.1680  176.5740  148.0150 N   0  0  0  0  0  1  0  0  0  0  0  0
  191.9460  176.2180  146.6560 C   0  0  0  0  0  0  0  0  0  0  0  0
  1 16  1  0  0  0  0
  1  2  2  0  0  0  0
  2 28  1  0  0  0  0
  3  6  1  0  0  0  0
  4  7  1  0  0  0  0
  5  3  2  0  0  0  0
  6  1  1  0  0  0  0
  7  6  2  0  0  0  0
  8  4  2  0  0  0  0
  8  5  1  0  0  0  0
  9  8  1  0  0  0  0
 10 14  1  0  0  0  0
 11 12  2  0  0  0  0
 13 10  2  0  0  0  0
 13 11  1  0  0  0  0
 14  9  1  0  0  0  0
 14 12  1  0  0  0  0
 16 15  2  0  0  0  0
 17 16  1  0  0  0  0
 17 18  1  0  0  0  0
 18 19  2  0  0  0  0
 20 24  2  0  0  0  0
 22 21  1  6  0  0  0
 22 25  1  0  0  0  0
 22 26  1  0  0  0  0
 23 24  1  0  0  0  0
 25 19  1  6  0  0  0
 25 20  1  0  0  0  0
 26 23  1  0  0  0  0
 28 27  2  0  0  0  0
 28 29  1  0  0  0  0
 29 30  1  0  0  0  0
 30 31  1  6  0  0  0
 30 34  1  0  0  0  0
 32 34  2  0  0  0  0
 34 33  1  0  0  0  0
M  END
>  <MODEL>
4

>  <REMARK>
 VINA RESULT:      -8.1      2.884      8.647
  Name = 
  10 active torsions:
  status: ('A' for Active; 'I' for Inactive)
    1  A    between atoms: N_7  and  N_24
    2  A    between atoms: C_12  and  C_18
    3  A    between atoms: O_13  and  C_17
    4  A    between atoms: O_13  and  C_33
    5  A    between atoms: C_16  and  C_30
    6  A    between atoms: C_17  and  C_27
    7  A    between atoms: C_18  and  C_19
    8  A    between atoms: C_25  and  C_28
    9  A    between atoms: C_28  and  N_34
   10  A    between atoms: C_32  and  C_33
                            x       y       z     vdW  Elec       q    Type
                         _______ _______ _______ _____ _____    ______ ____

>  <TORSDO>
F 10

$$$$
=
 OpenBabel11032421253D

 34 36  0  0  1  0  0  0  0  0999 V2000
  188.4160  178.2070  140.5450 C   0  0  0  0  0  0  0  0  0  0  0  0
  189.3270  178.1790  139.5530 C   0  0  0  0  0  3  0  0  0  0  0  0
  188.3880  176.7230  142.5760 C   0  0  0  0  0  3  0  0  0  0  0  0
  190.1840  178.3960  143.9080 C   0  0  0  0  0  3  0  0  0  0  0  0
  188.8070  176.4090  143.8710 C   0  0  0  0  0  3  0  0  0  0  0  0
  188.8590  177.8770  141.9280 C   0  0  0  0  0  0  0  0  0  0  0  0
  189.7640  178.7090  142.6120 C   0  0  0  0  0  3  0  0  0  0  0  0
  189.7080  177.2410  144.5370 C   0  0  0  0  0  0  0  0  0  0  0  0
  190.1320  176.9210  145.9280 C   0  0  0  0  0  2  0  0  0  0  0  0
  187.8380  177.5670  146.6580 C   0  0  0  0  0  3  0  0  0  0  0  0
  188.2680  178.2530  148.6230 C   0  0  0  0  0  3  0  0  0  0  0  0
  189.4380  177.8450  148.0940 N   0  0  0  0  0  0  0  0  0  0  0  0
  187.2480  178.0920  147.7500 N   0  0  0  0  0  0  0  0  0  0  0  0
  189.1510  177.4160  146.8790 N   0  0  0  0  0  0  0  0  0  0  0  0
  186.4720  178.2520  139.1710 O   0  0  0  0  0  0  0  0  0  0  0  0
  186.9890  178.5160  140.2910 C   0  0  0  0  0  0  0  0  0  0  0  0
  186.1870  179.0770  141.3290 N   0  0  0  0  0  2  0  0  0  0  0  0
  184.8360  179.3700  141.1180 N   0  0  0  0  0  0  0  0  0  0  0  0
  183.9230  178.5920  141.5960 C   0  0  0  0  0  3  0  0  0  0  0  0
  181.9320  177.9750  140.3260 C   0  0  0  0  0  3  0  0  0  0  0  0
  182.0930  179.7520  143.5870 F   0  0  0  0  0  0  0  0  0  0  0  0
  181.6870  178.7810  142.6910 C   0  0  2  0  0  3  0  0  0  0  0  0
  179.7700  178.0150  141.3760 N   0  0  0  0  0  2  0  0  0  0  0  0
  180.6540  177.5920  140.3310 C   0  0  0  0  0  3  0  0  0  0  0  0
  182.4790  178.8970  141.3810 C   0  0  1  0  0  3  0  0  0  0  0  0
  180.1990  178.9640  142.4000 C   0  0  0  0  0  2  0  0  0  0  0  0
  189.0550  179.7620  137.7880 O   0  0  0  0  0  0  0  0  0  0  0  0
  189.1390  178.5540  138.1390 C   0  0  0  0  0  0  0  0  0  0  0  0
  189.1120  177.5370  137.1820 O   0  0  0  0  0  0  0  0  0  0  0  0
  189.0870  176.1580  137.5320 C   0  0  1  0  0  3  0  0  0  0  0  0
  187.9240  175.4610  136.8450 C   0  0  0  0  0  1  0  0  0  0  0  0
  190.9470  175.8300  136.0640 O   0  0  0  0  0  0  0  0  0  0  0  0
  190.9360  174.5030  137.9680 N   0  0  0  0  0  1  0  0  0  0  0  0
  190.3710  175.5090  137.1380 C   0  0  0  0  0  0  0  0  0  0  0  0
  1  6  1  0  0  0  0
  2  1  2  0  0  0  0
  3  5  1  0  0  0  0
  4  8  1  0  0  0  0
  5  8  2  0  0  0  0
  6  3  2  0  0  0  0
  6  7  1  0  0  0  0
  7  4  2  0  0  0  0
  8  9  1  0  0  0  0
  9 14  1  0  0  0  0
 10 14  1  0  0  0  0
 10 13  2  0  0  0  0
 12 11  2  0  0  0  0
 13 11  1  0  0  0  0
 14 12  1  0  0  0  0
 15 16  2  0  0  0  0
 16  1  1  0  0  0  0
 16 17  1  0  0  0  0
 18 17  1  0  0  0  0
 18 19  2  0  0  0  0
 20 24  2  0  0  0  0
 20 25  1  0  0  0  0
 22 21  1  1  0  0  0
 23 26  1  0  0  0  0
 24 23  1  0  0  0  0
 25 19  1  1  0  0  0
 25 22  1  0  0  0  0
 26 22  1  0  0  0  0
 27 28  2  0  0  0  0
 28  2  1  0  0  0  0
 29 30  1  0  0  0  0
 29 28  1  0  0  0  0
 30 31  1  6  0  0  0
 32 34  2  0  0  0  0
 34 30  1  0  0  0  0
 34 33  1  0  0  0  0
M  END
>  <MODEL>
5

>  <REMARK>
 VINA RESULT:      -7.8      3.416      8.051
  Name = 
  10 active torsions:
  status: ('A' for Active; 'I' for Inactive)
    1  A    between atoms: N_7  and  N_24
    2  A    between atoms: C_12  and  C_18
    3  A    between atoms: O_13  and  C_17
    4  A    between atoms: O_13  and  C_33
    5  A    between atoms: C_16  and  C_30
    6  A    between atoms: C_17  and  C_27
    7  A    between atoms: C_18  and  C_19
    8  A    between atoms: C_25  and  C_28
    9  A    between atoms: C_28  and  N_34
   10  A    between atoms: C_32  and  C_33
                            x       y       z     vdW  Elec       q    Type
                         _______ _______ _______ _____ _____    ______ ____

>  <TORSDO>
F 10

$$$$
=
 OpenBabel11032421253D

 34 36  0  0  1  0  0  0  0  0999 V2000
  184.6620  178.5240  143.8890 C   0  0  0  0  0  0  0  0  0  0  0  0
  184.6700  178.7640  145.2140 C   0  0  0  0  0  3  0  0  0  0  0  0
  183.3030  178.3450  141.7810 C   0  0  0  0  0  3  0  0  0  0  0  0
  180.9790  179.0990  143.1330 C   0  0  0  0  0  3  0  0  0  0  0  0
  182.0920  178.4370  141.0910 C   0  0  0  0  0  3  0  0  0  0  0  0
  183.3710  178.6290  143.1550 C   0  0  0  0  0  0  0  0  0  0  0  0
  182.1910  179.0070  143.8220 C   0  0  0  0  0  3  0  0  0  0  0  0
  180.9280  178.8100  141.7660 C   0  0  0  0  0  0  0  0  0  0  0  0
  179.6420  178.9350  141.0240 C   0  0  0  0  0  2  0  0  0  0  0  0
  179.6240  179.8420  138.7010 C   0  0  0  0  0  3  0  0  0  0  0  0
  180.0510  181.8820  139.1110 C   0  0  0  0  0  3  0  0  0  0  0  0
  180.0110  181.2520  140.3010 N   0  0  0  0  0  0  0  0  0  0  0  0
  179.8120  181.0280  138.0910 N   0  0  0  0  0  0  0  0  0  0  0  0
  179.7380  179.9900  140.0290 N   0  0  0  0  0  0  0  0  0  0  0  0
  186.3410  176.9530  143.2730 O   0  0  0  0  0  0  0  0  0  0  0  0
  185.8870  178.1240  143.1580 C   0  0  0  0  0  0  0  0  0  0  0  0
  186.5320  179.0530  142.2880 N   0  0  0  0  0  2  0  0  0  0  0  0
  187.6840  178.6980  141.5780 N   0  0  0  0  0  0  0  0  0  0  0  0
  187.6020  178.3790  140.3300 C   0  0  0  0  0  3  0  0  0  0  0  0
  189.8810  177.5270  140.5200 C   0  0  0  0  0  2  0  0  0  0  0  0
  187.6640  177.4540  137.5380 F   0  0  0  0  0  0  0  0  0  0  0  0
  188.5080  176.9370  138.5040 C   0  0  2  0  0  3  0  0  0  0  0  0
  190.7530  176.0310  138.8530 N   0  0  0  0  0  0  0  0  0  0  0  0
  190.7890  176.6180  140.1600 C   0  0  0  0  0  3  0  0  0  0  0  0
  188.8240  178.0030  139.5620 C   0  0  1  0  0  3  0  0  0  0  0  0
  189.8050  176.4840  137.8390 C   0  0  0  0  0  2  0  0  0  0  0  0
  185.9390  179.7010  147.0060 O   0  0  0  0  0  0  0  0  0  0  0  0
  185.8330  178.8090  146.1210 C   0  0  0  0  0  0  0  0  0  0  0  0
  186.7960  177.8030  146.0140 O   0  0  0  0  0  0  0  0  0  0  0  0
  188.1470  177.9930  146.4190 C   0  0  1  0  0  3  0  0  0  0  0  0
  188.4670  177.1120  147.6160 C   0  0  0  0  0  1  0  0  0  0  0  0
  189.0300  176.5360  144.7400 O   0  0  0  0  0  0  0  0  0  0  0  0
  190.0110  178.6360  144.8500 N   0  0  0  0  0  1  0  0  0  0  0  0
  189.0670  177.6680  145.2910 C   0  0  0  0  0  0  0  0  0  0  0  0
  1  2  2  0  0  0  0
  2 28  1  0  0  0  0
  3  6  1  0  0  0  0
  4  7  1  0  0  0  0
  5  8  1  0  0  0  0
  5  3  2  0  0  0  0
  6  7  2  0  0  0  0
  6  1  1  0  0  0  0
  8  4  2  0  0  0  0
  9  8  1  0  0  0  0
 10 14  1  0  0  0  0
 11 12  2  0  0  0  0
 13 10  2  0  0  0  0
 13 11  1  0  0  0  0
 14 12  1  0  0  0  0
 14  9  1  0  0  0  0
 16 15  2  0  0  0  0
 16  1  1  0  0  0  0
 17 16  1  0  0  0  0
 18 17  1  0  0  0  0
 19 18  2  0  0  0  0
 22 21  1  6  0  0  0
 22 25  1  0  0  0  0
 23 24  2  0  0  0  0
 24 20  1  0  0  0  0
 25 19  1  1  0  0  0
 25 20  1  0  0  0  0
 26 22  1  0  0  0  0
 26 23  1  0  0  0  0
 28 27  2  0  0  0  0
 29 28  1  0  0  0  0
 29 30  1  0  0  0  0
 30 31  1  1  0  0  0
 32 34  2  0  0  0  0
 33 34  1  0  0  0  0
 34 30  1  0  0  0  0
M  END
>  <MODEL>
6

>  <REMARK>
 VINA RESULT:      -7.7      1.929      2.744
  Name = 
  10 active torsions:
  status: ('A' for Active; 'I' for Inactive)
    1  A    between atoms: N_7  and  N_24
    2  A    between atoms: C_12  and  C_18
    3  A    between atoms: O_13  and  C_17
    4  A    between atoms: O_13  and  C_33
    5  A    between atoms: C_16  and  C_30
    6  A    between atoms: C_17  and  C_27
    7  A    between atoms: C_18  and  C_19
    8  A    between atoms: C_25  and  C_28
    9  A    between atoms: C_28  and  N_34
   10  A    between atoms: C_32  and  C_33
                            x       y       z     vdW  Elec       q    Type
                         _______ _______ _______ _____ _____    ______ ____

>  <TORSDO>
F 10

$$$$
=
 OpenBabel11032421253D

 34 36  0  0  1  0  0  0  0  0999 V2000
  189.1280  176.9490  138.2760 C   0  0  0  0  0  0  0  0  0  0  0  0
  188.1070  177.0660  137.4050 C   0  0  0  0  0  3  0  0  0  0  0  0
  191.5810  176.3920  138.2920 C   0  0  0  0  0  3  0  0  0  0  0  0
  191.1220  174.0210  136.8900 C   0  0  0  0  0  3  0  0  0  0  0  0
  192.6500  175.5550  137.9660 C   0  0  0  0  0  3  0  0  0  0  0  0
  190.2670  176.0580  137.9210 C   0  0  0  0  0  0  0  0  0  0  0  0
  190.0530  174.8590  137.2160 C   0  0  0  0  0  3  0  0  0  0  0  0
  192.4220  174.3670  137.2690 C   0  0  0  0  0  0  0  0  0  0  0  0
  193.5670  173.4890  136.8970 C   0  0  0  0  0  2  0  0  0  0  0  0
  195.7490  174.6810  137.0810 C   0  0  0  0  0  3  0  0  0  0  0  0
  196.2970  174.1200  139.0560 C   0  0  0  0  0  3  0  0  0  0  0  0
  195.1000  173.5510  138.8130 N   0  0  0  0  0  0  0  0  0  0  0  0
  196.7290  174.8340  137.9930 N   0  0  0  0  0  0  0  0  0  0  0  0
  194.7730  173.9150  137.5880 N   0  0  0  0  0  0  0  0  0  0  0  0
  189.1650  178.9080  139.6270 O   0  0  0  0  0  0  0  0  0  0  0  0
  189.1280  177.6490  139.5820 C   0  0  0  0  0  0  0  0  0  0  0  0
  189.0440  176.8960  140.7920 N   0  0  0  0  0  2  0  0  0  0  0  0
  189.0340  177.5320  142.0380 N   0  0  0  0  0  0  0  0  0  0  0  0
  188.5140  176.9410  143.0610 C   0  0  0  0  0  3  0  0  0  0  0  0
  187.1080  177.5470  144.9610 C   0  0  0  0  0  3  0  0  0  0  0  0
  190.8070  177.1790  144.8890 F   0  0  0  0  0  0  0  0  0  0  0  0
  189.5190  176.9640  145.3460 C   0  0  2  0  0  3  0  0  0  0  0  0
  187.9940  177.4590  147.1940 N   0  0  0  0  0  2  0  0  0  0  0  0
  186.8940  177.5010  146.2780 C   0  0  0  0  0  3  0  0  0  0  0  0
  188.5000  177.6070  144.3950 C   0  0  1  0  0  3  0  0  0  0  0  0
  189.3740  177.5820  146.7350 C   0  0  0  0  0  2  0  0  0  0  0  0
  186.8650  179.0260  136.8440 O   0  0  0  0  0  0  0  0  0  0  0  0
  186.9310  177.9500  137.5000 C   0  0  0  0  0  0  0  0  0  0  0  0
  185.8570  177.5430  138.2950 O   0  0  0  0  0  0  0  0  0  0  0  0
  184.6250  178.2540  138.3380 C   0  0  1  0  0  3  0  0  0  0  0  0
  183.4880  177.3150  138.7080 C   0  0  0  0  0  1  0  0  0  0  0  0
  184.1800  180.4790  139.0930 O   0  0  0  0  0  0  0  0  0  0  0  0
  185.4200  179.1640  140.5490 N   0  0  0  0  0  1  0  0  0  0  0  0
  184.7110  179.3620  139.3320 C   0  0  0  0  0  0  0  0  0  0  0  0
  1 16  1  0  0  0  0
  2 28  1  0  0  0  0
  2  1  2  0  0  0  0
  4  7  2  0  0  0  0
  4  8  1  0  0  0  0
  5  3  1  0  0  0  0
  6  1  1  0  0  0  0
  6  3  2  0  0  0  0
  7  6  1  0  0  0  0
  8  5  2  0  0  0  0
  9  8  1  0  0  0  0
  9 14  1  0  0  0  0
 10 14  1  0  0  0  0
 10 13  2  0  0  0  0
 12 11  2  0  0  0  0
 13 11  1  0  0  0  0
 14 12  1  0  0  0  0
 16 15  2  0  0  0  0
 16 17  1  0  0  0  0
 17 18  1  0  0  0  0
 18 19  2  0  0  0  0
 20 24  2  0  0  0  0
 22 21  1  6  0  0  0
 22 26  1  0  0  0  0
 24 23  1  0  0  0  0
 25 19  1  6  0  0  0
 25 20  1  0  0  0  0
 25 22  1  0  0  0  0
 26 23  1  0  0  0  0
 27 28  2  0  0  0  0
 28 29  1  0  0  0  0
 29 30  1  0  0  0  0
 30 31  1  1  0  0  0
 30 34  1  0  0  0  0
 32 34  2  0  0  0  0
 34 33  1  0  0  0  0
M  END
>  <MODEL>
7

>  <REMARK>
 VINA RESULT:      -7.6      3.955     10.280
  Name = 
  10 active torsions:
  status: ('A' for Active; 'I' for Inactive)
    1  A    between atoms: N_7  and  N_24
    2  A    between atoms: C_12  and  C_18
    3  A    between atoms: O_13  and  C_17
    4  A    between atoms: O_13  and  C_33
    5  A    between atoms: C_16  and  C_30
    6  A    between atoms: C_17  and  C_27
    7  A    between atoms: C_18  and  C_19
    8  A    between atoms: C_25  and  C_28
    9  A    between atoms: C_28  and  N_34
   10  A    between atoms: C_32  and  C_33
                            x       y       z     vdW  Elec       q    Type
                         _______ _______ _______ _____ _____    ______ ____

>  <TORSDO>
F 10

$$$$
=
 OpenBabel11032421253D

 34 36  0  0  1  0  0  0  0  0999 V2000
  183.9900  178.5170  143.1380 C   0  0  0  0  0  0  0  0  0  0  0  0
  182.9030  178.8010  143.8810 C   0  0  0  0  0  3  0  0  0  0  0  0
  185.4130  178.5020  145.2120 C   0  0  0  0  0  3  0  0  0  0  0  0
  187.5970  177.4980  143.7900 C   0  0  0  0  0  3  0  0  0  0  0  0
  186.6200  178.2510  145.8700 C   0  0  0  0  0  3  0  0  0  0  0  0
  185.2800  178.2550  143.8350 C   0  0  0  0  0  0  0  0  0  0  0  0
  186.3890  177.7480  143.1330 C   0  0  0  0  0  3  0  0  0  0  0  0
  187.7120  177.7450  145.1610 C   0  0  0  0  0  0  0  0  0  0  0  0
  189.0070  177.5050  145.8570 C   0  0  0  0  0  2  0  0  0  0  0  0
  190.5810  178.7140  144.3490 C   0  0  0  0  0  3  0  0  0  0  0  0
  191.6670  177.0630  143.5690 C   0  0  0  0  0  3  0  0  0  0  0  0
  190.7680  176.5560  144.4340 N   0  0  0  0  0  0  0  0  0  0  0  0
  191.5760  178.4100  143.4930 N   0  0  0  0  0  0  0  0  0  0  0  0
  190.1080  177.5940  144.9140 N   0  0  0  0  0  0  0  0  0  0  0  0
  184.4470  179.4460  140.9940 O   0  0  0  0  0  0  0  0  0  0  0  0
  183.9450  178.4980  141.6570 C   0  0  0  0  0  0  0  0  0  0  0  0
  183.3680  177.3830  140.9780 N   0  0  0  0  0  2  0  0  0  0  0  0
  183.3210  177.3360  139.5800 N   0  0  0  0  0  0  0  0  0  0  0  0
  183.0570  176.2240  138.9800 C   0  0  0  0  0  3  0  0  0  0  0  0
  181.7280  176.8140  137.0190 C   0  0  0  0  0  2  0  0  0  0  0  0
  185.3740  176.1020  137.1700 F   0  0  0  0  0  0  0  0  0  0  0  0
  184.2340  176.8200  136.8590 C   0  0  2  0  0  3  0  0  0  0  0  0
  182.8140  177.5190  134.9940 N   0  0  0  0  0  0  0  0  0  0  0  0
  181.6580  177.4260  135.8350 C   0  0  0  0  0  3  0  0  0  0  0  0
  182.9990  176.1620  137.4910 C   0  0  1  0  0  3  0  0  0  0  0  0
  184.0660  176.8560  135.3420 C   0  0  0  0  0  2  0  0  0  0  0  0
  180.5410  178.4930  144.0350 O   0  0  0  0  0  0  0  0  0  0  0  0
  181.5170  179.0010  143.4190 C   0  0  0  0  0  0  0  0  0  0  0  0
  181.3000  179.8190  142.3070 O   0  0  0  0  0  0  0  0  0  0  0  0
  180.1220  179.7330  141.5140 C   0  0  1  0  0  3  0  0  0  0  0  0
  179.3050  181.0090  141.6440 C   0  0  0  0  0  1  0  0  0  0  0  0
  181.4010  180.1800  139.5430 O   0  0  0  0  0  0  0  0  0  0  0  0
  179.7740  178.5410  139.3220 N   0  0  0  0  0  1  0  0  0  0  0  0
  180.4850  179.5070  140.0850 C   0  0  0  0  0  0  0  0  0  0  0  0
  1  6  1  0  0  0  0
  1  2  2  0  0  0  0
  3  5  1  0  0  0  0
  4  8  1  0  0  0  0
  6  3  2  0  0  0  0
  7  4  2  0  0  0  0
  7  6  1  0  0  0  0
  8  9  1  0  0  0  0
  8  5  2  0  0  0  0
 10 14  1  0  0  0  0
 11 12  2  0  0  0  0
 12 14  1  0  0  0  0
 13 11  1  0  0  0  0
 13 10  2  0  0  0  0
 14  9  1  0  0  0  0
 15 16  2  0  0  0  0
 16  1  1  0  0  0  0
 17 16  1  0  0  0  0
 18 17  1  0  0  0  0
 19 18  2  0  0  0  0
 20 25  1  0  0  0  0
 22 21  1  6  0  0  0
 22 25  1  0  0  0  0
 23 26  1  0  0  0  0
 23 24  2  0  0  0  0
 24 20  1  0  0  0  0
 25 19  1  1  0  0  0
 26 22  1  0  0  0  0
 28  2  1  0  0  0  0
 28 27  2  0  0  0  0
 29 28  1  0  0  0  0
 30 31  1  6  0  0  0
 30 29  1  0  0  0  0
 32 34  2  0  0  0  0
 33 34  1  0  0  0  0
 34 30  1  0  0  0  0
M  END
>  <MODEL>
8

>  <REMARK>
 VINA RESULT:      -7.6      3.880      8.176
  Name = 
  10 active torsions:
  status: ('A' for Active; 'I' for Inactive)
    1  A    between atoms: N_7  and  N_24
    2  A    between atoms: C_12  and  C_18
    3  A    between atoms: O_13  and  C_17
    4  A    between atoms: O_13  and  C_33
    5  A    between atoms: C_16  and  C_30
    6  A    between atoms: C_17  and  C_27
    7  A    between atoms: C_18  and  C_19
    8  A    between atoms: C_25  and  C_28
    9  A    between atoms: C_28  and  N_34
   10  A    between atoms: C_32  and  C_33
                            x       y       z     vdW  Elec       q    Type
                         _______ _______ _______ _____ _____    ______ ____

>  <TORSDO>
F 10

$$$$
=
 OpenBabel11032421253D

 34 36  0  0  1  0  0  0  0  0999 V2000
  190.7990  176.6720  138.7550 C   0  0  0  0  0  0  0  0  0  0  0  0
  189.7670  177.1880  138.0610 C   0  0  0  0  0  3  0  0  0  0  0  0
  191.3160  174.5820  137.4550 C   0  0  0  0  0  3  0  0  0  0  0  0
  194.0160  175.2750  137.2820 C   0  0  0  0  0  3  0  0  0  0  0  0
  192.2110  173.7440  136.7860 C   0  0  0  0  0  3  0  0  0  0  0  0
  191.7560  175.7770  138.0480 C   0  0  0  0  0  0  0  0  0  0  0  0
  193.1190  176.1130  137.9510 C   0  0  0  0  0  3  0  0  0  0  0  0
  193.5600  174.0910  136.6940 C   0  0  0  0  0  0  0  0  0  0  0  0
  194.5190  173.1830  136.0050 C   0  0  0  0  0  2  0  0  0  0  0  0
  195.4530  171.8550  137.8980 C   0  0  0  0  0  3  0  0  0  0  0  0
  194.6670  169.9410  137.4130 C   0  0  0  0  0  3  0  0  0  0  0  0
  194.2230  170.7900  136.4650 N   0  0  0  0  0  0  0  0  0  0  0  0
  195.4380  170.5760  138.3230 N   0  0  0  0  0  0  0  0  0  0  0  0
  194.7140  171.9720  136.7860 N   0  0  0  0  0  0  0  0  0  0  0  0
  191.9160  177.6900  140.5940 O   0  0  0  0  0  0  0  0  0  0  0  0
  190.9820  176.9400  140.2010 C   0  0  0  0  0  0  0  0  0  0  0  0
  190.0740  176.3790  141.1490 N   0  0  0  0  0  2  0  0  0  0  0  0
  190.2200  176.6230  142.5190 N   0  0  0  0  0  0  0  0  0  0  0  0
  189.5910  177.6060  143.0700 C   0  0  0  0  0  3  0  0  0  0  0  0
  188.3780  177.8170  145.1780 C   0  0  0  0  0  3  0  0  0  0  0  0
  191.9870  177.0710  144.6920 F   0  0  0  0  0  0  0  0  0  0  0  0
  190.7090  176.8830  145.1840 C   0  0  2  0  0  3  0  0  0  0  0  0
  189.3600  177.0160  147.2210 N   0  0  0  0  0  2  0  0  0  0  0  0
  188.2280  177.4320  146.4470 C   0  0  0  0  0  3  0  0  0  0  0  0
  189.7350  177.8740  144.5310 C   0  0  1  0  0  3  0  0  0  0  0  0
  190.7190  177.1050  146.6940 C   0  0  0  0  0  2  0  0  0  0  0  0
  189.0520  179.3730  138.7030 O   0  0  0  0  0  0  0  0  0  0  0  0
  188.7580  178.1590  138.5230 C   0  0  0  0  0  0  0  0  0  0  0  0
  187.4460  177.7170  138.7060 O   0  0  0  0  0  0  0  0  0  0  0  0
  186.3790  178.1160  137.8520 C   0  0  1  0  0  3  0  0  0  0  0  0
  186.1590  177.0770  136.7640 C   0  0  0  0  0  1  0  0  0  0  0  0
  184.1530  177.5110  138.4830 O   0  0  0  0  0  0  0  0  0  0  0  0
  185.0290  179.3610  139.5760 N   0  0  0  0  0  1  0  0  0  0  0  0
  185.1290  178.2910  138.6460 C   0  0  0  0  0  0  0  0  0  0  0  0
  1 16  1  0  0  0  0
  2 28  1  0  0  0  0
  2  1  2  0  0  0  0
  3  6  1  0  0  0  0
  4  7  1  0  0  0  0
  5  3  2  0  0  0  0
  6  1  1  0  0  0  0
  7  6  2  0  0  0  0
  8  5  1  0  0  0  0
  8  4  2  0  0  0  0
  9  8  1  0  0  0  0
  9 14  1  0  0  0  0
 10 13  2  0  0  0  0
 11 13  1  0  0  0  0
 12 14  1  0  0  0  0
 12 11  2  0  0  0  0
 14 10  1  0  0  0  0
 16 15  2  0  0  0  0
 16 17  1  0  0  0  0
 17 18  1  0  0  0  0
 18 19  2  0  0  0  0
 20 24  2  0  0  0  0
 22 21  1  6  0  0  0
 22 26  1  0  0  0  0
 24 23  1  0  0  0  0
 25 19  1  6  0  0  0
 25 20  1  0  0  0  0
 25 22  1  0  0  0  0
 26 23  1  0  0  0  0
 28 27  2  0  0  0  0
 28 29  1  0  0  0  0
 30 31  1  6  0  0  0
 30 34  1  0  0  0  0
 30 29  1  0  0  0  0
 32 34  2  0  0  0  0
 34 33  1  0  0  0  0
M  END
>  <MODEL>
9

>  <REMARK>
 VINA RESULT:      -7.6      4.130     10.551
  Name = 
  10 active torsions:
  status: ('A' for Active; 'I' for Inactive)
    1  A    between atoms: N_7  and  N_24
    2  A    between atoms: C_12  and  C_18
    3  A    between atoms: O_13  and  C_17
    4  A    between atoms: O_13  and  C_33
    5  A    between atoms: C_16  and  C_30
    6  A    between atoms: C_17  and  C_27
    7  A    between atoms: C_18  and  C_19
    8  A    between atoms: C_25  and  C_28
    9  A    between atoms: C_28  and  N_34
   10  A    between atoms: C_32  and  C_33
                            x       y       z     vdW  Elec       q    Type
                         _______ _______ _______ _____ _____    ______ ____

>  <TORSDO>
F 10

$$$$
