=
 OpenBabel11032421193D

 52 55  0  0  1  0  0  0  0  0999 V2000
  189.5540  177.0430  145.3330 C   0  0  0  0  0  0  0  0  0  0  0  0
  187.8310  178.1470  147.2700 C   0  0  0  0  0  3  0  0  0  0  0  0
  190.0270  177.1600  146.6820 C   0  0  0  0  0  0  0  0  0  0  0  0
  190.6450  176.4130  144.6070 C   0  0  0  0  0  0  0  0  0  0  0  0
  192.0810  176.5740  147.8530 N   0  0  0  0  0  1  0  0  0  0  0  0
  187.4370  178.0390  145.9790 C   0  0  0  0  0  0  0  0  0  0  0  0
  188.3470  177.4470  144.9510 C   0  0  0  0  0  3  0  0  0  0  0  0
  191.2560  176.6670  146.6950 C   0  0  0  0  0  0  0  0  0  0  0  0
  191.6530  176.1980  145.3990 N   0  0  0  0  0  0  0  0  0  0  0  0
  189.1870  177.7060  147.7940 C   0  0  0  0  0  2  0  0  0  0  0  0
  185.0150  178.2520  146.6870 C   0  0  0  0  0  1  0  0  0  0  0  0
  186.0640  178.5370  145.6170 C   0  0  2  0  0  3  0  0  0  0  0  0
  185.6210  177.9630  144.2750 C   0  0  0  0  0  2  0  0  0  0  0  0
  184.5040  178.7580  143.6870 C   0  0  0  0  0  3  0  0  0  0  0  0
  183.9230  178.3710  142.5540 C   0  0  0  0  0  3  0  0  0  0  0  0
  182.8610  179.0610  141.9620 O   0  0  0  0  0  0  0  0  0  0  0  0
  182.3510  178.7770  140.6570 C   0  0  2  0  0  3  0  0  0  0  0  0
  180.2230  179.4980  141.4640 O   0  0  0  0  0  0  0  0  0  0  0  0
  180.9880  179.3750  140.4710 C   0  0  0  0  0  0  0  0  0  0  0  0
  180.5800  179.7800  139.1980 O   0  0  0  0  0  0  0  0  0  0  0  0
  182.1180  181.3490  138.5450 O   0  0  0  0  0  1  0  0  0  0  0  0
  180.7620  181.1130  138.7450 C   0  0  0  0  0  2  0  0  0  0  0  0
  182.3490  177.3920  140.3860 O   0  0  0  0  0  0  0  0  0  0  0  0
  182.4710  177.2540  139.0790 O   0  0  0  0  0  0  0  0  0  0  0  0
  182.7650  175.9000  138.8860 C   0  0  0  0  0  2  0  0  0  0  0  0
  184.0630  176.7860  136.9580 C   0  0  0  0  0  1  0  0  0  0  0  0
  183.1600  175.6650  137.4380 C   0  0  1  0  0  3  0  0  0  0  0  0
  185.1180  174.1030  137.4910 C   0  0  0  0  0  3  0  0  0  0  0  0
  183.2030  173.1930  137.0650 C   0  0  0  0  0  0  0  0  0  0  0  0
  183.8150  174.3670  137.2910 N   0  0  0  0  0  0  0  0  0  0  0  0
  181.7370  173.0290  136.8550 C   0  0  0  0  0  1  0  0  0  0  0  0
  184.1090  172.1570  137.0800 C   0  0  0  0  0  3  0  0  0  0  0  0
  185.3360  172.7420  137.3550 C   0  0  0  0  0  3  0  0  0  0  0  0
  190.6460  176.0400  143.1620 C   0  0  0  0  0  2  0  0  0  0  0  0
  191.5960  178.0310  142.3210 O   0  0  0  0  0  0  0  0  0  0  0  0
  190.6600  177.2490  142.2810 C   0  0  0  0  0  0  0  0  0  0  0  0
  189.5590  177.4690  141.2900 C   0  0  0  0  0  2  0  0  0  0  0  0
  190.1180  177.5760  139.8790 C   0  0  0  0  0  2  0  0  0  0  0  0
  190.7920  175.9920  138.0340 C   0  0  0  0  0  0  0  0  0  0  0  0
  190.5410  176.8620  137.1560 O   0  0  0  0  0  0  0  0  0  0  0  0
  190.5790  176.2750  139.4180 N   0  0  0  0  0  2  0  0  0  0  0  0
  191.3470  174.6660  137.6280 C   0  0  0  0  0  2  0  0  0  0  0  0
  191.8850  173.6130  134.9830 C   0  0  0  0  0  1  0  0  0  0  0  0
  193.4780  173.4660  136.8750 C   0  0  2  0  0  3  0  0  0  0  0  0
  193.0680  174.2910  135.6600 C   0  0  2  0  0  3  0  0  0  0  0  0
  192.7650  174.8080  137.0670 C   0  0  1  0  0  0  0  0  0  0  0  0
  193.5940  175.9690  137.5390 C   0  0  0  0  0  0  0  0  0  0  0  0
  194.0870  176.8880  136.6200 O   0  0  0  0  0  0  0  0  0  0  0  0
  193.8800  176.0920  138.7580 O   0  0  0  0  0  1  0  0  0  0  0  0
  194.9960  173.5340  137.0200 C   0  0  0  0  0  2  0  0  0  0  0  0
  196.5410  173.4420  138.8340 O   0  0  0  0  0  1  0  0  0  0  0  0
  195.4350  172.8030  138.2730 C   0  0  0  0  0  2  0  0  0  0  0  0
  1  3  1  0  0  0  0
  2 10  1  0  0  0  0
  3  8  2  0  0  0  0
  3 10  1  0  0  0  0
  4  1  1  0  0  0  0
  4  9  2  0  0  0  0
  6  2  2  0  0  0  0
  7  1  2  0  0  0  0
  7  6  1  0  0  0  0
  8  5  1  0  0  0  0
  9  8  1  0  0  0  0
 12  6  1  0  0  0  0
 12 11  1  1  0  0  0
 13 12  1  0  0  0  0
 14 13  1  0  0  0  0
 15 14  2  0  0  0  0
 16 15  1  0  0  0  0
 17 23  1  1  0  0  0
 17 16  1  0  0  0  0
 19 17  1  0  0  0  0
 19 18  2  0  0  0  0
 20 19  1  0  0  0  0
 21 22  1  0  0  0  0
 22 20  1  0  0  0  0
 24 23  1  0  0  0  0
 25 24  1  0  0  0  0
 27 26  1  1  0  0  0
 27 25  1  0  0  0  0
 29 32  2  0  0  0  0
 29 30  1  0  0  0  0
 30 27  1  0  0  0  0
 30 28  1  0  0  0  0
 31 29  1  0  0  0  0
 32 33  1  0  0  0  0
 33 28  2  0  0  0  0
 34  4  1  0  0  0  0
 36 35  2  0  0  0  0
 36 34  1  0  0  0  0
 37 36  1  0  0  0  0
 38 37  1  0  0  0  0
 39 41  1  0  0  0  0
 40 39  2  0  0  0  0
 41 38  1  0  0  0  0
 42 39  1  0  0  0  0
 44 50  1  1  0  0  0
 44 46  1  0  0  0  0
 45 43  1  6  0  0  0
 45 44  1  0  0  0  0
 45 46  1  0  0  0  0
 46 47  1  0  0  0  0
 46 42  1  1  0  0  0
 47 49  1  0  0  0  0
 48 47  2  0  0  0  0
 50 52  1  0  0  0  0
 52 51  1  0  0  0  0
M  END
>  <MODEL>
1

>  <REMARK>
 VINA RESULT:      -7.8      0.000      0.000
  Name = 
  23 active torsions:
  status: ('A' for Active; 'I' for Inactive)
    1  A    between atoms: C_2  and  O_23
    2  A    between atoms: C_2  and  C_28
    3  A    between atoms: C_4  and  C_9
    4  A    between atoms: C_4  and  C_52
    5  A    between atoms: O_5  and  C_40
    6  A    between atoms: O_5  and  C_49
    7  A    between atoms: C_6  and  C_15
    8  A    between atoms: C_6  and  C_37
    9  A    between atoms: C_8  and  C_11
   10  A    between atoms: C_8  and  C_22
   11  A    between atoms: C_10  and  C_22
   12  A    between atoms: C_13  and  O_27
   13  A    between atoms: C_13  and  O_35
   14  A    between atoms: C_13  and  C_49
   15  A    between atoms: C_14  and  C_33
   16  A    between atoms: C_14  and  C_43
   17  A    between atoms: C_16  and  C_25
   18  A    between atoms: C_16  and  N_46
   19  A    between atoms: O_23  and  O_27
   20  A    between atoms: C_25  and  C_43
   21  A    between atoms: N_26  and  C_28
   22  A    between atoms: O_35  and  C_44
   23  A    between atoms: C_37  and  C_38
                            x       y       z     vdW  Elec       q    Type
                         _______ _______ _______ _____ _____    ______ ____

>  <TORSDO>
F 23

$$$$
=
 OpenBabel11032421193D

 52 55  0  0  1  0  0  0  0  0999 V2000
  189.4100  177.1060  145.2190 C   0  0  0  0  0  0  0  0  0  0  0  0
  187.7740  178.2510  147.2070 C   0  0  0  0  0  3  0  0  0  0  0  0
  189.9330  177.2270  146.5490 C   0  0  0  0  0  0  0  0  0  0  0  0
  190.4640  176.4540  144.4600 C   0  0  0  0  0  0  0  0  0  0  0  0
  192.0180  176.6170  147.6510 N   0  0  0  0  0  1  0  0  0  0  0  0
  187.3330  178.1400  145.9320 C   0  0  0  0  0  0  0  0  0  0  0  0
  188.1960  177.5260  144.8770 C   0  0  0  0  0  3  0  0  0  0  0  0
  191.1530  176.7140  146.5220 C   0  0  0  0  0  0  0  0  0  0  0  0
  191.4960  176.2290  145.2170 N   0  0  0  0  0  0  0  0  0  0  0  0
  189.1420  177.7930  147.6860 C   0  0  0  0  0  2  0  0  0  0  0  0
  184.8880  178.1730  146.5920 C   0  0  0  0  0  1  0  0  0  0  0  0
  185.9560  178.6570  145.6150 C   0  0  2  0  0  3  0  0  0  0  0  0
  185.5650  178.3020  144.1840 C   0  0  0  0  0  2  0  0  0  0  0  0
  184.1160  178.5570  143.9380 C   0  0  0  0  0  3  0  0  0  0  0  0
  183.6370  178.5860  142.6970 C   0  0  0  0  0  3  0  0  0  0  0  0
  182.2870  178.8030  142.4000 O   0  0  0  0  0  0  0  0  0  0  0  0
  181.8010  179.1690  141.1060 C   0  0  2  0  0  3  0  0  0  0  0  0
  179.5300  178.6580  141.6360 O   0  0  0  0  0  0  0  0  0  0  0  0
  180.3390  179.4960  141.1550 C   0  0  0  0  0  0  0  0  0  0  0  0
  179.8900  180.7220  140.6590 O   0  0  0  0  0  0  0  0  0  0  0  0
  179.7190  182.2670  138.9740 O   0  0  0  0  0  1  0  0  0  0  0  0
  179.6170  180.9140  139.2780 C   0  0  0  0  0  2  0  0  0  0  0  0
  182.0760  178.1740  140.1450 O   0  0  0  0  0  0  0  0  0  0  0  0
  182.6180  178.7810  139.1050 O   0  0  0  0  0  0  0  0  0  0  0  0
  182.5580  177.8430  138.0690 C   0  0  0  0  0  2  0  0  0  0  0  0
  183.0760  175.4250  138.3400 C   0  0  0  0  0  1  0  0  0  0  0  0
  183.6670  176.8190  138.2440 C   0  0  1  0  0  3  0  0  0  0  0  0
  184.4200  176.4970  135.8750 C   0  0  0  0  0  3  0  0  0  0  0  0
  185.8100  177.5330  137.1690 C   0  0  0  0  0  0  0  0  0  0  0  0
  184.6220  176.9060  137.1400 N   0  0  0  0  0  0  0  0  0  0  0  0
  186.3890  178.1930  138.3730 C   0  0  0  0  0  1  0  0  0  0  0  0
  186.4080  177.5050  135.9300 C   0  0  0  0  0  3  0  0  0  0  0  0
  185.5160  176.8430  135.1020 C   0  0  0  0  0  3  0  0  0  0  0  0
  190.4080  176.0710  143.0190 C   0  0  0  0  0  2  0  0  0  0  0  0
  191.5100  178.0040  142.2290 O   0  0  0  0  0  0  0  0  0  0  0  0
  190.5460  177.2630  142.1250 C   0  0  0  0  0  0  0  0  0  0  0  0
  189.5370  177.5130  141.0460 C   0  0  0  0  0  2  0  0  0  0  0  0
  190.2100  177.5650  139.6830 C   0  0  0  0  0  2  0  0  0  0  0  0
  190.8840  175.8640  137.9460 C   0  0  0  0  0  0  0  0  0  0  0  0
  190.5830  176.6550  137.0110 O   0  0  0  0  0  0  0  0  0  0  0  0
  190.6990  176.2460  139.3100 N   0  0  0  0  0  2  0  0  0  0  0  0
  191.4700  174.5270  137.6270 C   0  0  0  0  0  2  0  0  0  0  0  0
  191.7530  173.5110  134.9290 C   0  0  0  0  0  1  0  0  0  0  0  0
  193.5130  173.3260  136.6630 C   0  0  2  0  0  3  0  0  0  0  0  0
  192.9980  174.1710  135.5030 C   0  0  2  0  0  3  0  0  0  0  0  0
  192.8310  174.6680  136.9380 C   0  0  1  0  0  0  0  0  0  0  0  0
  193.7080  175.8180  137.3480 C   0  0  0  0  0  0  0  0  0  0  0  0
  194.0940  175.9570  138.6760 O   0  0  0  0  0  1  0  0  0  0  0  0
  194.0620  176.6800  136.5030 O   0  0  0  0  0  0  0  0  0  0  0  0
  195.0380  173.3820  136.6670 C   0  0  0  0  0  2  0  0  0  0  0  0
  196.9260  173.1120  138.0980 O   0  0  0  0  0  1  0  0  0  0  0  0
  195.5800  172.7780  137.9470 C   0  0  0  0  0  2  0  0  0  0  0  0
  1  3  1  0  0  0  0
  2 10  1  0  0  0  0
  3 10  1  0  0  0  0
  4  9  2  0  0  0  0
  4  1  1  0  0  0  0
  6  2  2  0  0  0  0
  7  1  2  0  0  0  0
  7  6  1  0  0  0  0
  8  3  2  0  0  0  0
  8  5  1  0  0  0  0
  9  8  1  0  0  0  0
 12  6  1  0  0  0  0
 12 11  1  1  0  0  0
 13 12  1  0  0  0  0
 14 13  1  0  0  0  0
 15 14  2  0  0  0  0
 16 15  1  0  0  0  0
 17 23  1  6  0  0  0
 17 19  1  0  0  0  0
 17 16  1  0  0  0  0
 19 18  2  0  0  0  0
 20 19  1  0  0  0  0
 21 22  1  0  0  0  0
 22 20  1  0  0  0  0
 24 23  1  0  0  0  0
 25 27  1  0  0  0  0
 25 24  1  0  0  0  0
 27 26  1  6  0  0  0
 28 30  1  0  0  0  0
 29 31  1  0  0  0  0
 30 29  1  0  0  0  0
 30 27  1  0  0  0  0
 32 29  2  0  0  0  0
 33 28  2  0  0  0  0
 33 32  1  0  0  0  0
 34  4  1  0  0  0  0
 36 35  2  0  0  0  0
 36 34  1  0  0  0  0
 37 36  1  0  0  0  0
 38 37  1  0  0  0  0
 39 41  1  0  0  0  0
 40 39  2  0  0  0  0
 41 38  1  0  0  0  0
 42 39  1  0  0  0  0
 44 50  1  6  0  0  0
 44 46  1  0  0  0  0
 45 43  1  1  0  0  0
 45 44  1  0  0  0  0
 45 46  1  0  0  0  0
 46 47  1  0  0  0  0
 46 42  1  1  0  0  0
 47 48  1  0  0  0  0
 49 47  2  0  0  0  0
 50 52  1  0  0  0  0
 52 51  1  0  0  0  0
M  END
>  <MODEL>
2

>  <REMARK>
 VINA RESULT:      -7.8      1.245      1.924
  Name = 
  23 active torsions:
  status: ('A' for Active; 'I' for Inactive)
    1  A    between atoms: C_2  and  O_23
    2  A    between atoms: C_2  and  C_28
    3  A    between atoms: C_4  and  C_9
    4  A    between atoms: C_4  and  C_52
    5  A    between atoms: O_5  and  C_40
    6  A    between atoms: O_5  and  C_49
    7  A    between atoms: C_6  and  C_15
    8  A    between atoms: C_6  and  C_37
    9  A    between atoms: C_8  and  C_11
   10  A    between atoms: C_8  and  C_22
   11  A    between atoms: C_10  and  C_22
   12  A    between atoms: C_13  and  O_27
   13  A    between atoms: C_13  and  O_35
   14  A    between atoms: C_13  and  C_49
   15  A    between atoms: C_14  and  C_33
   16  A    between atoms: C_14  and  C_43
   17  A    between atoms: C_16  and  C_25
   18  A    between atoms: C_16  and  N_46
   19  A    between atoms: O_23  and  O_27
   20  A    between atoms: C_25  and  C_43
   21  A    between atoms: N_26  and  C_28
   22  A    between atoms: O_35  and  C_44
   23  A    between atoms: C_37  and  C_38
                            x       y       z     vdW  Elec       q    Type
                         _______ _______ _______ _____ _____    ______ ____

>  <TORSDO>
F 23

$$$$
=
 OpenBabel11032421193D

 52 55  0  0  1  0  0  0  0  0999 V2000
  189.7580  177.7340  145.2880 C   0  0  0  0  0  0  0  0  0  0  0  0
  187.5340  177.4170  146.9890 C   0  0  0  0  0  3  0  0  0  0  0  0
  189.9520  177.0900  146.5550 C   0  0  0  0  0  0  0  0  0  0  0  0
  191.0640  177.7050  144.6500 C   0  0  0  0  0  0  0  0  0  0  0  0
  191.8410  176.0740  147.7100 N   0  0  0  0  0  1  0  0  0  0  0  0
  187.4050  178.0410  145.7940 C   0  0  0  0  0  0  0  0  0  0  0  0
  188.5810  178.2040  144.8870 C   0  0  0  0  0  3  0  0  0  0  0  0
  191.2320  176.7590  146.6180 C   0  0  0  0  0  0  0  0  0  0  0  0
  191.9380  177.1420  145.4300 N   0  0  0  0  0  0  0  0  0  0  0  0
  188.8370  176.8450  147.5220 C   0  0  0  0  0  2  0  0  0  0  0  0
  185.0210  178.4580  146.5420 C   0  0  0  0  0  1  0  0  0  0  0  0
  186.0460  178.5670  145.4170 C   0  0  2  0  0  3  0  0  0  0  0  0
  185.5300  177.8700  144.1620 C   0  0  0  0  0  2  0  0  0  0  0  0
  185.7620  178.7020  142.9460 C   0  0  0  0  0  3  0  0  0  0  0  0
  186.2060  178.1450  141.8210 C   0  0  0  0  0  3  0  0  0  0  0  0
  186.4260  178.8660  140.6430 O   0  0  0  0  0  0  0  0  0  0  0  0
  186.0050  178.4310  139.3480 C   0  0  2  0  0  3  0  0  0  0  0  0
  188.2330  178.8930  138.6250 O   0  0  0  0  0  0  0  0  0  0  0  0
  187.1810  178.2230  138.4430 C   0  0  0  0  0  0  0  0  0  0  0  0
  187.0950  177.2950  137.4020 O   0  0  0  0  0  0  0  0  0  0  0  0
  186.9390  175.0400  137.0180 O   0  0  0  0  0  1  0  0  0  0  0  0
  186.2520  176.1550  137.4860 C   0  0  0  0  0  2  0  0  0  0  0  0
  185.0650  179.3180  138.7800 O   0  0  0  0  0  0  0  0  0  0  0  0
  184.0410  178.5880  138.3770 O   0  0  0  0  0  0  0  0  0  0  0  0
  183.4010  178.1860  139.5540 C   0  0  0  0  0  2  0  0  0  0  0  0
  182.6610  175.8360  139.2080 C   0  0  0  0  0  1  0  0  0  0  0  0
  182.2230  177.2890  139.2120 C   0  0  1  0  0  3  0  0  0  0  0  0
  181.1720  178.2450  141.2760 C   0  0  0  0  0  3  0  0  0  0  0  0
  179.8540  177.1070  139.9930 C   0  0  0  0  0  0  0  0  0  0  0  0
  181.1270  177.5030  140.1560 N   0  0  0  0  0  0  0  0  0  0  0  0
  179.3570  176.3100  138.8360 C   0  0  0  0  0  1  0  0  0  0  0  0
  179.0650  177.5580  141.0260 C   0  0  0  0  0  3  0  0  0  0  0  0
  179.9100  178.2890  141.8470 C   0  0  0  0  0  3  0  0  0  0  0  0
  191.3950  178.2270  143.2920 C   0  0  0  0  0  2  0  0  0  0  0  0
  190.5510  176.1820  142.4690 O   0  0  0  0  0  0  0  0  0  0  0  0
  191.2150  177.1790  142.2390 C   0  0  0  0  0  0  0  0  0  0  0  0
  191.7890  177.3840  140.8710 C   0  0  0  0  0  2  0  0  0  0  0  0
  190.8040  176.9360  139.8020 C   0  0  0  0  0  2  0  0  0  0  0  0
  191.0500  175.4930  137.7470 C   0  0  0  0  0  0  0  0  0  0  0  0
  190.3560  176.2950  137.0640 O   0  0  0  0  0  0  0  0  0  0  0  0
  191.2940  175.7400  139.1330 N   0  0  0  0  0  2  0  0  0  0  0  0
  191.6510  174.2910  137.0950 C   0  0  0  0  0  2  0  0  0  0  0  0
  193.1740  172.0850  135.9950 C   0  0  0  0  0  1  0  0  0  0  0  0
  194.1000  173.7400  137.5890 C   0  0  2  0  0  3  0  0  0  0  0  0
  193.9340  173.3980  136.1130 C   0  0  2  0  0  3  0  0  0  0  0  0
  193.1170  174.5350  136.7250 C   0  0  1  0  0  0  0  0  0  0  0  0
  193.5180  175.9280  136.3280 C   0  0  0  0  0  0  0  0  0  0  0  0
  193.7810  176.8800  137.3050 O   0  0  0  0  0  1  0  0  0  0  0  0
  193.5760  176.2500  135.1120 O   0  0  0  0  0  0  0  0  0  0  0  0
  195.4550  174.4140  137.7840 C   0  0  0  0  0  2  0  0  0  0  0  0
  195.4270  175.4820  139.9150 O   0  0  0  0  0  1  0  0  0  0  0  0
  195.8700  174.3450  139.2390 C   0  0  0  0  0  2  0  0  0  0  0  0
  1  3  1  0  0  0  0
  2 10  1  0  0  0  0
  3  8  2  0  0  0  0
  3 10  1  0  0  0  0
  4  1  1  0  0  0  0
  4  9  2  0  0  0  0
  6  2  2  0  0  0  0
  7  1  2  0  0  0  0
  7  6  1  0  0  0  0
  8  5  1  0  0  0  0
  9  8  1  0  0  0  0
 12  6  1  0  0  0  0
 12 11  1  1  0  0  0
 13 12  1  0  0  0  0
 14 13  1  0  0  0  0
 15 14  2  0  0  0  0
 16 15  1  0  0  0  0
 17 19  1  6  0  0  0
 17 16  1  0  0  0  0
 19 18  2  0  0  0  0
 20 22  1  0  0  0  0
 20 19  1  0  0  0  0
 21 22  1  0  0  0  0
 23 17  1  0  0  0  0
 24 23  1  0  0  0  0
 24 25  1  0  0  0  0
 27 26  1  1  0  0  0
 27 25  1  0  0  0  0
 27 30  1  0  0  0  0
 28 33  2  0  0  0  0
 29 30  1  0  0  0  0
 29 32  2  0  0  0  0
 30 28  1  0  0  0  0
 31 29  1  0  0  0  0
 32 33  1  0  0  0  0
 34  4  1  0  0  0  0
 36 35  2  0  0  0  0
 36 34  1  0  0  0  0
 37 36  1  0  0  0  0
 38 37  1  0  0  0  0
 39 41  1  0  0  0  0
 40 39  2  0  0  0  0
 41 38  1  0  0  0  0
 42 39  1  0  0  0  0
 44 50  1  6  0  0  0
 45 43  1  1  0  0  0
 45 46  1  0  0  0  0
 45 44  1  0  0  0  0
 46 42  1  1  0  0  0
 46 44  1  0  0  0  0
 47 46  1  0  0  0  0
 47 48  1  0  0  0  0
 49 47  2  0  0  0  0
 50 52  1  0  0  0  0
 52 51  1  0  0  0  0
M  END
>  <MODEL>
3

>  <REMARK>
 VINA RESULT:      -7.8      2.166      3.681
  Name = 
  23 active torsions:
  status: ('A' for Active; 'I' for Inactive)
    1  A    between atoms: C_2  and  O_23
    2  A    between atoms: C_2  and  C_28
    3  A    between atoms: C_4  and  C_9
    4  A    between atoms: C_4  and  C_52
    5  A    between atoms: O_5  and  C_40
    6  A    between atoms: O_5  and  C_49
    7  A    between atoms: C_6  and  C_15
    8  A    between atoms: C_6  and  C_37
    9  A    between atoms: C_8  and  C_11
   10  A    between atoms: C_8  and  C_22
   11  A    between atoms: C_10  and  C_22
   12  A    between atoms: C_13  and  O_27
   13  A    between atoms: C_13  and  O_35
   14  A    between atoms: C_13  and  C_49
   15  A    between atoms: C_14  and  C_33
   16  A    between atoms: C_14  and  C_43
   17  A    between atoms: C_16  and  C_25
   18  A    between atoms: C_16  and  N_46
   19  A    between atoms: O_23  and  O_27
   20  A    between atoms: C_25  and  C_43
   21  A    between atoms: N_26  and  C_28
   22  A    between atoms: O_35  and  C_44
   23  A    between atoms: C_37  and  C_38
                            x       y       z     vdW  Elec       q    Type
                         _______ _______ _______ _____ _____    ______ ____

>  <TORSDO>
F 23

$$$$
=
 OpenBabel11032421193D

 52 55  0  0  1  0  0  0  0  0999 V2000
  189.5500  177.1120  145.4600 C   0  0  0  0  0  0  0  0  0  0  0  0
  187.8360  178.2200  147.4040 C   0  0  0  0  0  3  0  0  0  0  0  0
  190.0390  177.2600  146.8000 C   0  0  0  0  0  0  0  0  0  0  0  0
  190.6400  176.4880  144.7300 C   0  0  0  0  0  0  0  0  0  0  0  0
  192.1180  176.7250  147.9520 N   0  0  0  0  0  1  0  0  0  0  0  0
  187.4260  178.0850  146.1200 C   0  0  0  0  0  0  0  0  0  0  0  0
  188.3310  177.4910  145.0890 C   0  0  0  0  0  3  0  0  0  0  0  0
  191.2760  176.7860  146.8040 C   0  0  0  0  0  0  0  0  0  0  0  0
  191.6620  176.3020  145.5110 N   0  0  0  0  0  0  0  0  0  0  0  0
  189.2060  177.8100  147.9150 C   0  0  0  0  0  2  0  0  0  0  0  0
  185.0000  178.2230  146.8340 C   0  0  0  0  0  1  0  0  0  0  0  0
  186.0410  178.5560  145.7690 C   0  0  2  0  0  3  0  0  0  0  0  0
  185.6110  177.9980  144.4160 C   0  0  0  0  0  2  0  0  0  0  0  0
  184.3090  178.5800  143.9780 C   0  0  0  0  0  3  0  0  0  0  0  0
  183.9110  178.4690  142.7130 C   0  0  0  0  0  3  0  0  0  0  0  0
  182.6950  178.9770  142.2440 O   0  0  0  0  0  0  0  0  0  0  0  0
  182.2170  178.8020  140.9080 C   0  0  2  0  0  3  0  0  0  0  0  0
  180.3250  179.4940  139.6260 O   0  0  0  0  0  0  0  0  0  0  0  0
  180.8070  179.2940  140.7730 C   0  0  0  0  0  0  0  0  0  0  0  0
  180.0470  179.5330  141.9210 O   0  0  0  0  0  0  0  0  0  0  0  0
  179.0530  177.4760  141.7410 O   0  0  0  0  0  1  0  0  0  0  0  0
  179.4180  178.4790  142.6330 C   0  0  0  0  0  2  0  0  0  0  0  0
  182.3400  177.4630  140.4810 O   0  0  0  0  0  0  0  0  0  0  0  0
  183.0460  177.4770  139.3650 O   0  0  0  0  0  0  0  0  0  0  0  0
  182.4920  176.4640  138.5760 C   0  0  0  0  0  2  0  0  0  0  0  0
  184.6550  177.0030  137.4710 C   0  0  0  0  0  1  0  0  0  0  0  0
  183.3310  176.2780  137.3230 C   0  0  1  0  0  3  0  0  0  0  0  0
  184.3610  174.0300  137.7270 C   0  0  0  0  0  3  0  0  0  0  0  0
  182.8490  174.1050  136.1820 C   0  0  0  0  0  0  0  0  0  0  0  0
  183.5410  174.8560  137.0540 N   0  0  0  0  0  0  0  0  0  0  0  0
  181.7840  174.6220  135.2780 C   0  0  0  0  0  1  0  0  0  0  0  0
  183.2400  172.7870  136.2530 C   0  0  0  0  0  3  0  0  0  0  0  0
  184.2070  172.7400  137.2450 C   0  0  0  0  0  3  0  0  0  0  0  0
  190.6280  176.0920  143.2910 C   0  0  0  0  0  2  0  0  0  0  0  0
  192.3280  177.0840  141.9880 O   0  0  0  0  0  0  0  0  0  0  0  0
  191.1890  177.1690  142.4180 C   0  0  0  0  0  0  0  0  0  0  0  0
  190.3290  178.3250  142.0050 C   0  0  0  0  0  2  0  0  0  0  0  0
  188.8890  177.8780  141.8030 C   0  0  0  0  0  2  0  0  0  0  0  0
  188.2720  177.5050  139.3860 C   0  0  0  0  0  0  0  0  0  0  0  0
  187.8480  178.6880  139.2800 O   0  0  0  0  0  0  0  0  0  0  0  0
  188.7850  177.0240  140.6300 N   0  0  0  0  0  2  0  0  0  0  0  0
  188.2680  176.6050  138.1930 C   0  0  0  0  0  2  0  0  0  0  0  0
  188.5680  178.1500  135.7600 C   0  0  0  0  0  1  0  0  0  0  0  0
  189.6100  175.9310  136.1210 C   0  0  2  0  0  3  0  0  0  0  0  0
  189.8270  177.4360  136.2300 C   0  0  2  0  0  3  0  0  0  0  0  0
  189.6330  176.6030  137.4960 C   0  0  1  0  0  0  0  0  0  0  0  0
  190.8540  176.3950  138.3470 C   0  0  0  0  0  0  0  0  0  0  0  0
  191.8380  177.3740  138.4000 O   0  0  0  0  0  0  0  0  0  0  0  0
  191.0110  175.3190  138.9810 O   0  0  0  0  0  1  0  0  0  0  0  0
  190.9280  175.2760  135.7190 C   0  0  0  0  0  2  0  0  0  0  0  0
  192.9600  175.8540  134.6130 O   0  0  0  0  0  1  0  0  0  0  0  0
  191.5800  176.0570  134.5960 C   0  0  0  0  0  2  0  0  0  0  0  0
  1  3  1  0  0  0  0
  2 10  1  0  0  0  0
  3  8  2  0  0  0  0
  3 10  1  0  0  0  0
  4  1  1  0  0  0  0
  4  9  2  0  0  0  0
  6  2  2  0  0  0  0
  7  1  2  0  0  0  0
  7  6  1  0  0  0  0
  8  5  1  0  0  0  0
  9  8  1  0  0  0  0
 12  6  1  0  0  0  0
 12 11  1  1  0  0  0
 13 12  1  0  0  0  0
 14 13  1  0  0  0  0
 15 14  2  0  0  0  0
 16 15  1  0  0  0  0
 17 23  1  1  0  0  0
 17 16  1  0  0  0  0
 18 19  2  0  0  0  0
 19 17  1  0  0  0  0
 19 20  1  0  0  0  0
 20 22  1  0  0  0  0
 21 22  1  0  0  0  0
 24 23  1  0  0  0  0
 25 24  1  0  0  0  0
 27 26  1  1  0  0  0
 27 25  1  0  0  0  0
 29 32  2  0  0  0  0
 29 30  1  0  0  0  0
 30 27  1  0  0  0  0
 30 28  1  0  0  0  0
 31 29  1  0  0  0  0
 32 33  1  0  0  0  0
 33 28  2  0  0  0  0
 34  4  1  0  0  0  0
 35 36  2  0  0  0  0
 36 34  1  0  0  0  0
 37 36  1  0  0  0  0
 38 37  1  0  0  0  0
 39 41  1  0  0  0  0
 40 39  2  0  0  0  0
 41 38  1  0  0  0  0
 42 39  1  0  0  0  0
 44 50  1  1  0  0  0
 44 45  1  0  0  0  0
 44 46  1  0  0  0  0
 45 43  1  6  0  0  0
 45 46  1  0  0  0  0
 46 42  1  1  0  0  0
 46 47  1  0  0  0  0
 47 48  2  0  0  0  0
 47 49  1  0  0  0  0
 52 51  1  0  0  0  0
 52 50  1  0  0  0  0
M  END
>  <MODEL>
4

>  <REMARK>
 VINA RESULT:      -7.4      1.857      2.583
  Name = 
  23 active torsions:
  status: ('A' for Active; 'I' for Inactive)
    1  A    between atoms: C_2  and  O_23
    2  A    between atoms: C_2  and  C_28
    3  A    between atoms: C_4  and  C_9
    4  A    between atoms: C_4  and  C_52
    5  A    between atoms: O_5  and  C_40
    6  A    between atoms: O_5  and  C_49
    7  A    between atoms: C_6  and  C_15
    8  A    between atoms: C_6  and  C_37
    9  A    between atoms: C_8  and  C_11
   10  A    between atoms: C_8  and  C_22
   11  A    between atoms: C_10  and  C_22
   12  A    between atoms: C_13  and  O_27
   13  A    between atoms: C_13  and  O_35
   14  A    between atoms: C_13  and  C_49
   15  A    between atoms: C_14  and  C_33
   16  A    between atoms: C_14  and  C_43
   17  A    between atoms: C_16  and  C_25
   18  A    between atoms: C_16  and  N_46
   19  A    between atoms: O_23  and  O_27
   20  A    between atoms: C_25  and  C_43
   21  A    between atoms: N_26  and  C_28
   22  A    between atoms: O_35  and  C_44
   23  A    between atoms: C_37  and  C_38
                            x       y       z     vdW  Elec       q    Type
                         _______ _______ _______ _____ _____    ______ ____

>  <TORSDO>
F 23

$$$$
=
 OpenBabel11032421193D

 52 55  0  0  1  0  0  0  0  0999 V2000
  189.0790  177.4310  145.5720 C   0  0  0  0  0  0  0  0  0  0  0  0
  187.5250  178.5160  147.6580 C   0  0  0  0  0  3  0  0  0  0  0  0
  189.6510  177.5040  146.8850 C   0  0  0  0  0  0  0  0  0  0  0  0
  190.1000  176.7990  144.7540 C   0  0  0  0  0  0  0  0  0  0  0  0
  191.7720  176.8480  147.8880 N   0  0  0  0  0  1  0  0  0  0  0  0
  187.0360  178.4500  146.3960 C   0  0  0  0  0  0  0  0  0  0  0  0
  187.8560  177.8680  145.2900 C   0  0  0  0  0  3  0  0  0  0  0  0
  190.8670  176.9870  146.7960 C   0  0  0  0  0  0  0  0  0  0  0  0
  191.1590  176.5440  145.4640 N   0  0  0  0  0  0  0  0  0  0  0  0
  188.9070  178.0360  148.0690 C   0  0  0  0  0  2  0  0  0  0  0  0
  184.5490  178.0940  146.7150 C   0  0  0  0  0  1  0  0  0  0  0  0
  185.6510  178.9840  146.1490 C   0  0  2  0  0  3  0  0  0  0  0  0
  185.4260  179.2220  144.6590 C   0  0  0  0  0  2  0  0  0  0  0  0
  184.1750  178.5610  144.1870 C   0  0  0  0  0  3  0  0  0  0  0  0
  183.3560  179.1880  143.3460 C   0  0  0  0  0  3  0  0  0  0  0  0
  182.1780  178.6170  142.8530 O   0  0  0  0  0  0  0  0  0  0  0  0
  181.5750  178.9750  141.6070 C   0  0  2  0  0  3  0  0  0  0  0  0
  180.1330  180.8650  141.3810 O   0  0  0  0  0  0  0  0  0  0  0  0
  180.2780  179.6940  141.8260 C   0  0  0  0  0  0  0  0  0  0  0  0
  179.2480  179.0620  142.5260 O   0  0  0  0  0  0  0  0  0  0  0  0
  178.9450  178.2630  144.6530 O   0  0  0  0  0  1  0  0  0  0  0  0
  178.9330  179.4100  143.8660 C   0  0  0  0  0  2  0  0  0  0  0  0
  181.4100  177.8550  140.7660 O   0  0  0  0  0  0  0  0  0  0  0  0
  182.5810  177.6190  140.2020 O   0  0  0  0  0  0  0  0  0  0  0  0
  182.4940  176.3070  139.7260 C   0  0  0  0  0  2  0  0  0  0  0  0
  183.1400  176.7270  137.3610 C   0  0  0  0  0  1  0  0  0  0  0  0
  182.0090  176.3190  138.2860 C   0  0  1  0  0  3  0  0  0  0  0  0
  182.1350  174.0380  137.2580 C   0  0  0  0  0  3  0  0  0  0  0  0
  180.2900  174.5020  138.2870 C   0  0  0  0  0  0  0  0  0  0  0  0
  181.4770  175.0090  137.9150 N   0  0  0  0  0  0  0  0  0  0  0  0
  179.2740  175.2330  139.0960 C   0  0  0  0  0  1  0  0  0  0  0  0
  180.1500  173.2070  137.8430 C   0  0  0  0  0  3  0  0  0  0  0  0
  181.3330  172.9100  137.1850 C   0  0  0  0  0  3  0  0  0  0  0  0
  189.9890  176.4650  143.3030 C   0  0  0  0  0  2  0  0  0  0  0  0
  191.5190  177.8510  142.1590 O   0  0  0  0  0  0  0  0  0  0  0  0
  190.3520  177.6300  142.4390 C   0  0  0  0  0  0  0  0  0  0  0  0
  189.2780  178.4920  141.8490 C   0  0  0  0  0  2  0  0  0  0  0  0
  188.3110  177.6560  141.0240 C   0  0  0  0  0  2  0  0  0  0  0  0
  189.4780  177.0770  138.8630 C   0  0  0  0  0  0  0  0  0  0  0  0
  190.1650  176.1890  139.4380 O   0  0  0  0  0  0  0  0  0  0  0  0
  188.5460  177.8680  139.6030 N   0  0  0  0  0  2  0  0  0  0  0  0
  189.6140  177.2850  137.3900 C   0  0  0  0  0  2  0  0  0  0  0  0
  187.1190  177.7850  136.0060 C   0  0  0  0  0  1  0  0  0  0  0  0
  187.6380  175.6720  137.1910 C   0  0  2  0  0  3  0  0  0  0  0  0
  187.6770  176.3790  135.8410 C   0  0  2  0  0  3  0  0  0  0  0  0
  188.9760  176.1330  136.6070 C   0  0  1  0  0  0  0  0  0  0  0  0
  189.8860  175.0760  136.0470 C   0  0  0  0  0  0  0  0  0  0  0  0
  190.7160  174.3550  136.8970 O   0  0  0  0  0  1  0  0  0  0  0  0
  189.9320  174.8680  134.8070 O   0  0  0  0  0  0  0  0  0  0  0  0
  187.3250  174.1960  136.9600 C   0  0  0  0  0  2  0  0  0  0  0  0
  185.4840  172.8080  136.3530 O   0  0  0  0  0  1  0  0  0  0  0  0
  185.8330  173.9540  137.0670 C   0  0  0  0  0  2  0  0  0  0  0  0
  1  3  1  0  0  0  0
  2 10  1  0  0  0  0
  3 10  1  0  0  0  0
  4  9  2  0  0  0  0
  4  1  1  0  0  0  0
  6  2  2  0  0  0  0
  7  1  2  0  0  0  0
  7  6  1  0  0  0  0
  8  3  2  0  0  0  0
  8  5  1  0  0  0  0
  9  8  1  0  0  0  0
 12  6  1  0  0  0  0
 12 11  1  6  0  0  0
 13 12  1  0  0  0  0
 14 13  1  0  0  0  0
 15 14  2  0  0  0  0
 16 15  1  0  0  0  0
 17 23  1  6  0  0  0
 17 19  1  0  0  0  0
 17 16  1  0  0  0  0
 18 19  2  0  0  0  0
 19 20  1  0  0  0  0
 20 22  1  0  0  0  0
 22 21  1  0  0  0  0
 24 23  1  0  0  0  0
 25 24  1  0  0  0  0
 27 26  1  6  0  0  0
 27 25  1  0  0  0  0
 28 30  1  0  0  0  0
 29 31  1  0  0  0  0
 30 27  1  0  0  0  0
 30 29  1  0  0  0  0
 32 29  2  0  0  0  0
 33 28  2  0  0  0  0
 33 32  1  0  0  0  0
 34  4  1  0  0  0  0
 35 36  2  0  0  0  0
 36 34  1  0  0  0  0
 37 36  1  0  0  0  0
 38 37  1  0  0  0  0
 39 40  2  0  0  0  0
 39 41  1  0  0  0  0
 41 38  1  0  0  0  0
 42 39  1  0  0  0  0
 44 50  1  6  0  0  0
 45 43  1  1  0  0  0
 45 46  1  0  0  0  0
 45 44  1  0  0  0  0
 46 44  1  0  0  0  0
 46 42  1  1  0  0  0
 47 46  1  0  0  0  0
 47 48  1  0  0  0  0
 49 47  2  0  0  0  0
 50 52  1  0  0  0  0
 51 52  1  0  0  0  0
M  END
>  <MODEL>
5

>  <REMARK>
 VINA RESULT:      -7.3      2.375      3.709
  Name = 
  23 active torsions:
  status: ('A' for Active; 'I' for Inactive)
    1  A    between atoms: C_2  and  O_23
    2  A    between atoms: C_2  and  C_28
    3  A    between atoms: C_4  and  C_9
    4  A    between atoms: C_4  and  C_52
    5  A    between atoms: O_5  and  C_40
    6  A    between atoms: O_5  and  C_49
    7  A    between atoms: C_6  and  C_15
    8  A    between atoms: C_6  and  C_37
    9  A    between atoms: C_8  and  C_11
   10  A    between atoms: C_8  and  C_22
   11  A    between atoms: C_10  and  C_22
   12  A    between atoms: C_13  and  O_27
   13  A    between atoms: C_13  and  O_35
   14  A    between atoms: C_13  and  C_49
   15  A    between atoms: C_14  and  C_33
   16  A    between atoms: C_14  and  C_43
   17  A    between atoms: C_16  and  C_25
   18  A    between atoms: C_16  and  N_46
   19  A    between atoms: O_23  and  O_27
   20  A    between atoms: C_25  and  C_43
   21  A    between atoms: N_26  and  C_28
   22  A    between atoms: O_35  and  C_44
   23  A    between atoms: C_37  and  C_38
                            x       y       z     vdW  Elec       q    Type
                         _______ _______ _______ _____ _____    ______ ____

>  <TORSDO>
F 23

$$$$
=
 OpenBabel11032421193D

 52 55  0  0  1  0  0  0  0  0999 V2000
  190.6320  176.3970  138.0190 C   0  0  0  0  0  0  0  0  0  0  0  0
  191.0580  177.2210  140.6800 C   0  0  0  0  0  3  0  0  0  0  0  0
  191.9770  176.6420  138.4520 C   0  0  2  0  0  3  0  0  0  0  0  0
  190.7570  175.9580  136.6390 C   0  0  0  0  0  0  0  0  0  0  0  0
  194.1810  176.4850  137.4280 N   0  0  0  0  0  1  0  0  0  0  0  0
  189.8030  177.0020  140.2190 C   0  0  0  0  0  0  0  0  0  0  0  0
  189.5750  176.5570  138.8100 C   0  0  0  0  0  3  0  0  0  0  0  0
  192.7590  176.3870  137.4160 C   0  0  0  0  0  0  0  0  0  0  0  0
  192.0040  175.9590  136.2740 N   0  0  0  0  0  0  0  0  0  0  0  0
  192.3190  177.0570  139.8490 C   0  0  0  0  0  3  0  0  0  0  0  0
  188.1090  178.6500  141.1300 C   0  0  0  0  0  1  0  0  0  0  0  0
  188.6550  177.2250  141.1660 C   0  0  2  0  0  3  0  0  0  0  0  0
  189.0520  176.8460  142.5890 C   0  0  0  0  0  2  0  0  0  0  0  0
  187.8520  176.6230  143.4460 C   0  0  0  0  0  3  0  0  0  0  0  0
  187.6160  177.4050  144.4960 C   0  0  0  0  0  3  0  0  0  0  0  0
  186.5010  177.2590  145.3280 O   0  0  0  0  0  0  0  0  0  0  0  0
  186.4200  177.7810  146.6560 C   0  0  2  0  0  3  0  0  0  0  0  0
  185.6860  179.9670  147.2740 O   0  0  0  0  0  0  0  0  0  0  0  0
  185.3860  178.8630  146.7460 C   0  0  0  0  0  0  0  0  0  0  0  0
  184.1010  178.6320  146.2500 O   0  0  0  0  0  0  0  0  0  0  0  0
  184.6460  179.9270  144.4390 O   0  0  0  0  0  1  0  0  0  0  0  0
  183.7330  178.9990  144.9280 C   0  0  0  0  0  2  0  0  0  0  0  0
  187.6760  178.2270  147.1200 O   0  0  0  0  0  0  0  0  0  0  0  0
  188.0120  177.4490  148.1330 O   0  0  0  0  0  0  0  0  0  0  0  0
  189.0630  176.6640  147.6510 C   0  0  0  0  0  2  0  0  0  0  0  0
  191.1020  177.8160  148.4900 C   0  0  0  0  0  1  0  0  0  0  0  0
  190.2340  177.5550  147.2730 C   0  0  1  0  0  3  0  0  0  0  0  0
  191.4790  175.6860  146.1630 C   0  0  0  0  0  3  0  0  0  0  0  0
  191.2760  177.4990  145.0000 C   0  0  0  0  0  0  0  0  0  0  0  0
  191.0130  176.9470  146.1960 N   0  0  0  0  0  0  0  0  0  0  0  0
  190.8700  178.8740  144.5950 C   0  0  0  0  0  1  0  0  0  0  0  0
  191.9500  176.6140  144.1900 C   0  0  0  0  0  3  0  0  0  0  0  0
  192.0780  175.4520  144.9350 C   0  0  0  0  0  3  0  0  0  0  0  0
  189.6410  175.5470  135.7370 C   0  0  0  0  0  2  0  0  0  0  0  0
  189.0980  177.7890  135.2310 O   0  0  0  0  0  0  0  0  0  0  0  0
  188.6840  176.6720  135.4970 C   0  0  0  0  0  0  0  0  0  0  0  0
  187.2080  176.4170  135.5090 C   0  0  0  0  0  2  0  0  0  0  0  0
  186.7690  175.8610  136.8560 C   0  0  0  0  0  2  0  0  0  0  0  0
  185.3180  177.7320  137.7270 C   0  0  0  0  0  0  0  0  0  0  0  0
  186.3250  178.4700  137.9070 O   0  0  0  0  0  0  0  0  0  0  0  0
  185.4700  176.4030  137.2270 N   0  0  0  0  0  2  0  0  0  0  0  0
  183.9490  178.2620  138.0100 C   0  0  0  0  0  2  0  0  0  0  0  0
  182.5530  175.7800  138.5430 C   0  0  0  0  0  1  0  0  0  0  0  0
  182.0090  177.9310  139.6440 C   0  0  2  0  0  3  0  0  0  0  0  0
  182.8190  176.6450  139.7660 C   0  0  2  0  0  3  0  0  0  0  0  0
  183.5270  177.9620  139.4520 C   0  0  1  0  0  0  0  0  0  0  0  0
  184.3520  178.5520  140.5620 C   0  0  0  0  0  0  0  0  0  0  0  0
  184.4600  177.8850  141.7750 O   0  0  0  0  0  1  0  0  0  0  0  0
  184.9120  179.6690  140.4120 O   0  0  0  0  0  0  0  0  0  0  0  0
  181.5420  178.3460  141.0370 C   0  0  0  0  0  2  0  0  0  0  0  0
  180.5880  180.1920  142.2060 O   0  0  0  0  0  1  0  0  0  0  0  0
  180.6810  179.5900  140.9510 C   0  0  0  0  0  2  0  0  0  0  0  0
  1  3  1  0  0  0  0
  1  7  1  0  0  0  0
  3 10  1  1  0  0  0
  4  1  2  0  0  0  0
  6  2  1  0  0  0  0
  6 12  1  0  0  0  0
  7  6  2  0  0  0  0
  8  5  1  0  0  0  0
  8  3  1  0  0  0  0
  9  4  1  0  0  0  0
  9  8  2  0  0  0  0
 10  2  2  0  0  0  0
 12 11  1  1  0  0  0
 12 13  1  0  0  0  0
 13 14  1  0  0  0  0
 14 15  2  0  0  0  0
 15 16  1  0  0  0  0
 17 16  1  6  0  0  0
 17 19  1  0  0  0  0
 17 23  1  0  0  0  0
 19 18  2  0  0  0  0
 20 19  1  0  0  0  0
 21 22  1  0  0  0  0
 22 20  1  0  0  0  0
 23 24  1  0  0  0  0
 25 24  1  0  0  0  0
 27 25  1  0  0  0  0
 27 26  1  1  0  0  0
 28 30  1  0  0  0  0
 29 30  1  0  0  0  0
 30 27  1  0  0  0  0
 31 29  1  0  0  0  0
 32 33  1  0  0  0  0
 32 29  2  0  0  0  0
 33 28  2  0  0  0  0
 34  4  1  0  0  0  0
 35 36  2  0  0  0  0
 36 37  1  0  0  0  0
 36 34  1  0  0  0  0
 37 38  1  0  0  0  0
 38 41  1  0  0  0  0
 39 40  2  0  0  0  0
 39 42  1  0  0  0  0
 41 39  1  0  0  0  0
 44 45  1  0  0  0  0
 44 50  1  1  0  0  0
 45 43  1  6  0  0  0
 46 42  1  6  0  0  0
 46 44  1  0  0  0  0
 46 45  1  0  0  0  0
 46 47  1  0  0  0  0
 47 48  1  0  0  0  0
 49 47  2  0  0  0  0
 52 50  1  0  0  0  0
 52 51  1  0  0  0  0
M  END
>  <MODEL>
6

>  <REMARK>
 VINA RESULT:      -7.2      2.897      9.422
  Name = 
  23 active torsions:
  status: ('A' for Active; 'I' for Inactive)
    1  A    between atoms: C_2  and  O_23
    2  A    between atoms: C_2  and  C_28
    3  A    between atoms: C_4  and  C_9
    4  A    between atoms: C_4  and  C_52
    5  A    between atoms: O_5  and  C_40
    6  A    between atoms: O_5  and  C_49
    7  A    between atoms: C_6  and  C_15
    8  A    between atoms: C_6  and  C_37
    9  A    between atoms: C_8  and  C_11
   10  A    between atoms: C_8  and  C_22
   11  A    between atoms: C_10  and  C_22
   12  A    between atoms: C_13  and  O_27
   13  A    between atoms: C_13  and  O_35
   14  A    between atoms: C_13  and  C_49
   15  A    between atoms: C_14  and  C_33
   16  A    between atoms: C_14  and  C_43
   17  A    between atoms: C_16  and  C_25
   18  A    between atoms: C_16  and  N_46
   19  A    between atoms: O_23  and  O_27
   20  A    between atoms: C_25  and  C_43
   21  A    between atoms: N_26  and  C_28
   22  A    between atoms: O_35  and  C_44
   23  A    between atoms: C_37  and  C_38
                            x       y       z     vdW  Elec       q    Type
                         _______ _______ _______ _____ _____    ______ ____

>  <TORSDO>
F 23

$$$$
=
 OpenBabel11032421193D

 52 55  0  0  1  0  0  0  0  0999 V2000
  189.5320  177.6350  145.2580 C   0  0  0  0  0  0  0  0  0  0  0  0
  187.6190  177.7440  147.3240 C   0  0  0  0  0  3  0  0  0  0  0  0
  189.9100  177.1820  146.5650 C   0  0  0  0  0  0  0  0  0  0  0  0
  190.7060  177.4140  144.4310 C   0  0  0  0  0  0  0  0  0  0  0  0
  191.9220  176.2250  147.5510 N   0  0  0  0  0  1  0  0  0  0  0  0
  187.3150  178.1840  146.0800 C   0  0  0  0  0  0  0  0  0  0  0  0
  188.3260  178.1200  144.9800 C   0  0  0  0  0  3  0  0  0  0  0  0
  191.1670  176.7750  146.4740 C   0  0  0  0  0  0  0  0  0  0  0  0
  191.6750  176.9170  145.1410 N   0  0  0  0  0  0  0  0  0  0  0  0
  188.9670  177.1710  147.7270 C   0  0  0  0  0  2  0  0  0  0  0  0
  184.9220  178.3080  146.9000 C   0  0  0  0  0  1  0  0  0  0  0  0
  185.9370  178.7400  145.8460 C   0  0  2  0  0  3  0  0  0  0  0  0
  185.4400  178.3740  144.4510 C   0  0  0  0  0  2  0  0  0  0  0  0
  183.9970  178.7150  144.2820 C   0  0  0  0  0  3  0  0  0  0  0  0
  183.4290  178.6710  143.0790 C   0  0  0  0  0  3  0  0  0  0  0  0
  182.0800  178.9620  142.8570 O   0  0  0  0  0  0  0  0  0  0  0  0
  181.4500  178.9080  141.5740 C   0  0  2  0  0  3  0  0  0  0  0  0
  179.3800  179.8810  142.2590 O   0  0  0  0  0  0  0  0  0  0  0  0
  180.3600  179.9310  141.4680 C   0  0  0  0  0  0  0  0  0  0  0  0
  180.4370  180.9240  140.4880 O   0  0  0  0  0  0  0  0  0  0  0  0
  180.1690  180.3740  138.2790 O   0  0  0  0  0  1  0  0  0  0  0  0
  179.5480  180.9510  139.3820 C   0  0  0  0  0  2  0  0  0  0  0  0
  180.9740  177.6130  141.2810 O   0  0  0  0  0  0  0  0  0  0  0  0
  180.6360  177.6060  140.0040 O   0  0  0  0  0  0  0  0  0  0  0  0
  181.4460  176.6250  139.4230 C   0  0  0  0  0  2  0  0  0  0  0  0
  183.2070  177.9600  138.2790 C   0  0  0  0  0  1  0  0  0  0  0  0
  181.9600  177.1190  138.0810 C   0  0  1  0  0  3  0  0  0  0  0  0
  182.5450  174.7390  137.5600 C   0  0  0  0  0  3  0  0  0  0  0  0
  182.0620  175.9800  135.8560 C   0  0  0  0  0  0  0  0  0  0  0  0
  182.2260  175.9910  137.1890 N   0  0  0  0  0  0  0  0  0  0  0  0
  181.6430  177.1580  135.0450 C   0  0  0  0  0  1  0  0  0  0  0  0
  182.3100  174.7280  135.3420 C   0  0  0  0  0  3  0  0  0  0  0  0
  182.6170  173.9320  136.4360 C   0  0  0  0  0  3  0  0  0  0  0  0
  190.8240  177.6940  142.9700 C   0  0  0  0  0  2  0  0  0  0  0  0
  190.1520  175.4490  142.6810 O   0  0  0  0  0  0  0  0  0  0  0  0
  190.4050  176.5160  142.1470 C   0  0  0  0  0  0  0  0  0  0  0  0
  190.2220  176.6610  140.6670 C   0  0  0  0  0  2  0  0  0  0  0  0
  189.0900  177.6300  140.3580 C   0  0  0  0  0  2  0  0  0  0  0  0
  187.2440  177.8870  138.6580 C   0  0  0  0  0  0  0  0  0  0  0  0
  186.6300  178.6990  139.4030 O   0  0  0  0  0  0  0  0  0  0  0  0
  188.4720  177.2940  139.0850 N   0  0  0  0  0  2  0  0  0  0  0  0
  186.7010  177.5670  137.3030 C   0  0  0  0  0  2  0  0  0  0  0  0
  186.0130  175.2460  135.7110 C   0  0  0  0  0  1  0  0  0  0  0  0
  188.2040  175.5510  136.8280 C   0  0  2  0  0  3  0  0  0  0  0  0
  187.4350  175.7560  135.5270 C   0  0  2  0  0  3  0  0  0  0  0  0
  187.7810  176.9600  136.4030 C   0  0  1  0  0  0  0  0  0  0  0  0
  188.8530  177.8740  135.8800 C   0  0  0  0  0  0  0  0  0  0  0  0
  189.3520  178.8900  136.6850 O   0  0  0  0  0  1  0  0  0  0  0  0
  189.2730  177.7510  134.7000 O   0  0  0  0  0  0  0  0  0  0  0  0
  189.6500  175.1990  136.4910 C   0  0  0  0  0  2  0  0  0  0  0  0
  191.2140  173.4030  136.5980 O   0  0  0  0  0  1  0  0  0  0  0  0
  190.0460  173.9050  137.1720 C   0  0  0  0  0  2  0  0  0  0  0  0
  1  3  1  0  0  0  0
  2 10  1  0  0  0  0
  3 10  1  0  0  0  0
  4  9  2  0  0  0  0
  4  1  1  0  0  0  0
  6  2  2  0  0  0  0
  7  1  2  0  0  0  0
  7  6  1  0  0  0  0
  8  3  2  0  0  0  0
  8  5  1  0  0  0  0
  9  8  1  0  0  0  0
 12  6  1  0  0  0  0
 12 11  1  1  0  0  0
 13 12  1  0  0  0  0
 14 13  1  0  0  0  0
 15 14  2  0  0  0  0
 16 15  1  0  0  0  0
 17 23  1  1  0  0  0
 17 16  1  0  0  0  0
 19 17  1  0  0  0  0
 19 18  2  0  0  0  0
 20 19  1  0  0  0  0
 21 22  1  0  0  0  0
 22 20  1  0  0  0  0
 24 23  1  0  0  0  0
 25 24  1  0  0  0  0
 27 26  1  1  0  0  0
 27 25  1  0  0  0  0
 29 30  1  0  0  0  0
 30 28  1  0  0  0  0
 30 27  1  0  0  0  0
 31 29  1  0  0  0  0
 32 29  2  0  0  0  0
 32 33  1  0  0  0  0
 33 28  2  0  0  0  0
 34  4  1  0  0  0  0
 36 35  2  0  0  0  0
 36 34  1  0  0  0  0
 37 36  1  0  0  0  0
 38 37  1  0  0  0  0
 39 41  1  0  0  0  0
 39 40  2  0  0  0  0
 41 38  1  0  0  0  0
 42 39  1  0  0  0  0
 44 50  1  6  0  0  0
 45 43  1  1  0  0  0
 45 46  1  0  0  0  0
 45 44  1  0  0  0  0
 46 44  1  0  0  0  0
 46 42  1  1  0  0  0
 47 46  1  0  0  0  0
 47 48  1  0  0  0  0
 49 47  2  0  0  0  0
 50 52  1  0  0  0  0
 51 52  1  0  0  0  0
M  END
>  <MODEL>
7

>  <REMARK>
 VINA RESULT:      -7.1      2.321      3.165
  Name = 
  23 active torsions:
  status: ('A' for Active; 'I' for Inactive)
    1  A    between atoms: C_2  and  O_23
    2  A    between atoms: C_2  and  C_28
    3  A    between atoms: C_4  and  C_9
    4  A    between atoms: C_4  and  C_52
    5  A    between atoms: O_5  and  C_40
    6  A    between atoms: O_5  and  C_49
    7  A    between atoms: C_6  and  C_15
    8  A    between atoms: C_6  and  C_37
    9  A    between atoms: C_8  and  C_11
   10  A    between atoms: C_8  and  C_22
   11  A    between atoms: C_10  and  C_22
   12  A    between atoms: C_13  and  O_27
   13  A    between atoms: C_13  and  O_35
   14  A    between atoms: C_13  and  C_49
   15  A    between atoms: C_14  and  C_33
   16  A    between atoms: C_14  and  C_43
   17  A    between atoms: C_16  and  C_25
   18  A    between atoms: C_16  and  N_46
   19  A    between atoms: O_23  and  O_27
   20  A    between atoms: C_25  and  C_43
   21  A    between atoms: N_26  and  C_28
   22  A    between atoms: O_35  and  C_44
   23  A    between atoms: C_37  and  C_38
                            x       y       z     vdW  Elec       q    Type
                         _______ _______ _______ _____ _____    ______ ____

>  <TORSDO>
F 23

$$$$
=
 OpenBabel11032421193D

 52 55  0  0  1  0  0  0  0  0999 V2000
  184.7050  178.3280  143.3020 C   0  0  0  0  0  0  0  0  0  0  0  0
  181.9750  178.9950  143.5070 C   0  0  0  0  0  3  0  0  0  0  0  0
  184.1940  178.7320  144.5790 C   0  0  0  0  0  0  0  0  0  0  0  0
  186.1060  178.0210  143.5400 C   0  0  0  0  0  0  0  0  0  0  0  0
  185.1230  178.9770  146.8180 N   0  0  0  0  0  1  0  0  0  0  0  0
  182.5090  178.6330  142.3160 C   0  0  0  0  0  0  0  0  0  0  0  0
  183.9550  178.2710  142.2060 C   0  0  0  0  0  3  0  0  0  0  0  0
  185.2090  178.6740  145.4270 C   0  0  0  0  0  0  0  0  0  0  0  0
  186.4120  178.2320  144.7850 N   0  0  0  0  0  0  0  0  0  0  0  0
  182.7560  179.0810  144.8070 C   0  0  0  0  0  2  0  0  0  0  0  0
  180.4600  177.6090  141.2360 C   0  0  0  0  0  1  0  0  0  0  0  0
  181.6020  178.6120  141.1150 C   0  0  2  0  0  3  0  0  0  0  0  0
  182.4030  178.3520  139.8430 C   0  0  0  0  0  2  0  0  0  0  0  0
  182.7540  176.9080  139.7080 C   0  0  0  0  0  3  0  0  0  0  0  0
  183.0280  176.3890  138.5140 C   0  0  0  0  0  3  0  0  0  0  0  0
  183.3810  175.0490  138.3230 O   0  0  0  0  0  0  0  0  0  0  0  0
  183.6860  174.4760  137.0490 C   0  0  2  0  0  3  0  0  0  0  0  0
  183.8680  172.1220  136.6880 O   0  0  0  0  0  0  0  0  0  0  0  0
  183.1070  173.0980  136.9280 C   0  0  0  0  0  0  0  0  0  0  0  0
  181.7300  172.9140  137.0720 O   0  0  0  0  0  0  0  0  0  0  0  0
  181.4160  173.8750  135.0150 O   0  0  0  0  0  1  0  0  0  0  0  0
  180.7960  173.5610  136.2200 C   0  0  0  0  0  2  0  0  0  0  0  0
  185.0740  174.4770  136.7960 O   0  0  0  0  0  0  0  0  0  0  0  0
  185.2550  175.0910  135.6400 O   0  0  0  0  0  0  0  0  0  0  0  0
  186.6380  175.0710  135.4350 C   0  0  0  0  0  2  0  0  0  0  0  0
  188.3530  174.1320  136.9750 C   0  0  0  0  0  1  0  0  0  0  0  0
  187.3530  175.2540  136.7630 C   0  0  1  0  0  3  0  0  0  0  0  0
  189.2060  176.8700  136.2760 C   0  0  0  0  0  3  0  0  0  0  0  0
  187.4790  177.6980  137.2820 C   0  0  0  0  0  0  0  0  0  0  0  0
  188.0130  176.5580  136.8130 N   0  0  0  0  0  0  0  0  0  0  0  0
  186.1300  177.8070  137.9030 C   0  0  0  0  0  1  0  0  0  0  0  0
  188.3370  178.7570  137.0870 C   0  0  0  0  0  3  0  0  0  0  0  0
  189.4420  178.2250  136.4410 C   0  0  0  0  0  3  0  0  0  0  0  0
  187.0860  177.5240  142.5290 C   0  0  0  0  0  2  0  0  0  0  0  0
  186.5640  179.4420  141.2540 O   0  0  0  0  0  0  0  0  0  0  0  0
  187.3710  178.5560  141.4840 C   0  0  0  0  0  0  0  0  0  0  0  0
  188.6850  178.5510  140.7630 C   0  0  0  0  0  2  0  0  0  0  0  0
  189.1810  177.1270  140.5600 C   0  0  0  0  0  2  0  0  0  0  0  0
  190.9560  176.6180  142.2790 C   0  0  0  0  0  0  0  0  0  0  0  0
  191.8470  177.1430  141.5580 O   0  0  0  0  0  0  0  0  0  0  0  0
  189.6010  176.5530  141.8300 N   0  0  0  0  0  2  0  0  0  0  0  0
  191.3110  176.0870  143.6300 C   0  0  0  0  0  2  0  0  0  0  0  0
  192.0710  175.4270  146.3460 C   0  0  0  0  0  1  0  0  0  0  0  0
  190.1080  176.8230  145.7640 C   0  0  2  0  0  3  0  0  0  0  0  0
  191.5850  176.8550  146.1410 C   0  0  2  0  0  3  0  0  0  0  0  0
  191.1610  177.1660  144.7060 C   0  0  1  0  0  0  0  0  0  0  0  0
  191.2690  178.6030  144.2800 C   0  0  0  0  0  0  0  0  0  0  0  0
  190.1540  179.2620  143.7770 O   0  0  0  0  0  0  0  0  0  0  0  0
  192.3740  179.2010  144.3360 O   0  0  0  0  0  1  0  0  0  0  0  0
  189.4210  178.0360  146.3840 C   0  0  0  0  0  2  0  0  0  0  0  0
  188.2090  176.7190  147.9590 O   0  0  0  0  0  1  0  0  0  0  0  0
  189.1140  177.7740  147.8450 C   0  0  0  0  0  2  0  0  0  0  0  0
  1  4  1  0  0  0  0
  1  3  1  0  0  0  0
  2 10  1  0  0  0  0
  3 10  1  0  0  0  0
  3  8  2  0  0  0  0
  4  9  2  0  0  0  0
  6  2  2  0  0  0  0
  7  6  1  0  0  0  0
  7  1  2  0  0  0  0
  8  5  1  0  0  0  0
  9  8  1  0  0  0  0
 12 11  1  1  0  0  0
 12  6  1  0  0  0  0
 13 12  1  0  0  0  0
 14 13  1  0  0  0  0
 15 14  2  0  0  0  0
 16 15  1  0  0  0  0
 17 23  1  1  0  0  0
 17 16  1  0  0  0  0
 18 19  2  0  0  0  0
 19 17  1  0  0  0  0
 19 20  1  0  0  0  0
 21 22  1  0  0  0  0
 22 20  1  0  0  0  0
 24 23  1  0  0  0  0
 25 24  1  0  0  0  0
 25 27  1  0  0  0  0
 27 30  1  0  0  0  0
 27 26  1  6  0  0  0
 28 33  2  0  0  0  0
 28 30  1  0  0  0  0
 29 31  1  0  0  0  0
 30 29  1  0  0  0  0
 32 29  2  0  0  0  0
 33 32  1  0  0  0  0
 34  4  1  0  0  0  0
 35 36  2  0  0  0  0
 36 34  1  0  0  0  0
 37 36  1  0  0  0  0
 38 37  1  0  0  0  0
 38 41  1  0  0  0  0
 39 42  1  0  0  0  0
 40 39  2  0  0  0  0
 41 39  1  0  0  0  0
 44 45  1  0  0  0  0
 44 50  1  1  0  0  0
 45 43  1  6  0  0  0
 46 42  1  6  0  0  0
 46 44  1  0  0  0  0
 46 45  1  0  0  0  0
 47 49  1  0  0  0  0
 47 46  1  0  0  0  0
 48 47  2  0  0  0  0
 50 52  1  0  0  0  0
 52 51  1  0  0  0  0
M  END
>  <MODEL>
8

>  <REMARK>
 VINA RESULT:      -7.1      3.387      6.948
  Name = 
  23 active torsions:
  status: ('A' for Active; 'I' for Inactive)
    1  A    between atoms: C_2  and  O_23
    2  A    between atoms: C_2  and  C_28
    3  A    between atoms: C_4  and  C_9
    4  A    between atoms: C_4  and  C_52
    5  A    between atoms: O_5  and  C_40
    6  A    between atoms: O_5  and  C_49
    7  A    between atoms: C_6  and  C_15
    8  A    between atoms: C_6  and  C_37
    9  A    between atoms: C_8  and  C_11
   10  A    between atoms: C_8  and  C_22
   11  A    between atoms: C_10  and  C_22
   12  A    between atoms: C_13  and  O_27
   13  A    between atoms: C_13  and  O_35
   14  A    between atoms: C_13  and  C_49
   15  A    between atoms: C_14  and  C_33
   16  A    between atoms: C_14  and  C_43
   17  A    between atoms: C_16  and  C_25
   18  A    between atoms: C_16  and  N_46
   19  A    between atoms: O_23  and  O_27
   20  A    between atoms: C_25  and  C_43
   21  A    between atoms: N_26  and  C_28
   22  A    between atoms: O_35  and  C_44
   23  A    between atoms: C_37  and  C_38
                            x       y       z     vdW  Elec       q    Type
                         _______ _______ _______ _____ _____    ______ ____

>  <TORSDO>
F 23

$$$$
=
 OpenBabel11032421193D

 52 55  0  0  1  0  0  0  0  0999 V2000
  184.8080  178.2550  143.1210 C   0  0  0  0  0  0  0  0  0  0  0  0
  182.0910  178.9990  143.0410 C   0  0  0  0  0  3  0  0  0  0  0  0
  184.1860  178.7050  144.3320 C   0  0  0  0  0  0  0  0  0  0  0  0
  186.1690  177.9180  143.5020 C   0  0  0  0  0  0  0  0  0  0  0  0
  184.8990  178.9810  146.6450 N   0  0  0  0  0  1  0  0  0  0  0  0
  182.7280  178.5930  141.9170 C   0  0  0  0  0  0  0  0  0  0  0  0
  184.1670  178.1910  141.9580 C   0  0  0  0  0  3  0  0  0  0  0  0
  185.1110  178.6410  145.2770 C   0  0  0  0  0  0  0  0  0  0  0  0
  186.3580  178.1510  144.7660 N   0  0  0  0  0  0  0  0  0  0  0  0
  182.7440  179.0970  144.4100 C   0  0  0  0  0  2  0  0  0  0  0  0
  181.6920  177.1570  140.1060 C   0  0  0  0  0  1  0  0  0  0  0  0
  181.9430  178.5670  140.6330 C   0  0  2  0  0  3  0  0  0  0  0  0
  182.6280  179.4160  139.5670 C   0  0  0  0  0  2  0  0  0  0  0  0
  184.1080  179.2260  139.5900 C   0  0  0  0  0  3  0  0  0  0  0  0
  184.7540  178.8290  138.4970 C   0  0  0  0  0  3  0  0  0  0  0  0
  186.1400  178.6490  138.4480 O   0  0  0  0  0  0  0  0  0  0  0  0
  186.7920  177.6700  137.6350 C   0  0  2  0  0  3  0  0  0  0  0  0
  188.4280  179.3630  137.2380 O   0  0  0  0  0  0  0  0  0  0  0  0
  187.9070  178.2850  136.8430 C   0  0  0  0  0  0  0  0  0  0  0  0
  188.3480  177.6620  135.6740 O   0  0  0  0  0  0  0  0  0  0  0  0
  189.1890  175.7570  136.6320 O   0  0  0  0  0  1  0  0  0  0  0  0
  189.4300  176.7430  135.6810 C   0  0  0  0  0  2  0  0  0  0  0  0
  185.8780  176.9930  136.8000 O   0  0  0  0  0  0  0  0  0  0  0  0
  185.8360  175.7380  137.2110 O   0  0  0  0  0  0  0  0  0  0  0  0
  184.9820  175.0930  136.3100 C   0  0  0  0  0  2  0  0  0  0  0  0
  186.1480  173.2610  137.5240 C   0  0  0  0  0  1  0  0  0  0  0  0
  185.2080  173.5920  136.3800 C   0  0  1  0  0  3  0  0  0  0  0  0
  182.8550  173.3280  137.2000 C   0  0  0  0  0  3  0  0  0  0  0  0
  183.5810  171.7530  135.9070 C   0  0  0  0  0  0  0  0  0  0  0  0
  183.9350  172.8900  136.5290 N   0  0  0  0  0  0  0  0  0  0  0  0
  184.4700  170.9700  135.0030 C   0  0  0  0  0  1  0  0  0  0  0  0
  182.2770  171.4210  136.1990 C   0  0  0  0  0  3  0  0  0  0  0  0
  181.8130  172.4330  137.0260 C   0  0  0  0  0  3  0  0  0  0  0  0
  187.2290  177.3700  142.6040 C   0  0  0  0  0  2  0  0  0  0  0  0
  187.0550  179.4030  141.4140 O   0  0  0  0  0  0  0  0  0  0  0  0
  187.7150  178.4000  141.6330 C   0  0  0  0  0  0  0  0  0  0  0  0
  189.0520  178.2400  140.9770 C   0  0  0  0  0  2  0  0  0  0  0  0
  189.4190  176.7680  140.8550 C   0  0  0  0  0  2  0  0  0  0  0  0
  191.1060  176.4580  142.7040 C   0  0  0  0  0  0  0  0  0  0  0  0
  191.9800  177.0950  142.0540 O   0  0  0  0  0  0  0  0  0  0  0  0
  189.8080  176.2360  142.1520 N   0  0  0  0  0  2  0  0  0  0  0  0
  191.4200  175.9590  144.0770 C   0  0  0  0  0  2  0  0  0  0  0  0
  192.2410  175.4220  146.8030 C   0  0  0  0  0  1  0  0  0  0  0  0
  190.1900  176.6750  146.2030 C   0  0  2  0  0  3  0  0  0  0  0  0
  191.6650  176.8100  146.5650 C   0  0  2  0  0  3  0  0  0  0  0  0
  191.2100  177.0550  145.1260 C   0  0  1  0  0  0  0  0  0  0  0  0
  191.2240  178.4840  144.6610 C   0  0  0  0  0  0  0  0  0  0  0  0
  190.0690  179.0540  144.1400 O   0  0  0  0  0  0  0  0  0  0  0  0
  192.2880  179.1550  144.7010 O   0  0  0  0  0  1  0  0  0  0  0  0
  189.4320  177.8590  146.7970 C   0  0  0  0  0  2  0  0  0  0  0  0
  187.6280  178.3110  148.2890 O   0  0  0  0  0  1  0  0  0  0  0  0
  188.6790  177.4290  148.0390 C   0  0  0  0  0  2  0  0  0  0  0  0
  1  4  1  0  0  0  0
  1  3  1  0  0  0  0
  2 10  1  0  0  0  0
  3 10  1  0  0  0  0
  3  8  2  0  0  0  0
  4  9  2  0  0  0  0
  6  7  1  0  0  0  0
  6  2  2  0  0  0  0
  7  1  2  0  0  0  0
  8  5  1  0  0  0  0
  9  8  1  0  0  0  0
 12 11  1  6  0  0  0
 12  6  1  0  0  0  0
 13 14  1  0  0  0  0
 13 12  1  0  0  0  0
 15 14  2  0  0  0  0
 16 15  1  0  0  0  0
 17 23  1  6  0  0  0
 17 16  1  0  0  0  0
 19 18  2  0  0  0  0
 19 17  1  0  0  0  0
 20 22  1  0  0  0  0
 20 19  1  0  0  0  0
 22 21  1  0  0  0  0
 23 24  1  0  0  0  0
 25 27  1  0  0  0  0
 25 24  1  0  0  0  0
 27 30  1  0  0  0  0
 27 26  1  1  0  0  0
 29 32  2  0  0  0  0
 29 30  1  0  0  0  0
 30 28  1  0  0  0  0
 31 29  1  0  0  0  0
 32 33  1  0  0  0  0
 33 28  2  0  0  0  0
 34  4  1  0  0  0  0
 35 36  2  0  0  0  0
 36 34  1  0  0  0  0
 37 36  1  0  0  0  0
 38 37  1  0  0  0  0
 38 41  1  0  0  0  0
 39 42  1  0  0  0  0
 40 39  2  0  0  0  0
 41 39  1  0  0  0  0
 44 45  1  0  0  0  0
 44 50  1  1  0  0  0
 45 43  1  6  0  0  0
 46 42  1  6  0  0  0
 46 44  1  0  0  0  0
 46 45  1  0  0  0  0
 47 49  1  0  0  0  0
 47 46  1  0  0  0  0
 48 47  2  0  0  0  0
 50 52  1  0  0  0  0
 52 51  1  0  0  0  0
M  END
>  <MODEL>
9

>  <REMARK>
 VINA RESULT:      -7.0      3.325      6.861
  Name = 
  23 active torsions:
  status: ('A' for Active; 'I' for Inactive)
    1  A    between atoms: C_2  and  O_23
    2  A    between atoms: C_2  and  C_28
    3  A    between atoms: C_4  and  C_9
    4  A    between atoms: C_4  and  C_52
    5  A    between atoms: O_5  and  C_40
    6  A    between atoms: O_5  and  C_49
    7  A    between atoms: C_6  and  C_15
    8  A    between atoms: C_6  and  C_37
    9  A    between atoms: C_8  and  C_11
   10  A    between atoms: C_8  and  C_22
   11  A    between atoms: C_10  and  C_22
   12  A    between atoms: C_13  and  O_27
   13  A    between atoms: C_13  and  O_35
   14  A    between atoms: C_13  and  C_49
   15  A    between atoms: C_14  and  C_33
   16  A    between atoms: C_14  and  C_43
   17  A    between atoms: C_16  and  C_25
   18  A    between atoms: C_16  and  N_46
   19  A    between atoms: O_23  and  O_27
   20  A    between atoms: C_25  and  C_43
   21  A    between atoms: N_26  and  C_28
   22  A    between atoms: O_35  and  C_44
   23  A    between atoms: C_37  and  C_38
                            x       y       z     vdW  Elec       q    Type
                         _______ _______ _______ _____ _____    ______ ____

>  <TORSDO>
F 23

$$$$
