=
 OpenBabel11032419273D

 30 36  0  0  1  0  0  0  0  0999 V2000
  187.5690  178.2440  144.7610 C   0  0  1  0  0  3  0  0  0  0  0  0
  184.4920  178.9970  145.4930 N   0  0  0  0  0  0  0  0  0  0  0  0
  188.9650  177.2010  142.6340 C   0  0  1  0  0  3  0  0  0  0  0  0
  186.4280  177.2190  142.7240 N   0  0  0  0  0  2  0  0  0  0  0  0
  185.7160  178.6230  146.1300 C   0  0  0  0  0  0  0  0  0  0  0  0
  183.9580  179.0670  140.8300 N   0  0  0  0  0  0  0  0  0  0  0  0
  186.0200  179.2390  147.2860 C   0  0  0  0  0  2  0  0  0  0  0  0
  183.5050  179.1830  142.1710 C   0  0  2  0  0  3  0  0  0  0  0  0
  188.5720  177.3200  147.1180 C   0  0  2  0  0  3  0  0  0  0  0  0
  183.8930  178.2340  144.4000 C   0  0  2  0  0  3  0  0  0  0  0  0
  185.1110  178.4750  140.9200 C   0  0  0  0  0  3  0  0  0  0  0  0
  185.4400  178.1780  142.3260 C   0  0  0  0  0  0  0  0  0  0  0  0
  188.2240  178.2710  148.1760 C   0  0  0  0  0  3  0  0  0  0  0  0
  187.9380  177.3420  145.9650 C   0  0  1  0  0  3  0  0  0  0  0  0
  184.4490  178.6480  143.0770 C   0  0  0  0  0  0  0  0  0  0  0  0
  189.4760  176.1880  147.4430 C   0  0  0  0  0  1  0  0  0  0  0  0
  187.6830  177.6210  143.3660 C   0  0  1  0  0  0  0  0  0  0  0  0
  186.5360  177.5750  145.4470 C   0  0  2  0  0  3  0  0  0  0  0  0
  181.0910  179.3380  141.6860 C   0  0  0  0  0  1  0  0  0  0  0  0
  182.1010  178.6680  144.3060 S   0  0  0  0  0  0  0  0  0  0  0  0
  182.2610  179.2130  142.5980 C   0  0  1  0  0  3  0  0  0  0  0  0
  187.1610  179.0840  148.2230 C   0  0  0  0  0  3  0  0  0  0  0  0
  188.4060  178.5930  142.4440 C   0  0  0  0  0  2  0  0  0  0  0  0
  191.2340  179.7890  143.8690 Cl  0  0  0  0  0  0  0  0  0  0  0  0
  191.6020  177.5870  145.3970 C   0  0  0  0  0  2  0  0  0  0  0  0
  190.7810  175.9710  143.7860 N   0  0  0  0  0  2  0  0  0  0  0  0
  192.2150  175.2540  145.4930 O   0  0  0  0  0  0  0  0  0  0  0  0
  191.5830  176.1840  144.9280 C   0  0  0  0  0  0  0  0  0  0  0  0
  190.3330  177.2710  143.3360 C   0  0  2  0  0  3  0  0  0  0  0  0
  190.5730  178.2580  144.4910 C   0  0  2  0  0  3  0  0  0  0  0  0
  1 18  1  0  0  0  0
  1 14  1  0  0  0  0
  2  5  2  0  0  0  0
  3 29  1  0  0  0  0
  3 17  1  0  0  0  0
  4 17  1  0  0  0  0
  5  7  1  0  0  0  0
  6 11  2  0  0  0  0
  6  8  1  0  0  0  0
  7 22  1  0  0  0  0
  8 21  1  0  0  0  0
  8 15  1  0  0  0  0
  9 16  1  0  0  0  0
  9 13  1  0  0  0  0
 10  2  1  0  0  0  0
 11 12  1  0  0  0  0
 12  4  1  0  0  0  0
 12 15  2  0  0  0  0
 13 22  2  0  0  0  0
 14  9  1  0  0  0  0
 15 10  1  0  0  0  0
 17  1  1  0  0  0  0
 18 14  1  0  0  0  0
 18  5  1  0  0  0  0
 19 21  1  0  0  0  0
 20 10  1  0  0  0  0
 21 20  1  0  0  0  0
 23  3  1  0  0  0  0
 23 17  1  0  0  0  0
 24 30  1  0  0  0  0
 26 28  1  0  0  0  0
 28 25  1  0  0  0  0
 28 27  2  0  0  0  0
 29 26  1  0  0  0  0
 29 30  1  0  0  0  0
 30 25  1  0  0  0  0
M  END
>  <MODEL>
1

>  <REMARK>
 VINA RESULT:      -8.9      0.000      0.000
  Name = 
  1 active torsions:
  status: ('A' for Active; 'I' for Inactive)
    1  A    between atoms: C_4  and  C_25
                            x       y       z     vdW  Elec       q    Type
                         _______ _______ _______ _____ _____    ______ ____

>  <TORSDO>
F 1

$$$$
=
 OpenBabel11032419273D

 30 36  0  0  1  0  0  0  0  0999 V2000
  182.2720  178.5550  141.6410 C   0  0  1  0  0  3  0  0  0  0  0  0
  183.2220  178.4660  144.7490 N   0  0  0  0  0  2  0  0  0  0  0  0
  183.4180  178.9080  139.1660 C   0  0  1  0  0  3  0  0  0  0  0  0
  184.6870  179.3120  141.3270 N   0  0  0  0  0  2  0  0  0  0  0  0
  182.0690  178.7630  143.9580 C   0  0  0  0  0  0  0  0  0  0  0  0
  187.4280  177.5330  142.8850 N   0  0  0  0  0  0  0  0  0  0  0  0
  180.8780  178.3550  144.4300 C   0  0  0  0  0  3  0  0  0  0  0  0
  186.5280  177.7660  143.9590 C   0  0  2  0  0  3  0  0  0  0  0  0
  179.8370  179.7680  141.7580 C   0  0  2  0  0  3  0  0  0  0  0  0
  184.5300  179.0750  144.5180 C   0  0  2  0  0  3  0  0  0  0  0  0
  186.7930  177.9410  141.8280 C   0  0  0  0  0  3  0  0  0  0  0  0
  185.4610  178.4610  142.1820 C   0  0  0  0  0  0  0  0  0  0  0  0
  179.0450  179.1210  142.8050 C   0  0  0  0  0  3  0  0  0  0  0  0
  181.1440  179.6130  141.7160 C   0  0  1  0  0  3  0  0  0  0  0  0
  185.3120  178.3180  143.4960 C   0  0  0  0  0  0  0  0  0  0  0  0
  179.1860  180.7850  140.8940 C   0  0  0  0  0  1  0  0  0  0  0  0
  183.4440  178.8550  140.7000 C   0  0  1  0  0  0  0  0  0  0  0  0
  182.3040  179.5060  142.6800 C   0  0  2  0  0  3  0  0  0  0  0  0
  188.2040  177.9010  145.7640 C   0  0  0  0  0  1  0  0  0  0  0  0
  185.5210  178.9220  146.0680 S   0  0  0  0  0  0  0  0  0  0  0  0
  186.8260  178.0220  145.2140 C   0  0  1  0  0  3  0  0  0  0  0  0
  179.4970  178.5140  143.9100 C   0  0  0  0  0  3  0  0  0  0  0  0
  183.7490  177.6130  139.8730 C   0  0  0  0  0  2  0  0  0  0  0  0
  180.8350  181.1150  137.8140 Cl  0  0  0  0  0  0  0  0  0  0  0  0
  180.8980  178.8950  136.2700 C   0  0  0  0  0  2  0  0  0  0  0  0
  181.8800  177.4150  137.9210 N   0  0  0  0  0  2  0  0  0  0  0  0
  180.6670  176.4950  136.1430 O   0  0  0  0  0  0  0  0  0  0  0  0
  181.1140  177.5080  136.7390 C   0  0  0  0  0  0  0  0  0  0  0  0
  182.0930  178.7660  138.3940 C   0  0  2  0  0  3  0  0  0  0  0  0
  181.7600  179.7120  137.2280 C   0  0  2  0  0  3  0  0  0  0  0  0
  1 14  1  0  0  0  0
  1 18  1  0  0  0  0
  3 23  1  0  0  0  0
  3 17  1  0  0  0  0
  4 12  1  0  0  0  0
  5  7  2  0  0  0  0
  5  2  1  0  0  0  0
  6  8  1  0  0  0  0
  8 21  1  0  0  0  0
  9 13  1  0  0  0  0
 10  2  1  0  0  0  0
 10 20  1  0  0  0  0
 11 12  1  0  0  0  0
 11  6  2  0  0  0  0
 12 15  2  0  0  0  0
 13 22  2  0  0  0  0
 14  9  1  0  0  0  0
 14 18  1  0  0  0  0
 15  8  1  0  0  0  0
 15 10  1  0  0  0  0
 16  9  1  0  0  0  0
 17  4  1  0  0  0  0
 17  1  1  0  0  0  0
 18  5  1  0  0  0  0
 21 19  1  0  0  0  0
 21 20  1  0  0  0  0
 22  7  1  0  0  0  0
 23 17  1  0  0  0  0
 25 28  1  0  0  0  0
 25 30  1  0  0  0  0
 26 29  1  0  0  0  0
 27 28  2  0  0  0  0
 28 26  1  0  0  0  0
 29  3  1  0  0  0  0
 30 24  1  0  0  0  0
 30 29  1  0  0  0  0
M  END
>  <MODEL>
2

>  <REMARK>
 VINA RESULT:      -8.6      4.258      8.201
  Name = 
  1 active torsions:
  status: ('A' for Active; 'I' for Inactive)
    1  A    between atoms: C_4  and  C_25
                            x       y       z     vdW  Elec       q    Type
                         _______ _______ _______ _____ _____    ______ ____

>  <TORSDO>
F 1

$$$$
=
 OpenBabel11032419273D

 30 36  0  0  1  0  0  0  0  0999 V2000
  184.4870  177.8390  140.9880 C   0  0  1  0  0  3  0  0  0  0  0  0
  187.7200  177.9150  140.6500 N   0  0  0  0  0  0  0  0  0  0  0  0
  182.2630  178.1440  139.4010 C   0  0  1  0  0  3  0  0  0  0  0  0
  184.6040  178.6890  138.5870 N   0  0  0  0  0  2  0  0  0  0  0  0
  186.7110  178.1290  141.6400 C   0  0  0  0  0  0  0  0  0  0  0  0
  186.7380  177.0970  136.1340 N   0  0  0  0  0  0  0  0  0  0  0  0
  186.9670  177.6870  142.8840 C   0  0  0  0  0  2  0  0  0  0  0  0
  187.6080  177.3320  137.2310 C   0  0  2  0  0  3  0  0  0  0  0  0
  184.0820  178.9470  143.4420 C   0  0  2  0  0  3  0  0  0  0  0  0
  187.7140  178.5720  139.3460 C   0  0  2  0  0  3  0  0  0  0  0  0
  185.5610  177.4340  136.5680 C   0  0  0  0  0  3  0  0  0  0  0  0
  185.6300  177.9080  137.9610 C   0  0  0  0  0  0  0  0  0  0  0  0
  184.9880  178.3060  144.3970 C   0  0  0  0  0  3  0  0  0  0  0  0
  184.2960  178.8480  142.1470 C   0  0  1  0  0  3  0  0  0  0  0  0
  186.8970  177.8110  138.3550 C   0  0  0  0  0  0  0  0  0  0  0  0
  183.0630  179.8980  143.9510 C   0  0  0  0  0  1  0  0  0  0  0  0
  183.7740  178.1530  139.6690 C   0  0  1  0  0  0  0  0  0  0  0  0
  185.4680  178.8310  141.1910 C   0  0  2  0  0  3  0  0  0  0  0  0
  189.6910  177.6120  135.9390 C   0  0  0  0  0  1  0  0  0  0  0  0
  189.4300  178.5240  138.6660 S   0  0  0  0  0  0  0  0  0  0  0  0
  188.8840  177.6500  137.1890 C   0  0  1  0  0  3  0  0  0  0  0  0
  186.1870  177.7640  144.1440 C   0  0  0  0  0  3  0  0  0  0  0  0
  183.0800  176.8940  139.1660 C   0  0  0  0  0  2  0  0  0  0  0  0
  180.2930  180.1810  141.7120 Cl  0  0  0  0  0  0  0  0  0  0  0  0
  178.9410  177.8740  141.3070 C   0  0  0  0  0  2  0  0  0  0  0  0
  180.8460  176.5300  140.6380 N   0  0  0  0  0  2  0  0  0  0  0  0
  178.9310  175.4650  141.4630 O   0  0  0  0  0  0  0  0  0  0  0  0
  179.5340  176.5260  141.1600 C   0  0  0  0  0  0  0  0  0  0  0  0
  181.2600  177.9130  140.5470 C   0  0  2  0  0  3  0  0  0  0  0  0
  179.9910  178.7750  140.6640 C   0  0  2  0  0  3  0  0  0  0  0  0
  1 18  1  0  0  0  0
  1 14  1  0  0  0  0
  2  5  2  0  0  0  0
  3 17  1  0  0  0  0
  3 29  1  0  0  0  0
  4 17  1  0  0  0  0
  5  7  1  0  0  0  0
  6 11  2  0  0  0  0
  6  8  1  0  0  0  0
  7 22  1  0  0  0  0
  8 15  1  0  0  0  0
  9 16  1  0  0  0  0
  9 13  1  0  0  0  0
 10  2  1  0  0  0  0
 11 12  1  0  0  0  0
 12 15  2  0  0  0  0
 12  4  1  0  0  0  0
 14  9  1  0  0  0  0
 15 10  1  0  0  0  0
 17  1  1  0  0  0  0
 18  5  1  0  0  0  0
 18 14  1  0  0  0  0
 19 21  1  0  0  0  0
 20 10  1  0  0  0  0
 21  8  1  0  0  0  0
 21 20  1  0  0  0  0
 22 13  2  0  0  0  0
 23  3  1  0  0  0  0
 23 17  1  0  0  0  0
 26 28  1  0  0  0  0
 28 25  1  0  0  0  0
 28 27  2  0  0  0  0
 29 26  1  0  0  0  0
 29 30  1  0  0  0  0
 30 25  1  0  0  0  0
 30 24  1  0  0  0  0
M  END
>  <MODEL>
3

>  <REMARK>
 VINA RESULT:      -8.3      4.753      7.937
  Name = 
  1 active torsions:
  status: ('A' for Active; 'I' for Inactive)
    1  A    between atoms: C_4  and  C_25
                            x       y       z     vdW  Elec       q    Type
                         _______ _______ _______ _____ _____    ______ ____

>  <TORSDO>
F 1

$$$$
=
 OpenBabel11032419273D

 30 36  0  0  1  0  0  0  0  0999 V2000
  186.7850  177.7350  141.5140 C   0  0  1  0  0  3  0  0  0  0  0  0
  185.2880  178.1250  144.3740 N   0  0  0  0  0  2  0  0  0  0  0  0
  189.3520  177.7830  140.5310 C   0  0  1  0  0  3  0  0  0  0  0  0
  188.7780  178.5410  142.8840 N   0  0  0  0  0  2  0  0  0  0  0  0
  185.0380  178.2580  142.9730 C   0  0  0  0  0  0  0  0  0  0  0  0
  189.5240  177.1180  146.1290 N   0  0  0  0  0  0  0  0  0  0  0  0
  183.8310  177.8710  142.5240 C   0  0  0  0  0  3  0  0  0  0  0  0
  188.1490  177.4620  146.2230 C   0  0  2  0  0  3  0  0  0  0  0  0
  185.0500  178.8480  139.7350 C   0  0  2  0  0  3  0  0  0  0  0  0
  186.4230  178.7500  145.0470 C   0  0  2  0  0  3  0  0  0  0  0  0
  189.8370  177.3450  144.8880 C   0  0  0  0  0  3  0  0  0  0  0  0
  188.6750  177.8530  144.1380 C   0  0  0  0  0  0  0  0  0  0  0  0
  183.7100  178.3220  140.0000 C   0  0  0  0  0  3  0  0  0  0  0  0
  186.0000  178.7440  140.6400 C   0  0  1  0  0  3  0  0  0  0  0  0
  187.6420  177.8910  144.9750 C   0  0  0  0  0  0  0  0  0  0  0  0
  185.2580  179.7040  138.5400 C   0  0  0  0  0  1  0  0  0  0  0  0
  188.2970  177.9480  141.6340 C   0  0  1  0  0  0  0  0  0  0  0  0
  186.1470  178.8230  142.1430 C   0  0  2  0  0  3  0  0  0  0  0  0
  188.0940  177.9210  148.6460 C   0  0  0  0  0  1  0  0  0  0  0  0
  186.0390  178.8590  146.8490 S   0  0  0  0  0  0  0  0  0  0  0  0
  187.5040  177.9040  147.2800 C   0  0  1  0  0  3  0  0  0  0  0  0
  183.2190  177.8960  141.1720 C   0  0  0  0  0  3  0  0  0  0  0  0
  189.0060  176.6170  141.4280 C   0  0  0  0  0  2  0  0  0  0  0  0
  188.9110  179.6310  137.4070 Cl  0  0  0  0  0  0  0  0  0  0  0  0
  189.5970  177.0960  136.7620 C   0  0  0  0  0  2  0  0  0  0  0  0
  188.8560  176.0560  138.8240 N   0  0  0  0  0  2  0  0  0  0  0  0
  189.0640  174.7450  136.8960 O   0  0  0  0  0  0  0  0  0  0  0  0
  189.1580  175.8660  137.4590 C   0  0  0  0  0  0  0  0  0  0  0  0
  188.9360  177.4780  139.0800 C   0  0  2  0  0  3  0  0  0  0  0  0
  189.6920  178.1100  137.8990 C   0  0  2  0  0  3  0  0  0  0  0  0
  1 17  1  0  0  0  0
  1 18  1  0  0  0  0
  2 10  1  0  0  0  0
  3 23  1  0  0  0  0
  3 17  1  0  0  0  0
  4 12  1  0  0  0  0
  5  2  1  0  0  0  0
  6  8  1  0  0  0  0
  7  5  2  0  0  0  0
  8 21  1  0  0  0  0
  9 13  1  0  0  0  0
  9 14  1  0  0  0  0
 10 20  1  0  0  0  0
 11  6  2  0  0  0  0
 12 11  1  0  0  0  0
 12 15  2  0  0  0  0
 13 22  2  0  0  0  0
 14  1  1  0  0  0  0
 14 18  1  0  0  0  0
 15 10  1  0  0  0  0
 15  8  1  0  0  0  0
 16  9  1  0  0  0  0
 17  4  1  0  0  0  0
 18  5  1  0  0  0  0
 20 21  1  0  0  0  0
 21 19  1  0  0  0  0
 22  7  1  0  0  0  0
 23 17  1  0  0  0  0
 24 30  1  0  0  0  0
 25 28  1  0  0  0  0
 25 30  1  0  0  0  0
 26 29  1  0  0  0  0
 27 28  2  0  0  0  0
 28 26  1  0  0  0  0
 29  3  1  0  0  0  0
 30 29  1  0  0  0  0
M  END
>  <MODEL>
4

>  <REMARK>
 VINA RESULT:      -8.2      3.307      6.245
  Name = 
  1 active torsions:
  status: ('A' for Active; 'I' for Inactive)
    1  A    between atoms: C_4  and  C_25
                            x       y       z     vdW  Elec       q    Type
                         _______ _______ _______ _____ _____    ______ ____

>  <TORSDO>
F 1

$$$$
=
 OpenBabel11032419273D

 30 36  0  0  1  0  0  0  0  0999 V2000
  187.8670  178.0420  141.0150 C   0  0  1  0  0  3  0  0  0  0  0  0
  190.6440  177.3620  142.5630 N   0  0  0  0  0  2  0  0  0  0  0  0
  185.1770  178.0950  141.5800 C   0  0  1  0  0  3  0  0  0  0  0  0
  186.8850  177.1000  143.1710 N   0  0  0  0  0  2  0  0  0  0  0  0
  190.0930  177.3720  141.2450 C   0  0  0  0  0  0  0  0  0  0  0  0
  188.0840  178.1840  146.4110 N   0  0  0  0  0  0  0  0  0  0  0  0
  190.8870  177.8030  140.2500 C   0  0  0  0  0  3  0  0  0  0  0  0
  189.2720  177.8320  145.7160 C   0  0  2  0  0  3  0  0  0  0  0  0
  188.3060  177.1160  138.4920 C   0  0  2  0  0  3  0  0  0  0  0  0
  190.0180  176.6700  143.6880 C   0  0  2  0  0  3  0  0  0  0  0  0
  187.1410  178.0850  145.5230 C   0  0  0  0  0  3  0  0  0  0  0  0
  187.6850  177.6560  144.2230 C   0  0  0  0  0  0  0  0  0  0  0  0
  189.6050  177.6130  138.0340 C   0  0  0  0  0  3  0  0  0  0  0  0
  188.0000  177.1280  139.7730 C   0  0  1  0  0  3  0  0  0  0  0  0
  189.0020  177.5330  144.3610 C   0  0  0  0  0  0  0  0  0  0  0  0
  187.4410  176.3880  137.5320 C   0  0  0  0  0  1  0  0  0  0  0  0
  186.6480  177.8180  141.9160 C   0  0  1  0  0  0  0  0  0  0  0  0
  188.6820  176.8950  141.1030 C   0  0  2  0  0  3  0  0  0  0  0  0
  190.5970  177.1280  147.6740 C   0  0  0  0  0  1  0  0  0  0  0  0
  191.3050  176.3780  144.9770 S   0  0  0  0  0  0  0  0  0  0  0  0
  190.3590  177.2840  146.2130 C   0  0  1  0  0  3  0  0  0  0  0  0
  190.6720  177.9160  138.7860 C   0  0  0  0  0  3  0  0  0  0  0  0
  186.0150  179.1630  142.2420 C   0  0  0  0  0  2  0  0  0  0  0  0
  184.1510  176.5280  138.4390 Cl  0  0  0  0  0  0  0  0  0  0  0  0
  182.9780  178.9620  138.5550 C   0  0  0  0  0  2  0  0  0  0  0  0
  184.5550  179.9770  140.0910 N   0  0  0  0  0  2  0  0  0  0  0  0
  183.2610  181.3540  138.7100 O   0  0  0  0  0  0  0  0  0  0  0  0
  183.5820  180.2000  139.0930 C   0  0  0  0  0  0  0  0  0  0  0  0
  184.7620  178.5470  140.1670 C   0  0  2  0  0  3  0  0  0  0  0  0
  183.5790  177.8790  139.4460 C   0  0  2  0  0  3  0  0  0  0  0  0
  1 18  1  0  0  0  0
  1 17  1  0  0  0  0
  2 10  1  0  0  0  0
  3 17  1  0  0  0  0
  3 23  1  0  0  0  0
  4 12  1  0  0  0  0
  5  2  1  0  0  0  0
  7  5  2  0  0  0  0
  8 21  1  0  0  0  0
  8  6  1  0  0  0  0
  9 14  1  0  0  0  0
 10 15  1  0  0  0  0
 10 20  1  0  0  0  0
 11  6  2  0  0  0  0
 12 15  2  0  0  0  0
 12 11  1  0  0  0  0
 13  9  1  0  0  0  0
 13 22  2  0  0  0  0
 14  1  1  0  0  0  0
 14 18  1  0  0  0  0
 15  8  1  0  0  0  0
 16  9  1  0  0  0  0
 17 23  1  0  0  0  0
 17  4  1  0  0  0  0
 18  5  1  0  0  0  0
 20 21  1  0  0  0  0
 21 19  1  0  0  0  0
 22  7  1  0  0  0  0
 24 30  1  0  0  0  0
 25 28  1  0  0  0  0
 25 30  1  0  0  0  0
 26 29  1  0  0  0  0
 27 28  2  0  0  0  0
 28 26  1  0  0  0  0
 29  3  1  0  0  0  0
 30 29  1  0  0  0  0
M  END
>  <MODEL>
5

>  <REMARK>
 VINA RESULT:      -7.8      4.121      7.814
  Name = 
  1 active torsions:
  status: ('A' for Active; 'I' for Inactive)
    1  A    between atoms: C_4  and  C_25
                            x       y       z     vdW  Elec       q    Type
                         _______ _______ _______ _____ _____    ______ ____

>  <TORSDO>
F 1

$$$$
=
 OpenBabel11032419273D

 30 36  0  0  1  0  0  0  0  0999 V2000
  186.9910  177.5970  140.2950 C   0  0  1  0  0  3  0  0  0  0  0  0
  190.0780  176.8480  140.9890 N   0  0  0  0  0  0  0  0  0  0  0  0
  185.5660  178.6130  138.1750 C   0  0  1  0  0  3  0  0  0  0  0  0
  188.1030  178.5900  138.2260 N   0  0  0  0  0  2  0  0  0  0  0  0
  188.8650  177.2340  141.6410 C   0  0  0  0  0  0  0  0  0  0  0  0
  190.5390  176.7100  136.3200 N   0  0  0  0  0  0  0  0  0  0  0  0
  188.5780  176.6350  142.8090 C   0  0  0  0  0  2  0  0  0  0  0  0
  191.0130  176.6120  137.6560 C   0  0  2  0  0  3  0  0  0  0  0  0
  186.0270  178.5570  142.6540 C   0  0  2  0  0  3  0  0  0  0  0  0
  190.6620  177.5930  139.8770 C   0  0  2  0  0  3  0  0  0  0  0  0
  189.3900  177.3060  136.4200 C   0  0  0  0  0  3  0  0  0  0  0  0
  189.0830  177.6230  137.8260 C   0  0  0  0  0  0  0  0  0  0  0  0
  186.3890  177.6210  143.7190 C   0  0  0  0  0  3  0  0  0  0  0  0
  186.6430  178.5170  141.4910 C   0  0  1  0  0  3  0  0  0  0  0  0
  190.0850  177.1630  138.5690 C   0  0  0  0  0  0  0  0  0  0  0  0
  185.1310  179.6950  142.9770 C   0  0  0  0  0  1  0  0  0  0  0  0
  186.8580  178.2000  138.8930 C   0  0  1  0  0  0  0  0  0  0  0  0
  188.0360  178.2740  140.9550 C   0  0  2  0  0  3  0  0  0  0  0  0
  193.4190  176.4440  137.1360 C   0  0  0  0  0  1  0  0  0  0  0  0
  192.4510  177.1540  139.7620 S   0  0  0  0  0  0  0  0  0  0  0  0
  192.2630  176.5860  138.0640 C   0  0  1  0  0  3  0  0  0  0  0  0
  187.4520  176.8060  143.7610 C   0  0  0  0  0  3  0  0  0  0  0  0
  186.1180  177.2170  137.9960 C   0  0  0  0  0  2  0  0  0  0  0  0
  182.7450  180.8550  138.7950 Cl  0  0  0  0  0  0  0  0  0  0  0  0
  181.7820  178.3280  138.7590 C   0  0  0  0  0  2  0  0  0  0  0  0
  183.8640  177.2120  139.3080 N   0  0  0  0  0  2  0  0  0  0  0  0
  181.8380  176.1140  139.7190 O   0  0  0  0  0  0  0  0  0  0  0  0
  182.4550  177.1270  139.3020 C   0  0  0  0  0  0  0  0  0  0  0  0
  184.2080  178.5570  138.8990 C   0  0  2  0  0  3  0  0  0  0  0  0
  182.9510  179.1710  138.2580 C   0  0  2  0  0  3  0  0  0  0  0  0
  1 18  1  0  0  0  0
  1 14  1  0  0  0  0
  2  5  2  0  0  0  0
  3 17  1  0  0  0  0
  3 29  1  0  0  0  0
  4 17  1  0  0  0  0
  5  7  1  0  0  0  0
  6 11  2  0  0  0  0
  6  8  1  0  0  0  0
  7 22  1  0  0  0  0
  8 21  1  0  0  0  0
  8 15  1  0  0  0  0
  9 16  1  0  0  0  0
  9 13  1  0  0  0  0
 10  2  1  0  0  0  0
 11 12  1  0  0  0  0
 12  4  1  0  0  0  0
 12 15  2  0  0  0  0
 13 22  2  0  0  0  0
 14  9  1  0  0  0  0
 15 10  1  0  0  0  0
 17  1  1  0  0  0  0
 18 14  1  0  0  0  0
 18  5  1  0  0  0  0
 19 21  1  0  0  0  0
 20 10  1  0  0  0  0
 21 20  1  0  0  0  0
 23  3  1  0  0  0  0
 23 17  1  0  0  0  0
 25 28  1  0  0  0  0
 28 26  1  0  0  0  0
 28 27  2  0  0  0  0
 29 26  1  0  0  0  0
 30 25  1  0  0  0  0
 30 24  1  0  0  0  0
 30 29  1  0  0  0  0
M  END
>  <MODEL>
6

>  <REMARK>
 VINA RESULT:      -7.8      4.989      8.025
  Name = 
  1 active torsions:
  status: ('A' for Active; 'I' for Inactive)
    1  A    between atoms: C_4  and  C_25
                            x       y       z     vdW  Elec       q    Type
                         _______ _______ _______ _____ _____    ______ ____

>  <TORSDO>
F 1

$$$$
=
 OpenBabel11032419273D

 30 36  0  0  1  0  0  0  0  0999 V2000
  185.5080  178.0340  141.1500 C   0  0  1  0  0  3  0  0  0  0  0  0
  188.5980  177.2190  141.7480 N   0  0  0  0  0  0  0  0  0  0  0  0
  184.0200  178.9850  139.0420 C   0  0  1  0  0  3  0  0  0  0  0  0
  186.5550  178.8810  138.9850 N   0  0  0  0  0  2  0  0  0  0  0  0
  187.4280  177.6780  142.4300 C   0  0  0  0  0  0  0  0  0  0  0  0
  188.8440  176.8260  137.0770 N   0  0  0  0  0  0  0  0  0  0  0  0
  187.1750  177.1500  143.6400 C   0  0  0  0  0  2  0  0  0  0  0  0
  189.3740  176.7810  138.3940 C   0  0  2  0  0  3  0  0  0  0  0  0
  184.6810  179.1440  143.4940 C   0  0  2  0  0  3  0  0  0  0  0  0
  189.1540  177.8860  140.5740 C   0  0  2  0  0  3  0  0  0  0  0  0
  187.7190  177.4640  137.1950 C   0  0  0  0  0  3  0  0  0  0  0  0
  187.4850  177.8630  138.5940 C   0  0  0  0  0  0  0  0  0  0  0  0
  185.0610  178.2530  144.5910 C   0  0  0  0  0  3  0  0  0  0  0  0
  185.2420  179.0240  142.3100 C   0  0  1  0  0  3  0  0  0  0  0  0
  188.5050  177.4080  139.3170 C   0  0  0  0  0  0  0  0  0  0  0  0
  183.8360  180.3270  143.7950 C   0  0  0  0  0  1  0  0  0  0  0  0
  185.3290  178.5670  139.7250 C   0  0  1  0  0  0  0  0  0  0  0  0
  186.6020  178.7080  141.7270 C   0  0  2  0  0  3  0  0  0  0  0  0
  191.7480  176.5070  137.7800 C   0  0  0  0  0  1  0  0  0  0  0  0
  190.9210  177.3830  140.4040 S   0  0  0  0  0  0  0  0  0  0  0  0
  190.6400  176.7340  138.7480 C   0  0  1  0  0  3  0  0  0  0  0  0
  186.1000  177.4070  144.6300 C   0  0  0  0  0  3  0  0  0  0  0  0
  184.5200  177.5650  138.9140 C   0  0  0  0  0  2  0  0  0  0  0  0
  181.1820  181.2510  139.4690 Cl  0  0  0  0  0  0  0  0  0  0  0  0
  180.2700  178.7300  139.8280 C   0  0  0  0  0  2  0  0  0  0  0  0
  182.3960  177.7320  140.4340 N   0  0  0  0  0  2  0  0  0  0  0  0
  180.4110  176.6730  141.0830 O   0  0  0  0  0  0  0  0  0  0  0  0
  180.9900  177.6270  140.5020 C   0  0  0  0  0  0  0  0  0  0  0  0
  182.6950  179.0110  139.8270 C   0  0  2  0  0  3  0  0  0  0  0  0
  181.4000  179.5120  139.1640 C   0  0  2  0  0  3  0  0  0  0  0  0
  1 18  1  0  0  0  0
  1 14  1  0  0  0  0
  2  5  2  0  0  0  0
  3 17  1  0  0  0  0
  3 29  1  0  0  0  0
  4 17  1  0  0  0  0
  5  7  1  0  0  0  0
  6 11  2  0  0  0  0
  6  8  1  0  0  0  0
  7 22  1  0  0  0  0
  8 21  1  0  0  0  0
  8 15  1  0  0  0  0
  9 16  1  0  0  0  0
  9 13  1  0  0  0  0
 10  2  1  0  0  0  0
 11 12  1  0  0  0  0
 12  4  1  0  0  0  0
 12 15  2  0  0  0  0
 13 22  2  0  0  0  0
 14  9  1  0  0  0  0
 15 10  1  0  0  0  0
 17  1  1  0  0  0  0
 18 14  1  0  0  0  0
 18  5  1  0  0  0  0
 19 21  1  0  0  0  0
 20 10  1  0  0  0  0
 21 20  1  0  0  0  0
 23  3  1  0  0  0  0
 23 17  1  0  0  0  0
 25 28  1  0  0  0  0
 26 28  1  0  0  0  0
 28 27  2  0  0  0  0
 29 26  1  0  0  0  0
 30 24  1  0  0  0  0
 30 29  1  0  0  0  0
 30 25  1  0  0  0  0
M  END
>  <MODEL>
7

>  <REMARK>
 VINA RESULT:      -7.7      4.498      7.639
  Name = 
  1 active torsions:
  status: ('A' for Active; 'I' for Inactive)
    1  A    between atoms: C_4  and  C_25
                            x       y       z     vdW  Elec       q    Type
                         _______ _______ _______ _____ _____    ______ ____

>  <TORSDO>
F 1

$$$$
=
 OpenBabel11032419273D

 30 36  0  0  1  0  0  0  0  0999 V2000
  189.0900  177.8790  141.7830 C   0  0  1  0  0  3  0  0  0  0  0  0
  187.5390  177.9380  138.9260 N   0  0  0  0  0  0  0  0  0  0  0  0
  191.3720  176.7710  142.8440 C   0  0  1  0  0  3  0  0  0  0  0  0
  190.4840  176.1350  140.5530 N   0  0  0  0  0  2  0  0  0  0  0  0
  187.2750  178.0650  140.3250 C   0  0  0  0  0  0  0  0  0  0  0  0
  191.7480  176.7530  137.2170 N   0  0  0  0  0  0  0  0  0  0  0  0
  186.3800  178.9960  140.6990 C   0  0  0  0  0  2  0  0  0  0  0  0
  190.3650  177.0590  137.1120 C   0  0  0  0  0  0  0  0  0  0  0  0
  187.0640  177.8440  143.6020 C   0  0  2  0  0  3  0  0  0  0  0  0
  188.2590  176.8060  138.3470 C   0  0  2  0  0  3  0  0  0  0  0  0
  191.9410  176.5280  138.4820 C   0  0  0  0  0  2  0  0  0  0  0  0
  190.6860  176.6730  139.2400 C   0  0  0  0  0  0  0  0  0  0  0  0
  186.1030  178.8900  143.2490 C   0  0  0  0  0  3  0  0  0  0  0  0
  187.9460  177.4210  142.7210 C   0  0  1  0  0  3  0  0  0  0  0  0
  189.7360  177.0260  138.3780 C   0  0  0  0  0  0  0  0  0  0  0  0
  186.8790  177.1040  144.8750 C   0  0  0  0  0  1  0  0  0  0  0  0
  190.3410  176.9970  141.7290 C   0  0  1  0  0  0  0  0  0  0  0  0
  188.0210  177.1420  141.2360 C   0  0  2  0  0  3  0  0  0  0  0  0
  190.0750  176.4460  134.7400 C   0  0  0  0  0  1  0  0  0  0  0  0
  187.8430  176.7120  136.5510 S   0  0  0  0  0  0  0  0  0  0  0  0
  189.5740  176.8570  136.0800 C   0  0  1  0  0  3  0  0  0  0  0  0
  185.8420  179.3780  142.0280 C   0  0  0  0  0  3  0  0  0  0  0  0
  191.5780  177.8770  141.8350 C   0  0  0  0  0  2  0  0  0  0  0  0
  191.3050  180.0870  144.3840 Cl  0  0  0  0  0  0  0  0  0  0  0  0
  189.6760  178.4850  145.8310 C   0  0  0  0  0  2  0  0  0  0  0  0
  190.6930  176.3780  145.1950 N   0  0  0  0  0  2  0  0  0  0  0  0
  189.4470  176.4920  147.1730 O   0  0  0  0  0  0  0  0  0  0  0  0
  189.9080  177.0590  146.1500 C   0  0  0  0  0  0  0  0  0  0  0  0
  191.1590  177.3680  144.2480 C   0  0  2  0  0  3  0  0  0  0  0  0
  190.2940  178.6240  144.4430 C   0  0  2  0  0  3  0  0  0  0  0  0
  1 14  1  0  0  0  0
  2  5  2  0  0  0  0
  3 29  1  0  0  0  0
  4 17  1  0  0  0  0
  5  7  1  0  0  0  0
  5 18  1  0  0  0  0
  6 11  1  0  0  0  0
  7 22  1  0  0  0  0
  8  6  2  0  0  0  0
  8 15  1  0  0  0  0
  9 16  1  0  0  0  0
 10 15  1  0  0  0  0
 10  2  1  0  0  0  0
 11 12  1  0  0  0  0
 12  4  1  0  0  0  0
 13  9  1  0  0  0  0
 14  9  1  0  0  0  0
 15 12  2  0  0  0  0
 17  1  1  0  0  0  0
 17 23  1  0  0  0  0
 17  3  1  0  0  0  0
 18  1  1  0  0  0  0
 18 14  1  0  0  0  0
 19 21  1  0  0  0  0
 20 10  1  0  0  0  0
 21 20  1  0  0  0  0
 21  8  1  0  0  0  0
 22 13  2  0  0  0  0
 23  3  1  0  0  0  0
 24 30  1  0  0  0  0
 25 28  1  0  0  0  0
 26 28  1  0  0  0  0
 28 27  2  0  0  0  0
 29 30  1  0  0  0  0
 29 26  1  0  0  0  0
 30 25  1  0  0  0  0
M  END
>  <MODEL>
8

>  <REMARK>
 VINA RESULT:      -7.7      3.801      5.909
  Name = 
  1 active torsions:
  status: ('A' for Active; 'I' for Inactive)
    1  A    between atoms: C_4  and  C_25
                            x       y       z     vdW  Elec       q    Type
                         _______ _______ _______ _____ _____    ______ ____

>  <TORSDO>
F 1

$$$$
=
 OpenBabel11032419273D

 30 36  0  0  1  0  0  0  0  0999 V2000
  189.0250  177.0670  140.1590 C   0  0  1  0  0  3  0  0  0  0  0  0
  187.1130  176.7460  137.5490 N   0  0  0  0  0  2  0  0  0  0  0  0
  189.0710  178.5290  142.4870 C   0  0  1  0  0  3  0  0  0  0  0  0
  187.4280  179.0030  140.6120 N   0  0  0  0  0  2  0  0  0  0  0  0
  188.4790  176.5870  137.9400 C   0  0  0  0  0  0  0  0  0  0  0  0
  183.8410  178.5710  140.3770 N   0  0  0  0  0  0  0  0  0  0  0  0
  189.1420  175.5290  137.4420 C   0  0  0  0  0  3  0  0  0  0  0  0
  184.3210  178.0490  139.1470 C   0  0  0  0  0  0  0  0  0  0  0  0
  191.5360  176.7940  139.1420 C   0  0  2  0  0  3  0  0  0  0  0  0
  186.3540  177.9740  137.7740 C   0  0  2  0  0  3  0  0  0  0  0  0
  184.9120  178.8320  141.0650 C   0  0  0  0  0  2  0  0  0  0  0  0
  186.1240  178.4950  140.2990 C   0  0  0  0  0  0  0  0  0  0  0  0
  191.5640  175.6060  138.2870 C   0  0  0  0  0  3  0  0  0  0  0  0
  190.3900  177.3450  139.4830 C   0  0  1  0  0  3  0  0  0  0  0  0
  185.7340  177.9910  139.1320 C   0  0  0  0  0  0  0  0  0  0  0  0
  192.8090  177.5030  139.4230 C   0  0  0  0  0  1  0  0  0  0  0  0
  188.4950  178.1370  141.1200 C   0  0  1  0  0  0  0  0  0  0  0  0
  189.0380  177.6230  138.8640 C   0  0  2  0  0  3  0  0  0  0  0  0
  182.3480  178.5930  137.7710 C   0  0  0  0  0  1  0  0  0  0  0  0
  184.9210  177.9890  136.6100 S   0  0  0  0  0  0  0  0  0  0  0  0
  183.7440  178.1170  137.9670 C   0  0  1  0  0  3  0  0  0  0  0  0
  190.5460  175.0750  137.5960 C   0  0  0  0  0  3  0  0  0  0  0  0
  188.0030  177.4630  142.3940 C   0  0  0  0  0  2  0  0  0  0  0  0
  192.0210  179.6340  144.3440 Cl  0  0  0  0  0  0  0  0  0  0  0  0
  191.6810  176.9990  144.8510 C   0  0  0  0  0  2  0  0  0  0  0  0
  190.4100  176.4760  142.8530 N   0  0  0  0  0  2  0  0  0  0  0  0
  191.5410  174.7560  143.9690 O   0  0  0  0  0  0  0  0  0  0  0  0
  191.2310  175.9730  143.8850 C   0  0  0  0  0  0  0  0  0  0  0  0
  190.3890  177.9160  142.9940 C   0  0  2  0  0  3  0  0  0  0  0  0
  190.9150  178.2410  144.4020 C   0  0  2  0  0  3  0  0  0  0  0  0
  1 17  1  0  0  0  0
  2 10  1  0  0  0  0
  2  5  1  0  0  0  0
  3 29  1  0  0  0  0
  4 17  1  0  0  0  0
  5 18  1  0  0  0  0
  6 11  1  0  0  0  0
  7 22  1  0  0  0  0
  7  5  2  0  0  0  0
  8  6  2  0  0  0  0
  9 16  1  0  0  0  0
  9 14  1  0  0  0  0
 10 15  1  0  0  0  0
 12  4  1  0  0  0  0
 12 11  1  0  0  0  0
 13  9  1  0  0  0  0
 14  1  1  0  0  0  0
 15  8  1  0  0  0  0
 15 12  2  0  0  0  0
 17 23  1  0  0  0  0
 17  3  1  0  0  0  0
 18 14  1  0  0  0  0
 18  1  1  0  0  0  0
 19 21  1  0  0  0  0
 20 10  1  0  0  0  0
 20 21  1  0  0  0  0
 21  8  1  0  0  0  0
 22 13  2  0  0  0  0
 23  3  1  0  0  0  0
 24 30  1  0  0  0  0
 26 29  1  0  0  0  0
 26 28  1  0  0  0  0
 28 27  2  0  0  0  0
 28 25  1  0  0  0  0
 29 30  1  0  0  0  0
 30 25  1  0  0  0  0
M  END
>  <MODEL>
9

>  <REMARK>
 VINA RESULT:      -7.4      3.411      5.838
  Name = 
  1 active torsions:
  status: ('A' for Active; 'I' for Inactive)
    1  A    between atoms: C_4  and  C_25
                            x       y       z     vdW  Elec       q    Type
                         _______ _______ _______ _____ _____    ______ ____

>  <TORSDO>
F 1

$$$$
