=
 OpenBabel11042411303D

 55 59  0  0  1  0  0  0  0  0999 V2000
  187.8610  178.5980  138.7920 O   0  0  0  0  0  0  0  0  0  0  0  0
  189.0570  177.9400  138.4140 C   0  0  2  0  0  3  0  0  0  0  0  0
  187.1380  177.0570  137.3400 N   0  0  0  0  0  0  0  0  0  0  0  0
  188.5770  176.8520  137.4470 C   0  0  1  0  0  3  0  0  0  0  0  0
  186.8020  178.0260  138.1210 C   0  0  0  0  0  0  0  0  0  0  0  0
  191.0720  177.2510  139.6860 C   0  0  0  0  0  2  0  0  0  0  0  0
  189.7390  177.3640  139.6260 C   0  0  0  0  0  0  0  0  0  0  0  0
  188.9120  177.0540  140.8370 C   0  0  0  0  0  2  0  0  0  0  0  0
  188.6890  178.2490  141.6460 N   0  0  0  0  0  2  0  0  0  0  0  0
  189.8880  178.5320  142.4250 C   0  0  0  0  0  2  0  0  0  0  0  0
  188.5750  176.9370  145.3720 O   0  0  0  0  0  0  0  0  0  0  0  0
  189.1420  178.0390  144.7140 C   0  0  0  0  0  2  0  0  0  0  0  0
  190.0330  177.5600  143.5850 C   0  0  2  0  0  3  0  0  0  0  0  0
  190.2220  176.2520  147.0590 C   0  0  0  0  0  2  0  0  0  0  0  0
  188.9100  176.9760  146.7470 C   0  0  1  0  0  3  0  0  0  0  0  0
  191.4430  176.9430  146.4690 C   0  0  0  0  0  2  0  0  0  0  0  0
  191.7260  176.4230  145.0680 C   0  0  0  0  0  2  0  0  0  0  0  0
  191.4880  177.5130  144.0330 C   0  0  0  0  0  2  0  0  0  0  0  0
  188.8670  178.2720  147.3100 O   0  0  0  0  0  0  0  0  0  0  0  0
  187.7350  178.3850  148.1500 C   0  0  2  0  0  3  0  0  0  0  0  0
  187.4410  177.1250  148.9620 C   0  0  0  0  0  1  0  0  0  0  0  0
  185.8640  178.1800  146.4640 N   0  0  0  0  0  2  0  0  0  0  0  0
  186.0880  180.0910  147.7850 O   0  0  0  0  0  0  0  0  0  0  0  0
  184.6480  178.6390  145.8160 C   0  0  0  0  0  1  0  0  0  0  0  0
  186.5320  178.9580  147.4580 C   0  0  0  0  0  0  0  0  0  0  0  0
  189.2380  176.9880  136.0860 C   0  0  0  0  0  2  0  0  0  0  0  0
  189.4590  174.5020  136.0770 C   0  0  0  0  0  0  0  0  0  0  0  0
  191.7360  173.5790  136.4570 N   0  0  1  0  0  0  0  0  0  0  0  0
  193.6540  174.2290  137.8220 C   0  0  0  0  0  1  0  0  0  0  0  0
  192.3320  174.8170  135.8750 C   0  0  2  0  0  3  0  0  0  0  0  0
  188.2650  174.2270  135.7910 O   0  0  0  0  0  0  0  0  0  0  0  0
  192.2860  174.6470  137.3200 C   0  0  1  0  0  3  0  0  0  0  0  0
  189.9960  175.7820  135.8010 N   0  0  0  0  0  0  0  0  0  0  0  0
  191.3630  175.8840  135.3190 C   0  0  0  0  0  2  0  0  0  0  0  0
  190.3060  173.5180  136.7970 C   0  0  0  0  0  2  0  0  0  0  0  0
  185.3970  178.4970  138.2660 C   0  0  0  0  0  2  0  0  0  0  0  0
  184.8850  178.1320  139.5740 N   0  0  0  0  0  2  0  0  0  0  0  0
  183.6630  178.9000  139.7650 C   0  0  1  0  0  3  0  0  0  0  0  0
  181.3810  175.8310  138.4850 C   0  0  2  0  0  3  0  0  0  0  0  0
  182.1890  177.0010  138.9490 N   0  0  0  0  0  0  0  0  0  0  0  0
  182.5720  178.3710  138.8720 C   0  0  0  0  0  0  0  0  0  0  0  0
  182.2680  175.6250  139.5210 C   0  0  0  0  0  2  0  0  0  0  0  0
  182.0260  179.1110  138.0090 O   0  0  0  0  0  0  0  0  0  0  0  0
  181.9670  175.2830  137.1870 C   0  0  1  0  0  3  0  0  0  0  0  0
  183.2690  173.1390  137.0490 C   0  0  0  0  0  0  0  0  0  0  0  0
  183.3190  171.8820  137.0640 O   0  0  0  0  0  0  0  0  0  0  0  0
  182.0130  173.8190  137.2140 N   0  0  0  0  0  0  0  0  0  0  0  0
  184.5410  173.9020  136.8660 C   0  0  0  0  0  1  0  0  0  0  0  0
  180.7940  173.0550  137.4990 C   0  0  0  0  0  2  0  0  0  0  0  0
  180.1500  172.5540  136.2110 C   0  0  0  0  0  2  0  0  0  0  0  0
  180.1990  171.1030  136.1500 N   0  0  0  0  0  1  0  0  0  0  0  0
  181.8580  176.8780  135.4220 O   0  0  0  0  0  1  0  0  0  0  0  0
  181.1960  175.7810  135.9730 C   0  0  0  0  0  2  0  0  0  0  0  0
  183.2740  178.8690  141.2400 C   0  0  0  0  0  2  0  0  0  0  0  0
  184.3180  178.1120  142.0400 C   0  0  0  0  0  1  0  0  0  0  0  0
  2  1  1  0  0  0  0
  2  7  1  1  0  0  0
  3  4  1  0  0  0  0
  3  5  2  0  0  0  0
  4 26  1  6  0  0  0
  4  2  1  0  0  0  0
  5 36  1  0  0  0  0
  5  1  1  0  0  0  0
  7  6  2  0  0  0  0
  7  8  1  0  0  0  0
  8  9  1  0  0  0  0
  9 10  1  0  0  0  0
 11 15  1  0  0  0  0
 12 11  1  0  0  0  0
 13 10  1  6  0  0  0
 13 18  1  0  0  0  0
 13 12  1  0  0  0  0
 15 14  1  0  0  0  0
 15 19  1  6  0  0  0
 16 14  1  0  0  0  0
 17 16  1  0  0  0  0
 18 17  1  0  0  0  0
 19 20  1  0  0  0  0
 20 21  1  6  0  0  0
 22 25  1  0  0  0  0
 24 22  1  0  0  0  0
 25 23  2  0  0  0  0
 25 20  1  0  0  0  0
 27 35  1  0  0  0  0
 28 35  1  1  0  0  0
 28 32  1  0  0  0  0
 30 34  1  1  0  0  0
 30 28  1  0  0  0  0
 30 32  1  0  0  0  0
 31 27  2  0  0  0  0
 32 29  1  6  0  0  0
 33 27  1  0  0  0  0
 33 26  1  0  0  0  0
 34 33  1  0  0  0  0
 36 37  1  0  0  0  0
 37 38  1  0  0  0  0
 38 54  1  1  0  0  0
 39 44  1  6  0  0  0
 39 40  1  0  0  0  0
 39 42  1  0  0  0  0
 40 42  1  0  0  0  0
 41 40  1  0  0  0  0
 41 38  1  0  0  0  0
 43 41  2  0  0  0  0
 44 53  1  6  0  0  0
 44 47  1  0  0  0  0
 45 46  2  0  0  0  0
 45 47  1  0  0  0  0
 47 49  1  0  0  0  0
 48 45  1  0  0  0  0
 50 49  1  0  0  0  0
 51 50  1  0  0  0  0
 52 53  1  0  0  0  0
 54 55  1  0  0  0  0
M  END
>  <MODEL>
1

>  <REMARK>
 VINA RESULT:      -6.5      0.000      0.000
  Name = 
  20 active torsions:
  status: ('A' for Active; 'I' for Inactive)
    1  A    between atoms: C_3  and  C_12
    2  A    between atoms: C_3  and  N_25
    3  A    between atoms: C_5  and  C_37
    4  A    between atoms: C_5  and  O_38
    5  A    between atoms: C_8  and  C_10
    6  A    between atoms: C_8  and  N_31
    7  A    between atoms: C_9  and  N_25
    8  A    between atoms: C_9  and  C_28
    9  A    between atoms: C_9  and  C_41
   10  A    between atoms: C_15  and  N_19
   11  A    between atoms: C_15  and  C_43
   12  A    between atoms: C_18  and  N_33
   13  A    between atoms: C_18  and  C_42
   14  A    between atoms: N_19  and  C_26
   15  A    between atoms: C_22  and  C_26
   16  A    between atoms: C_26  and  C_47
   17  A    between atoms: N_31  and  C_39
   18  A    between atoms: C_34  and  C_35
   19  A    between atoms: C_34  and  C_39
   20  A    between atoms: O_38  and  C_44
                            x       y       z     vdW  Elec       q    Type
                         _______ _______ _______ _____ _____    ______ ____

>  <TORSDO>
F 20

$$$$
=
 OpenBabel11042411303D

 55 59  0  0  1  0  0  0  0  0999 V2000
  190.2350  175.2290  136.5570 O   0  0  0  0  0  0  0  0  0  0  0  0
  191.6200  175.4150  136.7950 C   0  0  2  0  0  3  0  0  0  0  0  0
  191.0530  173.1580  136.3470 N   0  0  0  0  0  0  0  0  0  0  0  0
  192.1930  173.9960  136.6930 C   0  0  1  0  0  3  0  0  0  0  0  0
  189.9970  173.8960  136.3040 C   0  0  0  0  0  0  0  0  0  0  0  0
  192.9890  176.6290  138.4690 C   0  0  0  0  0  2  0  0  0  0  0  0
  191.8370  176.0220  138.1550 C   0  0  0  0  0  0  0  0  0  0  0  0
  190.6860  176.0710  139.1130 C   0  0  0  0  0  2  0  0  0  0  0  0
  190.4740  177.4250  139.6160 N   0  0  0  0  0  2  0  0  0  0  0  0
  189.1790  177.4910  140.2840 C   0  0  0  0  0  2  0  0  0  0  0  0
  187.6600  176.6230  143.4290 O   0  0  0  0  0  0  0  0  0  0  0  0
  188.0500  177.5660  142.4650 C   0  0  0  0  0  2  0  0  0  0  0  0
  189.2900  177.0780  141.7420 C   0  0  2  0  0  3  0  0  0  0  0  0
  188.9580  177.1590  145.4440 C   0  0  0  0  0  2  0  0  0  0  0  0
  187.6190  177.2340  144.7060 C   0  0  1  0  0  3  0  0  0  0  0  0
  190.0510  177.9900  144.7870 C   0  0  0  0  0  2  0  0  0  0  0  0
  190.8040  177.1640  143.7560 C   0  0  0  0  0  2  0  0  0  0  0  0
  190.5430  177.6910  142.3520 C   0  0  0  0  0  2  0  0  0  0  0  0
  187.0850  178.5430  144.6980 O   0  0  0  0  0  0  0  0  0  0  0  0
  186.0340  178.6300  145.6400 C   0  0  2  0  0  3  0  0  0  0  0  0
  186.0560  177.5250  146.6940 C   0  0  0  0  0  1  0  0  0  0  0  0
  184.5370  178.6690  143.6050 N   0  0  0  0  0  2  0  0  0  0  0  0
  183.6900  179.1340  145.7290 O   0  0  0  0  0  0  0  0  0  0  0  0
  183.2460  178.7810  142.9470 C   0  0  0  0  0  1  0  0  0  0  0  0
  184.6870  178.8470  145.0130 C   0  0  0  0  0  0  0  0  0  0  0  0
  193.2660  173.9060  135.6230 C   0  0  0  0  0  2  0  0  0  0  0  0
  194.6530  172.2020  136.8070 C   0  0  0  0  0  0  0  0  0  0  0  0
  196.3260  173.0540  138.4350 N   0  0  1  0  0  0  0  0  0  0  0  0
  196.4040  174.9180  140.0110 C   0  0  0  0  0  1  0  0  0  0  0  0
  196.4300  174.3250  137.6590 C   0  0  2  0  0  3  0  0  0  0  0  0
  194.2050  171.1830  136.2190 O   0  0  0  0  0  0  0  0  0  0  0  0
  195.6290  174.2820  138.8750 C   0  0  1  0  0  3  0  0  0  0  0  0
  194.5160  173.4890  136.2340 N   0  0  0  0  0  0  0  0  0  0  0  0
  195.6150  174.4330  136.3520 C   0  0  0  0  0  2  0  0  0  0  0  0
  195.2520  172.0880  138.1590 C   0  0  0  0  0  2  0  0  0  0  0  0
  188.6460  173.3570  135.9860 C   0  0  0  0  0  2  0  0  0  0  0  0
  187.8050  174.4130  135.4510 N   0  0  0  0  0  2  0  0  0  0  0  0
  186.4450  174.1020  135.8640 C   0  0  1  0  0  3  0  0  0  0  0  0
  183.4500  175.6440  138.0830 C   0  0  2  0  0  3  0  0  0  0  0  0
  184.5940  175.0980  137.2900 N   0  0  0  0  0  0  0  0  0  0  0  0
  185.8910  175.2180  136.7120 C   0  0  0  0  0  0  0  0  0  0  0  0
  183.3240  174.3680  137.5740 C   0  0  0  0  0  2  0  0  0  0  0  0
  186.5360  176.2890  136.8740 O   0  0  0  0  0  0  0  0  0  0  0  0
  182.6510  176.6230  137.2290 C   0  0  1  0  0  3  0  0  0  0  0  0
  180.4340  176.2310  136.1120 C   0  0  0  0  0  0  0  0  0  0  0  0
  179.2010  175.9930  136.1750 O   0  0  0  0  0  0  0  0  0  0  0  0
  181.2170  176.3380  137.3150 N   0  0  0  0  0  0  0  0  0  0  0  0
  181.0640  176.3900  134.7660 C   0  0  0  0  0  1  0  0  0  0  0  0
  180.6010  176.0720  138.6190 C   0  0  0  0  0  2  0  0  0  0  0  0
  180.2070  177.3730  139.3110 C   0  0  0  0  0  2  0  0  0  0  0  0
  180.9020  177.5040  140.5800 N   0  0  0  0  0  1  0  0  0  0  0  0
  184.0530  178.1060  138.4560 O   0  0  0  0  0  1  0  0  0  0  0  0
  182.9430  178.0660  137.6130 C   0  0  0  0  0  2  0  0  0  0  0  0
  185.5920  173.8320  134.6280 C   0  0  0  0  0  2  0  0  0  0  0  0
  185.0620  172.4100  134.6610 C   0  0  0  0  0  1  0  0  0  0  0  0
  1  2  1  0  0  0  0
  2  7  1  1  0  0  0
  3  4  1  0  0  0  0
  4 26  1  6  0  0  0
  4  2  1  0  0  0  0
  5  3  2  0  0  0  0
  5  1  1  0  0  0  0
  7  6  2  0  0  0  0
  7  8  1  0  0  0  0
  8  9  1  0  0  0  0
  9 10  1  0  0  0  0
 11 15  1  0  0  0  0
 12 11  1  0  0  0  0
 13 10  1  6  0  0  0
 13 18  1  0  0  0  0
 13 12  1  0  0  0  0
 15 19  1  6  0  0  0
 15 14  1  0  0  0  0
 16 14  1  0  0  0  0
 17 16  1  0  0  0  0
 18 17  1  0  0  0  0
 19 20  1  0  0  0  0
 20 21  1  6  0  0  0
 22 25  1  0  0  0  0
 24 22  1  0  0  0  0
 25 20  1  0  0  0  0
 25 23  2  0  0  0  0
 26 33  1  0  0  0  0
 27 35  1  0  0  0  0
 28 35  1  6  0  0  0
 28 32  1  0  0  0  0
 30 34  1  6  0  0  0
 30 28  1  0  0  0  0
 30 32  1  0  0  0  0
 31 27  2  0  0  0  0
 32 29  1  1  0  0  0
 33 34  1  0  0  0  0
 33 27  1  0  0  0  0
 36  5  1  0  0  0  0
 37 38  1  0  0  0  0
 37 36  1  0  0  0  0
 38 54  1  6  0  0  0
 38 41  1  0  0  0  0
 39 44  1  6  0  0  0
 40 42  1  0  0  0  0
 40 39  1  0  0  0  0
 41 43  2  0  0  0  0
 41 40  1  0  0  0  0
 42 39  1  0  0  0  0
 44 47  1  0  0  0  0
 44 53  1  1  0  0  0
 45 46  2  0  0  0  0
 45 47  1  0  0  0  0
 47 49  1  0  0  0  0
 48 45  1  0  0  0  0
 49 50  1  0  0  0  0
 50 51  1  0  0  0  0
 53 52  1  0  0  0  0
 54 55  1  0  0  0  0
M  END
>  <MODEL>
2

>  <REMARK>
 VINA RESULT:      -6.4      2.367      4.467
  Name = 
  20 active torsions:
  status: ('A' for Active; 'I' for Inactive)
    1  A    between atoms: C_3  and  C_12
    2  A    between atoms: C_3  and  N_25
    3  A    between atoms: C_5  and  C_37
    4  A    between atoms: C_5  and  O_38
    5  A    between atoms: C_8  and  C_10
    6  A    between atoms: C_8  and  N_31
    7  A    between atoms: C_9  and  N_25
    8  A    between atoms: C_9  and  C_28
    9  A    between atoms: C_9  and  C_41
   10  A    between atoms: C_15  and  N_19
   11  A    between atoms: C_15  and  C_43
   12  A    between atoms: C_18  and  N_33
   13  A    between atoms: C_18  and  C_42
   14  A    between atoms: N_19  and  C_26
   15  A    between atoms: C_22  and  C_26
   16  A    between atoms: C_26  and  C_47
   17  A    between atoms: N_31  and  C_39
   18  A    between atoms: C_34  and  C_35
   19  A    between atoms: C_34  and  C_39
   20  A    between atoms: O_38  and  C_44
                            x       y       z     vdW  Elec       q    Type
                         _______ _______ _______ _____ _____    ______ ____

>  <TORSDO>
F 20

$$$$
=
 OpenBabel11042411303D

 55 59  0  0  1  0  0  0  0  0999 V2000
  189.1780  177.4110  138.2550 O   0  0  0  0  0  0  0  0  0  0  0  0
  190.5700  177.2080  138.0890 C   0  0  2  0  0  3  0  0  0  0  0  0
  189.2580  175.6790  136.8410 N   0  0  0  0  0  0  0  0  0  0  0  0
  190.6450  175.9970  137.1510 C   0  0  1  0  0  3  0  0  0  0  0  0
  188.4950  176.4860  137.4960 C   0  0  0  0  0  0  0  0  0  0  0  0
  192.5150  177.2070  139.6280 C   0  0  0  0  0  2  0  0  0  0  0  0
  191.2190  176.9400  139.4200 C   0  0  0  0  0  0  0  0  0  0  0  0
  190.3570  176.5060  140.5660 C   0  0  0  0  0  2  0  0  0  0  0  0
  189.9460  177.6450  141.3810 N   0  0  0  0  0  2  0  0  0  0  0  0
  190.5200  177.5120  142.7150 C   0  0  0  0  0  2  0  0  0  0  0  0
  187.0720  177.0400  143.6330 O   0  0  0  0  0  0  0  0  0  0  0  0
  188.1760  177.8640  143.3620 C   0  0  0  0  0  2  0  0  0  0  0  0
  189.4570  177.1460  143.7370 C   0  0  2  0  0  3  0  0  0  0  0  0
  186.5150  177.4320  145.9930 C   0  0  0  0  0  2  0  0  0  0  0  0
  186.1890  177.7010  144.5210 C   0  0  1  0  0  3  0  0  0  0  0  0
  187.8400  178.0410  146.4340 C   0  0  0  0  0  2  0  0  0  0  0  0
  188.9790  177.0590  146.2110 C   0  0  0  0  0  2  0  0  0  0  0  0
  189.9190  177.5640  145.1260 C   0  0  0  0  0  2  0  0  0  0  0  0
  186.0300  179.0800  144.2520 O   0  0  0  0  0  0  0  0  0  0  0  0
  184.6930  179.3360  143.8710 C   0  0  2  0  0  3  0  0  0  0  0  0
  183.6560  178.7740  144.8420 C   0  0  0  0  0  1  0  0  0  0  0  0
  185.3800  179.3650  141.4400 N   0  0  0  0  0  2  0  0  0  0  0  0
  183.3550  178.4150  142.1040 O   0  0  0  0  0  0  0  0  0  0  0  0
  185.2100  179.0150  140.0400 C   0  0  0  0  0  1  0  0  0  0  0  0
  184.4110  179.0210  142.4300 C   0  0  0  0  0  0  0  0  0  0  0  0
  191.4140  176.3240  135.8830 C   0  0  0  0  0  2  0  0  0  0  0  0
  192.3720  174.0380  135.5880 C   0  0  0  0  0  0  0  0  0  0  0  0
  194.5070  173.5570  136.7660 N   0  0  1  0  0  0  0  0  0  0  0  0
  195.4800  174.2150  138.9080 C   0  0  0  0  0  1  0  0  0  0  0  0
  194.8670  175.0040  136.6970 C   0  0  2  0  0  3  0  0  0  0  0  0
  191.5160  173.6000  134.7760 O   0  0  0  0  0  0  0  0  0  0  0  0
  194.3400  174.4480  137.9360 C   0  0  1  0  0  3  0  0  0  0  0  0
  192.5530  175.4290  135.7720 N   0  0  0  0  0  0  0  0  0  0  0  0
  193.9000  175.9470  135.9500 C   0  0  0  0  0  2  0  0  0  0  0  0
  193.1460  173.1030  136.4420 C   0  0  0  0  0  2  0  0  0  0  0  0
  187.0090  176.4350  137.4190 C   0  0  0  0  0  2  0  0  0  0  0  0
  186.5980  175.7630  136.1990 N   0  0  0  0  0  2  0  0  0  0  0  0
  185.7900  174.6250  136.6110 C   0  0  1  0  0  3  0  0  0  0  0  0
  182.2460  176.5450  136.7260 C   0  0  2  0  0  3  0  0  0  0  0  0
  183.5520  175.8230  136.6330 N   0  0  0  0  0  0  0  0  0  0  0  0
  184.3770  174.7840  136.1140 C   0  0  0  0  0  0  0  0  0  0  0  0
  183.2910  177.0120  137.4960 C   0  0  0  0  0  2  0  0  0  0  0  0
  183.8880  173.9740  135.2810 O   0  0  0  0  0  0  0  0  0  0  0  0
  181.2770  175.7500  137.5950 C   0  0  1  0  0  3  0  0  0  0  0  0
  179.8600  176.1660  139.6280 C   0  0  0  0  0  0  0  0  0  0  0  0
  179.1440  176.9250  140.3320 O   0  0  0  0  0  0  0  0  0  0  0  0
  180.4510  176.6470  138.4080 N   0  0  0  0  0  0  0  0  0  0  0  0
  180.0870  174.7640  140.0950 C   0  0  0  0  0  1  0  0  0  0  0  0
  180.3050  178.0540  138.0250 C   0  0  0  0  0  2  0  0  0  0  0  0
  178.9410  178.3090  137.3920 C   0  0  0  0  0  2  0  0  0  0  0  0
  178.9310  179.5890  136.7060 N   0  0  0  0  0  1  0  0  0  0  0  0
  181.0010  173.5600  136.7030 O   0  0  0  0  0  1  0  0  0  0  0  0
  180.4090  174.8210  136.7580 C   0  0  0  0  0  2  0  0  0  0  0  0
  186.4410  173.3380  136.1110 C   0  0  0  0  0  2  0  0  0  0  0  0
  186.8940  172.4930  137.2870 C   0  0  0  0  0  1  0  0  0  0  0  0
  2  1  1  0  0  0  0
  2  7  1  1  0  0  0
  3  4  1  0  0  0  0
  3  5  2  0  0  0  0
  4 26  1  6  0  0  0
  4  2  1  0  0  0  0
  5  1  1  0  0  0  0
  7  6  2  0  0  0  0
  7  8  1  0  0  0  0
  8  9  1  0  0  0  0
  9 10  1  0  0  0  0
 11 15  1  0  0  0  0
 12 11  1  0  0  0  0
 12 13  1  0  0  0  0
 13 10  1  6  0  0  0
 13 18  1  0  0  0  0
 14 16  1  0  0  0  0
 15 19  1  1  0  0  0
 15 14  1  0  0  0  0
 17 16  1  0  0  0  0
 18 17  1  0  0  0  0
 20 19  1  0  0  0  0
 20 21  1  1  0  0  0
 22 25  1  0  0  0  0
 23 25  2  0  0  0  0
 24 22  1  0  0  0  0
 25 20  1  0  0  0  0
 27 33  1  0  0  0  0
 27 35  1  0  0  0  0
 28 35  1  6  0  0  0
 28 32  1  0  0  0  0
 30 34  1  6  0  0  0
 30 28  1  0  0  0  0
 30 32  1  0  0  0  0
 31 27  2  0  0  0  0
 32 29  1  1  0  0  0
 33 26  1  0  0  0  0
 33 34  1  0  0  0  0
 36  5  1  0  0  0  0
 37 38  1  0  0  0  0
 37 36  1  0  0  0  0
 38 54  1  6  0  0  0
 39 42  1  0  0  0  0
 39 44  1  1  0  0  0
 40 39  1  0  0  0  0
 40 42  1  0  0  0  0
 41 38  1  0  0  0  0
 41 40  1  0  0  0  0
 43 41  2  0  0  0  0
 44 53  1  6  0  0  0
 44 47  1  0  0  0  0
 45 48  1  0  0  0  0
 45 46  2  0  0  0  0
 47 45  1  0  0  0  0
 49 47  1  0  0  0  0
 50 49  1  0  0  0  0
 51 50  1  0  0  0  0
 52 53  1  0  0  0  0
 54 55  1  0  0  0  0
M  END
>  <MODEL>
3

>  <REMARK>
 VINA RESULT:      -6.4      2.257      4.111
  Name = 
  20 active torsions:
  status: ('A' for Active; 'I' for Inactive)
    1  A    between atoms: C_3  and  C_12
    2  A    between atoms: C_3  and  N_25
    3  A    between atoms: C_5  and  C_37
    4  A    between atoms: C_5  and  O_38
    5  A    between atoms: C_8  and  C_10
    6  A    between atoms: C_8  and  N_31
    7  A    between atoms: C_9  and  N_25
    8  A    between atoms: C_9  and  C_28
    9  A    between atoms: C_9  and  C_41
   10  A    between atoms: C_15  and  N_19
   11  A    between atoms: C_15  and  C_43
   12  A    between atoms: C_18  and  N_33
   13  A    between atoms: C_18  and  C_42
   14  A    between atoms: N_19  and  C_26
   15  A    between atoms: C_22  and  C_26
   16  A    between atoms: C_26  and  C_47
   17  A    between atoms: N_31  and  C_39
   18  A    between atoms: C_34  and  C_35
   19  A    between atoms: C_34  and  C_39
   20  A    between atoms: O_38  and  C_44
                            x       y       z     vdW  Elec       q    Type
                         _______ _______ _______ _____ _____    ______ ____

>  <TORSDO>
F 20

$$$$
=
 OpenBabel11042411303D

 55 59  0  0  1  0  0  0  0  0999 V2000
  182.0150  177.0930  139.7070 O   0  0  0  0  0  0  0  0  0  0  0  0
  181.4090  177.1710  138.4290 C   0  0  2  0  0  3  0  0  0  0  0  0
  181.3420  179.2240  139.6100 N   0  0  0  0  0  0  0  0  0  0  0  0
  180.9050  178.6180  138.3600 C   0  0  1  0  0  3  0  0  0  0  0  0
  181.9340  178.3250  140.3190 C   0  0  0  0  0  0  0  0  0  0  0  0
  179.0360  176.4900  138.6790 C   0  0  0  0  0  2  0  0  0  0  0  0
  180.2880  176.1720  138.3230 C   0  0  0  0  0  0  0  0  0  0  0  0
  180.5610  174.8510  137.6700 C   0  0  0  0  0  2  0  0  0  0  0  0
  181.6490  174.9540  136.7020 N   0  0  0  0  0  2  0  0  0  0  0  0
  181.8230  173.6680  136.0380 C   0  0  0  0  0  2  0  0  0  0  0  0
  184.9990  173.7810  137.7270 O   0  0  0  0  0  0  0  0  0  0  0  0
  184.1520  174.1390  136.6670 C   0  0  0  0  0  2  0  0  0  0  0  0
  183.1500  173.0290  136.4140 C   0  0  2  0  0  3  0  0  0  0  0  0
  186.8140  172.4720  136.7120 C   0  0  0  0  0  2  0  0  0  0  0  0
  186.3470  173.8100  137.2920 C   0  0  1  0  0  3  0  0  0  0  0  0
  186.1210  172.1120  135.4050 C   0  0  0  0  0  2  0  0  0  0  0  0
  184.8510  171.3210  135.6740 C   0  0  0  0  0  2  0  0  0  0  0  0
  183.6220  172.1290  135.2800 C   0  0  0  0  0  2  0  0  0  0  0  0
  186.6510  174.8970  136.4410 O   0  0  0  0  0  0  0  0  0  0  0  0
  187.0380  176.0130  137.2190 C   0  0  2  0  0  3  0  0  0  0  0  0
  186.4000  177.3270  136.7750 C   0  0  0  0  0  1  0  0  0  0  0  0
  189.0130  176.7530  138.6110 N   0  0  0  0  0  2  0  0  0  0  0  0
  189.3200  175.5590  136.6300 O   0  0  0  0  0  0  0  0  0  0  0  0
  190.4300  176.7990  138.9300 C   0  0  0  0  0  1  0  0  0  0  0  0
  188.5210  176.1000  137.4410 C   0  0  0  0  0  0  0  0  0  0  0  0
  181.4990  179.3560  137.1730 C   0  0  0  0  0  2  0  0  0  0  0  0
  180.1740  180.3330  135.2970 C   0  0  0  0  0  0  0  0  0  0  0  0
  179.6900  182.7680  135.4170 N   0  0  1  0  0  0  0  0  0  0  0  0
  180.9020  184.7290  136.2250 C   0  0  0  0  0  1  0  0  0  0  0  0
  179.7540  182.7040  136.9070 C   0  0  2  0  0  3  0  0  0  0  0  0
  179.9620  179.2650  134.6660 O   0  0  0  0  0  0  0  0  0  0  0  0
  180.8920  183.2150  136.1560 C   0  0  1  0  0  3  0  0  0  0  0  0
  180.5260  180.3090  136.6680 N   0  0  0  0  0  0  0  0  0  0  0  0
  179.9760  181.3200  137.5550 C   0  0  0  0  0  2  0  0  0  0  0  0
  180.1510  181.6390  134.5940 C   0  0  0  0  0  2  0  0  0  0  0  0
  182.5000  178.6020  141.6680 C   0  0  0  0  0  2  0  0  0  0  0  0
  183.8830  179.0260  141.5480 N   0  0  0  0  0  2  0  0  0  0  0  0
  184.5550  178.5800  142.7590 C   0  0  1  0  0  3  0  0  0  0  0  0
  188.1510  176.9970  143.6700 C   0  0  2  0  0  3  0  0  0  0  0  0
  186.8340  177.5910  143.2840 N   0  0  0  0  0  0  0  0  0  0  0  0
  186.0420  178.5040  142.5300 C   0  0  0  0  0  0  0  0  0  0  0  0
  187.0210  176.5080  144.2930 C   0  0  0  0  0  2  0  0  0  0  0  0
  186.6120  179.2810  141.7170 O   0  0  0  0  0  0  0  0  0  0  0  0
  188.8890  177.9460  144.6090 C   0  0  1  0  0  3  0  0  0  0  0  0
  188.5220  177.5110  147.0570 C   0  0  0  0  0  0  0  0  0  0  0  0
  188.8390  176.9350  148.1290 O   0  0  0  0  0  0  0  0  0  0  0  0
  189.2640  177.2630  145.8500 N   0  0  0  0  0  0  0  0  0  0  0  0
  187.3550  178.4460  147.0660 C   0  0  0  0  0  1  0  0  0  0  0  0
  190.3360  176.2620  145.8380 C   0  0  0  0  0  2  0  0  0  0  0  0
  191.6830  176.9020  146.1560 C   0  0  0  0  0  2  0  0  0  0  0  0
  192.0430  176.6630  147.5430 N   0  0  0  0  0  1  0  0  0  0  0  0
  190.3520  177.9040  142.7310 O   0  0  0  0  0  1  0  0  0  0  0  0
  190.1080  178.5610  143.9360 C   0  0  0  0  0  2  0  0  0  0  0  0
  184.1900  179.5110  143.9110 C   0  0  0  0  0  2  0  0  0  0  0  0
  183.9910  178.7120  145.1850 C   0  0  0  0  0  1  0  0  0  0  0  0
  1  5  1  0  0  0  0
  2  7  1  1  0  0  0
  2  1  1  0  0  0  0
  3  5  2  0  0  0  0
  4 26  1  6  0  0  0
  4  2  1  0  0  0  0
  4  3  1  0  0  0  0
  5 36  1  0  0  0  0
  7  6  2  0  0  0  0
  8  7  1  0  0  0  0
  9  8  1  0  0  0  0
 10  9  1  0  0  0  0
 12 11  1  0  0  0  0
 13 10  1  6  0  0  0
 13 12  1  0  0  0  0
 14 15  1  0  0  0  0
 15 19  1  6  0  0  0
 15 11  1  0  0  0  0
 16 17  1  0  0  0  0
 16 14  1  0  0  0  0
 18 17  1  0  0  0  0
 18 13  1  0  0  0  0
 19 20  1  0  0  0  0
 20 21  1  6  0  0  0
 20 25  1  0  0  0  0
 22 24  1  0  0  0  0
 23 25  2  0  0  0  0
 25 22  1  0  0  0  0
 27 33  1  0  0  0  0
 28 35  1  6  0  0  0
 28 32  1  0  0  0  0
 28 30  1  0  0  0  0
 30 34  1  6  0  0  0
 31 27  2  0  0  0  0
 32 29  1  1  0  0  0
 32 30  1  0  0  0  0
 33 26  1  0  0  0  0
 33 34  1  0  0  0  0
 35 27  1  0  0  0  0
 37 36  1  0  0  0  0
 37 38  1  0  0  0  0
 38 54  1  1  0  0  0
 39 42  1  0  0  0  0
 39 44  1  1  0  0  0
 40 39  1  0  0  0  0
 40 42  1  0  0  0  0
 41 38  1  0  0  0  0
 41 40  1  0  0  0  0
 43 41  2  0  0  0  0
 44 53  1  6  0  0  0
 44 47  1  0  0  0  0
 45 48  1  0  0  0  0
 45 46  2  0  0  0  0
 47 45  1  0  0  0  0
 49 47  1  0  0  0  0
 49 50  1  0  0  0  0
 50 51  1  0  0  0  0
 52 53  1  0  0  0  0
 54 55  1  0  0  0  0
M  END
>  <MODEL>
4

>  <REMARK>
 VINA RESULT:      -6.4      2.964     10.701
  Name = 
  20 active torsions:
  status: ('A' for Active; 'I' for Inactive)
    1  A    between atoms: C_3  and  C_12
    2  A    between atoms: C_3  and  N_25
    3  A    between atoms: C_5  and  C_37
    4  A    between atoms: C_5  and  O_38
    5  A    between atoms: C_8  and  C_10
    6  A    between atoms: C_8  and  N_31
    7  A    between atoms: C_9  and  N_25
    8  A    between atoms: C_9  and  C_28
    9  A    between atoms: C_9  and  C_41
   10  A    between atoms: C_15  and  N_19
   11  A    between atoms: C_15  and  C_43
   12  A    between atoms: C_18  and  N_33
   13  A    between atoms: C_18  and  C_42
   14  A    between atoms: N_19  and  C_26
   15  A    between atoms: C_22  and  C_26
   16  A    between atoms: C_26  and  C_47
   17  A    between atoms: N_31  and  C_39
   18  A    between atoms: C_34  and  C_35
   19  A    between atoms: C_34  and  C_39
   20  A    between atoms: O_38  and  C_44
                            x       y       z     vdW  Elec       q    Type
                         _______ _______ _______ _____ _____    ______ ____

>  <TORSDO>
F 20

$$$$
=
 OpenBabel11042411303D

 55 59  0  0  1  0  0  0  0  0999 V2000
  185.9730  176.2590  136.6810 O   0  0  0  0  0  0  0  0  0  0  0  0
  187.3020  176.4770  136.2410 C   0  0  2  0  0  3  0  0  0  0  0  0
  186.9070  174.2400  136.9150 N   0  0  0  0  0  0  0  0  0  0  0  0
  187.9700  175.1100  136.4310 C   0  0  1  0  0  3  0  0  0  0  0  0
  185.8320  174.9390  137.0490 C   0  0  0  0  0  0  0  0  0  0  0  0
  187.8070  178.8480  136.7680 C   0  0  0  0  0  2  0  0  0  0  0  0
  187.9550  177.5510  137.0690 C   0  0  0  0  0  0  0  0  0  0  0  0
  188.6570  177.1580  138.3330 C   0  0  0  0  0  2  0  0  0  0  0  0
  188.8220  178.3010  139.2250 N   0  0  0  0  0  2  0  0  0  0  0  0
  188.1910  178.0050  140.5060 C   0  0  0  0  0  2  0  0  0  0  0  0
  188.9410  176.4670  143.6720 O   0  0  0  0  0  0  0  0  0  0  0  0
  188.6830  177.5960  142.8780 C   0  0  0  0  0  2  0  0  0  0  0  0
  189.1730  177.3520  141.4650 C   0  0  2  0  0  3  0  0  0  0  0  0
  191.2370  176.7480  144.4970 C   0  0  0  0  0  2  0  0  0  0  0  0
  189.7360  176.8370  144.7830 C   0  0  1  0  0  3  0  0  0  0  0  0
  191.7140  177.7730  143.4770 C   0  0  0  0  0  2  0  0  0  0  0  0
  191.6170  177.2110  142.0680 C   0  0  0  0  0  2  0  0  0  0  0  0
  190.5570  177.9530  141.2650 C   0  0  0  0  0  2  0  0  0  0  0  0
  189.3750  178.0760  145.3610 O   0  0  0  0  0  0  0  0  0  0  0  0
  189.0450  177.8840  146.7230 C   0  0  2  0  0  3  0  0  0  0  0  0
  189.5380  176.5580  147.2970 C   0  0  0  0  0  1  0  0  0  0  0  0
  186.6720  178.3180  145.9680 N   0  0  0  0  0  2  0  0  0  0  0  0
  187.2240  178.2770  148.2350 O   0  0  0  0  0  0  0  0  0  0  0  0
  185.2550  178.5280  146.2050 C   0  0  0  0  0  1  0  0  0  0  0  0
  187.6090  178.1880  147.0380 C   0  0  0  0  0  0  0  0  0  0  0  0
  188.5380  174.5830  135.1250 C   0  0  0  0  0  2  0  0  0  0  0  0
  190.6620  173.3530  135.5780 C   0  0  0  0  0  0  0  0  0  0  0  0
  192.5190  174.6600  136.5890 N   0  0  1  0  0  0  0  0  0  0  0  0
  192.6620  176.4830  138.2090 C   0  0  0  0  0  1  0  0  0  0  0  0
  191.9880  175.9010  135.9520 C   0  0  2  0  0  3  0  0  0  0  0  0
  190.3220  172.2440  135.0900 O   0  0  0  0  0  0  0  0  0  0  0  0
  191.7270  175.6430  137.3610 C   0  0  1  0  0  3  0  0  0  0  0  0
  189.9870  174.5430  135.2160 N   0  0  0  0  0  0  0  0  0  0  0  0
  190.7570  175.7620  135.0310 C   0  0  0  0  0  2  0  0  0  0  0  0
  191.7190  173.4260  136.6170 C   0  0  0  0  0  2  0  0  0  0  0  0
  184.5480  174.3630  137.5370 C   0  0  0  0  0  2  0  0  0  0  0  0
  183.4340  175.1620  137.0590 N   0  0  0  0  0  2  0  0  0  0  0  0
  182.2360  174.5980  137.6620 C   0  0  1  0  0  3  0  0  0  0  0  0
  181.1520  178.1740  139.1790 C   0  0  2  0  0  3  0  0  0  0  0  0
  181.5210  176.8560  138.5780 N   0  0  0  0  0  0  0  0  0  0  0  0
  181.1970  175.6710  137.8560 C   0  0  0  0  0  0  0  0  0  0  0  0
  182.4550  177.7460  139.3270 C   0  0  0  0  0  2  0  0  0  0  0  0
  180.0190  175.5150  137.4360 O   0  0  0  0  0  0  0  0  0  0  0  0
  180.3840  177.9520  140.4780 C   0  0  1  0  0  3  0  0  0  0  0  0
  180.4920  179.6290  142.3470 C   0  0  0  0  0  0  0  0  0  0  0  0
  180.1420  180.7210  142.8630 O   0  0  0  0  0  0  0  0  0  0  0  0
  179.9740  179.2300  141.0650 N   0  0  0  0  0  0  0  0  0  0  0  0
  181.4620  178.7660  143.0880 C   0  0  0  0  0  1  0  0  0  0  0  0
  179.1090  180.1390  140.3060 C   0  0  0  0  0  2  0  0  0  0  0  0
  179.9160  181.2850  139.7050 C   0  0  0  0  0  2  0  0  0  0  0  0
  179.0790  182.4600  139.5360 N   0  0  0  0  0  1  0  0  0  0  0  0
  179.0800  176.1580  141.3430 O   0  0  0  0  0  1  0  0  0  0  0  0
  179.1840  177.0400  140.2680 C   0  0  0  0  0  2  0  0  0  0  0  0
  181.7300  173.4470  136.7980 C   0  0  0  0  0  2  0  0  0  0  0  0
  182.0650  173.7030  135.3400 C   0  0  0  0  0  1  0  0  0  0  0  0
  1  5  1  0  0  0  0
  2  4  1  0  0  0  0
  2  1  1  0  0  0  0
  2  7  1  1  0  0  0
  3  5  2  0  0  0  0
  4 26  1  6  0  0  0
  4  3  1  0  0  0  0
  5 36  1  0  0  0  0
  6  7  2  0  0  0  0
  7  8  1  0  0  0  0
  8  9  1  0  0  0  0
  9 10  1  0  0  0  0
 11 15  1  0  0  0  0
 12 11  1  0  0  0  0
 13 10  1  6  0  0  0
 13 12  1  0  0  0  0
 14 15  1  0  0  0  0
 15 19  1  6  0  0  0
 16 14  1  0  0  0  0
 17 16  1  0  0  0  0
 18 13  1  0  0  0  0
 18 17  1  0  0  0  0
 19 20  1  0  0  0  0
 20 25  1  0  0  0  0
 20 21  1  6  0  0  0
 22 24  1  0  0  0  0
 22 25  1  0  0  0  0
 25 23  2  0  0  0  0
 26 33  1  0  0  0  0
 27 35  1  0  0  0  0
 28 35  1  6  0  0  0
 28 32  1  0  0  0  0
 30 34  1  6  0  0  0
 30 28  1  0  0  0  0
 30 32  1  0  0  0  0
 31 27  2  0  0  0  0
 32 29  1  1  0  0  0
 33 27  1  0  0  0  0
 34 33  1  0  0  0  0
 37 36  1  0  0  0  0
 37 38  1  0  0  0  0
 38 54  1  6  0  0  0
 38 41  1  0  0  0  0
 39 42  1  0  0  0  0
 39 44  1  1  0  0  0
 40 39  1  0  0  0  0
 40 42  1  0  0  0  0
 41 40  1  0  0  0  0
 43 41  2  0  0  0  0
 44 53  1  6  0  0  0
 44 47  1  0  0  0  0
 45 46  2  0  0  0  0
 45 48  1  0  0  0  0
 47 45  1  0  0  0  0
 49 47  1  0  0  0  0
 50 49  1  0  0  0  0
 51 50  1  0  0  0  0
 53 52  1  0  0  0  0
 55 54  1  0  0  0  0
M  END
>  <MODEL>
5

>  <REMARK>
 VINA RESULT:      -6.4      2.308      4.528
  Name = 
  20 active torsions:
  status: ('A' for Active; 'I' for Inactive)
    1  A    between atoms: C_3  and  C_12
    2  A    between atoms: C_3  and  N_25
    3  A    between atoms: C_5  and  C_37
    4  A    between atoms: C_5  and  O_38
    5  A    between atoms: C_8  and  C_10
    6  A    between atoms: C_8  and  N_31
    7  A    between atoms: C_9  and  N_25
    8  A    between atoms: C_9  and  C_28
    9  A    between atoms: C_9  and  C_41
   10  A    between atoms: C_15  and  N_19
   11  A    between atoms: C_15  and  C_43
   12  A    between atoms: C_18  and  N_33
   13  A    between atoms: C_18  and  C_42
   14  A    between atoms: N_19  and  C_26
   15  A    between atoms: C_22  and  C_26
   16  A    between atoms: C_26  and  C_47
   17  A    between atoms: N_31  and  C_39
   18  A    between atoms: C_34  and  C_35
   19  A    between atoms: C_34  and  C_39
   20  A    between atoms: O_38  and  C_44
                            x       y       z     vdW  Elec       q    Type
                         _______ _______ _______ _____ _____    ______ ____

>  <TORSDO>
F 20

$$$$
=
 OpenBabel11042411303D

 55 59  0  0  1  0  0  0  0  0999 V2000
  186.8500  176.3740  137.0660 O   0  0  0  0  0  0  0  0  0  0  0  0
  188.1600  176.5640  136.5600 C   0  0  2  0  0  3  0  0  0  0  0  0
  187.5560  174.2790  136.7230 N   0  0  0  0  0  0  0  0  0  0  0  0
  188.6750  175.1350  136.3550 C   0  0  1  0  0  3  0  0  0  0  0  0
  186.5830  175.0230  137.1240 C   0  0  0  0  0  0  0  0  0  0  0  0
  189.1020  178.6670  137.4780 C   0  0  0  0  0  2  0  0  0  0  0  0
  188.9930  177.3340  137.5500 C   0  0  0  0  0  0  0  0  0  0  0  0
  189.5840  176.6030  138.7160 C   0  0  0  0  0  2  0  0  0  0  0  0
  190.0060  177.5280  139.7630 N   0  0  0  0  0  2  0  0  0  0  0  0
  188.9410  177.6540  140.7510 C   0  0  0  0  0  2  0  0  0  0  0  0
  188.2030  176.6410  144.1240 O   0  0  0  0  0  0  0  0  0  0  0  0
  188.3960  177.6290  143.1470 C   0  0  0  0  0  2  0  0  0  0  0  0
  189.3860  177.1390  142.1090 C   0  0  2  0  0  3  0  0  0  0  0  0
  189.9900  176.9830  145.7740 C   0  0  0  0  0  2  0  0  0  0  0  0
  188.5170  177.1650  145.4020 C   0  0  1  0  0  3  0  0  0  0  0  0
  190.9330  177.8090  144.9100 C   0  0  0  0  0  2  0  0  0  0  0  0
  191.3560  177.0240  143.6790 C   0  0  0  0  0  2  0  0  0  0  0  0
  190.7850  177.6550  142.4170 C   0  0  0  0  0  2  0  0  0  0  0  0
  188.0750  178.4930  145.6010 O   0  0  0  0  0  0  0  0  0  0  0  0
  187.1480  178.5280  146.6690 C   0  0  2  0  0  3  0  0  0  0  0  0
  187.4110  177.4800  147.7480 C   0  0  0  0  0  1  0  0  0  0  0  0
  185.4270  179.0050  144.8810 N   0  0  0  0  0  2  0  0  0  0  0  0
  184.7880  178.2380  146.9910 O   0  0  0  0  0  0  0  0  0  0  0  0
  184.0730  179.0090  144.3540 C   0  0  0  0  0  1  0  0  0  0  0  0
  185.7180  178.5920  146.2170 C   0  0  0  0  0  0  0  0  0  0  0  0
  189.0810  174.8920  134.9120 C   0  0  0  0  0  2  0  0  0  0  0  0
  190.9660  173.2670  135.0980 C   0  0  0  0  0  0  0  0  0  0  0  0
  193.1160  174.1420  135.9870 N   0  0  1  0  0  0  0  0  0  0  0  0
  193.7390  175.7980  137.6700 C   0  0  0  0  0  1  0  0  0  0  0  0
  192.7760  175.4980  135.4640 C   0  0  2  0  0  3  0  0  0  0  0  0
  190.3820  172.2730  134.5940 O   0  0  0  0  0  0  0  0  0  0  0  0
  192.5930  175.2010  136.8780 C   0  0  1  0  0  3  0  0  0  0  0  0
  190.4990  174.5820  134.8600 N   0  0  0  0  0  0  0  0  0  0  0  0
  191.4670  175.6480  134.6600 C   0  0  0  0  0  2  0  0  0  0  0  0
  192.1020  173.0770  136.0330 C   0  0  0  0  0  2  0  0  0  0  0  0
  185.2790  174.4720  137.5860 C   0  0  0  0  0  2  0  0  0  0  0  0
  184.2850  174.6050  136.5370 N   0  0  0  0  0  2  0  0  0  0  0  0
  183.1210  173.8510  136.9770 C   0  0  1  0  0  3  0  0  0  0  0  0
  181.6740  177.5960  137.3550 C   0  0  2  0  0  3  0  0  0  0  0  0
  182.1620  176.1900  137.2120 N   0  0  0  0  0  0  0  0  0  0  0  0
  182.0410  174.7900  137.4470 C   0  0  0  0  0  0  0  0  0  0  0  0
  182.8510  177.3950  136.6640 C   0  0  0  0  0  2  0  0  0  0  0  0
  181.0500  174.3630  138.0990 O   0  0  0  0  0  0  0  0  0  0  0  0
  181.9790  178.1090  138.7580 C   0  0  1  0  0  3  0  0  0  0  0  0
  181.5380  180.5550  138.3920 C   0  0  0  0  0  0  0  0  0  0  0  0
  181.9350  181.7480  138.3460 O   0  0  0  0  0  0  0  0  0  0  0  0
  182.4530  179.4940  138.7160 N   0  0  0  0  0  0  0  0  0  0  0  0
  180.0960  180.2720  138.1120 C   0  0  0  0  0  1  0  0  0  0  0  0
  183.8360  179.8050  139.0920 C   0  0  0  0  0  2  0  0  0  0  0  0
  184.2790  178.9630  140.2840 C   0  0  0  0  0  2  0  0  0  0  0  0
  185.6470  179.2870  140.6530 N   0  0  0  0  0  1  0  0  0  0  0  0
  180.9660  178.7610  140.8120 O   0  0  0  0  0  1  0  0  0  0  0  0
  180.7730  177.9750  139.6770 C   0  0  0  0  0  2  0  0  0  0  0  0
  182.6510  172.9430  135.8440 C   0  0  0  0  0  2  0  0  0  0  0  0
  183.5620  171.7350  135.7320 C   0  0  0  0  0  1  0  0  0  0  0  0
  1  5  1  0  0  0  0
  2  1  1  0  0  0  0
  2  7  1  1  0  0  0
  3  5  2  0  0  0  0
  4 26  1  6  0  0  0
  4  2  1  0  0  0  0
  4  3  1  0  0  0  0
  5 36  1  0  0  0  0
  6  7  2  0  0  0  0
  7  8  1  0  0  0  0
  8  9  1  0  0  0  0
  9 10  1  0  0  0  0
 11 15  1  0  0  0  0
 12 11  1  0  0  0  0
 13 10  1  6  0  0  0
 13 18  1  0  0  0  0
 13 12  1  0  0  0  0
 15 19  1  6  0  0  0
 15 14  1  0  0  0  0
 16 14  1  0  0  0  0
 17 16  1  0  0  0  0
 18 17  1  0  0  0  0
 19 20  1  0  0  0  0
 20 21  1  6  0  0  0
 22 25  1  0  0  0  0
 24 22  1  0  0  0  0
 25 20  1  0  0  0  0
 25 23  2  0  0  0  0
 27 35  1  0  0  0  0
 28 35  1  6  0  0  0
 28 32  1  0  0  0  0
 30 34  1  6  0  0  0
 30 28  1  0  0  0  0
 30 32  1  0  0  0  0
 31 27  2  0  0  0  0
 32 29  1  1  0  0  0
 33 26  1  0  0  0  0
 33 27  1  0  0  0  0
 34 33  1  0  0  0  0
 37 38  1  0  0  0  0
 37 36  1  0  0  0  0
 38 54  1  6  0  0  0
 38 41  1  0  0  0  0
 39 44  1  1  0  0  0
 40 39  1  0  0  0  0
 40 41  1  0  0  0  0
 41 43  2  0  0  0  0
 42 40  1  0  0  0  0
 42 39  1  0  0  0  0
 44 53  1  1  0  0  0
 45 47  1  0  0  0  0
 46 45  2  0  0  0  0
 47 44  1  0  0  0  0
 47 49  1  0  0  0  0
 48 45  1  0  0  0  0
 49 50  1  0  0  0  0
 50 51  1  0  0  0  0
 53 52  1  0  0  0  0
 55 54  1  0  0  0  0
M  END
>  <MODEL>
6

>  <REMARK>
 VINA RESULT:      -6.0      1.932      4.243
  Name = 
  20 active torsions:
  status: ('A' for Active; 'I' for Inactive)
    1  A    between atoms: C_3  and  C_12
    2  A    between atoms: C_3  and  N_25
    3  A    between atoms: C_5  and  C_37
    4  A    between atoms: C_5  and  O_38
    5  A    between atoms: C_8  and  C_10
    6  A    between atoms: C_8  and  N_31
    7  A    between atoms: C_9  and  N_25
    8  A    between atoms: C_9  and  C_28
    9  A    between atoms: C_9  and  C_41
   10  A    between atoms: C_15  and  N_19
   11  A    between atoms: C_15  and  C_43
   12  A    between atoms: C_18  and  N_33
   13  A    between atoms: C_18  and  C_42
   14  A    between atoms: N_19  and  C_26
   15  A    between atoms: C_22  and  C_26
   16  A    between atoms: C_26  and  C_47
   17  A    between atoms: N_31  and  C_39
   18  A    between atoms: C_34  and  C_35
   19  A    between atoms: C_34  and  C_39
   20  A    between atoms: O_38  and  C_44
                            x       y       z     vdW  Elec       q    Type
                         _______ _______ _______ _____ _____    ______ ____

>  <TORSDO>
F 20

$$$$
=
 OpenBabel11042411303D

 55 59  0  0  1  0  0  0  0  0999 V2000
  189.4910  176.8130  137.4950 O   0  0  0  0  0  0  0  0  0  0  0  0
  190.8640  176.5830  137.2340 C   0  0  2  0  0  3  0  0  0  0  0  0
  189.5010  174.7140  136.7220 N   0  0  0  0  0  0  0  0  0  0  0  0
  190.8960  175.1330  136.7390 C   0  0  1  0  0  3  0  0  0  0  0  0
  188.7760  175.6820  137.1680 C   0  0  0  0  0  0  0  0  0  0  0  0
  192.9680  176.4410  138.5420 C   0  0  0  0  0  2  0  0  0  0  0  0
  191.6710  176.7750  138.4910 C   0  0  0  0  0  0  0  0  0  0  0  0
  191.0420  177.4880  139.6480 C   0  0  0  0  0  2  0  0  0  0  0  0
  190.6120  176.5480  140.6790 N   0  0  0  0  0  2  0  0  0  0  0  0
  190.9990  177.0610  141.9880 C   0  0  0  0  0  2  0  0  0  0  0  0
  189.5120  178.4760  144.9440 O   0  0  0  0  0  0  0  0  0  0  0  0
  189.9750  177.3810  144.1990 C   0  0  0  0  0  2  0  0  0  0  0  0
  189.8080  177.6590  142.7180 C   0  0  2  0  0  3  0  0  0  0  0  0
  187.0980  178.1130  145.2230 C   0  0  0  0  0  2  0  0  0  0  0  0
  188.4990  178.0510  145.8380 C   0  0  1  0  0  3  0  0  0  0  0  0
  186.8940  177.1110  144.0960 C   0  0  0  0  0  2  0  0  0  0  0  0
  187.2880  177.7220  142.7600 C   0  0  0  0  0  2  0  0  0  0  0  0
  188.5220  177.0320  142.1970 C   0  0  0  0  0  2  0  0  0  0  0  0
  188.7600  176.8030  146.4480 O   0  0  0  0  0  0  0  0  0  0  0  0
  189.2480  177.0110  147.7600 C   0  0  2  0  0  3  0  0  0  0  0  0
  188.6660  178.2450  148.4460 C   0  0  0  0  0  1  0  0  0  0  0  0
  191.3980  175.7550  147.3250 N   0  0  0  0  0  2  0  0  0  0  0  0
  191.4140  177.8360  148.3810 O   0  0  0  0  0  0  0  0  0  0  0  0
  192.8440  175.6260  147.3180 C   0  0  0  0  0  1  0  0  0  0  0  0
  190.7420  176.9020  147.8660 C   0  0  0  0  0  0  0  0  0  0  0  0
  191.5010  175.0330  135.3500 C   0  0  0  0  0  2  0  0  0  0  0  0
  192.4620  172.7310  135.4070 C   0  0  0  0  0  0  0  0  0  0  0  0
  194.5780  172.4310  136.6760 N   0  0  1  0  0  0  0  0  0  0  0  0
  195.5190  173.3970  138.7130 C   0  0  0  0  0  1  0  0  0  0  0  0
  194.9400  173.8530  136.4010 C   0  0  2  0  0  3  0  0  0  0  0  0
  191.6180  172.1770  134.6550 O   0  0  0  0  0  0  0  0  0  0  0  0
  194.3940  173.4830  137.6990 C   0  0  1  0  0  3  0  0  0  0  0  0
  192.6410  174.1340  135.3880 N   0  0  0  0  0  0  0  0  0  0  0  0
  193.9850  174.6750  135.5090 C   0  0  0  0  0  2  0  0  0  0  0  0
  193.2220  171.9320  136.4000 C   0  0  0  0  0  2  0  0  0  0  0  0
  187.2950  175.5910  137.2940 C   0  0  0  0  0  2  0  0  0  0  0  0
  186.7860  174.5470  136.4220 N   0  0  0  0  0  2  0  0  0  0  0  0
  185.5160  174.1220  136.9900 C   0  0  1  0  0  3  0  0  0  0  0  0
  182.7620  177.0420  137.3880 C   0  0  2  0  0  3  0  0  0  0  0  0
  183.7860  175.9700  137.1900 N   0  0  0  0  0  0  0  0  0  0  0  0
  184.3890  174.9390  136.4130 C   0  0  0  0  0  0  0  0  0  0  0  0
  183.6540  176.8120  138.4150 C   0  0  0  0  0  2  0  0  0  0  0  0
  183.9280  174.6880  135.2670 O   0  0  0  0  0  0  0  0  0  0  0  0
  181.4140  176.4130  137.7230 C   0  0  1  0  0  3  0  0  0  0  0  0
  180.2410  176.5000  139.9440 C   0  0  0  0  0  0  0  0  0  0  0  0
  179.6470  177.1430  140.8470 O   0  0  0  0  0  0  0  0  0  0  0  0
  180.7300  177.1740  138.7710 N   0  0  0  0  0  0  0  0  0  0  0  0
  180.4350  175.0280  140.1240 C   0  0  0  0  0  1  0  0  0  0  0  0
  180.6260  178.6330  138.6640 C   0  0  0  0  0  2  0  0  0  0  0  0
  179.1750  179.0630  138.4710 C   0  0  0  0  0  2  0  0  0  0  0  0
  179.1140  180.4060  137.9180 N   0  0  0  0  0  1  0  0  0  0  0  0
  179.2230  176.0200  136.8770 O   0  0  0  0  0  1  0  0  0  0  0  0
  180.5370  176.2790  136.4870 C   0  0  0  0  0  2  0  0  0  0  0  0
  185.3320  172.6270  136.7500 C   0  0  0  0  0  2  0  0  0  0  0  0
  183.9670  172.1830  137.2430 C   0  0  0  0  0  1  0  0  0  0  0  0
  2  1  1  0  0  0  0
  2  7  1  1  0  0  0
  3  4  1  0  0  0  0
  3  5  2  0  0  0  0
  4 26  1  6  0  0  0
  4  2  1  0  0  0  0
  5 36  1  0  0  0  0
  5  1  1  0  0  0  0
  7  6  2  0  0  0  0
  7  8  1  0  0  0  0
  8  9  1  0  0  0  0
  9 10  1  0  0  0  0
 11 15  1  0  0  0  0
 12 11  1  0  0  0  0
 13 10  1  6  0  0  0
 13 12  1  0  0  0  0
 14 15  1  0  0  0  0
 15 19  1  6  0  0  0
 16 14  1  0  0  0  0
 17 16  1  0  0  0  0
 18 13  1  0  0  0  0
 18 17  1  0  0  0  0
 19 20  1  0  0  0  0
 20 25  1  0  0  0  0
 20 21  1  6  0  0  0
 22 25  1  0  0  0  0
 24 22  1  0  0  0  0
 25 23  2  0  0  0  0
 26 33  1  0  0  0  0
 27 35  1  0  0  0  0
 28 35  1  6  0  0  0
 28 32  1  0  0  0  0
 30 34  1  6  0  0  0
 30 28  1  0  0  0  0
 30 32  1  0  0  0  0
 31 27  2  0  0  0  0
 32 29  1  1  0  0  0
 33 27  1  0  0  0  0
 33 34  1  0  0  0  0
 37 38  1  0  0  0  0
 37 36  1  0  0  0  0
 38 54  1  6  0  0  0
 39 44  1  1  0  0  0
 39 42  1  0  0  0  0
 40 39  1  0  0  0  0
 40 42  1  0  0  0  0
 41 38  1  0  0  0  0
 41 40  1  0  0  0  0
 43 41  2  0  0  0  0
 44 53  1  6  0  0  0
 44 47  1  0  0  0  0
 45 48  1  0  0  0  0
 45 46  2  0  0  0  0
 47 45  1  0  0  0  0
 49 47  1  0  0  0  0
 50 49  1  0  0  0  0
 51 50  1  0  0  0  0
 53 52  1  0  0  0  0
 54 55  1  0  0  0  0
M  END
>  <MODEL>
7

>  <REMARK>
 VINA RESULT:      -6.0      2.460      4.299
  Name = 
  20 active torsions:
  status: ('A' for Active; 'I' for Inactive)
    1  A    between atoms: C_3  and  C_12
    2  A    between atoms: C_3  and  N_25
    3  A    between atoms: C_5  and  C_37
    4  A    between atoms: C_5  and  O_38
    5  A    between atoms: C_8  and  C_10
    6  A    between atoms: C_8  and  N_31
    7  A    between atoms: C_9  and  N_25
    8  A    between atoms: C_9  and  C_28
    9  A    between atoms: C_9  and  C_41
   10  A    between atoms: C_15  and  N_19
   11  A    between atoms: C_15  and  C_43
   12  A    between atoms: C_18  and  N_33
   13  A    between atoms: C_18  and  C_42
   14  A    between atoms: N_19  and  C_26
   15  A    between atoms: C_22  and  C_26
   16  A    between atoms: C_26  and  C_47
   17  A    between atoms: N_31  and  C_39
   18  A    between atoms: C_34  and  C_35
   19  A    between atoms: C_34  and  C_39
   20  A    between atoms: O_38  and  C_44
                            x       y       z     vdW  Elec       q    Type
                         _______ _______ _______ _____ _____    ______ ____

>  <TORSDO>
F 20

$$$$
=
 OpenBabel11042411303D

 55 59  0  0  1  0  0  0  0  0999 V2000
  189.0270  177.9680  138.1810 O   0  0  0  0  0  0  0  0  0  0  0  0
  187.9170  178.4480  138.9190 C   0  0  2  0  0  3  0  0  0  0  0  0
  189.1260  176.7600  140.0620 N   0  0  0  0  0  0  0  0  0  0  0  0
  187.9450  177.6030  140.1980 C   0  0  1  0  0  3  0  0  0  0  0  0
  189.6710  176.9970  138.9180 C   0  0  0  0  0  0  0  0  0  0  0  0
  186.6750  177.9960  136.8200 C   0  0  0  0  0  2  0  0  0  0  0  0
  186.6470  178.2530  138.1340 C   0  0  0  0  0  0  0  0  0  0  0  0
  185.3450  178.2010  138.8740 C   0  0  0  0  0  2  0  0  0  0  0  0
  184.7740  179.5350  139.0330 N   0  0  0  0  0  2  0  0  0  0  0  0
  183.4350  179.5550  138.4550 C   0  0  0  0  0  2  0  0  0  0  0  0
  181.6300  176.9870  140.2160 O   0  0  0  0  0  0  0  0  0  0  0  0
  181.8740  177.7590  139.0690 C   0  0  0  0  0  2  0  0  0  0  0  0
  182.3900  179.1260  139.4720 C   0  0  2  0  0  3  0  0  0  0  0  0
  179.3490  177.5580  140.9270 C   0  0  0  0  0  2  0  0  0  0  0  0
  180.2790  176.5630  140.2270 C   0  0  1  0  0  3  0  0  0  0  0  0
  179.2080  178.8750  140.1750 C   0  0  0  0  0  2  0  0  0  0  0  0
  180.2720  179.8630  140.6240 C   0  0  0  0  0  2  0  0  0  0  0  0
  181.2560  180.1420  139.4970 C   0  0  0  0  0  2  0  0  0  0  0  0
  179.7890  176.1740  138.9590 O   0  0  0  0  0  0  0  0  0  0  0  0
  179.6060  174.7720  138.9340 C   0  0  2  0  0  3  0  0  0  0  0  0
  179.5020  174.1370  140.3180 C   0  0  0  0  0  1  0  0  0  0  0  0
  180.4190  172.6540  137.8200 N   0  0  0  0  0  2  0  0  0  0  0  0
  181.4200  174.7120  137.3640 O   0  0  0  0  0  0  0  0  0  0  0  0
  181.2440  171.9200  136.8770 C   0  0  0  0  0  1  0  0  0  0  0  0
  180.5510  174.0630  138.0080 C   0  0  0  0  0  0  0  0  0  0  0  0
  188.0510  178.4740  141.4370 C   0  0  0  0  0  2  0  0  0  0  0  0
  186.2140  178.0790  143.0790 C   0  0  0  0  0  0  0  0  0  0  0  0
  186.8860  177.3640  145.3630 N   0  0  1  0  0  0  0  0  0  0  0  0
  188.7590  177.8720  146.8470 C   0  0  0  0  0  1  0  0  0  0  0  0
  188.1190  176.7370  144.8000 C   0  0  2  0  0  3  0  0  0  0  0  0
  185.2460  178.2870  142.3020 O   0  0  0  0  0  0  0  0  0  0  0  0
  188.2000  178.0390  145.4480 C   0  0  1  0  0  3  0  0  0  0  0  0
  187.4950  177.7580  142.5730 N   0  0  0  0  0  0  0  0  0  0  0  0
  188.3000  176.7660  143.2670 C   0  0  0  0  0  2  0  0  0  0  0  0
  186.0550  178.2590  144.5440 C   0  0  0  0  0  2  0  0  0  0  0  0
  190.8990  176.3000  138.4460 C   0  0  0  0  0  2  0  0  0  0  0  0
  190.5490  175.0080  137.8830 N   0  0  0  0  0  2  0  0  0  0  0  0
  190.0320  175.2700  136.5480 C   0  0  1  0  0  3  0  0  0  0  0  0
  193.7030  174.5840  135.0260 C   0  0  2  0  0  3  0  0  0  0  0  0
  192.3280  174.8600  135.5460 N   0  0  0  0  0  0  0  0  0  0  0  0
  191.1540  175.6640  135.6240 C   0  0  0  0  0  0  0  0  0  0  0  0
  193.1570  173.6740  135.9070 C   0  0  0  0  0  2  0  0  0  0  0  0
  191.0980  176.7300  134.9540 O   0  0  0  0  0  0  0  0  0  0  0  0
  194.7150  175.4640  135.7530 C   0  0  1  0  0  3  0  0  0  0  0  0
  196.0800  174.3950  137.5720 C   0  0  0  0  0  0  0  0  0  0  0  0
  197.0780  173.7280  137.9480 O   0  0  0  0  0  0  0  0  0  0  0  0
  195.8780  174.6800  136.1770 N   0  0  0  0  0  0  0  0  0  0  0  0
  195.1110  174.8740  138.6050 C   0  0  0  0  0  1  0  0  0  0  0  0
  196.7810  174.1110  135.1710 C   0  0  0  0  0  2  0  0  0  0  0  0
  197.8110  175.1400  134.7180 C   0  0  0  0  0  2  0  0  0  0  0  0
  198.8770  175.2560  135.6980 N   0  0  0  0  0  1  0  0  0  0  0  0
  195.4180  177.7390  135.7220 O   0  0  0  0  0  1  0  0  0  0  0  0
  195.1410  176.6490  134.8980 C   0  0  0  0  0  2  0  0  0  0  0  0
  189.2720  174.0430  136.0520 C   0  0  0  0  0  2  0  0  0  0  0  0
  188.5630  173.3650  137.2100 C   0  0  0  0  0  1  0  0  0  0  0  0
  1  5  1  0  0  0  0
  1  2  1  0  0  0  0
  2  7  1  6  0  0  0
  2  4  1  0  0  0  0
  3  4  1  0  0  0  0
  4 26  1  1  0  0  0
  5  3  2  0  0  0  0
  6  7  2  0  0  0  0
  7  8  1  0  0  0  0
  8  9  1  0  0  0  0
 10  9  1  0  0  0  0
 11 15  1  0  0  0  0
 12 13  1  0  0  0  0
 12 11  1  0  0  0  0
 13 10  1  6  0  0  0
 13 18  1  0  0  0  0
 15 19  1  6  0  0  0
 15 14  1  0  0  0  0
 16 17  1  0  0  0  0
 16 14  1  0  0  0  0
 18 17  1  0  0  0  0
 20 19  1  0  0  0  0
 20 21  1  1  0  0  0
 22 25  1  0  0  0  0
 23 25  2  0  0  0  0
 24 22  1  0  0  0  0
 25 20  1  0  0  0  0
 26 33  1  0  0  0  0
 27 35  1  0  0  0  0
 28 35  1  6  0  0  0
 28 32  1  0  0  0  0
 30 34  1  6  0  0  0
 30 28  1  0  0  0  0
 30 32  1  0  0  0  0
 31 27  2  0  0  0  0
 32 29  1  1  0  0  0
 33 27  1  0  0  0  0
 33 34  1  0  0  0  0
 36  5  1  0  0  0  0
 37 36  1  0  0  0  0
 38 54  1  6  0  0  0
 38 37  1  0  0  0  0
 39 40  1  0  0  0  0
 39 44  1  1  0  0  0
 39 42  1  0  0  0  0
 40 41  1  0  0  0  0
 40 42  1  0  0  0  0
 41 38  1  0  0  0  0
 43 41  2  0  0  0  0
 44 53  1  6  0  0  0
 44 47  1  0  0  0  0
 45 46  2  0  0  0  0
 45 48  1  0  0  0  0
 47 45  1  0  0  0  0
 49 47  1  0  0  0  0
 50 49  1  0  0  0  0
 50 51  1  0  0  0  0
 53 52  1  0  0  0  0
 54 55  1  0  0  0  0
M  END
>  <MODEL>
8

>  <REMARK>
 VINA RESULT:      -6.0      2.990     10.551
  Name = 
  20 active torsions:
  status: ('A' for Active; 'I' for Inactive)
    1  A    between atoms: C_3  and  C_12
    2  A    between atoms: C_3  and  N_25
    3  A    between atoms: C_5  and  C_37
    4  A    between atoms: C_5  and  O_38
    5  A    between atoms: C_8  and  C_10
    6  A    between atoms: C_8  and  N_31
    7  A    between atoms: C_9  and  N_25
    8  A    between atoms: C_9  and  C_28
    9  A    between atoms: C_9  and  C_41
   10  A    between atoms: C_15  and  N_19
   11  A    between atoms: C_15  and  C_43
   12  A    between atoms: C_18  and  N_33
   13  A    between atoms: C_18  and  C_42
   14  A    between atoms: N_19  and  C_26
   15  A    between atoms: C_22  and  C_26
   16  A    between atoms: C_26  and  C_47
   17  A    between atoms: N_31  and  C_39
   18  A    between atoms: C_34  and  C_35
   19  A    between atoms: C_34  and  C_39
   20  A    between atoms: O_38  and  C_44
                            x       y       z     vdW  Elec       q    Type
                         _______ _______ _______ _____ _____    ______ ____

>  <TORSDO>
F 20

$$$$
=
 OpenBabel11042411303D

 55 59  0  0  1  0  0  0  0  0999 V2000
  189.8760  174.9670  136.2670 O   0  0  0  0  0  0  0  0  0  0  0  0
  191.1840  175.4930  136.4060 C   0  0  2  0  0  3  0  0  0  0  0  0
  191.1270  173.1250  136.4860 N   0  0  0  0  0  0  0  0  0  0  0  0
  192.0530  174.2440  136.5970 C   0  0  1  0  0  3  0  0  0  0  0  0
  189.9360  173.5910  136.3210 C   0  0  0  0  0  0  0  0  0  0  0  0
  192.2730  176.3760  138.4530 C   0  0  0  0  0  2  0  0  0  0  0  0
  191.2480  176.4190  137.5910 C   0  0  0  0  0  0  0  0  0  0  0  0
  190.2190  177.5010  137.7140 C   0  0  0  0  0  2  0  0  0  0  0  0
  189.0700  177.0530  138.4940 N   0  0  0  0  0  2  0  0  0  0  0  0
  187.8700  177.7260  138.0100 C   0  0  0  0  0  2  0  0  0  0  0  0
  187.6960  178.8340  141.4300 O   0  0  0  0  0  0  0  0  0  0  0  0
  187.6110  177.8310  140.4520 C   0  0  0  0  0  2  0  0  0  0  0  0
  187.1400  178.4300  139.1410 C   0  0  2  0  0  3  0  0  0  0  0  0
  185.4460  179.0030  142.4010 C   0  0  0  0  0  2  0  0  0  0  0  0
  186.8820  178.4910  142.5370 C   0  0  1  0  0  3  0  0  0  0  0  0
  184.6710  178.3220  141.2810 C   0  0  0  0  0  2  0  0  0  0  0  0
  184.8490  179.0760  139.9730 C   0  0  0  0  0  2  0  0  0  0  0  0
  185.6380  178.2410  138.9750 C   0  0  0  0  0  2  0  0  0  0  0  0
  186.9310  177.1210  142.8810 O   0  0  0  0  0  0  0  0  0  0  0  0
  187.6700  176.9600  144.0770 C   0  0  2  0  0  3  0  0  0  0  0  0
  187.2200  177.8810  145.2090 C   0  0  0  0  0  1  0  0  0  0  0  0
  189.9650  177.9350  144.4880 N   0  0  0  0  0  2  0  0  0  0  0  0
  189.6880  176.0230  143.1790 O   0  0  0  0  0  0  0  0  0  0  0  0
  191.4140  177.9240  144.3910 C   0  0  0  0  0  1  0  0  0  0  0  0
  189.1560  176.9390  143.8620 C   0  0  0  0  0  0  0  0  0  0  0  0
  193.1330  174.1510  135.5340 C   0  0  0  0  0  2  0  0  0  0  0  0
  194.4890  172.3770  136.6490 C   0  0  0  0  0  0  0  0  0  0  0  0
  196.1300  173.1290  138.3570 N   0  0  1  0  0  0  0  0  0  0  0  0
  196.1790  174.9020  140.0380 C   0  0  0  0  0  1  0  0  0  0  0  0
  196.2530  174.4420  137.6570 C   0  0  2  0  0  3  0  0  0  0  0  0
  194.0510  171.3950  135.9960 O   0  0  0  0  0  0  0  0  0  0  0  0
  195.4260  174.3340  138.8510 C   0  0  1  0  0  3  0  0  0  0  0  0
  194.3680  173.6950  136.1470 N   0  0  0  0  0  0  0  0  0  0  0  0
  195.4670  174.6270  136.3410 C   0  0  0  0  0  2  0  0  0  0  0  0
  195.0590  172.1850  138.0050 C   0  0  0  0  0  2  0  0  0  0  0  0
  188.7380  172.7180  136.1800 C   0  0  0  0  0  2  0  0  0  0  0  0
  187.8780  173.2250  135.1260 N   0  0  0  0  0  2  0  0  0  0  0  0
  186.5130  173.1020  135.6160 C   0  0  1  0  0  3  0  0  0  0  0  0
  183.9490  175.4360  137.6760 C   0  0  2  0  0  3  0  0  0  0  0  0
  184.9330  174.6110  136.9100 N   0  0  0  0  0  0  0  0  0  0  0  0
  185.9460  174.4650  135.9190 C   0  0  0  0  0  0  0  0  0  0  0  0
  184.0200  174.0900  137.9690 C   0  0  0  0  0  2  0  0  0  0  0  0
  186.3130  175.4790  135.2660 O   0  0  0  0  0  0  0  0  0  0  0  0
  182.7240  175.7130  136.8110 C   0  0  1  0  0  3  0  0  0  0  0  0
  180.2890  175.1670  137.1080 C   0  0  0  0  0  0  0  0  0  0  0  0
  179.2360  175.1840  137.7960 O   0  0  0  0  0  0  0  0  0  0  0  0
  181.5060  175.7330  137.6250 N   0  0  0  0  0  0  0  0  0  0  0  0
  180.2460  174.5370  135.7530 C   0  0  0  0  0  1  0  0  0  0  0  0
  181.5530  176.2480  138.9970 C   0  0  0  0  0  2  0  0  0  0  0  0
  180.8770  177.6120  139.0920 C   0  0  0  0  0  2  0  0  0  0  0  0
  180.3240  177.8130  140.4200 N   0  0  0  0  0  1  0  0  0  0  0  0
  183.3310  176.7190  134.7410 O   0  0  0  0  0  1  0  0  0  0  0  0
  182.8750  177.0080  136.0260 C   0  0  0  0  0  2  0  0  0  0  0  0
  185.6770  172.3380  134.5940 C   0  0  0  0  0  2  0  0  0  0  0  0
  184.6770  171.4430  135.3030 C   0  0  0  0  0  1  0  0  0  0  0  0
  1  5  1  0  0  0  0
  1  2  1  0  0  0  0
  2  4  1  0  0  0  0
  2  7  1  1  0  0  0
  3  4  1  0  0  0  0
  4 26  1  6  0  0  0
  5  3  2  0  0  0  0
  7  8  1  0  0  0  0
  7  6  2  0  0  0  0
  8  9  1  0  0  0  0
 10  9  1  0  0  0  0
 11 15  1  0  0  0  0
 12 11  1  0  0  0  0
 13 10  1  6  0  0  0
 13 12  1  0  0  0  0
 14 15  1  0  0  0  0
 15 19  1  6  0  0  0
 16 14  1  0  0  0  0
 17 16  1  0  0  0  0
 18 13  1  0  0  0  0
 18 17  1  0  0  0  0
 19 20  1  0  0  0  0
 20 21  1  1  0  0  0
 23 25  2  0  0  0  0
 24 22  1  0  0  0  0
 25 20  1  0  0  0  0
 25 22  1  0  0  0  0
 26 33  1  0  0  0  0
 27 35  1  0  0  0  0
 28 35  1  6  0  0  0
 28 32  1  0  0  0  0
 30 34  1  6  0  0  0
 30 28  1  0  0  0  0
 30 32  1  0  0  0  0
 31 27  2  0  0  0  0
 32 29  1  1  0  0  0
 33 34  1  0  0  0  0
 33 27  1  0  0  0  0
 36  5  1  0  0  0  0
 37 38  1  0  0  0  0
 37 36  1  0  0  0  0
 38 54  1  6  0  0  0
 38 41  1  0  0  0  0
 39 44  1  6  0  0  0
 39 42  1  0  0  0  0
 40 39  1  0  0  0  0
 40 42  1  0  0  0  0
 41 40  1  0  0  0  0
 43 41  2  0  0  0  0
 44 53  1  1  0  0  0
 44 47  1  0  0  0  0
 45 47  1  0  0  0  0
 45 46  2  0  0  0  0
 47 49  1  0  0  0  0
 48 45  1  0  0  0  0
 49 50  1  0  0  0  0
 50 51  1  0  0  0  0
 52 53  1  0  0  0  0
 54 55  1  0  0  0  0
M  END
>  <MODEL>
9

>  <REMARK>
 VINA RESULT:      -5.7      2.497      5.407
  Name = 
  20 active torsions:
  status: ('A' for Active; 'I' for Inactive)
    1  A    between atoms: C_3  and  C_12
    2  A    between atoms: C_3  and  N_25
    3  A    between atoms: C_5  and  C_37
    4  A    between atoms: C_5  and  O_38
    5  A    between atoms: C_8  and  C_10
    6  A    between atoms: C_8  and  N_31
    7  A    between atoms: C_9  and  N_25
    8  A    between atoms: C_9  and  C_28
    9  A    between atoms: C_9  and  C_41
   10  A    between atoms: C_15  and  N_19
   11  A    between atoms: C_15  and  C_43
   12  A    between atoms: C_18  and  N_33
   13  A    between atoms: C_18  and  C_42
   14  A    between atoms: N_19  and  C_26
   15  A    between atoms: C_22  and  C_26
   16  A    between atoms: C_26  and  C_47
   17  A    between atoms: N_31  and  C_39
   18  A    between atoms: C_34  and  C_35
   19  A    between atoms: C_34  and  C_39
   20  A    between atoms: O_38  and  C_44
                            x       y       z     vdW  Elec       q    Type
                         _______ _______ _______ _____ _____    ______ ____

>  <TORSDO>
F 20

$$$$
