=
 OpenBabel11032419133D

 30 34  0  0  1  0  0  0  0  0999 V2000
  188.3420  178.8710  142.6850 O   0  0  0  0  0  0  0  0  0  0  0  0
  185.3280  178.4660  142.8790 C   0  0  0  0  0  3  0  0  0  0  0  0
  186.6530  178.3820  139.3530 N   0  0  0  0  0  2  0  0  0  0  0  0
  188.5930  175.9520  136.2460 N   0  0  0  0  0  0  0  0  0  0  0  0
  187.6260  177.9700  142.1740 C   0  0  0  0  0  0  0  0  0  0  0  0
  189.0470  176.2870  137.4040 C   0  0  0  0  0  3  0  0  0  0  0  0
  189.9570  176.9560  140.2100 C   0  0  0  0  0  0  0  0  0  0  0  0
  185.8000  178.5110  140.5010 C   0  0  0  0  0  0  0  0  0  0  0  0
  189.5700  176.4130  141.5730 C   0  0  2  0  0  3  0  0  0  0  0  0
  191.0300  176.6310  139.7260 O   0  0  0  0  0  0  0  0  0  0  0  0
  184.4890  178.9420  140.2840 C   0  0  0  0  0  3  0  0  0  0  0  0
  186.2330  178.2720  141.8310 C   0  0  0  0  0  0  0  0  0  0  0  0
  188.1680  176.6710  141.9080 N   0  0  0  0  0  2  0  0  0  0  0  0
  188.2090  178.7310  137.0670 C   0  0  2  0  0  3  0  0  0  0  0  0
  183.6210  179.1060  141.3630 C   0  0  0  0  0  3  0  0  0  0  0  0
  188.1030  178.2570  135.6100 C   0  0  0  0  0  2  0  0  0  0  0  0
  189.1220  179.7850  137.1310 O   0  0  0  0  0  1  0  0  0  0  0  0
  184.0530  178.8630  142.6280 N   0  0  0  0  0  0  0  0  0  0  0  0
  187.6740  177.3490  139.2030 C   0  0  1  0  0  3  0  0  0  0  0  0
  189.1160  179.2520  139.8110 F   0  0  0  0  0  0  0  0  0  0  0  0
  187.6580  176.7960  135.5290 C   0  0  0  0  0  2  0  0  0  0  0  0
  188.6260  177.5920  138.0270 C   0  0  1  0  0  0  0  0  0  0  0  0
  189.0720  177.9140  139.4540 C   0  0  1  0  0  0  0  0  0  0  0  0
  190.5070  176.7830  142.6930 C   0  0  0  0  0  0  0  0  0  0  0  0
  191.3890  178.9400  143.5730 C   0  0  0  0  0  3  0  0  0  0  0  0
  191.5550  178.6980  144.8730 C   0  0  0  0  0  3  0  0  0  0  0  0
  191.5080  177.8890  142.5200 C   0  0  0  0  0  2  0  0  0  0  0  0
  190.5080  176.0060  143.7790 C   0  0  0  0  0  3  0  0  0  0  0  0
  191.7810  177.3680  145.4660 C   0  0  0  0  0  3  0  0  0  0  0  0
  191.3280  176.2020  144.9910 C   0  0  0  0  0  3  0  0  0  0  0  0
  3  8  1  0  0  0  0
  4  6  2  0  0  0  0
  5  1  2  0  0  0  0
  7  9  1  0  0  0  0
  8 12  1  0  0  0  0
  9 13  1  0  0  0  0
  9 24  1  1  0  0  0
 10  7  2  0  0  0  0
 11  8  2  0  0  0  0
 11 15  1  0  0  0  0
 12  5  1  0  0  0  0
 12  2  2  0  0  0  0
 13  5  1  0  0  0  0
 14 17  1  6  0  0  0
 14 22  1  0  0  0  0
 15 18  2  0  0  0  0
 16 14  1  0  0  0  0
 18  2  1  0  0  0  0
 19  3  1  6  0  0  0
 19 23  1  0  0  0  0
 21 16  1  0  0  0  0
 21  4  1  0  0  0  0
 22  6  1  6  0  0  0
 22 19  1  0  0  0  0
 22 23  1  0  0  0  0
 23 20  1  1  0  0  0
 23  7  1  0  0  0  0
 24 28  2  0  0  0  0
 25 26  2  0  0  0  0
 26 29  1  0  0  0  0
 27 24  1  0  0  0  0
 27 25  1  0  0  0  0
 28 30  1  0  0  0  0
 30 29  2  0  0  0  0
M  END
>  <MODEL>
1

>  <REMARK>
 VINA RESULT:      -6.9      0.000      0.000
  Name = 
  1 active torsions:
  status: ('A' for Active; 'I' for Inactive)
    1  A    between atoms: C_1  and  C_14
                            x       y       z     vdW  Elec       q    Type
                         _______ _______ _______ _____ _____    ______ ____

>  <TORSDO>
F 1

$$$$
=
 OpenBabel11032419133D

 30 34  0  0  1  0  0  0  0  0999 V2000
  191.9210  176.8770  138.0770 O   0  0  0  0  0  0  0  0  0  0  0  0
  190.9040  177.0390  140.9450 C   0  0  0  0  0  3  0  0  0  0  0  0
  188.1700  177.0990  138.3520 N   0  0  0  0  0  2  0  0  0  0  0  0
  185.6300  174.7060  135.6800 N   0  0  0  0  0  0  0  0  0  0  0  0
  191.0290  176.1940  138.6440 C   0  0  0  0  0  0  0  0  0  0  0  0
  186.9140  174.8160  135.6830 C   0  0  0  0  0  3  0  0  0  0  0  0
  189.9270  174.9780  135.8830 C   0  0  0  0  0  0  0  0  0  0  0  0
  188.9210  177.2580  139.5660 C   0  0  0  0  0  0  0  0  0  0  0  0
  190.9280  174.3700  136.8470 C   0  0  2  0  0  3  0  0  0  0  0  0
  189.8280  174.5100  134.7590 O   0  0  0  0  0  0  0  0  0  0  0  0
  188.3130  177.9550  140.6130 C   0  0  0  0  0  3  0  0  0  0  0  0
  190.2520  176.7940  139.7330 C   0  0  0  0  0  0  0  0  0  0  0  0
  190.7570  174.8530  138.2190 N   0  0  0  0  0  2  0  0  0  0  0  0
  186.7300  177.3970  135.9850 C   0  0  2  0  0  3  0  0  0  0  0  0
  189.0020  178.1600  141.8080 C   0  0  0  0  0  3  0  0  0  0  0  0
  185.2790  177.1190  135.5660 C   0  0  0  0  0  2  0  0  0  0  0  0
  187.3160  178.2420  135.0430 O   0  0  0  0  0  1  0  0  0  0  0  0
  190.2710  177.6980  141.9510 N   0  0  0  0  0  0  0  0  0  0  0  0
  188.2300  175.9120  137.5040 C   0  0  1  0  0  3  0  0  0  0  0  0
  189.6590  177.4240  136.1820 F   0  0  0  0  0  0  0  0  0  0  0  0
  184.7790  175.7880  136.1320 C   0  0  0  0  0  2  0  0  0  0  0  0
  187.5570  176.0990  136.1400 C   0  0  1  0  0  0  0  0  0  0  0  0
  189.0800  176.1670  136.2590 C   0  0  1  0  0  0  0  0  0  0  0  0
  192.3630  174.4260  136.3910 C   0  0  0  0  0  0  0  0  0  0  0  0
  193.7510  176.1460  135.2430 C   0  0  0  0  0  3  0  0  0  0  0  0
  194.9730  175.9290  135.7270 C   0  0  0  0  0  3  0  0  0  0  0  0
  192.7270  175.0720  135.0860 C   0  0  0  0  0  2  0  0  0  0  0  0
  193.2670  173.7630  137.1170 C   0  0  0  0  0  3  0  0  0  0  0  0
  195.4600  174.6430  136.2590 C   0  0  0  0  0  3  0  0  0  0  0  0
  194.7200  173.7050  136.8600 C   0  0  0  0  0  3  0  0  0  0  0  0
  1  5  2  0  0  0  0
  2 18  1  0  0  0  0
  3  8  1  0  0  0  0
  4  6  2  0  0  0  0
  4 21  1  0  0  0  0
  5 12  1  0  0  0  0
  7 23  1  0  0  0  0
  7  9  1  0  0  0  0
  8 12  1  0  0  0  0
  8 11  2  0  0  0  0
  9 24  1  6  0  0  0
  9 13  1  0  0  0  0
 10  7  2  0  0  0  0
 11 15  1  0  0  0  0
 12  2  2  0  0  0  0
 13  5  1  0  0  0  0
 14 17  1  6  0  0  0
 14 22  1  0  0  0  0
 15 18  2  0  0  0  0
 16 14  1  0  0  0  0
 16 21  1  0  0  0  0
 19  3  1  1  0  0  0
 22  6  1  6  0  0  0
 22 23  1  0  0  0  0
 22 19  1  0  0  0  0
 23 20  1  6  0  0  0
 23 19  1  0  0  0  0
 24 28  2  0  0  0  0
 25 26  2  0  0  0  0
 26 29  1  0  0  0  0
 27 25  1  0  0  0  0
 27 24  1  0  0  0  0
 29 30  2  0  0  0  0
 30 28  1  0  0  0  0
M  END
>  <MODEL>
2

>  <REMARK>
 VINA RESULT:      -6.8      3.407      5.703
  Name = 
  1 active torsions:
  status: ('A' for Active; 'I' for Inactive)
    1  A    between atoms: C_1  and  C_14
                            x       y       z     vdW  Elec       q    Type
                         _______ _______ _______ _____ _____    ______ ____

>  <TORSDO>
F 1

$$$$
=
 OpenBabel11032419133D

 30 34  0  0  1  0  0  0  0  0999 V2000
  187.2220  176.9890  138.7520 O   0  0  0  0  0  0  0  0  0  0  0  0
  185.1890  178.9380  139.9170 C   0  0  0  0  0  3  0  0  0  0  0  0
  187.8830  177.9120  142.3440 N   0  0  0  0  0  2  0  0  0  0  0  0
  192.0050  178.5880  143.7130 N   0  0  0  0  0  0  0  0  0  0  0  0
  187.4190  178.0670  139.3720 C   0  0  0  0  0  0  0  0  0  0  0  0
  191.5960  178.1970  142.5550 C   0  0  0  0  0  3  0  0  0  0  0  0
  190.5450  177.4740  139.8130 C   0  0  0  0  0  0  0  0  0  0  0  0
  186.6550  178.3820  141.7680 C   0  0  0  0  0  0  0  0  0  0  0  0
  189.8860  178.2890  138.7170 C   0  0  2  0  0  3  0  0  0  0  0  0
  191.7090  177.1280  139.6770 O   0  0  0  0  0  0  0  0  0  0  0  0
  185.6070  178.6840  142.6420 C   0  0  0  0  0  3  0  0  0  0  0  0
  186.4400  178.5060  140.3710 C   0  0  0  0  0  0  0  0  0  0  0  0
  188.5940  178.8470  139.1240 N   0  0  0  0  0  2  0  0  0  0  0  0
  189.9200  176.5400  143.6630 C   0  0  2  0  0  3  0  0  0  0  0  0
  184.3830  179.1250  142.1390 C   0  0  0  0  0  3  0  0  0  0  0  0
  190.7910  176.8310  144.8940 C   0  0  0  0  0  2  0  0  0  0  0  0
  190.0010  175.1800  143.3660 O   0  0  0  0  0  1  0  0  0  0  0  0
  184.2020  179.2460  140.7980 N   0  0  0  0  0  0  0  0  0  0  0  0
  189.2080  178.2290  141.8190 C   0  0  1  0  0  3  0  0  0  0  0  0
  188.9710  175.9350  140.9510 F   0  0  0  0  0  0  0  0  0  0  0  0
  191.2580  178.2870  144.9170 C   0  0  0  0  0  2  0  0  0  0  0  0
  190.3310  177.3900  142.4380 C   0  0  1  0  0  0  0  0  0  0  0  0
  189.7930  177.0460  141.0480 C   0  0  1  0  0  0  0  0  0  0  0  0
  189.8220  177.6110  137.3730 C   0  0  0  0  0  0  0  0  0  0  0  0
  189.5890  175.2420  136.6370 C   0  0  0  0  0  3  0  0  0  0  0  0
  188.9250  175.3420  135.4860 C   0  0  0  0  0  3  0  0  0  0  0  0
  190.5140  176.2980  137.1440 C   0  0  0  0  0  2  0  0  0  0  0  0
  189.2530  178.2820  136.3690 C   0  0  0  0  0  3  0  0  0  0  0  0
  188.9260  176.5230  134.6030 C   0  0  0  0  0  3  0  0  0  0  0  0
  189.0700  177.7960  134.9870 C   0  0  0  0  0  3  0  0  0  0  0  0
  1  5  2  0  0  0  0
  2 12  2  0  0  0  0
  2 18  1  0  0  0  0
  4 21  1  0  0  0  0
  5 12  1  0  0  0  0
  6  4  2  0  0  0  0
  7 23  1  0  0  0  0
  8  3  1  0  0  0  0
  8 11  2  0  0  0  0
  9 24  1  6  0  0  0
  9 13  1  0  0  0  0
  9  7  1  0  0  0  0
 10  7  2  0  0  0  0
 12  8  1  0  0  0  0
 13  5  1  0  0  0  0
 14 17  1  6  0  0  0
 14 16  1  0  0  0  0
 15 11  1  0  0  0  0
 16 21  1  0  0  0  0
 18 15  2  0  0  0  0
 19  3  1  1  0  0  0
 19 22  1  0  0  0  0
 22  6  1  1  0  0  0
 22 14  1  0  0  0  0
 23 20  1  6  0  0  0
 23 19  1  0  0  0  0
 23 22  1  0  0  0  0
 25 27  1  0  0  0  0
 26 25  2  0  0  0  0
 27 24  1  0  0  0  0
 28 24  2  0  0  0  0
 29 30  2  0  0  0  0
 29 26  1  0  0  0  0
 30 28  1  0  0  0  0
M  END
>  <MODEL>
3

>  <REMARK>
 VINA RESULT:      -6.4      1.836      6.027
  Name = 
  1 active torsions:
  status: ('A' for Active; 'I' for Inactive)
    1  A    between atoms: C_1  and  C_14
                            x       y       z     vdW  Elec       q    Type
                         _______ _______ _______ _____ _____    ______ ____

>  <TORSDO>
F 1

$$$$
=
 OpenBabel11032419133D

 30 34  0  0  1  0  0  0  0  0999 V2000
  182.9060  180.4800  139.1060 O   0  0  0  0  0  0  0  0  0  0  0  0
  180.7940  182.0410  137.5590 C   0  0  0  0  0  3  0  0  0  0  0  0
  181.5030  178.6220  136.1440 N   0  0  0  0  0  2  0  0  0  0  0  0
  180.6870  174.3130  136.4430 N   0  0  0  0  0  0  0  0  0  0  0  0
  181.7550  180.1190  138.7460 C   0  0  0  0  0  0  0  0  0  0  0  0
  181.2290  175.0910  137.3150 C   0  0  0  0  0  3  0  0  0  0  0  0
  182.3130  177.0190  139.3770 C   0  0  0  0  0  0  0  0  0  0  0  0
  181.1040  179.9930  136.2990 C   0  0  0  0  0  0  0  0  0  0  0  0
  181.6500  178.0570  140.2630 C   0  0  2  0  0  3  0  0  0  0  0  0
  182.6860  175.9670  139.8740 O   0  0  0  0  0  0  0  0  0  0  0  0
  180.6740  180.6730  135.1570 C   0  0  0  0  0  3  0  0  0  0  0  0
  181.1720  180.6960  137.5300 C   0  0  0  0  0  0  0  0  0  0  0  0
  181.0280  179.1410  139.4990 N   0  0  0  0  0  2  0  0  0  0  0  0
  182.7000  176.1970  135.4720 C   0  0  2  0  0  3  0  0  0  0  0  0
  180.2950  182.0120  135.2420 C   0  0  0  0  0  3  0  0  0  0  0  0
  182.2520  174.9570  134.6840 C   0  0  0  0  0  2  0  0  0  0  0  0
  184.0900  176.1720  135.5950 O   0  0  0  0  0  1  0  0  0  0  0  0
  180.3580  182.6630  136.4330 N   0  0  0  0  0  0  0  0  0  0  0  0
  181.2740  177.5850  137.1450 C   0  0  1  0  0  3  0  0  0  0  0  0
  183.6640  178.0230  137.5590 F   0  0  0  0  0  0  0  0  0  0  0  0
  180.8110  174.5710  135.0220 C   0  0  0  0  0  2  0  0  0  0  0  0
  182.0320  176.2820  136.8640 C   0  0  1  0  0  0  0  0  0  0  0  0
  182.5590  177.2650  137.9100 C   0  0  1  0  0  0  0  0  0  0  0  0
  182.5060  178.5680  141.3930 C   0  0  0  0  0  0  0  0  0  0  0  0
  182.1670  178.8140  143.8490 C   0  0  0  0  0  3  0  0  0  0  0  0
  183.3900  178.6390  144.3480 C   0  0  0  0  0  3  0  0  0  0  0  0
  181.9060  179.3900  142.4970 C   0  0  0  0  0  2  0  0  0  0  0  0
  183.8250  178.3810  141.3010 C   0  0  0  0  0  3  0  0  0  0  0  0
  184.6480  178.8920  143.6210 C   0  0  0  0  0  3  0  0  0  0  0  0
  184.8350  178.7810  142.3010 C   0  0  0  0  0  3  0  0  0  0  0  0
  3  8  1  0  0  0  0
  4  6  2  0  0  0  0
  5  1  2  0  0  0  0
  5 13  1  0  0  0  0
  7 10  2  0  0  0  0
  7  9  1  0  0  0  0
  8 12  2  0  0  0  0
  9 24  1  1  0  0  0
 11 15  2  0  0  0  0
 11  8  1  0  0  0  0
 12  2  1  0  0  0  0
 12  5  1  0  0  0  0
 13  9  1  0  0  0  0
 14 17  1  1  0  0  0
 14 22  1  0  0  0  0
 15 18  1  0  0  0  0
 16 21  1  0  0  0  0
 16 14  1  0  0  0  0
 18  2  2  0  0  0  0
 19  3  1  6  0  0  0
 19 23  1  0  0  0  0
 21  4  1  0  0  0  0
 22 19  1  0  0  0  0
 22  6  1  1  0  0  0
 22 23  1  0  0  0  0
 23 20  1  6  0  0  0
 23  7  1  0  0  0  0
 24 27  1  0  0  0  0
 25 26  2  0  0  0  0
 27 25  1  0  0  0  0
 28 24  2  0  0  0  0
 28 30  1  0  0  0  0
 29 26  1  0  0  0  0
 30 29  2  0  0  0  0
M  END
>  <MODEL>
4

>  <REMARK>
 VINA RESULT:      -6.4      5.729      7.476
  Name = 
  1 active torsions:
  status: ('A' for Active; 'I' for Inactive)
    1  A    between atoms: C_1  and  C_14
                            x       y       z     vdW  Elec       q    Type
                         _______ _______ _______ _____ _____    ______ ____

>  <TORSDO>
F 1

$$$$
=
 OpenBabel11032419133D

 30 34  0  0  1  0  0  0  0  0999 V2000
  186.7210  177.3880  142.0930 O   0  0  0  0  0  0  0  0  0  0  0  0
  188.2500  178.6280  139.7670 C   0  0  0  0  0  3  0  0  0  0  0  0
  184.5400  178.3450  139.1750 N   0  0  0  0  0  2  0  0  0  0  0  0
  180.5890  180.1370  139.8830 N   0  0  0  0  0  0  0  0  0  0  0  0
  186.4890  178.4560  141.4690 C   0  0  0  0  0  0  0  0  0  0  0  0
  181.4320  179.6830  140.7450 C   0  0  0  0  0  3  0  0  0  0  0  0
  183.5440  178.7760  142.7110 C   0  0  0  0  0  0  0  0  0  0  0  0
  185.9590  178.4590  138.9900 C   0  0  0  0  0  0  0  0  0  0  0  0
  184.8410  179.4020  143.1880 C   0  0  2  0  0  3  0  0  0  0  0  0
  182.5730  178.7860  143.4530 O   0  0  0  0  0  0  0  0  0  0  0  0
  186.4440  178.4170  137.6800 C   0  0  0  0  0  3  0  0  0  0  0  0
  186.8840  178.5610  140.0600 C   0  0  0  0  0  0  0  0  0  0  0  0
  185.8270  179.5490  142.1140 N   0  0  0  0  0  2  0  0  0  0  0  0
  181.8620  177.5780  139.2730 C   0  0  2  0  0  3  0  0  0  0  0  0
  187.8150  178.5020  137.4400 C   0  0  0  0  0  3  0  0  0  0  0  0
  180.5760  178.0670  138.5900 C   0  0  0  0  0  2  0  0  0  0  0  0
  181.6330  176.3080  139.8060 O   0  0  0  0  0  1  0  0  0  0  0  0
  188.6830  178.6090  138.4790 N   0  0  0  0  0  0  0  0  0  0  0  0
  183.7900  179.0480  140.2120 C   0  0  1  0  0  3  0  0  0  0  0  0
  183.9010  176.8120  141.2420 F   0  0  0  0  0  0  0  0  0  0  0  0
  180.5160  179.5940  138.5420 C   0  0  0  0  0  2  0  0  0  0  0  0
  182.3500  178.5490  140.3740 C   0  0  1  0  0  0  0  0  0  0  0  0
  183.4300  178.1100  141.3630 C   0  0  1  0  0  0  0  0  0  0  0  0
  185.4290  178.7780  144.4270 C   0  0  0  0  0  0  0  0  0  0  0  0
  187.5150  177.5030  144.9020 C   0  0  0  0  0  3  0  0  0  0  0  0
  187.7970  177.8330  146.1620 C   0  0  0  0  0  3  0  0  0  0  0  0
  186.1270  177.4500  144.3590 C   0  0  0  0  0  2  0  0  0  0  0  0
  185.1850  179.3780  145.5950 C   0  0  0  0  0  3  0  0  0  0  0  0
  186.8130  178.2790  147.1640 C   0  0  0  0  0  3  0  0  0  0  0  0
  185.6800  178.9480  146.9170 C   0  0  0  0  0  3  0  0  0  0  0  0
  2 12  1  0  0  0  0
  4  6  2  0  0  0  0
  5  1  2  0  0  0  0
  5 13  1  0  0  0  0
  7  9  1  0  0  0  0
  7 10  2  0  0  0  0
  8  3  1  0  0  0  0
  8 12  2  0  0  0  0
  9 24  1  1  0  0  0
 11  8  1  0  0  0  0
 12  5  1  0  0  0  0
 13  9  1  0  0  0  0
 14 17  1  1  0  0  0
 14 22  1  0  0  0  0
 15 11  2  0  0  0  0
 15 18  1  0  0  0  0
 16 14  1  0  0  0  0
 18  2  2  0  0  0  0
 19  3  1  6  0  0  0
 19 22  1  0  0  0  0
 19 23  1  0  0  0  0
 21 16  1  0  0  0  0
 21  4  1  0  0  0  0
 22  6  1  1  0  0  0
 22 23  1  0  0  0  0
 23 20  1  6  0  0  0
 23  7  1  0  0  0  0
 24 28  2  0  0  0  0
 25 26  2  0  0  0  0
 26 29  1  0  0  0  0
 27 24  1  0  0  0  0
 27 25  1  0  0  0  0
 28 30  1  0  0  0  0
 30 29  2  0  0  0  0
M  END
>  <MODEL>
5

>  <REMARK>
 VINA RESULT:      -6.4      3.225      6.024
  Name = 
  1 active torsions:
  status: ('A' for Active; 'I' for Inactive)
    1  A    between atoms: C_1  and  C_14
                            x       y       z     vdW  Elec       q    Type
                         _______ _______ _______ _____ _____    ______ ____

>  <TORSDO>
F 1

$$$$
=
 OpenBabel11032419133D

 30 34  0  0  1  0  0  0  0  0999 V2000
  184.6390  177.5730  142.1260 O   0  0  0  0  0  0  0  0  0  0  0  0
  183.9980  178.8740  144.8070 C   0  0  0  0  0  3  0  0  0  0  0  0
  187.5630  177.6960  144.4980 N   0  0  0  0  0  2  0  0  0  0  0  0
  191.5850  178.6100  142.9750 N   0  0  0  0  0  0  0  0  0  0  0  0
  185.2540  178.4880  142.7330 C   0  0  0  0  0  0  0  0  0  0  0  0
  190.4910  178.4530  142.3130 C   0  0  0  0  0  3  0  0  0  0  0  0
  187.8490  178.2620  140.8530 C   0  0  0  0  0  0  0  0  0  0  0  0
  186.2900  178.1090  145.0150 C   0  0  0  0  0  0  0  0  0  0  0  0
  186.6730  179.2120  140.7270 C   0  0  2  0  0  3  0  0  0  0  0  0
  188.6090  178.1300  139.9060 O   0  0  0  0  0  0  0  0  0  0  0  0
  186.1030  178.0390  146.3980 C   0  0  0  0  0  3  0  0  0  0  0  0
  185.2090  178.5310  144.1980 C   0  0  0  0  0  0  0  0  0  0  0  0
  186.0090  179.4650  142.0070 N   0  0  0  0  0  2  0  0  0  0  0  0
  189.8850  176.3560  143.7350 C   0  0  2  0  0  3  0  0  0  0  0  0
  184.8790  178.4070  146.9570 C   0  0  0  0  0  3  0  0  0  0  0  0
  191.3670  176.4650  144.1210 C   0  0  0  0  0  2  0  0  0  0  0  0
  189.6760  175.1320  143.0990 O   0  0  0  0  0  1  0  0  0  0  0  0
  183.8610  178.8180  146.1570 N   0  0  0  0  0  0  0  0  0  0  0  0
  188.2210  178.3160  143.3510 C   0  0  1  0  0  3  0  0  0  0  0  0
  187.3460  176.2860  142.2620 F   0  0  0  0  0  0  0  0  0  0  0  0
  191.8090  177.9260  144.2330 C   0  0  0  0  0  2  0  0  0  0  0  0
  189.4250  177.5240  142.8310 C   0  0  1  0  0  0  0  0  0  0  0  0
  188.0840  177.4480  142.1000 C   0  0  1  0  0  0  0  0  0  0  0  0
  185.6980  178.8730  139.6290 C   0  0  0  0  0  0  0  0  0  0  0  0
  185.4330  176.9370  138.0850 C   0  0  0  0  0  3  0  0  0  0  0  0
  184.1170  176.8800  137.8850 C   0  0  0  0  0  3  0  0  0  0  0  0
  186.1670  178.2050  138.3690 C   0  0  0  0  0  2  0  0  0  0  0  0
  184.4440  179.3120  139.7610 C   0  0  0  0  0  3  0  0  0  0  0  0
  183.1900  178.0200  138.0060 C   0  0  0  0  0  3  0  0  0  0  0  0
  183.3330  179.0730  138.8180 C   0  0  0  0  0  3  0  0  0  0  0  0
  1  5  2  0  0  0  0
  2 18  1  0  0  0  0
  3  8  1  0  0  0  0
  4 21  1  0  0  0  0
  5 12  1  0  0  0  0
  6  4  2  0  0  0  0
  7 23  1  0  0  0  0
  8 11  2  0  0  0  0
  9 24  1  6  0  0  0
  9  7  1  0  0  0  0
  9 13  1  0  0  0  0
 10  7  2  0  0  0  0
 11 15  1  0  0  0  0
 12  2  2  0  0  0  0
 12  8  1  0  0  0  0
 13  5  1  0  0  0  0
 14 17  1  6  0  0  0
 14 16  1  0  0  0  0
 16 21  1  0  0  0  0
 18 15  2  0  0  0  0
 19  3  1  1  0  0  0
 22  6  1  6  0  0  0
 22 19  1  0  0  0  0
 22 14  1  0  0  0  0
 23 20  1  1  0  0  0
 23 22  1  0  0  0  0
 23 19  1  0  0  0  0
 24 28  2  0  0  0  0
 25 27  1  0  0  0  0
 26 29  1  0  0  0  0
 26 25  2  0  0  0  0
 27 24  1  0  0  0  0
 29 30  2  0  0  0  0
 30 28  1  0  0  0  0
M  END
>  <MODEL>
6

>  <REMARK>
 VINA RESULT:      -6.2      2.579      6.400
  Name = 
  1 active torsions:
  status: ('A' for Active; 'I' for Inactive)
    1  A    between atoms: C_1  and  C_14
                            x       y       z     vdW  Elec       q    Type
                         _______ _______ _______ _____ _____    ______ ____

>  <TORSDO>
F 1

$$$$
=
 OpenBabel11032419133D

 30 34  0  0  1  0  0  0  0  0999 V2000
  187.4550  178.8420  143.6870 O   0  0  0  0  0  0  0  0  0  0  0  0
  184.4860  178.3610  143.1910 C   0  0  0  0  0  3  0  0  0  0  0  0
  186.5690  178.4060  140.0510 N   0  0  0  0  0  2  0  0  0  0  0  0
  189.2250  176.1090  137.4070 N   0  0  0  0  0  0  0  0  0  0  0  0
  186.8980  177.9390  143.0090 C   0  0  0  0  0  0  0  0  0  0  0  0
  189.3980  176.4230  138.6450 C   0  0  0  0  0  3  0  0  0  0  0  0
  189.6370  177.0340  141.5970 C   0  0  0  0  0  0  0  0  0  0  0  0
  185.4780  178.4830  140.9810 C   0  0  0  0  0  0  0  0  0  0  0  0
  188.9710  176.4450  142.8260 C   0  0  2  0  0  3  0  0  0  0  0  0
  190.8010  176.7480  141.3590 O   0  0  0  0  0  0  0  0  0  0  0  0
  184.2360  178.8890  140.4850 C   0  0  0  0  0  3  0  0  0  0  0  0
  185.6080  178.2180  142.3690 C   0  0  0  0  0  0  0  0  0  0  0  0
  187.5220  176.6610  142.8440 N   0  0  0  0  0  2  0  0  0  0  0  0
  188.5870  178.8540  138.1810 C   0  0  2  0  0  3  0  0  0  0  0  0
  183.1440  179.0030  141.3450 C   0  0  0  0  0  3  0  0  0  0  0  0
  188.8230  178.4190  136.7280 C   0  0  0  0  0  2  0  0  0  0  0  0
  189.4300  179.9270  138.4720 O   0  0  0  0  0  1  0  0  0  0  0  0
  183.2890  178.7350  142.6690 N   0  0  0  0  0  0  0  0  0  0  0  0
  187.6270  177.4010  140.1120 C   0  0  1  0  0  3  0  0  0  0  0  0
  188.8410  179.3210  141.0690 F   0  0  0  0  0  0  0  0  0  0  0  0
  188.4510  176.9500  136.5170 C   0  0  0  0  0  2  0  0  0  0  0  0
  188.8110  177.7000  139.1850 C   0  0  1  0  0  0  0  0  0  0  0  0
  188.9160  177.9920  140.6830 C   0  0  1  0  0  0  0  0  0  0  0  0
  189.6230  176.8050  144.1360 C   0  0  0  0  0  0  0  0  0  0  0  0
  188.7800  177.1410  146.4560 C   0  0  0  0  0  3  0  0  0  0  0  0
  189.8040  176.7530  147.2140 C   0  0  0  0  0  3  0  0  0  0  0  0
  188.9440  177.7370  145.0980 C   0  0  0  0  0  2  0  0  0  0  0  0
  190.8720  176.3810  144.3410 C   0  0  0  0  0  3  0  0  0  0  0  0
  191.2190  176.7630  146.8010 C   0  0  0  0  0  3  0  0  0  0  0  0
  191.6800  176.6030  145.5560 C   0  0  0  0  0  3  0  0  0  0  0  0
  3  8  1  0  0  0  0
  4  6  2  0  0  0  0
  5  1  2  0  0  0  0
  7  9  1  0  0  0  0
  8 12  1  0  0  0  0
  9 13  1  0  0  0  0
  9 24  1  1  0  0  0
 10  7  2  0  0  0  0
 11  8  2  0  0  0  0
 11 15  1  0  0  0  0
 12  5  1  0  0  0  0
 12  2  2  0  0  0  0
 13  5  1  0  0  0  0
 14 17  1  1  0  0  0
 14 22  1  0  0  0  0
 15 18  2  0  0  0  0
 16 14  1  0  0  0  0
 18  2  1  0  0  0  0
 19  3  1  6  0  0  0
 19 23  1  0  0  0  0
 21 16  1  0  0  0  0
 21  4  1  0  0  0  0
 22  6  1  6  0  0  0
 22 19  1  0  0  0  0
 22 23  1  0  0  0  0
 23 20  1  1  0  0  0
 23  7  1  0  0  0  0
 24 28  2  0  0  0  0
 24 27  1  0  0  0  0
 25 26  2  0  0  0  0
 27 25  1  0  0  0  0
 28 30  1  0  0  0  0
 29 26  1  0  0  0  0
 30 29  2  0  0  0  0
M  END
>  <MODEL>
7

>  <REMARK>
 VINA RESULT:      -6.0      1.351      1.636
  Name = 
  1 active torsions:
  status: ('A' for Active; 'I' for Inactive)
    1  A    between atoms: C_1  and  C_14
                            x       y       z     vdW  Elec       q    Type
                         _______ _______ _______ _____ _____    ______ ____

>  <TORSDO>
F 1

$$$$
=
 OpenBabel11032419133D

 30 34  0  0  1  0  0  0  0  0999 V2000
  183.3510  177.7250  136.4710 O   0  0  0  0  0  0  0  0  0  0  0  0
  183.6960  174.8290  135.5870 C   0  0  0  0  0  3  0  0  0  0  0  0
  186.8330  176.3800  136.9840 N   0  0  0  0  0  2  0  0  0  0  0  0
  189.0740  177.4250  140.6180 N   0  0  0  0  0  0  0  0  0  0  0  0
  183.8450  176.7540  137.1020 C   0  0  0  0  0  0  0  0  0  0  0  0
  187.9160  177.8440  140.2390 C   0  0  0  0  0  3  0  0  0  0  0  0
  185.1260  178.6280  139.3750 C   0  0  0  0  0  0  0  0  0  0  0  0
  185.9110  175.5410  136.2720 C   0  0  0  0  0  0  0  0  0  0  0  0
  183.7990  177.8940  139.3960 C   0  0  2  0  0  3  0  0  0  0  0  0
  185.3320  179.5050  140.2000 O   0  0  0  0  0  0  0  0  0  0  0  0
  186.4470  174.5760  135.4140 C   0  0  0  0  0  3  0  0  0  0  0  0
  184.5000  175.6750  136.3560 C   0  0  0  0  0  0  0  0  0  0  0  0
  183.7920  176.7110  138.5320 N   0  0  0  0  0  2  0  0  0  0  0  0
  188.7910  178.1820  137.8090 C   0  0  2  0  0  3  0  0  0  0  0  0
  185.6000  173.7470  134.6800 C   0  0  0  0  0  3  0  0  0  0  0  0
  190.1480  178.0490  138.5160 C   0  0  0  0  0  2  0  0  0  0  0  0
  188.7140  179.4450  137.2200 O   0  0  0  0  0  1  0  0  0  0  0  0
  184.2530  173.8850  134.7830 N   0  0  0  0  0  0  0  0  0  0  0  0
  186.6140  176.8660  138.3430 C   0  0  1  0  0  3  0  0  0  0  0  0
  186.0390  178.9080  137.0880 F   0  0  0  0  0  0  0  0  0  0  0  0
  190.0850  177.0310  139.6570 C   0  0  0  0  0  2  0  0  0  0  0  0
  187.6010  177.9570  138.7710 C   0  0  1  0  0  0  0  0  0  0  0  0
  186.1830  178.3330  138.3410 C   0  0  1  0  0  0  0  0  0  0  0  0
  182.5880  178.7660  139.1880 C   0  0  0  0  0  0  0  0  0  0  0  0
  180.3890  178.9790  140.3390 C   0  0  0  0  0  3  0  0  0  0  0  0
  180.0860  180.2670  140.1880 C   0  0  0  0  0  3  0  0  0  0  0  0
  181.2040  178.2070  139.3560 C   0  0  0  0  0  2  0  0  0  0  0  0
  182.7890  179.9990  138.7180 C   0  0  0  0  0  3  0  0  0  0  0  0
  180.5780  181.1340  139.1020 C   0  0  0  0  0  3  0  0  0  0  0  0
  181.7490  181.0160  138.4650 C   0  0  0  0  0  3  0  0  0  0  0  0
  1  5  2  0  0  0  0
  2 12  1  0  0  0  0
  5 13  1  0  0  0  0
  6  4  2  0  0  0  0
  7  9  1  0  0  0  0
  7 10  2  0  0  0  0
  8 12  2  0  0  0  0
  8  3  1  0  0  0  0
  9 24  1  6  0  0  0
 11  8  1  0  0  0  0
 12  5  1  0  0  0  0
 13  9  1  0  0  0  0
 14 17  1  1  0  0  0
 14 16  1  0  0  0  0
 14 22  1  0  0  0  0
 15 18  1  0  0  0  0
 15 11  2  0  0  0  0
 16 21  1  0  0  0  0
 18  2  2  0  0  0  0
 19  3  1  6  0  0  0
 19 22  1  0  0  0  0
 21  4  1  0  0  0  0
 22  6  1  1  0  0  0
 23 20  1  6  0  0  0
 23 19  1  0  0  0  0
 23 22  1  0  0  0  0
 23  7  1  0  0  0  0
 24 27  1  0  0  0  0
 26 25  2  0  0  0  0
 27 25  1  0  0  0  0
 28 24  2  0  0  0  0
 29 26  1  0  0  0  0
 30 28  1  0  0  0  0
 30 29  2  0  0  0  0
M  END
>  <MODEL>
8

>  <REMARK>
 VINA RESULT:      -5.7      3.169      7.355
  Name = 
  1 active torsions:
  status: ('A' for Active; 'I' for Inactive)
    1  A    between atoms: C_1  and  C_14
                            x       y       z     vdW  Elec       q    Type
                         _______ _______ _______ _____ _____    ______ ____

>  <TORSDO>
F 1

$$$$
=
 OpenBabel11032419133D

 30 34  0  0  1  0  0  0  0  0999 V2000
  181.6250  177.1720  137.2130 O   0  0  0  0  0  0  0  0  0  0  0  0
  181.0930  174.1750  137.0680 C   0  0  0  0  0  3  0  0  0  0  0  0
  184.6250  175.1420  136.1780 N   0  0  0  0  0  2  0  0  0  0  0  0
  188.6120  176.1850  137.7050 N   0  0  0  0  0  0  0  0  0  0  0  0
  182.2760  176.2240  137.7240 C   0  0  0  0  0  0  0  0  0  0  0  0
  187.4950  176.8010  137.8870 C   0  0  0  0  0  3  0  0  0  0  0  0
  184.8060  178.0750  138.4240 C   0  0  0  0  0  0  0  0  0  0  0  0
  183.3760  174.4430  136.2940 C   0  0  0  0  0  0  0  0  0  0  0  0
  183.6450  177.6870  139.3200 C   0  0  2  0  0  3  0  0  0  0  0  0
  185.5330  178.9970  138.7620 O   0  0  0  0  0  0  0  0  0  0  0  0
  183.2310  173.2570  135.5680 C   0  0  0  0  0  3  0  0  0  0  0  0
  182.2780  174.9170  137.0580 C   0  0  0  0  0  0  0  0  0  0  0  0
  183.0260  176.4190  138.9280 N   0  0  0  0  0  2  0  0  0  0  0  0
  186.8960  176.5380  135.3660 C   0  0  2  0  0  3  0  0  0  0  0  0
  182.0330  172.5460  135.6250 C   0  0  0  0  0  3  0  0  0  0  0  0
  188.3910  176.2010  135.2740 C   0  0  0  0  0  2  0  0  0  0  0  0
  186.6440  177.6760  134.5970 O   0  0  0  0  0  1  0  0  0  0  0  0
  180.9980  173.0130  136.3710 N   0  0  0  0  0  0  0  0  0  0  0  0
  185.2570  175.8730  137.2720 C   0  0  1  0  0  3  0  0  0  0  0  0
  184.3110  177.7700  136.0150 F   0  0  0  0  0  0  0  0  0  0  0  0
  188.8630  175.4190  136.5000 C   0  0  0  0  0  2  0  0  0  0  0  0
  186.4290  176.7540  136.8250 C   0  0  1  0  0  0  0  0  0  0  0  0
  185.0650  177.3810  137.1110 C   0  0  1  0  0  0  0  0  0  0  0  0
  182.6300  178.7760  139.5520 C   0  0  0  0  0  0  0  0  0  0  0  0
  181.4640  180.4010  138.0660 C   0  0  0  0  0  3  0  0  0  0  0  0
  180.2850  180.5720  138.6630 C   0  0  0  0  0  3  0  0  0  0  0  0
  182.7180  180.0760  138.8050 C   0  0  0  0  0  2  0  0  0  0  0  0
  181.7440  178.5960  140.5340 C   0  0  0  0  0  3  0  0  0  0  0  0
  180.0250  180.3790  140.1010 C   0  0  0  0  0  3  0  0  0  0  0  0
  180.6580  179.5230  140.9110 C   0  0  0  0  0  3  0  0  0  0  0  0
  1  5  2  0  0  0  0
  3  8  1  0  0  0  0
  4  6  2  0  0  0  0
  5 13  1  0  0  0  0
  7 10  2  0  0  0  0
  7  9  1  0  0  0  0
  8 12  2  0  0  0  0
  9 24  1  6  0  0  0
 11 15  2  0  0  0  0
 11  8  1  0  0  0  0
 12  2  1  0  0  0  0
 12  5  1  0  0  0  0
 13  9  1  0  0  0  0
 14 17  1  6  0  0  0
 14 22  1  0  0  0  0
 15 18  1  0  0  0  0
 16 14  1  0  0  0  0
 16 21  1  0  0  0  0
 18  2  2  0  0  0  0
 19  3  1  6  0  0  0
 21  4  1  0  0  0  0
 22 23  1  0  0  0  0
 22 19  1  0  0  0  0
 22  6  1  1  0  0  0
 23 20  1  6  0  0  0
 23 19  1  0  0  0  0
 23  7  1  0  0  0  0
 24 28  2  0  0  0  0
 25 26  2  0  0  0  0
 25 27  1  0  0  0  0
 26 29  1  0  0  0  0
 27 24  1  0  0  0  0
 28 30  1  0  0  0  0
 29 30  2  0  0  0  0
M  END
>  <MODEL>
9

>  <REMARK>
 VINA RESULT:      -5.4      4.690      7.484
  Name = 
  1 active torsions:
  status: ('A' for Active; 'I' for Inactive)
    1  A    between atoms: C_1  and  C_14
                            x       y       z     vdW  Elec       q    Type
                         _______ _______ _______ _____ _____    ______ ____

>  <TORSDO>
F 1

$$$$
