=
 OpenBabel11042412303D

 31 36  0  0  1  0  0  0  0  0999 V2000
  187.0410  178.5840  139.8500 C   0  0  0  0  0  3  0  0  0  0  0  0
  186.7490  178.8940  145.9210 C   0  0  2  0  0  3  0  0  0  0  0  0
  191.3460  177.0550  145.3710 C   0  0  0  0  0  2  0  0  0  0  0  0
  187.1980  177.2600  144.0000 C   0  0  1  0  0  3  0  0  0  0  0  0
  186.1210  179.0380  140.8480 O   0  0  0  0  0  0  0  0  0  0  0  0
  190.8640  176.1680  144.2300 C   0  0  0  0  0  2  0  0  0  0  0  0
  189.4390  177.7360  139.5620 C   0  0  0  0  0  2  0  0  0  0  0  0
  184.9150  178.3090  144.2770 C   0  0  0  0  0  0  0  0  0  0  0  0
  190.5290  177.0820  139.9710 C   0  0  0  0  0  0  0  0  0  0  0  0
  185.7600  179.3710  146.8750 N   0  0  0  0  0  1  0  0  0  0  0  0
  189.6240  176.7540  143.6180 C   0  0  2  0  0  3  0  0  0  0  0  0
  190.2220  177.2880  146.3740 C   0  0  0  0  0  2  0  0  0  0  0  0
  186.1520  177.8320  144.9910 C   0  0  2  0  0  3  0  0  0  0  0  0
  187.1670  177.8600  142.6180 C   0  0  0  0  0  0  0  0  0  0  0  0
  183.7450  178.3110  144.9000 C   0  0  0  0  0  2  0  0  0  0  0  0
  187.9230  178.2890  146.6770 C   0  0  2  0  0  3  0  0  0  0  0  0
  188.2830  177.9740  140.4410 C   0  0  0  0  0  0  0  0  0  0  0  0
  184.9840  178.7520  142.9560 O   0  0  0  0  0  0  0  0  0  0  0  0
  188.3150  177.5980  141.7300 C   0  0  0  0  0  0  0  0  0  0  0  0
  189.5190  176.9350  142.2870 C   0  0  0  0  0  0  0  0  0  0  0  0
  189.0420  177.9830  145.6870 C   0  0  2  0  0  3  0  0  0  0  0  0
  188.5880  177.2270  144.5050 N   0  0  1  0  0  0  0  0  0  0  0  0
  186.1080  178.5380  142.1550 C   0  0  0  0  0  0  0  0  0  0  0  0
  190.6130  176.4780  141.3540 C   0  0  0  0  0  3  0  0  0  0  0  0
  187.8410  177.3860  148.7030 C   0  0  0  0  0  1  0  0  0  0  0  0
  187.5310  177.1310  147.3670 O   0  0  0  0  0  0  0  0  0  0  0  0
  191.6010  176.9080  139.0420 N   0  0  0  0  0  2  0  0  0  0  0  0
  193.1750  175.5450  137.0860 C   0  0  0  0  0  1  0  0  0  0  0  0
  190.6920  176.4170  136.6020 O   0  0  0  0  0  0  0  0  0  0  0  0
  190.9420  174.5080  138.1330 O   0  0  0  0  0  0  0  0  0  0  0  0
  191.5300  175.8200  137.6970 S   0  0  0  0  0  0  0  0  0  0  0  0
  1 17  2  0  0  0  0
  1  5  1  0  0  0  0
  2 16  1  0  0  0  0
  2 10  1  1  0  0  0
  3 12  1  0  0  0  0
  4 14  1  6  0  0  0
  4 22  1  0  0  0  0
  4 13  1  0  0  0  0
  5 23  1  0  0  0  0
  6  3  1  0  0  0  0
  7  9  1  0  0  0  0
  7 17  1  0  0  0  0
  8 15  2  0  0  0  0
  9 24  2  0  0  0  0
 11  6  1  1  0  0  0
 11 22  1  0  0  0  0
 13  8  1  6  0  0  0
 13  2  1  0  0  0  0
 16 26  1  6  0  0  0
 17 19  1  0  0  0  0
 18  8  1  0  0  0  0
 19 20  2  0  0  0  0
 19 14  1  0  0  0  0
 20 11  1  0  0  0  0
 21 12  1  1  0  0  0
 21 16  1  0  0  0  0
 22 21  1  0  0  0  0
 23 14  2  0  0  0  0
 23 18  1  0  0  0  0
 24 20  1  0  0  0  0
 26 25  1  0  0  0  0
 27  9  1  0  0  0  0
 28 31  1  0  0  0  0
 29 31  2  0  0  0  0
 31 30  2  0  0  0  0
 31 27  1  0  0  0  0
M  END
>  <MODEL>
1

>  <REMARK>
 VINA RESULT:      -9.4      0.000      0.000
  Name = 
  3 active torsions:
  status: ('A' for Active; 'I' for Inactive)
    1  A    between atoms: N_1  and  C_13
    2  A    between atoms: N_1  and  S_24
    3  A    between atoms: C_20  and  O_30
                            x       y       z     vdW  Elec       q    Type
                         _______ _______ _______ _____ _____    ______ ____

>  <TORSDO>
F 3

$$$$
=
 OpenBabel11042412303D

 31 36  0  0  1  0  0  0  0  0999 V2000
  183.5560  178.5980  139.5270 C   0  0  0  0  0  3  0  0  0  0  0  0
  189.2330  176.8200  140.8110 C   0  0  2  0  0  3  0  0  0  0  0  0
  187.3260  177.0090  145.4090 C   0  0  0  0  0  2  0  0  0  0  0  0
  187.5120  178.6380  141.3550 C   0  0  1  0  0  3  0  0  0  0  0  0
  184.7480  178.2480  138.8140 O   0  0  0  0  0  0  0  0  0  0  0  0
  186.5610  178.2760  145.0490 C   0  0  0  0  0  2  0  0  0  0  0  0
  182.5460  178.5970  141.8780 C   0  0  0  0  0  3  0  0  0  0  0  0
  188.4450  178.4210  139.0160 C   0  0  0  0  0  0  0  0  0  0  0  0
  182.6210  178.6960  143.2070 C   0  0  0  0  0  0  0  0  0  0  0  0
  190.4050  176.4850  140.0180 N   0  0  0  0  0  1  0  0  0  0  0  0
  186.3600  178.3440  143.5630 C   0  0  2  0  0  3  0  0  0  0  0  0
  188.6240  176.9280  144.6140 C   0  0  0  0  0  2  0  0  0  0  0  0
  188.7270  178.2280  140.4830 C   0  0  2  0  0  3  0  0  0  0  0  0
  186.1660  178.4740  140.6980 C   0  0  0  0  0  0  0  0  0  0  0  0
  189.4390  178.6630  138.1730 C   0  0  0  0  0  2  0  0  0  0  0  0
  189.5930  176.7530  142.2890 C   0  0  2  0  0  3  0  0  0  0  0  0
  183.7400  178.5550  141.0190 C   0  0  0  0  0  0  0  0  0  0  0  0
  187.1400  178.3470  138.5280 O   0  0  0  0  0  0  0  0  0  0  0  0
  184.9700  178.5430  141.5580 C   0  0  1  0  0  3  0  0  0  0  0  0
  185.1430  178.5690  143.0310 C   0  0  0  0  0  0  0  0  0  0  0  0
  188.3180  176.8980  143.1130 C   0  0  2  0  0  3  0  0  0  0  0  0
  187.4880  178.0480  142.7110 N   0  0  1  0  0  0  0  0  0  0  0  0
  186.0270  178.3580  139.3710 C   0  0  0  0  0  0  0  0  0  0  0  0
  183.9500  178.8450  143.9130 C   0  0  0  0  0  3  0  0  0  0  0  0
  191.6340  177.0560  143.1070 C   0  0  0  0  0  1  0  0  0  0  0  0
  190.5240  177.7490  142.6220 O   0  0  0  0  0  0  0  0  0  0  0  0
  181.4030  178.7220  143.9540 N   0  0  0  0  0  2  0  0  0  0  0  0
  179.2640  178.3780  142.0910 C   0  0  0  0  0  1  0  0  0  0  0  0
  180.2180  180.7820  142.7810 O   0  0  0  0  0  0  0  0  0  0  0  0
  178.9390  179.5430  144.4770 O   0  0  0  0  0  0  0  0  0  0  0  0
  179.9360  179.4250  143.3600 S   0  0  0  0  0  0  0  0  0  0  0  0
  1 17  2  0  0  0  0
  2 10  1  6  0  0  0
  2 16  1  0  0  0  0
  4 14  1  6  0  0  0
  4 22  1  0  0  0  0
  5 23  1  0  0  0  0
  5  1  1  0  0  0  0
  6  3  1  0  0  0  0
  7  9  2  0  0  0  0
  9 24  1  0  0  0  0
  9 27  1  0  0  0  0
 11  6  1  1  0  0  0
 12  3  1  0  0  0  0
 13  8  1  6  0  0  0
 13  2  1  0  0  0  0
 13  4  1  0  0  0  0
 15  8  2  0  0  0  0
 16 26  1  1  0  0  0
 16 21  1  0  0  0  0
 17 19  1  0  0  0  0
 17  7  1  0  0  0  0
 18  8  1  0  0  0  0
 18 23  1  0  0  0  0
 19 14  1  1  0  0  0
 19 20  1  0  0  0  0
 20 11  1  0  0  0  0
 20 24  2  0  0  0  0
 21 12  1  1  0  0  0
 22 21  1  0  0  0  0
 22 11  1  0  0  0  0
 23 14  2  0  0  0  0
 26 25  1  0  0  0  0
 28 31  1  0  0  0  0
 29 31  2  0  0  0  0
 31 27  1  0  0  0  0
 31 30  2  0  0  0  0
M  END
>  <MODEL>
2

>  <REMARK>
 VINA RESULT:      -9.1      3.630      7.304
  Name = 
  3 active torsions:
  status: ('A' for Active; 'I' for Inactive)
    1  A    between atoms: N_1  and  C_13
    2  A    between atoms: N_1  and  S_24
    3  A    between atoms: C_20  and  O_30
                            x       y       z     vdW  Elec       q    Type
                         _______ _______ _______ _____ _____    ______ ____

>  <TORSDO>
F 3

$$$$
=
 OpenBabel11042412303D

 31 36  0  0  1  0  0  0  0  0999 V2000
  184.9040  178.6380  146.9840 C   0  0  0  0  0  3  0  0  0  0  0  0
  190.4460  178.2160  144.5050 C   0  0  2  0  0  3  0  0  0  0  0  0
  187.6930  178.7260  140.3850 C   0  0  0  0  0  2  0  0  0  0  0  0
  188.1170  177.1510  144.4430 C   0  0  1  0  0  3  0  0  0  0  0  0
  186.2610  178.5300  147.4270 O   0  0  0  0  0  0  0  0  0  0  0  0
  186.6180  177.8270  140.9810 C   0  0  0  0  0  2  0  0  0  0  0  0
  183.4990  179.0030  144.8760 C   0  0  0  0  0  3  0  0  0  0  0  0
  189.5270  177.0180  146.5360 C   0  0  0  0  0  0  0  0  0  0  0  0
  183.2590  178.8800  143.5690 C   0  0  0  0  0  0  0  0  0  0  0  0
  191.7970  178.1010  145.0320 N   0  0  0  0  0  1  0  0  0  0  0  0
  186.7170  177.8400  142.4800 C   0  0  2  0  0  3  0  0  0  0  0  0
  189.0690  178.3290  140.9090 C   0  0  0  0  0  2  0  0  0  0  0  0
  189.5490  177.0910  145.0330 C   0  0  2  0  0  3  0  0  0  0  0  0
  187.0850  177.7970  145.3300 C   0  0  0  0  0  0  0  0  0  0  0  0
  190.5190  176.4310  147.1910 C   0  0  0  0  0  2  0  0  0  0  0  0
  190.4930  178.1430  142.9850 C   0  0  2  0  0  3  0  0  0  0  0  0
  184.7790  178.6080  145.4850 C   0  0  0  0  0  0  0  0  0  0  0  0
  188.4640  177.5640  147.2580 O   0  0  0  0  0  0  0  0  0  0  0  0
  185.7930  178.1690  144.7220 C   0  0  1  0  0  3  0  0  0  0  0  0
  185.6370  178.0770  143.2500 C   0  0  0  0  0  0  0  0  0  0  0  0
  189.1100  178.4730  142.4330 C   0  0  2  0  0  3  0  0  0  0  0  0
  188.0260  177.7060  143.0740 N   0  0  1  0  0  0  0  0  0  0  0  0
  187.2730  177.9590  146.6460 C   0  0  0  0  0  0  0  0  0  0  0  0
  184.2710  178.2550  142.6360 C   0  0  0  0  0  3  0  0  0  0  0  0
  192.0380  177.1190  141.7650 C   0  0  0  0  0  1  0  0  0  0  0  0
  190.9170  176.8750  142.5590 O   0  0  0  0  0  0  0  0  0  0  0  0
  181.9860  179.3000  143.0730 N   0  0  0  0  0  2  0  0  0  0  0  0
  180.0920  180.0710  141.0780 C   0  0  0  0  0  1  0  0  0  0  0  0
  180.9630  177.5560  141.3590 O   0  0  0  0  0  0  0  0  0  0  0  0
  182.5560  179.2150  140.4860 O   0  0  0  0  0  0  0  0  0  0  0  0
  181.4380  178.9780  141.4620 S   0  0  0  0  0  0  0  0  0  0  0  0
  1  5  1  0  0  0  0
  2 10  1  1  0  0  0
  2 13  1  0  0  0  0
  3 12  1  0  0  0  0
  3  6  1  0  0  0  0
  4 13  1  0  0  0  0
  4 14  1  1  0  0  0
  7 17  1  0  0  0  0
  8 15  2  0  0  0  0
  8 18  1  0  0  0  0
  9  7  2  0  0  0  0
 11  6  1  6  0  0  0
 11 22  1  0  0  0  0
 11 20  1  0  0  0  0
 13  8  1  1  0  0  0
 14 23  2  0  0  0  0
 16 26  1  1  0  0  0
 16  2  1  0  0  0  0
 17  1  2  0  0  0  0
 19 20  1  6  0  0  0
 19 14  1  0  0  0  0
 19 17  1  0  0  0  0
 21 12  1  6  0  0  0
 21 16  1  0  0  0  0
 21 22  1  0  0  0  0
 22  4  1  0  0  0  0
 23 18  1  0  0  0  0
 23  5  1  0  0  0  0
 24 20  2  0  0  0  0
 24  9  1  0  0  0  0
 25 26  1  0  0  0  0
 27  9  1  0  0  0  0
 28 31  1  0  0  0  0
 29 31  2  0  0  0  0
 30 31  2  0  0  0  0
 31 27  1  0  0  0  0
M  END
>  <MODEL>
3

>  <REMARK>
 VINA RESULT:      -9.0      3.264      6.905
  Name = 
  3 active torsions:
  status: ('A' for Active; 'I' for Inactive)
    1  A    between atoms: N_1  and  C_13
    2  A    between atoms: N_1  and  S_24
    3  A    between atoms: C_20  and  O_30
                            x       y       z     vdW  Elec       q    Type
                         _______ _______ _______ _____ _____    ______ ____

>  <TORSDO>
F 3

$$$$
=
 OpenBabel11042412303D

 31 36  0  0  1  0  0  0  0  0999 V2000
  186.8290  177.7270  137.3700 C   0  0  0  0  0  3  0  0  0  0  0  0
  189.4360  176.5180  142.7350 C   0  0  2  0  0  3  0  0  0  0  0  0
  184.9890  178.1440  144.2830 C   0  0  0  0  0  2  0  0  0  0  0  0
  188.2880  178.3940  141.4230 C   0  0  1  0  0  3  0  0  0  0  0  0
  188.0610  177.1810  137.8550 O   0  0  0  0  0  0  0  0  0  0  0  0
  184.9980  179.2220  143.2050 C   0  0  0  0  0  2  0  0  0  0  0  0
  184.5090  178.4650  138.1580 C   0  0  0  0  0  2  0  0  0  0  0  0
  190.4970  177.4510  140.6360 C   0  0  0  0  0  0  0  0  0  0  0  0
  183.6640  178.9850  139.0510 C   0  0  0  0  0  0  0  0  0  0  0  0
  190.7140  175.9600  143.1500 N   0  0  0  0  0  1  0  0  0  0  0  0
  185.9040  178.8090  142.0810 C   0  0  2  0  0  3  0  0  0  0  0  0
  186.4120  177.8290  144.7300 C   0  0  0  0  0  2  0  0  0  0  0  0
  189.6330  177.7410  141.8340 C   0  0  2  0  0  3  0  0  0  0  0  0
  187.7820  178.0140  140.0550 C   0  0  0  0  0  0  0  0  0  0  0  0
  191.8170  177.4230  140.7570 C   0  0  0  0  0  2  0  0  0  0  0  0
  188.6450  176.9310  143.9690 C   0  0  2  0  0  3  0  0  0  0  0  0
  185.9130  178.1650  138.4800 C   0  0  0  0  0  0  0  0  0  0  0  0
  189.9230  177.2110  139.3870 O   0  0  0  0  0  0  0  0  0  0  0  0
  186.3820  178.3400  139.7270 C   0  0  0  0  0  0  0  0  0  0  0  0
  185.4880  178.8380  140.8000 C   0  0  0  0  0  0  0  0  0  0  0  0
  187.2330  177.3170  143.5430 C   0  0  2  0  0  3  0  0  0  0  0  0
  187.2000  178.2680  142.4170 N   0  0  1  0  0  0  0  0  0  0  0  0
  188.5790  177.4770  139.1210 C   0  0  0  0  0  0  0  0  0  0  0  0
  184.1210  179.3670  140.4410 C   0  0  0  0  0  3  0  0  0  0  0  0
  189.5950  177.4860  145.8970 C   0  0  0  0  0  1  0  0  0  0  0  0
  189.2780  177.9910  144.6360 O   0  0  0  0  0  0  0  0  0  0  0  0
  182.3170  179.2340  138.6430 N   0  0  0  0  0  2  0  0  0  0  0  0
  180.3520  181.1040  139.5390 C   0  0  0  0  0  1  0  0  0  0  0  0
  181.1470  180.9440  136.9890 O   0  0  0  0  0  0  0  0  0  0  0  0
  182.7510  181.8480  138.6200 O   0  0  0  0  0  0  0  0  0  0  0  0
  181.6770  180.8230  138.3900 S   0  0  0  0  0  0  0  0  0  0  0  0
  1  5  1  0  0  0  0
  1 17  2  0  0  0  0
  2 10  1  1  0  0  0
  2 16  1  0  0  0  0
  3 12  1  0  0  0  0
  4 14  1  6  0  0  0
  4 13  1  0  0  0  0
  4 22  1  0  0  0  0
  5 23  1  0  0  0  0
  6  3  1  0  0  0  0
  7 17  1  0  0  0  0
  7  9  1  0  0  0  0
  8 15  2  0  0  0  0
  9 24  2  0  0  0  0
 11 22  1  0  0  0  0
 11  6  1  1  0  0  0
 13  8  1  6  0  0  0
 13  2  1  0  0  0  0
 16 26  1  6  0  0  0
 17 19  1  0  0  0  0
 18  8  1  0  0  0  0
 19 14  1  0  0  0  0
 19 20  2  0  0  0  0
 20 11  1  0  0  0  0
 21 16  1  0  0  0  0
 21 12  1  1  0  0  0
 22 21  1  0  0  0  0
 23 18  1  0  0  0  0
 23 14  2  0  0  0  0
 24 20  1  0  0  0  0
 26 25  1  0  0  0  0
 27  9  1  0  0  0  0
 29 31  2  0  0  0  0
 31 30  2  0  0  0  0
 31 27  1  0  0  0  0
 31 28  1  0  0  0  0
M  END
>  <MODEL>
4

>  <REMARK>
 VINA RESULT:      -8.7      3.644      6.500
  Name = 
  3 active torsions:
  status: ('A' for Active; 'I' for Inactive)
    1  A    between atoms: N_1  and  C_13
    2  A    between atoms: N_1  and  S_24
    3  A    between atoms: C_20  and  O_30
                            x       y       z     vdW  Elec       q    Type
                         _______ _______ _______ _____ _____    ______ ____

>  <TORSDO>
F 3

$$$$
=
 OpenBabel11042412303D

 31 36  0  0  1  0  0  0  0  0999 V2000
  187.2890  177.5340  137.3730 C   0  0  0  0  0  3  0  0  0  0  0  0
  189.5520  176.5190  142.9300 C   0  0  2  0  0  3  0  0  0  0  0  0
  185.0140  178.1810  144.1370 C   0  0  0  0  0  2  0  0  0  0  0  0
  188.4870  178.3450  141.4840 C   0  0  1  0  0  3  0  0  0  0  0  0
  188.4880  177.0110  137.9530 O   0  0  0  0  0  0  0  0  0  0  0  0
  185.0900  179.2200  143.0250 C   0  0  0  0  0  2  0  0  0  0  0  0
  184.9220  178.2900  137.9860 C   0  0  0  0  0  2  0  0  0  0  0  0
  190.7430  177.3850  140.8720 C   0  0  0  0  0  0  0  0  0  0  0  0
  184.0210  178.8370  138.8060 C   0  0  0  0  0  0  0  0  0  0  0  0
  190.8020  175.9820  143.4440 N   0  0  0  0  0  1  0  0  0  0  0  0
  186.0650  178.7730  141.9750 C   0  0  2  0  0  3  0  0  0  0  0  0
  186.4060  177.8860  144.6840 C   0  0  0  0  0  2  0  0  0  0  0  0
  189.8040  177.7120  142.0020 C   0  0  2  0  0  3  0  0  0  0  0  0
  188.0690  177.9170  140.1010 C   0  0  0  0  0  0  0  0  0  0  0  0
  192.0530  177.3660  141.0770 C   0  0  0  0  0  2  0  0  0  0  0  0
  188.6850  176.9710  144.0960 C   0  0  2  0  0  3  0  0  0  0  0  0
  186.3040  178.0070  138.4070 C   0  0  0  0  0  0  0  0  0  0  0  0
  190.2500  177.1000  139.5980 O   0  0  0  0  0  0  0  0  0  0  0  0
  186.6920  178.2260  139.6740 C   0  0  0  0  0  0  0  0  0  0  0  0
  185.7310  178.7570  140.6710 C   0  0  0  0  0  0  0  0  0  0  0  0
  187.3010  177.3370  143.5690 C   0  0  2  0  0  3  0  0  0  0  0  0
  187.3390  178.2490  142.4120 N   0  0  1  0  0  0  0  0  0  0  0  0
  188.9240  177.3520  139.2380 C   0  0  0  0  0  0  0  0  0  0  0  0
  184.3890  179.2680  140.2080 C   0  0  0  0  0  3  0  0  0  0  0  0
  189.4950  177.6010  146.0650 C   0  0  0  0  0  1  0  0  0  0  0  0
  189.2720  178.0570  144.7650 O   0  0  0  0  0  0  0  0  0  0  0  0
  182.7030  179.0670  138.3050 N   0  0  0  0  0  2  0  0  0  0  0  0
  181.7190  176.6860  139.5400 C   0  0  0  0  0  1  0  0  0  0  0  0
  180.2360  178.1880  137.8950 O   0  0  0  0  0  0  0  0  0  0  0  0
  180.7630  179.1180  140.1100 O   0  0  0  0  0  0  0  0  0  0  0  0
  181.2890  178.3080  138.9590 S   0  0  0  0  0  0  0  0  0  0  0  0
  1  5  1  0  0  0  0
  1 17  2  0  0  0  0
  2 10  1  1  0  0  0
  2 16  1  0  0  0  0
  3 12  1  0  0  0  0
  4 14  1  6  0  0  0
  4 13  1  0  0  0  0
  4 22  1  0  0  0  0
  5 23  1  0  0  0  0
  6  3  1  0  0  0  0
  7 17  1  0  0  0  0
  7  9  1  0  0  0  0
  8 15  2  0  0  0  0
  9 24  2  0  0  0  0
 11 22  1  0  0  0  0
 11  6  1  1  0  0  0
 13  8  1  6  0  0  0
 13  2  1  0  0  0  0
 16 26  1  6  0  0  0
 17 19  1  0  0  0  0
 18  8  1  0  0  0  0
 19 14  1  0  0  0  0
 19 20  2  0  0  0  0
 20 11  1  0  0  0  0
 21 16  1  0  0  0  0
 21 12  1  1  0  0  0
 22 21  1  0  0  0  0
 23 18  1  0  0  0  0
 23 14  2  0  0  0  0
 24 20  1  0  0  0  0
 26 25  1  0  0  0  0
 27  9  1  0  0  0  0
 27 31  1  0  0  0  0
 29 31  2  0  0  0  0
 31 28  1  0  0  0  0
 31 30  2  0  0  0  0
M  END
>  <MODEL>
5

>  <REMARK>
 VINA RESULT:      -8.5      3.500      6.289
  Name = 
  3 active torsions:
  status: ('A' for Active; 'I' for Inactive)
    1  A    between atoms: N_1  and  C_13
    2  A    between atoms: N_1  and  S_24
    3  A    between atoms: C_20  and  O_30
                            x       y       z     vdW  Elec       q    Type
                         _______ _______ _______ _____ _____    ______ ____

>  <TORSDO>
F 3

$$$$
=
 OpenBabel11042412303D

 31 36  0  0  1  0  0  0  0  0999 V2000
  185.2570  179.2240  141.1630 C   0  0  0  0  0  3  0  0  0  0  0  0
  188.0620  178.4290  146.5050 C   0  0  2  0  0  3  0  0  0  0  0  0
  191.7160  177.0760  143.4020 C   0  0  0  0  0  2  0  0  0  0  0  0
  187.4460  177.2020  144.3430 C   0  0  1  0  0  3  0  0  0  0  0  0
  184.9740  179.4220  142.5520 O   0  0  0  0  0  0  0  0  0  0  0  0
  190.7050  176.3700  142.5060 C   0  0  0  0  0  2  0  0  0  0  0  0
  187.1650  178.6280  139.5650 C   0  0  0  0  0  2  0  0  0  0  0  0
  185.6370  178.0070  145.9140 C   0  0  0  0  0  0  0  0  0  0  0  0
  188.2970  177.9970  139.2440 C   0  0  0  0  0  0  0  0  0  0  0  0
  187.6980  178.6530  147.8960 N   0  0  0  0  0  1  0  0  0  0  0  0
  189.3400  176.9590  142.7170 C   0  0  2  0  0  3  0  0  0  0  0  0
  191.2540  177.0400  144.8540 C   0  0  0  0  0  2  0  0  0  0  0  0
  187.0540  177.5070  145.8110 C   0  0  2  0  0  3  0  0  0  0  0  0
  186.7390  178.0330  143.3040 C   0  0  0  0  0  0  0  0  0  0  0  0
  184.9390  177.8090  147.0230 C   0  0  0  0  0  2  0  0  0  0  0  0
  189.4430  177.7920  146.4450 C   0  0  2  0  0  3  0  0  0  0  0  0
  186.6130  178.6170  140.9290 C   0  0  0  0  0  0  0  0  0  0  0  0
  185.0430  178.6810  144.8460 O   0  0  0  0  0  0  0  0  0  0  0  0
  187.2800  178.0210  141.9310 C   0  0  0  0  0  0  0  0  0  0  0  0
  188.5850  177.3650  141.6770 C   0  0  0  0  0  0  0  0  0  0  0  0
  189.9050  177.7530  144.9920 C   0  0  2  0  0  3  0  0  0  0  0  0
  188.9010  177.1870  144.0740 N   0  0  1  0  0  0  0  0  0  0  0  0
  185.6080  178.6990  143.5690 C   0  0  0  0  0  0  0  0  0  0  0  0
  189.0500  177.1650  140.2560 C   0  0  0  0  0  3  0  0  0  0  0  0
  190.6140  176.4050  147.7230 C   0  0  0  0  0  1  0  0  0  0  0  0
  189.4230  176.5040  147.0020 O   0  0  0  0  0  0  0  0  0  0  0  0
  188.7530  178.0730  137.8910 N   0  0  0  0  0  2  0  0  0  0  0  0
  187.2930  175.7330  137.1460 C   0  0  0  0  0  1  0  0  0  0  0  0
  188.9520  177.0040  135.4740 O   0  0  0  0  0  0  0  0  0  0  0  0
  186.8450  178.1340  136.0540 O   0  0  0  0  0  0  0  0  0  0  0  0
  187.9640  177.2750  136.5730 S   0  0  0  0  0  0  0  0  0  0  0  0
  1  5  1  0  0  0  0
  2 10  1  1  0  0  0
  3 12  1  0  0  0  0
  4 14  1  6  0  0  0
  4 13  1  0  0  0  0
  5 23  1  0  0  0  0
  6  3  1  0  0  0  0
  7 17  1  0  0  0  0
  8 15  2  0  0  0  0
  9  7  1  0  0  0  0
  9 24  2  0  0  0  0
 11  6  1  1  0  0  0
 11 22  1  0  0  0  0
 13  8  1  6  0  0  0
 13  2  1  0  0  0  0
 14 23  2  0  0  0  0
 16  2  1  0  0  0  0
 16 26  1  6  0  0  0
 17  1  2  0  0  0  0
 17 19  1  0  0  0  0
 18  8  1  0  0  0  0
 19 14  1  0  0  0  0
 20 19  2  0  0  0  0
 20 11  1  0  0  0  0
 21 12  1  1  0  0  0
 21 16  1  0  0  0  0
 22  4  1  0  0  0  0
 22 21  1  0  0  0  0
 23 18  1  0  0  0  0
 24 20  1  0  0  0  0
 26 25  1  0  0  0  0
 27  9  1  0  0  0  0
 29 31  2  0  0  0  0
 30 31  2  0  0  0  0
 31 28  1  0  0  0  0
 31 27  1  0  0  0  0
M  END
>  <MODEL>
6

>  <REMARK>
 VINA RESULT:      -8.2      1.976      2.459
  Name = 
  3 active torsions:
  status: ('A' for Active; 'I' for Inactive)
    1  A    between atoms: N_1  and  C_13
    2  A    between atoms: N_1  and  S_24
    3  A    between atoms: C_20  and  O_30
                            x       y       z     vdW  Elec       q    Type
                         _______ _______ _______ _____ _____    ______ ____

>  <TORSDO>
F 3

$$$$
=
 OpenBabel11042412303D

 31 36  0  0  1  0  0  0  0  0999 V2000
  184.2490  179.4740  144.5600 C   0  0  0  0  0  3  0  0  0  0  0  0
  189.7160  177.9580  146.7630 C   0  0  2  0  0  3  0  0  0  0  0  0
  190.6170  177.5750  141.8780 C   0  0  0  0  0  2  0  0  0  0  0  0
  187.8470  177.1080  145.2310 C   0  0  1  0  0  3  0  0  0  0  0  0
  184.8920  179.3780  145.8360 O   0  0  0  0  0  0  0  0  0  0  0  0
  189.2400  176.9570  141.6650 C   0  0  0  0  0  2  0  0  0  0  0  0
  184.7370  179.3780  142.0500 C   0  0  0  0  0  2  0  0  0  0  0  0
  187.4280  177.4230  147.7040 C   0  0  0  0  0  0  0  0  0  0  0  0
  185.4030  178.9310  140.9820 C   0  0  0  0  0  0  0  0  0  0  0  0
  190.2970  177.8780  148.0940 N   0  0  0  0  0  1  0  0  0  0  0  0
  188.3220  177.3610  142.7820 C   0  0  2  0  0  3  0  0  0  0  0  0
  191.1480  177.2210  143.2630 C   0  0  0  0  0  2  0  0  0  0  0  0
  188.4580  177.0910  146.6560 C   0  0  2  0  0  3  0  0  0  0  0  0
  186.6850  178.0490  145.0420 C   0  0  0  0  0  0  0  0  0  0  0  0
  187.5560  176.9530  148.9360 C   0  0  0  0  0  2  0  0  0  0  0  0
  190.7380  177.4800  145.7410 C   0  0  2  0  0  3  0  0  0  0  0  0
  185.1460  179.0560  143.4270 C   0  0  0  0  0  0  0  0  0  0  0  0
  186.3310  178.2260  147.3910 O   0  0  0  0  0  0  0  0  0  0  0  0
  186.2630  178.3490  143.6610 C   0  0  0  0  0  0  0  0  0  0  0  0
  187.1040  177.8810  142.5330 C   0  0  0  0  0  0  0  0  0  0  0  0
  190.2030  177.7620  144.3400 C   0  0  2  0  0  3  0  0  0  0  0  0
  188.8240  177.2840  144.1340 N   0  0  1  0  0  0  0  0  0  0  0  0
  185.9870  178.5400  146.0750 C   0  0  0  0  0  0  0  0  0  0  0  0
  186.5850  177.9990  141.1220 C   0  0  0  0  0  3  0  0  0  0  0  0
  192.1130  176.0710  146.7660 C   0  0  0  0  0  1  0  0  0  0  0  0
  191.0120  176.1140  145.9100 O   0  0  0  0  0  0  0  0  0  0  0  0
  184.9310  179.3050  139.6860 N   0  0  0  0  0  2  0  0  0  0  0  0
  182.4010  179.4430  138.3650 C   0  0  0  0  0  1  0  0  0  0  0  0
  183.2580  177.2500  139.6370 O   0  0  0  0  0  0  0  0  0  0  0  0
  184.3870  177.8530  137.5370 O   0  0  0  0  0  0  0  0  0  0  0  0
  183.7630  178.3870  138.7950 S   0  0  0  0  0  0  0  0  0  0  0  0
  1  5  1  0  0  0  0
  2 10  1  1  0  0  0
  3 12  1  0  0  0  0
  4 14  1  1  0  0  0
  4 13  1  0  0  0  0
  5 23  1  0  0  0  0
  6  3  1  0  0  0  0
  7 17  1  0  0  0  0
  8 15  2  0  0  0  0
  9 24  2  0  0  0  0
  9  7  1  0  0  0  0
 11  6  1  6  0  0  0
 11 22  1  0  0  0  0
 13  2  1  0  0  0  0
 13  8  1  1  0  0  0
 14 23  2  0  0  0  0
 16 26  1  6  0  0  0
 16  2  1  0  0  0  0
 17 19  1  0  0  0  0
 17  1  2  0  0  0  0
 18  8  1  0  0  0  0
 19 14  1  0  0  0  0
 20 11  1  0  0  0  0
 20 19  2  0  0  0  0
 21 12  1  6  0  0  0
 21 16  1  0  0  0  0
 22 21  1  0  0  0  0
 22  4  1  0  0  0  0
 23 18  1  0  0  0  0
 24 20  1  0  0  0  0
 26 25  1  0  0  0  0
 27  9  1  0  0  0  0
 28 31  1  0  0  0  0
 30 31  2  0  0  0  0
 31 29  2  0  0  0  0
 31 27  1  0  0  0  0
M  END
>  <MODEL>
7

>  <REMARK>
 VINA RESULT:      -8.1      3.176      4.991
  Name = 
  3 active torsions:
  status: ('A' for Active; 'I' for Inactive)
    1  A    between atoms: N_1  and  C_13
    2  A    between atoms: N_1  and  S_24
    3  A    between atoms: C_20  and  O_30
                            x       y       z     vdW  Elec       q    Type
                         _______ _______ _______ _____ _____    ______ ____

>  <TORSDO>
F 3

$$$$
=
 OpenBabel11042412303D

 31 36  0  0  1  0  0  0  0  0999 V2000
  190.4960  176.6460  139.1550 C   0  0  0  0  0  3  0  0  0  0  0  0
  188.2270  177.0110  144.7910 C   0  0  2  0  0  3  0  0  0  0  0  0
  184.1880  178.2520  142.1520 C   0  0  0  0  0  2  0  0  0  0  0  0
  188.5330  178.3720  142.6430 C   0  0  1  0  0  3  0  0  0  0  0  0
  190.9360  176.4060  140.4960 O   0  0  0  0  0  0  0  0  0  0  0  0
  185.0530  179.0630  141.1950 C   0  0  0  0  0  2  0  0  0  0  0  0
  188.3960  177.1830  137.7940 C   0  0  0  0  0  2  0  0  0  0  0  0
  190.5440  177.6220  143.9760 C   0  0  0  0  0  0  0  0  0  0  0  0
  187.1990  177.7500  137.6230 C   0  0  0  0  0  0  0  0  0  0  0  0
  188.7490  176.7520  146.1230 N   0  0  0  0  0  1  0  0  0  0  0  0
  186.4660  178.5590  141.2340 C   0  0  2  0  0  3  0  0  0  0  0  0
  184.7980  178.2540  143.5490 C   0  0  0  0  0  2  0  0  0  0  0  0
  189.0960  178.0300  144.0450 C   0  0  2  0  0  3  0  0  0  0  0  0
  189.1760  177.6380  141.4950 C   0  0  0  0  0  0  0  0  0  0  0  0
  191.3420  177.8170  145.0170 C   0  0  0  0  0  2  0  0  0  0  0  0
  186.8110  177.5560  144.9050 C   0  0  2  0  0  3  0  0  0  0  0  0
  189.0870  177.1700  139.0930 C   0  0  0  0  0  0  0  0  0  0  0  0
  191.0630  177.0380  142.8200 O   0  0  0  0  0  0  0  0  0  0  0  0
  188.4940  177.6750  140.1880 C   0  0  0  0  0  0  0  0  0  0  0  0
  187.1310  178.2520  140.1030 C   0  0  0  0  0  0  0  0  0  0  0  0
  186.1960  177.6280  143.5120 C   0  0  2  0  0  3  0  0  0  0  0  0
  187.0600  178.3020  142.5250 N   0  0  1  0  0  0  0  0  0  0  0  0
  190.3690  177.0390  141.6080 C   0  0  0  0  0  0  0  0  0  0  0  0
  186.5060  178.4830  138.7490 C   0  0  0  0  0  3  0  0  0  0  0  0
  186.0500  178.6490  146.6820 C   0  0  0  0  0  1  0  0  0  0  0  0
  186.8080  178.8170  145.5230 O   0  0  0  0  0  0  0  0  0  0  0  0
  186.6080  177.7030  136.3230 N   0  0  0  0  0  2  0  0  0  0  0  0
  186.3410  175.3790  134.6820 C   0  0  0  0  0  1  0  0  0  0  0  0
  184.3220  177.0760  135.1370 O   0  0  0  0  0  0  0  0  0  0  0  0
  185.0600  175.6660  137.0130 O   0  0  0  0  0  0  0  0  0  0  0  0
  185.5110  176.4610  135.8200 S   0  0  0  0  0  0  0  0  0  0  0  0
  1  5  1  0  0  0  0
  2 16  1  0  0  0  0
  2 10  1  1  0  0  0
  3 12  1  0  0  0  0
  4 14  1  6  0  0  0
  4 13  1  0  0  0  0
  5 23  1  0  0  0  0
  6  3  1  0  0  0  0
  7 17  1  0  0  0  0
  8 15  2  0  0  0  0
  9  7  1  0  0  0  0
  9 24  2  0  0  0  0
 11  6  1  1  0  0  0
 11 22  1  0  0  0  0
 13  8  1  6  0  0  0
 13  2  1  0  0  0  0
 14 23  2  0  0  0  0
 16 26  1  6  0  0  0
 17  1  2  0  0  0  0
 17 19  1  0  0  0  0
 18  8  1  0  0  0  0
 19 14  1  0  0  0  0
 20 19  2  0  0  0  0
 20 11  1  0  0  0  0
 21 12  1  1  0  0  0
 21 16  1  0  0  0  0
 22  4  1  0  0  0  0
 22 21  1  0  0  0  0
 23 18  1  0  0  0  0
 24 20  1  0  0  0  0
 26 25  1  0  0  0  0
 27  9  1  0  0  0  0
 28 31  1  0  0  0  0
 29 31  2  0  0  0  0
 31 27  1  0  0  0  0
 31 30  2  0  0  0  0
M  END
>  <MODEL>
8

>  <REMARK>
 VINA RESULT:      -8.1      2.926      4.839
  Name = 
  3 active torsions:
  status: ('A' for Active; 'I' for Inactive)
    1  A    between atoms: N_1  and  C_13
    2  A    between atoms: N_1  and  S_24
    3  A    between atoms: C_20  and  O_30
                            x       y       z     vdW  Elec       q    Type
                         _______ _______ _______ _____ _____    ______ ____

>  <TORSDO>
F 3

$$$$
=
 OpenBabel11042412303D

 31 36  0  0  1  0  0  0  0  0999 V2000
  183.6560  178.9910  145.4470 C   0  0  0  0  0  3  0  0  0  0  0  0
  189.6920  178.2370  145.2610 C   0  0  2  0  0  3  0  0  0  0  0  0
  188.6810  178.3180  140.3840 C   0  0  0  0  0  2  0  0  0  0  0  0
  187.4980  177.1970  144.4420 C   0  0  1  0  0  3  0  0  0  0  0  0
  184.7470  178.9180  146.3710 O   0  0  0  0  0  0  0  0  0  0  0  0
  187.4160  177.5020  140.6230 C   0  0  0  0  0  2  0  0  0  0  0  0
  183.1470  179.1360  142.9430 C   0  0  0  0  0  2  0  0  0  0  0  0
  188.0290  177.2810  146.9120 C   0  0  0  0  0  0  0  0  0  0  0  0
  183.3990  178.8720  141.6590 C   0  0  0  0  0  0  0  0  0  0  0  0
  190.7460  178.1660  146.2600 N   0  0  0  0  0  1  0  0  0  0  0  0
  186.9570  177.6800  142.0420 C   0  0  2  0  0  3  0  0  0  0  0  0
  189.7440  177.9670  141.4180 C   0  0  0  0  0  2  0  0  0  0  0  0
  188.6080  177.1870  145.5250 C   0  0  2  0  0  3  0  0  0  0  0  0
  186.2460  177.9480  144.8140 C   0  0  0  0  0  0  0  0  0  0  0  0
  188.6790  176.7590  147.9430 C   0  0  0  0  0  2  0  0  0  0  0  0
  190.2910  177.9960  143.8830 C   0  0  2  0  0  3  0  0  0  0  0  0
  184.0910  178.7970  144.0200 C   0  0  0  0  0  0  0  0  0  0  0  0
  186.8050  177.9150  147.1290 O   0  0  0  0  0  0  0  0  0  0  0  0
  185.2900  178.2650  143.7360 C   0  0  0  0  0  0  0  0  0  0  0  0
  185.6830  178.0120  142.3280 C   0  0  0  0  0  0  0  0  0  0  0  0
  189.2280  178.2770  142.8260 C   0  0  2  0  0  3  0  0  0  0  0  0
  187.9460  177.5990  143.0910 N   0  0  1  0  0  0  0  0  0  0  0  0
  185.9450  178.2530  146.0830 C   0  0  0  0  0  0  0  0  0  0  0  0
  184.6500  178.1360  141.2360 C   0  0  0  0  0  3  0  0  0  0  0  0
  192.0110  176.8100  143.1310 C   0  0  0  0  0  1  0  0  0  0  0  0
  190.7770  176.6840  143.7710 O   0  0  0  0  0  0  0  0  0  0  0  0
  182.4220  179.2480  140.6860 N   0  0  0  0  0  2  0  0  0  0  0  0
  182.8390  178.3430  138.0090 C   0  0  0  0  0  1  0  0  0  0  0  0
  184.1820  180.3980  139.0730 O   0  0  0  0  0  0  0  0  0  0  0  0
  181.7950  180.7380  138.5860 O   0  0  0  0  0  0  0  0  0  0  0  0
  182.8230  179.7590  139.0810 S   0  0  0  0  0  0  0  0  0  0  0  0
  1  5  1  0  0  0  0
  2 13  1  0  0  0  0
  2 10  1  1  0  0  0
  3  6  1  0  0  0  0
  3 12  1  0  0  0  0
  4 14  1  1  0  0  0
  4 13  1  0  0  0  0
  7 17  1  0  0  0  0
  8 18  1  0  0  0  0
  8 15  2  0  0  0  0
  9  7  1  0  0  0  0
 11  6  1  6  0  0  0
 11 20  1  0  0  0  0
 11 22  1  0  0  0  0
 13  8  1  1  0  0  0
 14 23  2  0  0  0  0
 16 26  1  1  0  0  0
 16  2  1  0  0  0  0
 17  1  2  0  0  0  0
 19 17  1  0  0  0  0
 19 14  1  0  0  0  0
 20 19  2  0  0  0  0
 21 12  1  6  0  0  0
 21 22  1  0  0  0  0
 21 16  1  0  0  0  0
 22  4  1  0  0  0  0
 23  5  1  0  0  0  0
 23 18  1  0  0  0  0
 24  9  2  0  0  0  0
 24 20  1  0  0  0  0
 25 26  1  0  0  0  0
 27  9  1  0  0  0  0
 28 31  1  0  0  0  0
 29 31  2  0  0  0  0
 30 31  2  0  0  0  0
 31 27  1  0  0  0  0
M  END
>  <MODEL>
9

>  <REMARK>
 VINA RESULT:      -8.1      3.248      5.969
  Name = 
  3 active torsions:
  status: ('A' for Active; 'I' for Inactive)
    1  A    between atoms: N_1  and  C_13
    2  A    between atoms: N_1  and  S_24
    3  A    between atoms: C_20  and  O_30
                            x       y       z     vdW  Elec       q    Type
                         _______ _______ _______ _____ _____    ______ ____

>  <TORSDO>
F 3

$$$$
