=
 OpenBabel11042410213D

 37 43  0  0  1  0  0  0  0  0999 V2000
  191.0420  177.2500  140.8130 N   0  0  2  0  0  0  0  0  0  0  0  0
  190.1060  176.9490  139.7300 C   0  0  1  0  0  3  0  0  0  0  0  0
  187.1640  177.8880  143.8220 N   0  0  0  0  0  0  0  0  0  0  0  0
  190.6120  176.5290  142.0140 C   0  0  2  0  0  3  0  0  0  0  0  0
  187.9470  178.3970  141.2110 C   0  0  0  0  0  0  0  0  0  0  0  0
  188.8940  177.9790  142.1670 C   0  0  0  0  0  0  0  0  0  0  0  0
  188.2660  178.5870  139.8250 N   0  0  0  0  0  2  0  0  0  0  0  0
  188.4700  177.6970  143.4950 C   0  0  0  0  0  0  0  0  0  0  0  0
  190.3640  177.9670  141.9170 C   0  0  2  0  0  3  0  0  0  0  0  0
  186.2400  178.3250  142.9250 C   0  0  0  0  0  0  0  0  0  0  0  0
  186.6210  178.5710  141.6030 C   0  0  0  0  0  3  0  0  0  0  0  0
  191.4990  176.5260  143.2280 C   0  0  0  0  0  2  0  0  0  0  0  0
  189.5270  178.2650  139.1620 C   0  0  2  0  0  3  0  0  0  0  0  0
  189.3760  177.1590  144.5650 C   0  0  0  0  0  3  0  0  0  0  0  0
  190.6330  176.6580  144.4710 C   0  0  0  0  0  3  0  0  0  0  0  0
  185.0470  179.2250  145.6460 O   0  0  0  0  0  0  0  0  0  0  0  0
  182.9440  178.9840  144.5880 N   0  0  0  0  0  0  0  0  0  0  0  0
  184.3570  178.9380  144.6330 C   0  0  0  0  0  0  0  0  0  0  0  0
  183.8200  178.3190  142.5750 N   0  0  0  0  0  0  0  0  0  0  0  0
  184.8410  178.5140  143.3420 C   0  0  0  0  0  0  0  0  0  0  0  0
  182.6630  178.6180  143.3740 C   0  0  0  0  0  3  0  0  0  0  0  0
  190.7850  176.0720  138.7150 C   0  0  0  0  0  0  0  0  0  0  0  0
  192.1530  176.2310  138.4810 C   0  0  0  0  0  3  0  0  0  0  0  0
  190.7240  174.2750  137.0870 C   0  0  0  0  0  3  0  0  0  0  0  0
  190.0710  175.0880  138.0160 C   0  0  0  0  0  3  0  0  0  0  0  0
  192.8050  175.4170  137.5520 C   0  0  0  0  0  3  0  0  0  0  0  0
  192.0990  174.4300  136.8440 C   0  0  0  0  0  0  0  0  0  0  0  0
  192.1650  172.3620  135.3990 C   0  0  0  0  0  1  0  0  0  0  0  0
  194.0880  173.9410  135.3720 C   0  0  0  0  0  1  0  0  0  0  0  0
  192.7730  173.5910  135.8870 N   0  0  0  0  0  0  0  0  0  0  0  0
  189.2910  178.2460  137.6510 C   0  0  0  0  0  2  0  0  0  0  0  0
  186.0870  176.8010  135.4410 C   0  0  0  0  0  2  0  0  0  0  0  0
  187.8070  178.1900  137.3300 C   0  0  1  0  0  3  0  0  0  0  0  0
  187.5400  178.7410  135.9500 C   0  0  0  0  0  3  0  0  0  0  0  0
  186.7120  178.1280  135.0940 C   0  0  0  0  0  3  0  0  0  0  0  0
  185.9660  176.6410  136.8900 N   0  0  0  0  0  2  0  0  0  0  0  0
  187.3050  176.7510  137.4660 C   0  0  0  0  0  2  0  0  0  0  0  0
  1  9  1  0  0  0  0
  1  4  1  0  0  0  0
  2  1  1  0  0  0  0
  4 12  1  0  0  0  0
  5 11  2  0  0  0  0
  5  6  1  0  0  0  0
  6  8  2  0  0  0  0
  7  5  1  0  0  0  0
  8  3  1  0  0  0  0
  8 14  1  0  0  0  0
  9  4  1  0  0  0  0
  9  6  1  0  0  0  0
 10 20  1  0  0  0  0
 10  3  2  0  0  0  0
 11 10  1  0  0  0  0
 12 15  1  0  0  0  0
 13  2  1  0  0  0  0
 13  7  1  0  0  0  0
 15 14  2  0  0  0  0
 17 18  1  0  0  0  0
 18 16  2  0  0  0  0
 19 20  2  0  0  0  0
 19 21  1  0  0  0  0
 20 18  1  0  0  0  0
 21 17  2  0  0  0  0
 22  2  1  0  0  0  0
 23 22  1  0  0  0  0
 24 25  1  0  0  0  0
 25 22  2  0  0  0  0
 26 23  2  0  0  0  0
 27 24  2  0  0  0  0
 27 26  1  0  0  0  0
 28 30  1  0  0  0  0
 29 30  1  0  0  0  0
 30 27  1  0  0  0  0
 31 13  1  0  0  0  0
 32 36  1  0  0  0  0
 33 37  1  0  0  0  0
 33 31  1  0  0  0  0
 34 33  1  0  0  0  0
 35 32  1  0  0  0  0
 35 34  2  0  0  0  0
 36 37  1  0  0  0  0
M  END
>  <MODEL>
1

>  <REMARK>
 VINA RESULT:      -9.0      0.000      0.000
  Name = 
  5 active torsions:
  status: ('A' for Active; 'I' for Inactive)
    1  A    between atoms: C_4  and  C_13
    2  A    between atoms: C_14  and  C_24
    3  A    between atoms: C_16  and  C_22
    4  A    between atoms: C_16  and  C_29
    5  A    between atoms: N_26  and  C_37
                            x       y       z     vdW  Elec       q    Type
                         _______ _______ _______ _____ _____    ______ ____

>  <TORSDO>
F 5

$$$$
=
 OpenBabel11042410213D

 37 43  0  0  1  0  0  0  0  0999 V2000
  190.9360  177.2660  140.8050 N   0  0  2  0  0  0  0  0  0  0  0  0
  190.0200  176.9800  139.7020 C   0  0  1  0  0  3  0  0  0  0  0  0
  187.0030  177.9040  143.7410 N   0  0  0  0  0  0  0  0  0  0  0  0
  190.4780  176.5380  141.9910 C   0  0  2  0  0  3  0  0  0  0  0  0
  187.8410  178.4300  141.1510 C   0  0  0  0  0  0  0  0  0  0  0  0
  188.7660  177.9980  142.1230 C   0  0  0  0  0  0  0  0  0  0  0  0
  188.1890  178.6290  139.7730 N   0  0  0  0  0  2  0  0  0  0  0  0
  188.3140  177.7080  143.4390 C   0  0  0  0  0  0  0  0  0  0  0  0
  190.2410  177.9790  141.9010 C   0  0  2  0  0  3  0  0  0  0  0  0
  186.0990  178.3540  142.8300 C   0  0  0  0  0  0  0  0  0  0  0  0
  186.5080  178.6090  141.5180 C   0  0  0  0  0  3  0  0  0  0  0  0
  191.3400  176.5200  143.2230 C   0  0  0  0  0  2  0  0  0  0  0  0
  189.4610  178.3040  139.1330 C   0  0  2  0  0  3  0  0  0  0  0  0
  189.1950  177.1560  144.5230 C   0  0  0  0  0  3  0  0  0  0  0  0
  190.4510  176.6470  144.4490 C   0  0  0  0  0  3  0  0  0  0  0  0
  183.4960  178.1890  141.1490 O   0  0  0  0  0  0  0  0  0  0  0  0
  182.3820  178.7180  143.1700 N   0  0  0  0  0  0  0  0  0  0  0  0
  183.5250  178.4560  142.3790 C   0  0  0  0  0  0  0  0  0  0  0  0
  184.3040  178.8410  144.4170 N   0  0  0  0  0  0  0  0  0  0  0  0
  184.6940  178.5490  143.2210 C   0  0  0  0  0  0  0  0  0  0  0  0
  182.8710  178.9380  144.3530 C   0  0  0  0  0  3  0  0  0  0  0  0
  190.7140  176.1060  138.6930 C   0  0  0  0  0  0  0  0  0  0  0  0
  192.0880  176.2550  138.4910 C   0  0  0  0  0  3  0  0  0  0  0  0
  190.6730  174.3270  137.0450 C   0  0  0  0  0  3  0  0  0  0  0  0
  190.0070  175.1370  137.9680 C   0  0  0  0  0  3  0  0  0  0  0  0
  192.7540  175.4450  137.5690 C   0  0  0  0  0  3  0  0  0  0  0  0
  192.0550  174.4710  136.8350 C   0  0  0  0  0  0  0  0  0  0  0  0
  193.8850  174.1320  135.1310 C   0  0  0  0  0  1  0  0  0  0  0  0
  192.3220  172.2640  135.6430 C   0  0  0  0  0  1  0  0  0  0  0  0
  192.7420  173.6360  135.8860 N   0  0  0  0  0  0  0  0  0  0  0  0
  189.2550  178.2990  137.6180 C   0  0  0  0  0  2  0  0  0  0  0  0
  186.0290  176.8650  135.4330 C   0  0  0  0  0  2  0  0  0  0  0  0
  187.7770  178.2930  137.2670 C   0  0  1  0  0  3  0  0  0  0  0  0
  187.5650  178.7630  135.8470 C   0  0  0  0  0  3  0  0  0  0  0  0
  186.7250  178.1340  135.0140 C   0  0  0  0  0  3  0  0  0  0  0  0
  185.8710  176.8070  136.8860 N   0  0  0  0  0  2  0  0  0  0  0  0
  187.2020  176.8920  137.4840 C   0  0  0  0  0  2  0  0  0  0  0  0
  1  9  1  0  0  0  0
  1  4  1  0  0  0  0
  2  1  1  0  0  0  0
  4 12  1  0  0  0  0
  5 11  2  0  0  0  0
  5  6  1  0  0  0  0
  6  8  2  0  0  0  0
  7  5  1  0  0  0  0
  8  3  1  0  0  0  0
  8 14  1  0  0  0  0
  9  4  1  0  0  0  0
  9  6  1  0  0  0  0
 10 20  1  0  0  0  0
 10  3  2  0  0  0  0
 11 10  1  0  0  0  0
 12 15  1  0  0  0  0
 13  2  1  0  0  0  0
 13  7  1  0  0  0  0
 15 14  2  0  0  0  0
 16 18  2  0  0  0  0
 17 21  2  0  0  0  0
 18 17  1  0  0  0  0
 18 20  1  0  0  0  0
 20 19  2  0  0  0  0
 21 19  1  0  0  0  0
 22  2  1  0  0  0  0
 23 22  1  0  0  0  0
 24 25  1  0  0  0  0
 25 22  2  0  0  0  0
 26 23  2  0  0  0  0
 27 24  2  0  0  0  0
 27 26  1  0  0  0  0
 28 30  1  0  0  0  0
 29 30  1  0  0  0  0
 30 27  1  0  0  0  0
 31 13  1  0  0  0  0
 32 36  1  0  0  0  0
 33 37  1  0  0  0  0
 33 31  1  0  0  0  0
 34 33  1  0  0  0  0
 35 32  1  0  0  0  0
 35 34  2  0  0  0  0
 36 37  1  0  0  0  0
M  END
>  <MODEL>
2

>  <REMARK>
 VINA RESULT:      -8.7      0.934      1.160
  Name = 
  5 active torsions:
  status: ('A' for Active; 'I' for Inactive)
    1  A    between atoms: C_4  and  C_13
    2  A    between atoms: C_14  and  C_24
    3  A    between atoms: C_16  and  C_22
    4  A    between atoms: C_16  and  C_29
    5  A    between atoms: N_26  and  C_37
                            x       y       z     vdW  Elec       q    Type
                         _______ _______ _______ _____ _____    ______ ____

>  <TORSDO>
F 5

$$$$
=
 OpenBabel11042410213D

 37 43  0  0  1  0  0  0  0  0999 V2000
  186.1090  178.9950  143.3530 N   0  0  2  0  0  0  0  0  0  0  0  0
  186.8100  178.1230  142.4110 C   0  0  1  0  0  3  0  0  0  0  0  0
  181.9280  178.1330  140.8450 N   0  0  0  0  0  0  0  0  0  0  0  0
  184.8550  178.3440  143.7440 C   0  0  2  0  0  3  0  0  0  0  0  0
  184.6330  178.5590  140.4060 C   0  0  0  0  0  0  0  0  0  0  0  0
  184.0750  178.7960  141.6770 C   0  0  0  0  0  0  0  0  0  0  0  0
  186.0380  178.6700  140.1340 N   0  0  0  0  0  2  0  0  0  0  0  0
  182.6920  178.5460  141.8920 C   0  0  0  0  0  0  0  0  0  0  0  0
  184.8180  179.4540  142.7910 C   0  0  2  0  0  3  0  0  0  0  0  0
  182.4380  177.9330  139.6010 C   0  0  0  0  0  0  0  0  0  0  0  0
  183.8020  178.1310  139.3710 C   0  0  0  0  0  3  0  0  0  0  0  0
  184.0210  178.9490  144.8400 C   0  0  0  0  0  2  0  0  0  0  0  0
  187.1040  178.8980  141.1060 C   0  0  2  0  0  3  0  0  0  0  0  0
  182.0160  178.6760  143.2270 C   0  0  0  0  0  3  0  0  0  0  0  0
  182.5530  178.8330  144.4630 C   0  0  0  0  0  3  0  0  0  0  0  0
  181.0150  175.2140  139.1350 O   0  0  0  0  0  0  0  0  0  0  0  0
  180.1720  176.2090  137.1600 N   0  0  0  0  0  0  0  0  0  0  0  0
  180.9270  176.1990  138.3560 C   0  0  0  0  0  0  0  0  0  0  0  0
  181.2220  178.2210  137.4990 N   0  0  0  0  0  0  0  0  0  0  0  0
  181.5580  177.4870  138.5070 C   0  0  0  0  0  0  0  0  0  0  0  0
  180.3650  177.4030  136.6850 C   0  0  0  0  0  3  0  0  0  0  0  0
  188.0220  177.5390  143.0820 C   0  0  0  0  0  0  0  0  0  0  0  0
  188.5290  178.1520  144.2310 C   0  0  0  0  0  3  0  0  0  0  0  0
  189.7560  175.8490  143.2300 C   0  0  0  0  0  3  0  0  0  0  0  0
  188.6390  176.3830  142.5830 C   0  0  0  0  0  3  0  0  0  0  0  0
  189.6460  177.6180  144.8760 C   0  0  0  0  0  3  0  0  0  0  0  0
  190.2730  176.4600  144.3840 C   0  0  0  0  0  0  0  0  0  0  0  0
  191.8600  176.4160  146.3450 C   0  0  0  0  0  1  0  0  0  0  0  0
  192.1950  174.8280  144.4580 C   0  0  0  0  0  1  0  0  0  0  0  0
  191.4240  175.9110  145.0510 N   0  0  0  0  0  0  0  0  0  0  0  0
  188.4410  178.5420  140.4530 C   0  0  0  0  0  2  0  0  0  0  0  0
  189.8860  177.0950  136.8400 C   0  0  0  0  0  2  0  0  0  0  0  0
  188.2310  177.9050  139.0900 C   0  0  1  0  0  3  0  0  0  0  0  0
  188.5980  178.8720  137.9890 C   0  0  0  0  0  3  0  0  0  0  0  0
  189.3210  178.4900  136.9280 C   0  0  0  0  0  3  0  0  0  0  0  0
  189.0760  176.1510  137.6090 N   0  0  0  0  0  2  0  0  0  0  0  0
  189.0450  176.6130  138.9950 C   0  0  0  0  0  2  0  0  0  0  0  0
  1  4  1  0  0  0  0
  2 22  1  0  0  0  0
  2  1  1  0  0  0  0
  3  8  1  0  0  0  0
  4 12  1  0  0  0  0
  5  6  1  0  0  0  0
  6  8  2  0  0  0  0
  6  9  1  0  0  0  0
  7  5  1  0  0  0  0
  7 13  1  0  0  0  0
  8 14  1  0  0  0  0
  9  1  1  0  0  0  0
  9  4  1  0  0  0  0
 10  3  2  0  0  0  0
 11 10  1  0  0  0  0
 11  5  2  0  0  0  0
 13  2  1  0  0  0  0
 14 15  2  0  0  0  0
 15 12  1  0  0  0  0
 17 18  1  0  0  0  0
 18 20  1  0  0  0  0
 18 16  2  0  0  0  0
 19 20  2  0  0  0  0
 20 10  1  0  0  0  0
 21 17  2  0  0  0  0
 21 19  1  0  0  0  0
 22 23  1  0  0  0  0
 23 26  2  0  0  0  0
 24 27  2  0  0  0  0
 25 22  2  0  0  0  0
 25 24  1  0  0  0  0
 27 26  1  0  0  0  0
 27 30  1  0  0  0  0
 29 30  1  0  0  0  0
 30 28  1  0  0  0  0
 31 13  1  0  0  0  0
 32 35  1  0  0  0  0
 32 36  1  0  0  0  0
 33 31  1  0  0  0  0
 34 33  1  0  0  0  0
 35 34  2  0  0  0  0
 36 37  1  0  0  0  0
 37 33  1  0  0  0  0
M  END
>  <MODEL>
3

>  <REMARK>
 VINA RESULT:      -8.5      3.040      6.274
  Name = 
  5 active torsions:
  status: ('A' for Active; 'I' for Inactive)
    1  A    between atoms: C_4  and  C_13
    2  A    between atoms: C_14  and  C_24
    3  A    between atoms: C_16  and  C_22
    4  A    between atoms: C_16  and  C_29
    5  A    between atoms: N_26  and  C_37
                            x       y       z     vdW  Elec       q    Type
                         _______ _______ _______ _____ _____    ______ ____

>  <TORSDO>
F 5

$$$$
=
 OpenBabel11042410213D

 37 43  0  0  1  0  0  0  0  0999 V2000
  187.5190  178.6280  139.2850 N   0  0  2  0  0  0  0  0  0  0  0  0
  188.0210  177.9880  140.5010 C   0  0  1  0  0  3  0  0  0  0  0  0
  190.3120  175.5110  136.6410 N   0  0  0  0  0  0  0  0  0  0  0  0
  187.1660  177.5830  138.3210 C   0  0  2  0  0  3  0  0  0  0  0  0
  190.3990  176.9950  138.9820 C   0  0  0  0  0  0  0  0  0  0  0  0
  189.3720  177.2110  138.0420 C   0  0  0  0  0  0  0  0  0  0  0  0
  190.4520  177.6600  140.2530 N   0  0  0  0  0  2  0  0  0  0  0  0
  189.3270  176.4230  136.8600 C   0  0  0  0  0  0  0  0  0  0  0  0
  188.4020  178.3410  138.1320 C   0  0  2  0  0  3  0  0  0  0  0  0
  191.3330  175.3100  137.5160 C   0  0  0  0  0  0  0  0  0  0  0  0
  191.3790  176.0430  138.7060 C   0  0  0  0  0  3  0  0  0  0  0  0
  186.4610  177.9630  137.0480 C   0  0  0  0  0  2  0  0  0  0  0  0
  189.4300  178.5300  140.8310 C   0  0  2  0  0  3  0  0  0  0  0  0
  188.2280  176.5070  135.8400 C   0  0  0  0  0  3  0  0  0  0  0  0
  187.0260  177.1330  135.9050 C   0  0  0  0  0  3  0  0  0  0  0  0
  194.3500  175.2530  138.2440 O   0  0  0  0  0  0  0  0  0  0  0  0
  194.3920  173.1800  137.1020 N   0  0  0  0  0  0  0  0  0  0  0  0
  193.7640  174.3490  137.5930 C   0  0  0  0  0  0  0  0  0  0  0  0
  192.1630  173.2180  136.5610 N   0  0  0  0  0  0  0  0  0  0  0  0
  192.3710  174.3090  137.2200 C   0  0  0  0  0  0  0  0  0  0  0  0
  193.4300  172.5430  136.5050 C   0  0  0  0  0  3  0  0  0  0  0  0
  187.0110  178.1520  141.6020 C   0  0  0  0  0  0  0  0  0  0  0  0
  185.9190  179.0030  141.4070 C   0  0  0  0  0  3  0  0  0  0  0  0
  186.1810  177.6110  143.8170 C   0  0  0  0  0  3  0  0  0  0  0  0
  187.1380  177.4540  142.8110 C   0  0  0  0  0  3  0  0  0  0  0  0
  184.9630  179.1590  142.4130 C   0  0  0  0  0  3  0  0  0  0  0  0
  185.0820  178.4660  143.6290 C   0  0  0  0  0  0  0  0  0  0  0  0
  184.4690  178.6280  146.0710 C   0  0  0  0  0  1  0  0  0  0  0  0
  182.6860  178.7980  144.3430 C   0  0  0  0  0  1  0  0  0  0  0  0
  184.0950  178.6280  144.6640 N   0  0  0  0  0  0  0  0  0  0  0  0
  189.7100  178.6810  142.3260 C   0  0  0  0  0  2  0  0  0  0  0  0
  191.5220  176.0490  144.9780 C   0  0  0  0  0  2  0  0  0  0  0  0
  190.8790  177.8100  142.7540 C   0  0  1  0  0  3  0  0  0  0  0  0
  191.4970  178.3360  144.0280 C   0  0  0  0  0  3  0  0  0  0  0  0
  191.8370  177.5220  145.0360 C   0  0  0  0  0  3  0  0  0  0  0  0
  191.4450  175.5830  143.5930 N   0  0  0  0  0  2  0  0  0  0  0  0
  190.4110  176.3620  142.9160 C   0  0  0  0  0  2  0  0  0  0  0  0
  1  2  1  0  0  0  0
  2 13  1  0  0  0  0
  2 22  1  0  0  0  0
  3  8  2  0  0  0  0
  3 10  1  0  0  0  0
  4  1  1  0  0  0  0
  5  7  1  0  0  0  0
  6  9  1  0  0  0  0
  6  5  2  0  0  0  0
  7 13  1  0  0  0  0
  8  6  1  0  0  0  0
  9  4  1  0  0  0  0
  9  1  1  0  0  0  0
 10 11  2  0  0  0  0
 11  5  1  0  0  0  0
 12  4  1  0  0  0  0
 13 31  1  0  0  0  0
 14 15  2  0  0  0  0
 14  8  1  0  0  0  0
 15 12  1  0  0  0  0
 17 18  1  0  0  0  0
 18 16  2  0  0  0  0
 19 20  2  0  0  0  0
 20 10  1  0  0  0  0
 20 18  1  0  0  0  0
 21 19  1  0  0  0  0
 21 17  2  0  0  0  0
 22 25  1  0  0  0  0
 23 22  2  0  0  0  0
 23 26  1  0  0  0  0
 25 24  2  0  0  0  0
 26 27  2  0  0  0  0
 27 24  1  0  0  0  0
 27 30  1  0  0  0  0
 29 30  1  0  0  0  0
 30 28  1  0  0  0  0
 31 33  1  0  0  0  0
 32 35  1  0  0  0  0
 33 37  1  0  0  0  0
 33 34  1  0  0  0  0
 34 35  2  0  0  0  0
 36 32  1  0  0  0  0
 37 36  1  0  0  0  0
M  END
>  <MODEL>
4

>  <REMARK>
 VINA RESULT:      -8.1      2.500      9.107
  Name = 
  5 active torsions:
  status: ('A' for Active; 'I' for Inactive)
    1  A    between atoms: C_4  and  C_13
    2  A    between atoms: C_14  and  C_24
    3  A    between atoms: C_16  and  C_22
    4  A    between atoms: C_16  and  C_29
    5  A    between atoms: N_26  and  C_37
                            x       y       z     vdW  Elec       q    Type
                         _______ _______ _______ _____ _____    ______ ____

>  <TORSDO>
F 5

$$$$
=
 OpenBabel11042410213D

 37 43  0  0  1  0  0  0  0  0999 V2000
  184.1000  179.2350  143.1060 N   0  0  2  0  0  0  0  0  0  0  0  0
  185.2510  178.4170  142.7260 C   0  0  1  0  0  3  0  0  0  0  0  0
  181.6200  177.3010  139.2840 N   0  0  0  0  0  0  0  0  0  0  0  0
  182.8970  178.4020  143.0470 C   0  0  2  0  0  3  0  0  0  0  0  0
  184.1600  178.1930  139.9500 C   0  0  0  0  0  0  0  0  0  0  0  0
  183.0690  178.4580  140.8010 C   0  0  0  0  0  0  0  0  0  0  0  0
  185.5120  178.5430  140.2780 N   0  0  0  0  0  2  0  0  0  0  0  0
  181.7780  177.9700  140.4570 C   0  0  0  0  0  0  0  0  0  0  0  0
  183.1490  179.3690  141.9790 C   0  0  2  0  0  3  0  0  0  0  0  0
  182.6510  177.0650  138.4290 C   0  0  0  0  0  0  0  0  0  0  0  0
  183.9380  177.4980  138.7620 C   0  0  0  0  0  3  0  0  0  0  0  0
  181.5940  178.9530  143.5580 C   0  0  0  0  0  2  0  0  0  0  0  0
  185.9960  179.0820  141.5460 C   0  0  2  0  0  3  0  0  0  0  0  0
  180.5680  178.1160  141.3350 C   0  0  0  0  0  3  0  0  0  0  0  0
  180.4740  178.5120  142.6290 C   0  0  0  0  0  3  0  0  0  0  0  0
  183.4210  174.1770  137.5930 O   0  0  0  0  0  0  0  0  0  0  0  0
  182.3730  174.6960  135.5360 N   0  0  0  0  0  0  0  0  0  0  0  0
  182.8030  174.9850  136.8520 C   0  0  0  0  0  0  0  0  0  0  0  0
  181.8020  176.8320  136.1480 N   0  0  0  0  0  0  0  0  0  0  0  0
  182.4140  176.3370  137.1720 C   0  0  0  0  0  0  0  0  0  0  0  0
  181.7920  175.7940  135.1540 C   0  0  0  0  0  3  0  0  0  0  0  0
  186.1000  178.1590  143.9400 C   0  0  0  0  0  0  0  0  0  0  0  0
  185.8150  178.8350  145.1290 C   0  0  0  0  0  3  0  0  0  0  0  0
  187.9270  177.0060  145.0440 C   0  0  0  0  0  3  0  0  0  0  0  0
  187.1590  177.2400  143.9000 C   0  0  0  0  0  3  0  0  0  0  0  0
  186.5840  178.6000  146.2710 C   0  0  0  0  0  3  0  0  0  0  0  0
  187.6480  177.6820  146.2420 C   0  0  0  0  0  0  0  0  0  0  0  0
  189.7190  176.7530  147.3440 C   0  0  0  0  0  1  0  0  0  0  0  0
  187.9870  177.8750  148.7350 C   0  0  0  0  0  1  0  0  0  0  0  0
  188.4390  177.4410  147.4210 N   0  0  0  0  0  0  0  0  0  0  0  0
  187.5160  178.9220  141.5940 C   0  0  0  0  0  2  0  0  0  0  0  0
  190.4650  177.3390  139.1370 C   0  0  0  0  0  2  0  0  0  0  0  0
  187.9940  177.9220  140.5540 C   0  0  1  0  0  3  0  0  0  0  0  0
  188.3530  178.6250  139.2660 C   0  0  0  0  0  3  0  0  0  0  0  0
  189.4680  178.3260  138.5870 C   0  0  0  0  0  3  0  0  0  0  0  0
  189.8170  176.3780  140.0290 N   0  0  0  0  0  2  0  0  0  0  0  0
  189.1790  177.1290  141.1080 C   0  0  0  0  0  2  0  0  0  0  0  0
  2  1  1  0  0  0  0
  2 22  1  0  0  0  0
  3  8  1  0  0  0  0
  4  1  1  0  0  0  0
  4 12  1  0  0  0  0
  5  7  1  0  0  0  0
  5  6  1  0  0  0  0
  6  9  1  0  0  0  0
  7 13  1  0  0  0  0
  8  6  2  0  0  0  0
  8 14  1  0  0  0  0
  9  4  1  0  0  0  0
  9  1  1  0  0  0  0
 10 11  1  0  0  0  0
 10  3  2  0  0  0  0
 11  5  2  0  0  0  0
 13 31  1  0  0  0  0
 13  2  1  0  0  0  0
 14 15  2  0  0  0  0
 15 12  1  0  0  0  0
 17 18  1  0  0  0  0
 18 20  1  0  0  0  0
 18 16  2  0  0  0  0
 19 20  2  0  0  0  0
 20 10  1  0  0  0  0
 21 17  2  0  0  0  0
 21 19  1  0  0  0  0
 22 23  1  0  0  0  0
 23 26  2  0  0  0  0
 24 27  2  0  0  0  0
 25 22  2  0  0  0  0
 25 24  1  0  0  0  0
 27 26  1  0  0  0  0
 27 30  1  0  0  0  0
 28 30  1  0  0  0  0
 30 29  1  0  0  0  0
 32 36  1  0  0  0  0
 33 37  1  0  0  0  0
 33 31  1  0  0  0  0
 34 33  1  0  0  0  0
 35 32  1  0  0  0  0
 35 34  2  0  0  0  0
 36 37  1  0  0  0  0
M  END
>  <MODEL>
5

>  <REMARK>
 VINA RESULT:      -7.9      3.289      8.071
  Name = 
  5 active torsions:
  status: ('A' for Active; 'I' for Inactive)
    1  A    between atoms: C_4  and  C_13
    2  A    between atoms: C_14  and  C_24
    3  A    between atoms: C_16  and  C_22
    4  A    between atoms: C_16  and  C_29
    5  A    between atoms: N_26  and  C_37
                            x       y       z     vdW  Elec       q    Type
                         _______ _______ _______ _____ _____    ______ ____

>  <TORSDO>
F 5

$$$$
=
 OpenBabel11042410213D

 37 43  0  0  1  0  0  0  0  0999 V2000
  180.4840  179.0400  140.3940 N   0  0  2  0  0  0  0  0  0  0  0  0
  181.6660  179.7080  139.8510 C   0  0  1  0  0  3  0  0  0  0  0  0
  182.8540  178.6370  144.7210 N   0  0  0  0  0  0  0  0  0  0  0  0
  180.1990  179.6020  141.7170 C   0  0  2  0  0  3  0  0  0  0  0  0
  183.3400  178.4650  141.9960 C   0  0  0  0  0  0  0  0  0  0  0  0
  182.0180  178.5110  142.4810 C   0  0  0  0  0  0  0  0  0  0  0  0
  183.6630  178.4700  140.5980 N   0  0  0  0  0  2  0  0  0  0  0  0
  181.7870  178.6260  143.8790 C   0  0  0  0  0  0  0  0  0  0  0  0
  180.8200  178.2820  141.6210 C   0  0  2  0  0  3  0  0  0  0  0  0
  184.1380  178.5570  144.2800 C   0  0  0  0  0  0  0  0  0  0  0  0
  184.3950  178.4850  142.9080 C   0  0  0  0  0  3  0  0  0  0  0  0
  178.9310  179.2130  142.4250 C   0  0  0  0  0  2  0  0  0  0  0  0
  182.7360  178.6540  139.4840 C   0  0  2  0  0  3  0  0  0  0  0  0
  180.4250  178.7750  144.4920 C   0  0  0  0  0  3  0  0  0  0  0  0
  179.2280  179.0300  143.9050 C   0  0  0  0  0  3  0  0  0  0  0  0
  187.0020  177.3800  144.0740 O   0  0  0  0  0  0  0  0  0  0  0  0
  187.3120  178.2500  146.2540 N   0  0  0  0  0  0  0  0  0  0  0  0
  186.5650  178.0000  145.0780 C   0  0  0  0  0  0  0  0  0  0  0  0
  185.1960  179.1210  146.4110 N   0  0  0  0  0  0  0  0  0  0  0  0
  185.2510  178.5720  145.2440 C   0  0  0  0  0  0  0  0  0  0  0  0
  186.4840  178.9060  147.0100 C   0  0  0  0  0  3  0  0  0  0  0  0
  181.2540  180.6050  138.7170 C   0  0  0  0  0  0  0  0  0  0  0  0
  181.6820  181.9350  138.7080 C   0  0  0  0  0  3  0  0  0  0  0  0
  180.1020  180.9710  136.6140 C   0  0  0  0  0  3  0  0  0  0  0  0
  180.4630  180.1240  137.6650 C   0  0  0  0  0  3  0  0  0  0  0  0
  181.3210  182.7820  137.6570 C   0  0  0  0  0  3  0  0  0  0  0  0
  180.5270  182.3100  136.5980 C   0  0  0  0  0  0  0  0  0  0  0  0
  179.0800  182.8350  134.5980 C   0  0  0  0  0  1  0  0  0  0  0  0
  180.8440  184.4470  135.2960 C   0  0  0  0  0  1  0  0  0  0  0  0
  180.1570  183.1830  135.5150 N   0  0  0  0  0  0  0  0  0  0  0  0
  183.5450  178.9920  138.2310 C   0  0  0  0  0  2  0  0  0  0  0  0
  186.6020  177.3790  135.9300 C   0  0  0  0  0  2  0  0  0  0  0  0
  184.4710  177.8480  137.8530 C   0  0  1  0  0  3  0  0  0  0  0  0
  184.1800  177.3700  136.4500 C   0  0  0  0  0  3  0  0  0  0  0  0
  185.1610  177.1080  135.5770 C   0  0  0  0  0  3  0  0  0  0  0  0
  186.8090  177.3110  137.3770 N   0  0  0  0  0  2  0  0  0  0  0  0
  185.9270  178.2940  138.0020 C   0  0  0  0  0  2  0  0  0  0  0  0
  1  9  1  0  0  0  0
  1  4  1  0  0  0  0
  2  1  1  0  0  0  0
  4 12  1  0  0  0  0
  5  6  2  0  0  0  0
  5 11  1  0  0  0  0
  6  8  1  0  0  0  0
  7  5  1  0  0  0  0
  8 14  1  0  0  0  0
  8  3  2  0  0  0  0
  9  4  1  0  0  0  0
  9  6  1  0  0  0  0
 10  3  1  0  0  0  0
 10 20  1  0  0  0  0
 11 10  2  0  0  0  0
 12 15  1  0  0  0  0
 13  2  1  0  0  0  0
 13  7  1  0  0  0  0
 15 14  2  0  0  0  0
 16 18  2  0  0  0  0
 17 21  2  0  0  0  0
 18 20  1  0  0  0  0
 18 17  1  0  0  0  0
 19 21  1  0  0  0  0
 20 19  2  0  0  0  0
 22  2  1  0  0  0  0
 23 22  1  0  0  0  0
 24 25  1  0  0  0  0
 25 22  2  0  0  0  0
 26 23  2  0  0  0  0
 27 24  2  0  0  0  0
 27 26  1  0  0  0  0
 28 30  1  0  0  0  0
 29 30  1  0  0  0  0
 30 27  1  0  0  0  0
 31 13  1  0  0  0  0
 32 36  1  0  0  0  0
 33 37  1  0  0  0  0
 33 31  1  0  0  0  0
 34 33  1  0  0  0  0
 35 32  1  0  0  0  0
 35 34  2  0  0  0  0
 36 37  1  0  0  0  0
M  END
>  <MODEL>
6

>  <REMARK>
 VINA RESULT:      -7.9      4.303      8.838
  Name = 
  5 active torsions:
  status: ('A' for Active; 'I' for Inactive)
    1  A    between atoms: C_4  and  C_13
    2  A    between atoms: C_14  and  C_24
    3  A    between atoms: C_16  and  C_22
    4  A    between atoms: C_16  and  C_29
    5  A    between atoms: N_26  and  C_37
                            x       y       z     vdW  Elec       q    Type
                         _______ _______ _______ _____ _____    ______ ____

>  <TORSDO>
F 5

$$$$
=
 OpenBabel11042410213D

 37 43  0  0  1  0  0  0  0  0999 V2000
  186.2090  177.7910  136.9010 N   0  0  2  0  0  0  0  0  0  0  0  0
  185.3090  177.3940  137.9830 C   0  0  1  0  0  3  0  0  0  0  0  0
  189.9780  177.4930  140.0970 N   0  0  0  0  0  0  0  0  0  0  0  0
  187.3900  176.9240  136.9370 C   0  0  2  0  0  3  0  0  0  0  0  0
  187.3310  178.3130  139.9870 C   0  0  0  0  0  0  0  0  0  0  0  0
  188.0320  178.0160  138.8020 C   0  0  0  0  0  0  0  0  0  0  0  0
  185.9360  178.6520  140.0090 N   0  0  0  0  0  2  0  0  0  0  0  0
  189.3800  177.5710  138.8780 C   0  0  0  0  0  0  0  0  0  0  0  0
  187.4950  178.2940  137.4380 C   0  0  2  0  0  3  0  0  0  0  0  0
  189.3330  177.8100  141.2520 C   0  0  0  0  0  0  0  0  0  0  0  0
  187.9940  178.2100  141.2090 C   0  0  0  0  0  3  0  0  0  0  0  0
  188.3980  177.0050  135.8240 C   0  0  0  0  0  2  0  0  0  0  0  0
  185.0070  178.6150  138.8830 C   0  0  2  0  0  3  0  0  0  0  0  0
  190.1880  177.1410  137.6880 C   0  0  0  0  0  3  0  0  0  0  0  0
  189.7940  176.8900  136.4130 C   0  0  0  0  0  3  0  0  0  0  0  0
  190.2220  175.3180  142.8740 O   0  0  0  0  0  0  0  0  0  0  0  0
  191.0740  176.8760  144.4390 N   0  0  0  0  0  0  0  0  0  0  0  0
  190.4210  176.5060  143.2410 C   0  0  0  0  0  0  0  0  0  0  0  0
  190.4180  178.7210  143.2440 N   0  0  0  0  0  0  0  0  0  0  0  0
  190.0360  177.7080  142.5410 C   0  0  0  0  0  0  0  0  0  0  0  0
  191.0560  178.1750  144.4100 C   0  0  0  0  0  3  0  0  0  0  0  0
  184.0940  176.7280  137.4000 C   0  0  0  0  0  0  0  0  0  0  0  0
  183.6550  177.1020  136.1270 C   0  0  0  0  0  3  0  0  0  0  0  0
  182.2880  175.1140  137.5370 C   0  0  0  0  0  3  0  0  0  0  0  0
  183.4070  175.7290  138.1040 C   0  0  0  0  0  3  0  0  0  0  0  0
  182.5360  176.4860  135.5610 C   0  0  0  0  0  3  0  0  0  0  0  0
  181.8400  175.4850  136.2590 C   0  0  0  0  0  0  0  0  0  0  0  0
  179.9440  175.4830  134.5940 C   0  0  0  0  0  1  0  0  0  0  0  0
  180.2210  173.5540  136.1410 C   0  0  0  0  0  1  0  0  0  0  0  0
  180.6870  174.8510  135.6740 N   0  0  0  0  0  0  0  0  0  0  0  0
  183.5790  178.6530  139.4290 C   0  0  0  0  0  2  0  0  0  0  0  0
  180.3120  181.1380  138.8080 C   0  0  0  0  0  2  0  0  0  0  0  0
  182.6660  179.4550  138.5180 C   0  0  1  0  0  3  0  0  0  0  0  0
  181.2720  178.8740  138.5160 C   0  0  0  0  0  3  0  0  0  0  0  0
  180.1840  179.6500  138.6030 C   0  0  0  0  0  3  0  0  0  0  0  0
  181.5810  181.6350  138.2770 N   0  0  0  0  0  2  0  0  0  0  0  0
  182.6600  180.9210  138.9560 C   0  0  0  0  0  2  0  0  0  0  0  0
  1  4  1  0  0  0  0
  1  9  1  0  0  0  0
  1  2  1  0  0  0  0
  2 13  1  0  0  0  0
  3 10  1  0  0  0  0
  4  9  1  0  0  0  0
  5  7  1  0  0  0  0
  5 11  1  0  0  0  0
  6  8  1  0  0  0  0
  6  5  2  0  0  0  0
  8  3  2  0  0  0  0
  9  6  1  0  0  0  0
 10 20  1  0  0  0  0
 11 10  2  0  0  0  0
 12 15  1  0  0  0  0
 12  4  1  0  0  0  0
 13 31  1  0  0  0  0
 13  7  1  0  0  0  0
 14  8  1  0  0  0  0
 15 14  2  0  0  0  0
 16 18  2  0  0  0  0
 18 17  1  0  0  0  0
 19 21  1  0  0  0  0
 20 18  1  0  0  0  0
 20 19  2  0  0  0  0
 21 17  2  0  0  0  0
 22  2  1  0  0  0  0
 22 25  1  0  0  0  0
 23 22  2  0  0  0  0
 24 25  2  0  0  0  0
 26 23  1  0  0  0  0
 26 27  2  0  0  0  0
 27 24  1  0  0  0  0
 28 30  1  0  0  0  0
 30 29  1  0  0  0  0
 30 27  1  0  0  0  0
 33 37  1  0  0  0  0
 33 31  1  0  0  0  0
 34 33  1  0  0  0  0
 34 35  2  0  0  0  0
 35 32  1  0  0  0  0
 36 32  1  0  0  0  0
 36 37  1  0  0  0  0
M  END
>  <MODEL>
7

>  <REMARK>
 VINA RESULT:      -7.5      3.688      7.344
  Name = 
  5 active torsions:
  status: ('A' for Active; 'I' for Inactive)
    1  A    between atoms: C_4  and  C_13
    2  A    between atoms: C_14  and  C_24
    3  A    between atoms: C_16  and  C_22
    4  A    between atoms: C_16  and  C_29
    5  A    between atoms: N_26  and  C_37
                            x       y       z     vdW  Elec       q    Type
                         _______ _______ _______ _____ _____    ______ ____

>  <TORSDO>
F 5

$$$$
=
 OpenBabel11042410213D

 37 43  0  0  1  0  0  0  0  0999 V2000
  184.9040  178.3890  138.3560 N   0  0  2  0  0  0  0  0  0  0  0  0
  183.8980  177.6340  139.1020 C   0  0  1  0  0  3  0  0  0  0  0  0
  187.8460  178.1540  142.3310 N   0  0  0  0  0  0  0  0  0  0  0  0
  186.2100  177.7580  138.5660 C   0  0  2  0  0  3  0  0  0  0  0  0
  185.1740  178.4920  141.6680 C   0  0  0  0  0  0  0  0  0  0  0  0
  186.1670  178.5620  140.6710 C   0  0  0  0  0  0  0  0  0  0  0  0
  183.7700  178.5640  141.3810 N   0  0  0  0  0  2  0  0  0  0  0  0
  187.5290  178.3600  141.0240 C   0  0  0  0  0  0  0  0  0  0  0  0
  185.8960  179.0000  139.2710 C   0  0  2  0  0  3  0  0  0  0  0  0
  186.9080  178.1190  143.3150 C   0  0  0  0  0  0  0  0  0  0  0  0
  185.5570  178.2730  142.9900 C   0  0  0  0  0  3  0  0  0  0  0  0
  187.3950  178.2340  137.7710 C   0  0  0  0  0  2  0  0  0  0  0  0
  183.1430  178.5810  140.0620 C   0  0  2  0  0  3  0  0  0  0  0  0
  188.6540  178.3220  140.0300 C   0  0  0  0  0  3  0  0  0  0  0  0
  188.6170  178.2580  138.6750 C   0  0  0  0  0  3  0  0  0  0  0  0
  185.3450  178.5310  145.9640 O   0  0  0  0  0  0  0  0  0  0  0  0
  187.3160  177.7640  147.0260 N   0  0  0  0  0  0  0  0  0  0  0  0
  186.5290  178.1090  145.9030 C   0  0  0  0  0  0  0  0  0  0  0  0
  188.4760  177.4580  145.0710 N   0  0  0  0  0  0  0  0  0  0  0  0
  187.3150  177.8950  144.7120 C   0  0  0  0  0  0  0  0  0  0  0  0
  188.4450  177.3870  146.5060 C   0  0  0  0  0  3  0  0  0  0  0  0
  183.0200  176.8880  138.1360 C   0  0  0  0  0  0  0  0  0  0  0  0
  182.4720  175.6610  138.5190 C   0  0  0  0  0  3  0  0  0  0  0  0
  181.8990  176.7080  135.9920 C   0  0  0  0  0  3  0  0  0  0  0  0
  182.7290  177.4120  136.8690 C   0  0  0  0  0  3  0  0  0  0  0  0
  181.6430  174.9580  137.6420 C   0  0  0  0  0  3  0  0  0  0  0  0
  181.3460  175.4730  136.3690 C   0  0  0  0  0  0  0  0  0  0  0  0
  179.5540  175.4400  134.5940 C   0  0  0  0  0  1  0  0  0  0  0  0
  180.5300  173.2950  135.3930 C   0  0  0  0  0  1  0  0  0  0  0  0
  180.4910  174.7480  135.4670 N   0  0  0  0  0  0  0  0  0  0  0  0
  181.6580  178.2560  140.2250 C   0  0  0  0  0  2  0  0  0  0  0  0
  180.1790  180.2220  136.8810 C   0  0  0  0  0  2  0  0  0  0  0  0
  180.7900  179.3210  139.5780 C   0  0  1  0  0  3  0  0  0  0  0  0
  181.6450  180.3480  138.8740 C   0  0  0  0  0  3  0  0  0  0  0  0
  181.3400  180.8000  137.6500 C   0  0  0  0  0  3  0  0  0  0  0  0
  179.1640  179.6860  137.7870 N   0  0  0  0  0  2  0  0  0  0  0  0
  179.7990  178.6630  138.6160 C   0  0  0  0  0  2  0  0  0  0  0  0
  1  4  1  0  0  0  0
  1  2  1  0  0  0  0
  1  9  1  0  0  0  0
  2 13  1  0  0  0  0
  3 10  1  0  0  0  0
  4  9  1  0  0  0  0
  5 11  1  0  0  0  0
  6  8  1  0  0  0  0
  6  5  2  0  0  0  0
  7  5  1  0  0  0  0
  8  3  2  0  0  0  0
  9  6  1  0  0  0  0
 10 20  1  0  0  0  0
 11 10  2  0  0  0  0
 12  4  1  0  0  0  0
 12 15  1  0  0  0  0
 13 31  1  0  0  0  0
 13  7  1  0  0  0  0
 14  8  1  0  0  0  0
 15 14  2  0  0  0  0
 18 16  2  0  0  0  0
 18 17  1  0  0  0  0
 19 21  1  0  0  0  0
 20 19  2  0  0  0  0
 20 18  1  0  0  0  0
 21 17  2  0  0  0  0
 22 23  1  0  0  0  0
 22  2  1  0  0  0  0
 24 27  2  0  0  0  0
 24 25  1  0  0  0  0
 25 22  2  0  0  0  0
 26 23  2  0  0  0  0
 27 26  1  0  0  0  0
 28 30  1  0  0  0  0
 29 30  1  0  0  0  0
 30 27  1  0  0  0  0
 32 35  1  0  0  0  0
 32 36  1  0  0  0  0
 33 31  1  0  0  0  0
 34 33  1  0  0  0  0
 35 34  2  0  0  0  0
 36 37  1  0  0  0  0
 37 33  1  0  0  0  0
M  END
>  <MODEL>
8

>  <REMARK>
 VINA RESULT:      -7.1      3.857      7.154
  Name = 
  5 active torsions:
  status: ('A' for Active; 'I' for Inactive)
    1  A    between atoms: C_4  and  C_13
    2  A    between atoms: C_14  and  C_24
    3  A    between atoms: C_16  and  C_22
    4  A    between atoms: C_16  and  C_29
    5  A    between atoms: N_26  and  C_37
                            x       y       z     vdW  Elec       q    Type
                         _______ _______ _______ _____ _____    ______ ____

>  <TORSDO>
F 5

$$$$
=
 OpenBabel11042410213D

 37 43  0  0  1  0  0  0  0  0999 V2000
  187.8730  176.0710  136.3140 N   0  0  2  0  0  0  0  0  0  0  0  0
  186.7040  176.1560  137.1890 C   0  0  1  0  0  3  0  0  0  0  0  0
  190.7460  176.7340  140.2900 N   0  0  0  0  0  0  0  0  0  0  0  0
  188.8690  175.2060  136.9510 C   0  0  2  0  0  3  0  0  0  0  0  0
  188.3460  177.6190  139.2170 C   0  0  0  0  0  0  0  0  0  0  0  0
  189.2400  176.8640  138.4320 C   0  0  0  0  0  0  0  0  0  0  0  0
  187.0510  178.0290  138.7560 N   0  0  0  0  0  2  0  0  0  0  0  0
  190.4530  176.3960  139.0060 C   0  0  0  0  0  0  0  0  0  0  0  0
  189.0680  176.6550  136.9650 C   0  0  2  0  0  3  0  0  0  0  0  0
  189.9170  177.4930  141.0560 C   0  0  0  0  0  0  0  0  0  0  0  0
  188.6980  177.9320  140.5300 C   0  0  0  0  0  3  0  0  0  0  0  0
  190.0990  174.8090  136.1820 C   0  0  0  0  0  2  0  0  0  0  0  0
  186.4000  177.6390  137.5070 C   0  0  2  0  0  3  0  0  0  0  0  0
  191.4300  175.5090  138.2880 C   0  0  0  0  0  3  0  0  0  0  0  0
  191.2960  174.8320  137.1200 C   0  0  0  0  0  3  0  0  0  0  0  0
  188.1790  177.7390  143.6150 O   0  0  0  0  0  0  0  0  0  0  0  0
  190.2080  178.2690  144.7130 N   0  0  0  0  0  0  0  0  0  0  0  0
  189.4240  177.9240  143.5870 C   0  0  0  0  0  0  0  0  0  0  0  0
  191.4970  178.0890  142.8230 N   0  0  0  0  0  0  0  0  0  0  0  0
  190.2920  177.8270  142.4390 C   0  0  0  0  0  0  0  0  0  0  0  0
  191.4120  178.3570  144.2330 C   0  0  0  0  0  3  0  0  0  0  0  0
  185.5620  175.4000  136.5700 C   0  0  0  0  0  0  0  0  0  0  0  0
  184.9520  174.3720  137.2930 C   0  0  0  0  0  3  0  0  0  0  0  0
  184.0200  175.0140  134.7380 C   0  0  0  0  0  3  0  0  0  0  0  0
  185.0910  175.7210  135.2900 C   0  0  0  0  0  3  0  0  0  0  0  0
  183.8810  173.6660  136.7420 C   0  0  0  0  0  3  0  0  0  0  0  0
  183.4020  173.9780  135.4580 C   0  0  0  0  0  0  0  0  0  0  0  0
  181.0320  173.9070  134.5940 C   0  0  0  0  0  1  0  0  0  0  0  0
  182.4030  171.8290  134.5940 C   0  0  0  0  0  1  0  0  0  0  0  0
  182.2970  173.2500  134.8910 N   0  0  0  0  0  0  0  0  0  0  0  0
  184.9100  177.9640  137.6140 C   0  0  0  0  0  2  0  0  0  0  0  0
  181.9620  178.3280  140.5150 C   0  0  0  0  0  2  0  0  0  0  0  0
  184.4640  178.0140  139.0650 C   0  0  1  0  0  3  0  0  0  0  0  0
  183.9110  179.3780  139.4050 C   0  0  0  0  0  3  0  0  0  0  0  0
  182.7830  179.5260  140.1130 C   0  0  0  0  0  3  0  0  0  0  0  0
  182.7960  177.1310  140.6230 N   0  0  0  0  0  2  0  0  0  0  0  0
  183.4340  176.9130  139.3260 C   0  0  0  0  0  2  0  0  0  0  0  0
  1  4  1  0  0  0  0
  1  9  1  0  0  0  0
  1  2  1  0  0  0  0
  2 13  1  0  0  0  0
  3 10  1  0  0  0  0
  4  9  1  0  0  0  0
  5 11  1  0  0  0  0
  6  8  1  0  0  0  0
  6  5  2  0  0  0  0
  7  5  1  0  0  0  0
  8  3  2  0  0  0  0
  9  6  1  0  0  0  0
 10 20  1  0  0  0  0
 11 10  2  0  0  0  0
 12  4  1  0  0  0  0
 12 15  1  0  0  0  0
 13 31  1  0  0  0  0
 13  7  1  0  0  0  0
 14  8  1  0  0  0  0
 15 14  2  0  0  0  0
 18 16  2  0  0  0  0
 18 17  1  0  0  0  0
 19 21  1  0  0  0  0
 20 19  2  0  0  0  0
 20 18  1  0  0  0  0
 21 17  2  0  0  0  0
 22  2  1  0  0  0  0
 22 23  1  0  0  0  0
 24 25  1  0  0  0  0
 24 27  2  0  0  0  0
 25 22  2  0  0  0  0
 26 23  2  0  0  0  0
 27 26  1  0  0  0  0
 28 30  1  0  0  0  0
 29 30  1  0  0  0  0
 30 27  1  0  0  0  0
 31 33  1  0  0  0  0
 32 36  1  0  0  0  0
 33 37  1  0  0  0  0
 33 34  1  0  0  0  0
 34 35  2  0  0  0  0
 35 32  1  0  0  0  0
 37 36  1  0  0  0  0
M  END
>  <MODEL>
9

>  <REMARK>
 VINA RESULT:      -7.0      2.831      6.465
  Name = 
  5 active torsions:
  status: ('A' for Active; 'I' for Inactive)
    1  A    between atoms: C_4  and  C_13
    2  A    between atoms: C_14  and  C_24
    3  A    between atoms: C_16  and  C_22
    4  A    between atoms: C_16  and  C_29
    5  A    between atoms: N_26  and  C_37
                            x       y       z     vdW  Elec       q    Type
                         _______ _______ _______ _____ _____    ______ ____

>  <TORSDO>
F 5

$$$$
