=
 OpenBabel11032420583D

 47 52  0  0  1  0  0  0  0  0999 V2000
  191.0910  177.0410  142.4230 C   0  0  0  0  0  2  0  0  0  0  0  0
  189.9670  177.5470  140.1960 C   0  0  0  0  0  0  0  0  0  0  0  0
  187.8530  177.8320  141.4440 C   0  0  0  0  0  3  0  0  0  0  0  0
  188.6300  177.4870  140.2380 C   0  0  0  0  0  3  0  0  0  0  0  0
  190.7340  178.0870  141.3640 C   0  0  0  0  0  2  0  0  0  0  0  0
  187.9800  177.2170  142.6270 C   0  0  0  0  0  0  0  0  0  0  0  0
  190.1220  175.9050  142.6270 C   0  0  0  0  0  3  0  0  0  0  0  0
  188.7950  175.9900  142.7640 C   0  0  0  0  0  3  0  0  0  0  0  0
  190.4050  176.6090  136.6460 C   0  0  0  0  0  2  0  0  0  0  0  0
  190.6160  175.3030  137.3930 C   0  0  2  0  0  3  0  0  0  0  0  0
  190.7230  177.1670  138.9580 C   0  0  2  0  0  3  0  0  0  0  0  0
  190.0250  177.6290  137.6940 C   0  0  0  0  0  2  0  0  0  0  0  0
  190.8900  175.6610  138.8420 C   0  0  0  0  0  2  0  0  0  0  0  0
  191.8060  174.5540  136.8170 C   0  0  0  0  0  2  0  0  0  0  0  0
  193.1190  175.0870  137.3910 C   0  0  1  0  0  3  0  0  0  0  0  0
  195.5020  174.4060  137.9040 C   0  0  0  0  0  2  0  0  0  0  0  0
  196.4550  173.2550  138.2770 C   0  0  0  0  0  2  0  0  0  0  0  0
  193.9450  172.7610  136.8100 C   0  0  0  0  0  2  0  0  0  0  0  0
  195.1550  171.8180  136.8900 C   0  0  0  0  0  2  0  0  0  0  0  0
  194.0480  173.9350  137.7980 C   0  0  0  0  0  3  0  0  0  0  0  0
  195.8180  171.9370  138.1860 N   0  0  0  0  0  2  0  0  0  0  0  0
  193.7710  175.9920  136.3880 C   0  0  0  0  0  0  0  0  0  0  0  0
  193.8150  175.6170  135.0510 O   0  0  0  0  0  0  0  0  0  0  0  0
  194.2820  177.0880  136.7470 O   0  0  0  0  0  1  0  0  0  0  0  0
  187.1420  177.6730  143.6960 N   0  0  0  0  0  2  0  0  0  0  0  0
  185.1330  178.1050  142.4990 N   0  0  0  0  0  0  0  0  0  0  0  0
  185.7580  178.0460  143.6370 C   0  0  0  0  0  0  0  0  0  0  0  0
  185.0540  178.3560  144.9220 C   0  0  0  0  0  2  0  0  0  0  0  0
  185.6400  179.6110  145.5530 C   0  0  0  0  0  2  0  0  0  0  0  0
  185.6590  179.4760  146.9420 O   0  0  0  0  0  0  0  0  0  0  0  0
  186.0320  178.1480  147.1670 C   0  0  0  0  0  2  0  0  0  0  0  0
  188.2400  176.7350  147.0260 C   0  0  2  0  0  3  0  0  0  0  0  0
  189.6610  177.0310  147.2230 N   0  0  0  0  0  0  0  0  0  0  0  0
  190.2100  177.5080  145.9620 C   0  0  0  0  0  1  0  0  0  0  0  0
  187.5390  178.0480  147.3030 C   0  0  2  0  0  0  0  0  0  0  0  0
  189.6740  178.1610  148.1870 C   0  0  0  0  0  2  0  0  0  0  0  0
  187.6490  177.0350  148.3790 C   0  0  2  0  0  3  0  0  0  0  0  0
  188.2230  178.4090  148.5940 C   0  0  2  0  0  3  0  0  0  0  0  0
  183.7340  178.4840  142.3710 C   0  0  0  0  0  2  0  0  0  0  0  0
  183.1820  177.9590  141.0620 C   0  0  0  0  0  2  0  0  0  0  0  0
  184.9760  179.7930  140.1690 O   0  0  0  0  0  1  0  0  0  0  0  0
  182.5620  180.0200  139.1800 O   0  0  0  0  0  0  0  0  0  0  0  0
  183.7930  178.9800  139.6950 P   0  0  2  0  0  0  0  0  0  0  0  0
  184.2750  177.9580  138.3960 O   0  0  0  0  0  0  0  0  0  0  0  0
  185.5810  177.9170  137.8970 C   0  0  0  0  0  0  0  0  0  0  0  0
  186.2250  176.6420  137.4610 C   0  0  0  0  0  1  0  0  0  0  0  0
  186.2380  178.9860  137.8130 O   0  0  0  0  0  0  0  0  0  0  0  0
  1  7  1  0  0  0  0
  2  4  2  0  0  0  0
  2  5  1  0  0  0  0
  3  6  2  0  0  0  0
  4  3  1  0  0  0  0
  5  1  1  0  0  0  0
  6  8  1  0  0  0  0
  6 25  1  0  0  0  0
  7  8  2  0  0  0  0
  9 10  1  0  0  0  0
  9 12  1  0  0  0  0
 10 14  1  6  0  0  0
 10 13  1  0  0  0  0
 11  2  1  1  0  0  0
 12 11  1  0  0  0  0
 13 11  1  0  0  0  0
 15 14  1  6  0  0  0
 15 20  1  0  0  0  0
 16 17  1  0  0  0  0
 18 19  1  0  0  0  0
 18 20  1  0  0  0  0
 19 21  1  0  0  0  0
 20 16  1  0  0  0  0
 21 17  1  0  0  0  0
 22 24  1  0  0  0  0
 22 15  1  0  0  0  0
 23 22  2  0  0  0  0
 26 27  2  0  0  0  0
 27 25  1  0  0  0  0
 27 28  1  0  0  0  0
 28 29  1  0  0  0  0
 29 30  1  0  0  0  0
 30 31  1  0  0  0  0
 32 33  1  1  0  0  0
 32 35  1  0  0  0  0
 32 37  1  0  0  0  0
 33 36  1  0  0  0  0
 34 33  1  0  0  0  0
 35 31  1  6  0  0  0
 35 37  1  0  0  0  0
 35 38  1  0  0  0  0
 36 38  1  0  0  0  0
 37 38  1  0  0  0  0
 39 26  1  0  0  0  0
 40 39  1  0  0  0  0
 42 43  2  0  0  0  0
 43 41  1  0  0  0  0
 43 40  1  0  0  0  0
 44 43  1  0  0  0  0
 45 44  1  0  0  0  0
 46 45  1  0  0  0  0
 47 45  2  0  0  0  0
M  END
>  <MODEL>
1

>  <REMARK>
 VINA RESULT:      -7.6      0.000      0.000
  Name = 
  16 active torsions:
  status: ('A' for Active; 'I' for Inactive)
    1  A    between atoms: C_4  and  C_33
    2  A    between atoms: C_5  and  O_21
    3  A    between atoms: C_6  and  C_23
    4  A    between atoms: C_9  and  C_22
    5  A    between atoms: C_9  and  C_33
    6  A    between atoms: N_12  and  C_18
    7  A    between atoms: C_13  and  C_36
    8  A    between atoms: C_13  and  C_40
    9  A    between atoms: O_21  and  P_42
   10  A    between atoms: C_28  and  C_33
   11  A    between atoms: C_32  and  C_35
   12  A    between atoms: C_32  and  O_46
   13  A    between atoms: C_36  and  O_46
   14  A    between atoms: N_39  and  C_41
   15  A    between atoms: C_41  and  C_45
   16  A    between atoms: P_42  and  C_45
                            x       y       z     vdW  Elec       q    Type
                         _______ _______ _______ _____ _____    ______ ____

>  <TORSDO>
F 16

$$$$
=
 OpenBabel11032420583D

 47 52  0  0  1  0  0  0  0  0999 V2000
  190.6970  177.0000  142.5120 C   0  0  0  0  0  2  0  0  0  0  0  0
  189.6290  177.8340  140.3580 C   0  0  0  0  0  0  0  0  0  0  0  0
  187.5780  178.2730  141.6640 C   0  0  0  0  0  3  0  0  0  0  0  0
  188.2960  177.9390  140.4190 C   0  0  0  0  0  3  0  0  0  0  0  0
  190.4680  178.1710  141.5530 C   0  0  0  0  0  2  0  0  0  0  0  0
  187.6350  177.5470  142.7870 C   0  0  0  0  0  0  0  0  0  0  0  0
  189.5940  175.9810  142.6370 C   0  0  0  0  0  3  0  0  0  0  0  0
  188.2890  176.2200  142.8050 C   0  0  0  0  0  3  0  0  0  0  0  0
  189.8910  176.9780  136.7700 C   0  0  0  0  0  2  0  0  0  0  0  0
  190.1090  175.6500  137.4740 C   0  0  2  0  0  3  0  0  0  0  0  0
  190.3220  177.4720  139.0780 C   0  0  2  0  0  3  0  0  0  0  0  0
  189.5780  177.9780  137.8580 C   0  0  0  0  0  2  0  0  0  0  0  0
  190.4540  175.9660  138.9180 C   0  0  0  0  0  2  0  0  0  0  0  0
  191.2580  174.8930  136.8280 C   0  0  0  0  0  2  0  0  0  0  0  0
  192.6060  175.4470  137.2890 C   0  0  1  0  0  3  0  0  0  0  0  0
  194.7940  174.8890  138.4330 C   0  0  0  0  0  2  0  0  0  0  0  0
  195.7240  173.7750  138.9500 C   0  0  0  0  0  2  0  0  0  0  0  0
  193.8390  173.3020  136.7320 C   0  0  0  0  0  2  0  0  0  0  0  0
  195.0740  172.4560  137.0750 C   0  0  0  0  0  2  0  0  0  0  0  0
  193.5040  174.3250  137.8300 C   0  0  0  0  0  3  0  0  0  0  0  0
  195.3040  172.4380  138.5170 N   0  0  0  0  0  2  0  0  0  0  0  0
  193.2610  176.1760  136.1530 C   0  0  0  0  0  0  0  0  0  0  0  0
  192.7510  176.0440  134.8670 O   0  0  0  0  0  0  0  0  0  0  0  0
  194.2710  176.9040  136.3530 O   0  0  0  0  0  1  0  0  0  0  0  0
  186.8700  178.0090  143.9070 N   0  0  0  0  0  2  0  0  0  0  0  0
  184.7590  178.3410  142.8620 N   0  0  0  0  0  0  0  0  0  0  0  0
  185.4730  178.3370  143.9480 C   0  0  0  0  0  0  0  0  0  0  0  0
  184.8630  178.6650  145.2760 C   0  0  0  0  0  2  0  0  0  0  0  0
  185.6790  179.7400  145.9790 C   0  0  0  0  0  2  0  0  0  0  0  0
  185.6970  179.4970  147.3530 O   0  0  0  0  0  0  0  0  0  0  0  0
  186.0980  178.1630  147.4740 C   0  0  0  0  0  2  0  0  0  0  0  0
  188.3010  176.8300  146.9650 C   0  0  2  0  0  3  0  0  0  0  0  0
  189.7300  177.1230  147.0960 N   0  0  0  0  0  0  0  0  0  0  0  0
  190.1770  177.7880  145.8800 C   0  0  0  0  0  1  0  0  0  0  0  0
  187.6120  178.0760  147.4820 C   0  0  2  0  0  0  0  0  0  0  0  0
  189.8070  178.1030  148.2100 C   0  0  0  0  0  2  0  0  0  0  0  0
  187.8140  176.9210  148.3880 C   0  0  2  0  0  3  0  0  0  0  0  0
  188.3900  178.2610  148.7560 C   0  0  2  0  0  3  0  0  0  0  0  0
  183.3420  178.6720  142.8360 C   0  0  0  0  0  2  0  0  0  0  0  0
  182.7950  178.4570  141.4400 C   0  0  0  0  0  2  0  0  0  0  0  0
  180.7460  179.9970  142.3430 O   0  0  0  0  0  1  0  0  0  0  0  0
  180.1600  177.4740  141.9550 O   0  0  0  0  0  0  0  0  0  0  0  0
  181.0200  178.8290  141.4220 P   0  0  2  0  0  0  0  0  0  0  0  0
  180.5420  179.2300  139.8170 O   0  0  0  0  0  0  0  0  0  0  0  0
  181.0340  180.3430  139.1270 C   0  0  0  0  0  0  0  0  0  0  0  0
  182.1060  180.2280  138.0950 C   0  0  0  0  0  1  0  0  0  0  0  0
  180.5580  181.4800  139.3830 O   0  0  0  0  0  0  0  0  0  0  0  0
  1  7  1  0  0  0  0
  2  4  2  0  0  0  0
  2  5  1  0  0  0  0
  3  6  2  0  0  0  0
  4  3  1  0  0  0  0
  5  1  1  0  0  0  0
  6  8  1  0  0  0  0
  6 25  1  0  0  0  0
  7  8  2  0  0  0  0
  9 10  1  0  0  0  0
  9 12  1  0  0  0  0
 10 14  1  6  0  0  0
 10 13  1  0  0  0  0
 11  2  1  1  0  0  0
 12 11  1  0  0  0  0
 13 11  1  0  0  0  0
 15 14  1  6  0  0  0
 15 20  1  0  0  0  0
 16 17  1  0  0  0  0
 18 19  1  0  0  0  0
 18 20  1  0  0  0  0
 19 21  1  0  0  0  0
 20 16  1  0  0  0  0
 21 17  1  0  0  0  0
 22 24  1  0  0  0  0
 22 15  1  0  0  0  0
 23 22  2  0  0  0  0
 25 27  1  0  0  0  0
 26 27  2  0  0  0  0
 27 28  1  0  0  0  0
 28 29  1  0  0  0  0
 29 30  1  0  0  0  0
 30 31  1  0  0  0  0
 32 33  1  1  0  0  0
 32 35  1  0  0  0  0
 32 37  1  0  0  0  0
 33 36  1  0  0  0  0
 34 33  1  0  0  0  0
 35 31  1  6  0  0  0
 35 37  1  0  0  0  0
 35 38  1  0  0  0  0
 36 38  1  0  0  0  0
 37 38  1  0  0  0  0
 39 26  1  0  0  0  0
 40 39  1  0  0  0  0
 43 40  1  0  0  0  0
 43 42  2  0  0  0  0
 43 41  1  0  0  0  0
 44 43  1  0  0  0  0
 45 47  2  0  0  0  0
 45 44  1  0  0  0  0
 46 45  1  0  0  0  0
M  END
>  <MODEL>
2

>  <REMARK>
 VINA RESULT:      -7.3      1.665      1.976
  Name = 
  16 active torsions:
  status: ('A' for Active; 'I' for Inactive)
    1  A    between atoms: C_4  and  C_33
    2  A    between atoms: C_5  and  O_21
    3  A    between atoms: C_6  and  C_23
    4  A    between atoms: C_9  and  C_22
    5  A    between atoms: C_9  and  C_33
    6  A    between atoms: N_12  and  C_18
    7  A    between atoms: C_13  and  C_36
    8  A    between atoms: C_13  and  C_40
    9  A    between atoms: O_21  and  P_42
   10  A    between atoms: C_28  and  C_33
   11  A    between atoms: C_32  and  C_35
   12  A    between atoms: C_32  and  O_46
   13  A    between atoms: C_36  and  O_46
   14  A    between atoms: N_39  and  C_41
   15  A    between atoms: C_41  and  C_45
   16  A    between atoms: P_42  and  C_45
                            x       y       z     vdW  Elec       q    Type
                         _______ _______ _______ _____ _____    ______ ____

>  <TORSDO>
F 16

$$$$
=
 OpenBabel11032420583D

 47 52  0  0  1  0  0  0  0  0999 V2000
  183.1830  179.5790  144.4570 C   0  0  0  0  0  2  0  0  0  0  0  0
  185.4790  178.5020  144.2470 C   0  0  0  0  0  0  0  0  0  0  0  0
  185.1550  178.5280  141.7970 C   0  0  0  0  0  3  0  0  0  0  0  0
  185.7210  177.9720  143.0410 C   0  0  0  0  0  3  0  0  0  0  0  0
  184.6980  179.7750  144.3680 C   0  0  0  0  0  2  0  0  0  0  0  0
  183.8440  178.6470  141.5510 C   0  0  0  0  0  0  0  0  0  0  0  0
  182.5920  178.4080  143.7160 C   0  0  0  0  0  3  0  0  0  0  0  0
  182.8400  178.0420  142.4530 C   0  0  0  0  0  3  0  0  0  0  0  0
  187.2260  178.4700  147.5070 C   0  0  0  0  0  2  0  0  0  0  0  0
  188.2550  177.9100  146.5400 C   0  0  2  0  0  3  0  0  0  0  0  0
  186.0560  177.8960  145.4920 C   0  0  2  0  0  3  0  0  0  0  0  0
  186.0340  178.8580  146.6640 C   0  0  0  0  0  2  0  0  0  0  0  0
  187.5040  177.4790  145.2940 C   0  0  0  0  0  2  0  0  0  0  0  0
  188.9560  176.7100  147.1550 C   0  0  0  0  0  2  0  0  0  0  0  0
  190.1460  176.2740  146.3000 C   0  0  1  0  0  3  0  0  0  0  0  0
  190.5220  176.1750  143.7990 C   0  0  0  0  0  2  0  0  0  0  0  0
  190.6230  176.9710  142.4840 C   0  0  0  0  0  2  0  0  0  0  0  0
  191.2460  178.2090  145.0870 C   0  0  0  0  0  2  0  0  0  0  0  0
  191.6800  178.7230  143.7060 C   0  0  0  0  0  2  0  0  0  0  0  0
  190.2080  177.0790  144.9950 C   0  0  0  0  0  3  0  0  0  0  0  0
  190.6650  178.4210  142.7000 N   0  0  0  0  0  2  0  0  0  0  0  0
  191.4100  176.4150  147.0950 C   0  0  0  0  0  0  0  0  0  0  0  0
  191.4980  177.3940  148.0770 O   0  0  0  0  0  1  0  0  0  0  0  0
  192.3940  175.6570  146.8780 O   0  0  0  0  0  0  0  0  0  0  0  0
  183.4620  179.2030  140.2870 N   0  0  0  0  0  2  0  0  0  0  0  0
  184.5280  177.6670  138.8160 N   0  0  0  0  0  0  0  0  0  0  0  0
  183.7490  178.6950  138.9750 C   0  0  0  0  0  0  0  0  0  0  0  0
  183.1190  179.3770  137.8000 C   0  0  0  0  0  2  0  0  0  0  0  0
  181.6060  179.2200  137.8500 C   0  0  0  0  0  2  0  0  0  0  0  0
  181.2780  177.9150  138.2210 O   0  0  0  0  0  0  0  0  0  0  0  0
  180.9550  177.2740  137.0220 C   0  0  0  0  0  2  0  0  0  0  0  0
  182.0390  175.1310  135.9620 C   0  0  2  0  0  3  0  0  0  0  0  0
  182.2360  173.7520  136.4120 N   0  0  0  0  0  0  0  0  0  0  0  0
  183.4880  173.6850  137.1520 C   0  0  0  0  0  1  0  0  0  0  0  0
  181.3110  175.8020  137.1080 C   0  0  2  0  0  0  0  0  0  0  0  0
  181.1240  173.5120  137.3680 C   0  0  0  0  0  2  0  0  0  0  0  0
  180.5390  175.2680  135.9620 C   0  0  2  0  0  3  0  0  0  0  0  0
  180.2500  174.7640  137.3500 C   0  0  2  0  0  3  0  0  0  0  0  0
  184.8640  177.1090  137.5140 C   0  0  0  0  0  2  0  0  0  0  0  0
  186.2670  176.5410  137.5510 C   0  0  0  0  0  2  0  0  0  0  0  0
  186.6220  178.3840  135.5860 O   0  0  0  0  0  0  0  0  0  0  0  0
  188.6250  176.7360  135.9460 O   0  0  0  0  0  1  0  0  0  0  0  0
  187.3920  177.6480  136.6590 P   0  0  2  0  0  0  0  0  0  0  0  0
  188.0690  178.7790  137.7670 O   0  0  0  0  0  0  0  0  0  0  0  0
  188.7020  178.4020  138.9560 C   0  0  0  0  0  0  0  0  0  0  0  0
  189.9740  177.6210  138.9650 C   0  0  0  0  0  1  0  0  0  0  0  0
  188.1850  178.7300  140.0550 O   0  0  0  0  0  0  0  0  0  0  0  0
  2  5  1  0  0  0  0
  3  4  1  0  0  0  0
  4  2  2  0  0  0  0
  5  1  1  0  0  0  0
  6  3  2  0  0  0  0
  6  8  1  0  0  0  0
  7  1  1  0  0  0  0
  8  7  2  0  0  0  0
 10 14  1  1  0  0  0
 10  9  1  0  0  0  0
 11  2  1  6  0  0  0
 11 12  1  0  0  0  0
 12  9  1  0  0  0  0
 13 11  1  0  0  0  0
 13 10  1  0  0  0  0
 15 22  1  0  0  0  0
 15 14  1  1  0  0  0
 16 20  1  0  0  0  0
 17 21  1  0  0  0  0
 17 16  1  0  0  0  0
 19 18  1  0  0  0  0
 20 18  1  0  0  0  0
 20 15  1  0  0  0  0
 21 19  1  0  0  0  0
 22 23  1  0  0  0  0
 24 22  2  0  0  0  0
 25  6  1  0  0  0  0
 26 27  2  0  0  0  0
 27 25  1  0  0  0  0
 28 29  1  0  0  0  0
 28 27  1  0  0  0  0
 29 30  1  0  0  0  0
 31 30  1  0  0  0  0
 32 33  1  1  0  0  0
 32 35  1  0  0  0  0
 33 34  1  0  0  0  0
 33 36  1  0  0  0  0
 35 31  1  1  0  0  0
 35 38  1  0  0  0  0
 37 32  1  0  0  0  0
 37 35  1  0  0  0  0
 37 38  1  0  0  0  0
 38 36  1  0  0  0  0
 39 40  1  0  0  0  0
 39 26  1  0  0  0  0
 41 43  2  0  0  0  0
 42 43  1  0  0  0  0
 43 40  1  0  0  0  0
 43 44  1  0  0  0  0
 44 45  1  0  0  0  0
 45 46  1  0  0  0  0
 45 47  2  0  0  0  0
M  END
>  <MODEL>
3

>  <REMARK>
 VINA RESULT:      -7.2      3.748      8.953
  Name = 
  16 active torsions:
  status: ('A' for Active; 'I' for Inactive)
    1  A    between atoms: C_4  and  C_33
    2  A    between atoms: C_5  and  O_21
    3  A    between atoms: C_6  and  C_23
    4  A    between atoms: C_9  and  C_22
    5  A    between atoms: C_9  and  C_33
    6  A    between atoms: N_12  and  C_18
    7  A    between atoms: C_13  and  C_36
    8  A    between atoms: C_13  and  C_40
    9  A    between atoms: O_21  and  P_42
   10  A    between atoms: C_28  and  C_33
   11  A    between atoms: C_32  and  C_35
   12  A    between atoms: C_32  and  O_46
   13  A    between atoms: C_36  and  O_46
   14  A    between atoms: N_39  and  C_41
   15  A    between atoms: C_41  and  C_45
   16  A    between atoms: P_42  and  C_45
                            x       y       z     vdW  Elec       q    Type
                         _______ _______ _______ _____ _____    ______ ____

>  <TORSDO>
F 16

$$$$
=
 OpenBabel11032420583D

 47 52  0  0  1  0  0  0  0  0999 V2000
  182.7970  179.8480  144.3150 C   0  0  0  0  0  2  0  0  0  0  0  0
  184.9630  178.5420  144.0330 C   0  0  0  0  0  0  0  0  0  0  0  0
  184.4800  178.4620  141.6110 C   0  0  0  0  0  3  0  0  0  0  0  0
  185.0730  177.9240  142.8500 C   0  0  0  0  0  3  0  0  0  0  0  0
  184.3150  179.8900  144.1220 C   0  0  0  0  0  2  0  0  0  0  0  0
  183.1740  178.6960  141.4370 C   0  0  0  0  0  0  0  0  0  0  0  0
  182.0500  178.7010  143.6840 C   0  0  0  0  0  3  0  0  0  0  0  0
  182.1790  178.2430  142.4340 C   0  0  0  0  0  3  0  0  0  0  0  0
  186.8510  178.5360  147.2130 C   0  0  0  0  0  2  0  0  0  0  0  0
  187.8020  177.8800  146.2270 C   0  0  2  0  0  3  0  0  0  0  0  0
  185.5610  177.9520  145.2760 C   0  0  2  0  0  3  0  0  0  0  0  0
  185.6450  178.9580  146.4070 C   0  0  0  0  0  2  0  0  0  0  0  0
  186.9730  177.4460  145.0330 C   0  0  0  0  0  2  0  0  0  0  0  0
  188.4630  176.6670  146.8600 C   0  0  0  0  0  2  0  0  0  0  0  0
  189.9010  176.5070  146.3670 C   0  0  1  0  0  3  0  0  0  0  0  0
  190.3870  176.1560  143.9070 C   0  0  0  0  0  2  0  0  0  0  0  0
  190.6160  176.8220  142.5380 C   0  0  0  0  0  2  0  0  0  0  0  0
  191.2140  178.2350  145.0560 C   0  0  0  0  0  2  0  0  0  0  0  0
  191.7540  178.5880  143.6620 C   0  0  0  0  0  2  0  0  0  0  0  0
  190.0920  177.1860  145.0030 C   0  0  0  0  0  3  0  0  0  0  0  0
  190.7670  178.2780  142.6310 N   0  0  0  0  0  2  0  0  0  0  0  0
  190.8450  177.0590  147.3940 C   0  0  0  0  0  0  0  0  0  0  0  0
  190.3700  177.9310  148.3650 O   0  0  0  0  0  1  0  0  0  0  0  0
  192.0660  176.7430  147.3810 O   0  0  0  0  0  0  0  0  0  0  0  0
  182.7630  179.2150  140.1660 N   0  0  0  0  0  2  0  0  0  0  0  0
  182.8050  177.2230  138.8670 N   0  0  0  0  0  0  0  0  0  0  0  0
  182.5350  178.4910  138.9480 C   0  0  0  0  0  0  0  0  0  0  0  0
  181.9700  179.2370  137.7790 C   0  0  0  0  0  2  0  0  0  0  0  0
  180.4540  179.3200  137.8900 C   0  0  0  0  0  2  0  0  0  0  0  0
  179.9640  180.2550  136.9780 O   0  0  0  0  0  0  0  0  0  0  0  0
  180.9190  181.2750  136.9650 C   0  0  0  0  0  2  0  0  0  0  0  0
  180.9570  183.6480  135.8430 C   0  0  2  0  0  3  0  0  0  0  0  0
  180.0100  184.7630  135.7680 N   0  0  0  0  0  0  0  0  0  0  0  0
  179.1280  184.5410  134.6300 C   0  0  0  0  0  1  0  0  0  0  0  0
  180.2510  182.6090  136.6870 C   0  0  2  0  0  0  0  0  0  0  0  0
  179.1990  184.6430  137.0070 C   0  0  0  0  0  2  0  0  0  0  0  0
  181.2180  183.5350  137.3220 C   0  0  2  0  0  3  0  0  0  0  0  0
  179.7970  183.4940  137.8160 C   0  0  2  0  0  3  0  0  0  0  0  0
  182.6040  176.4350  137.6600 C   0  0  0  0  0  2  0  0  0  0  0  0
  182.9030  174.9780  137.9470 C   0  0  0  0  0  2  0  0  0  0  0  0
  182.3100  174.5210  135.3350 O   0  0  0  0  0  0  0  0  0  0  0  0
  183.2480  172.4560  136.6460 O   0  0  0  0  0  1  0  0  0  0  0  0
  183.3110  174.1280  136.3980 P   0  0  2  0  0  0  0  0  0  0  0  0
  184.8950  174.5860  135.9020 O   0  0  0  0  0  0  0  0  0  0  0  0
  185.9790  174.6730  136.7820 C   0  0  0  0  0  0  0  0  0  0  0  0
  186.6790  175.9640  137.0530 C   0  0  0  0  0  1  0  0  0  0  0  0
  186.3780  173.6330  137.3650 O   0  0  0  0  0  0  0  0  0  0  0  0
  2  5  1  0  0  0  0
  3  4  1  0  0  0  0
  4  2  2  0  0  0  0
  5  1  1  0  0  0  0
  6  3  2  0  0  0  0
  6  8  1  0  0  0  0
  7  1  1  0  0  0  0
  8  7  2  0  0  0  0
 10 14  1  1  0  0  0
 10  9  1  0  0  0  0
 11  2  1  6  0  0  0
 11 12  1  0  0  0  0
 12  9  1  0  0  0  0
 13 11  1  0  0  0  0
 13 10  1  0  0  0  0
 15 14  1  1  0  0  0
 15 22  1  0  0  0  0
 16 20  1  0  0  0  0
 17 21  1  0  0  0  0
 17 16  1  0  0  0  0
 19 18  1  0  0  0  0
 20 18  1  0  0  0  0
 20 15  1  0  0  0  0
 21 19  1  0  0  0  0
 22 23  1  0  0  0  0
 24 22  2  0  0  0  0
 25  6  1  0  0  0  0
 26 27  2  0  0  0  0
 27 25  1  0  0  0  0
 28 29  1  0  0  0  0
 28 27  1  0  0  0  0
 30 29  1  0  0  0  0
 31 30  1  0  0  0  0
 32 33  1  1  0  0  0
 32 35  1  0  0  0  0
 32 37  1  0  0  0  0
 33 36  1  0  0  0  0
 34 33  1  0  0  0  0
 35 31  1  6  0  0  0
 35 37  1  0  0  0  0
 35 38  1  0  0  0  0
 36 38  1  0  0  0  0
 37 38  1  0  0  0  0
 39 40  1  0  0  0  0
 39 26  1  0  0  0  0
 41 43  2  0  0  0  0
 43 42  1  0  0  0  0
 43 40  1  0  0  0  0
 44 43  1  0  0  0  0
 44 45  1  0  0  0  0
 45 46  1  0  0  0  0
 45 47  2  0  0  0  0
M  END
>  <MODEL>
4

>  <REMARK>
 VINA RESULT:      -7.0      4.552      9.689
  Name = 
  16 active torsions:
  status: ('A' for Active; 'I' for Inactive)
    1  A    between atoms: C_4  and  C_33
    2  A    between atoms: C_5  and  O_21
    3  A    between atoms: C_6  and  C_23
    4  A    between atoms: C_9  and  C_22
    5  A    between atoms: C_9  and  C_33
    6  A    between atoms: N_12  and  C_18
    7  A    between atoms: C_13  and  C_36
    8  A    between atoms: C_13  and  C_40
    9  A    between atoms: O_21  and  P_42
   10  A    between atoms: C_28  and  C_33
   11  A    between atoms: C_32  and  C_35
   12  A    between atoms: C_32  and  O_46
   13  A    between atoms: C_36  and  O_46
   14  A    between atoms: N_39  and  C_41
   15  A    between atoms: C_41  and  C_45
   16  A    between atoms: P_42  and  C_45
                            x       y       z     vdW  Elec       q    Type
                         _______ _______ _______ _____ _____    ______ ____

>  <TORSDO>
F 16

$$$$
=
 OpenBabel11032420583D

 47 52  0  0  1  0  0  0  0  0999 V2000
  188.0890  177.2680  136.8270 C   0  0  0  0  0  2  0  0  0  0  0  0
  190.0720  176.0190  137.8190 C   0  0  0  0  0  0  0  0  0  0  0  0
  189.5570  177.1160  139.9720 C   0  0  0  0  0  3  0  0  0  0  0  0
  190.4800  176.4990  139.0000 C   0  0  0  0  0  3  0  0  0  0  0  0
  188.6130  175.9870  137.4810 C   0  0  0  0  0  2  0  0  0  0  0  0
  188.8060  178.1960  139.7210 C   0  0  0  0  0  0  0  0  0  0  0  0
  188.7320  178.5670  137.2370 C   0  0  0  0  0  3  0  0  0  0  0  0
  188.9910  178.9830  138.4820 C   0  0  0  0  0  3  0  0  0  0  0  0
  191.6250  173.3410  135.7960 C   0  0  0  0  0  2  0  0  0  0  0  0
  192.6130  173.5560  136.9290 C   0  0  2  0  0  3  0  0  0  0  0  0
  191.0440  175.4180  136.8480 C   0  0  2  0  0  3  0  0  0  0  0  0
  190.4510  174.2450  136.0920 C   0  0  0  0  0  2  0  0  0  0  0  0
  192.2910  174.9040  137.5480 C   0  0  0  0  0  2  0  0  0  0  0  0
  194.0350  173.5650  136.3940 C   0  0  0  0  0  2  0  0  0  0  0  0
  195.0490  173.4210  137.5290 C   0  0  1  0  0  3  0  0  0  0  0  0
  196.4680  172.0800  135.9190 C   0  0  0  0  0  2  0  0  0  0  0  0
  197.3040  170.8040  135.7020 C   0  0  0  0  0  2  0  0  0  0  0  0
  195.1070  170.8900  137.6670 C   0  0  0  0  0  2  0  0  0  0  0  0
  195.7370  169.6280  137.0590 C   0  0  0  0  0  2  0  0  0  0  0  0
  195.9070  172.1620  137.3420 C   0  0  0  0  0  3  0  0  0  0  0  0
  197.1580  169.8360  136.7950 N   0  0  0  0  0  2  0  0  0  0  0  0
  195.8950  174.6580  137.6020 C   0  0  0  0  0  0  0  0  0  0  0  0
  195.8140  175.6060  136.5900 O   0  0  0  0  0  0  0  0  0  0  0  0
  196.6810  174.8430  138.5710 O   0  0  0  0  0  1  0  0  0  0  0  0
  187.9660  178.6720  140.7800 N   0  0  0  0  0  2  0  0  0  0  0  0
  185.8580  178.6620  139.6780 N   0  0  0  0  0  0  0  0  0  0  0  0
  186.5410  178.8410  140.7700 C   0  0  0  0  0  0  0  0  0  0  0  0
  185.8650  179.2210  142.0510 C   0  0  0  0  0  2  0  0  0  0  0  0
  185.7440  178.0070  142.9610 C   0  0  0  0  0  2  0  0  0  0  0  0
  186.7980  177.9960  143.8760 O   0  0  0  0  0  0  0  0  0  0  0  0
  187.5190  176.8370  143.5740 C   0  0  0  0  0  2  0  0  0  0  0  0
  189.1630  177.9600  145.2850 C   0  0  2  0  0  3  0  0  0  0  0  0
  190.4420  177.5730  145.8830 N   0  0  0  0  0  0  0  0  0  0  0  0
  190.1720  176.7880  147.0780 C   0  0  0  0  0  1  0  0  0  0  0  0
  188.8160  176.8120  144.3610 C   0  0  2  0  0  0  0  0  0  0  0  0
  191.0670  176.6770  144.8760 C   0  0  0  0  0  2  0  0  0  0  0  0
  189.4880  178.0140  143.8150 C   0  0  2  0  0  3  0  0  0  0  0  0
  190.1400  176.6670  143.6620 C   0  0  2  0  0  3  0  0  0  0  0  0
  184.4140  178.8260  139.6000 C   0  0  0  0  0  2  0  0  0  0  0  0
  183.8900  178.1390  138.3560 C   0  0  0  0  0  2  0  0  0  0  0  0
  181.8090  176.5080  138.9810 O   0  0  0  0  0  1  0  0  0  0  0  0
  181.3810  178.1500  136.9860 O   0  0  0  0  0  0  0  0  0  0  0  0
  182.0970  177.9120  138.5000 P   0  0  2  0  0  0  0  0  0  0  0  0
  181.4710  179.0530  139.6270 O   0  0  0  0  0  0  0  0  0  0  0  0
  181.1300  178.7210  140.9430 C   0  0  0  0  0  0  0  0  0  0  0  0
  179.7150  178.7240  141.4210 C   0  0  0  0  0  1  0  0  0  0  0  0
  182.0420  178.4110  141.7510 O   0  0  0  0  0  0  0  0  0  0  0  0
  1  7  1  0  0  0  0
  1  5  1  0  0  0  0
  2  4  2  0  0  0  0
  4  3  1  0  0  0  0
  5  2  1  0  0  0  0
  6  3  2  0  0  0  0
  6 25  1  0  0  0  0
  7  8  2  0  0  0  0
  8  6  1  0  0  0  0
  9 12  1  0  0  0  0
  9 10  1  0  0  0  0
 10 14  1  6  0  0  0
 10 13  1  0  0  0  0
 11 13  1  0  0  0  0
 11  2  1  1  0  0  0
 12 11  1  0  0  0  0
 15 14  1  6  0  0  0
 15 22  1  0  0  0  0
 16 20  1  0  0  0  0
 17 16  1  0  0  0  0
 17 21  1  0  0  0  0
 19 18  1  0  0  0  0
 20 15  1  0  0  0  0
 20 18  1  0  0  0  0
 21 19  1  0  0  0  0
 22 24  1  0  0  0  0
 23 22  2  0  0  0  0
 26 27  2  0  0  0  0
 27 25  1  0  0  0  0
 27 28  1  0  0  0  0
 28 29  1  0  0  0  0
 29 30  1  0  0  0  0
 31 30  1  0  0  0  0
 32 33  1  1  0  0  0
 33 34  1  0  0  0  0
 35 31  1  6  0  0  0
 35 32  1  0  0  0  0
 36 33  1  0  0  0  0
 37 35  1  0  0  0  0
 37 32  1  0  0  0  0
 38 37  1  0  0  0  0
 38 35  1  0  0  0  0
 38 36  1  0  0  0  0
 39 26  1  0  0  0  0
 40 43  1  0  0  0  0
 40 39  1  0  0  0  0
 42 43  2  0  0  0  0
 43 41  1  0  0  0  0
 43 44  1  0  0  0  0
 44 45  1  0  0  0  0
 45 46  1  0  0  0  0
 45 47  2  0  0  0  0
M  END
>  <MODEL>
5

>  <REMARK>
 VINA RESULT:      -6.9      2.163      3.735
  Name = 
  16 active torsions:
  status: ('A' for Active; 'I' for Inactive)
    1  A    between atoms: C_4  and  C_33
    2  A    between atoms: C_5  and  O_21
    3  A    between atoms: C_6  and  C_23
    4  A    between atoms: C_9  and  C_22
    5  A    between atoms: C_9  and  C_33
    6  A    between atoms: N_12  and  C_18
    7  A    between atoms: C_13  and  C_36
    8  A    between atoms: C_13  and  C_40
    9  A    between atoms: O_21  and  P_42
   10  A    between atoms: C_28  and  C_33
   11  A    between atoms: C_32  and  C_35
   12  A    between atoms: C_32  and  O_46
   13  A    between atoms: C_36  and  O_46
   14  A    between atoms: N_39  and  C_41
   15  A    between atoms: C_41  and  C_45
   16  A    between atoms: P_42  and  C_45
                            x       y       z     vdW  Elec       q    Type
                         _______ _______ _______ _____ _____    ______ ____

>  <TORSDO>
F 16

$$$$
=
 OpenBabel11032420583D

 47 52  0  0  1  0  0  0  0  0999 V2000
  183.9980  178.7620  142.2950 C   0  0  0  0  0  2  0  0  0  0  0  0
  186.1730  178.8990  140.9810 C   0  0  0  0  0  0  0  0  0  0  0  0
  184.8070  178.9390  138.9210 C   0  0  0  0  0  3  0  0  0  0  0  0
  186.0360  178.6280  139.6770 C   0  0  0  0  0  3  0  0  0  0  0  0
  185.1010  179.6490  141.7110 C   0  0  0  0  0  2  0  0  0  0  0  0
  183.5960  178.4490  139.2150 C   0  0  0  0  0  0  0  0  0  0  0  0
  183.6490  177.5050  141.5420 C   0  0  0  0  0  3  0  0  0  0  0  0
  183.4280  177.3850  140.2280 C   0  0  0  0  0  3  0  0  0  0  0  0
  189.3070  177.0550  141.6530 C   0  0  0  0  0  2  0  0  0  0  0  0
  188.3350  176.5000  142.6800 C   0  0  2  0  0  3  0  0  0  0  0  0
  187.4300  178.5480  141.7190 C   0  0  2  0  0  3  0  0  0  0  0  0
  188.5070  178.0100  140.7980 C   0  0  0  0  0  2  0  0  0  0  0  0
  187.1820  177.4830  142.7740 C   0  0  0  0  0  2  0  0  0  0  0  0
  189.0130  176.3750  144.0340 C   0  0  0  0  0  2  0  0  0  0  0  0
  189.5780  177.7200  144.4900 C   0  0  1  0  0  3  0  0  0  0  0  0
  189.6010  177.1630  146.9590 C   0  0  0  0  0  2  0  0  0  0  0  0
  189.0480  177.5040  148.3560 C   0  0  0  0  0  2  0  0  0  0  0  0
  187.5070  178.0780  145.9090 C   0  0  0  0  0  2  0  0  0  0  0  0
  186.9480  177.9780  147.3360 C   0  0  0  0  0  2  0  0  0  0  0  0
  189.0430  178.0960  145.8790 C   0  0  0  0  0  3  0  0  0  0  0  0
  187.9280  178.4500  148.3090 N   0  0  0  0  0  2  0  0  0  0  0  0
  191.0770  177.6640  144.4730 C   0  0  0  0  0  0  0  0  0  0  0  0
  191.8070  178.8390  144.3530 O   0  0  0  0  0  0  0  0  0  0  0  0
  191.6800  176.5600  144.5640 O   0  0  0  0  0  1  0  0  0  0  0  0
  182.5060  178.8480  138.3740 N   0  0  0  0  0  2  0  0  0  0  0  0
  182.4730  177.0290  136.8410 N   0  0  0  0  0  0  0  0  0  0  0  0
  181.9360  178.1340  137.2670 C   0  0  0  0  0  0  0  0  0  0  0  0
  180.7030  178.6910  136.6260 C   0  0  0  0  0  2  0  0  0  0  0  0
  181.0770  179.7660  135.6150 C   0  0  0  0  0  2  0  0  0  0  0  0
  180.0690  180.7300  135.5560 O   0  0  0  0  0  0  0  0  0  0  0  0
  180.7470  181.9480  135.4560 C   0  0  0  0  0  2  0  0  0  0  0  0
  180.9330  184.2060  136.7820 C   0  0  2  0  0  3  0  0  0  0  0  0
  180.0570  184.9260  137.7100 N   0  0  0  0  0  0  0  0  0  0  0  0
  179.1620  185.7730  136.9340 C   0  0  0  0  0  1  0  0  0  0  0  0
  180.1640  182.9490  136.4360 C   0  0  2  0  0  0  0  0  0  0  0  0
  179.2420  183.8620  138.3510 C   0  0  0  0  0  2  0  0  0  0  0  0
  181.1870  182.9100  137.5060 C   0  0  2  0  0  3  0  0  0  0  0  0
  179.7670  182.5280  137.8250 C   0  0  2  0  0  3  0  0  0  0  0  0
  181.9490  176.2630  135.7210 C   0  0  0  0  0  2  0  0  0  0  0  0
  182.0160  174.7840  136.0390 C   0  0  0  0  0  2  0  0  0  0  0  0
  183.9450  172.8800  135.8480 O   0  0  0  0  0  0  0  0  0  0  0  0
  184.0930  174.4100  137.9690 O   0  0  0  0  0  1  0  0  0  0  0  0
  183.7420  174.3030  136.3170 P   0  0  2  0  0  0  0  0  0  0  0  0
  184.7740  175.3590  135.4320 O   0  0  0  0  0  0  0  0  0  0  0  0
  186.1110  175.5890  135.7740 C   0  0  0  0  0  0  0  0  0  0  0  0
  186.5470  176.8310  136.4800 C   0  0  0  0  0  1  0  0  0  0  0  0
  186.9750  174.7250  135.4790 O   0  0  0  0  0  0  0  0  0  0  0  0
  2  5  1  0  0  0  0
  3  6  2  0  0  0  0
  3  4  1  0  0  0  0
  4  2  2  0  0  0  0
  5  1  1  0  0  0  0
  6  8  1  0  0  0  0
  7  1  1  0  0  0  0
  8  7  2  0  0  0  0
  9 10  1  0  0  0  0
 10 13  1  0  0  0  0
 10 14  1  1  0  0  0
 11  2  1  6  0  0  0
 11 13  1  0  0  0  0
 12  9  1  0  0  0  0
 12 11  1  0  0  0  0
 15 14  1  1  0  0  0
 15 20  1  0  0  0  0
 16 17  1  0  0  0  0
 18 19  1  0  0  0  0
 19 21  1  0  0  0  0
 20 18  1  0  0  0  0
 20 16  1  0  0  0  0
 21 17  1  0  0  0  0
 22 15  1  0  0  0  0
 22 24  1  0  0  0  0
 23 22  2  0  0  0  0
 25  6  1  0  0  0  0
 26 27  2  0  0  0  0
 27 25  1  0  0  0  0
 28 27  1  0  0  0  0
 29 28  1  0  0  0  0
 30 29  1  0  0  0  0
 31 30  1  0  0  0  0
 32 37  1  0  0  0  0
 32 33  1  1  0  0  0
 33 36  1  0  0  0  0
 34 33  1  0  0  0  0
 35 31  1  6  0  0  0
 35 32  1  0  0  0  0
 35 37  1  0  0  0  0
 35 38  1  0  0  0  0
 37 38  1  0  0  0  0
 38 36  1  0  0  0  0
 39 40  1  0  0  0  0
 39 26  1  0  0  0  0
 40 43  1  0  0  0  0
 41 43  2  0  0  0  0
 43 42  1  0  0  0  0
 44 45  1  0  0  0  0
 44 43  1  0  0  0  0
 45 46  1  0  0  0  0
 47 45  2  0  0  0  0
M  END
>  <MODEL>
6

>  <REMARK>
 VINA RESULT:      -6.7      4.830      9.527
  Name = 
  16 active torsions:
  status: ('A' for Active; 'I' for Inactive)
    1  A    between atoms: C_4  and  C_33
    2  A    between atoms: C_5  and  O_21
    3  A    between atoms: C_6  and  C_23
    4  A    between atoms: C_9  and  C_22
    5  A    between atoms: C_9  and  C_33
    6  A    between atoms: N_12  and  C_18
    7  A    between atoms: C_13  and  C_36
    8  A    between atoms: C_13  and  C_40
    9  A    between atoms: O_21  and  P_42
   10  A    between atoms: C_28  and  C_33
   11  A    between atoms: C_32  and  C_35
   12  A    between atoms: C_32  and  O_46
   13  A    between atoms: C_36  and  O_46
   14  A    between atoms: N_39  and  C_41
   15  A    between atoms: C_41  and  C_45
   16  A    between atoms: P_42  and  C_45
                            x       y       z     vdW  Elec       q    Type
                         _______ _______ _______ _____ _____    ______ ____

>  <TORSDO>
F 16

$$$$
=
 OpenBabel11032420583D

 47 52  0  0  1  0  0  0  0  0999 V2000
  182.9010  179.2740  144.7140 C   0  0  0  0  0  2  0  0  0  0  0  0
  182.2180  178.7310  142.3230 C   0  0  0  0  0  0  0  0  0  0  0  0
  184.5010  177.8500  141.9790 C   0  0  0  0  0  3  0  0  0  0  0  0
  183.2500  178.4760  141.5090 C   0  0  0  0  0  3  0  0  0  0  0  0
  182.2530  178.2770  143.7500 C   0  0  0  0  0  2  0  0  0  0  0  0
  185.2950  178.3650  142.9260 C   0  0  0  0  0  0  0  0  0  0  0  0
  184.0170  180.1320  144.1750 C   0  0  0  0  0  3  0  0  0  0  0  0
  185.0680  179.7290  143.4520 C   0  0  0  0  0  3  0  0  0  0  0  0
  179.0160  178.9620  140.4880 C   0  0  0  0  0  2  0  0  0  0  0  0
  179.9920  179.7210  139.6070 C   0  0  2  0  0  3  0  0  0  0  0  0
  180.9710  179.3880  141.8130 C   0  0  2  0  0  3  0  0  0  0  0  0
  179.8350  178.4010  141.6270 C   0  0  0  0  0  2  0  0  0  0  0  0
  181.1980  180.0540  140.4660 C   0  0  0  0  0  2  0  0  0  0  0  0
  179.3560  181.0040  139.0990 C   0  0  0  0  0  2  0  0  0  0  0  0
  179.5210  181.1350  137.5850 C   0  0  1  0  0  3  0  0  0  0  0  0
  179.8600  183.6150  137.9630 C   0  0  0  0  0  2  0  0  0  0  0  0
  180.6730  184.8700  137.5920 C   0  0  0  0  0  2  0  0  0  0  0  0
  180.3760  182.6180  135.7130 C   0  0  0  0  0  2  0  0  0  0  0  0
  180.7860  184.0540  135.3570 C   0  0  0  0  0  2  0  0  0  0  0  0
  180.3650  182.3680  137.2300 C   0  0  0  0  0  3  0  0  0  0  0  0
  181.5560  184.6560  136.4420 N   0  0  0  0  0  2  0  0  0  0  0  0
  180.1290  179.8770  137.0380 C   0  0  0  0  0  0  0  0  0  0  0  0
  179.3070  178.8990  136.4930 O   0  0  0  0  0  0  0  0  0  0  0  0
  181.3760  179.6980  137.0710 O   0  0  0  0  0  1  0  0  0  0  0  0
  186.4790  177.6310  143.2610 N   0  0  0  0  0  2  0  0  0  0  0  0
  187.7780  178.0190  141.3050 N   0  0  0  0  0  0  0  0  0  0  0  0
  187.6910  177.5140  142.5000 C   0  0  0  0  0  0  0  0  0  0  0  0
  188.8510  176.8040  143.1250 C   0  0  0  0  0  2  0  0  0  0  0  0
  189.4580  177.6570  144.2300 C   0  0  0  0  0  2  0  0  0  0  0  0
  190.6240  177.0550  144.7050 O   0  0  0  0  0  0  0  0  0  0  0  0
  190.7130  177.4580  146.0410 C   0  0  0  0  0  2  0  0  0  0  0  0
  188.7680  178.6600  147.3300 C   0  0  2  0  0  3  0  0  0  0  0  0
  187.4460  178.2490  147.8070 N   0  0  0  0  0  0  0  0  0  0  0  0
  186.4870  178.4490  146.7300 C   0  0  0  0  0  1  0  0  0  0  0  0
  189.3420  177.4150  146.6890 C   0  0  2  0  0  0  0  0  0  0  0  0
  187.5750  176.7880  148.0430 C   0  0  0  0  0  2  0  0  0  0  0  0
  189.6930  177.7450  148.0900 C   0  0  2  0  0  3  0  0  0  0  0  0
  189.0350  176.4270  147.7820 C   0  0  2  0  0  3  0  0  0  0  0  0
  188.9730  177.9270  140.4810 C   0  0  0  0  0  2  0  0  0  0  0  0
  188.8190  176.7980  139.4840 C   0  0  0  0  0  2  0  0  0  0  0  0
  190.5020  175.2310  138.0380 O   0  0  0  0  0  0  0  0  0  0  0  0
  191.6570  177.1370  139.4130 O   0  0  0  0  0  1  0  0  0  0  0  0
  190.3250  176.6650  138.4830 P   0  0  2  0  0  0  0  0  0  0  0  0
  190.1820  177.6870  137.1050 O   0  0  0  0  0  0  0  0  0  0  0  0
  189.0570  178.4780  136.8520 C   0  0  0  0  0  0  0  0  0  0  0  0
  187.8910  177.9730  136.0680 C   0  0  0  0  0  1  0  0  0  0  0  0
  189.0230  179.6540  137.2970 O   0  0  0  0  0  0  0  0  0  0  0  0
  2  5  1  0  0  0  0
  3  6  2  0  0  0  0
  4  3  1  0  0  0  0
  4  2  2  0  0  0  0
  5  1  1  0  0  0  0
  6 25  1  0  0  0  0
  6  8  1  0  0  0  0
  7  1  1  0  0  0  0
  8  7  2  0  0  0  0
  9 12  1  0  0  0  0
 10 14  1  1  0  0  0
 10 13  1  0  0  0  0
 10  9  1  0  0  0  0
 11  2  1  6  0  0  0
 12 11  1  0  0  0  0
 13 11  1  0  0  0  0
 15 14  1  1  0  0  0
 17 16  1  0  0  0  0
 18 20  1  0  0  0  0
 19 18  1  0  0  0  0
 19 21  1  0  0  0  0
 20 15  1  0  0  0  0
 20 16  1  0  0  0  0
 21 17  1  0  0  0  0
 22 24  1  0  0  0  0
 22 15  1  0  0  0  0
 23 22  2  0  0  0  0
 26 27  2  0  0  0  0
 27 28  1  0  0  0  0
 27 25  1  0  0  0  0
 28 29  1  0  0  0  0
 29 30  1  0  0  0  0
 30 31  1  0  0  0  0
 32 33  1  1  0  0  0
 32 37  1  0  0  0  0
 33 36  1  0  0  0  0
 34 33  1  0  0  0  0
 35 31  1  6  0  0  0
 35 32  1  0  0  0  0
 35 38  1  0  0  0  0
 35 37  1  0  0  0  0
 38 36  1  0  0  0  0
 38 37  1  0  0  0  0
 39 26  1  0  0  0  0
 40 39  1  0  0  0  0
 41 43  2  0  0  0  0
 43 42  1  0  0  0  0
 43 40  1  0  0  0  0
 44 43  1  0  0  0  0
 45 44  1  0  0  0  0
 45 47  2  0  0  0  0
 46 45  1  0  0  0  0
M  END
>  <MODEL>
7

>  <REMARK>
 VINA RESULT:      -6.7      4.007      9.765
  Name = 
  16 active torsions:
  status: ('A' for Active; 'I' for Inactive)
    1  A    between atoms: C_4  and  C_33
    2  A    between atoms: C_5  and  O_21
    3  A    between atoms: C_6  and  C_23
    4  A    between atoms: C_9  and  C_22
    5  A    between atoms: C_9  and  C_33
    6  A    between atoms: N_12  and  C_18
    7  A    between atoms: C_13  and  C_36
    8  A    between atoms: C_13  and  C_40
    9  A    between atoms: O_21  and  P_42
   10  A    between atoms: C_28  and  C_33
   11  A    between atoms: C_32  and  C_35
   12  A    between atoms: C_32  and  O_46
   13  A    between atoms: C_36  and  O_46
   14  A    between atoms: N_39  and  C_41
   15  A    between atoms: C_41  and  C_45
   16  A    between atoms: P_42  and  C_45
                            x       y       z     vdW  Elec       q    Type
                         _______ _______ _______ _____ _____    ______ ____

>  <TORSDO>
F 16

$$$$
=
 OpenBabel11032420583D

 47 52  0  0  1  0  0  0  0  0999 V2000
  183.3430  179.3530  144.7160 C   0  0  0  0  0  2  0  0  0  0  0  0
  182.5330  178.6280  142.4150 C   0  0  0  0  0  0  0  0  0  0  0  0
  184.7640  177.6280  142.0570 C   0  0  0  0  0  3  0  0  0  0  0  0
  183.5170  178.2600  141.5850 C   0  0  0  0  0  3  0  0  0  0  0  0
  182.6160  178.3010  143.8750 C   0  0  0  0  0  2  0  0  0  0  0  0
  185.6180  178.1930  142.9190 C   0  0  0  0  0  0  0  0  0  0  0  0
  184.4650  180.1130  144.0560 C   0  0  0  0  0  3  0  0  0  0  0  0
  185.4660  179.6060  143.3290 C   0  0  0  0  0  3  0  0  0  0  0  0
  179.0150  178.8210  141.2920 C   0  0  0  0  0  2  0  0  0  0  0  0
  179.8100  178.9060  140.0010 C   0  0  2  0  0  3  0  0  0  0  0  0
  181.2880  179.2880  141.9000 C   0  0  2  0  0  3  0  0  0  0  0  0
  180.0280  178.6020  142.3910 C   0  0  0  0  0  2  0  0  0  0  0  0
  181.2330  179.2740  140.3820 C   0  0  0  0  0  2  0  0  0  0  0  0
  179.2310  179.9790  139.0950 C   0  0  0  0  0  2  0  0  0  0  0  0
  180.3230  180.9230  138.5950 C   0  0  1  0  0  3  0  0  0  0  0  0
  179.4580  180.7750  136.2210 C   0  0  0  0  0  2  0  0  0  0  0  0
  179.7880  180.4450  134.7530 C   0  0  0  0  0  2  0  0  0  0  0  0
  181.2790  179.2160  136.9810 C   0  0  0  0  0  2  0  0  0  0  0  0
  181.2100  178.7000  135.5370 C   0  0  0  0  0  2  0  0  0  0  0  0
  180.6800  180.6240  137.1320 C   0  0  0  0  0  3  0  0  0  0  0  0
  181.1020  179.8110  134.5950 N   0  0  0  0  0  2  0  0  0  0  0  0
  179.8750  182.3440  138.7730 C   0  0  0  0  0  0  0  0  0  0  0  0
  180.4340  183.3430  137.9860 O   0  0  0  0  0  0  0  0  0  0  0  0
  179.0000  182.6390  139.6310 O   0  0  0  0  0  1  0  0  0  0  0  0
  186.7890  177.4430  143.2690 N   0  0  0  0  0  2  0  0  0  0  0  0
  188.0210  177.6230  141.2420 N   0  0  0  0  0  0  0  0  0  0  0  0
  187.9640  177.2200  142.4770 C   0  0  0  0  0  0  0  0  0  0  0  0
  189.1230  176.5180  143.1140 C   0  0  0  0  0  2  0  0  0  0  0  0
  189.8770  177.4720  144.0300 C   0  0  0  0  0  2  0  0  0  0  0  0
  190.7010  176.7470  144.8920 O   0  0  0  0  0  0  0  0  0  0  0  0
  190.6960  177.4760  146.0850 C   0  0  0  0  0  2  0  0  0  0  0  0
  188.6890  178.6850  147.2690 C   0  0  2  0  0  3  0  0  0  0  0  0
  187.3780  178.2550  147.7590 N   0  0  0  0  0  0  0  0  0  0  0  0
  186.4260  178.3430  146.6610 C   0  0  0  0  0  1  0  0  0  0  0  0
  189.3190  177.4220  146.7200 C   0  0  2  0  0  0  0  0  0  0  0  0
  187.5600  176.8190  148.0950 C   0  0  0  0  0  2  0  0  0  0  0  0
  189.6380  177.8600  148.0990 C   0  0  2  0  0  3  0  0  0  0  0  0
  189.0360  176.5000  147.8750 C   0  0  2  0  0  3  0  0  0  0  0  0
  189.1790  177.4200  140.3840 C   0  0  0  0  0  2  0  0  0  0  0  0
  189.3110  178.5830  139.4240 C   0  0  0  0  0  2  0  0  0  0  0  0
  190.0250  177.1680  137.2170 O   0  0  0  0  0  1  0  0  0  0  0  0
  188.7080  179.3820  136.7460 O   0  0  0  0  0  0  0  0  0  0  0  0
  188.9020  178.0320  137.7460 P   0  0  2  0  0  0  0  0  0  0  0  0
  187.4410  177.1220  137.7890 O   0  0  0  0  0  0  0  0  0  0  0  0
  186.1730  177.7110  137.8070 C   0  0  0  0  0  0  0  0  0  0  0  0
  185.0050  177.1020  137.1020 C   0  0  0  0  0  1  0  0  0  0  0  0
  186.0070  178.7880  138.4350 O   0  0  0  0  0  0  0  0  0  0  0  0
  2  5  1  0  0  0  0
  3  6  2  0  0  0  0
  4  3  1  0  0  0  0
  4  2  2  0  0  0  0
  5  1  1  0  0  0  0
  6 25  1  0  0  0  0
  6  8  1  0  0  0  0
  7  1  1  0  0  0  0
  8  7  2  0  0  0  0
  9 12  1  0  0  0  0
 10 14  1  6  0  0  0
 10 13  1  0  0  0  0
 10  9  1  0  0  0  0
 11 12  1  0  0  0  0
 11  2  1  6  0  0  0
 13 11  1  0  0  0  0
 15 22  1  0  0  0  0
 15 14  1  6  0  0  0
 16 20  1  0  0  0  0
 17 16  1  0  0  0  0
 18 20  1  0  0  0  0
 19 18  1  0  0  0  0
 20 15  1  0  0  0  0
 21 17  1  0  0  0  0
 21 19  1  0  0  0  0
 22 24  1  0  0  0  0
 23 22  2  0  0  0  0
 26 27  2  0  0  0  0
 27 28  1  0  0  0  0
 27 25  1  0  0  0  0
 28 29  1  0  0  0  0
 29 30  1  0  0  0  0
 30 31  1  0  0  0  0
 32 33  1  1  0  0  0
 32 37  1  0  0  0  0
 33 36  1  0  0  0  0
 34 33  1  0  0  0  0
 35 31  1  6  0  0  0
 35 32  1  0  0  0  0
 35 38  1  0  0  0  0
 35 37  1  0  0  0  0
 38 36  1  0  0  0  0
 38 37  1  0  0  0  0
 39 26  1  0  0  0  0
 40 39  1  0  0  0  0
 41 43  1  0  0  0  0
 42 43  2  0  0  0  0
 43 44  1  0  0  0  0
 43 40  1  0  0  0  0
 44 45  1  0  0  0  0
 45 47  2  0  0  0  0
 46 45  1  0  0  0  0
M  END
>  <MODEL>
8

>  <REMARK>
 VINA RESULT:      -6.6      3.919      9.322
  Name = 
  16 active torsions:
  status: ('A' for Active; 'I' for Inactive)
    1  A    between atoms: C_4  and  C_33
    2  A    between atoms: C_5  and  O_21
    3  A    between atoms: C_6  and  C_23
    4  A    between atoms: C_9  and  C_22
    5  A    between atoms: C_9  and  C_33
    6  A    between atoms: N_12  and  C_18
    7  A    between atoms: C_13  and  C_36
    8  A    between atoms: C_13  and  C_40
    9  A    between atoms: O_21  and  P_42
   10  A    between atoms: C_28  and  C_33
   11  A    between atoms: C_32  and  C_35
   12  A    between atoms: C_32  and  O_46
   13  A    between atoms: C_36  and  O_46
   14  A    between atoms: N_39  and  C_41
   15  A    between atoms: C_41  and  C_45
   16  A    between atoms: P_42  and  C_45
                            x       y       z     vdW  Elec       q    Type
                         _______ _______ _______ _____ _____    ______ ____

>  <TORSDO>
F 16

$$$$
=
 OpenBabel11032420583D

 47 52  0  0  1  0  0  0  0  0999 V2000
  186.4900  178.7490  136.9860 C   0  0  0  0  0  2  0  0  0  0  0  0
  185.0940  176.6340  137.2140 C   0  0  0  0  0  0  0  0  0  0  0  0
  187.1970  175.3480  137.0400 C   0  0  0  0  0  3  0  0  0  0  0  0
  185.7420  175.5160  136.8620 C   0  0  0  0  0  3  0  0  0  0  0  0
  185.8210  177.7370  137.9200 C   0  0  0  0  0  2  0  0  0  0  0  0
  188.1220  176.1360  136.4780 C   0  0  0  0  0  0  0  0  0  0  0  0
  187.0090  178.2370  135.6680 C   0  0  0  0  0  3  0  0  0  0  0  0
  187.7510  177.1440  135.4610 C   0  0  0  0  0  3  0  0  0  0  0  0
  181.9980  178.0760  135.7950 C   0  0  0  0  0  2  0  0  0  0  0  0
  182.0230  178.6050  137.2190 C   0  0  2  0  0  3  0  0  0  0  0  0
  183.6160  176.7760  136.9980 C   0  0  2  0  0  3  0  0  0  0  0  0
  183.2850  177.3060  135.6160 C   0  0  0  0  0  2  0  0  0  0  0  0
  182.9930  177.7350  137.9970 C   0  0  0  0  0  2  0  0  0  0  0  0
  180.6390  178.5110  137.8400 C   0  0  0  0  0  2  0  0  0  0  0  0
  180.6680  177.6720  139.1170 C   0  0  1  0  0  3  0  0  0  0  0  0
  180.0680  179.9810  139.9630 C   0  0  0  0  0  2  0  0  0  0  0  0
  179.6510  180.8350  141.1750 C   0  0  0  0  0  2  0  0  0  0  0  0
  181.1980  178.3470  141.5030 C   0  0  0  0  0  2  0  0  0  0  0  0
  181.0690  179.4810  142.5300 C   0  0  0  0  0  2  0  0  0  0  0  0
  180.2190  178.5010  140.3290 C   0  0  0  0  0  3  0  0  0  0  0  0
  179.7520  180.1070  142.4440 N   0  0  0  0  0  2  0  0  0  0  0  0
  179.8100  176.4550  138.9350 C   0  0  0  0  0  0  0  0  0  0  0  0
  179.9730  175.6630  137.8050 O   0  0  0  0  0  0  0  0  0  0  0  0
  178.9400  176.1460  139.7940 O   0  0  0  0  0  1  0  0  0  0  0  0
  189.4960  175.8300  136.7490 N   0  0  0  0  0  2  0  0  0  0  0  0
  189.7950  177.0170  138.7890 N   0  0  0  0  0  0  0  0  0  0  0  0
  190.2780  176.2120  137.8900 C   0  0  0  0  0  0  0  0  0  0  0  0
  191.6600  175.6500  138.0200 C   0  0  0  0  0  2  0  0  0  0  0  0
  192.5910  176.3050  137.0090 C   0  0  0  0  0  2  0  0  0  0  0  0
  193.9070  176.2440  137.4700 O   0  0  0  0  0  0  0  0  0  0  0  0
  194.0550  174.9420  137.9550 C   0  0  0  0  0  2  0  0  0  0  0  0
  195.5720  172.9840  137.0860 C   0  0  2  0  0  3  0  0  0  0  0  0
  197.0030  172.8400  136.8100 N   0  0  0  0  0  0  0  0  0  0  0  0
  197.2540  173.2760  135.4440 C   0  0  0  0  0  1  0  0  0  0  0  0
  195.4250  174.4040  137.5900 C   0  0  2  0  0  0  0  0  0  0  0  0
  197.6560  173.8090  137.7280 C   0  0  0  0  0  2  0  0  0  0  0  0
  195.5480  173.2900  138.5600 C   0  0  2  0  0  3  0  0  0  0  0  0
  196.5500  174.4130  138.5900 C   0  0  2  0  0  3  0  0  0  0  0  0
  190.5390  177.4490  139.9630 C   0  0  0  0  0  2  0  0  0  0  0  0
  189.6180  177.4840  141.1640 C   0  0  0  0  0  2  0  0  0  0  0  0
  191.9960  177.2250  142.4530 O   0  0  0  0  0  0  0  0  0  0  0  0
  190.2960  175.2720  142.8450 O   0  0  0  0  0  1  0  0  0  0  0  0
  190.5240  176.9360  142.6360 P   0  0  2  0  0  0  0  0  0  0  0  0
  189.9320  177.7830  144.0140 O   0  0  0  0  0  0  0  0  0  0  0  0
  188.9530  177.2660  144.8690 C   0  0  0  0  0  0  0  0  0  0  0  0
  187.5240  177.1420  144.4570 C   0  0  0  0  0  1  0  0  0  0  0  0
  189.2850  176.8930  146.0230 O   0  0  0  0  0  0  0  0  0  0  0  0
  1  5  1  0  0  0  0
  2  5  1  0  0  0  0
  4  3  1  0  0  0  0
  4  2  2  0  0  0  0
  6 25  1  0  0  0  0
  6  3  2  0  0  0  0
  7  1  1  0  0  0  0
  8  7  2  0  0  0  0
  8  6  1  0  0  0  0
  9 10  1  0  0  0  0
 10 14  1  1  0  0  0
 10 13  1  0  0  0  0
 11  2  1  1  0  0  0
 11 13  1  0  0  0  0
 12  9  1  0  0  0  0
 12 11  1  0  0  0  0
 15 14  1  6  0  0  0
 15 20  1  0  0  0  0
 16 20  1  0  0  0  0
 16 17  1  0  0  0  0
 17 21  1  0  0  0  0
 18 19  1  0  0  0  0
 20 18  1  0  0  0  0
 21 19  1  0  0  0  0
 22 15  1  0  0  0  0
 22 24  1  0  0  0  0
 23 22  2  0  0  0  0
 25 27  1  0  0  0  0
 26 39  1  0  0  0  0
 27 28  1  0  0  0  0
 27 26  2  0  0  0  0
 29 30  1  0  0  0  0
 29 28  1  0  0  0  0
 30 31  1  0  0  0  0
 32 33  1  6  0  0  0
 32 35  1  0  0  0  0
 32 37  1  0  0  0  0
 33 36  1  0  0  0  0
 34 33  1  0  0  0  0
 35 31  1  6  0  0  0
 35 37  1  0  0  0  0
 35 38  1  0  0  0  0
 36 38  1  0  0  0  0
 37 38  1  0  0  0  0
 39 40  1  0  0  0  0
 40 43  1  0  0  0  0
 41 43  2  0  0  0  0
 43 42  1  0  0  0  0
 43 44  1  0  0  0  0
 44 45  1  0  0  0  0
 45 47  2  0  0  0  0
 46 45  1  0  0  0  0
M  END
>  <MODEL>
9

>  <REMARK>
 VINA RESULT:      -6.6      3.554     11.129
  Name = 
  16 active torsions:
  status: ('A' for Active; 'I' for Inactive)
    1  A    between atoms: C_4  and  C_33
    2  A    between atoms: C_5  and  O_21
    3  A    between atoms: C_6  and  C_23
    4  A    between atoms: C_9  and  C_22
    5  A    between atoms: C_9  and  C_33
    6  A    between atoms: N_12  and  C_18
    7  A    between atoms: C_13  and  C_36
    8  A    between atoms: C_13  and  C_40
    9  A    between atoms: O_21  and  P_42
   10  A    between atoms: C_28  and  C_33
   11  A    between atoms: C_32  and  C_35
   12  A    between atoms: C_32  and  O_46
   13  A    between atoms: C_36  and  O_46
   14  A    between atoms: N_39  and  C_41
   15  A    between atoms: C_41  and  C_45
   16  A    between atoms: P_42  and  C_45
                            x       y       z     vdW  Elec       q    Type
                         _______ _______ _______ _____ _____    ______ ____

>  <TORSDO>
F 16

$$$$
