=
 OpenBabel11042413163D

 70 79  0  0  1  0  0  0  0  0999 V2000
  184.5100  179.4570  138.3680 C   0  0  2  0  0  3  0  0  0  0  0  0
  185.1120  179.0140  137.0520 C   0  0  0  0  0  2  0  0  0  0  0  0
  185.9500  177.8180  137.4000 C   0  0  1  0  0  3  0  0  0  0  0  0
  184.9410  176.7600  138.4760 S   0  0  0  0  0  0  0  0  0  0  0  0
  183.9940  178.2050  139.0660 C   0  0  1  0  0  3  0  0  0  0  0  0
  183.3900  180.4780  138.1730 C   0  0  0  0  0  2  0  0  0  0  0  0
  182.0220  179.8120  138.2300 C   0  0  1  0  0  3  0  0  0  0  0  0
  181.1750  180.5420  139.0510 F   0  0  0  0  0  0  0  0  0  0  0  0
  181.4340  179.7110  136.8290 C   0  0  0  0  0  2  0  0  0  0  0  0
  180.2050  178.9880  136.8490 O   0  0  0  0  0  0  0  0  0  0  0  0
  180.0640  177.7340  137.4520 C   0  0  0  0  0  0  0  0  0  0  0  0
  178.9360  177.3380  137.8510 O   0  0  0  0  0  0  0  0  0  0  0  0
  180.4170  175.7880  135.5690 O   0  0  0  0  0  1  0  0  0  0  0  0
  180.2070  175.4400  139.2910 O   0  0  0  0  0  0  0  0  0  0  0  0
  181.1820  174.4110  137.3640 C   0  0  2  0  0  3  0  0  0  0  0  0
  181.3660  175.6960  136.5870 C   0  0  2  0  0  3  0  0  0  0  0  0
  181.2560  176.8310  137.6050 C   0  0  2  0  0  3  0  0  0  0  0  0
  181.3420  174.7410  138.8440 C   0  0  1  0  0  3  0  0  0  0  0  0
  181.3460  176.2180  139.0010 C   0  0  2  0  0  3  0  0  0  0  0  0
  183.2920  173.6970  134.6040 C   0  0  0  0  0  2  0  0  0  0  0  0
  182.4480  171.1270  135.6110 C   0  0  0  0  0  2  0  0  0  0  0  0
  183.9230  171.4930  135.8100 C   0  0  2  0  0  3  0  0  0  0  0  0
  183.3260  173.9810  136.1010 C   0  0  1  0  0  3  0  0  0  0  0  0
  181.4720  172.1480  136.2060 C   0  0  0  0  0  2  0  0  0  0  0  0
  182.1680  173.3360  136.8990 C   0  0  2  0  0  3  0  0  0  0  0  0
  184.2900  172.9650  135.4910 C   0  0  2  0  0  3  0  0  0  0  0  0
  186.1400  170.7870  135.2560 O   0  0  0  0  0  1  0  0  0  0  0  0
  184.7880  170.5400  135.0050 C   0  0  0  0  0  2  0  0  0  0  0  0
  186.4160  177.0970  136.1430 C   0  0  0  0  0  2  0  0  0  0  0  0
  187.2390  175.8540  136.4780 C   0  0  0  0  0  2  0  0  0  0  0  0
  190.1290  175.8860  135.3010 C   0  0  1  0  0  3  0  0  0  0  0  0
  191.5060  176.4740  135.7070 C   0  0  1  0  0  3  0  0  0  0  0  0
  190.1750  174.5020  135.0980 O   0  0  0  0  0  1  0  0  0  0  0  0
  188.3950  176.1860  137.4190 C   0  0  2  0  0  3  0  0  0  0  0  0
  191.0330  176.7460  137.1480 C   0  0  0  0  0  2  0  0  0  0  0  0
  189.6940  176.2390  136.7040 C   0  0  2  0  0  0  0  0  0  0  0  0
  189.3070  175.1120  137.4610 O   0  0  0  0  0  0  0  0  0  0  0  0
  192.7080  175.5200  135.5730 C   0  0  1  0  0  3  0  0  0  0  0  0
  194.0090  176.2540  135.5620 C   0  0  0  0  0  0  0  0  0  0  0  0
  194.9300  176.0890  136.5950 O   0  0  0  0  0  1  0  0  0  0  0  0
  194.2880  177.0090  134.5980 O   0  0  0  0  0  0  0  0  0  0  0  0
  193.7460  172.9840  135.5850 C   0  0  0  0  0  1  0  0  0  0  0  0
  192.7250  174.0320  136.6630 S   0  0  0  0  0  0  0  0  0  0  0  0
  184.1810  178.3480  140.5660 C   0  0  0  0  0  2  0  0  0  0  0  0
  185.3670  179.1420  140.8420 N   0  0  0  0  0  2  0  0  0  0  0  0
  191.4920  177.5440  143.2580 S   0  0  0  0  0  0  0  0  0  0  0  0
  188.1950  175.9400  143.3470 N   0  0  0  0  0  2  0  0  0  0  0  0
  191.3400  176.3120  144.5620 C   0  0  2  0  0  3  0  0  0  0  0  0
  190.3080  175.5440  144.4740 N   0  0  0  0  0  2  0  0  0  0  0  0
  190.2310  176.6060  142.3270 C   0  0  1  0  0  3  0  0  0  0  0  0
  187.8250  179.0240  140.5620 C   0  0  0  0  0  3  0  0  0  0  0  0
  189.5810  175.7340  143.3010 N   0  0  2  0  0  0  0  0  0  0  0  0
  189.0680  178.4570  140.8950 C   0  0  0  0  0  3  0  0  0  0  0  0
  186.6890  177.5330  142.1260 C   0  0  0  0  0  3  0  0  0  0  0  0
  189.0900  177.4420  141.8490 C   0  0  0  0  0  0  0  0  0  0  0  0
  187.9330  176.9860  142.4310 C   0  0  0  0  0  0  0  0  0  0  0  0
  186.6340  178.5640  141.1720 C   0  0  0  0  0  0  0  0  0  0  0  0
  192.2500  176.2340  145.7520 C   0  0  0  0  0  2  0  0  0  0  0  0
  191.6940  176.8510  147.0440 C   0  0  2  0  0  3  0  0  0  0  0  0
  193.2340  175.3320  148.3190 O   0  0  0  0  0  0  0  0  0  0  0  0
  192.5390  176.5330  148.2380 C   0  0  0  0  0  0  0  0  0  0  0  0
  192.5940  177.3480  149.1940 O   0  0  0  0  0  1  0  0  0  0  0  0
  190.2070  176.5910  147.2880 C   0  0  0  0  0  2  0  0  0  0  0  0
  188.9200  178.1880  148.6730 C   0  0  0  0  0  1  0  0  0  0  0  0
  189.4100  177.8870  147.2710 C   0  0  2  0  0  3  0  0  0  0  0  0
  187.0570  178.2380  146.6860 C   0  0  0  0  0  3  0  0  0  0  0  0
  188.2480  177.7620  146.3430 C   0  0  0  0  0  3  0  0  0  0  0  0
  185.4120  176.9970  145.5070 O   0  0  0  0  0  0  0  0  0  0  0  0
  185.2680  179.3550  145.2650 C   0  0  0  0  0  1  0  0  0  0  0  0
  185.8940  178.1230  145.8030 C   0  0  0  0  0  0  0  0  0  0  0  0
  1  6  1  6  0  0  0
  1  5  1  0  0  0  0
  2  3  1  0  0  0  0
  2  1  1  0  0  0  0
  3 29  1  6  0  0  0
  3  4  1  0  0  0  0
  4  5  1  0  0  0  0
  5 44  1  1  0  0  0
  6  7  1  0  0  0  0
  7  8  1  1  0  0  0
  9 10  1  0  0  0  0
  9  7  1  0  0  0  0
 10 11  1  0  0  0  0
 11 12  2  0  0  0  0
 15 25  1  6  0  0  0
 15 18  1  0  0  0  0
 16 13  1  6  0  0  0
 16 15  1  0  0  0  0
 16 17  1  0  0  0  0
 17 11  1  1  0  0  0
 17 19  1  0  0  0  0
 18 19  1  0  0  0  0
 18 14  1  1  0  0  0
 19 14  1  1  0  0  0
 21 22  1  0  0  0  0
 21 24  1  0  0  0  0
 22 28  1  6  0  0  0
 23 20  1  6  0  0  0
 23 25  1  0  0  0  0
 25 24  1  6  0  0  0
 26 20  1  6  0  0  0
 26 22  1  0  0  0  0
 26 23  1  0  0  0  0
 28 27  1  0  0  0  0
 29 30  1  0  0  0  0
 31 33  1  1  0  0  0
 31 32  1  0  0  0  0
 31 36  1  0  0  0  0
 32 38  1  1  0  0  0
 32 35  1  0  0  0  0
 34 30  1  6  0  0  0
 34 37  1  0  0  0  0
 36 35  1  1  0  0  0
 36 34  1  0  0  0  0
 36 37  1  0  0  0  0
 38 39  1  1  0  0  0
 38 43  1  0  0  0  0
 39 40  1  0  0  0  0
 41 39  2  0  0  0  0
 42 43  1  0  0  0  0
 44 45  1  0  0  0  0
 45 57  1  0  0  0  0
 46 48  1  0  0  0  0
 48 58  1  1  0  0  0
 49 48  1  0  0  0  0
 50 55  1  1  0  0  0
 50 46  1  0  0  0  0
 50 52  1  0  0  0  0
 51 53  2  0  0  0  0
 51 57  1  0  0  0  0
 52 47  1  1  0  0  0
 52 49  1  0  0  0  0
 53 55  1  0  0  0  0
 54 56  1  0  0  0  0
 55 56  2  0  0  0  0
 56 47  1  0  0  0  0
 57 54  2  0  0  0  0
 59 58  1  6  0  0  0
 59 63  1  0  0  0  0
 59 61  1  0  0  0  0
 61 60  2  0  0  0  0
 61 62  1  0  0  0  0
 65 63  1  0  0  0  0
 65 64  1  1  0  0  0
 67 66  2  0  0  0  0
 67 65  1  0  0  0  0
 68 70  2  0  0  0  0
 69 70  1  0  0  0  0
 70 66  1  0  0  0  0
M  END
>  <MODEL>
1

>  <REMARK>
 VINA RESULT:      -3.9      0.000      0.000
  Name = 
  24 active torsions:
  status: ('A' for Active; 'I' for Inactive)
    1  A    between atoms: C_1  and  C_25
    2  A    between atoms: C_1  and  C_34
    3  A    between atoms: C_1  and  C_62
    4  A    between atoms: C_4  and  C_29
    5  A    between atoms: C_4  and  C_33
    6  A    between atoms: C_6  and  C_8
    7  A    between atoms: N_7  and  C_36
    8  A    between atoms: N_7  and  C_69
    9  A    between atoms: C_8  and  C_11
   10  A    between atoms: C_8  and  S_48
   11  A    between atoms: C_9  and  C_44
   12  A    between atoms: C_12  and  O_27
   13  A    between atoms: C_12  and  C_41
   14  A    between atoms: C_18  and  C_62
   15  A    between atoms: C_21  and  C_61
   16  A    between atoms: C_26  and  C_29
   17  A    between atoms: O_27  and  C_53
   18  A    between atoms: C_31  and  C_34
   19  A    between atoms: C_31  and  C_58
   20  A    between atoms: C_32  and  C_44
   21  A    between atoms: C_32  and  C_53
   22  A    between atoms: C_36  and  C_65
   23  A    between atoms: C_40  and  C_67
   24  A    between atoms: C_51  and  C_57
                            x       y       z     vdW  Elec       q    Type
                         _______ _______ _______ _____ _____    ______ ____

>  <TORSDO>
F 24

$$$$
=
 OpenBabel11042413163D

 70 79  0  0  1  0  0  0  0  0999 V2000
  181.9390  179.6040  140.5480 C   0  0  2  0  0  3  0  0  0  0  0  0
  182.6330  179.1870  139.2690 C   0  0  0  0  0  2  0  0  0  0  0  0
  184.0710  179.0040  139.6560 C   0  0  1  0  0  3  0  0  0  0  0  0
  184.0860  178.0400  141.1940 S   0  0  0  0  0  0  0  0  0  0  0  0
  182.4340  178.6720  141.6460 C   0  0  1  0  0  3  0  0  0  0  0  0
  180.4180  179.5470  140.4220 C   0  0  0  0  0  2  0  0  0  0  0  0
  179.8920  180.6960  139.5730 C   0  0  1  0  0  3  0  0  0  0  0  0
  180.9350  181.5410  139.2240 F   0  0  0  0  0  0  0  0  0  0  0  0
  179.2170  180.1530  138.3210 C   0  0  0  0  0  2  0  0  0  0  0  0
  180.1410  180.0880  137.2360 O   0  0  0  0  0  0  0  0  0  0  0  0
  179.7670  179.7530  135.9310 C   0  0  0  0  0  0  0  0  0  0  0  0
  179.1190  180.5680  135.2200 O   0  0  0  0  0  0  0  0  0  0  0  0
  179.3900  177.5420  137.4890 O   0  0  0  0  0  1  0  0  0  0  0  0
  182.5220  178.7220  135.8100 O   0  0  0  0  0  0  0  0  0  0  0  0
  181.4300  176.7270  136.5490 C   0  0  2  0  0  3  0  0  0  0  0  0
  180.0240  177.2220  136.2880 C   0  0  2  0  0  3  0  0  0  0  0  0
  180.1600  178.4230  135.3510 C   0  0  2  0  0  3  0  0  0  0  0  0
  182.3420  177.3620  135.5050 C   0  0  1  0  0  3  0  0  0  0  0  0
  181.5850  178.4270  134.8000 C   0  0  2  0  0  3  0  0  0  0  0  0
  183.8000  174.1300  136.0810 C   0  0  0  0  0  2  0  0  0  0  0  0
  181.3100  173.0920  135.0540 C   0  0  0  0  0  2  0  0  0  0  0  0
  181.8400  172.4570  136.3440 C   0  0  2  0  0  3  0  0  0  0  0  0
  182.8340  174.7050  137.1110 C   0  0  1  0  0  3  0  0  0  0  0  0
  181.1220  174.6110  135.1440 C   0  0  0  0  0  2  0  0  0  0  0  0
  181.4920  175.1980  136.5210 C   0  0  2  0  0  3  0  0  0  0  0  0
  183.0320  173.1930  137.0050 C   0  0  2  0  0  3  0  0  0  0  0  0
  181.2440  170.4270  135.2270 O   0  0  0  0  0  1  0  0  0  0  0  0
  182.1900  171.0040  136.0790 C   0  0  0  0  0  2  0  0  0  0  0  0
  184.8550  178.3330  138.5390 C   0  0  0  0  0  2  0  0  0  0  0  0
  186.3620  178.4860  138.7340 C   0  0  0  0  0  2  0  0  0  0  0  0
  187.0550  175.8140  137.2790 C   0  0  1  0  0  3  0  0  0  0  0  0
  187.4330  175.3790  135.8380 C   0  0  1  0  0  3  0  0  0  0  0  0
  188.0100  175.4230  138.2250 O   0  0  0  0  0  1  0  0  0  0  0  0
  187.0950  178.5650  137.3970 C   0  0  2  0  0  3  0  0  0  0  0  0
  187.7250  176.8310  135.4120 C   0  0  0  0  0  2  0  0  0  0  0  0
  187.2860  177.2250  136.7890 C   0  0  2  0  0  0  0  0  0  0  0  0
  188.3260  177.8840  137.4800 O   0  0  0  0  0  0  0  0  0  0  0  0
  188.6180  174.4020  135.7210 C   0  0  1  0  0  3  0  0  0  0  0  0
  188.1670  172.9920  135.5200 C   0  0  0  0  0  0  0  0  0  0  0  0
  188.7390  171.9500  136.2450 O   0  0  0  0  0  1  0  0  0  0  0  0
  187.2430  172.7470  134.7040 O   0  0  0  0  0  0  0  0  0  0  0  0
  191.3470  174.1940  135.6000 C   0  0  0  0  0  1  0  0  0  0  0  0
  189.9990  174.8880  134.5980 S   0  0  0  0  0  0  0  0  0  0  0  0
  182.5300  179.4380  142.9540 C   0  0  0  0  0  2  0  0  0  0  0  0
  182.7780  178.5140  144.0490 N   0  0  0  0  0  2  0  0  0  0  0  0
  188.0290  177.2460  148.1380 S   0  0  0  0  0  0  0  0  0  0  0  0
  187.6300  177.6350  144.5130 N   0  0  0  0  0  2  0  0  0  0  0  0
  189.3890  176.5330  147.1970 C   0  0  2  0  0  3  0  0  0  0  0  0
  189.4290  176.8670  145.9520 N   0  0  0  0  0  2  0  0  0  0  0  0
  187.7760  178.4080  146.7520 C   0  0  1  0  0  3  0  0  0  0  0  0
  184.0210  178.9420  146.1480 C   0  0  0  0  0  3  0  0  0  0  0  0
  188.4810  177.8290  145.6110 N   0  0  2  0  0  0  0  0  0  0  0  0
  185.2190  178.9250  146.8860 C   0  0  0  0  0  3  0  0  0  0  0  0
  185.1750  178.0440  144.1940 C   0  0  0  0  0  3  0  0  0  0  0  0
  186.3700  178.4550  146.2560 C   0  0  0  0  0  0  0  0  0  0  0  0
  186.3470  178.0450  144.9460 C   0  0  0  0  0  0  0  0  0  0  0  0
  183.9960  178.5050  144.8030 C   0  0  0  0  0  0  0  0  0  0  0  0
  190.3490  175.5200  147.7460 C   0  0  0  0  0  2  0  0  0  0  0  0
  191.8250  175.7560  147.3900 C   0  0  2  0  0  3  0  0  0  0  0  0
  192.5880  177.7510  148.7100 O   0  0  0  0  0  0  0  0  0  0  0  0
  192.5910  176.3750  148.5180 C   0  0  0  0  0  0  0  0  0  0  0  0
  193.2730  175.6430  149.2800 O   0  0  0  0  0  1  0  0  0  0  0  0
  192.0540  176.4710  146.0580 C   0  0  0  0  0  2  0  0  0  0  0  0
  192.5430  174.4850  144.6630 C   0  0  0  0  0  1  0  0  0  0  0  0
  191.5710  175.6270  144.8880 C   0  0  2  0  0  3  0  0  0  0  0  0
  190.6360  176.1370  142.6830 C   0  0  0  0  0  3  0  0  0  0  0  0
  191.4770  176.4640  143.6570 C   0  0  0  0  0  3  0  0  0  0  0  0
  191.5430  177.1920  140.7580 O   0  0  0  0  0  0  0  0  0  0  0  0
  189.1950  177.4210  141.0260 C   0  0  0  0  0  1  0  0  0  0  0  0
  190.5270  176.9320  141.4560 C   0  0  0  0  0  0  0  0  0  0  0  0
  1  6  1  6  0  0  0
  1  5  1  0  0  0  0
  2  3  1  0  0  0  0
  2  1  1  0  0  0  0
  3 29  1  6  0  0  0
  3  4  1  0  0  0  0
  4  5  1  0  0  0  0
  5 44  1  1  0  0  0
  7  8  1  6  0  0  0
  7  6  1  0  0  0  0
  9  7  1  0  0  0  0
 10  9  1  0  0  0  0
 11 10  1  0  0  0  0
 12 11  2  0  0  0  0
 15 25  1  6  0  0  0
 16 15  1  0  0  0  0
 16 13  1  1  0  0  0
 17 11  1  1  0  0  0
 17 16  1  0  0  0  0
 18 14  1  1  0  0  0
 18 15  1  0  0  0  0
 19 17  1  0  0  0  0
 19 18  1  0  0  0  0
 19 14  1  1  0  0  0
 21 24  1  0  0  0  0
 21 22  1  0  0  0  0
 22 28  1  6  0  0  0
 22 26  1  0  0  0  0
 23 20  1  6  0  0  0
 25 24  1  6  0  0  0
 25 23  1  0  0  0  0
 26 20  1  6  0  0  0
 26 23  1  0  0  0  0
 27 28  1  0  0  0  0
 29 30  1  0  0  0  0
 31 33  1  1  0  0  0
 32 38  1  1  0  0  0
 32 31  1  0  0  0  0
 34 37  1  0  0  0  0
 34 30  1  1  0  0  0
 35 32  1  0  0  0  0
 36 35  1  6  0  0  0
 36 31  1  0  0  0  0
 36 34  1  0  0  0  0
 36 37  1  0  0  0  0
 38 43  1  6  0  0  0
 39 38  1  0  0  0  0
 39 40  1  0  0  0  0
 41 39  2  0  0  0  0
 43 42  1  0  0  0  0
 44 45  1  0  0  0  0
 45 57  1  0  0  0  0
 47 56  1  0  0  0  0
 48 58  1  6  0  0  0
 48 46  1  0  0  0  0
 49 48  1  0  0  0  0
 50 55  1  6  0  0  0
 50 46  1  0  0  0  0
 51 53  1  0  0  0  0
 52 47  1  6  0  0  0
 52 49  1  0  0  0  0
 52 50  1  0  0  0  0
 54 57  1  0  0  0  0
 54 56  2  0  0  0  0
 55 53  2  0  0  0  0
 56 55  1  0  0  0  0
 57 51  2  0  0  0  0
 59 63  1  6  0  0  0
 59 58  1  0  0  0  0
 59 61  1  0  0  0  0
 61 60  2  0  0  0  0
 61 62  1  0  0  0  0
 65 64  1  6  0  0  0
 65 63  1  0  0  0  0
 66 67  2  0  0  0  0
 67 65  1  0  0  0  0
 68 70  2  0  0  0  0
 69 70  1  0  0  0  0
 70 66  1  0  0  0  0
M  END
>  <MODEL>
2

>  <REMARK>
 VINA RESULT:      -3.9      2.404      4.030
  Name = 
  24 active torsions:
  status: ('A' for Active; 'I' for Inactive)
    1  A    between atoms: C_1  and  C_25
    2  A    between atoms: C_1  and  C_34
    3  A    between atoms: C_1  and  C_62
    4  A    between atoms: C_4  and  C_29
    5  A    between atoms: C_4  and  C_33
    6  A    between atoms: C_6  and  C_8
    7  A    between atoms: N_7  and  C_36
    8  A    between atoms: N_7  and  C_69
    9  A    between atoms: C_8  and  C_11
   10  A    between atoms: C_8  and  S_48
   11  A    between atoms: C_9  and  C_44
   12  A    between atoms: C_12  and  O_27
   13  A    between atoms: C_12  and  C_41
   14  A    between atoms: C_18  and  C_62
   15  A    between atoms: C_21  and  C_61
   16  A    between atoms: C_26  and  C_29
   17  A    between atoms: O_27  and  C_53
   18  A    between atoms: C_31  and  C_34
   19  A    between atoms: C_31  and  C_58
   20  A    between atoms: C_32  and  C_44
   21  A    between atoms: C_32  and  C_53
   22  A    between atoms: C_36  and  C_65
   23  A    between atoms: C_40  and  C_67
   24  A    between atoms: C_51  and  C_57
                            x       y       z     vdW  Elec       q    Type
                         _______ _______ _______ _____ _____    ______ ____

>  <TORSDO>
F 24

$$$$
=
 OpenBabel11042413163D

 70 79  0  0  1  0  0  0  0  0999 V2000
  186.9940  178.3130  137.5920 C   0  0  2  0  0  3  0  0  0  0  0  0
  185.7290  177.9660  136.8370 C   0  0  0  0  0  2  0  0  0  0  0  0
  186.1840  177.7020  135.4310 C   0  0  1  0  0  3  0  0  0  0  0  0
  187.6420  176.6270  135.5410 S   0  0  0  0  0  0  0  0  0  0  0  0
  188.0450  177.2840  137.1950 C   0  0  1  0  0  3  0  0  0  0  0  0
  186.7770  178.3220  139.1040 C   0  0  0  0  0  2  0  0  0  0  0  0
  185.4050  178.8770  139.4600 C   0  0  1  0  0  3  0  0  0  0  0  0
  185.2760  180.1700  138.9720 F   0  0  0  0  0  0  0  0  0  0  0  0
  184.3150  177.9870  138.8770 C   0  0  0  0  0  2  0  0  0  0  0  0
  183.2830  177.7590  139.8340 O   0  0  0  0  0  0  0  0  0  0  0  0
  181.9890  177.3610  139.4840 C   0  0  0  0  0  0  0  0  0  0  0  0
  181.4210  176.4170  140.0970 O   0  0  0  0  0  0  0  0  0  0  0  0
  182.4410  180.0390  139.2030 O   0  0  0  0  0  1  0  0  0  0  0  0
  179.1860  178.2450  139.6530 O   0  0  0  0  0  0  0  0  0  0  0  0
  180.1200  180.2140  138.6680 C   0  0  2  0  0  3  0  0  0  0  0  0
  181.4550  179.5900  138.3250 C   0  0  2  0  0  3  0  0  0  0  0  0
  181.2490  178.0770  138.3890 C   0  0  2  0  0  3  0  0  0  0  0  0
  179.0610  179.1230  138.5620 C   0  0  1  0  0  3  0  0  0  0  0  0
  179.7450  177.8110  138.4340 C   0  0  2  0  0  3  0  0  0  0  0  0
  180.7980  181.3370  135.3730 C   0  0  0  0  0  2  0  0  0  0  0  0
  180.5960  183.7300  136.9740 C   0  0  0  0  0  2  0  0  0  0  0  0
  179.4740  183.4840  135.9610 C   0  0  2  0  0  3  0  0  0  0  0  0
  179.6520  180.9370  136.2950 C   0  0  1  0  0  3  0  0  0  0  0  0
  180.7960  182.5800  137.9680 C   0  0  0  0  0  2  0  0  0  0  0  0
  179.8170  181.4080  137.7590 C   0  0  2  0  0  3  0  0  0  0  0  0
  179.4720  182.0830  135.2990 C   0  0  2  0  0  3  0  0  0  0  0  0
  180.8200  184.9970  134.6870 O   0  0  0  0  0  1  0  0  0  0  0  0
  179.5060  184.5740  134.9040 C   0  0  0  0  0  2  0  0  0  0  0  0
  185.0660  177.0860  134.6040 C   0  0  0  0  0  2  0  0  0  0  0  0
  183.9370  176.5580  135.4870 C   0  0  0  0  0  2  0  0  0  0  0  0
  181.3880  174.7570  135.4430 C   0  0  1  0  0  3  0  0  0  0  0  0
  181.0790  173.2420  135.3160 C   0  0  1  0  0  3  0  0  0  0  0  0
  180.8400  175.3220  136.6000 O   0  0  0  0  0  1  0  0  0  0  0  0
  184.1030  175.0680  135.7780 C   0  0  2  0  0  3  0  0  0  0  0  0
  182.5450  172.8590  135.6000 C   0  0  0  0  0  2  0  0  0  0  0  0
  182.8230  174.3300  135.6450 C   0  0  2  0  0  0  0  0  0  0  0  0
  183.3380  174.7070  136.9040 O   0  0  0  0  0  0  0  0  0  0  0  0
  180.0430  172.6840  136.3100 C   0  0  1  0  0  3  0  0  0  0  0  0
  179.5430  171.3360  135.9020 C   0  0  0  0  0  0  0  0  0  0  0  0
  179.7050  170.8800  134.5960 O   0  0  0  0  0  0  0  0  0  0  0  0
  178.9920  170.5960  136.7540 O   0  0  0  0  0  1  0  0  0  0  0  0
  178.9310  173.6190  138.6330 C   0  0  0  0  0  1  0  0  0  0  0  0
  180.4590  172.7890  138.1040 S   0  0  0  0  0  0  0  0  0  0  0  0
  189.4110  177.9470  137.1530 C   0  0  0  0  0  2  0  0  0  0  0  0
  190.4240  177.0200  137.6300 N   0  0  0  0  0  2  0  0  0  0  0  0
  191.9310  178.1660  144.1350 S   0  0  0  0  0  0  0  0  0  0  0  0
  190.1120  175.5330  142.3440 N   0  0  0  0  0  2  0  0  0  0  0  0
  190.8380  177.2100  145.2010 C   0  0  2  0  0  3  0  0  0  0  0  0
  190.3810  176.1220  144.6840 N   0  0  0  0  0  2  0  0  0  0  0  0
  192.0530  176.6910  143.0640 C   0  0  1  0  0  3  0  0  0  0  0  0
  192.0320  177.7400  139.3700 C   0  0  0  0  0  3  0  0  0  0  0  0
  190.9350  175.8300  143.4390 N   0  0  2  0  0  0  0  0  0  0  0  0
  192.4830  177.7220  140.7020 C   0  0  0  0  0  3  0  0  0  0  0  0
  190.1910  176.2420  139.9380 C   0  0  0  0  0  3  0  0  0  0  0  0
  191.7640  176.9660  141.6270 C   0  0  0  0  0  0  0  0  0  0  0  0
  190.6630  176.2370  141.2480 C   0  0  0  0  0  0  0  0  0  0  0  0
  190.8900  177.0000  138.9830 C   0  0  0  0  0  0  0  0  0  0  0  0
  190.3640  177.6730  146.5470 C   0  0  0  0  0  2  0  0  0  0  0  0
  188.9580  178.2890  146.5710 C   0  0  2  0  0  3  0  0  0  0  0  0
  187.1060  178.1570  148.2620 O   0  0  0  0  0  1  0  0  0  0  0  0
  188.0080  177.5090  147.4270 C   0  0  0  0  0  0  0  0  0  0  0  0
  188.0500  176.2520  147.4140 O   0  0  0  0  0  0  0  0  0  0  0  0
  188.3790  178.6130  145.1930 C   0  0  0  0  0  2  0  0  0  0  0  0
  187.6770  177.1050  143.3590 C   0  0  0  0  0  1  0  0  0  0  0  0
  187.3560  177.5710  144.7660 C   0  0  2  0  0  3  0  0  0  0  0  0
  185.2220  178.1610  143.7190 C   0  0  0  0  0  3  0  0  0  0  0  0
  185.9830  178.1540  144.8070 C   0  0  0  0  0  3  0  0  0  0  0  0
  182.9860  178.3130  142.9340 O   0  0  0  0  0  0  0  0  0  0  0  0
  183.5480  179.8140  144.6860 C   0  0  0  0  0  1  0  0  0  0  0  0
  183.8730  178.7340  143.7230 C   0  0  0  0  0  0  0  0  0  0  0  0
  1  6  1  1  0  0  0
  2  1  1  0  0  0  0
  3 29  1  6  0  0  0
  3  4  1  0  0  0  0
  3  2  1  0  0  0  0
  4  5  1  0  0  0  0
  5 44  1  6  0  0  0
  5  1  1  0  0  0  0
  6  7  1  0  0  0  0
  7  8  1  6  0  0  0
  9  7  1  0  0  0  0
  9 10  1  0  0  0  0
 11 10  1  0  0  0  0
 11 12  2  0  0  0  0
 15 25  1  6  0  0  0
 16 17  1  0  0  0  0
 16 15  1  0  0  0  0
 16 13  1  1  0  0  0
 17 19  1  0  0  0  0
 17 11  1  1  0  0  0
 18 15  1  0  0  0  0
 18 14  1  1  0  0  0
 19 18  1  0  0  0  0
 19 14  1  1  0  0  0
 21 24  1  0  0  0  0
 22 28  1  6  0  0  0
 22 21  1  0  0  0  0
 23 20  1  6  0  0  0
 23 25  1  0  0  0  0
 25 24  1  6  0  0  0
 26 20  1  6  0  0  0
 26 22  1  0  0  0  0
 26 23  1  0  0  0  0
 27 28  1  0  0  0  0
 29 30  1  0  0  0  0
 31 36  1  0  0  0  0
 31 33  1  1  0  0  0
 32 31  1  0  0  0  0
 32 35  1  0  0  0  0
 32 38  1  1  0  0  0
 34 30  1  6  0  0  0
 34 37  1  0  0  0  0
 36 35  1  6  0  0  0
 36 34  1  0  0  0  0
 36 37  1  0  0  0  0
 38 39  1  6  0  0  0
 38 43  1  0  0  0  0
 39 41  1  0  0  0  0
 40 39  2  0  0  0  0
 43 42  1  0  0  0  0
 44 45  1  0  0  0  0
 45 57  1  0  0  0  0
 46 48  1  0  0  0  0
 48 58  1  6  0  0  0
 49 48  1  0  0  0  0
 50 55  1  6  0  0  0
 50 52  1  0  0  0  0
 50 46  1  0  0  0  0
 51 53  1  0  0  0  0
 52 47  1  6  0  0  0
 52 49  1  0  0  0  0
 53 55  2  0  0  0  0
 54 56  2  0  0  0  0
 56 55  1  0  0  0  0
 56 47  1  0  0  0  0
 57 51  2  0  0  0  0
 57 54  1  0  0  0  0
 58 59  1  0  0  0  0
 59 63  1  6  0  0  0
 59 61  1  0  0  0  0
 61 60  1  0  0  0  0
 62 61  2  0  0  0  0
 65 64  1  6  0  0  0
 65 67  1  0  0  0  0
 65 63  1  0  0  0  0
 66 70  1  0  0  0  0
 66 67  2  0  0  0  0
 68 70  2  0  0  0  0
 70 69  1  0  0  0  0
M  END
>  <MODEL>
3

>  <REMARK>
 VINA RESULT:      -3.4      3.357      7.283
  Name = 
  24 active torsions:
  status: ('A' for Active; 'I' for Inactive)
    1  A    between atoms: C_1  and  C_25
    2  A    between atoms: C_1  and  C_34
    3  A    between atoms: C_1  and  C_62
    4  A    between atoms: C_4  and  C_29
    5  A    between atoms: C_4  and  C_33
    6  A    between atoms: C_6  and  C_8
    7  A    between atoms: N_7  and  C_36
    8  A    between atoms: N_7  and  C_69
    9  A    between atoms: C_8  and  C_11
   10  A    between atoms: C_8  and  S_48
   11  A    between atoms: C_9  and  C_44
   12  A    between atoms: C_12  and  O_27
   13  A    between atoms: C_12  and  C_41
   14  A    between atoms: C_18  and  C_62
   15  A    between atoms: C_21  and  C_61
   16  A    between atoms: C_26  and  C_29
   17  A    between atoms: O_27  and  C_53
   18  A    between atoms: C_31  and  C_34
   19  A    between atoms: C_31  and  C_58
   20  A    between atoms: C_32  and  C_44
   21  A    between atoms: C_32  and  C_53
   22  A    between atoms: C_36  and  C_65
   23  A    between atoms: C_40  and  C_67
   24  A    between atoms: C_51  and  C_57
                            x       y       z     vdW  Elec       q    Type
                         _______ _______ _______ _____ _____    ______ ____

>  <TORSDO>
F 24

$$$$
=
 OpenBabel11042413163D

 70 79  0  0  1  0  0  0  0  0999 V2000
  185.9940  177.4940  142.7650 C   0  0  2  0  0  3  0  0  0  0  0  0
  185.3630  178.1400  143.9800 C   0  0  0  0  0  2  0  0  0  0  0  0
  186.4800  178.2500  144.9770 C   0  0  1  0  0  3  0  0  0  0  0  0
  187.9170  178.9150  144.0900 S   0  0  0  0  0  0  0  0  0  0  0  0
  187.3160  178.2090  142.5180 C   0  0  1  0  0  3  0  0  0  0  0  0
  185.0890  177.5700  141.5370 C   0  0  0  0  0  2  0  0  0  0  0  0
  185.0260  178.9890  140.9880 C   0  0  1  0  0  3  0  0  0  0  0  0
  185.6050  179.0340  139.7280 F   0  0  0  0  0  0  0  0  0  0  0  0
  183.5790  179.4570  140.9160 C   0  0  0  0  0  2  0  0  0  0  0  0
  182.6900  178.3430  140.8540 O   0  0  0  0  0  0  0  0  0  0  0  0
  182.3720  177.6840  139.6620 C   0  0  0  0  0  0  0  0  0  0  0  0
  182.1000  178.3390  138.6200 O   0  0  0  0  0  0  0  0  0  0  0  0
  184.0160  176.5030  137.8300 O   0  0  0  0  0  1  0  0  0  0  0  0
  180.3310  176.0470  138.3120 O   0  0  0  0  0  0  0  0  0  0  0  0
  182.2780  174.8890  137.5460 C   0  0  2  0  0  3  0  0  0  0  0  0
  183.2370  175.5620  138.5040 C   0  0  2  0  0  3  0  0  0  0  0  0
  182.3780  176.1820  139.6050 C   0  0  2  0  0  3  0  0  0  0  0  0
  180.9300  174.7770  138.2490 C   0  0  1  0  0  3  0  0  0  0  0  0
  180.9710  175.5980  139.4850 C   0  0  2  0  0  3  0  0  0  0  0  0
  185.0430  173.5190  135.7970 C   0  0  0  0  0  2  0  0  0  0  0  0
  182.8230  171.7690  135.2160 C   0  0  0  0  0  2  0  0  0  0  0  0
  183.9350  171.1990  136.1030 C   0  0  2  0  0  3  0  0  0  0  0  0
  184.3570  173.5090  137.1580 C   0  0  1  0  0  3  0  0  0  0  0  0
  182.2030  173.0620  135.7560 C   0  0  0  0  0  2  0  0  0  0  0  0
  182.8120  173.5270  137.0940 C   0  0  2  0  0  3  0  0  0  0  0  0
  184.9790  172.2290  136.6020 C   0  0  2  0  0  3  0  0  0  0  0  0
  186.0050  170.2220  135.4080 O   0  0  0  0  0  1  0  0  0  0  0  0
  184.6180  170.0540  135.3760 C   0  0  0  0  0  2  0  0  0  0  0  0
  186.0700  179.1170  146.1580 C   0  0  0  0  0  2  0  0  0  0  0  0
  186.0100  178.3120  147.4550 C   0  0  0  0  0  2  0  0  0  0  0  0
  188.8990  177.3010  146.8450 C   0  0  1  0  0  3  0  0  0  0  0  0
  190.3420  177.6910  147.2590 C   0  0  1  0  0  3  0  0  0  0  0  0
  188.6030  175.9620  147.1250 O   0  0  0  0  0  1  0  0  0  0  0  0
  187.1300  178.7110  148.4140 C   0  0  2  0  0  3  0  0  0  0  0  0
  189.8350  178.5640  148.4240 C   0  0  0  0  0  2  0  0  0  0  0  0
  188.4540  178.2250  147.9540 C   0  0  2  0  0  0  0  0  0  0  0  0
  187.7260  177.5610  148.9660 O   0  0  0  0  0  0  0  0  0  0  0  0
  191.2640  176.5240  147.6580 C   0  0  1  0  0  3  0  0  0  0  0  0
  191.9370  175.9100  146.4740 C   0  0  0  0  0  0  0  0  0  0  0  0
  192.4420  174.6130  146.5330 O   0  0  0  0  0  1  0  0  0  0  0  0
  192.0260  176.5610  145.4030 O   0  0  0  0  0  0  0  0  0  0  0  0
  193.8580  175.9790  148.3520 C   0  0  0  0  0  1  0  0  0  0  0  0
  192.4100  176.8050  149.0760 S   0  0  0  0  0  0  0  0  0  0  0  0
  188.3370  177.2160  141.9910 C   0  0  0  0  0  2  0  0  0  0  0  0
  188.3650  177.2610  140.5380 N   0  0  0  0  0  2  0  0  0  0  0  0
  194.0460  175.2260  137.4570 S   0  0  0  0  0  0  0  0  0  0  0  0
  190.7760  176.4140  136.2950 N   0  0  0  0  0  2  0  0  0  0  0  0
  193.6960  174.7770  135.7480 C   0  0  2  0  0  3  0  0  0  0  0  0
  192.6900  175.3840  135.2160 N   0  0  0  0  0  2  0  0  0  0  0  0
  192.9440  176.6650  137.2260 C   0  0  1  0  0  3  0  0  0  0  0  0
  190.8370  177.2320  140.3860 C   0  0  0  0  0  3  0  0  0  0  0  0
  192.1530  176.3760  136.0330 N   0  0  2  0  0  0  0  0  0  0  0  0
  192.0150  177.0770  139.6320 C   0  0  0  0  0  3  0  0  0  0  0  0
  189.4750  176.8270  138.4010 C   0  0  0  0  0  3  0  0  0  0  0  0
  191.8900  176.7900  138.2750 C   0  0  0  0  0  0  0  0  0  0  0  0
  190.6570  176.6860  137.6790 C   0  0  0  0  0  0  0  0  0  0  0  0
  189.5670  177.1110  139.7750 C   0  0  0  0  0  0  0  0  0  0  0  0
  194.4110  173.6880  135.0030 C   0  0  0  0  0  2  0  0  0  0  0  0
  194.0720  172.2580  135.4480 C   0  0  2  0  0  3  0  0  0  0  0  0
  191.8460  171.4680  134.5950 O   0  0  0  0  0  0  0  0  0  0  0  0
  192.5990  172.0460  135.6110 C   0  0  0  0  0  0  0  0  0  0  0  0
  192.0300  172.4250  136.6670 O   0  0  0  0  0  1  0  0  0  0  0  0
  194.8760  171.7550  136.6480 C   0  0  0  0  0  2  0  0  0  0  0  0
  196.9670  170.5060  136.2030 C   0  0  0  0  0  1  0  0  0  0  0  0
  196.3720  171.8860  136.4030 C   0  0  2  0  0  3  0  0  0  0  0  0
  197.2310  173.8680  137.5580 C   0  0  0  0  0  3  0  0  0  0  0  0
  197.0250  172.5560  137.5660 C   0  0  0  0  0  3  0  0  0  0  0  0
  199.0820  174.9190  138.6090 O   0  0  0  0  0  0  0  0  0  0  0  0
  197.0940  174.8400  139.9040 C   0  0  0  0  0  1  0  0  0  0  0  0
  197.8780  174.5550  138.6790 C   0  0  0  0  0  0  0  0  0  0  0  0
  1  6  1  6  0  0  0
  1  2  1  0  0  0  0
  2  3  1  0  0  0  0
  3 29  1  1  0  0  0
  4  3  1  0  0  0  0
  5 44  1  1  0  0  0
  5  1  1  0  0  0  0
  5  4  1  0  0  0  0
  7  8  1  6  0  0  0
  7  6  1  0  0  0  0
  9  7  1  0  0  0  0
 10  9  1  0  0  0  0
 11 10  1  0  0  0  0
 12 11  2  0  0  0  0
 15 25  1  1  0  0  0
 15 18  1  0  0  0  0
 15 16  1  0  0  0  0
 16 13  1  6  0  0  0
 16 17  1  0  0  0  0
 17 11  1  6  0  0  0
 18 14  1  6  0  0  0
 18 19  1  0  0  0  0
 19 14  1  6  0  0  0
 19 17  1  0  0  0  0
 21 24  1  0  0  0  0
 21 22  1  0  0  0  0
 22 28  1  6  0  0  0
 22 26  1  0  0  0  0
 23 20  1  6  0  0  0
 25 24  1  6  0  0  0
 25 23  1  0  0  0  0
 26 20  1  6  0  0  0
 26 23  1  0  0  0  0
 28 27  1  0  0  0  0
 29 30  1  0  0  0  0
 31 33  1  1  0  0  0
 31 32  1  0  0  0  0
 31 36  1  0  0  0  0
 32 38  1  1  0  0  0
 32 35  1  0  0  0  0
 34 30  1  6  0  0  0
 34 37  1  0  0  0  0
 36 34  1  0  0  0  0
 36 35  1  1  0  0  0
 36 37  1  0  0  0  0
 38 39  1  6  0  0  0
 38 43  1  0  0  0  0
 39 40  1  0  0  0  0
 41 39  2  0  0  0  0
 42 43  1  0  0  0  0
 45 44  1  0  0  0  0
 47 56  1  0  0  0  0
 48 58  1  1  0  0  0
 48 46  1  0  0  0  0
 49 48  1  0  0  0  0
 50 46  1  1  0  0  0
 50 55  1  0  0  0  0
 52 49  1  1  0  0  0
 52 47  1  0  0  0  0
 52 50  1  0  0  0  0
 53 51  2  0  0  0  0
 54 57  2  0  0  0  0
 55 53  1  0  0  0  0
 56 55  2  0  0  0  0
 56 54  1  0  0  0  0
 57 51  1  0  0  0  0
 57 45  1  0  0  0  0
 59 58  1  1  0  0  0
 59 61  1  0  0  0  0
 59 63  1  0  0  0  0
 60 61  2  0  0  0  0
 61 62  1  0  0  0  0
 65 64  1  1  0  0  0
 65 63  1  0  0  0  0
 65 67  1  0  0  0  0
 66 67  2  0  0  0  0
 66 70  1  0  0  0  0
 68 70  2  0  0  0  0
 70 69  1  0  0  0  0
M  END
>  <MODEL>
4

>  <REMARK>
 VINA RESULT:      -2.4      2.934      8.810
  Name = 
  24 active torsions:
  status: ('A' for Active; 'I' for Inactive)
    1  A    between atoms: C_1  and  C_25
    2  A    between atoms: C_1  and  C_34
    3  A    between atoms: C_1  and  C_62
    4  A    between atoms: C_4  and  C_29
    5  A    between atoms: C_4  and  C_33
    6  A    between atoms: C_6  and  C_8
    7  A    between atoms: N_7  and  C_36
    8  A    between atoms: N_7  and  C_69
    9  A    between atoms: C_8  and  C_11
   10  A    between atoms: C_8  and  S_48
   11  A    between atoms: C_9  and  C_44
   12  A    between atoms: C_12  and  O_27
   13  A    between atoms: C_12  and  C_41
   14  A    between atoms: C_18  and  C_62
   15  A    between atoms: C_21  and  C_61
   16  A    between atoms: C_26  and  C_29
   17  A    between atoms: O_27  and  C_53
   18  A    between atoms: C_31  and  C_34
   19  A    between atoms: C_31  and  C_58
   20  A    between atoms: C_32  and  C_44
   21  A    between atoms: C_32  and  C_53
   22  A    between atoms: C_36  and  C_65
   23  A    between atoms: C_40  and  C_67
   24  A    between atoms: C_51  and  C_57
                            x       y       z     vdW  Elec       q    Type
                         _______ _______ _______ _____ _____    ______ ____

>  <TORSDO>
F 24

$$$$
=
 OpenBabel11042413163D

 70 80  0  0  1  0  0  0  0  0999 V2000
  182.2200  174.7070  135.2480 C   0  0  2  0  0  3  0  0  0  0  0  0
  183.7290  174.6460  135.3460 C   0  0  2  0  0  3  0  0  0  0  0  0
  184.1850  176.0580  135.1230 C   0  0  1  0  0  3  0  0  0  0  0  0
  183.1320  177.1210  136.1500 S   0  0  0  0  0  0  0  0  0  0  0  0
  181.7700  175.9080  136.0710 C   0  0  1  0  0  3  0  0  0  0  0  0
  181.5590  173.4220  135.7430 C   0  0  0  0  0  2  0  0  0  0  0  0
  182.5980  172.3580  136.0660 C   0  0  1  0  0  3  0  0  0  0  0  0
  182.2350  171.1510  135.4850 F   0  0  0  0  0  0  0  0  0  0  0  0
  183.9660  172.7930  135.5580 C   0  0  2  0  0  3  0  0  0  0  0  0
  185.0000  172.0230  136.1680 O   0  0  0  0  0  0  0  0  0  0  0  0
  186.2170  172.5710  136.5840 C   0  0  0  0  0  0  0  0  0  0  0  0
  186.2560  173.4060  137.5270 O   0  0  0  0  0  0  0  0  0  0  0  0
  188.4930  172.6690  138.0900 O   0  0  0  0  0  1  0  0  0  0  0  0
  187.8110  174.2510  134.7660 O   0  0  0  0  0  0  0  0  0  0  0  0
  189.5960  173.3710  136.0920 C   0  0  2  0  0  3  0  0  0  0  0  0
  188.7650  172.3050  136.7710 C   0  0  2  0  0  3  0  0  0  0  0  0
  187.5010  172.1450  135.9270 C   0  0  2  0  0  3  0  0  0  0  0  0
  189.0360  173.5660  134.6880 C   0  0  1  0  0  3  0  0  0  0  0  0
  187.7360  172.8540  134.5940 C   0  0  2  0  0  3  0  0  0  0  0  0
  192.7790  174.9240  135.8950 C   0  0  0  0  0  2  0  0  0  0  0  0
  193.0950  172.3600  134.6080 C   0  0  0  0  0  2  0  0  0  0  0  0
  193.8090  172.5480  135.9500 C   0  0  2  0  0  3  0  0  0  0  0  0
  191.9150  174.0650  136.8110 C   0  0  1  0  0  3  0  0  0  0  0  0
  191.5840  172.6110  134.6700 C   0  0  0  0  0  2  0  0  0  0  0  0
  191.0800  172.9910  136.0770 C   0  0  2  0  0  3  0  0  0  0  0  0
  193.4230  173.8280  136.7340 C   0  0  2  0  0  3  0  0  0  0  0  0
  195.7530  173.6560  135.1040 O   0  0  0  0  0  1  0  0  0  0  0  0
  195.3100  172.4880  135.7310 C   0  0  0  0  0  2  0  0  0  0  0  0
  185.6630  176.2110  135.4480 C   0  0  0  0  0  2  0  0  0  0  0  0
  186.0360  177.6700  135.7070 C   0  0  0  0  0  2  0  0  0  0  0  0
  187.8920  177.1000  138.1510 C   0  0  1  0  0  3  0  0  0  0  0  0
  189.4030  176.8410  138.3830 C   0  0  1  0  0  3  0  0  0  0  0  0
  187.4100  178.1790  138.9020 O   0  0  0  0  0  1  0  0  0  0  0  0
  187.5360  177.9020  135.5410 C   0  0  2  0  0  3  0  0  0  0  0  0
  189.7680  177.3440  136.9730 C   0  0  0  0  0  2  0  0  0  0  0  0
  188.2950  177.5160  136.7550 C   0  0  2  0  0  0  0  0  0  0  0  0
  187.9820  178.8620  136.4700 O   0  0  0  0  0  0  0  0  0  0  0  0
  190.0450  177.6140  139.5500 C   0  0  1  0  0  3  0  0  0  0  0  0
  189.2590  177.4800  140.8130 C   0  0  0  0  0  0  0  0  0  0  0  0
  189.2380  178.5080  141.7530 O   0  0  0  0  0  1  0  0  0  0  0  0
  188.5880  176.4380  141.0190 O   0  0  0  0  0  0  0  0  0  0  0  0
  191.8540  177.6000  141.6080 C   0  0  0  0  0  1  0  0  0  0  0  0
  191.8610  177.4010  139.8010 S   0  0  0  0  0  0  0  0  0  0  0  0
  180.5630  176.5500  135.4100 C   0  0  0  0  0  2  0  0  0  0  0  0
  179.9420  177.4910  136.3260 N   0  0  0  0  0  2  0  0  0  0  0  0
  183.0550  177.8160  142.3350 S   0  0  0  0  0  0  0  0  0  0  0  0
  183.5640  179.4400  139.0860 N   0  0  0  0  0  2  0  0  0  0  0  0
  184.7080  178.5040  142.1390 C   0  0  2  0  0  3  0  0  0  0  0  0
  184.8550  179.3020  141.1370 N   0  0  0  0  0  2  0  0  0  0  0  0
  182.4680  179.0860  141.1610 C   0  0  1  0  0  3  0  0  0  0  0  0
  179.8400  177.5820  138.7990 C   0  0  0  0  0  3  0  0  0  0  0  0
  183.6600  179.5810  140.4780 N   0  0  2  0  0  0  0  0  0  0  0  0
  180.4130  177.9310  140.0350 C   0  0  0  0  0  3  0  0  0  0  0  0
  181.7810  178.4660  137.6130 C   0  0  0  0  0  3  0  0  0  0  0  0
  181.6690  178.5340  140.0280 C   0  0  0  0  0  0  0  0  0  0  0  0
  182.3210  178.8060  138.8510 C   0  0  0  0  0  0  0  0  0  0  0  0
  180.5180  177.8500  137.5870 C   0  0  0  0  0  0  0  0  0  0  0  0
  185.8870  178.1060  142.9770 C   0  0  0  0  0  2  0  0  0  0  0  0
  185.7270  178.3380  144.4860 C   0  0  2  0  0  3  0  0  0  0  0  0
  184.6650  180.6100  144.3690 O   0  0  0  0  0  0  0  0  0  0  0  0
  184.6160  179.2910  144.8020 C   0  0  0  0  0  0  0  0  0  0  0  0
  183.6420  178.9010  145.4960 O   0  0  0  0  0  1  0  0  0  0  0  0
  187.0240  178.6800  145.2220 C   0  0  0  0  0  2  0  0  0  0  0  0
  186.9160  177.6340  147.4620 C   0  0  0  0  0  1  0  0  0  0  0  0
  187.5020  177.5110  146.0690 C   0  0  2  0  0  3  0  0  0  0  0  0
  189.6220  176.7150  147.0030 C   0  0  0  0  0  3  0  0  0  0  0  0
  188.9920  177.5070  146.1430 C   0  0  0  0  0  3  0  0  0  0  0  0
  191.6690  177.1710  148.1160 O   0  0  0  0  0  0  0  0  0  0  0  0
  191.8790  176.0870  146.0150 C   0  0  0  0  0  1  0  0  0  0  0  0
  191.0830  176.6940  147.1070 C   0  0  0  0  0  0  0  0  0  0  0  0
  1  2  1  0  0  0  0
  1  6  1  1  0  0  0
  1  5  1  0  0  0  0
  2  9  1  0  0  0  0
  3  2  1  0  0  0  0
  3 29  1  0  0  0  0
  3  4  1  0  0  0  0
  5  4  1  0  0  0  0
  6  7  1  0  0  0  0
  8  7  1  0  0  0  0
  9  7  1  0  0  0  0
  9 10  1  0  0  0  0
 10 11  1  0  0  0  0
 11 12  2  0  0  0  0
 15 16  1  0  0  0  0
 16 13  1  0  0  0  0
 17 11  1  0  0  0  0
 17 16  1  0  0  0  0
 18 14  1  0  0  0  0
 18 15  1  0  0  0  0
 19 18  1  0  0  0  0
 19 14  1  0  0  0  0
 19 17  1  0  0  0  0
 20 26  1  0  0  0  0
 20 23  1  0  0  0  0
 21 24  1  0  0  0  0
 21 22  1  0  0  0  0
 22 26  1  0  0  0  0
 24 25  1  0  0  0  0
 25 15  1  0  0  0  0
 25 23  1  0  0  0  0
 26 23  1  0  0  0  0
 27 28  1  0  0  0  0
 28 22  1  0  0  0  0
 29 30  1  0  0  0  0
 31 32  1  0  0  0  0
 31 33  1  0  0  0  0
 32 38  1  0  0  0  0
 34 30  1  0  0  0  0
 34 37  1  0  0  0  0
 34 36  1  0  0  0  0
 35 32  1  0  0  0  0
 36 35  1  0  0  0  0
 36 31  1  0  0  0  0
 37 36  1  0  0  0  0
 38 43  1  0  0  0  0
 38 39  1  0  0  0  0
 39 41  2  0  0  0  0
 39 40  1  0  0  0  0
 43 42  1  0  0  0  0
 44  5  1  0  0  0  0
 44 45  1  0  0  0  0
 45 57  1  0  0  0  0
 47 52  1  0  0  0  0
 48 46  1  0  0  0  0
 48 58  1  0  0  0  0
 49 48  1  0  0  0  0
 50 46  1  0  0  0  0
 51 53  1  0  0  0  0
 52 49  1  0  0  0  0
 52 50  1  0  0  0  0
 54 56  2  0  0  0  0
 55 53  2  0  0  0  0
 55 50  1  0  0  0  0
 56 47  1  0  0  0  0
 56 55  1  0  0  0  0
 57 54  1  0  0  0  0
 57 51  2  0  0  0  0
 58 59  1  0  0  0  0
 59 61  1  0  0  0  0
 59 63  1  0  0  0  0
 60 61  2  0  0  0  0
 61 62  1  0  0  0  0
 63 65  1  0  0  0  0
 65 67  1  0  0  0  0
 65 64  1  0  0  0  0
 66 70  1  0  0  0  0
 67 66  2  0  0  0  0
 69 70  1  0  0  0  0
 70 68  2  0  0  0  0
M  END
>  <MODEL>
5

>  <REMARK>
 VINA RESULT:      -2.1      3.044      7.302
  Name = 
  24 active torsions:
  status: ('A' for Active; 'I' for Inactive)
    1  A    between atoms: C_1  and  C_25
    2  A    between atoms: C_1  and  C_34
    3  A    between atoms: C_1  and  C_62
    4  A    between atoms: C_4  and  C_29
    5  A    between atoms: C_4  and  C_33
    6  A    between atoms: C_6  and  C_8
    7  A    between atoms: N_7  and  C_36
    8  A    between atoms: N_7  and  C_69
    9  A    between atoms: C_8  and  C_11
   10  A    between atoms: C_8  and  S_48
   11  A    between atoms: C_9  and  C_44
   12  A    between atoms: C_12  and  O_27
   13  A    between atoms: C_12  and  C_41
   14  A    between atoms: C_18  and  C_62
   15  A    between atoms: C_21  and  C_61
   16  A    between atoms: C_26  and  C_29
   17  A    between atoms: O_27  and  C_53
   18  A    between atoms: C_31  and  C_34
   19  A    between atoms: C_31  and  C_58
   20  A    between atoms: C_32  and  C_44
   21  A    between atoms: C_32  and  C_53
   22  A    between atoms: C_36  and  C_65
   23  A    between atoms: C_40  and  C_67
   24  A    between atoms: C_51  and  C_57
                            x       y       z     vdW  Elec       q    Type
                         _______ _______ _______ _____ _____    ______ ____

>  <TORSDO>
F 24

$$$$
