=
 OpenBabel11042412573D

 42 45  0  0  1  0  0  0  0  0999 V2000
  187.5090  177.6770  145.6780 C   0  0  0  0  0  0  0  0  0  0  0  0
  183.9070  179.0330  145.6910 N   0  0  0  0  0  0  0  0  0  0  0  0
  183.4840  178.9090  144.4660 C   0  0  0  0  0  0  0  0  0  0  0  0
  186.9110  177.5910  144.4000 C   0  0  0  0  0  0  0  0  0  0  0  0
  184.4870  178.2850  143.5000 C   0  0  0  0  0  2  0  0  0  0  0  0
  185.2150  178.5050  145.6580 C   0  0  0  0  0  0  0  0  0  0  0  0
  186.4230  178.3620  146.8060 S   0  0  0  0  0  0  0  0  0  0  0  0
  185.6020  178.0710  144.4530 C   0  0  0  0  0  0  0  0  0  0  0  0
  187.9560  175.8840  143.1150 O   0  0  0  0  0  0  0  0  0  0  0  0
  187.5620  177.0810  143.1740 C   0  0  0  0  0  0  0  0  0  0  0  0
  187.7500  177.9480  142.0500 N   0  0  0  0  0  2  0  0  0  0  0  0
  188.3650  177.5010  140.8100 C   0  0  0  0  0  2  0  0  0  0  0  0
  188.8580  178.6980  140.0160 C   0  0  0  0  0  2  0  0  0  0  0  0
  188.9660  179.3730  137.8670 O   0  0  0  0  0  1  0  0  0  0  0  0
  188.1340  178.7850  138.7600 N   0  0  0  0  0  0  0  0  0  0  0  0
  187.9290  177.4220  138.2970 C   0  0  0  0  0  2  0  0  0  0  0  0
  186.7890  177.3770  137.2940 C   0  0  0  0  0  2  0  0  0  0  0  0
  187.1390  176.5160  136.1790 N   0  0  0  0  0  2  0  0  0  0  0  0
  188.0070  175.4770  136.7060 C   0  0  0  0  0  2  0  0  0  0  0  0
  187.3650  174.1150  136.5050 C   0  0  0  0  0  2  0  0  0  0  0  0
  186.3940  173.8940  137.4830 O   0  0  0  0  0  0  0  0  0  0  0  0
  185.8630  172.6410  137.1740 C   0  0  0  0  0  2  0  0  0  0  0  0
  184.5220  172.7980  136.4800 C   0  0  0  0  0  2  0  0  0  0  0  0
  183.5260  171.7960  137.0260 C   0  0  0  0  0  1  0  0  0  0  0  0
  182.2060  179.3240  144.0980 O   0  0  0  0  0  0  0  0  0  0  0  0
  181.6780  179.0650  142.8060 C   0  0  0  0  0  1  0  0  0  0  0  0
  188.9110  177.3020  146.0190 C   0  0  0  0  0  2  0  0  0  0  0  0
  189.8800  178.1180  145.1880 C   0  0  0  0  0  2  0  0  0  0  0  0
  191.0340  177.3020  144.8540 N   0  0  0  0  0  2  0  0  0  0  0  0
  190.9010  178.9820  143.2490 O   0  0  0  0  0  1  0  0  0  0  0  0
  191.5760  177.8140  143.6080 C   0  0  2  0  0  3  0  0  0  0  0  0
  191.3660  176.5690  142.3040 S   0  0  0  0  0  0  0  0  0  0  0  0
  192.4820  177.7060  140.8930 S   0  0  0  0  0  0  0  0  0  0  0  0
  191.8260  176.7520  139.4950 C   0  0  0  0  0  2  0  0  0  0  0  0
  192.6640  175.1680  137.9090 O   0  0  0  0  0  0  0  0  0  0  0  0
  194.0690  176.7460  136.6770 O   0  0  0  0  0  0  0  0  0  0  0  0
  193.4880  175.8120  135.8530 C   0  0  2  0  0  3  0  0  0  0  0  0
  192.9630  176.3190  138.5910 C   0  0  2  0  0  0  0  0  0  0  0  0
  194.2510  176.2500  139.1390 O   0  0  0  0  0  1  0  0  0  0  0  0
  192.7640  176.3430  137.0900 C   0  0  1  0  0  0  0  0  0  0  0  0
  195.7590  174.8070  135.9880 C   0  0  0  0  0  1  0  0  0  0  0  0
  194.2740  174.5060  135.9750 C   0  0  0  0  0  2  0  0  0  0  0  0
  1 27  1  0  0  0  0
  1  7  1  0  0  0  0
  3  2  2  0  0  0  0
  4  8  1  0  0  0  0
  4  1  2  0  0  0  0
  5  8  1  0  0  0  0
  5  3  1  0  0  0  0
  6  2  1  0  0  0  0
  6  7  1  0  0  0  0
  8  6  2  0  0  0  0
  9 10  2  0  0  0  0
 10  4  1  0  0  0  0
 11 10  1  0  0  0  0
 12 11  1  0  0  0  0
 13 12  1  0  0  0  0
 14 15  1  0  0  0  0
 15 13  1  0  0  0  0
 16 15  1  0  0  0  0
 17 16  1  0  0  0  0
 18 19  1  0  0  0  0
 18 17  1  0  0  0  0
 20 19  1  0  0  0  0
 20 21  1  0  0  0  0
 22 21  1  0  0  0  0
 23 24  1  0  0  0  0
 23 22  1  0  0  0  0
 25  3  1  0  0  0  0
 26 25  1  0  0  0  0
 28 27  1  0  0  0  0
 29 28  1  0  0  0  0
 31 30  1  6  0  0  0
 31 29  1  0  0  0  0
 32 31  1  0  0  0  0
 33 32  1  0  0  0  0
 34 33  1  0  0  0  0
 35 38  1  0  0  0  0
 37 42  1  1  0  0  0
 37 36  1  0  0  0  0
 37 40  1  0  0  0  0
 38 39  1  1  0  0  0
 38 34  1  0  0  0  0
 40 36  1  1  0  0  0
 40 35  1  0  0  0  0
 40 38  1  0  0  0  0
 42 41  1  0  0  0  0
M  END
>  <MODEL>
1

>  <REMARK>
 VINA RESULT:      -6.4      0.000      0.000
  Name = 
  22 active torsions:
  status: ('A' for Active; 'I' for Inactive)
    1  A    between atoms: C_1  and  C_19
    2  A    between atoms: C_2  and  C_22
    3  A    between atoms: C_3  and  N_27
    4  A    between atoms: C_3  and  C_28
    5  A    between atoms: S_7  and  S_12
    6  A    between atoms: S_7  and  C_20
    7  A    between atoms: O_8  and  C_11
    8  A    between atoms: C_10  and  C_22
    9  A    between atoms: C_10  and  N_38
   10  A    between atoms: S_12  and  C_32
   11  A    between atoms: C_16  and  C_24
   12  A    between atoms: C_19  and  O_39
   13  A    between atoms: C_20  and  C_29
   14  A    between atoms: C_21  and  C_23
   15  A    between atoms: C_25  and  N_33
   16  A    between atoms: C_25  and  C_41
   17  A    between atoms: N_27  and  C_34
   18  A    between atoms: C_28  and  N_35
   19  A    between atoms: C_30  and  N_33
   20  A    between atoms: C_30  and  C_34
   21  A    between atoms: C_32  and  N_38
   22  A    between atoms: O_39  and  C_41
                            x       y       z     vdW  Elec       q    Type
                         _______ _______ _______ _____ _____    ______ ____

>  <TORSDO>
F 22

$$$$
=
 OpenBabel11042412573D

 42 45  0  0  1  0  0  0  0  0999 V2000
  184.3980  178.5830  143.2550 C   0  0  0  0  0  0  0  0  0  0  0  0
  185.1640  178.6760  147.0260 N   0  0  0  0  0  0  0  0  0  0  0  0
  186.4280  178.3790  147.1310 C   0  0  0  0  0  0  0  0  0  0  0  0
  185.7540  178.2900  143.5220 C   0  0  0  0  0  0  0  0  0  0  0  0
  187.1420  178.1320  145.8060 C   0  0  0  0  0  2  0  0  0  0  0  0
  184.9230  178.6590  145.6360 C   0  0  0  0  0  0  0  0  0  0  0  0
  183.5480  178.8790  144.7080 S   0  0  0  0  0  0  0  0  0  0  0  0
  185.9950  178.3560  144.8960 C   0  0  0  0  0  0  0  0  0  0  0  0
  187.5270  176.9480  142.6760 O   0  0  0  0  0  0  0  0  0  0  0  0
  186.7800  177.9520  142.5130 C   0  0  0  0  0  0  0  0  0  0  0  0
  186.9310  178.7670  141.3450 N   0  0  0  0  0  2  0  0  0  0  0  0
  187.9080  178.4760  140.3070 C   0  0  0  0  0  2  0  0  0  0  0  0
  187.2020  177.9910  139.0530 C   0  0  0  0  0  2  0  0  0  0  0  0
  188.0500  179.2970  137.4220 O   0  0  0  0  0  1  0  0  0  0  0  0
  188.1150  178.0410  137.9250 N   0  0  0  0  0  0  0  0  0  0  0  0
  189.4560  177.8810  138.4630 C   0  0  0  0  0  2  0  0  0  0  0  0
  189.8840  176.4260  138.3730 C   0  0  0  0  0  2  0  0  0  0  0  0
  190.9630  176.1640  139.3080 N   0  0  0  0  0  2  0  0  0  0  0  0
  190.5400  176.6870  140.5960 C   0  0  0  0  0  2  0  0  0  0  0  0
  191.6910  177.4200  141.2600 C   0  0  0  0  0  2  0  0  0  0  0  0
  191.6540  177.2200  142.6410 O   0  0  0  0  0  0  0  0  0  0  0  0
  191.1800  178.4270  143.1590 C   0  0  0  0  0  2  0  0  0  0  0  0
  190.6570  178.2220  144.5690 C   0  0  0  0  0  2  0  0  0  0  0  0
  190.4730  176.7450  144.8530 C   0  0  0  0  0  1  0  0  0  0  0  0
  187.0490  178.3020  148.3760 O   0  0  0  0  0  0  0  0  0  0  0  0
  188.4550  178.1490  148.5030 C   0  0  0  0  0  1  0  0  0  0  0  0
  183.7440  178.5730  141.9160 C   0  0  0  0  0  2  0  0  0  0  0  0
  182.2380  178.5930  142.0760 C   0  0  0  0  0  2  0  0  0  0  0  0
  181.6430  179.3020  140.9570 N   0  0  0  0  0  2  0  0  0  0  0  0
  180.1920  180.4970  142.3290 O   0  0  0  0  0  1  0  0  0  0  0  0
  180.2550  179.5570  141.2990 C   0  0  2  0  0  3  0  0  0  0  0  0
  179.4750  178.0110  141.8420 S   0  0  0  0  0  0  0  0  0  0  0  0
  178.9580  177.4520  139.8540 S   0  0  0  0  0  0  0  0  0  0  0  0
  179.8450  175.8740  139.9890 C   0  0  0  0  0  2  0  0  0  0  0  0
  181.2930  177.0450  138.4850 O   0  0  0  0  0  0  0  0  0  0  0  0
  183.1060  175.4030  138.5320 O   0  0  0  0  0  0  0  0  0  0  0  0
  183.5720  176.6930  138.4570 C   0  0  2  0  0  3  0  0  0  0  0  0
  180.9250  175.8000  138.9280 C   0  0  2  0  0  0  0  0  0  0  0  0
  180.7290  174.9280  137.8490 O   0  0  0  0  0  1  0  0  0  0  0  0
  182.3010  176.3500  139.2340 C   0  0  1  0  0  0  0  0  0  0  0  0
  184.5550  176.5910  136.1740 C   0  0  0  0  0  1  0  0  0  0  0  0
  183.4340  177.1730  137.0120 C   0  0  0  0  0  2  0  0  0  0  0  0
  1  4  2  0  0  0  0
  1  7  1  0  0  0  0
  2  3  2  0  0  0  0
  3 25  1  0  0  0  0
  4  8  1  0  0  0  0
  5  3  1  0  0  0  0
  6  2  1  0  0  0  0
  7  6  1  0  0  0  0
  8  6  2  0  0  0  0
  8  5  1  0  0  0  0
 10  9  2  0  0  0  0
 10  4  1  0  0  0  0
 11 10  1  0  0  0  0
 12 11  1  0  0  0  0
 13 12  1  0  0  0  0
 14 15  1  0  0  0  0
 15 16  1  0  0  0  0
 15 13  1  0  0  0  0
 17 16  1  0  0  0  0
 17 18  1  0  0  0  0
 18 19  1  0  0  0  0
 19 20  1  0  0  0  0
 20 21  1  0  0  0  0
 21 22  1  0  0  0  0
 22 23  1  0  0  0  0
 23 24  1  0  0  0  0
 25 26  1  0  0  0  0
 27 28  1  0  0  0  0
 27  1  1  0  0  0  0
 29 31  1  0  0  0  0
 29 28  1  0  0  0  0
 31 32  1  0  0  0  0
 31 30  1  1  0  0  0
 33 34  1  0  0  0  0
 33 32  1  0  0  0  0
 35 38  1  0  0  0  0
 36 40  1  0  0  0  0
 37 42  1  6  0  0  0
 37 36  1  0  0  0  0
 37 40  1  0  0  0  0
 38 39  1  6  0  0  0
 38 40  1  0  0  0  0
 38 34  1  0  0  0  0
 40 35  1  6  0  0  0
 41 42  1  0  0  0  0
M  END
>  <MODEL>
2

>  <REMARK>
 VINA RESULT:      -6.3      3.643      8.099
  Name = 
  22 active torsions:
  status: ('A' for Active; 'I' for Inactive)
    1  A    between atoms: C_1  and  C_19
    2  A    between atoms: C_2  and  C_22
    3  A    between atoms: C_3  and  N_27
    4  A    between atoms: C_3  and  C_28
    5  A    between atoms: S_7  and  S_12
    6  A    between atoms: S_7  and  C_20
    7  A    between atoms: O_8  and  C_11
    8  A    between atoms: C_10  and  C_22
    9  A    between atoms: C_10  and  N_38
   10  A    between atoms: S_12  and  C_32
   11  A    between atoms: C_16  and  C_24
   12  A    between atoms: C_19  and  O_39
   13  A    between atoms: C_20  and  C_29
   14  A    between atoms: C_21  and  C_23
   15  A    between atoms: C_25  and  N_33
   16  A    between atoms: C_25  and  C_41
   17  A    between atoms: N_27  and  C_34
   18  A    between atoms: C_28  and  N_35
   19  A    between atoms: C_30  and  N_33
   20  A    between atoms: C_30  and  C_34
   21  A    between atoms: C_32  and  N_38
   22  A    between atoms: O_39  and  C_41
                            x       y       z     vdW  Elec       q    Type
                         _______ _______ _______ _____ _____    ______ ____

>  <TORSDO>
F 22

$$$$
=
 OpenBabel11042412573D

 42 45  0  0  1  0  0  0  0  0999 V2000
  188.3060  177.8560  140.8050 C   0  0  0  0  0  0  0  0  0  0  0  0
  190.0370  177.1880  137.4330 N   0  0  0  0  0  0  0  0  0  0  0  0
  191.1980  176.6800  137.7330 C   0  0  0  0  0  0  0  0  0  0  0  0
  189.5870  177.2840  140.9770 C   0  0  0  0  0  0  0  0  0  0  0  0
  191.4580  176.5090  139.2260 C   0  0  0  0  0  2  0  0  0  0  0  0
  189.4200  177.3960  138.6850 C   0  0  0  0  0  0  0  0  0  0  0  0
  187.9560  178.0620  139.1440 S   0  0  0  0  0  0  0  0  0  0  0  0
  190.1700  177.0380  139.7330 C   0  0  0  0  0  0  0  0  0  0  0  0
  190.3510  175.8010  142.6720 O   0  0  0  0  0  0  0  0  0  0  0  0
  190.2350  176.9920  142.2730 C   0  0  0  0  0  0  0  0  0  0  0  0
  190.7320  178.0640  143.0830 N   0  0  0  0  0  2  0  0  0  0  0  0
  191.3970  177.8400  144.3580 C   0  0  0  0  0  2  0  0  0  0  0  0
  190.3710  177.8000  145.4760 C   0  0  0  0  0  2  0  0  0  0  0  0
  191.7290  177.0140  147.0960 O   0  0  0  0  0  1  0  0  0  0  0  0
  190.6460  176.6770  146.3550 N   0  0  0  0  0  0  0  0  0  0  0  0
  189.5270  176.5840  147.2800 C   0  0  0  0  0  2  0  0  0  0  0  0
  189.0850  177.9740  147.7050 C   0  0  0  0  0  2  0  0  0  0  0  0
  187.7320  177.9280  148.2310 N   0  0  0  0  0  2  0  0  0  0  0  0
  186.8990  178.6910  147.3180 C   0  0  0  0  0  2  0  0  0  0  0  0
  185.7660  177.8210  146.8030 C   0  0  0  0  0  2  0  0  0  0  0  0
  184.7090  178.6210  146.3640 O   0  0  0  0  0  0  0  0  0  0  0  0
  185.2240  179.3170  145.2700 C   0  0  0  0  0  2  0  0  0  0  0  0
  184.1070  179.6810  144.3090 C   0  0  0  0  0  2  0  0  0  0  0  0
  182.9150  178.7710  144.5180 C   0  0  0  0  0  1  0  0  0  0  0  0
  192.1110  176.3300  136.7390 O   0  0  0  0  0  0  0  0  0  0  0  0
  193.5120  176.4260  136.9440 C   0  0  0  0  0  1  0  0  0  0  0  0
  187.3880  178.2990  141.8930 C   0  0  0  0  0  2  0  0  0  0  0  0
  186.2660  179.1360  141.3130 C   0  0  0  0  0  2  0  0  0  0  0  0
  185.0190  178.3960  141.3980 N   0  0  0  0  0  2  0  0  0  0  0  0
  184.6800  179.8520  139.6140 O   0  0  0  0  0  1  0  0  0  0  0  0
  184.2990  178.6240  140.1580 C   0  0  2  0  0  3  0  0  0  0  0  0
  182.5160  178.6360  140.4920 S   0  0  0  0  0  0  0  0  0  0  0  0
  182.0330  179.0730  138.4650 S   0  0  0  0  0  0  0  0  0  0  0  0
  181.4140  177.3920  138.1730 C   0  0  0  0  0  2  0  0  0  0  0  0
  183.0170  175.6530  138.5440 O   0  0  0  0  0  0  0  0  0  0  0  0
  183.0140  174.7990  136.2520 O   0  0  0  0  0  0  0  0  0  0  0  0
  183.1460  173.7960  137.1820 C   0  0  2  0  0  3  0  0  0  0  0  0
  182.5240  176.5280  137.6090 C   0  0  2  0  0  0  0  0  0  0  0  0
  183.5690  177.1610  136.9240 O   0  0  0  0  0  1  0  0  0  0  0  0
  182.2990  175.0370  137.4640 C   0  0  1  0  0  0  0  0  0  0  0  0
  185.3310  172.6170  137.0330 C   0  0  0  0  0  1  0  0  0  0  0  0
  184.5960  173.7790  137.6690 C   0  0  0  0  0  2  0  0  0  0  0  0
  1  4  2  0  0  0  0
  1 27  1  0  0  0  0
  2  3  2  0  0  0  0
  2  6  1  0  0  0  0
  3  5  1  0  0  0  0
  4 10  1  0  0  0  0
  5  8  1  0  0  0  0
  6  7  1  0  0  0  0
  6  8  2  0  0  0  0
  7  1  1  0  0  0  0
  8  4  1  0  0  0  0
 10  9  2  0  0  0  0
 10 11  1  0  0  0  0
 11 12  1  0  0  0  0
 12 13  1  0  0  0  0
 13 15  1  0  0  0  0
 15 14  1  0  0  0  0
 15 16  1  0  0  0  0
 16 17  1  0  0  0  0
 17 18  1  0  0  0  0
 19 18  1  0  0  0  0
 20 19  1  0  0  0  0
 21 20  1  0  0  0  0
 22 21  1  0  0  0  0
 23 24  1  0  0  0  0
 23 22  1  0  0  0  0
 25 26  1  0  0  0  0
 25  3  1  0  0  0  0
 28 29  1  0  0  0  0
 28 27  1  0  0  0  0
 31 30  1  1  0  0  0
 31 32  1  0  0  0  0
 31 29  1  0  0  0  0
 33 32  1  0  0  0  0
 34 33  1  0  0  0  0
 36 37  1  0  0  0  0
 37 40  1  0  0  0  0
 37 42  1  1  0  0  0
 38 39  1  6  0  0  0
 38 34  1  0  0  0  0
 38 35  1  0  0  0  0
 40 36  1  6  0  0  0
 40 38  1  0  0  0  0
 40 35  1  0  0  0  0
 41 42  1  0  0  0  0
M  END
>  <MODEL>
3

>  <REMARK>
 VINA RESULT:      -6.3      3.220      9.168
  Name = 
  22 active torsions:
  status: ('A' for Active; 'I' for Inactive)
    1  A    between atoms: C_1  and  C_19
    2  A    between atoms: C_2  and  C_22
    3  A    between atoms: C_3  and  N_27
    4  A    between atoms: C_3  and  C_28
    5  A    between atoms: S_7  and  S_12
    6  A    between atoms: S_7  and  C_20
    7  A    between atoms: O_8  and  C_11
    8  A    between atoms: C_10  and  C_22
    9  A    between atoms: C_10  and  N_38
   10  A    between atoms: S_12  and  C_32
   11  A    between atoms: C_16  and  C_24
   12  A    between atoms: C_19  and  O_39
   13  A    between atoms: C_20  and  C_29
   14  A    between atoms: C_21  and  C_23
   15  A    between atoms: C_25  and  N_33
   16  A    between atoms: C_25  and  C_41
   17  A    between atoms: N_27  and  C_34
   18  A    between atoms: C_28  and  N_35
   19  A    between atoms: C_30  and  N_33
   20  A    between atoms: C_30  and  C_34
   21  A    between atoms: C_32  and  N_38
   22  A    between atoms: O_39  and  C_41
                            x       y       z     vdW  Elec       q    Type
                         _______ _______ _______ _____ _____    ______ ____

>  <TORSDO>
F 22

$$$$
=
 OpenBabel11042412573D

 42 45  0  0  1  0  0  0  0  0999 V2000
  187.0990  177.6040  143.6750 C   0  0  0  0  0  0  0  0  0  0  0  0
  189.5360  177.2760  146.6360 N   0  0  0  0  0  0  0  0  0  0  0  0
  190.7190  177.1670  146.1010 C   0  0  0  0  0  0  0  0  0  0  0  0
  188.4390  177.4900  143.2410 C   0  0  0  0  0  0  0  0  0  0  0  0
  190.7440  177.2260  144.5780 C   0  0  0  0  0  2  0  0  0  0  0  0
  188.6720  177.4200  145.5290 C   0  0  0  0  0  0  0  0  0  0  0  0
  187.0120  177.5540  145.3820 S   0  0  0  0  0  0  0  0  0  0  0  0
  189.2900  177.3960  144.3430 C   0  0  0  0  0  0  0  0  0  0  0  0
  189.6610  176.5480  141.4310 O   0  0  0  0  0  0  0  0  0  0  0  0
  188.8920  177.4630  141.8340 C   0  0  0  0  0  0  0  0  0  0  0  0
  188.4600  178.4800  140.9240 N   0  0  0  0  0  2  0  0  0  0  0  0
  188.8550  178.4980  139.5230 C   0  0  0  0  0  2  0  0  0  0  0  0
  187.7720  177.8590  138.6720 C   0  0  0  0  0  2  0  0  0  0  0  0
  188.3590  179.5550  137.3070 O   0  0  0  0  0  1  0  0  0  0  0  0
  187.2910  178.8150  137.6900 N   0  0  0  0  0  0  0  0  0  0  0  0
  186.8810  178.0480  136.5240 C   0  0  0  0  0  2  0  0  0  0  0  0
  187.2220  176.5810  136.7180 C   0  0  0  0  0  2  0  0  0  0  0  0
  187.7250  176.0170  135.4780 N   0  0  0  0  0  2  0  0  0  0  0  0
  188.6660  176.9780  134.9300 C   0  0  0  0  0  2  0  0  0  0  0  0
  190.0880  176.5120  135.1840 C   0  0  0  0  0  2  0  0  0  0  0  0
  190.5300  176.9730  136.4250 O   0  0  0  0  0  0  0  0  0  0  0  0
  191.4660  176.0250  136.8410 C   0  0  0  0  0  2  0  0  0  0  0  0
  190.7940  174.6780  137.0400 C   0  0  0  0  0  2  0  0  0  0  0  0
  191.7670  173.5550  136.7470 C   0  0  0  0  0  1  0  0  0  0  0  0
  191.8560  177.0110  146.8930 O   0  0  0  0  0  0  0  0  0  0  0  0
  192.1910  175.7640  147.4820 C   0  0  0  0  0  1  0  0  0  0  0  0
  185.8960  177.6830  142.7990 C   0  0  0  0  0  2  0  0  0  0  0  0
  185.2340  179.0380  142.9520 C   0  0  0  0  0  2  0  0  0  0  0  0
  184.0360  179.0850  142.1340 N   0  0  0  0  0  2  0  0  0  0  0  0
  184.8050  179.6260  140.0050 O   0  0  0  0  0  1  0  0  0  0  0  0
  184.3900  178.5730  140.8220 C   0  0  2  0  0  3  0  0  0  0  0  0
  182.9450  177.7640  140.0810 S   0  0  0  0  0  0  0  0  0  0  0  0
  181.5940  179.1820  140.9140 S   0  0  0  0  0  0  0  0  0  0  0  0
  180.6620  179.3170  139.3620 C   0  0  0  0  0  2  0  0  0  0  0  0
  181.6410  181.3430  138.5450 O   0  0  0  0  0  0  0  0  0  0  0  0
  179.6100  182.2150  137.4990 O   0  0  0  0  0  0  0  0  0  0  0  0
  180.7380  182.5120  136.7740 C   0  0  2  0  0  3  0  0  0  0  0  0
  180.4770  180.7770  138.9990 C   0  0  2  0  0  0  0  0  0  0  0  0
  179.8510  181.6130  139.9320 O   0  0  0  0  0  1  0  0  0  0  0  0
  180.6140  181.2020  137.5520 C   0  0  1  0  0  0  0  0  0  0  0  0
  180.7050  184.9740  137.1230 C   0  0  0  0  0  1  0  0  0  0  0  0
  181.4450  183.6920  137.4440 C   0  0  0  0  0  2  0  0  0  0  0  0
  1  7  1  0  0  0  0
  3  2  2  0  0  0  0
  3 25  1  0  0  0  0
  4  1  2  0  0  0  0
  4  8  1  0  0  0  0
  5  3  1  0  0  0  0
  6  2  1  0  0  0  0
  7  6  1  0  0  0  0
  8  5  1  0  0  0  0
  8  6  2  0  0  0  0
  9 10  2  0  0  0  0
 10  4  1  0  0  0  0
 11 10  1  0  0  0  0
 12 11  1  0  0  0  0
 13 12  1  0  0  0  0
 14 15  1  0  0  0  0
 15 13  1  0  0  0  0
 16 17  1  0  0  0  0
 16 15  1  0  0  0  0
 18 17  1  0  0  0  0
 19 20  1  0  0  0  0
 19 18  1  0  0  0  0
 20 21  1  0  0  0  0
 21 22  1  0  0  0  0
 22 23  1  0  0  0  0
 24 23  1  0  0  0  0
 25 26  1  0  0  0  0
 27 28  1  0  0  0  0
 27  1  1  0  0  0  0
 29 28  1  0  0  0  0
 31 30  1  6  0  0  0
 31 29  1  0  0  0  0
 32 31  1  0  0  0  0
 32 33  1  0  0  0  0
 34 33  1  0  0  0  0
 35 38  1  0  0  0  0
 37 42  1  1  0  0  0
 37 36  1  0  0  0  0
 37 40  1  0  0  0  0
 38 34  1  0  0  0  0
 38 39  1  1  0  0  0
 40 36  1  1  0  0  0
 40 35  1  0  0  0  0
 40 38  1  0  0  0  0
 41 42  1  0  0  0  0
M  END
>  <MODEL>
4

>  <REMARK>
 VINA RESULT:      -6.3      3.850      8.416
  Name = 
  22 active torsions:
  status: ('A' for Active; 'I' for Inactive)
    1  A    between atoms: C_1  and  C_19
    2  A    between atoms: C_2  and  C_22
    3  A    between atoms: C_3  and  N_27
    4  A    between atoms: C_3  and  C_28
    5  A    between atoms: S_7  and  S_12
    6  A    between atoms: S_7  and  C_20
    7  A    between atoms: O_8  and  C_11
    8  A    between atoms: C_10  and  C_22
    9  A    between atoms: C_10  and  N_38
   10  A    between atoms: S_12  and  C_32
   11  A    between atoms: C_16  and  C_24
   12  A    between atoms: C_19  and  O_39
   13  A    between atoms: C_20  and  C_29
   14  A    between atoms: C_21  and  C_23
   15  A    between atoms: C_25  and  N_33
   16  A    between atoms: C_25  and  C_41
   17  A    between atoms: N_27  and  C_34
   18  A    between atoms: C_28  and  N_35
   19  A    between atoms: C_30  and  N_33
   20  A    between atoms: C_30  and  C_34
   21  A    between atoms: C_32  and  N_38
   22  A    between atoms: O_39  and  C_41
                            x       y       z     vdW  Elec       q    Type
                         _______ _______ _______ _____ _____    ______ ____

>  <TORSDO>
F 22

$$$$
=
 OpenBabel11042412573D

 42 45  0  0  1  0  0  0  0  0999 V2000
  186.8920  177.7210  145.5320 C   0  0  0  0  0  0  0  0  0  0  0  0
  189.8140  177.5360  148.0300 N   0  0  0  0  0  0  0  0  0  0  0  0
  190.8370  177.1220  147.3380 C   0  0  0  0  0  0  0  0  0  0  0  0
  188.0870  177.2940  144.9100 C   0  0  0  0  0  0  0  0  0  0  0  0
  190.5580  176.8870  145.8570 C   0  0  0  0  0  2  0  0  0  0  0  0
  188.7700  177.6180  147.0830 C   0  0  0  0  0  0  0  0  0  0  0  0
  187.1490  178.0110  147.1970 S   0  0  0  0  0  0  0  0  0  0  0  0
  189.1240  177.2620  145.8440 C   0  0  0  0  0  0  0  0  0  0  0  0
  187.9970  175.7430  143.1100 O   0  0  0  0  0  0  0  0  0  0  0  0
  188.2350  176.9230  143.4870 C   0  0  0  0  0  0  0  0  0  0  0  0
  188.6540  177.9040  142.5320 N   0  0  0  0  0  2  0  0  0  0  0  0
  188.8000  177.6060  141.1150 C   0  0  0  0  0  2  0  0  0  0  0  0
  190.2020  177.0930  140.8360 C   0  0  0  0  0  2  0  0  0  0  0  0
  190.7580  175.8040  139.0710 O   0  0  0  0  0  1  0  0  0  0  0  0
  190.4430  177.0780  139.4040 N   0  0  0  0  0  0  0  0  0  0  0  0
  189.1720  177.3700  138.7600 C   0  0  0  0  0  2  0  0  0  0  0  0
  189.4090  178.0150  137.4050 C   0  0  0  0  0  2  0  0  0  0  0  0
  188.5870  177.3700  136.3960 N   0  0  0  0  0  2  0  0  0  0  0  0
  187.4050  178.1970  136.2250 C   0  0  0  0  0  2  0  0  0  0  0  0
  186.1610  177.4000  136.5780 C   0  0  0  0  0  2  0  0  0  0  0  0
  186.2830  176.0900  136.1130 O   0  0  0  0  0  0  0  0  0  0  0  0
  185.6680  175.3090  137.0930 C   0  0  0  0  0  2  0  0  0  0  0  0
  185.4570  173.8970  136.5810 C   0  0  0  0  0  2  0  0  0  0  0  0
  185.0500  172.9800  137.7160 C   0  0  0  0  0  1  0  0  0  0  0  0
  192.0790  176.9210  147.9370 O   0  0  0  0  0  0  0  0  0  0  0  0
  192.6700  175.6330  148.0200 C   0  0  0  0  0  1  0  0  0  0  0  0
  185.5570  177.8440  144.8790 C   0  0  0  0  0  2  0  0  0  0  0  0
  185.0780  179.2800  144.9490 C   0  0  0  0  0  2  0  0  0  0  0  0
  184.6270  179.7020  143.6350 N   0  0  0  0  0  2  0  0  0  0  0  0
  184.5500  178.3430  141.7480 O   0  0  0  0  0  1  0  0  0  0  0  0
  183.9920  178.5560  143.0100 C   0  0  2  0  0  3  0  0  0  0  0  0
  182.2140  178.8730  142.8390 S   0  0  0  0  0  0  0  0  0  0  0  0
  182.2150  178.3650  140.7720 S   0  0  0  0  0  0  0  0  0  0  0  0
  180.6650  179.2630  140.4760 C   0  0  0  0  0  2  0  0  0  0  0  0
  179.5580  180.6220  138.8450 O   0  0  0  0  0  0  0  0  0  0  0  0
  181.5840  181.6580  137.9470 O   0  0  0  0  0  0  0  0  0  0  0  0
  180.5240  182.5310  137.9850 C   0  0  2  0  0  3  0  0  0  0  0  0
  180.7180  179.9440  139.1230 C   0  0  2  0  0  0  0  0  0  0  0  0
  181.1240  179.1830  138.0180 O   0  0  0  0  0  1  0  0  0  0  0  0
  180.7070  181.4560  139.0550 C   0  0  1  0  0  0  0  0  0  0  0  0
  180.4400  182.0440  135.5470 C   0  0  0  0  0  1  0  0  0  0  0  0
  179.6070  182.2270  136.7990 C   0  0  0  0  0  2  0  0  0  0  0  0
  1  7  1  0  0  0  0
  3 25  1  0  0  0  0
  3  2  2  0  0  0  0
  4  1  2  0  0  0  0
  4  8  1  0  0  0  0
  5  3  1  0  0  0  0
  6  7  1  0  0  0  0
  6  2  1  0  0  0  0
  8  5  1  0  0  0  0
  8  6  2  0  0  0  0
  9 10  2  0  0  0  0
 10  4  1  0  0  0  0
 11 10  1  0  0  0  0
 12 11  1  0  0  0  0
 13 12  1  0  0  0  0
 14 15  1  0  0  0  0
 15 13  1  0  0  0  0
 16 15  1  0  0  0  0
 17 16  1  0  0  0  0
 18 17  1  0  0  0  0
 19 18  1  0  0  0  0
 19 20  1  0  0  0  0
 21 20  1  0  0  0  0
 21 22  1  0  0  0  0
 23 22  1  0  0  0  0
 23 24  1  0  0  0  0
 25 26  1  0  0  0  0
 27 28  1  0  0  0  0
 27  1  1  0  0  0  0
 29 28  1  0  0  0  0
 31 30  1  6  0  0  0
 31 29  1  0  0  0  0
 32 31  1  0  0  0  0
 33 32  1  0  0  0  0
 34 33  1  0  0  0  0
 35 40  1  0  0  0  0
 35 38  1  0  0  0  0
 36 37  1  0  0  0  0
 37 42  1  6  0  0  0
 37 40  1  0  0  0  0
 38 39  1  6  0  0  0
 38 34  1  0  0  0  0
 40 36  1  6  0  0  0
 40 38  1  0  0  0  0
 41 42  1  0  0  0  0
M  END
>  <MODEL>
5

>  <REMARK>
 VINA RESULT:      -6.3      3.567      8.089
  Name = 
  22 active torsions:
  status: ('A' for Active; 'I' for Inactive)
    1  A    between atoms: C_1  and  C_19
    2  A    between atoms: C_2  and  C_22
    3  A    between atoms: C_3  and  N_27
    4  A    between atoms: C_3  and  C_28
    5  A    between atoms: S_7  and  S_12
    6  A    between atoms: S_7  and  C_20
    7  A    between atoms: O_8  and  C_11
    8  A    between atoms: C_10  and  C_22
    9  A    between atoms: C_10  and  N_38
   10  A    between atoms: S_12  and  C_32
   11  A    between atoms: C_16  and  C_24
   12  A    between atoms: C_19  and  O_39
   13  A    between atoms: C_20  and  C_29
   14  A    between atoms: C_21  and  C_23
   15  A    between atoms: C_25  and  N_33
   16  A    between atoms: C_25  and  C_41
   17  A    between atoms: N_27  and  C_34
   18  A    between atoms: C_28  and  N_35
   19  A    between atoms: C_30  and  N_33
   20  A    between atoms: C_30  and  C_34
   21  A    between atoms: C_32  and  N_38
   22  A    between atoms: O_39  and  C_41
                            x       y       z     vdW  Elec       q    Type
                         _______ _______ _______ _____ _____    ______ ____

>  <TORSDO>
F 22

$$$$
=
 OpenBabel11042412573D

 42 45  0  0  1  0  0  0  0  0999 V2000
  187.6390  177.6680  144.5280 C   0  0  0  0  0  0  0  0  0  0  0  0
  189.9150  177.0970  147.5780 N   0  0  0  0  0  0  0  0  0  0  0  0
  191.1240  177.0220  147.0990 C   0  0  0  0  0  0  0  0  0  0  0  0
  188.9990  177.5800  144.1570 C   0  0  0  0  0  0  0  0  0  0  0  0
  191.2290  177.1980  145.5880 C   0  0  0  0  0  2  0  0  0  0  0  0
  189.1110  177.3320  146.4420 C   0  0  0  0  0  0  0  0  0  0  0  0
  187.4610  177.4870  146.2180 S   0  0  0  0  0  0  0  0  0  0  0  0
  189.7910  177.3950  145.2920 C   0  0  0  0  0  0  0  0  0  0  0  0
  190.6620  178.1610  142.5590 O   0  0  0  0  0  0  0  0  0  0  0  0
  189.5260  177.6580  142.7780 C   0  0  0  0  0  0  0  0  0  0  0  0
  188.7440  177.1650  141.6840 N   0  0  0  0  0  2  0  0  0  0  0  0
  189.2150  177.1970  140.3070 C   0  0  0  0  0  2  0  0  0  0  0  0
  188.6650  178.4230  139.6000 C   0  0  0  0  0  2  0  0  0  0  0  0
  186.4530  178.6960  139.2580 O   0  0  0  0  0  1  0  0  0  0  0  0
  187.5350  178.0450  138.7690 N   0  0  0  0  0  0  0  0  0  0  0  0
  187.7850  178.5960  137.4460 C   0  0  0  0  0  2  0  0  0  0  0  0
  188.8970  177.8220  136.7600 C   0  0  0  0  0  2  0  0  0  0  0  0
  188.5790  176.4050  136.7390 N   0  0  0  0  0  2  0  0  0  0  0  0
  189.7970  175.7060  136.3670 C   0  0  0  0  0  2  0  0  0  0  0  0
  189.9920  174.4950  137.2620 C   0  0  0  0  0  2  0  0  0  0  0  0
  191.0600  174.7100  138.1340 O   0  0  0  0  0  0  0  0  0  0  0  0
  191.8950  175.6000  137.4570 C   0  0  0  0  0  2  0  0  0  0  0  0
  193.3490  175.2300  137.6850 C   0  0  0  0  0  2  0  0  0  0  0  0
  193.7480  174.0800  136.7840 C   0  0  0  0  0  1  0  0  0  0  0  0
  192.2180  176.7990  147.9350 O   0  0  0  0  0  0  0  0  0  0  0  0
  192.7130  175.4920  148.1840 C   0  0  0  0  0  1  0  0  0  0  0  0
  186.4830  177.8220  143.5980 C   0  0  0  0  0  2  0  0  0  0  0  0
  185.3370  178.5120  144.3100 C   0  0  0  0  0  2  0  0  0  0  0  0
  184.4660  179.1360  143.3300 N   0  0  0  0  0  2  0  0  0  0  0  0
  183.2770  179.0670  145.3290 O   0  0  0  0  0  1  0  0  0  0  0  0
  183.2800  179.5880  144.0340 C   0  0  2  0  0  3  0  0  0  0  0  0
  181.8010  179.0200  143.1490 S   0  0  0  0  0  0  0  0  0  0  0  0
  182.8980  178.5950  141.3750 S   0  0  0  0  0  0  0  0  0  0  0  0
  181.4060  178.6800  140.3440 C   0  0  0  0  0  2  0  0  0  0  0  0
  180.5270  179.7500  138.3920 O   0  0  0  0  0  0  0  0  0  0  0  0
  181.9730  181.7200  138.4970 O   0  0  0  0  0  0  0  0  0  0  0  0
  180.7080  182.0240  138.0560 C   0  0  2  0  0  3  0  0  0  0  0  0
  181.6530  179.5910  139.1590 C   0  0  2  0  0  0  0  0  0  0  0  0
  182.7700  179.3360  138.3530 O   0  0  0  0  0  1  0  0  0  0  0  0
  180.9470  180.9290  139.0950 C   0  0  1  0  0  0  0  0  0  0  0  0
  180.6390  182.8600  135.7140 C   0  0  0  0  0  1  0  0  0  0  0  0
  180.6000  181.6200  136.5850 C   0  0  0  0  0  2  0  0  0  0  0  0
  1  7  1  0  0  0  0
  3  2  2  0  0  0  0
  3 25  1  0  0  0  0
  4  1  2  0  0  0  0
  4  8  1  0  0  0  0
  5  3  1  0  0  0  0
  6  2  1  0  0  0  0
  7  6  1  0  0  0  0
  8  5  1  0  0  0  0
  8  6  2  0  0  0  0
  9 10  2  0  0  0  0
 10  4  1  0  0  0  0
 11 10  1  0  0  0  0
 12 11  1  0  0  0  0
 13 12  1  0  0  0  0
 15 14  1  0  0  0  0
 15 13  1  0  0  0  0
 16 15  1  0  0  0  0
 17 16  1  0  0  0  0
 18 17  1  0  0  0  0
 19 18  1  0  0  0  0
 19 20  1  0  0  0  0
 20 21  1  0  0  0  0
 22 23  1  0  0  0  0
 22 21  1  0  0  0  0
 24 23  1  0  0  0  0
 25 26  1  0  0  0  0
 27 28  1  0  0  0  0
 27  1  1  0  0  0  0
 29 31  1  0  0  0  0
 29 28  1  0  0  0  0
 31 30  1  1  0  0  0
 32 31  1  0  0  0  0
 33 32  1  0  0  0  0
 34 33  1  0  0  0  0
 35 38  1  0  0  0  0
 36 40  1  0  0  0  0
 37 42  1  6  0  0  0
 37 36  1  0  0  0  0
 37 40  1  0  0  0  0
 38 39  1  6  0  0  0
 38 34  1  0  0  0  0
 40 35  1  6  0  0  0
 40 38  1  0  0  0  0
 41 42  1  0  0  0  0
M  END
>  <MODEL>
6

>  <REMARK>
 VINA RESULT:      -6.2      3.423      8.242
  Name = 
  22 active torsions:
  status: ('A' for Active; 'I' for Inactive)
    1  A    between atoms: C_1  and  C_19
    2  A    between atoms: C_2  and  C_22
    3  A    between atoms: C_3  and  N_27
    4  A    between atoms: C_3  and  C_28
    5  A    between atoms: S_7  and  S_12
    6  A    between atoms: S_7  and  C_20
    7  A    between atoms: O_8  and  C_11
    8  A    between atoms: C_10  and  C_22
    9  A    between atoms: C_10  and  N_38
   10  A    between atoms: S_12  and  C_32
   11  A    between atoms: C_16  and  C_24
   12  A    between atoms: C_19  and  O_39
   13  A    between atoms: C_20  and  C_29
   14  A    between atoms: C_21  and  C_23
   15  A    between atoms: C_25  and  N_33
   16  A    between atoms: C_25  and  C_41
   17  A    between atoms: N_27  and  C_34
   18  A    between atoms: C_28  and  N_35
   19  A    between atoms: C_30  and  N_33
   20  A    between atoms: C_30  and  C_34
   21  A    between atoms: C_32  and  N_38
   22  A    between atoms: O_39  and  C_41
                            x       y       z     vdW  Elec       q    Type
                         _______ _______ _______ _____ _____    ______ ____

>  <TORSDO>
F 22

$$$$
=
 OpenBabel11042412573D

 42 45  0  0  1  0  0  0  0  0999 V2000
  187.1550  177.5900  143.6510 C   0  0  0  0  0  0  0  0  0  0  0  0
  189.6180  177.2090  146.5840 N   0  0  0  0  0  0  0  0  0  0  0  0
  190.7930  177.0860  146.0370 C   0  0  0  0  0  0  0  0  0  0  0  0
  188.4880  177.4590  143.2020 C   0  0  0  0  0  0  0  0  0  0  0  0
  190.8030  177.1530  144.5130 C   0  0  0  0  0  2  0  0  0  0  0  0
  188.7450  177.3730  145.4870 C   0  0  0  0  0  0  0  0  0  0  0  0
  187.0840  177.5320  145.3580 S   0  0  0  0  0  0  0  0  0  0  0  0
  189.3500  177.3460  144.2950 C   0  0  0  0  0  0  0  0  0  0  0  0
  189.6750  176.5080  141.3740 O   0  0  0  0  0  0  0  0  0  0  0  0
  188.9260  177.4340  141.7900 C   0  0  0  0  0  0  0  0  0  0  0  0
  188.5030  178.4650  140.8910 N   0  0  0  0  0  2  0  0  0  0  0  0
  188.8840  178.4850  139.4870 C   0  0  0  0  0  2  0  0  0  0  0  0
  187.7350  177.9810  138.6320 C   0  0  0  0  0  2  0  0  0  0  0  0
  188.6610  179.5060  137.2540 O   0  0  0  0  0  1  0  0  0  0  0  0
  187.4790  178.9170  137.5520 N   0  0  0  0  0  0  0  0  0  0  0  0
  187.1080  178.1260  136.3890 C   0  0  0  0  0  2  0  0  0  0  0  0
  187.5210  176.6780  136.5910 C   0  0  0  0  0  2  0  0  0  0  0  0
  187.3680  175.9380  135.3510 N   0  0  0  0  0  2  0  0  0  0  0  0
  188.6350  175.2760  135.0960 C   0  0  0  0  0  2  0  0  0  0  0  0
  189.7730  176.0930  135.6830 C   0  0  0  0  0  2  0  0  0  0  0  0
  190.7440  175.2460  136.2190 O   0  0  0  0  0  0  0  0  0  0  0  0
  191.0630  175.8130  137.4540 C   0  0  0  0  0  2  0  0  0  0  0  0
  192.4790  176.3600  137.4280 C   0  0  0  0  0  2  0  0  0  0  0  0
  192.9340  176.7090  138.8300 C   0  0  0  0  0  1  0  0  0  0  0  0
  191.9360  176.9080  146.8150 O   0  0  0  0  0  0  0  0  0  0  0  0
  192.1190  175.7550  147.6220 C   0  0  0  0  0  1  0  0  0  0  0  0
  185.9440  177.6930  142.7880 C   0  0  0  0  0  2  0  0  0  0  0  0
  185.4090  179.1100  142.8140 C   0  0  0  0  0  2  0  0  0  0  0  0
  184.1710  179.1730  142.0580 N   0  0  0  0  0  2  0  0  0  0  0  0
  184.8310  179.6660  139.8820 O   0  0  0  0  0  1  0  0  0  0  0  0
  184.4450  178.6340  140.7380 C   0  0  2  0  0  3  0  0  0  0  0  0
  182.9490  177.8380  140.0910 S   0  0  0  0  0  0  0  0  0  0  0  0
  183.8770  177.3630  138.2360 S   0  0  0  0  0  0  0  0  0  0  0  0
  183.2550  175.6580  138.2770 C   0  0  0  0  0  2  0  0  0  0  0  0
  185.0730  174.2770  137.5560 O   0  0  0  0  0  0  0  0  0  0  0  0
  183.7800  172.9550  135.9550 O   0  0  0  0  0  0  0  0  0  0  0  0
  184.7320  172.2050  136.6020 C   0  0  2  0  0  3  0  0  0  0  0  0
  183.8910  174.8530  137.1620 C   0  0  2  0  0  0  0  0  0  0  0  0
  184.0300  175.4600  135.9070 O   0  0  0  0  0  1  0  0  0  0  0  0
  184.0050  173.3500  137.3080 C   0  0  1  0  0  0  0  0  0  0  0  0
  186.6030  171.2410  135.2770 C   0  0  0  0  0  1  0  0  0  0  0  0
  186.0900  172.4930  135.9590 C   0  0  0  0  0  2  0  0  0  0  0  0
  1  7  1  0  0  0  0
  3  2  2  0  0  0  0
  3 25  1  0  0  0  0
  4  1  2  0  0  0  0
  4  8  1  0  0  0  0
  5  3  1  0  0  0  0
  6  2  1  0  0  0  0
  7  6  1  0  0  0  0
  8  5  1  0  0  0  0
  8  6  2  0  0  0  0
  9 10  2  0  0  0  0
 10  4  1  0  0  0  0
 11 10  1  0  0  0  0
 12 11  1  0  0  0  0
 13 12  1  0  0  0  0
 14 15  1  0  0  0  0
 15 13  1  0  0  0  0
 16 17  1  0  0  0  0
 16 15  1  0  0  0  0
 18 17  1  0  0  0  0
 19 18  1  0  0  0  0
 19 20  1  0  0  0  0
 20 21  1  0  0  0  0
 21 22  1  0  0  0  0
 23 22  1  0  0  0  0
 23 24  1  0  0  0  0
 25 26  1  0  0  0  0
 27 28  1  0  0  0  0
 27  1  1  0  0  0  0
 29 28  1  0  0  0  0
 31 30  1  6  0  0  0
 31 29  1  0  0  0  0
 32 31  1  0  0  0  0
 33 34  1  0  0  0  0
 33 32  1  0  0  0  0
 36 37  1  0  0  0  0
 37 42  1  6  0  0  0
 37 40  1  0  0  0  0
 38 39  1  6  0  0  0
 38 40  1  0  0  0  0
 38 35  1  0  0  0  0
 38 34  1  0  0  0  0
 40 36  1  6  0  0  0
 40 35  1  0  0  0  0
 41 42  1  0  0  0  0
M  END
>  <MODEL>
7

>  <REMARK>
 VINA RESULT:      -6.2      2.727      6.720
  Name = 
  22 active torsions:
  status: ('A' for Active; 'I' for Inactive)
    1  A    between atoms: C_1  and  C_19
    2  A    between atoms: C_2  and  C_22
    3  A    between atoms: C_3  and  N_27
    4  A    between atoms: C_3  and  C_28
    5  A    between atoms: S_7  and  S_12
    6  A    between atoms: S_7  and  C_20
    7  A    between atoms: O_8  and  C_11
    8  A    between atoms: C_10  and  C_22
    9  A    between atoms: C_10  and  N_38
   10  A    between atoms: S_12  and  C_32
   11  A    between atoms: C_16  and  C_24
   12  A    between atoms: C_19  and  O_39
   13  A    between atoms: C_20  and  C_29
   14  A    between atoms: C_21  and  C_23
   15  A    between atoms: C_25  and  N_33
   16  A    between atoms: C_25  and  C_41
   17  A    between atoms: N_27  and  C_34
   18  A    between atoms: C_28  and  N_35
   19  A    between atoms: C_30  and  N_33
   20  A    between atoms: C_30  and  C_34
   21  A    between atoms: C_32  and  N_38
   22  A    between atoms: O_39  and  C_41
                            x       y       z     vdW  Elec       q    Type
                         _______ _______ _______ _____ _____    ______ ____

>  <TORSDO>
F 22

$$$$
=
 OpenBabel11042412573D

 42 45  0  0  1  0  0  0  0  0999 V2000
  187.6750  177.6250  145.6160 C   0  0  0  0  0  0  0  0  0  0  0  0
  184.0930  178.9850  145.9790 N   0  0  0  0  0  0  0  0  0  0  0  0
  183.5970  178.9840  144.7750 C   0  0  0  0  0  0  0  0  0  0  0  0
  187.0020  177.6680  144.3740 C   0  0  0  0  0  0  0  0  0  0  0  0
  184.5350  178.4550  143.6940 C   0  0  0  0  0  2  0  0  0  0  0  0
  185.3920  178.4580  145.8150 C   0  0  0  0  0  0  0  0  0  0  0  0
  186.6650  178.1980  146.8700 S   0  0  0  0  0  0  0  0  0  0  0  0
  185.7020  178.1450  144.5530 C   0  0  0  0  0  0  0  0  0  0  0  0
  187.9380  176.0900  142.8600 O   0  0  0  0  0  0  0  0  0  0  0  0
  187.5750  177.2800  143.0670 C   0  0  0  0  0  0  0  0  0  0  0  0
  187.7210  178.2580  142.0310 N   0  0  0  0  0  2  0  0  0  0  0  0
  188.2580  177.9350  140.7180 C   0  0  0  0  0  2  0  0  0  0  0  0
  187.2360  178.2650  139.6450 C   0  0  0  0  0  2  0  0  0  0  0  0
  189.0420  179.1390  138.6160 O   0  0  0  0  0  1  0  0  0  0  0  0
  187.9050  178.4450  138.3690 N   0  0  0  0  0  0  0  0  0  0  0  0
  188.3160  177.1250  137.9200 C   0  0  0  0  0  2  0  0  0  0  0  0
  187.8440  176.8880  136.4950 C   0  0  0  0  0  2  0  0  0  0  0  0
  186.7100  175.9810  136.4900 N   0  0  0  0  0  2  0  0  0  0  0  0
  185.5640  176.7430  136.0270 C   0  0  0  0  0  2  0  0  0  0  0  0
  184.3600  176.4530  136.9050 C   0  0  0  0  0  2  0  0  0  0  0  0
  183.4050  177.4600  136.7580 O   0  0  0  0  0  0  0  0  0  0  0  0
  182.8700  177.6270  138.0360 C   0  0  0  0  0  2  0  0  0  0  0  0
  183.3830  178.9160  138.6540 C   0  0  0  0  0  2  0  0  0  0  0  0
  183.4090  178.8010  140.1640 C   0  0  0  0  0  1  0  0  0  0  0  0
  182.3030  179.4370  144.5280 O   0  0  0  0  0  0  0  0  0  0  0  0
  181.6380  179.1710  143.3020 C   0  0  0  0  0  1  0  0  0  0  0  0
  189.0910  177.2140  145.8330 C   0  0  0  0  0  2  0  0  0  0  0  0
  190.0270  178.2490  145.2420 C   0  0  0  0  0  2  0  0  0  0  0  0
  191.3040  177.6280  144.9400 N   0  0  0  0  0  2  0  0  0  0  0  0
  191.8150  175.6270  143.8680 O   0  0  0  0  0  1  0  0  0  0  0  0
  191.1220  176.8320  143.7400 C   0  0  2  0  0  3  0  0  0  0  0  0
  191.7590  177.7470  142.3080 S   0  0  0  0  0  0  0  0  0  0  0  0
  190.8840  176.3920  140.9200 S   0  0  0  0  0  0  0  0  0  0  0  0
  191.7760  177.1330  139.5220 C   0  0  0  0  0  2  0  0  0  0  0  0
  192.4020  176.6130  137.2710 O   0  0  0  0  0  0  0  0  0  0  0  0
  193.5920  174.5430  137.8000 O   0  0  0  0  0  0  0  0  0  0  0  0
  194.1940  175.2450  136.7840 C   0  0  2  0  0  3  0  0  0  0  0  0
  192.0860  176.0680  138.4900 C   0  0  2  0  0  0  0  0  0  0  0  0
  191.1780  175.0120  138.3390 O   0  0  0  0  0  1  0  0  0  0  0  0
  193.4920  175.9600  137.9390 C   0  0  1  0  0  0  0  0  0  0  0  0
  193.4880  173.5320  135.1240 C   0  0  0  0  0  1  0  0  0  0  0  0
  193.4070  174.9990  135.4960 C   0  0  0  0  0  2  0  0  0  0  0  0
  1 27  1  0  0  0  0
  1  7  1  0  0  0  0
  3  2  2  0  0  0  0
  4  8  1  0  0  0  0
  4  1  2  0  0  0  0
  5  8  1  0  0  0  0
  5  3  1  0  0  0  0
  6  2  1  0  0  0  0
  6  7  1  0  0  0  0
  8  6  2  0  0  0  0
  9 10  2  0  0  0  0
 10  4  1  0  0  0  0
 11 10  1  0  0  0  0
 12 11  1  0  0  0  0
 13 12  1  0  0  0  0
 15 14  1  0  0  0  0
 15 13  1  0  0  0  0
 16 15  1  0  0  0  0
 17 16  1  0  0  0  0
 18 17  1  0  0  0  0
 19 18  1  0  0  0  0
 19 20  1  0  0  0  0
 21 20  1  0  0  0  0
 21 22  1  0  0  0  0
 22 23  1  0  0  0  0
 23 24  1  0  0  0  0
 25  3  1  0  0  0  0
 26 25  1  0  0  0  0
 28 27  1  0  0  0  0
 29 28  1  0  0  0  0
 31 30  1  1  0  0  0
 31 29  1  0  0  0  0
 32 31  1  0  0  0  0
 33 32  1  0  0  0  0
 34 33  1  0  0  0  0
 35 38  1  0  0  0  0
 36 40  1  0  0  0  0
 37 42  1  6  0  0  0
 37 36  1  0  0  0  0
 37 40  1  0  0  0  0
 38 39  1  1  0  0  0
 38 34  1  0  0  0  0
 40 35  1  6  0  0  0
 40 38  1  0  0  0  0
 41 42  1  0  0  0  0
M  END
>  <MODEL>
8

>  <REMARK>
 VINA RESULT:      -6.1      1.739      2.407
  Name = 
  22 active torsions:
  status: ('A' for Active; 'I' for Inactive)
    1  A    between atoms: C_1  and  C_19
    2  A    between atoms: C_2  and  C_22
    3  A    between atoms: C_3  and  N_27
    4  A    between atoms: C_3  and  C_28
    5  A    between atoms: S_7  and  S_12
    6  A    between atoms: S_7  and  C_20
    7  A    between atoms: O_8  and  C_11
    8  A    between atoms: C_10  and  C_22
    9  A    between atoms: C_10  and  N_38
   10  A    between atoms: S_12  and  C_32
   11  A    between atoms: C_16  and  C_24
   12  A    between atoms: C_19  and  O_39
   13  A    between atoms: C_20  and  C_29
   14  A    between atoms: C_21  and  C_23
   15  A    between atoms: C_25  and  N_33
   16  A    between atoms: C_25  and  C_41
   17  A    between atoms: N_27  and  C_34
   18  A    between atoms: C_28  and  N_35
   19  A    between atoms: C_30  and  N_33
   20  A    between atoms: C_30  and  C_34
   21  A    between atoms: C_32  and  N_38
   22  A    between atoms: O_39  and  C_41
                            x       y       z     vdW  Elec       q    Type
                         _______ _______ _______ _____ _____    ______ ____

>  <TORSDO>
F 22

$$$$
=
 OpenBabel11042412573D

 42 45  0  0  1  0  0  0  0  0999 V2000
  186.1620  178.0340  143.6190 C   0  0  0  0  0  0  0  0  0  0  0  0
  187.9910  177.6510  146.9840 N   0  0  0  0  0  0  0  0  0  0  0  0
  189.2250  177.3670  146.6780 C   0  0  0  0  0  0  0  0  0  0  0  0
  187.5310  177.7340  143.4410 C   0  0  0  0  0  0  0  0  0  0  0  0
  189.5190  177.3070  145.1830 C   0  0  0  0  0  2  0  0  0  0  0  0
  187.3560  177.8110  145.7340 C   0  0  0  0  0  0  0  0  0  0  0  0
  185.7760  178.1240  145.2820 S   0  0  0  0  0  0  0  0  0  0  0  0
  188.1610  177.6250  144.6820 C   0  0  0  0  0  0  0  0  0  0  0  0
  188.8900  176.5070  141.9220 O   0  0  0  0  0  0  0  0  0  0  0  0
  188.2130  177.5480  142.1420 C   0  0  0  0  0  0  0  0  0  0  0  0
  188.1080  178.5550  141.1290 N   0  0  0  0  0  2  0  0  0  0  0  0
  188.7390  178.4220  139.8240 C   0  0  0  0  0  2  0  0  0  0  0  0
  187.7100  177.9950  138.7930 C   0  0  0  0  0  2  0  0  0  0  0  0
  188.9410  179.5290  137.6900 O   0  0  0  0  0  1  0  0  0  0  0  0
  187.7370  178.9090  137.6640 N   0  0  0  0  0  0  0  0  0  0  0  0
  187.7200  178.0910  136.4620 C   0  0  0  0  0  2  0  0  0  0  0  0
  186.9530  176.8050  136.7160 C   0  0  0  0  0  2  0  0  0  0  0  0
  187.7000  175.6690  136.2070 N   0  0  0  0  0  2  0  0  0  0  0  0
  188.6900  176.1960  135.2840 C   0  0  0  0  0  2  0  0  0  0  0  0
  189.9660  175.3780  135.3710 C   0  0  0  0  0  2  0  0  0  0  0  0
  191.0610  176.2170  135.5790 O   0  0  0  0  0  0  0  0  0  0  0  0
  192.0230  175.4010  136.1770 C   0  0  0  0  0  2  0  0  0  0  0  0
  193.1560  176.2460  136.7290 C   0  0  0  0  0  2  0  0  0  0  0  0
  193.0840  176.2980  138.2420 C   0  0  0  0  0  1  0  0  0  0  0  0
  190.1790  177.1410  147.6690 O   0  0  0  0  0  0  0  0  0  0  0  0
  191.4290  176.5330  147.3780 C   0  0  0  0  0  1  0  0  0  0  0  0
  185.1480  178.1850  142.5370 C   0  0  0  0  0  2  0  0  0  0  0  0
  183.8200  178.6100  143.1310 C   0  0  0  0  0  2  0  0  0  0  0  0
  182.8240  178.6890  142.0770 N   0  0  0  0  0  2  0  0  0  0  0  0
  181.5870  178.7190  144.0470 O   0  0  0  0  0  1  0  0  0  0  0  0
  181.5700  179.0760  142.6980 C   0  0  2  0  0  3  0  0  0  0  0  0
  180.1990  178.2290  141.8650 S   0  0  0  0  0  0  0  0  0  0  0  0
  180.9280  178.7310  139.9290 S   0  0  0  0  0  0  0  0  0  0  0  0
  180.6770  177.0410  139.3150 C   0  0  0  0  0  2  0  0  0  0  0  0
  182.5160  175.5220  139.1220 O   0  0  0  0  0  0  0  0  0  0  0  0
  182.6180  175.5400  136.6780 O   0  0  0  0  0  0  0  0  0  0  0  0
  182.9000  174.3020  137.2020 C   0  0  2  0  0  3  0  0  0  0  0  0
  181.8950  176.5930  138.5330 C   0  0  2  0  0  0  0  0  0  0  0  0
  182.8310  177.5660  138.1590 O   0  0  0  0  0  1  0  0  0  0  0  0
  181.8860  175.2350  137.8650 C   0  0  1  0  0  0  0  0  0  0  0  0
  184.9010  172.9060  137.6830 C   0  0  0  0  0  1  0  0  0  0  0  0
  184.3410  174.3130  137.7150 C   0  0  0  0  0  2  0  0  0  0  0  0
  1  7  1  0  0  0  0
  3  2  2  0  0  0  0
  3 25  1  0  0  0  0
  4  1  2  0  0  0  0
  4  8  1  0  0  0  0
  5  3  1  0  0  0  0
  6  2  1  0  0  0  0
  7  6  1  0  0  0  0
  8  5  1  0  0  0  0
  8  6  2  0  0  0  0
  9 10  2  0  0  0  0
 10  4  1  0  0  0  0
 11 10  1  0  0  0  0
 12 11  1  0  0  0  0
 13 12  1  0  0  0  0
 15 14  1  0  0  0  0
 15 13  1  0  0  0  0
 16 17  1  0  0  0  0
 16 15  1  0  0  0  0
 18 17  1  0  0  0  0
 19 20  1  0  0  0  0
 19 18  1  0  0  0  0
 20 21  1  0  0  0  0
 21 22  1  0  0  0  0
 22 23  1  0  0  0  0
 23 24  1  0  0  0  0
 26 25  1  0  0  0  0
 27 28  1  0  0  0  0
 27  1  1  0  0  0  0
 29 31  1  0  0  0  0
 29 28  1  0  0  0  0
 31 30  1  1  0  0  0
 32 31  1  0  0  0  0
 33 32  1  0  0  0  0
 34 33  1  0  0  0  0
 36 37  1  0  0  0  0
 37 42  1  1  0  0  0
 37 40  1  0  0  0  0
 38 39  1  6  0  0  0
 38 35  1  0  0  0  0
 38 34  1  0  0  0  0
 40 36  1  6  0  0  0
 40 38  1  0  0  0  0
 40 35  1  0  0  0  0
 41 42  1  0  0  0  0
M  END
>  <MODEL>
9

>  <REMARK>
 VINA RESULT:      -6.1      2.988      7.402
  Name = 
  22 active torsions:
  status: ('A' for Active; 'I' for Inactive)
    1  A    between atoms: C_1  and  C_19
    2  A    between atoms: C_2  and  C_22
    3  A    between atoms: C_3  and  N_27
    4  A    between atoms: C_3  and  C_28
    5  A    between atoms: S_7  and  S_12
    6  A    between atoms: S_7  and  C_20
    7  A    between atoms: O_8  and  C_11
    8  A    between atoms: C_10  and  C_22
    9  A    between atoms: C_10  and  N_38
   10  A    between atoms: S_12  and  C_32
   11  A    between atoms: C_16  and  C_24
   12  A    between atoms: C_19  and  O_39
   13  A    between atoms: C_20  and  C_29
   14  A    between atoms: C_21  and  C_23
   15  A    between atoms: C_25  and  N_33
   16  A    between atoms: C_25  and  C_41
   17  A    between atoms: N_27  and  C_34
   18  A    between atoms: C_28  and  N_35
   19  A    between atoms: C_30  and  N_33
   20  A    between atoms: C_30  and  C_34
   21  A    between atoms: C_32  and  N_38
   22  A    between atoms: O_39  and  C_41
                            x       y       z     vdW  Elec       q    Type
                         _______ _______ _______ _____ _____    ______ ____

>  <TORSDO>
F 22

$$$$
