=
 OpenBabel11042410333D

 35 37  0  0  1  0  0  0  0  0999 V2000
  185.5340  178.6130  142.1320 C   0  0  0  0  0  0  0  0  0  0  0  0
  185.7880  177.8760  144.4360 C   0  0  0  0  0  3  0  0  0  0  0  0
  184.9750  178.3230  143.3940 C   0  0  0  0  0  0  0  0  0  0  0  0
  185.0450  179.3970  139.9250 O   0  0  0  0  0  0  0  0  0  0  0  0
  187.7180  177.9860  142.9970 C   0  0  0  0  0  3  0  0  0  0  0  0
  182.6860  178.9190  142.4870 C   0  0  0  0  0  0  0  0  0  0  0  0
  181.2140  179.0480  142.6530 C   0  0  0  0  0  1  0  0  0  0  0  0
  187.1590  177.7050  144.2480 C   0  0  0  0  0  0  0  0  0  0  0  0
  186.9260  178.4390  141.9310 C   0  0  0  0  0  0  0  0  0  0  0  0
  183.2180  179.1900  141.3330 N   0  0  0  0  0  0  0  0  0  0  0  0
  184.6180  179.0880  141.0690 C   0  0  0  0  0  0  0  0  0  0  0  0
  183.5070  178.4970  143.6750 C   0  0  0  0  0  2  0  0  0  0  0  0
  187.5160  178.7150  140.6490 N   0  0  0  0  0  2  0  0  0  0  0  0
  188.6070  178.0280  140.0190 C   0  0  0  0  0  0  0  0  0  0  0  0
  190.6830  176.7300  138.7470 C   0  0  0  0  0  0  0  0  0  0  0  0
  189.8210  177.5130  138.0370 N   0  0  0  0  0  0  0  0  0  0  0  0
  190.4950  176.5930  140.1260 C   0  0  0  0  0  3  0  0  0  0  0  0
  189.4640  177.2430  140.7290 N   0  0  0  0  0  0  0  0  0  0  0  0
  188.7900  178.1620  138.6420 C   0  0  0  0  0  3  0  0  0  0  0  0
  192.7950  173.9250  137.1440 C   0  0  0  0  0  1  0  0  0  0  0  0
  192.8020  176.7120  137.6780 O   0  0  0  0  0  0  0  0  0  0  0  0
  191.7370  174.6410  137.8400 N   0  0  0  0  0  2  0  0  0  0  0  0
  191.7970  176.0510  138.0650 C   0  0  0  0  0  0  0  0  0  0  0  0
  187.9410  177.2520  145.3150 O   0  0  0  0  0  0  0  0  0  0  0  0
  187.6580  177.5860  146.6660 C   0  0  0  0  0  2  0  0  0  0  0  0
  188.9550  177.7990  147.4150 C   0  0  0  0  0  2  0  0  0  0  0  0
  189.7830  176.6540  147.2620 O   0  0  0  0  0  0  0  0  0  0  0  0
  191.8190  177.1640  148.1780 O   0  0  0  0  0  0  0  0  0  0  0  0
  191.1740  176.7460  147.1810 C   0  0  0  0  0  0  0  0  0  0  0  0
  192.3370  175.0130  146.0530 O   0  0  0  0  0  1  0  0  0  0  0  0
  191.9070  176.3380  145.9390 C   0  0  1  0  0  3  0  0  0  0  0  0
  191.0090  176.4920  144.7220 C   0  0  0  0  0  2  0  0  0  0  0  0
  192.0740  177.7640  143.0110 O   0  0  0  0  0  0  0  0  0  0  0  0
  191.3110  177.7670  144.0140 C   0  0  0  0  0  0  0  0  0  0  0  0
  190.7220  178.9550  144.4360 O   0  0  0  0  0  1  0  0  0  0  0  0
  1  3  1  0  0  0  0
  3 12  1  0  0  0  0
  3  2  2  0  0  0  0
  4 11  2  0  0  0  0
  5  8  2  0  0  0  0
  6  7  1  0  0  0  0
  6 12  1  0  0  0  0
  8  2  1  0  0  0  0
  8 24  1  0  0  0  0
  9  1  2  0  0  0  0
  9  5  1  0  0  0  0
 10  6  2  0  0  0  0
 11 10  1  0  0  0  0
 11  1  1  0  0  0  0
 13  9  1  0  0  0  0
 14 13  1  0  0  0  0
 14 18  2  0  0  0  0
 15 17  2  0  0  0  0
 16 19  2  0  0  0  0
 16 15  1  0  0  0  0
 17 18  1  0  0  0  0
 19 14  1  0  0  0  0
 20 22  1  0  0  0  0
 21 23  2  0  0  0  0
 22 23  1  0  0  0  0
 23 15  1  0  0  0  0
 24 25  1  0  0  0  0
 25 26  1  0  0  0  0
 27 26  1  0  0  0  0
 29 27  1  0  0  0  0
 29 28  2  0  0  0  0
 31 30  1  1  0  0  0
 31 29  1  0  0  0  0
 32 31  1  0  0  0  0
 33 34  2  0  0  0  0
 34 35  1  0  0  0  0
 34 32  1  0  0  0  0
M  END
>  <MODEL>
1

>  <REMARK>
 VINA RESULT:      -8.5      0.000      0.000
  Name = 
  11 active torsions:
  status: ('A' for Active; 'I' for Inactive)
    1  A    between atoms: C_5  and  N_22
    2  A    between atoms: C_7  and  C_18
    3  A    between atoms: O_12  and  C_32
    4  A    between atoms: O_12  and  C_34
    5  A    between atoms: C_14  and  C_28
    6  A    between atoms: C_16  and  C_32
    7  A    between atoms: C_16  and  O_33
    8  A    between atoms: C_17  and  O_33
    9  A    between atoms: C_18  and  C_24
   10  A    between atoms: N_22  and  C_23
   11  A    between atoms: C_24  and  C_34
                            x       y       z     vdW  Elec       q    Type
                         _______ _______ _______ _____ _____    ______ ____

>  <TORSDO>
F 11

$$$$
=
 OpenBabel11042410333D

 35 37  0  0  1  0  0  0  0  0999 V2000
  189.1450  177.3080  145.3200 C   0  0  0  0  0  0  0  0  0  0  0  0
  190.5480  177.1840  143.3370 C   0  0  0  0  0  3  0  0  0  0  0  0
  190.3860  177.0250  144.7150 C   0  0  0  0  0  0  0  0  0  0  0  0
  187.9740  177.3840  147.4060 O   0  0  0  0  0  0  0  0  0  0  0  0
  188.2550  177.8960  143.1360 C   0  0  0  0  0  3  0  0  0  0  0  0
  191.3070  176.3550  146.9770 C   0  0  0  0  0  0  0  0  0  0  0  0
  192.4060  175.8340  147.8320 C   0  0  0  0  0  1  0  0  0  0  0  0
  189.4900  177.6190  142.5410 C   0  0  0  0  0  0  0  0  0  0  0  0
  188.0630  177.7480  144.5180 C   0  0  0  0  0  0  0  0  0  0  0  0
  190.1600  176.6280  147.5220 N   0  0  0  0  0  0  0  0  0  0  0  0
  189.0380  177.1230  146.7860 C   0  0  0  0  0  0  0  0  0  0  0  0
  191.5760  176.5650  145.5120 C   0  0  0  0  0  2  0  0  0  0  0  0
  186.7830  178.0290  145.1110 N   0  0  0  0  0  2  0  0  0  0  0  0
  185.5430  178.2890  144.4390 C   0  0  0  0  0  0  0  0  0  0  0  0
  183.1290  178.8070  143.2070 C   0  0  0  0  0  0  0  0  0  0  0  0
  183.2930  179.0630  144.5360 N   0  0  0  0  0  0  0  0  0  0  0  0
  184.2000  178.2750  142.4810 C   0  0  0  0  0  3  0  0  0  0  0  0
  185.3780  178.0280  143.1120 N   0  0  0  0  0  0  0  0  0  0  0  0
  184.4730  178.8140  145.1660 C   0  0  0  0  0  3  0  0  0  0  0  0
  179.6300  180.3090  142.5740 C   0  0  0  0  0  1  0  0  0  0  0  0
  181.5740  178.5910  141.4260 O   0  0  0  0  0  0  0  0  0  0  0  0
  180.9010  179.9620  143.1910 N   0  0  0  0  0  2  0  0  0  0  0  0
  181.8440  179.0990  142.5520 C   0  0  0  0  0  0  0  0  0  0  0  0
  189.6890  177.7630  141.1640 O   0  0  0  0  0  0  0  0  0  0  0  0
  190.3990  176.8070  140.3910 C   0  0  0  0  0  2  0  0  0  0  0  0
  189.9220  176.8640  138.9560 C   0  0  0  0  0  2  0  0  0  0  0  0
  188.5200  177.0940  138.9330 O   0  0  0  0  0  0  0  0  0  0  0  0
  188.6780  179.0560  137.7630 O   0  0  0  0  0  0  0  0  0  0  0  0
  187.9460  178.1210  138.1810 C   0  0  0  0  0  0  0  0  0  0  0  0
  186.1350  176.9050  137.2480 O   0  0  0  0  0  1  0  0  0  0  0  0
  186.4840  178.1170  137.8500 C   0  0  1  0  0  3  0  0  0  0  0  0
  185.6590  178.3320  139.1090 C   0  0  0  0  0  2  0  0  0  0  0  0
  184.2260  180.2350  139.1730 O   0  0  0  0  0  1  0  0  0  0  0  0
  184.3950  179.0490  138.7820 C   0  0  0  0  0  0  0  0  0  0  0  0
  183.4190  178.4240  138.0120 O   0  0  0  0  0  0  0  0  0  0  0  0
  1 11  1  0  0  0  0
  2  3  2  0  0  0  0
  3  1  1  0  0  0  0
  3 12  1  0  0  0  0
  5  9  1  0  0  0  0
  6 10  2  0  0  0  0
  6  7  1  0  0  0  0
  8  5  2  0  0  0  0
  8  2  1  0  0  0  0
  9 13  1  0  0  0  0
  9  1  2  0  0  0  0
 11  4  2  0  0  0  0
 11 10  1  0  0  0  0
 12  6  1  0  0  0  0
 14 13  1  0  0  0  0
 14 19  1  0  0  0  0
 15 16  1  0  0  0  0
 16 19  2  0  0  0  0
 17 18  1  0  0  0  0
 17 15  2  0  0  0  0
 18 14  2  0  0  0  0
 20 22  1  0  0  0  0
 21 23  2  0  0  0  0
 23 22  1  0  0  0  0
 23 15  1  0  0  0  0
 24  8  1  0  0  0  0
 25 24  1  0  0  0  0
 26 25  1  0  0  0  0
 27 26  1  0  0  0  0
 28 29  2  0  0  0  0
 29 27  1  0  0  0  0
 31 30  1  1  0  0  0
 31 29  1  0  0  0  0
 31 32  1  0  0  0  0
 34 32  1  0  0  0  0
 34 33  1  0  0  0  0
 35 34  2  0  0  0  0
M  END
>  <MODEL>
2

>  <REMARK>
 VINA RESULT:      -8.4      2.987      8.712
  Name = 
  11 active torsions:
  status: ('A' for Active; 'I' for Inactive)
    1  A    between atoms: C_5  and  N_22
    2  A    between atoms: C_7  and  C_18
    3  A    between atoms: O_12  and  C_32
    4  A    between atoms: O_12  and  C_34
    5  A    between atoms: C_14  and  C_28
    6  A    between atoms: C_16  and  C_32
    7  A    between atoms: C_16  and  O_33
    8  A    between atoms: C_17  and  O_33
    9  A    between atoms: C_18  and  C_24
   10  A    between atoms: N_22  and  C_23
   11  A    between atoms: C_24  and  C_34
                            x       y       z     vdW  Elec       q    Type
                         _______ _______ _______ _____ _____    ______ ____

>  <TORSDO>
F 11

$$$$
=
 OpenBabel11042410333D

 35 37  0  0  1  0  0  0  0  0999 V2000
  189.2690  177.3110  145.6020 C   0  0  0  0  0  0  0  0  0  0  0  0
  190.4110  176.8730  143.5000 C   0  0  0  0  0  3  0  0  0  0  0  0
  190.4010  176.8580  144.8950 C   0  0  0  0  0  0  0  0  0  0  0  0
  188.3640  177.6900  147.7840 O   0  0  0  0  0  0  0  0  0  0  0  0
  188.1770  177.7750  143.4800 C   0  0  0  0  0  3  0  0  0  0  0  0
  191.5260  176.3170  147.0990 C   0  0  0  0  0  0  0  0  0  0  0  0
  192.6730  175.7770  147.8770 C   0  0  0  0  0  1  0  0  0  0  0  0
  189.3060  177.3290  142.7840 C   0  0  0  0  0  0  0  0  0  0  0  0
  188.1390  177.7740  144.8820 C   0  0  0  0  0  0  0  0  0  0  0  0
  190.4780  176.7460  147.7360 N   0  0  0  0  0  0  0  0  0  0  0  0
  189.3220  177.2740  147.0820 C   0  0  0  0  0  0  0  0  0  0  0  0
  191.6360  176.3640  145.5990 C   0  0  0  0  0  2  0  0  0  0  0  0
  186.9670  178.2280  145.5810 N   0  0  0  0  0  2  0  0  0  0  0  0
  185.6460  178.4130  145.0520 C   0  0  0  0  0  0  0  0  0  0  0  0
  183.0840  178.7820  144.0970 C   0  0  0  0  0  0  0  0  0  0  0  0
  183.3650  178.9910  145.4140 N   0  0  0  0  0  0  0  0  0  0  0  0
  184.1120  178.3750  143.2400 C   0  0  0  0  0  3  0  0  0  0  0  0
  185.3660  178.2000  143.7360 N   0  0  0  0  0  0  0  0  0  0  0  0
  184.6210  178.8140  145.9090 C   0  0  0  0  0  3  0  0  0  0  0  0
  180.1970  179.8440  141.7660 C   0  0  0  0  0  1  0  0  0  0  0  0
  180.7230  178.6070  144.2650 O   0  0  0  0  0  0  0  0  0  0  0  0
  181.5220  179.6380  142.3290 N   0  0  0  0  0  2  0  0  0  0  0  0
  181.7180  178.9940  143.5900 C   0  0  0  0  0  0  0  0  0  0  0  0
  189.3500  177.3260  141.3860 O   0  0  0  0  0  0  0  0  0  0  0  0
  190.5510  177.1030  140.6610 C   0  0  0  0  0  2  0  0  0  0  0  0
  190.2150  176.6620  139.2530 C   0  0  0  0  0  2  0  0  0  0  0  0
  190.1520  177.8000  138.4040 O   0  0  0  0  0  0  0  0  0  0  0  0
  188.9820  179.5820  137.5700 O   0  0  0  0  0  0  0  0  0  0  0  0
  188.9490  178.4490  138.1170 C   0  0  0  0  0  0  0  0  0  0  0  0
  186.9520  178.5680  139.3910 O   0  0  0  0  0  1  0  0  0  0  0  0
  187.6290  177.8120  138.4300 C   0  0  1  0  0  3  0  0  0  0  0  0
  186.7880  177.6960  137.1690 C   0  0  0  0  0  2  0  0  0  0  0  0
  187.4860  175.4420  136.8410 O   0  0  0  0  0  1  0  0  0  0  0  0
  187.2750  176.5720  136.3240 C   0  0  0  0  0  0  0  0  0  0  0  0
  187.4610  176.7570  134.9580 O   0  0  0  0  0  0  0  0  0  0  0  0
  1 11  1  0  0  0  0
  2  3  2  0  0  0  0
  3 12  1  0  0  0  0
  3  1  1  0  0  0  0
  5  9  1  0  0  0  0
  6 10  2  0  0  0  0
  6  7  1  0  0  0  0
  8  5  2  0  0  0  0
  8  2  1  0  0  0  0
  9 13  1  0  0  0  0
  9  1  2  0  0  0  0
 11 10  1  0  0  0  0
 11  4  2  0  0  0  0
 12  6  1  0  0  0  0
 14 13  1  0  0  0  0
 14 19  1  0  0  0  0
 15 16  1  0  0  0  0
 16 19  2  0  0  0  0
 17 18  1  0  0  0  0
 17 15  2  0  0  0  0
 18 14  2  0  0  0  0
 20 22  1  0  0  0  0
 22 23  1  0  0  0  0
 23 15  1  0  0  0  0
 23 21  2  0  0  0  0
 24  8  1  0  0  0  0
 25 24  1  0  0  0  0
 26 25  1  0  0  0  0
 27 26  1  0  0  0  0
 28 29  2  0  0  0  0
 29 27  1  0  0  0  0
 29 31  1  0  0  0  0
 31 30  1  1  0  0  0
 32 31  1  0  0  0  0
 34 33  1  0  0  0  0
 34 32  1  0  0  0  0
 35 34  2  0  0  0  0
M  END
>  <MODEL>
3

>  <REMARK>
 VINA RESULT:      -8.3      3.053      8.784
  Name = 
  11 active torsions:
  status: ('A' for Active; 'I' for Inactive)
    1  A    between atoms: C_5  and  N_22
    2  A    between atoms: C_7  and  C_18
    3  A    between atoms: O_12  and  C_32
    4  A    between atoms: O_12  and  C_34
    5  A    between atoms: C_14  and  C_28
    6  A    between atoms: C_16  and  C_32
    7  A    between atoms: C_16  and  O_33
    8  A    between atoms: C_17  and  O_33
    9  A    between atoms: C_18  and  C_24
   10  A    between atoms: N_22  and  C_23
   11  A    between atoms: C_24  and  C_34
                            x       y       z     vdW  Elec       q    Type
                         _______ _______ _______ _____ _____    ______ ____

>  <TORSDO>
F 11

$$$$
=
 OpenBabel11042410333D

 35 37  0  0  1  0  0  0  0  0999 V2000
  189.8590  177.3860  144.9520 C   0  0  0  0  0  0  0  0  0  0  0  0
  187.8770  177.1910  146.3470 C   0  0  0  0  0  3  0  0  0  0  0  0
  189.2550  177.0490  146.1810 C   0  0  0  0  0  0  0  0  0  0  0  0
  191.9350  177.4580  143.7640 O   0  0  0  0  0  0  0  0  0  0  0  0
  187.6730  178.0090  144.0900 C   0  0  0  0  0  3  0  0  0  0  0  0
  191.5360  176.4520  147.1080 C   0  0  0  0  0  0  0  0  0  0  0  0
  192.4090  176.0020  148.2230 C   0  0  0  0  0  1  0  0  0  0  0  0
  187.0780  177.6680  145.3100 C   0  0  0  0  0  0  0  0  0  0  0  0
  189.0560  177.8750  143.8920 C   0  0  0  0  0  0  0  0  0  0  0  0
  192.0760  176.7580  145.9670 N   0  0  0  0  0  0  0  0  0  0  0  0
  191.3260  177.2100  144.8370 C   0  0  0  0  0  0  0  0  0  0  0  0
  190.0500  176.5150  147.3410 C   0  0  0  0  0  2  0  0  0  0  0  0
  189.6510  178.2380  142.6350 N   0  0  0  0  0  2  0  0  0  0  0  0
  189.1620  177.9520  141.3170 C   0  0  0  0  0  0  0  0  0  0  0  0
  188.2780  177.3660  138.7700 C   0  0  0  0  0  0  0  0  0  0  0  0
  189.4520  176.8460  139.2280 N   0  0  0  0  0  0  0  0  0  0  0  0
  187.5320  178.2020  139.6080 C   0  0  0  0  0  3  0  0  0  0  0  0
  187.9910  178.4750  140.8590 N   0  0  0  0  0  0  0  0  0  0  0  0
  189.9090  177.1220  140.4800 C   0  0  0  0  0  3  0  0  0  0  0  0
  187.0780  177.8220  135.1300 C   0  0  0  0  0  1  0  0  0  0  0  0
  187.6510  175.8330  137.0690 O   0  0  0  0  0  0  0  0  0  0  0  0
  187.5190  178.0900  136.4900 N   0  0  0  0  0  2  0  0  0  0  0  0
  187.8040  177.0380  137.4150 C   0  0  0  0  0  0  0  0  0  0  0  0
  185.7010  177.7990  145.5150 O   0  0  0  0  0  0  0  0  0  0  0  0
  185.0760  179.0590  145.7140 C   0  0  0  0  0  2  0  0  0  0  0  0
  183.6380  178.9880  145.2470 C   0  0  0  0  0  2  0  0  0  0  0  0
  183.5050  179.6920  144.0200 O   0  0  0  0  0  0  0  0  0  0  0  0
  181.9050  178.7880  142.6530 O   0  0  0  0  0  0  0  0  0  0  0  0
  183.1210  179.0580  142.8360 C   0  0  0  0  0  0  0  0  0  0  0  0
  184.9610  177.6900  142.2300 O   0  0  0  0  0  1  0  0  0  0  0  0
  184.1260  178.7150  141.7790 C   0  0  1  0  0  3  0  0  0  0  0  0
  183.4210  178.2890  140.5010 C   0  0  0  0  0  2  0  0  0  0  0  0
  184.5340  180.0640  139.3650 O   0  0  0  0  0  1  0  0  0  0  0  0
  183.4830  179.3800  139.4890 C   0  0  0  0  0  0  0  0  0  0  0  0
  182.3960  179.6180  138.6540 O   0  0  0  0  0  0  0  0  0  0  0  0
  1  3  1  0  0  0  0
  3  2  2  0  0  0  0
  3 12  1  0  0  0  0
  4 11  2  0  0  0  0
  5  8  2  0  0  0  0
  6 12  1  0  0  0  0
  6  7  1  0  0  0  0
  8 24  1  0  0  0  0
  8  2  1  0  0  0  0
  9  5  1  0  0  0  0
  9  1  2  0  0  0  0
 10  6  2  0  0  0  0
 11  1  1  0  0  0  0
 11 10  1  0  0  0  0
 13  9  1  0  0  0  0
 14 13  1  0  0  0  0
 15 16  1  0  0  0  0
 15 17  2  0  0  0  0
 16 19  2  0  0  0  0
 17 18  1  0  0  0  0
 18 14  2  0  0  0  0
 19 14  1  0  0  0  0
 20 22  1  0  0  0  0
 21 23  2  0  0  0  0
 22 23  1  0  0  0  0
 23 15  1  0  0  0  0
 24 25  1  0  0  0  0
 26 25  1  0  0  0  0
 27 26  1  0  0  0  0
 28 29  2  0  0  0  0
 29 27  1  0  0  0  0
 31 30  1  1  0  0  0
 31 29  1  0  0  0  0
 32 31  1  0  0  0  0
 33 34  1  0  0  0  0
 34 32  1  0  0  0  0
 35 34  2  0  0  0  0
M  END
>  <MODEL>
4

>  <REMARK>
 VINA RESULT:      -8.3      2.400      6.846
  Name = 
  11 active torsions:
  status: ('A' for Active; 'I' for Inactive)
    1  A    between atoms: C_5  and  N_22
    2  A    between atoms: C_7  and  C_18
    3  A    between atoms: O_12  and  C_32
    4  A    between atoms: O_12  and  C_34
    5  A    between atoms: C_14  and  C_28
    6  A    between atoms: C_16  and  C_32
    7  A    between atoms: C_16  and  O_33
    8  A    between atoms: C_17  and  O_33
    9  A    between atoms: C_18  and  C_24
   10  A    between atoms: N_22  and  C_23
   11  A    between atoms: C_24  and  C_34
                            x       y       z     vdW  Elec       q    Type
                         _______ _______ _______ _____ _____    ______ ____

>  <TORSDO>
F 11

$$$$
=
 OpenBabel11042410333D

 35 37  0  0  1  0  0  0  0  0999 V2000
  189.3330  177.2640  145.5640 C   0  0  0  0  0  0  0  0  0  0  0  0
  190.4130  176.5370  143.5090 C   0  0  0  0  0  3  0  0  0  0  0  0
  190.4350  176.6900  144.8970 C   0  0  0  0  0  0  0  0  0  0  0  0
  188.4910  177.9330  147.7010 O   0  0  0  0  0  0  0  0  0  0  0  0
  188.2090  177.5080  143.4220 C   0  0  0  0  0  3  0  0  0  0  0  0
  191.5910  176.3790  147.1290 C   0  0  0  0  0  0  0  0  0  0  0  0
  192.7360  175.8950  147.9440 C   0  0  0  0  0  1  0  0  0  0  0  0
  189.3080  176.9430  142.7650 C   0  0  0  0  0  0  0  0  0  0  0  0
  188.2030  177.6760  144.8150 C   0  0  0  0  0  0  0  0  0  0  0  0
  190.5720  176.9170  147.7280 N   0  0  0  0  0  0  0  0  0  0  0  0
  189.4190  177.4020  147.0360 C   0  0  0  0  0  0  0  0  0  0  0  0
  191.6680  176.2420  145.6320 C   0  0  0  0  0  2  0  0  0  0  0  0
  187.0620  178.2510  145.4750 N   0  0  0  0  0  2  0  0  0  0  0  0
  185.7420  178.4340  144.9460 C   0  0  0  0  0  0  0  0  0  0  0  0
  183.1780  178.7960  143.9900 C   0  0  0  0  0  0  0  0  0  0  0  0
  183.4460  178.9470  145.3180 N   0  0  0  0  0  0  0  0  0  0  0  0
  184.2210  178.4520  143.1230 C   0  0  0  0  0  3  0  0  0  0  0  0
  185.4740  178.2790  143.6190 N   0  0  0  0  0  0  0  0  0  0  0  0
  184.7020  178.7720  145.8130 C   0  0  0  0  0  3  0  0  0  0  0  0
  179.3250  178.9870  143.9030 C   0  0  0  0  0  1  0  0  0  0  0  0
  181.6270  179.3940  142.2960 O   0  0  0  0  0  0  0  0  0  0  0  0
  180.6940  178.7670  144.3420 N   0  0  0  0  0  2  0  0  0  0  0  0
  181.8120  179.0040  143.4840 C   0  0  0  0  0  0  0  0  0  0  0  0
  189.3210  176.7710  141.3770 O   0  0  0  0  0  0  0  0  0  0  0  0
  188.9080  177.7900  140.4770 C   0  0  0  0  0  2  0  0  0  0  0  0
  189.0880  177.3090  139.0540 C   0  0  0  0  0  2  0  0  0  0  0  0
  190.4390  177.5000  138.6580 O   0  0  0  0  0  0  0  0  0  0  0  0
  190.8930  175.2560  138.6180 O   0  0  0  0  0  0  0  0  0  0  0  0
  191.3100  176.4310  138.4390 C   0  0  0  0  0  0  0  0  0  0  0  0
  193.5570  176.8290  139.0840 O   0  0  0  0  0  1  0  0  0  0  0  0
  192.7180  176.6580  137.9800 C   0  0  1  0  0  3  0  0  0  0  0  0
  193.1930  175.4840  137.1390 C   0  0  0  0  0  2  0  0  0  0  0  0
  195.4790  174.8420  137.3460 O   0  0  0  0  0  1  0  0  0  0  0  0
  194.6420  175.6260  136.8250 C   0  0  0  0  0  0  0  0  0  0  0  0
  195.0670  176.5990  135.9260 O   0  0  0  0  0  0  0  0  0  0  0  0
  1 11  1  0  0  0  0
  2  3  2  0  0  0  0
  3  1  1  0  0  0  0
  3 12  1  0  0  0  0
  5  9  1  0  0  0  0
  6 10  2  0  0  0  0
  6  7  1  0  0  0  0
  8  5  2  0  0  0  0
  8  2  1  0  0  0  0
  9 13  1  0  0  0  0
  9  1  2  0  0  0  0
 11  4  2  0  0  0  0
 11 10  1  0  0  0  0
 12  6  1  0  0  0  0
 14 13  1  0  0  0  0
 14 19  1  0  0  0  0
 15 16  1  0  0  0  0
 16 19  2  0  0  0  0
 17 18  1  0  0  0  0
 17 15  2  0  0  0  0
 18 14  2  0  0  0  0
 20 22  1  0  0  0  0
 21 23  2  0  0  0  0
 23 15  1  0  0  0  0
 23 22  1  0  0  0  0
 24  8  1  0  0  0  0
 25 24  1  0  0  0  0
 26 25  1  0  0  0  0
 27 26  1  0  0  0  0
 29 28  2  0  0  0  0
 29 27  1  0  0  0  0
 31 29  1  0  0  0  0
 31 30  1  1  0  0  0
 32 31  1  0  0  0  0
 34 32  1  0  0  0  0
 34 33  1  0  0  0  0
 35 34  2  0  0  0  0
M  END
>  <MODEL>
5

>  <REMARK>
 VINA RESULT:      -8.1      3.003      8.583
  Name = 
  11 active torsions:
  status: ('A' for Active; 'I' for Inactive)
    1  A    between atoms: C_5  and  N_22
    2  A    between atoms: C_7  and  C_18
    3  A    between atoms: O_12  and  C_32
    4  A    between atoms: O_12  and  C_34
    5  A    between atoms: C_14  and  C_28
    6  A    between atoms: C_16  and  C_32
    7  A    between atoms: C_16  and  O_33
    8  A    between atoms: C_17  and  O_33
    9  A    between atoms: C_18  and  C_24
   10  A    between atoms: N_22  and  C_23
   11  A    between atoms: C_24  and  C_34
                            x       y       z     vdW  Elec       q    Type
                         _______ _______ _______ _____ _____    ______ ____

>  <TORSDO>
F 11

$$$$
=
 OpenBabel11042410333D

 35 37  0  0  1  0  0  0  0  0999 V2000
  186.4740  178.0810  144.8650 C   0  0  0  0  0  0  0  0  0  0  0  0
  188.6040  177.3400  143.9540 C   0  0  0  0  0  3  0  0  0  0  0  0
  187.8190  177.7020  145.0500 C   0  0  0  0  0  0  0  0  0  0  0  0
  184.4980  178.8370  145.9830 O   0  0  0  0  0  0  0  0  0  0  0  0
  186.7370  177.7120  142.4770 C   0  0  0  0  0  3  0  0  0  0  0  0
  187.5400  178.0280  147.5470 C   0  0  0  0  0  0  0  0  0  0  0  0
  188.0720  177.9730  148.9330 C   0  0  0  0  0  1  0  0  0  0  0  0
  188.0740  177.3430  142.6660 C   0  0  0  0  0  0  0  0  0  0  0  0
  185.9250  178.0820  143.5590 C   0  0  0  0  0  0  0  0  0  0  0  0
  186.3040  178.3830  147.3590 N   0  0  0  0  0  0  0  0  0  0  0  0
  185.6950  178.4580  146.0680 C   0  0  0  0  0  0  0  0  0  0  0  0
  188.4650  177.6900  146.4090 C   0  0  0  0  0  2  0  0  0  0  0  0
  184.5510  178.4510  143.3470 N   0  0  0  0  0  2  0  0  0  0  0  0
  183.8990  178.7270  142.0990 C   0  0  0  0  0  0  0  0  0  0  0  0
  182.5850  179.2440  139.7290 C   0  0  0  0  0  0  0  0  0  0  0  0
  181.8820  178.9050  140.8460 N   0  0  0  0  0  0  0  0  0  0  0  0
  183.9800  179.3210  139.8020 C   0  0  0  0  0  3  0  0  0  0  0  0
  184.6030  179.0620  140.9820 N   0  0  0  0  0  0  0  0  0  0  0  0
  182.5080  178.6450  142.0260 C   0  0  0  0  0  3  0  0  0  0  0  0
  180.5480  178.6960  136.4970 C   0  0  0  0  0  1  0  0  0  0  0  0
  181.7930  180.7190  138.0470 O   0  0  0  0  0  0  0  0  0  0  0  0
  181.2840  178.4640  137.7290 N   0  0  0  0  0  2  0  0  0  0  0  0
  181.8780  179.5320  138.4700 C   0  0  0  0  0  0  0  0  0  0  0  0
  188.8890  176.9700  141.5920 O   0  0  0  0  0  0  0  0  0  0  0  0
  190.2310  176.5390  141.7660 C   0  0  0  0  0  2  0  0  0  0  0  0
  191.0590  176.9730  140.5770 C   0  0  0  0  0  2  0  0  0  0  0  0
  190.7670  176.1350  139.4670 O   0  0  0  0  0  0  0  0  0  0  0  0
  192.2870  176.2350  137.7570 O   0  0  0  0  0  0  0  0  0  0  0  0
  191.1190  176.4790  138.1610 C   0  0  0  0  0  0  0  0  0  0  0  0
  190.2300  176.5370  135.9620 O   0  0  0  0  0  1  0  0  0  0  0  0
  190.1290  177.1130  137.2310 C   0  0  1  0  0  3  0  0  0  0  0  0
  188.7180  176.9430  137.7700 C   0  0  0  0  0  2  0  0  0  0  0  0
  188.8940  179.0920  138.7840 O   0  0  0  0  0  1  0  0  0  0  0  0
  188.1610  178.2600  138.1860 C   0  0  0  0  0  0  0  0  0  0  0  0
  186.8440  178.5870  137.8800 O   0  0  0  0  0  0  0  0  0  0  0  0
  1  3  1  0  0  0  0
  1 11  1  0  0  0  0
  2  3  2  0  0  0  0
  3 12  1  0  0  0  0
  4 11  2  0  0  0  0
  5  8  2  0  0  0  0
  5  9  1  0  0  0  0
  6  7  1  0  0  0  0
  8  2  1  0  0  0  0
  9  1  2  0  0  0  0
 10  6  2  0  0  0  0
 11 10  1  0  0  0  0
 12  6  1  0  0  0  0
 13  9  1  0  0  0  0
 14 13  1  0  0  0  0
 15 17  2  0  0  0  0
 15 16  1  0  0  0  0
 16 19  2  0  0  0  0
 17 18  1  0  0  0  0
 18 14  2  0  0  0  0
 19 14  1  0  0  0  0
 20 22  1  0  0  0  0
 21 23  2  0  0  0  0
 22 23  1  0  0  0  0
 23 15  1  0  0  0  0
 24 25  1  0  0  0  0
 24  8  1  0  0  0  0
 26 25  1  0  0  0  0
 27 26  1  0  0  0  0
 28 29  2  0  0  0  0
 29 27  1  0  0  0  0
 31 30  1  6  0  0  0
 31 32  1  0  0  0  0
 31 29  1  0  0  0  0
 32 34  1  0  0  0  0
 34 33  1  0  0  0  0
 35 34  2  0  0  0  0
M  END
>  <MODEL>
6

>  <REMARK>
 VINA RESULT:      -7.9      3.372      7.378
  Name = 
  11 active torsions:
  status: ('A' for Active; 'I' for Inactive)
    1  A    between atoms: C_5  and  N_22
    2  A    between atoms: C_7  and  C_18
    3  A    between atoms: O_12  and  C_32
    4  A    between atoms: O_12  and  C_34
    5  A    between atoms: C_14  and  C_28
    6  A    between atoms: C_16  and  C_32
    7  A    between atoms: C_16  and  O_33
    8  A    between atoms: C_17  and  O_33
    9  A    between atoms: C_18  and  C_24
   10  A    between atoms: N_22  and  C_23
   11  A    between atoms: C_24  and  C_34
                            x       y       z     vdW  Elec       q    Type
                         _______ _______ _______ _____ _____    ______ ____

>  <TORSDO>
F 11

$$$$
=
 OpenBabel11042410333D

 35 37  0  0  1  0  0  0  0  0999 V2000
  188.4710  177.8030  141.2550 C   0  0  0  0  0  0  0  0  0  0  0  0
  188.7500  177.1560  143.5830 C   0  0  0  0  0  3  0  0  0  0  0  0
  187.9460  177.6500  142.5550 C   0  0  0  0  0  0  0  0  0  0  0  0
  187.9690  178.5300  139.0320 O   0  0  0  0  0  0  0  0  0  0  0  0
  190.6010  176.9460  142.0540 C   0  0  0  0  0  3  0  0  0  0  0  0
  185.7060  178.4870  141.7200 C   0  0  0  0  0  0  0  0  0  0  0  0
  184.2720  178.8110  141.9450 C   0  0  0  0  0  1  0  0  0  0  0  0
  190.0770  176.8020  143.3440 C   0  0  0  0  0  0  0  0  0  0  0  0
  189.8170  177.4420  141.0020 C   0  0  0  0  0  0  0  0  0  0  0  0
  186.2060  178.6300  140.5300 N   0  0  0  0  0  0  0  0  0  0  0  0
  187.5680  178.3360  140.2090 C   0  0  0  0  0  0  0  0  0  0  0  0
  186.5280  178.0240  142.8920 C   0  0  0  0  0  2  0  0  0  0  0  0
  190.3700  177.5760  139.6810 N   0  0  0  0  0  2  0  0  0  0  0  0
  191.4130  176.7920  139.0830 C   0  0  0  0  0  0  0  0  0  0  0  0
  193.4630  175.3270  137.9600 C   0  0  0  0  0  0  0  0  0  0  0  0
  193.7380  176.3820  138.7770 N   0  0  0  0  0  0  0  0  0  0  0  0
  192.1280  175.0020  137.6970 C   0  0  0  0  0  3  0  0  0  0  0  0
  191.1370  175.7400  138.2620 N   0  0  0  0  0  0  0  0  0  0  0  0
  192.7440  177.1200  139.3410 C   0  0  0  0  0  3  0  0  0  0  0  0
  196.9880  174.3780  136.7060 C   0  0  0  0  0  1  0  0  0  0  0  0
  194.3580  173.3540  136.9890 O   0  0  0  0  0  0  0  0  0  0  0  0
  195.8610  175.1200  137.2470 N   0  0  0  0  0  2  0  0  0  0  0  0
  194.5610  174.5400  137.3750 C   0  0  0  0  0  0  0  0  0  0  0  0
  190.8510  176.3070  144.3980 O   0  0  0  0  0  0  0  0  0  0  0  0
  191.3330  177.1360  145.4460 C   0  0  0  0  0  2  0  0  0  0  0  0
  190.9250  176.5500  146.7800 C   0  0  0  0  0  2  0  0  0  0  0  0
  189.5230  176.7030  146.9540 O   0  0  0  0  0  0  0  0  0  0  0  0
  189.7480  178.2710  148.6090 O   0  0  0  0  0  0  0  0  0  0  0  0
  188.9800  177.6440  147.8320 C   0  0  0  0  0  0  0  0  0  0  0  0
  187.2710  179.1580  148.4730 O   0  0  0  0  0  1  0  0  0  0  0  0
  187.5090  177.9310  147.8490 C   0  0  1  0  0  3  0  0  0  0  0  0
  186.9600  177.9500  146.4320 C   0  0  0  0  0  2  0  0  0  0  0  0
  185.6010  179.7660  145.6990 O   0  0  0  0  0  0  0  0  0  0  0  0
  185.6800  178.7100  146.3830 C   0  0  0  0  0  0  0  0  0  0  0  0
  184.5620  178.2360  147.0620 O   0  0  0  0  0  1  0  0  0  0  0  0
  1  3  1  0  0  0  0
  3 12  1  0  0  0  0
  3  2  2  0  0  0  0
  4 11  2  0  0  0  0
  5  8  2  0  0  0  0
  6  7  1  0  0  0  0
  6 12  1  0  0  0  0
  8  2  1  0  0  0  0
  8 24  1  0  0  0  0
  9  1  2  0  0  0  0
  9  5  1  0  0  0  0
 10  6  2  0  0  0  0
 11 10  1  0  0  0  0
 11  1  1  0  0  0  0
 13  9  1  0  0  0  0
 14 19  1  0  0  0  0
 14 13  1  0  0  0  0
 15 16  1  0  0  0  0
 16 19  2  0  0  0  0
 17 15  2  0  0  0  0
 17 18  1  0  0  0  0
 18 14  2  0  0  0  0
 20 22  1  0  0  0  0
 21 23  2  0  0  0  0
 22 23  1  0  0  0  0
 23 15  1  0  0  0  0
 24 25  1  0  0  0  0
 25 26  1  0  0  0  0
 26 27  1  0  0  0  0
 27 29  1  0  0  0  0
 29 31  1  0  0  0  0
 29 28  2  0  0  0  0
 31 30  1  6  0  0  0
 32 31  1  0  0  0  0
 33 34  2  0  0  0  0
 34 32  1  0  0  0  0
 34 35  1  0  0  0  0
M  END
>  <MODEL>
7

>  <REMARK>
 VINA RESULT:      -7.9      2.149      3.941
  Name = 
  11 active torsions:
  status: ('A' for Active; 'I' for Inactive)
    1  A    between atoms: C_5  and  N_22
    2  A    between atoms: C_7  and  C_18
    3  A    between atoms: O_12  and  C_32
    4  A    between atoms: O_12  and  C_34
    5  A    between atoms: C_14  and  C_28
    6  A    between atoms: C_16  and  C_32
    7  A    between atoms: C_16  and  O_33
    8  A    between atoms: C_17  and  O_33
    9  A    between atoms: C_18  and  C_24
   10  A    between atoms: N_22  and  C_23
   11  A    between atoms: C_24  and  C_34
                            x       y       z     vdW  Elec       q    Type
                         _______ _______ _______ _____ _____    ______ ____

>  <TORSDO>
F 11

$$$$
=
 OpenBabel11042410333D

 35 37  0  0  1  0  0  0  0  0999 V2000
  188.6340  177.7140  138.9610 C   0  0  0  0  0  0  0  0  0  0  0  0
  190.4920  176.7910  140.2310 C   0  0  0  0  0  3  0  0  0  0  0  0
  189.8410  176.9870  139.0120 C   0  0  0  0  0  0  0  0  0  0  0  0
  186.8950  178.4930  137.5130 O   0  0  0  0  0  0  0  0  0  0  0  0
  188.7700  178.0370  141.3670 C   0  0  0  0  0  3  0  0  0  0  0  0
  189.7390  176.6930  136.4980 C   0  0  0  0  0  0  0  0  0  0  0  0
  190.3180  176.1990  135.2210 C   0  0  0  0  0  1  0  0  0  0  0  0
  189.9650  177.3100  141.4120 C   0  0  0  0  0  0  0  0  0  0  0  0
  188.0930  178.2490  140.1570 C   0  0  0  0  0  0  0  0  0  0  0  0
  188.6230  177.3580  136.4690 N   0  0  0  0  0  0  0  0  0  0  0  0
  187.9900  177.8840  137.6380 C   0  0  0  0  0  0  0  0  0  0  0  0
  190.4620  176.3850  137.7810 C   0  0  0  0  0  2  0  0  0  0  0  0
  186.8700  179.0050  140.1280 N   0  0  0  0  0  2  0  0  0  0  0  0
  185.7840  178.9540  141.0630 C   0  0  0  0  0  0  0  0  0  0  0  0
  183.6530  178.8350  142.8120 C   0  0  0  0  0  0  0  0  0  0  0  0
  183.4960  178.4690  141.5090 N   0  0  0  0  0  0  0  0  0  0  0  0
  184.9080  179.2750  143.2470 C   0  0  0  0  0  3  0  0  0  0  0  0
  185.9410  179.3250  142.3650 N   0  0  0  0  0  0  0  0  0  0  0  0
  184.5310  178.5200  140.6280 C   0  0  0  0  0  3  0  0  0  0  0  0
  180.0240  178.6310  144.1090 C   0  0  0  0  0  1  0  0  0  0  0  0
  182.7190  178.7020  144.9900 O   0  0  0  0  0  0  0  0  0  0  0  0
  181.1810  178.7390  143.2350 N   0  0  0  0  0  2  0  0  0  0  0  0
  182.5170  178.7570  143.7450 C   0  0  0  0  0  0  0  0  0  0  0  0
  190.6470  177.0970  142.6140 O   0  0  0  0  0  0  0  0  0  0  0  0
  190.7090  175.8230  143.2410 C   0  0  0  0  0  2  0  0  0  0  0  0
  191.6760  175.8800  144.4030 C   0  0  0  0  0  2  0  0  0  0  0  0
  191.3100  176.9440  145.2710 O   0  0  0  0  0  0  0  0  0  0  0  0
  191.4910  176.1360  147.4060 O   0  0  0  0  0  0  0  0  0  0  0  0
  190.7820  176.7180  146.5440 C   0  0  0  0  0  0  0  0  0  0  0  0
  189.4340  177.9120  148.0880 O   0  0  0  0  0  1  0  0  0  0  0  0
  189.4000  177.1730  146.9030 C   0  0  1  0  0  3  0  0  0  0  0  0
  188.8140  178.0140  145.7800 C   0  0  0  0  0  2  0  0  0  0  0  0
  187.4590  176.7540  144.2780 O   0  0  0  0  0  0  0  0  0  0  0  0
  187.5130  177.4440  145.3310 C   0  0  0  0  0  0  0  0  0  0  0  0
  186.3660  177.6410  146.0930 O   0  0  0  0  0  1  0  0  0  0  0  0
  1  3  2  0  0  0  0
  1  9  1  0  0  0  0
  2  8  2  0  0  0  0
  3  2  1  0  0  0  0
  4 11  2  0  0  0  0
  5  8  1  0  0  0  0
  6 12  1  0  0  0  0
  7  6  1  0  0  0  0
  8 24  1  0  0  0  0
  9  5  2  0  0  0  0
 10  6  2  0  0  0  0
 10 11  1  0  0  0  0
 11  1  1  0  0  0  0
 12  3  1  0  0  0  0
 13  9  1  0  0  0  0
 13 14  1  0  0  0  0
 14 18  2  0  0  0  0
 15 17  2  0  0  0  0
 15 23  1  0  0  0  0
 16 15  1  0  0  0  0
 18 17  1  0  0  0  0
 19 14  1  0  0  0  0
 19 16  2  0  0  0  0
 22 23  1  0  0  0  0
 22 20  1  0  0  0  0
 23 21  2  0  0  0  0
 24 25  1  0  0  0  0
 25 26  1  0  0  0  0
 26 27  1  0  0  0  0
 27 29  1  0  0  0  0
 29 31  1  0  0  0  0
 29 28  2  0  0  0  0
 31 30  1  1  0  0  0
 32 31  1  0  0  0  0
 33 34  2  0  0  0  0
 34 32  1  0  0  0  0
 34 35  1  0  0  0  0
M  END
>  <MODEL>
8

>  <REMARK>
 VINA RESULT:      -7.9      1.966      6.790
  Name = 
  11 active torsions:
  status: ('A' for Active; 'I' for Inactive)
    1  A    between atoms: C_5  and  N_22
    2  A    between atoms: C_7  and  C_18
    3  A    between atoms: O_12  and  C_32
    4  A    between atoms: O_12  and  C_34
    5  A    between atoms: C_14  and  C_28
    6  A    between atoms: C_16  and  C_32
    7  A    between atoms: C_16  and  O_33
    8  A    between atoms: C_17  and  O_33
    9  A    between atoms: C_18  and  C_24
   10  A    between atoms: N_22  and  C_23
   11  A    between atoms: C_24  and  C_34
                            x       y       z     vdW  Elec       q    Type
                         _______ _______ _______ _____ _____    ______ ____

>  <TORSDO>
F 11

$$$$
=
 OpenBabel11042410333D

 35 37  0  0  1  0  0  0  0  0999 V2000
  191.7100  176.8990  138.9310 C   0  0  0  0  0  0  0  0  0  0  0  0
  189.5770  176.7060  137.7770 C   0  0  0  0  0  3  0  0  0  0  0  0
  190.9680  176.5870  137.7730 C   0  0  0  0  0  0  0  0  0  0  0  0
  193.9170  177.0440  139.8430 O   0  0  0  0  0  0  0  0  0  0  0  0
  189.6310  177.4320  140.0740 C   0  0  0  0  0  3  0  0  0  0  0  0
  193.1230  175.9740  136.5910 C   0  0  0  0  0  0  0  0  0  0  0  0
  193.8540  175.4670  135.4000 C   0  0  0  0  0  1  0  0  0  0  0  0
  188.9010  177.1280  138.9200 C   0  0  0  0  0  0  0  0  0  0  0  0
  191.0300  177.3250  140.0990 C   0  0  0  0  0  0  0  0  0  0  0  0
  193.7920  176.2720  137.6640 N   0  0  0  0  0  0  0  0  0  0  0  0
  193.1820  176.7560  138.8620 C   0  0  0  0  0  0  0  0  0  0  0  0
  191.6300  176.1400  136.4990 C   0  0  0  0  0  2  0  0  0  0  0  0
  191.7640  177.6340  141.2970 N   0  0  0  0  0  2  0  0  0  0  0  0
  191.3080  177.5430  142.6540 C   0  0  0  0  0  0  0  0  0  0  0  0
  190.4530  177.3030  145.2660 C   0  0  0  0  0  0  0  0  0  0  0  0
  191.1100  176.2740  144.6590 N   0  0  0  0  0  0  0  0  0  0  0  0
  190.2160  178.4770  144.5440 C   0  0  0  0  0  3  0  0  0  0  0  0
  190.6470  178.5700  143.2580 N   0  0  0  0  0  0  0  0  0  0  0  0
  191.5400  176.3690  143.3720 C   0  0  0  0  0  3  0  0  0  0  0  0
  188.3410  177.7490  148.4660 C   0  0  0  0  0  1  0  0  0  0  0  0
  190.6630  176.4550  147.4740 O   0  0  0  0  0  0  0  0  0  0  0  0
  188.8400  177.8650  147.1050 N   0  0  0  0  0  2  0  0  0  0  0  0
  190.0110  177.1750  146.6650 C   0  0  0  0  0  0  0  0  0  0  0  0
  187.5060  177.2310  138.8880 O   0  0  0  0  0  0  0  0  0  0  0  0
  186.8130  177.8750  137.8280 C   0  0  0  0  0  2  0  0  0  0  0  0
  185.4220  178.2500  138.2910 C   0  0  0  0  0  2  0  0  0  0  0  0
  185.5150  179.1430  139.3920 O   0  0  0  0  0  0  0  0  0  0  0  0
  183.5740  178.9550  140.5910 O   0  0  0  0  0  0  0  0  0  0  0  0
  184.8320  178.9220  140.5900 C   0  0  0  0  0  0  0  0  0  0  0  0
  186.9110  178.9990  141.7300 O   0  0  0  0  0  1  0  0  0  0  0  0
  185.5700  178.6300  141.8610 C   0  0  1  0  0  3  0  0  0  0  0  0
  184.9340  179.3780  143.0220 C   0  0  0  0  0  2  0  0  0  0  0  0
  184.6230  179.0390  145.3600 O   0  0  0  0  0  1  0  0  0  0  0  0
  185.1940  178.6620  144.3020 C   0  0  0  0  0  0  0  0  0  0  0  0
  186.0360  177.5550  144.3220 O   0  0  0  0  0  0  0  0  0  0  0  0
  1  9  1  0  0  0  0
  2  8  2  0  0  0  0
  3  2  1  0  0  0  0
  3  1  2  0  0  0  0
  5  9  2  0  0  0  0
  6 10  2  0  0  0  0
  7  6  1  0  0  0  0
  8  5  1  0  0  0  0
  9 13  1  0  0  0  0
 10 11  1  0  0  0  0
 11  1  1  0  0  0  0
 11  4  2  0  0  0  0
 12  6  1  0  0  0  0
 12  3  1  0  0  0  0
 13 14  1  0  0  0  0
 14 18  2  0  0  0  0
 14 19  1  0  0  0  0
 15 23  1  0  0  0  0
 16 15  1  0  0  0  0
 17 15  2  0  0  0  0
 18 17  1  0  0  0  0
 19 16  2  0  0  0  0
 22 20  1  0  0  0  0
 23 22  1  0  0  0  0
 23 21  2  0  0  0  0
 24  8  1  0  0  0  0
 25 26  1  0  0  0  0
 25 24  1  0  0  0  0
 26 27  1  0  0  0  0
 27 29  1  0  0  0  0
 29 28  2  0  0  0  0
 29 31  1  0  0  0  0
 31 30  1  6  0  0  0
 31 32  1  0  0  0  0
 32 34  1  0  0  0  0
 34 35  2  0  0  0  0
 34 33  1  0  0  0  0
M  END
>  <MODEL>
9

>  <REMARK>
 VINA RESULT:      -7.8      2.483      8.460
  Name = 
  11 active torsions:
  status: ('A' for Active; 'I' for Inactive)
    1  A    between atoms: C_5  and  N_22
    2  A    between atoms: C_7  and  C_18
    3  A    between atoms: O_12  and  C_32
    4  A    between atoms: O_12  and  C_34
    5  A    between atoms: C_14  and  C_28
    6  A    between atoms: C_16  and  C_32
    7  A    between atoms: C_16  and  O_33
    8  A    between atoms: C_17  and  O_33
    9  A    between atoms: C_18  and  C_24
   10  A    between atoms: N_22  and  C_23
   11  A    between atoms: C_24  and  C_34
                            x       y       z     vdW  Elec       q    Type
                         _______ _______ _______ _____ _____    ______ ____

>  <TORSDO>
F 11

$$$$
