=
 OpenBabel11042411153D

 54 61  0  0  1  0  0  0  0  0999 V2000
  182.0850  178.9400  142.2120 C   0  0  0  0  0  0  0  0  0  0  0  0
  182.9830  178.7350  144.4710 C   0  0  0  0  0  3  0  0  0  0  0  0
  183.3800  178.7270  141.7300 C   0  0  0  0  0  0  0  0  0  0  0  0
  183.7610  178.7180  140.4460 N   0  0  0  0  0  0  0  0  0  0  0  0
  185.5660  178.3470  141.7900 C   0  0  0  0  0  3  0  0  0  0  0  0
  184.4420  178.5140  142.5750 C   0  0  0  0  0  0  0  0  0  0  0  0
  184.2890  178.5120  143.9770 C   0  0  0  0  0  0  0  0  0  0  0  0
  181.8960  178.9450  143.6010 C   0  0  0  0  0  2  0  0  0  0  0  0
  185.0940  178.4880  140.4830 C   0  0  0  0  0  0  0  0  0  0  0  0
  185.9400  178.3700  139.2710 C   0  0  0  0  0  0  0  0  0  0  0  0
  189.4950  177.3730  137.9570 C   0  0  2  0  0  3  0  0  0  0  0  0
  187.8190  177.7270  140.6230 O   0  0  0  0  0  0  0  0  0  0  0  0
  187.3050  177.9840  139.3380 C   0  0  0  0  0  0  0  0  0  0  0  0
  190.5340  175.3720  136.8730 C   0  0  0  0  0  0  0  0  0  0  0  0
  188.0570  177.8730  138.1170 C   0  0  0  0  0  0  0  0  0  0  0  0
  189.5620  176.2970  136.8920 C   0  0  0  0  0  3  0  0  0  0  0  0
  186.1050  178.6430  136.8700 C   0  0  0  0  0  3  0  0  0  0  0  0
  185.3620  178.6910  138.0390 C   0  0  0  0  0  3  0  0  0  0  0  0
  190.2380  178.0320  140.0910 C   0  0  0  0  0  2  0  0  0  0  0  0
  189.4080  177.8280  142.3470 C   0  0  0  0  0  2  0  0  0  0  0  0
  187.4340  178.2430  136.9140 C   0  0  0  0  0  3  0  0  0  0  0  0
  191.5200  176.5400  138.8680 C   0  0  0  0  0  2  0  0  0  0  0  0
  190.1430  176.9090  139.1880 N   0  0  2  0  0  0  0  0  0  0  0  0
  189.1360  177.8840  141.0530 C   0  0  0  0  0  0  0  0  0  0  0  0
  191.5300  175.2790  138.0060 C   0  0  0  0  0  2  0  0  0  0  0  0
  190.5030  174.3110  135.8070 C   0  0  1  0  0  3  0  0  0  0  0  0
  191.4300  173.3000  136.0720 O   0  0  0  0  0  1  0  0  0  0  0  0
  189.1680  173.7410  135.6720 N   0  0  0  0  0  0  0  0  0  0  0  0
  187.7060  172.3130  137.0030 C   0  0  0  0  0  3  0  0  0  0  0  0
  186.7330  174.5540  136.4830 N   0  0  0  0  0  2  0  0  0  0  0  0
  188.2900  174.2170  134.5960 C   0  0  0  0  0  2  0  0  0  0  0  0
  188.8840  172.5490  136.4130 C   0  0  0  0  0  3  0  0  0  0  0  0
  186.6240  173.2570  137.0170 N   0  0  0  0  0  2  0  0  0  0  0  0
  186.8360  174.4120  135.0390 C   0  0  0  0  0  2  0  0  0  0  0  0
  186.5910  177.6420  144.5500 C   0  0  0  0  0  3  0  0  0  0  0  0
  187.5360  177.9720  146.7540 C   0  0  0  0  0  3  0  0  0  0  0  0
  185.4160  178.3120  144.9330 C   0  0  0  0  0  0  0  0  0  0  0  0
  185.3200  178.8000  146.2460 C   0  0  0  0  0  3  0  0  0  0  0  0
  186.3720  178.6320  147.1520 C   0  0  0  0  0  3  0  0  0  0  0  0
  187.6440  177.4730  145.4530 C   0  0  0  0  0  3  0  0  0  0  0  0
  180.9840  179.1590  141.3230 N   0  0  0  0  0  0  0  0  0  0  0  0
  180.7600  180.4030  140.8140 O   0  0  0  0  0  0  0  0  0  0  0  0
  179.5150  180.8030  141.3180 C   0  0  0  0  0  2  0  0  0  0  0  0
  179.0620  181.9880  140.6150 N   0  0  0  0  0  1  0  0  0  0  0  0
  180.1630  178.0150  140.9070 C   0  0  0  0  0  2  0  0  0  0  0  0
  179.7520  176.9760  137.3090 C   0  0  0  0  0  2  0  0  0  0  0  0
  179.6340  179.2720  138.1950 C   0  0  0  0  0  1  0  0  0  0  0  0
  180.2120  175.1180  138.8080 C   0  0  0  0  0  0  0  0  0  0  0  0
  180.9190  176.0550  139.7510 C   0  0  1  0  0  3  0  0  0  0  0  0
  179.5420  177.8030  138.5700 C   0  0  2  0  0  3  0  0  0  0  0  0
  179.6370  175.6020  137.6360 O   0  0  0  0  0  0  0  0  0  0  0  0
  180.1550  173.8900  139.0680 O   0  0  0  0  0  0  0  0  0  0  0  0
  182.4230  175.8970  139.6010 C   0  0  0  0  0  1  0  0  0  0  0  0
  180.5580  177.4810  139.5940 N   0  0  0  0  0  0  0  0  0  0  0  0
  1  8  1  0  0  0  0
  3  1  2  0  0  0  0
  3  6  1  0  0  0  0
  4  9  2  0  0  0  0
  4  3  1  0  0  0  0
  5  6  2  0  0  0  0
  6  7  1  0  0  0  0
  7  2  2  0  0  0  0
  7 37  1  0  0  0  0
  8  2  1  0  0  0  0
  9  5  1  0  0  0  0
 10 13  1  0  0  0  0
 10  9  1  0  0  0  0
 11 16  1  6  0  0  0
 11 15  1  0  0  0  0
 11 23  1  0  0  0  0
 12 24  1  0  0  0  0
 13 12  1  0  0  0  0
 14 16  2  0  0  0  0
 14 25  1  0  0  0  0
 15 13  2  0  0  0  0
 17 21  2  0  0  0  0
 17 18  1  0  0  0  0
 18 10  2  0  0  0  0
 19 24  1  0  0  0  0
 21 15  1  0  0  0  0
 23 22  1  6  0  0  0
 23 19  1  0  0  0  0
 24 20  2  0  0  0  0
 25 22  1  0  0  0  0
 26 27  1  1  0  0  0
 26 14  1  0  0  0  0
 28 26  1  0  0  0  0
 28 32  1  0  0  0  0
 29 33  1  0  0  0  0
 30 33  1  0  0  0  0
 31 34  1  0  0  0  0
 31 28  1  0  0  0  0
 32 29  2  0  0  0  0
 34 30  1  0  0  0  0
 35 37  2  0  0  0  0
 35 40  1  0  0  0  0
 36 39  1  0  0  0  0
 37 38  1  0  0  0  0
 38 39  2  0  0  0  0
 40 36  2  0  0  0  0
 41  1  1  0  0  0  0
 42 43  1  0  0  0  0
 42 41  1  0  0  0  0
 44 43  1  0  0  0  0
 45 41  1  0  0  0  0
 46 51  1  0  0  0  0
 46 50  1  0  0  0  0
 48 52  2  0  0  0  0
 48 49  1  0  0  0  0
 49 53  1  6  0  0  0
 50 47  1  6  0  0  0
 50 54  1  0  0  0  0
 51 48  1  0  0  0  0
 54 49  1  0  0  0  0
 54 45  1  0  0  0  0
M  END
>  <MODEL>
1

>  <REMARK>
 VINA RESULT:      -9.5      0.000      0.000
  Name = 
  9 active torsions:
  status: ('A' for Active; 'I' for Inactive)
    1  A    between atoms: N_1  and  C_14
    2  A    between atoms: C_3  and  N_19
    3  A    between atoms: C_5  and  C_52
    4  A    between atoms: C_14  and  C_20
    5  A    between atoms: N_19  and  O_29
    6  A    between atoms: N_19  and  C_38
    7  A    between atoms: C_23  and  O_29
    8  A    between atoms: C_28  and  C_42
    9  A    between atoms: C_38  and  N_51
                            x       y       z     vdW  Elec       q    Type
                         _______ _______ _______ _____ _____    ______ ____

>  <TORSDO>
F 9

$$$$
=
 OpenBabel11042411153D

 54 61  0  0  1  0  0  0  0  0999 V2000
  183.0550  178.8630  143.2700 C   0  0  0  0  0  0  0  0  0  0  0  0
  184.2250  178.5670  145.3900 C   0  0  0  0  0  3  0  0  0  0  0  0
  184.2690  178.6230  142.6220 C   0  0  0  0  0  0  0  0  0  0  0  0
  184.4830  178.6380  141.2990 N   0  0  0  0  0  0  0  0  0  0  0  0
  186.4300  178.1740  142.3910 C   0  0  0  0  0  3  0  0  0  0  0  0
  185.4220  178.3540  143.3180 C   0  0  0  0  0  0  0  0  0  0  0  0
  185.4490  178.3180  144.7280 C   0  0  0  0  0  0  0  0  0  0  0  0
  183.0450  178.8360  144.6720 C   0  0  0  0  0  2  0  0  0  0  0  0
  185.8010  178.3660  141.1600 C   0  0  0  0  0  0  0  0  0  0  0  0
  186.4820  178.2550  139.8470 C   0  0  0  0  0  0  0  0  0  0  0  0
  189.7840  177.1360  138.0580 C   0  0  2  0  0  3  0  0  0  0  0  0
  188.4770  177.4640  140.9260 O   0  0  0  0  0  0  0  0  0  0  0  0
  187.8210  177.7990  139.7260 C   0  0  0  0  0  0  0  0  0  0  0  0
  190.5680  175.1320  136.7830 C   0  0  0  0  0  0  0  0  0  0  0  0
  188.4070  177.7010  138.4170 C   0  0  0  0  0  0  0  0  0  0  0  0
  189.6580  176.1020  136.9570 C   0  0  0  0  0  3  0  0  0  0  0  0
  186.3600  178.6190  137.4540 C   0  0  0  0  0  3  0  0  0  0  0  0
  185.7720  178.6550  138.7090 C   0  0  0  0  0  3  0  0  0  0  0  0
  190.8230  177.6680  140.1020 C   0  0  0  0  0  2  0  0  0  0  0  0
  190.2720  177.4140  142.4370 C   0  0  0  0  0  2  0  0  0  0  0  0
  187.6600  178.1500  137.3160 C   0  0  0  0  0  3  0  0  0  0  0  0
  191.8580  176.1660  138.6760 C   0  0  0  0  0  2  0  0  0  0  0  0
  190.5550  176.5900  139.1800 N   0  0  2  0  0  0  0  0  0  0  0  0
  189.8430  177.5370  141.1910 C   0  0  0  0  0  0  0  0  0  0  0  0
  191.6910  174.9420  137.7770 C   0  0  0  0  0  2  0  0  0  0  0  0
  190.3460  174.1180  135.6940 C   0  0  1  0  0  3  0  0  0  0  0  0
  191.2290  173.0430  135.8150 O   0  0  0  0  0  1  0  0  0  0  0  0
  188.9700  173.6370  135.6970 N   0  0  0  0  0  0  0  0  0  0  0  0
  187.4790  172.5390  137.2860 C   0  0  0  0  0  3  0  0  0  0  0  0
  186.6380  174.7430  136.4630 N   0  0  0  0  0  2  0  0  0  0  0  0
  188.0760  174.0100  134.5950 C   0  0  0  0  0  2  0  0  0  0  0  0
  188.6400  172.5940  136.6230 C   0  0  0  0  0  3  0  0  0  0  0  0
  186.4660  173.5540  137.1940 N   0  0  0  0  0  2  0  0  0  0  0  0
  186.6620  174.3780  135.0560 C   0  0  0  0  0  2  0  0  0  0  0  0
  187.8160  177.4620  144.9470 C   0  0  0  0  0  3  0  0  0  0  0  0
  189.0010  177.5970  147.0550 C   0  0  0  0  0  3  0  0  0  0  0  0
  186.6810  178.0560  145.5260 C   0  0  0  0  0  0  0  0  0  0  0  0
  186.7280  178.4080  146.8850 C   0  0  0  0  0  3  0  0  0  0  0  0
  187.8790  178.1810  147.6450 C   0  0  0  0  0  3  0  0  0  0  0  0
  188.9680  177.2340  145.7060 C   0  0  0  0  0  3  0  0  0  0  0  0
  181.8570  179.1410  142.5350 N   0  0  0  0  0  0  0  0  0  0  0  0
  180.7480  179.5850  143.1890 O   0  0  0  0  0  0  0  0  0  0  0  0
  179.9320  178.4590  143.3650 C   0  0  0  0  0  2  0  0  0  0  0  0
  179.2180  178.5650  144.6230 N   0  0  0  0  0  1  0  0  0  0  0  0
  181.8740  179.0240  141.0720 C   0  0  0  0  0  2  0  0  0  0  0  0
  179.0680  178.1770  138.7050 C   0  0  0  0  0  2  0  0  0  0  0  0
  180.0630  176.6840  140.3930 C   0  0  0  0  0  1  0  0  0  0  0  0
  179.8720  180.4610  138.4780 C   0  0  0  0  0  0  0  0  0  0  0  0
  180.3260  180.4430  139.9130 C   0  0  1  0  0  3  0  0  0  0  0  0
  180.2930  177.9460  139.5780 C   0  0  2  0  0  3  0  0  0  0  0  0
  179.2800  179.3330  137.9130 O   0  0  0  0  0  0  0  0  0  0  0  0
  180.0090  181.5030  137.7890 O   0  0  0  0  0  0  0  0  0  0  0  0
  179.3360  181.2090  140.7750 C   0  0  0  0  0  1  0  0  0  0  0  0
  180.5270  179.0910  140.4820 N   0  0  0  0  0  0  0  0  0  0  0  0
  1  8  1  0  0  0  0
  3  1  2  0  0  0  0
  3  6  1  0  0  0  0
  4  3  1  0  0  0  0
  5  6  2  0  0  0  0
  6  7  1  0  0  0  0
  7  2  2  0  0  0  0
  7 37  1  0  0  0  0
  8  2  1  0  0  0  0
  9  4  2  0  0  0  0
  9  5  1  0  0  0  0
 10  9  1  0  0  0  0
 11 16  1  6  0  0  0
 11 15  1  0  0  0  0
 11 23  1  0  0  0  0
 12 24  1  0  0  0  0
 13 10  1  0  0  0  0
 13 12  1  0  0  0  0
 14 16  2  0  0  0  0
 14 25  1  0  0  0  0
 15 13  2  0  0  0  0
 17 18  1  0  0  0  0
 18 10  2  0  0  0  0
 19 24  1  0  0  0  0
 21 17  2  0  0  0  0
 21 15  1  0  0  0  0
 23 22  1  6  0  0  0
 23 19  1  0  0  0  0
 24 20  2  0  0  0  0
 25 22  1  0  0  0  0
 26 28  1  0  0  0  0
 26 27  1  1  0  0  0
 26 14  1  0  0  0  0
 28 32  1  0  0  0  0
 30 33  1  0  0  0  0
 31 34  1  0  0  0  0
 31 28  1  0  0  0  0
 32 29  2  0  0  0  0
 33 29  1  0  0  0  0
 34 30  1  0  0  0  0
 35 37  2  0  0  0  0
 35 40  1  0  0  0  0
 36 39  1  0  0  0  0
 37 38  1  0  0  0  0
 38 39  2  0  0  0  0
 40 36  2  0  0  0  0
 41 42  1  0  0  0  0
 41  1  1  0  0  0  0
 42 43  1  0  0  0  0
 43 44  1  0  0  0  0
 45 41  1  0  0  0  0
 46 50  1  0  0  0  0
 48 49  1  0  0  0  0
 49 54  1  0  0  0  0
 49 53  1  1  0  0  0
 50 47  1  1  0  0  0
 50 54  1  0  0  0  0
 51 48  1  0  0  0  0
 51 46  1  0  0  0  0
 52 48  2  0  0  0  0
 54 45  1  0  0  0  0
M  END
>  <MODEL>
2

>  <REMARK>
 VINA RESULT:      -9.3      1.420      2.227
  Name = 
  9 active torsions:
  status: ('A' for Active; 'I' for Inactive)
    1  A    between atoms: N_1  and  C_14
    2  A    between atoms: C_3  and  N_19
    3  A    between atoms: C_5  and  C_52
    4  A    between atoms: C_14  and  C_20
    5  A    between atoms: N_19  and  O_29
    6  A    between atoms: N_19  and  C_38
    7  A    between atoms: C_23  and  O_29
    8  A    between atoms: C_28  and  C_42
    9  A    between atoms: C_38  and  N_51
                            x       y       z     vdW  Elec       q    Type
                         _______ _______ _______ _____ _____    ______ ____

>  <TORSDO>
F 9

$$$$
=
 OpenBabel11042411153D

 54 61  0  0  1  0  0  0  0  0999 V2000
  181.9330  178.9060  141.9350 C   0  0  0  0  0  0  0  0  0  0  0  0
  182.7270  178.7510  144.2370 C   0  0  0  0  0  3  0  0  0  0  0  0
  183.2500  178.6960  141.5180 C   0  0  0  0  0  0  0  0  0  0  0  0
  183.6900  178.6670  140.2530 N   0  0  0  0  0  0  0  0  0  0  0  0
  185.4340  178.3390  141.6850 C   0  0  0  0  0  3  0  0  0  0  0  0
  184.2730  178.5100  142.4140 C   0  0  0  0  0  0  0  0  0  0  0  0
  184.0560  178.5320  143.8080 C   0  0  0  0  0  0  0  0  0  0  0  0
  181.6800  178.9340  143.3140 C   0  0  0  0  0  2  0  0  0  0  0  0
  185.0220  178.4510  140.3550 C   0  0  0  0  0  0  0  0  0  0  0  0
  185.9240  178.3180  139.1860 C   0  0  0  0  0  0  0  0  0  0  0  0
  189.5560  177.3680  138.0610 C   0  0  2  0  0  3  0  0  0  0  0  0
  187.7540  177.7570  140.6390 O   0  0  0  0  0  0  0  0  0  0  0  0
  187.2930  177.9670  139.3250 C   0  0  0  0  0  0  0  0  0  0  0  0
  190.6870  175.3620  137.0830 C   0  0  0  0  0  0  0  0  0  0  0  0
  188.1010  177.8390  138.1420 C   0  0  0  0  0  0  0  0  0  0  0  0
  189.6950  176.2640  137.0310 C   0  0  0  0  0  3  0  0  0  0  0  0
  186.1920  178.5280  136.7870 C   0  0  0  0  0  3  0  0  0  0  0  0
  185.3950  178.5910  137.9200 C   0  0  0  0  0  3  0  0  0  0  0  0
  190.1870  178.1030  140.2050 C   0  0  0  0  0  2  0  0  0  0  0  0
  189.2610  177.9440  142.4270 C   0  0  0  0  0  2  0  0  0  0  0  0
  187.5250  178.1600  136.9020 C   0  0  0  0  0  3  0  0  0  0  0  0
  191.5550  176.6080  139.0850 C   0  0  0  0  0  2  0  0  0  0  0  0
  190.1580  176.9540  139.3320 N   0  0  2  0  0  0  0  0  0  0  0  0
  189.0460  177.9570  141.1220 C   0  0  0  0  0  0  0  0  0  0  0  0
  191.6320  175.3240  138.2610 C   0  0  0  0  0  2  0  0  0  0  0  0
  190.7270  174.2710  136.0480 C   0  0  1  0  0  3  0  0  0  0  0  0
  189.7930  174.5020  135.0330 O   0  0  0  0  0  1  0  0  0  0  0  0
  192.0610  174.1380  135.4760 N   0  0  0  0  0  0  0  0  0  0  0  0
  193.7860  175.6390  134.6270 C   0  0  0  0  0  3  0  0  0  0  0  0
  194.5320  174.2210  136.5430 N   0  0  0  0  0  2  0  0  0  0  0  0
  192.7440  172.8400  135.5440 C   0  0  0  0  0  2  0  0  0  0  0  0
  192.5230  175.1960  134.6280 C   0  0  0  0  0  3  0  0  0  0  0  0
  194.7970  175.1520  135.5220 N   0  0  0  0  0  2  0  0  0  0  0  0
  194.2310  172.9530  135.8950 C   0  0  0  0  0  2  0  0  0  0  0  0
  185.0550  178.9520  146.0900 C   0  0  0  0  0  3  0  0  0  0  0  0
  187.1940  178.0000  146.7090 C   0  0  0  0  0  3  0  0  0  0  0  0
  185.1400  178.3610  144.8170 C   0  0  0  0  0  0  0  0  0  0  0  0
  186.2750  177.5940  144.5090 C   0  0  0  0  0  3  0  0  0  0  0  0
  187.2950  177.4130  145.4470 C   0  0  0  0  0  3  0  0  0  0  0  0
  186.0740  178.7730  147.0300 C   0  0  0  0  0  3  0  0  0  0  0  0
  180.8720  179.0970  140.9920 N   0  0  0  0  0  0  0  0  0  0  0  0
  180.8100  180.2470  140.2640 O   0  0  0  0  0  0  0  0  0  0  0  0
  179.5410  180.7880  140.5110 C   0  0  0  0  0  2  0  0  0  0  0  0
  179.4800  181.2880  141.8710 N   0  0  0  0  0  1  0  0  0  0  0  0
  179.9130  178.0090  140.7640 C   0  0  0  0  0  2  0  0  0  0  0  0
  179.1100  176.3560  137.4750 C   0  0  0  0  0  2  0  0  0  0  0  0
  178.9460  178.7600  137.9870 C   0  0  0  0  0  1  0  0  0  0  0  0
  179.8930  174.8030  139.1750 C   0  0  0  0  0  0  0  0  0  0  0  0
  180.6490  175.9190  139.8450 C   0  0  1  0  0  3  0  0  0  0  0  0
  179.0080  177.3730  138.6040 C   0  0  2  0  0  3  0  0  0  0  0  0
  179.1360  175.0540  138.0330 O   0  0  0  0  0  0  0  0  0  0  0  0
  179.9580  173.6350  139.6350 O   0  0  0  0  0  0  0  0  0  0  0  0
  182.1280  175.8110  139.5120 C   0  0  0  0  0  1  0  0  0  0  0  0
  180.1700  177.2800  139.5120 N   0  0  0  0  0  0  0  0  0  0  0  0
  1  8  1  0  0  0  0
  3  1  2  0  0  0  0
  3  6  1  0  0  0  0
  4  9  2  0  0  0  0
  4  3  1  0  0  0  0
  5  6  2  0  0  0  0
  6  7  1  0  0  0  0
  7  2  2  0  0  0  0
  7 37  1  0  0  0  0
  8  2  1  0  0  0  0
  9  5  1  0  0  0  0
 10 13  1  0  0  0  0
 10  9  1  0  0  0  0
 11 16  1  6  0  0  0
 11 15  1  0  0  0  0
 11 23  1  0  0  0  0
 12 24  1  0  0  0  0
 13 12  1  0  0  0  0
 14 25  1  0  0  0  0
 15 13  2  0  0  0  0
 16 14  2  0  0  0  0
 17 21  2  0  0  0  0
 17 18  1  0  0  0  0
 18 10  2  0  0  0  0
 19 24  1  0  0  0  0
 21 15  1  0  0  0  0
 23 22  1  6  0  0  0
 23 19  1  0  0  0  0
 24 20  2  0  0  0  0
 25 22  1  0  0  0  0
 26 27  1  6  0  0  0
 26 14  1  0  0  0  0
 28 31  1  0  0  0  0
 28 26  1  0  0  0  0
 29 32  2  0  0  0  0
 29 33  1  0  0  0  0
 31 34  1  0  0  0  0
 32 28  1  0  0  0  0
 33 30  1  0  0  0  0
 34 30  1  0  0  0  0
 35 40  1  0  0  0  0
 36 40  2  0  0  0  0
 37 35  2  0  0  0  0
 38 37  1  0  0  0  0
 38 39  2  0  0  0  0
 39 36  1  0  0  0  0
 41  1  1  0  0  0  0
 42 43  1  0  0  0  0
 42 41  1  0  0  0  0
 43 44  1  0  0  0  0
 45 41  1  0  0  0  0
 46 51  1  0  0  0  0
 46 50  1  0  0  0  0
 48 52  2  0  0  0  0
 48 49  1  0  0  0  0
 49 53  1  6  0  0  0
 50 47  1  6  0  0  0
 50 54  1  0  0  0  0
 51 48  1  0  0  0  0
 54 49  1  0  0  0  0
 54 45  1  0  0  0  0
M  END
>  <MODEL>
3

>  <REMARK>
 VINA RESULT:      -9.2      1.550      2.499
  Name = 
  9 active torsions:
  status: ('A' for Active; 'I' for Inactive)
    1  A    between atoms: N_1  and  C_14
    2  A    between atoms: C_3  and  N_19
    3  A    between atoms: C_5  and  C_52
    4  A    between atoms: C_14  and  C_20
    5  A    between atoms: N_19  and  O_29
    6  A    between atoms: N_19  and  C_38
    7  A    between atoms: C_23  and  O_29
    8  A    between atoms: C_28  and  C_42
    9  A    between atoms: C_38  and  N_51
                            x       y       z     vdW  Elec       q    Type
                         _______ _______ _______ _____ _____    ______ ____

>  <TORSDO>
F 9

$$$$
=
 OpenBabel11042411153D

 54 61  0  0  1  0  0  0  0  0999 V2000
  184.4700  178.3400  143.2860 C   0  0  0  0  0  0  0  0  0  0  0  0
  185.6550  178.0210  145.3940 C   0  0  0  0  0  3  0  0  0  0  0  0
  185.6970  178.2040  142.6310 C   0  0  0  0  0  0  0  0  0  0  0  0
  185.9100  178.2910  141.3110 N   0  0  0  0  0  0  0  0  0  0  0  0
  187.8820  177.8980  142.3880 C   0  0  0  0  0  3  0  0  0  0  0  0
  186.8640  177.9750  143.3180 C   0  0  0  0  0  0  0  0  0  0  0  0
  186.8920  177.8770  144.7260 C   0  0  0  0  0  0  0  0  0  0  0  0
  184.4610  178.2490  144.6850 C   0  0  0  0  0  2  0  0  0  0  0  0
  187.2430  178.1070  141.1640 C   0  0  0  0  0  0  0  0  0  0  0  0
  187.9290  178.0970  139.8500 C   0  0  0  0  0  0  0  0  0  0  0  0
  191.2400  177.1180  137.9970 C   0  0  2  0  0  3  0  0  0  0  0  0
  189.9200  177.2250  140.8750 O   0  0  0  0  0  0  0  0  0  0  0  0
  189.2690  177.6510  139.7010 C   0  0  0  0  0  0  0  0  0  0  0  0
  192.0320  175.2170  136.5760 C   0  0  0  0  0  0  0  0  0  0  0  0
  189.8610  177.6530  138.3910 C   0  0  0  0  0  0  0  0  0  0  0  0
  191.1200  176.1710  136.8190 C   0  0  0  0  0  3  0  0  0  0  0  0
  187.8190  178.6410  137.4920 C   0  0  0  0  0  3  0  0  0  0  0  0
  187.2250  178.5820  138.7430 C   0  0  0  0  0  3  0  0  0  0  0  0
  192.2690  177.4930  140.0800 C   0  0  0  0  0  2  0  0  0  0  0  0
  191.7070  177.0610  142.3860 C   0  0  0  0  0  2  0  0  0  0  0  0
  189.1190  178.1850  137.3240 C   0  0  0  0  0  3  0  0  0  0  0  0
  193.3120  176.1030  138.5480 C   0  0  0  0  0  2  0  0  0  0  0  0
  192.0060  176.4880  139.0770 N   0  0  2  0  0  0  0  0  0  0  0  0
  191.2850  177.2780  141.1510 C   0  0  0  0  0  0  0  0  0  0  0  0
  193.1500  174.9520  137.5570 C   0  0  0  0  0  2  0  0  0  0  0  0
  191.8150  174.2900  135.4110 C   0  0  1  0  0  3  0  0  0  0  0  0
  192.5120  173.0910  135.5820 O   0  0  0  0  0  1  0  0  0  0  0  0
  190.3960  174.0170  135.2130 N   0  0  0  0  0  0  0  0  0  0  0  0
  188.7960  172.3270  135.9430 C   0  0  0  0  0  3  0  0  0  0  0  0
  188.1900  174.6540  136.6190 N   0  0  0  0  0  2  0  0  0  0  0  0
  189.5480  175.0430  134.5940 C   0  0  0  0  0  2  0  0  0  0  0  0
  189.9580  172.6620  135.3700 C   0  0  0  0  0  3  0  0  0  0  0  0
  187.8940  173.2830  136.5230 N   0  0  0  0  0  2  0  0  0  0  0  0
  188.1790  175.1880  135.2660 C   0  0  0  0  0  2  0  0  0  0  0  0
  189.3320  177.2440  144.8990 C   0  0  0  0  0  3  0  0  0  0  0  0
  190.4780  177.2690  147.0310 C   0  0  0  0  0  3  0  0  0  0  0  0
  188.1380  177.6560  145.5150 C   0  0  0  0  0  0  0  0  0  0  0  0
  188.1370  177.8620  146.9040 C   0  0  0  0  0  3  0  0  0  0  0  0
  189.2980  177.6700  147.6580 C   0  0  0  0  0  3  0  0  0  0  0  0
  190.4950  177.0520  145.6510 C   0  0  0  0  0  3  0  0  0  0  0  0
  183.2580  178.5770  142.5600 N   0  0  0  0  0  0  0  0  0  0  0  0
  182.4740  179.6450  142.8790 O   0  0  0  0  0  0  0  0  0  0  0  0
  181.9410  179.3630  144.1440 C   0  0  0  0  0  2  0  0  0  0  0  0
  180.6960  178.6340  143.9970 N   0  0  0  0  0  1  0  0  0  0  0  0
  182.9240  177.7100  141.4240 C   0  0  0  0  0  2  0  0  0  0  0  0
  180.5970  178.3920  138.5410 C   0  0  0  0  0  2  0  0  0  0  0  0
  179.9800  178.2460  140.9210 C   0  0  0  0  0  1  0  0  0  0  0  0
  182.9180  178.1220  137.8700 C   0  0  0  0  0  0  0  0  0  0  0  0
  183.3650  178.5790  139.2330 C   0  0  1  0  0  3  0  0  0  0  0  0
  181.0410  177.8720  139.9010 C   0  0  2  0  0  3  0  0  0  0  0  0
  181.5620  178.0220  137.5710 O   0  0  0  0  0  0  0  0  0  0  0  0
  183.7720  177.8450  136.9890 O   0  0  0  0  0  0  0  0  0  0  0  0
  183.8390  180.0220  139.1610 C   0  0  0  0  0  1  0  0  0  0  0  0
  182.3420  178.4520  140.2950 N   0  0  0  0  0  0  0  0  0  0  0  0
  1  8  1  0  0  0  0
  3  1  2  0  0  0  0
  3  6  1  0  0  0  0
  4  3  1  0  0  0  0
  5  6  2  0  0  0  0
  6  7  1  0  0  0  0
  7  2  2  0  0  0  0
  7 37  1  0  0  0  0
  8  2  1  0  0  0  0
  9  4  2  0  0  0  0
  9  5  1  0  0  0  0
 10  9  1  0  0  0  0
 11 16  1  6  0  0  0
 11 15  1  0  0  0  0
 11 23  1  0  0  0  0
 12 24  1  0  0  0  0
 13 10  1  0  0  0  0
 13 12  1  0  0  0  0
 14 16  2  0  0  0  0
 14 25  1  0  0  0  0
 15 13  2  0  0  0  0
 17 18  1  0  0  0  0
 18 10  2  0  0  0  0
 19 24  1  0  0  0  0
 21 17  2  0  0  0  0
 21 15  1  0  0  0  0
 23 22  1  6  0  0  0
 23 19  1  0  0  0  0
 24 20  2  0  0  0  0
 25 22  1  0  0  0  0
 26 27  1  1  0  0  0
 26 14  1  0  0  0  0
 28 32  1  0  0  0  0
 28 26  1  0  0  0  0
 29 33  1  0  0  0  0
 31 28  1  0  0  0  0
 31 34  1  0  0  0  0
 32 29  2  0  0  0  0
 33 30  1  0  0  0  0
 34 30  1  0  0  0  0
 35 37  2  0  0  0  0
 35 40  1  0  0  0  0
 36 39  1  0  0  0  0
 37 38  1  0  0  0  0
 38 39  2  0  0  0  0
 40 36  2  0  0  0  0
 41 42  1  0  0  0  0
 41  1  1  0  0  0  0
 42 43  1  0  0  0  0
 44 43  1  0  0  0  0
 45 41  1  0  0  0  0
 46 50  1  0  0  0  0
 48 49  1  0  0  0  0
 49 53  1  6  0  0  0
 49 54  1  0  0  0  0
 50 54  1  0  0  0  0
 50 47  1  1  0  0  0
 51 48  1  0  0  0  0
 51 46  1  0  0  0  0
 52 48  2  0  0  0  0
 54 45  1  0  0  0  0
M  END
>  <MODEL>
4

>  <REMARK>
 VINA RESULT:      -8.1      1.789      2.617
  Name = 
  9 active torsions:
  status: ('A' for Active; 'I' for Inactive)
    1  A    between atoms: N_1  and  C_14
    2  A    between atoms: C_3  and  N_19
    3  A    between atoms: C_5  and  C_52
    4  A    between atoms: C_14  and  C_20
    5  A    between atoms: N_19  and  O_29
    6  A    between atoms: N_19  and  C_38
    7  A    between atoms: C_23  and  O_29
    8  A    between atoms: C_28  and  C_42
    9  A    between atoms: C_38  and  N_51
                            x       y       z     vdW  Elec       q    Type
                         _______ _______ _______ _____ _____    ______ ____

>  <TORSDO>
F 9

$$$$
=
 OpenBabel11042411153D

 54 61  0  0  1  0  0  0  0  0999 V2000
  184.1910  178.7500  140.9490 C   0  0  0  0  0  0  0  0  0  0  0  0
  184.8090  178.5450  143.3000 C   0  0  0  0  0  3  0  0  0  0  0  0
  185.5140  178.4420  140.6240 C   0  0  0  0  0  0  0  0  0  0  0  0
  186.0380  178.3760  139.3920 N   0  0  0  0  0  0  0  0  0  0  0  0
  187.6490  177.9260  140.9420 C   0  0  0  0  0  3  0  0  0  0  0  0
  186.4570  178.1840  141.5880 C   0  0  0  0  0  0  0  0  0  0  0  0
  186.1450  178.2270  142.9640 C   0  0  0  0  0  0  0  0  0  0  0  0
  183.8450  178.8020  142.3070 C   0  0  0  0  0  2  0  0  0  0  0  0
  187.3400  178.0640  139.5870 C   0  0  0  0  0  0  0  0  0  0  0  0
  188.3090  177.8610  138.4830 C   0  0  0  0  0  0  0  0  0  0  0  0
  191.9630  176.7360  137.6220 C   0  0  2  0  0  3  0  0  0  0  0  0
  190.0180  177.2720  140.0660 O   0  0  0  0  0  0  0  0  0  0  0  0
  189.6510  177.4600  138.7190 C   0  0  0  0  0  0  0  0  0  0  0  0
  193.0710  174.6600  136.7750 C   0  0  0  0  0  0  0  0  0  0  0  0
  190.5270  177.2660  137.5960 C   0  0  0  0  0  0  0  0  0  0  0  0
  192.1220  175.5980  136.6340 C   0  0  0  0  0  3  0  0  0  0  0  0
  188.7370  177.9890  136.1020 C   0  0  0  0  0  3  0  0  0  0  0  0
  187.8730  178.1160  137.1780 C   0  0  0  0  0  3  0  0  0  0  0  0
  192.4850  177.5100  139.7820 C   0  0  0  0  0  2  0  0  0  0  0  0
  191.4140  177.4530  141.9430 C   0  0  0  0  0  2  0  0  0  0  0  0
  190.0440  177.5720  136.3130 C   0  0  0  0  0  3  0  0  0  0  0  0
  193.8600  175.9300  138.7950 C   0  0  0  0  0  2  0  0  0  0  0  0
  192.4650  176.3370  138.9410 N   0  0  2  0  0  0  0  0  0  0  0  0
  191.2840  177.4360  140.6260 C   0  0  0  0  0  0  0  0  0  0  0  0
  193.9370  174.6200  138.0130 C   0  0  0  0  0  2  0  0  0  0  0  0
  193.1330  173.5380  135.7750 C   0  0  1  0  0  3  0  0  0  0  0  0
  192.4110  173.8500  134.6200 O   0  0  0  0  0  1  0  0  0  0  0  0
  194.5120  173.2160  135.4290 N   0  0  0  0  0  0  0  0  0  0  0  0
  196.5200  174.4550  134.8090 C   0  0  0  0  0  3  0  0  0  0  0  0
  196.7800  173.0710  136.8720 N   0  0  0  0  0  2  0  0  0  0  0  0
  195.0100  171.8540  135.6550 C   0  0  0  0  0  2  0  0  0  0  0  0
  195.2270  174.1630  134.6260 C   0  0  0  0  0  3  0  0  0  0  0  0
  197.3130  173.9050  135.8730 N   0  0  0  0  0  2  0  0  0  0  0  0
  196.4270  171.8120  136.2340 C   0  0  0  0  0  2  0  0  0  0  0  0
  186.7440  177.8210  145.3850 C   0  0  0  0  0  3  0  0  0  0  0  0
  189.0450  177.4940  146.0630 C   0  0  0  0  0  3  0  0  0  0  0  0
  187.1410  177.9800  144.0460 C   0  0  0  0  0  0  0  0  0  0  0  0
  188.5090  177.8990  143.7390 C   0  0  0  0  0  3  0  0  0  0  0  0
  189.4560  177.6570  144.7380 C   0  0  0  0  0  3  0  0  0  0  0  0
  187.6880  177.5790  146.3870 C   0  0  0  0  0  3  0  0  0  0  0  0
  183.2140  179.0160  139.9350 N   0  0  0  0  0  0  0  0  0  0  0  0
  183.3820  180.0740  139.0940 O   0  0  0  0  0  0  0  0  0  0  0  0
  182.2230  180.8530  139.2250 C   0  0  0  0  0  2  0  0  0  0  0  0
  181.6580  181.1110  137.9150 N   0  0  0  0  0  1  0  0  0  0  0  0
  182.0900  178.0880  139.7650 C   0  0  0  0  0  2  0  0  0  0  0  0
  180.7020  176.0680  136.9040 C   0  0  0  0  0  2  0  0  0  0  0  0
  179.7360  178.1280  137.8500 C   0  0  0  0  0  1  0  0  0  0  0  0
  182.7770  175.1760  137.8020 C   0  0  0  0  0  0  0  0  0  0  0  0
  183.1670  176.5540  138.2690 C   0  0  1  0  0  3  0  0  0  0  0  0
  180.6870  176.9760  138.1260 C   0  0  2  0  0  3  0  0  0  0  0  0
  181.5600  174.9700  137.1570 O   0  0  0  0  0  0  0  0  0  0  0  0
  183.5610  174.2090  137.9770 O   0  0  0  0  0  0  0  0  0  0  0  0
  184.1970  177.1460  137.3210 C   0  0  0  0  0  1  0  0  0  0  0  0
  182.0380  177.5000  138.4180 N   0  0  0  0  0  0  0  0  0  0  0  0
  1  8  1  0  0  0  0
  3  1  2  0  0  0  0
  3  6  1  0  0  0  0
  4  9  2  0  0  0  0
  4  3  1  0  0  0  0
  5  6  2  0  0  0  0
  6  7  1  0  0  0  0
  7  2  2  0  0  0  0
  7 37  1  0  0  0  0
  8  2  1  0  0  0  0
  9  5  1  0  0  0  0
 10 13  1  0  0  0  0
 10  9  1  0  0  0  0
 11 16  1  6  0  0  0
 11 23  1  0  0  0  0
 12 24  1  0  0  0  0
 13 12  1  0  0  0  0
 14 25  1  0  0  0  0
 15 11  1  0  0  0  0
 15 13  2  0  0  0  0
 16 14  2  0  0  0  0
 17 21  2  0  0  0  0
 17 18  1  0  0  0  0
 18 10  2  0  0  0  0
 19 24  1  0  0  0  0
 21 15  1  0  0  0  0
 23 22  1  6  0  0  0
 23 19  1  0  0  0  0
 24 20  2  0  0  0  0
 25 22  1  0  0  0  0
 26 27  1  6  0  0  0
 26 14  1  0  0  0  0
 28 31  1  0  0  0  0
 28 26  1  0  0  0  0
 29 33  1  0  0  0  0
 31 34  1  0  0  0  0
 32 29  2  0  0  0  0
 32 28  1  0  0  0  0
 33 30  1  0  0  0  0
 34 30  1  0  0  0  0
 35 40  1  0  0  0  0
 36 40  2  0  0  0  0
 37 35  2  0  0  0  0
 38 37  1  0  0  0  0
 38 39  2  0  0  0  0
 39 36  1  0  0  0  0
 41  1  1  0  0  0  0
 42 43  1  0  0  0  0
 42 41  1  0  0  0  0
 44 43  1  0  0  0  0
 45 41  1  0  0  0  0
 46 51  1  0  0  0  0
 46 50  1  0  0  0  0
 48 52  2  0  0  0  0
 48 49  1  0  0  0  0
 49 53  1  6  0  0  0
 49 54  1  0  0  0  0
 50 47  1  6  0  0  0
 50 54  1  0  0  0  0
 51 48  1  0  0  0  0
 54 45  1  0  0  0  0
M  END
>  <MODEL>
5

>  <REMARK>
 VINA RESULT:      -7.8      2.852      3.936
  Name = 
  9 active torsions:
  status: ('A' for Active; 'I' for Inactive)
    1  A    between atoms: N_1  and  C_14
    2  A    between atoms: C_3  and  N_19
    3  A    between atoms: C_5  and  C_52
    4  A    between atoms: C_14  and  C_20
    5  A    between atoms: N_19  and  O_29
    6  A    between atoms: N_19  and  C_38
    7  A    between atoms: C_23  and  O_29
    8  A    between atoms: C_28  and  C_42
    9  A    between atoms: C_38  and  N_51
                            x       y       z     vdW  Elec       q    Type
                         _______ _______ _______ _____ _____    ______ ____

>  <TORSDO>
F 9

$$$$
=
 OpenBabel11042411153D

 54 61  0  0  1  0  0  0  0  0999 V2000
  192.8420  176.5170  138.0960 C   0  0  0  0  0  0  0  0  0  0  0  0
  192.7370  176.8750  140.5070 C   0  0  0  0  0  3  0  0  0  0  0  0
  191.4560  176.6900  138.0580 C   0  0  0  0  0  0  0  0  0  0  0  0
  190.6710  176.6080  136.9760 N   0  0  0  0  0  0  0  0  0  0  0  0
  189.4030  177.0630  138.8160 C   0  0  0  0  0  3  0  0  0  0  0  0
  190.7280  176.9560  139.1920 C   0  0  0  0  0  0  0  0  0  0  0  0
  191.3360  177.0570  140.4610 C   0  0  0  0  0  0  0  0  0  0  0  0
  193.4800  176.6100  139.3410 C   0  0  0  0  0  2  0  0  0  0  0  0
  189.4190  176.8340  137.4380 C   0  0  0  0  0  0  0  0  0  0  0  0
  188.2170  176.8630  136.5710 C   0  0  0  0  0  0  0  0  0  0  0  0
  185.1950  174.7470  135.2490 C   0  0  2  0  0  3  0  0  0  0  0  0
  187.8200  174.5340  137.0120 O   0  0  0  0  0  0  0  0  0  0  0  0
  187.4110  175.7130  136.3590 C   0  0  0  0  0  0  0  0  0  0  0  0
  182.7680  174.5040  135.8040 C   0  0  0  0  0  0  0  0  0  0  0  0
  186.2490  175.8240  135.5190 C   0  0  0  0  0  0  0  0  0  0  0  0
  183.8040  175.2980  135.4940 C   0  0  0  0  0  3  0  0  0  0  0  0
  186.8250  178.1520  135.0640 C   0  0  0  0  0  3  0  0  0  0  0  0
  187.9100  178.0640  135.9230 C   0  0  0  0  0  3  0  0  0  0  0  0
  186.6260  172.9030  135.5490 C   0  0  0  0  0  2  0  0  0  0  0  0
  188.2630  172.2380  137.1910 C   0  0  0  0  0  2  0  0  0  0  0  0
  186.0120  177.0450  134.8670 C   0  0  0  0  0  3  0  0  0  0  0  0
  184.3370  172.5570  135.5500 C   0  0  0  0  0  2  0  0  0  0  0  0
  185.3780  173.4880  135.9780 N   0  0  2  0  0  0  0  0  0  0  0  0
  187.6130  173.2210  136.5920 C   0  0  0  0  0  0  0  0  0  0  0  0
  182.9780  173.0300  136.0630 C   0  0  0  0  0  2  0  0  0  0  0  0
  181.4300  175.1350  136.0770 C   0  0  1  0  0  3  0  0  0  0  0  0
  180.4540  174.1660  136.3240 O   0  0  0  0  0  1  0  0  0  0  0  0
  181.5060  176.0650  137.1970 N   0  0  0  0  0  0  0  0  0  0  0  0
  182.3080  176.0050  139.5000 C   0  0  0  0  0  3  0  0  0  0  0  0
  183.4330  177.7250  138.0800 N   0  0  0  0  0  2  0  0  0  0  0  0
  181.2420  177.4900  136.9670 C   0  0  0  0  0  2  0  0  0  0  0  0
  181.5530  175.5050  138.5150 C   0  0  0  0  0  3  0  0  0  0  0  0
  183.2030  177.1150  139.3260 N   0  0  0  0  0  2  0  0  0  0  0  0
  182.2080  178.4160  137.7120 C   0  0  0  0  0  2  0  0  0  0  0  0
  189.3980  176.6240  142.0240 C   0  0  0  0  0  3  0  0  0  0  0  0
  189.1970  177.8170  144.1210 C   0  0  0  0  0  3  0  0  0  0  0  0
  190.5830  177.3170  141.7210 C   0  0  0  0  0  0  0  0  0  0  0  0
  191.0550  178.2700  142.6390 C   0  0  0  0  0  3  0  0  0  0  0  0
  190.3690  178.5190  143.8310 C   0  0  0  0  0  3  0  0  0  0  0  0
  188.7100  176.8720  143.2150 C   0  0  0  0  0  3  0  0  0  0  0  0
  193.5930  176.2420  136.9070 N   0  0  0  0  0  0  0  0  0  0  0  0
  194.5720  177.1010  136.5100 O   0  0  0  0  0  0  0  0  0  0  0  0
  194.5390  177.0960  135.1090 C   0  0  0  0  0  2  0  0  0  0  0  0
  195.5160  178.0370  134.5940 N   0  0  0  0  0  1  0  0  0  0  0  0
  193.3500  174.9880  136.1830 C   0  0  0  0  0  2  0  0  0  0  0  0
  194.7320  171.7390  137.4950 C   0  0  0  0  0  2  0  0  0  0  0  0
  193.1270  172.0090  135.6460 C   0  0  0  0  0  1  0  0  0  0  0  0
  195.6100  173.6970  138.6370 C   0  0  0  0  0  0  0  0  0  0  0  0
  195.3600  174.5270  137.4060 C   0  0  1  0  0  3  0  0  0  0  0  0
  193.7230  172.6900  136.8670 C   0  0  2  0  0  3  0  0  0  0  0  0
  195.2740  172.3460  138.6550 O   0  0  0  0  0  0  0  0  0  0  0  0
  196.1410  174.2200  139.6500 O   0  0  0  0  0  0  0  0  0  0  0  0
  196.6680  174.7590  136.6680 C   0  0  0  0  0  1  0  0  0  0  0  0
  194.3630  173.9610  136.4700 N   0  0  0  0  0  0  0  0  0  0  0  0
  1  8  1  0  0  0  0
  3  1  2  0  0  0  0
  3  6  1  0  0  0  0
  4  9  2  0  0  0  0
  4  3  1  0  0  0  0
  5  6  2  0  0  0  0
  6  7  1  0  0  0  0
  7  2  2  0  0  0  0
  7 37  1  0  0  0  0
  8  2  1  0  0  0  0
  9  5  1  0  0  0  0
 10  9  1  0  0  0  0
 11 16  1  1  0  0  0
 11 15  1  0  0  0  0
 11 23  1  0  0  0  0
 13 10  1  0  0  0  0
 13 12  1  0  0  0  0
 14 25  1  0  0  0  0
 14 26  1  0  0  0  0
 15 13  2  0  0  0  0
 16 14  2  0  0  0  0
 17 18  1  0  0  0  0
 18 10  2  0  0  0  0
 19 24  1  0  0  0  0
 21 17  2  0  0  0  0
 21 15  1  0  0  0  0
 22 23  1  0  0  0  0
 22 25  1  0  0  0  0
 23 19  1  6  0  0  0
 24 12  1  0  0  0  0
 24 20  2  0  0  0  0
 26 27  1  1  0  0  0
 26 28  1  0  0  0  0
 28 32  1  0  0  0  0
 30 33  1  0  0  0  0
 31 28  1  0  0  0  0
 31 34  1  0  0  0  0
 32 29  2  0  0  0  0
 33 29  1  0  0  0  0
 34 30  1  0  0  0  0
 35 40  1  0  0  0  0
 37 35  2  0  0  0  0
 37 38  1  0  0  0  0
 38 39  2  0  0  0  0
 39 36  1  0  0  0  0
 40 36  2  0  0  0  0
 41  1  1  0  0  0  0
 42 41  1  0  0  0  0
 43 42  1  0  0  0  0
 44 43  1  0  0  0  0
 45 54  1  0  0  0  0
 45 41  1  0  0  0  0
 46 51  1  0  0  0  0
 48 51  1  0  0  0  0
 48 52  2  0  0  0  0
 49 53  1  6  0  0  0
 49 48  1  0  0  0  0
 50 47  1  6  0  0  0
 50 46  1  0  0  0  0
 54 50  1  0  0  0  0
 54 49  1  0  0  0  0
M  END
>  <MODEL>
6

>  <REMARK>
 VINA RESULT:      -7.7      3.222      9.949
  Name = 
  9 active torsions:
  status: ('A' for Active; 'I' for Inactive)
    1  A    between atoms: N_1  and  C_14
    2  A    between atoms: C_3  and  N_19
    3  A    between atoms: C_5  and  C_52
    4  A    between atoms: C_14  and  C_20
    5  A    between atoms: N_19  and  O_29
    6  A    between atoms: N_19  and  C_38
    7  A    between atoms: C_23  and  O_29
    8  A    between atoms: C_28  and  C_42
    9  A    between atoms: C_38  and  N_51
                            x       y       z     vdW  Elec       q    Type
                         _______ _______ _______ _____ _____    ______ ____

>  <TORSDO>
F 9

$$$$
=
 OpenBabel11042411153D

 54 61  0  0  1  0  0  0  0  0999 V2000
  182.3490  178.3450  139.3090 C   0  0  0  0  0  0  0  0  0  0  0  0
  182.5000  178.3580  141.7450 C   0  0  0  0  0  3  0  0  0  0  0  0
  183.7450  178.2820  139.2720 C   0  0  0  0  0  0  0  0  0  0  0  0
  184.5120  178.2660  138.1740 N   0  0  0  0  0  0  0  0  0  0  0  0
  185.8270  178.1950  140.0360 C   0  0  0  0  0  3  0  0  0  0  0  0
  184.5010  178.2480  140.4180 C   0  0  0  0  0  0  0  0  0  0  0  0
  183.9120  178.2870  141.6990 C   0  0  0  0  0  0  0  0  0  0  0  0
  181.7300  178.3860  140.5670 C   0  0  0  0  0  2  0  0  0  0  0  0
  185.7820  178.2150  138.6400 C   0  0  0  0  0  0  0  0  0  0  0  0
  186.9760  178.1550  137.7640 C   0  0  0  0  0  0  0  0  0  0  0  0
  190.7930  177.2770  137.6430 C   0  0  2  0  0  3  0  0  0  0  0  0
  188.3380  177.5050  139.6330 O   0  0  0  0  0  0  0  0  0  0  0  0
  188.2580  177.7960  138.2580 C   0  0  0  0  0  0  0  0  0  0  0  0
  192.1870  175.3360  136.9020 C   0  0  0  0  0  0  0  0  0  0  0  0
  189.3660  177.7420  137.3430 C   0  0  0  0  0  0  0  0  0  0  0  0
  191.2330  176.2390  136.6290 C   0  0  0  0  0  3  0  0  0  0  0  0
  187.8980  178.5140  135.5520 C   0  0  0  0  0  3  0  0  0  0  0  0
  186.8160  178.5060  136.4190 C   0  0  0  0  0  3  0  0  0  0  0  0
  190.7890  177.8780  139.9180 C   0  0  0  0  0  2  0  0  0  0  0  0
  189.2840  177.5810  141.7790 C   0  0  0  0  0  2  0  0  0  0  0  0
  189.1520  178.1390  136.0130 C   0  0  0  0  0  3  0  0  0  0  0  0
  192.4410  176.4550  139.1380 C   0  0  0  0  0  2  0  0  0  0  0  0
  191.0250  176.7850  139.0050 N   0  0  2  0  0  0  0  0  0  0  0  0
  189.4410  177.6750  140.4690 C   0  0  0  0  0  0  0  0  0  0  0  0
  192.7670  175.2250  138.2930 C   0  0  0  0  0  2  0  0  0  0  0  0
  192.5330  174.3110  135.8560 C   0  0  1  0  0  3  0  0  0  0  0  0
  192.6730  174.9010  134.5970 O   0  0  0  0  0  1  0  0  0  0  0  0
  193.7510  173.5910  136.2080 N   0  0  0  0  0  0  0  0  0  0  0  0
  196.0140  174.1710  136.9070 C   0  0  0  0  0  3  0  0  0  0  0  0
  194.7780  172.7560  138.5520 N   0  0  0  0  0  2  0  0  0  0  0  0
  193.6900  172.1410  136.4220 C   0  0  0  0  0  2  0  0  0  0  0  0
  194.9940  174.2850  136.0490 C   0  0  0  0  0  3  0  0  0  0  0  0
  195.9500  173.3980  138.1160 N   0  0  0  0  0  2  0  0  0  0  0  0
  194.5170  171.6680  137.6220 C   0  0  0  0  0  2  0  0  0  0  0  0
  186.0620  177.9630  142.9860 C   0  0  0  0  0  3  0  0  0  0  0  0
  186.1430  178.2950  145.3830 C   0  0  0  0  0  3  0  0  0  0  0  0
  184.6920  178.2790  142.9690 C   0  0  0  0  0  0  0  0  0  0  0  0
  184.0630  178.5950  144.1850 C   0  0  0  0  0  3  0  0  0  0  0  0
  184.7820  178.6040  145.3830 C   0  0  0  0  0  3  0  0  0  0  0  0
  186.7830  177.9710  144.1830 C   0  0  0  0  0  3  0  0  0  0  0  0
  181.5700  178.3780  138.1080 N   0  0  0  0  0  0  0  0  0  0  0  0
  181.5840  179.4900  137.3210 O   0  0  0  0  0  0  0  0  0  0  0  0
  180.4390  180.2190  137.6710 C   0  0  0  0  0  2  0  0  0  0  0  0
  179.8310  180.7740  136.4770 N   0  0  0  0  0  1  0  0  0  0  0  0
  180.8330  177.1750  137.7010 C   0  0  0  0  0  2  0  0  0  0  0  0
  181.6590  174.9120  134.8050 C   0  0  0  0  0  2  0  0  0  0  0  0
  181.2820  177.3440  134.7040 C   0  0  0  0  0  1  0  0  0  0  0  0
  181.5500  173.7530  136.9400 C   0  0  0  0  0  0  0  0  0  0  0  0
  181.9070  175.0310  137.6510 C   0  0  1  0  0  3  0  0  0  0  0  0
  181.0440  176.0960  135.5370 C   0  0  2  0  0  3  0  0  0  0  0  0
  181.4170  173.7330  135.5540 O   0  0  0  0  0  0  0  0  0  0  0  0
  181.3880  172.6930  137.5960 O   0  0  0  0  0  0  0  0  0  0  0  0
  183.3700  174.9980  138.0640 C   0  0  0  0  0  1  0  0  0  0  0  0
  181.6440  176.2650  136.8770 N   0  0  0  0  0  0  0  0  0  0  0  0
  1  8  1  0  0  0  0
  3  1  2  0  0  0  0
  3  6  1  0  0  0  0
  4  9  2  0  0  0  0
  4  3  1  0  0  0  0
  5  6  2  0  0  0  0
  6  7  1  0  0  0  0
  7  2  2  0  0  0  0
  7 37  1  0  0  0  0
  8  2  1  0  0  0  0
  9  5  1  0  0  0  0
 10 13  1  0  0  0  0
 10  9  1  0  0  0  0
 11 16  1  6  0  0  0
 11 23  1  0  0  0  0
 12 24  1  0  0  0  0
 13 12  1  0  0  0  0
 14 25  1  0  0  0  0
 15 11  1  0  0  0  0
 15 13  2  0  0  0  0
 16 14  2  0  0  0  0
 17 21  2  0  0  0  0
 17 18  1  0  0  0  0
 18 10  2  0  0  0  0
 19 24  1  0  0  0  0
 21 15  1  0  0  0  0
 23 22  1  6  0  0  0
 23 19  1  0  0  0  0
 24 20  2  0  0  0  0
 25 22  1  0  0  0  0
 26 27  1  6  0  0  0
 26 28  1  0  0  0  0
 26 14  1  0  0  0  0
 28 31  1  0  0  0  0
 29 33  1  0  0  0  0
 31 34  1  0  0  0  0
 32 28  1  0  0  0  0
 32 29  2  0  0  0  0
 33 30  1  0  0  0  0
 34 30  1  0  0  0  0
 35 40  1  0  0  0  0
 37 35  2  0  0  0  0
 37 38  1  0  0  0  0
 38 39  2  0  0  0  0
 39 36  1  0  0  0  0
 40 36  2  0  0  0  0
 41  1  1  0  0  0  0
 42 43  1  0  0  0  0
 42 41  1  0  0  0  0
 44 43  1  0  0  0  0
 45 41  1  0  0  0  0
 46 50  1  0  0  0  0
 46 51  1  0  0  0  0
 48 52  2  0  0  0  0
 48 49  1  0  0  0  0
 49 53  1  6  0  0  0
 50 47  1  6  0  0  0
 50 54  1  0  0  0  0
 51 48  1  0  0  0  0
 54 49  1  0  0  0  0
 54 45  1  0  0  0  0
M  END
>  <MODEL>
7

>  <REMARK>
 VINA RESULT:      -7.0      2.542      3.579
  Name = 
  9 active torsions:
  status: ('A' for Active; 'I' for Inactive)
    1  A    between atoms: N_1  and  C_14
    2  A    between atoms: C_3  and  N_19
    3  A    between atoms: C_5  and  C_52
    4  A    between atoms: C_14  and  C_20
    5  A    between atoms: N_19  and  O_29
    6  A    between atoms: N_19  and  C_38
    7  A    between atoms: C_23  and  O_29
    8  A    between atoms: C_28  and  C_42
    9  A    between atoms: C_38  and  N_51
                            x       y       z     vdW  Elec       q    Type
                         _______ _______ _______ _____ _____    ______ ____

>  <TORSDO>
F 9

$$$$
=
 OpenBabel11042411153D

 54 61  0  0  1  0  0  0  0  0999 V2000
  192.4910  173.5760  135.5290 C   0  0  0  0  0  0  0  0  0  0  0  0
  190.7590  172.0900  134.6660 C   0  0  0  0  0  3  0  0  0  0  0  0
  191.5230  174.1430  136.3600 C   0  0  0  0  0  0  0  0  0  0  0  0
  191.7030  175.1570  137.2180 N   0  0  0  0  0  2  0  0  0  0  0  0
  189.5290  174.4690  137.2810 C   0  0  0  0  0  3  0  0  0  0  0  0
  190.2210  173.7040  136.3620 C   0  0  0  0  0  0  0  0  0  0  0  0
  189.7850  172.6640  135.5150 C   0  0  0  0  0  0  0  0  0  0  0  0
  192.0930  172.5390  134.6720 C   0  0  0  0  0  3  0  0  0  0  0  0
  190.4870  175.3560  137.7770 C   0  0  0  0  0  0  0  0  0  0  0  0
  190.2200  176.3780  138.8180 C   0  0  0  0  0  0  0  0  0  0  0  0
  187.4540  178.6520  140.4100 C   0  0  2  0  0  3  0  0  0  0  0  0
  187.9480  176.5810  138.0630 O   0  0  0  0  0  0  0  0  0  0  0  0
  188.9480  176.9910  138.9670 C   0  0  0  0  0  0  0  0  0  0  0  0
  185.9920  178.5820  142.4390 C   0  0  0  0  0  0  0  0  0  0  0  0
  188.7600  177.9600  140.0120 C   0  0  0  0  0  0  0  0  0  0  0  0
  187.2200  178.5160  141.9020 C   0  0  0  0  0  3  0  0  0  0  0  0
  191.1170  177.7410  140.6090 C   0  0  0  0  0  3  0  0  0  0  0  0
  191.2830  176.7610  139.6430 C   0  0  0  0  0  3  0  0  0  0  0  0
  186.4570  178.5690  138.2800 C   0  0  0  0  0  2  0  0  0  0  0  0
  186.1580  176.8870  136.5770 C   0  0  0  0  0  2  0  0  0  0  0  0
  189.8720  178.3310  140.7850 C   0  0  0  0  0  3  0  0  0  0  0  0
  185.1310  179.0320  140.1210 C   0  0  0  0  0  2  0  0  0  0  0  0
  186.2620  178.2270  139.6690 N   0  0  2  0  0  0  0  0  0  0  0  0
  186.8690  177.3320  137.6010 C   0  0  0  0  0  0  0  0  0  0  0  0
  184.7680  178.6530  141.5560 C   0  0  0  0  0  2  0  0  0  0  0  0
  185.8420  178.3920  143.9240 C   0  0  1  0  0  3  0  0  0  0  0  0
  184.5830  177.8760  144.2430 O   0  0  0  0  0  1  0  0  0  0  0  0
  186.8860  177.5220  144.4510 N   0  0  0  0  0  0  0  0  0  0  0  0
  188.6800  176.1470  143.5330 C   0  0  0  0  0  3  0  0  0  0  0  0
  189.4680  177.9330  145.0920 N   0  0  0  0  0  2  0  0  0  0  0  0
  187.1670  177.5290  145.8910 C   0  0  0  0  0  2  0  0  0  0  0  0
  187.3900  176.4990  143.5840 C   0  0  0  0  0  3  0  0  0  0  0  0
  189.7100  176.8030  144.2900 N   0  0  0  0  0  2  0  0  0  0  0  0
  188.6630  177.4900  146.2190 C   0  0  0  0  0  2  0  0  0  0  0  0
  187.2900  173.0520  135.5980 C   0  0  0  0  0  3  0  0  0  0  0  0
  185.7330  171.2160  135.3400 C   0  0  0  0  0  3  0  0  0  0  0  0
  188.3780  172.1730  135.4640 C   0  0  0  0  0  0  0  0  0  0  0  0
  188.1170  170.8060  135.2750 C   0  0  0  0  0  3  0  0  0  0  0  0
  186.8040  170.3290  135.2130 C   0  0  0  0  0  3  0  0  0  0  0  0
  185.9770  172.5780  135.5360 C   0  0  0  0  0  3  0  0  0  0  0  0
  193.8460  174.0400  135.5350 N   0  0  0  0  0  0  0  0  0  0  0  0
  194.2310  175.0230  134.6740 O   0  0  0  0  0  0  0  0  0  0  0  0
  194.3410  176.1860  135.4480 C   0  0  0  0  0  2  0  0  0  0  0  0
  194.6820  177.3090  134.5950 N   0  0  0  0  0  1  0  0  0  0  0  0
  194.7800  173.5040  136.5340 C   0  0  0  0  0  2  0  0  0  0  0  0
  197.5800  171.0850  135.8270 C   0  0  0  0  0  2  0  0  0  0  0  0
  195.2180  170.8240  135.1780 C   0  0  0  0  0  1  0  0  0  0  0  0
  198.3000  173.0800  137.0140 C   0  0  0  0  0  0  0  0  0  0  0  0
  197.1500  173.8490  136.4190 C   0  0  1  0  0  3  0  0  0  0  0  0
  196.1610  171.5510  136.1210 C   0  0  2  0  0  3  0  0  0  0  0  0
  198.4700  171.7300  136.7220 O   0  0  0  0  0  0  0  0  0  0  0  0
  199.1230  173.6630  137.7650 O   0  0  0  0  0  0  0  0  0  0  0  0
  197.6520  174.7250  135.2820 C   0  0  0  0  0  1  0  0  0  0  0  0
  196.0300  173.0110  135.9350 N   0  0  0  0  0  0  0  0  0  0  0  0
  1 41  1  0  0  0  0
  1  3  1  0  0  0  0
  2  8  1  0  0  0  0
  2  7  2  0  0  0  0
  3  6  2  0  0  0  0
  3  4  1  0  0  0  0
  4  9  1  0  0  0  0
  5  9  2  0  0  0  0
  6  5  1  0  0  0  0
  7  6  1  0  0  0  0
  8  1  2  0  0  0  0
  9 10  1  0  0  0  0
 10 13  2  0  0  0  0
 10 18  1  0  0  0  0
 11 16  1  1  0  0  0
 12 13  1  0  0  0  0
 13 15  1  0  0  0  0
 14 26  1  0  0  0  0
 15 11  1  0  0  0  0
 15 21  2  0  0  0  0
 16 14  2  0  0  0  0
 17 21  1  0  0  0  0
 18 17  2  0  0  0  0
 20 24  2  0  0  0  0
 22 25  1  0  0  0  0
 23 19  1  6  0  0  0
 23 22  1  0  0  0  0
 23 11  1  0  0  0  0
 24 12  1  0  0  0  0
 24 19  1  0  0  0  0
 25 14  1  0  0  0  0
 26 27  1  6  0  0  0
 26 28  1  0  0  0  0
 28 31  1  0  0  0  0
 29 32  2  0  0  0  0
 29 33  1  0  0  0  0
 30 34  1  0  0  0  0
 31 34  1  0  0  0  0
 32 28  1  0  0  0  0
 33 30  1  0  0  0  0
 36 40  2  0  0  0  0
 37  7  1  0  0  0  0
 37 35  2  0  0  0  0
 38 37  1  0  0  0  0
 39 38  2  0  0  0  0
 39 36  1  0  0  0  0
 40 35  1  0  0  0  0
 41 45  1  0  0  0  0
 42 43  1  0  0  0  0
 42 41  1  0  0  0  0
 44 43  1  0  0  0  0
 46 50  1  0  0  0  0
 46 51  1  0  0  0  0
 48 52  2  0  0  0  0
 49 53  1  6  0  0  0
 49 48  1  0  0  0  0
 50 47  1  6  0  0  0
 51 48  1  0  0  0  0
 54 50  1  0  0  0  0
 54 49  1  0  0  0  0
 54 45  1  0  0  0  0
M  END
>  <MODEL>
8

>  <REMARK>
 VINA RESULT:      -6.9      3.744     11.888
  Name = 
  9 active torsions:
  status: ('A' for Active; 'I' for Inactive)
    1  A    between atoms: N_1  and  C_14
    2  A    between atoms: C_3  and  N_19
    3  A    between atoms: C_5  and  C_52
    4  A    between atoms: C_14  and  C_20
    5  A    between atoms: N_19  and  O_29
    6  A    between atoms: N_19  and  C_38
    7  A    between atoms: C_23  and  O_29
    8  A    between atoms: C_28  and  C_42
    9  A    between atoms: C_38  and  N_51
                            x       y       z     vdW  Elec       q    Type
                         _______ _______ _______ _____ _____    ______ ____

>  <TORSDO>
F 9

$$$$
=
 OpenBabel11042411153D

 54 61  0  0  1  0  0  0  0  0999 V2000
  189.1210  177.3980  140.4730 C   0  0  0  0  0  0  0  0  0  0  0  0
  191.2470  176.7240  139.4840 C   0  0  0  0  0  3  0  0  0  0  0  0
  188.5430  177.2580  139.2090 C   0  0  0  0  0  0  0  0  0  0  0  0
  187.2660  177.4980  138.8850 N   0  0  0  0  0  0  0  0  0  0  0  0
  188.4180  176.8270  137.0350 C   0  0  0  0  0  3  0  0  0  0  0  0
  189.2750  176.8570  138.1180 C   0  0  0  0  0  0  0  0  0  0  0  0
  190.6550  176.5770  138.2090 C   0  0  0  0  0  0  0  0  0  0  0  0
  190.4910  177.1280  140.6010 C   0  0  0  0  0  2  0  0  0  0  0  0
  187.1900  177.2380  137.5590 C   0  0  0  0  0  0  0  0  0  0  0  0
  185.9390  177.3470  136.7710 C   0  0  0  0  0  0  0  0  0  0  0  0
  182.1050  178.1300  136.9830 C   0  0  2  0  0  3  0  0  0  0  0  0
  184.6920  177.7810  138.7790 O   0  0  0  0  0  0  0  0  0  0  0  0
  184.6860  177.6240  137.3800 C   0  0  0  0  0  0  0  0  0  0  0  0
  180.6250  180.0940  136.5230 C   0  0  0  0  0  0  0  0  0  0  0  0
  183.5190  177.7340  136.5480 C   0  0  0  0  0  0  0  0  0  0  0  0
  181.5770  179.2460  136.1030 C   0  0  0  0  0  3  0  0  0  0  0  0
  184.8790  177.1740  134.6000 C   0  0  0  0  0  3  0  0  0  0  0  0
  186.0160  177.1300  135.3920 C   0  0  0  0  0  3  0  0  0  0  0  0
  182.2740  177.3170  139.1850 C   0  0  0  0  0  2  0  0  0  0  0  0
  183.8940  177.4780  140.9650 C   0  0  0  0  0  2  0  0  0  0  0  0
  183.6500  177.4700  135.1750 C   0  0  0  0  0  3  0  0  0  0  0  0
  180.5440  178.7620  138.6530 C   0  0  0  0  0  2  0  0  0  0  0  0
  181.9550  178.4850  138.3980 N   0  0  2  0  0  0  0  0  0  0  0  0
  183.6510  177.5040  139.6650 C   0  0  0  0  0  0  0  0  0  0  0  0
  180.1370  180.0570  137.9530 C   0  0  0  0  0  2  0  0  0  0  0  0
  180.1880  181.2020  135.6050 C   0  0  1  0  0  3  0  0  0  0  0  0
  178.9310  180.9380  135.0550 O   0  0  0  0  0  1  0  0  0  0  0  0
  180.1700  182.4840  136.2990 N   0  0  0  0  0  0  0  0  0  0  0  0
  181.7760  183.8740  137.4980 C   0  0  0  0  0  3  0  0  0  0  0  0
  180.7350  185.0000  135.5260 N   0  0  0  0  0  2  0  0  0  0  0  0
  179.0010  183.3600  136.1580 C   0  0  0  0  0  2  0  0  0  0  0  0
  181.1640  182.7000  137.3080 C   0  0  0  0  0  2  0  0  0  0  0  0
  181.5550  185.0260  136.6690 N   0  0  0  0  0  0  0  0  0  0  0  0
  179.3650  184.8380  135.9870 C   0  0  0  0  0  2  0  0  0  0  0  0
  190.9200  175.6270  135.8820 C   0  0  0  0  0  3  0  0  0  0  0  0
  193.1060  175.4190  134.8620 C   0  0  0  0  0  3  0  0  0  0  0  0
  191.4940  176.1650  137.0470 C   0  0  0  0  0  0  0  0  0  0  0  0
  192.8900  176.3150  137.0990 C   0  0  0  0  0  3  0  0  0  0  0  0
  193.6910  175.9450  136.0150 C   0  0  0  0  0  3  0  0  0  0  0  0
  191.7190  175.2570  134.7970 C   0  0  0  0  0  3  0  0  0  0  0  0
  188.3490  177.8140  141.6060 N   0  0  0  0  0  0  0  0  0  0  0  0
  187.9950  179.1230  141.7410 O   0  0  0  0  0  0  0  0  0  0  0  0
  186.6290  179.1830  141.4330 C   0  0  0  0  0  2  0  0  0  0  0  0
  185.8940  179.6900  142.5760 N   0  0  0  0  0  1  0  0  0  0  0  0
  187.8770  176.8030  142.5600 C   0  0  0  0  0  2  0  0  0  0  0  0
  188.9190  178.0500  145.9590 C   0  0  0  0  0  2  0  0  0  0  0  0
  186.7220  177.1160  145.3490 C   0  0  0  0  0  1  0  0  0  0  0  0
  190.6810  178.1960  144.2910 C   0  0  0  0  0  0  0  0  0  0  0  0
  190.0560  177.0580  143.5300 C   0  0  1  0  0  3  0  0  0  0  0  0
  187.9870  177.7470  144.7930 C   0  0  2  0  0  3  0  0  0  0  0  0
  190.0910  178.6690  145.4600 O   0  0  0  0  0  0  0  0  0  0  0  0
  191.7520  178.7120  143.8810 O   0  0  0  0  0  0  0  0  0  0  0  0
  190.8350  175.7780  143.7870 C   0  0  0  0  0  1  0  0  0  0  0  0
  188.6240  176.8270  143.8270 N   0  0  0  0  0  0  0  0  0  0  0  0
  1  8  1  0  0  0  0
  1 41  1  0  0  0  0
  2  8  1  0  0  0  0
  3  1  2  0  0  0  0
  4  3  1  0  0  0  0
  5  9  1  0  0  0  0
  5  6  2  0  0  0  0
  6  7  1  0  0  0  0
  6  3  1  0  0  0  0
  7  2  2  0  0  0  0
  9  4  2  0  0  0  0
 10 13  1  0  0  0  0
 10  9  1  0  0  0  0
 11 16  1  6  0  0  0
 11 23  1  0  0  0  0
 12 24  1  0  0  0  0
 13 12  1  0  0  0  0
 14 25  1  0  0  0  0
 15 11  1  0  0  0  0
 15 13  2  0  0  0  0
 16 14  2  0  0  0  0
 17 21  2  0  0  0  0
 17 18  1  0  0  0  0
 18 10  2  0  0  0  0
 19 24  1  0  0  0  0
 21 15  1  0  0  0  0
 23 22  1  6  0  0  0
 23 19  1  0  0  0  0
 24 20  2  0  0  0  0
 25 22  1  0  0  0  0
 26 27  1  1  0  0  0
 26 28  1  0  0  0  0
 26 14  1  0  0  0  0
 28 32  1  0  0  0  0
 30 34  1  0  0  0  0
 30 33  1  0  0  0  0
 31 28  1  0  0  0  0
 32 29  1  0  0  0  0
 33 29  2  0  0  0  0
 34 31  1  0  0  0  0
 35 37  1  0  0  0  0
 36 39  2  0  0  0  0
 37 38  2  0  0  0  0
 37  7  1  0  0  0  0
 39 38  1  0  0  0  0
 40 36  1  0  0  0  0
 40 35  2  0  0  0  0
 41 42  1  0  0  0  0
 41 45  1  0  0  0  0
 43 42  1  0  0  0  0
 43 44  1  0  0  0  0
 45 54  1  0  0  0  0
 48 51  1  0  0  0  0
 49 53  1  1  0  0  0
 49 54  1  0  0  0  0
 49 48  1  0  0  0  0
 50 47  1  1  0  0  0
 50 46  1  0  0  0  0
 51 46  1  0  0  0  0
 52 48  2  0  0  0  0
 54 50  1  0  0  0  0
M  END
>  <MODEL>
9

>  <REMARK>
 VINA RESULT:      -6.6      3.010      9.694
  Name = 
  9 active torsions:
  status: ('A' for Active; 'I' for Inactive)
    1  A    between atoms: N_1  and  C_14
    2  A    between atoms: C_3  and  N_19
    3  A    between atoms: C_5  and  C_52
    4  A    between atoms: C_14  and  C_20
    5  A    between atoms: N_19  and  O_29
    6  A    between atoms: N_19  and  C_38
    7  A    between atoms: C_23  and  O_29
    8  A    between atoms: C_28  and  C_42
    9  A    between atoms: C_38  and  N_51
                            x       y       z     vdW  Elec       q    Type
                         _______ _______ _______ _____ _____    ______ ____

>  <TORSDO>
F 9

$$$$
